AV-unprocessed.smi:1782|AV-procd|sdf|7190|dock4
  -GOLD-   22720 8433D 1   1.00000     0.00000
 Structure written by MMmdl.
 42 44  0  0  0  0  0  0  0  0  2 V2000
  149.0660  140.4126  157.3554 O   0  0  0  0  0  0  0  0  0  0  0  0
  149.2897  141.4372  156.7125 C   0  0  0  0  0  0  0  0  0  0  0  0
  150.7461  141.8970  156.5211 C   0  0  0  0  0  0  0  0  0  0  0  0
  151.4361  142.3217  157.7539 N   0  0  0  0  0  0  0  0  0  0  0  0
  151.1784  143.6279  158.2067 C   0  0  0  0  0  0  0  0  0  0  0  0
  151.7536  144.1176  159.3132 C   0  0  0  0  0  0  0  0  0  0  0  0
  152.6591  143.2661  160.0452 C   0  0  0  0  0  0  0  0  0  0  0  0
  152.9305  142.0064  159.6324 C   0  0  0  0  0  0  0  0  0  0  0  0
  153.8912  141.0939  160.3917 C   0  0  0  0  0  0  0  0  0  0  0  0
  155.1163  141.1639  159.8701 F   0  0  0  0  0  0  0  0  0  0  0  0
  153.9622  141.4547  161.6738 F   0  0  0  0  0  0  0  0  0  0  0  0
  153.5010  139.8191  160.3485 F   0  0  0  0  0  0  0  0  0  0  0  0
  152.2912  141.4768  158.4105 C   0  0  0  0  0  0  0  0  0  0  0  0
  152.5162  140.3420  157.9869 O   0  0  0  0  0  0  0  0  0  0  0  0
  148.3100  142.1748  156.1635 N   0  0  0  0  0  0  0  0  0  0  0  0
  146.8881  141.8614  156.2279 C   0  0  2  0  0  0  0  0  0  0  0  0
  146.5637  140.3707  156.2094 C   0  0  0  0  0  0  0  0  0  0  0  0
  145.0996  140.3562  155.7572 C   0  0  0  0  0  0  0  0  0  0  0  0
  144.9015  141.5639  154.9173 N   0  3  1  0  0  0  0  0  0  0  0  0
  143.6807  142.3277  155.2554 C   0  0  0  0  0  0  0  0  0  0  0  0
  143.7454  143.7815  154.8519 C   0  0  0  0  0  0  0  0  0  0  0  0
  143.9068  143.3899  156.3049 C   0  0  0  0  0  0  0  0  0  0  0  0
  146.1421  142.3666  154.9936 C   0  0  0  0  0  0  0  0  0  0  0  0
  151.2939  141.0826  156.0448 H   0  0  0  0  0  0  0  0  0  0  0  0
  150.7581  142.7049  155.7874 H   0  0  0  0  0  0  0  0  0  0  0  0
  150.4927  144.2014  157.5996 H   0  0  0  0  0  0  0  0  0  0  0  0
  151.5465  145.1238  159.6470 H   0  0  0  0  0  0  0  0  0  0  0  0
  153.1232  143.6587  160.9378 H   0  0  0  0  0  0  0  0  0  0  0  0
  148.5744  143.0061  155.6549 H   0  0  0  0  0  0  0  0  0  0  0  0
  146.4518  142.3188  157.1184 H   0  0  0  0  0  0  0  0  0  0  0  0
  147.1866  139.8558  155.4759 H   0  0  0  0  0  0  0  0  0  0  0  0
  146.7114  139.8885  157.1762 H   0  0  0  0  0  0  0  0  0  0  0  0
  144.8496  139.4496  155.2057 H   0  0  0  0  0  0  0  0  0  0  0  0
  144.4500  140.3974  156.6333 H   0  0  0  0  0  0  0  0  0  0  0  0
  142.7390  141.7827  155.2131 H   0  0  0  0  0  0  0  0  0  0  0  0
  144.6308  144.1303  154.3229 H   0  0  0  0  0  0  0  0  0  0  0  0
  142.8132  144.2658  154.5677 H   0  0  0  0  0  0  0  0  0  0  0  0
  143.0811  143.6157  156.9768 H   0  0  0  0  0  0  0  0  0  0  0  0
  144.8997  143.4790  156.7425 H   0  0  0  0  0  0  0  0  0  0  0  0
  145.9518  143.4404  155.0326 H   0  0  0  0  0  0  0  0  0  0  0  0
  146.7227  142.1694  154.0910 H   0  0  0  0  0  0  0  0  0  0  0  0
  144.8061  141.2601  153.9588 H   0  0  0  0  0  0  0  0  0  0  0  0
  1  2  2  0  0  0  0
  2  3  1  0  0  0  0
  2 15  1  0  0  0  0
  3  4  1  0  0  0  0
  3 24  1  0  0  0  0
  3 25  1  0  0  0  0
  4 13  1  0  0  0  0
  4  5  1  0  0  0  0
  5  6  2  0  0  0  0
  5 26  1  0  0  0  0
  6  7  1  0  0  0  0
  6 27  1  0  0  0  0
  7  8  2  0  0  0  0
  7 28  1  0  0  0  0
  8  9  1  0  0  0  0
  8 13  1  0  0  0  0
  9 10  1  0  0  0  0
  9 11  1  0  0  0  0
  9 12  1  0  0  0  0
 13 14  2  0  0  0  0
 15 16  1  0  0  0  0
 15 29  1  0  0  0  0
 16 23  1  0  0  0  0
 16 17  1  0  0  0  0
 16 30  1  0  0  0  0
 17 18  1  0  0  0  0
 17 31  1  0  0  0  0
 17 32  1  0  0  0  0
 18 19  1  0  0  0  0
 18 33  1  0  0  0  0
 18 34  1  0  0  0  0
 19 20  1  0  0  0  0
 19 23  1  0  0  0  0
 19 42  1  0  0  0  0
 20 22  1  0  0  0  0
 20 21  1  0  0  0  0
 20 35  1  0  0  0  0
 21 22  1  0  0  0  0
 21 36  1  0  0  0  0
 21 37  1  0  0  0  0
 22 38  1  0  0  0  0
 22 39  1  0  0  0  0
 23 40  1  0  0  0  0
 23 41  1  0  0  0  0
M  CHG  1  19   1
M  END
> <s_m_source_file>
AV-unprocessed.smi

> <i_m_source_file_index>
1782

> <i_lp_mmshare_version>
43012

> <i_f3d_flags>
0

> <s_epik_input>
W0NIMl0xW0NIMl1bQ0hdMU4oW0NIMl0yKVtDSDJdW0NIMl1bQ0BIXTJbTkhdQyg9TylbQ0gyXW4zW2NIXVtjSF1bY0hdYyhDKEYpKEYpRiljMz1P

> <s_epik_cmdline>
J2VwaWtfcHl0aG9uJywgJy1waCcsICc3LjAnLCAnLXRuJywgJzgnLCAnLW1hJywgJzIwMCcsICctbWV0YWxfYmluZGluZycsICctaW1hZScsICc8aW5maWxlLm1hZT4nLCAnLW9tYWUnLCAnPG91dGZpbGUubWFlPic=

> <r_lp_tautomer_probability>
1

> <r_epik_Ionization_Penalty>
0.00106789

> <r_epik_Ionization_Penalty_Charging>
0.00106781

> <r_epik_Ionization_Penalty_Neutral>
8.2288e-08

> <r_epik_State_Penalty>
0.000699156

> <r_epik_Charging_Adjusted_Penalty>
0.00176697

> <i_epik_Tot_Q>
1

> <i_epik_Tot_abs_Q>
1

> <r_epik_Metal_State_Penalty>
-0

> <b_epik_Metal_Only>
0

> <s_lp_Force_Field>
OPLS_2005

> <r_lp_Energy>
47.5501

> <b_lp_Chiralities_Consistent>
1

> <s_lp_Variant>
AV-unprocessed.smi:1782-3

> <Gold.Version>
5.8.1

> <Gold.Id.Protein>
6NUR|6NUR_protein|mol2

> <Gold.PLP.Fitness>
51.4997

> <Gold.PLP.PLP>
-41.5598

> <Gold.PLP.part.hbond>
-2.5357

> <Gold.PLP.part.metal>
0.0000

> <Gold.PLP.part.buried>
-5.7262

> <Gold.PLP.part.nonpolar>
-35.3835

> <Gold.PLP.part.repulsive>
0.0648

> <Gold.PLP.ligand.clash>
0.0000

> <Gold.PLP.ligand.torsion>
2.3742

> <Gold.PLP.Chemscore.Hbond>
3.3602

> <Gold.PLP.Chemscore.CHOScore>
1.0000

> <Gold.PLP.Chemscore.Metal>
0.0000

> <Gold.Chemscore.Hbonds>
donor molecule, donor type, donor heavy atom, donor atom, acceptor molecule, acceptor atom, score
      L1  H    15    29       P1  8028  0.98
      L1  H    19    42       P1 10175  1.98
      P1  H  7997  8009       L1    14  0.38
      L1  C     5    26       P1  8028  0.97

> <Gold.PLP.Chemscore.Internal.Correction>
1.6079

> <Gold.Rescore>
     Score         DG    S(hbond)    S(metal)    S(lipo)     H(rot)  DE(clash)    DE(int)     intcor
     12.93     -18.60       2.55        0.00      78.88       1.81       0.42       5.26       ----

> <Gold.Chemscore.Fitness>
12.9271

> <Gold.Chemscore.DG>
-18.6024

> <Gold.Chemscore.ZeroCoef>
-5.4800

> <Gold.Chemscore.Hbond>
2.5529

> <Gold.Chemscore.Metal>
0.0000

> <Gold.Chemscore.Lipo>
78.8837

> <Gold.Chemscore.Internal_Hbond>
0.0000

> <Gold.Chemscore.DEClash>
0.4189

> <Gold.Chemscore.DEInternal>
5.2564

> <Gold.Chemscore.Rot>
1.8101

> <Gold.Chemscore.Internal.Correction>
   9.000000E+99

> <Gold.Chemscore.Hbonds>
donor molecule, donor type, donor heavy atom, donor atom, acceptor molecule, acceptor atom, score
      L1  H    15    29       P1  8028  0.93
      L1  H    19    42       P1 10175  0.50
      P1  H  7997  8009       L1    14  0.33

> <Gold.Chemscore.Hbond.Weighted>
-8.5268

> <Gold.Chemscore.Metal.Weighted>
-0.0000

> <Gold.Chemscore.Lipo.Weighted>
-9.2294

> <Gold.Chemscore.Internal_Hbond.Weighted>
0.0000

> <Gold.Chemscore.DEClash.Weighted>
0.4189

> <Gold.Chemscore.DEInternal.Weighted>
5.2564

> <Gold.Chemscore.Rot.Weighted>
4.6338

> <Gold.Chemscore.Internal.Correction.Weighted>
   9.000000E+99

> <Gold.Protein.RotatedTorsions>
[ 6907 6896 6895 6894 ] final  -35.78 input  -60.11 | X-H torsion
[ 7974 7965 7964 7962 ] final  -48.95 input  175.53 | X-H torsion
[ 8008 7997 7996 7995 ] final  171.95 input   59.86 | X-H torsion
[ 10167 10162 10161 10158 ] final  -92.82 input  -65.29 | X-H torsion
[ 10718 10713 10712 10709 ] final  162.53 input   66.30 | X-H torsion
[ 10763 10752 10751 10750 ] final   22.12 input  -60.55 | X-H torsion
[ 11005 11000 10999 10996 ] final  130.74 input  -57.11 | X-H torsion

> <Gold.Protein.ActiveResidues>
 VAL166  LYS551  ARG553  GLY616  TRP617  ASP618  TYR619  PRO620  LYS621  CYS622 
 ASP623  PHE694  ASN695  SER759  ASP760  ASP761  ALA762  ILE779  LEU786  VAL792 
 PHE793  MET794  SER795  GLU796  ALA797  LYS798  CYS799  TRP800  GLU811  SER814 

> <Gold.Protein.RotatedAtoms>
  151.0354  134.9569  159.8133 H   0  0  0  0  0  0  0  0  0  0  0  0  # atno 6907 bound_to 6896
  152.5354  134.2726  159.8987 H   0  0  0  0  0  0  0  0  0  0  0  0  # atno 6908 bound_to 6896
  151.2736  133.4201  159.2656 H   0  0  0  0  0  0  0  0  0  0  0  0  # atno 6909 bound_to 6896
  145.9457  140.7620  142.9529 H   0  0  0  0  0  0  0  0  0  0  0  0  # atno 7974 bound_to 7965
  156.1222  140.1498  156.9188 H   0  0  0  0  0  0  0  0  0  0  0  0  # atno 8008 bound_to 7997
  154.4844  140.0869  156.7494 H   0  0  0  0  0  0  0  0  0  0  0  0  # atno 8009 bound_to 7997
  155.4408  140.3431  155.4292 H   0  0  0  0  0  0  0  0  0  0  0  0  # atno 8010 bound_to 7997
  140.3309  143.2995  151.9942 H   0  0  0  0  0  0  0  0  0  0  0  0  # atno 10167 bound_to 10162
  157.1212  131.0493  151.2414 H   0  0  0  0  0  0  0  0  0  0  0  0  # atno 10718 bound_to 10713
  153.0941  135.6655  153.9798 H   0  0  0  0  0  0  0  0  0  0  0  0  # atno 10763 bound_to 10752
  153.9386  135.2996  155.3445 H   0  0  0  0  0  0  0  0  0  0  0  0  # atno 10764 bound_to 10752
  154.7358  135.5102  153.9113 H   0  0  0  0  0  0  0  0  0  0  0  0  # atno 10765 bound_to 10752
  139.9690  134.9583  156.9338 H   0  0  0  0  0  0  0  0  0  0  0  0  # atno 11005 bound_to 11000
  144.6787  140.2353  143.7350 LP  0  0  0  0  0  0  0  0  0  0  0  0  # atno 17320 bound_to 7965
  145.8239  139.2056  143.1922 LP  0  0  0  0  0  0  0  0  0  0  0  0  # atno 17321 bound_to 7965
  139.4856  144.6235  151.7209 LP  0  0  0  0  0  0  0  0  0  0  0  0  # atno 17342 bound_to 10162
  140.5397  144.0598  150.6084 LP  0  0  0  0  0  0  0  0  0  0  0  0  # atno 17343 bound_to 10162
  157.4475  130.7579  149.7122 LP  0  0  0  0  0  0  0  0  0  0  0  0  # atno 17370 bound_to 10713
  155.9828  130.4006  150.3397 LP  0  0  0  0  0  0  0  0  0  0  0  0  # atno 17371 bound_to 10713
  140.5335  134.0790  155.7322 LP  0  0  0  0  0  0  0  0  0  0  0  0  # atno 17394 bound_to 11000
  141.1369  133.9205  157.2413 LP  0  0  0  0  0  0  0  0  0  0  0  0  # atno 17395 bound_to 11000

$$$$
