AV-unprocessed.smi:1840|AV-procd|sdf|7488|dock8
  -GOLD-   22720 9183D 1   1.00000     0.00000
 Structure written by MMmdl.
 43 44  0  0  0  0  0  0  0  0  1 V2000
  146.2840  139.3098  154.3293 C   0  0  0  0  0  0  0  0  0  0  0  0
  147.6267  138.5549  154.3483 C   0  0  2  0  0  0  0  0  0  0  0  0
  148.8054  139.4032  153.8276 C   0  0  0  0  0  0  0  0  0  0  0  0
  150.0814  139.0211  154.4055 N   0  0  0  0  0  0  0  0  0  0  0  0
  150.6629  137.7712  154.4503 C   0  0  0  0  0  0  0  0  0  0  0  0
  151.8592  137.9026  155.0952 C   0  0  0  0  0  0  0  0  0  0  0  0
  151.9203  139.2877  155.4148 C   0  0  0  0  0  0  0  0  0  0  0  0
  150.8528  139.9537  155.0051 N   0  0  0  0  0  0  0  0  0  0  0  0
  147.5289  137.3352  153.5509 N   0  0  0  0  0  0  0  0  0  0  0  0
  146.5503  136.4236  153.6423 C   0  0  0  0  0  0  0  0  0  0  0  0
  145.6082  136.4998  154.4310 O   0  0  0  0  0  0  0  0  0  0  0  0
  146.7200  135.4282  152.7604 N   0  0  0  0  0  0  0  0  0  0  0  0
  145.8216  134.2904  152.5697 C   0  0  2  0  0  0  0  0  0  0  0  0
  146.6071  132.9853  152.8061 C   0  0  0  0  0  0  0  0  0  0  0  0
  145.7364  131.7460  152.5537 C   0  0  0  0  0  0  0  0  0  0  0  0
  145.1382  131.7735  151.1407 C   0  0  0  0  0  0  0  0  0  0  0  0
  144.3407  133.0652  150.9049 C   0  0  0  0  0  0  0  0  0  0  0  0
  145.1955  134.3249  151.1527 C   0  0  1  0  0  0  0  0  0  0  0  0
  144.3667  135.5986  150.9062 C   0  0  0  0  0  0  0  0  0  0  0  0
  146.3094  140.1871  154.9759 H   0  0  0  0  0  0  0  0  0  0  0  0
  145.4692  138.6767  154.6820 H   0  0  0  0  0  0  0  0  0  0  0  0
  146.0330  139.6444  153.3224 H   0  0  0  0  0  0  0  0  0  0  0  0
  147.8462  138.2782  155.3814 H   0  0  0  0  0  0  0  0  0  0  0  0
  148.8826  139.3191  152.7424 H   0  0  0  0  0  0  0  0  0  0  0  0
  148.6346  140.4586  154.0461 H   0  0  0  0  0  0  0  0  0  0  0  0
  150.1843  136.9030  154.0217 H   0  0  0  0  0  0  0  0  0  0  0  0
  152.5807  137.1275  155.3067 H   0  0  0  0  0  0  0  0  0  0  0  0
  152.7025  139.8250  155.9307 H   0  0  0  0  0  0  0  0  0  0  0  0
  148.2580  137.1801  152.8703 H   0  0  0  0  0  0  0  0  0  0  0  0
  147.5301  135.4654  152.1595 H   0  0  0  0  0  0  0  0  0  0  0  0
  145.0082  134.3280  153.2970 H   0  0  0  0  0  0  0  0  0  0  0  0
  147.4776  132.9531  152.1492 H   0  0  0  0  0  0  0  0  0  0  0  0
  146.9903  132.9605  153.8271 H   0  0  0  0  0  0  0  0  0  0  0  0
  146.3283  130.8406  152.6905 H   0  0  0  0  0  0  0  0  0  0  0  0
  144.9339  131.7060  153.2911 H   0  0  0  0  0  0  0  0  0  0  0  0
  145.9366  131.6943  150.4016 H   0  0  0  0  0  0  0  0  0  0  0  0
  144.4930  130.9067  150.9940 H   0  0  0  0  0  0  0  0  0  0  0  0
  143.9555  133.0711  149.8846 H   0  0  0  0  0  0  0  0  0  0  0  0
  143.4699  133.0771  151.5619 H   0  0  0  0  0  0  0  0  0  0  0  0
  146.0073  134.3179  150.4235 H   0  0  0  0  0  0  0  0  0  0  0  0
  143.5589  135.6910  151.6328 H   0  0  0  0  0  0  0  0  0  0  0  0
  143.9198  135.5893  149.9117 H   0  0  0  0  0  0  0  0  0  0  0  0
  144.9791  136.4977  150.9753 H   0  0  0  0  0  0  0  0  0  0  0  0
  1  2  1  0  0  0  0
  1 20  1  0  0  0  0
  1 21  1  0  0  0  0
  1 22  1  0  0  0  0
  2  3  1  0  0  0  0
  2  9  1  0  0  0  0
  2 23  1  0  0  0  0
  3  4  1  0  0  0  0
  3 24  1  0  0  0  0
  3 25  1  0  0  0  0
  4  8  1  0  0  0  0
  4  5  1  0  0  0  0
  5  6  2  0  0  0  0
  5 26  1  0  0  0  0
  6  7  1  0  0  0  0
  6 27  1  0  0  0  0
  7  8  2  0  0  0  0
  7 28  1  0  0  0  0
  9 10  1  0  0  0  0
  9 29  1  0  0  0  0
 10 11  2  0  0  0  0
 10 12  1  0  0  0  0
 12 13  1  0  0  0  0
 12 30  1  0  0  0  0
 13 18  1  0  0  0  0
 13 14  1  0  0  0  0
 13 31  1  0  0  0  0
 14 15  1  0  0  0  0
 14 32  1  0  0  0  0
 14 33  1  0  0  0  0
 15 16  1  0  0  0  0
 15 34  1  0  0  0  0
 15 35  1  0  0  0  0
 16 17  1  0  0  0  0
 16 36  1  0  0  0  0
 16 37  1  0  0  0  0
 17 18  1  0  0  0  0
 17 38  1  0  0  0  0
 17 39  1  0  0  0  0
 18 19  1  0  0  0  0
 18 40  1  0  0  0  0
 19 41  1  0  0  0  0
 19 42  1  0  0  0  0
 19 43  1  0  0  0  0
M  END
> <s_m_source_file>
AV-unprocessed.smi

> <i_m_source_file_index>
1840

> <i_lp_mmshare_version>
43012

> <i_f3d_flags>
0

> <s_epik_input>
bjFbY0hdW2NIXVtjSF1uMVtDSDJdW0NAQEhdKFtDSDNdKVtOSF1DKD1PKVtOSF1bQ0BASF0yW0NIMl1bQ0gyXVtDSDJdW0NIMl1bQ0BIXTJbQ0gzXQ==

> <s_epik_cmdline>
J2VwaWtfcHl0aG9uJywgJy1waCcsICc3LjAnLCAnLXRuJywgJzgnLCAnLW1hJywgJzIwMCcsICctbWV0YWxfYmluZGluZycsICctaW1hZScsICc8aW5maWxlLm1hZT4nLCAnLW9tYWUnLCAnPG91dGZpbGUubWFlPic=

> <r_lp_tautomer_probability>
1

> <r_epik_Ionization_Penalty>
7.38659e-05

> <r_epik_Ionization_Penalty_Charging>
0

> <r_epik_Ionization_Penalty_Neutral>
7.38659e-05

> <r_epik_State_Penalty>
-0

> <r_epik_Charging_Adjusted_Penalty>
0

> <i_epik_Tot_Q>
0

> <i_epik_Tot_abs_Q>
0

> <r_epik_Metal_State_Penalty>
-0

> <b_epik_Metal_Only>
0

> <s_lp_Force_Field>
OPLS_2005

> <r_lp_Energy>
8.70276

> <b_lp_Chiralities_Consistent>
1

> <s_lp_Variant>
AV-unprocessed.smi:1840-1

> <Gold.Version>
5.8.1

> <Gold.Id.Protein>
6NUR|6NUR_protein|mol2

> <Gold.PLP.Fitness>
41.8133

> <Gold.PLP.PLP>
-30.8542

> <Gold.PLP.part.hbond>
-2.8308

> <Gold.PLP.part.metal>
0.0000

> <Gold.PLP.part.buried>
-1.6461

> <Gold.PLP.part.nonpolar>
-26.9205

> <Gold.PLP.part.repulsive>
0.1079

> <Gold.PLP.ligand.clash>
0.0000

> <Gold.PLP.ligand.torsion>
0.4408

> <Gold.PLP.Chemscore.Hbond>
2.8860

> <Gold.PLP.Chemscore.CHOScore>
1.0522

> <Gold.PLP.Chemscore.Metal>
0.0000

> <Gold.Chemscore.Hbonds>
donor molecule, donor type, donor heavy atom, donor atom, acceptor molecule, acceptor atom, score
      L1  H     9    29       P1  7948  1.00
      L1  H    12    30       P1  7948  0.94
      P1  H  7989  7998       L1     8  0.95
      L1  C     5    26       P1  7948  0.99
      L1  C     5    26       P1  7949  0.03

> <Gold.PLP.Chemscore.Internal.Correction>
0.0260

> <Gold.Rescore>
     Score         DG    S(hbond)    S(metal)    S(lipo)     H(rot)  DE(clash)    DE(int)     intcor
     14.99     -16.69       1.87        0.00      76.45       1.56       0.20       1.50       ----

> <Gold.Chemscore.Fitness>
14.9936

> <Gold.Chemscore.DG>
-16.6863

> <Gold.Chemscore.ZeroCoef>
-5.4800

> <Gold.Chemscore.Hbond>
1.8709

> <Gold.Chemscore.Metal>
0.0000

> <Gold.Chemscore.Lipo>
76.4544

> <Gold.Chemscore.Internal_Hbond>
0.0000

> <Gold.Chemscore.DEClash>
0.1977

> <Gold.Chemscore.DEInternal>
1.4950

> <Gold.Chemscore.Rot>
1.5576

> <Gold.Chemscore.Internal.Correction>
   9.000000E+99

> <Gold.Chemscore.Hbonds>
donor molecule, donor type, donor heavy atom, donor atom, acceptor molecule, acceptor atom, score
      L1  H     9    29       P1  7948  0.89
      L1  H    12    30       P1  7948  0.90
      P1  H  7989  7998       L1     8  0.07

> <Gold.Chemscore.Hbond.Weighted>
-6.2487

> <Gold.Chemscore.Metal.Weighted>
-0.0000

> <Gold.Chemscore.Lipo.Weighted>
-8.9452

> <Gold.Chemscore.Internal_Hbond.Weighted>
0.0000

> <Gold.Chemscore.DEClash.Weighted>
0.1977

> <Gold.Chemscore.DEInternal.Weighted>
1.4950

> <Gold.Chemscore.Rot.Weighted>
3.9875

> <Gold.Chemscore.Internal.Correction.Weighted>
   9.000000E+99

> <Gold.Protein.RotatedTorsions>
[ 6907 6896 6895 6894 ] final -158.57 input  -60.11 | X-H torsion
[ 7974 7965 7964 7962 ] final  -75.72 input  175.53 | X-H torsion
[ 8008 7997 7996 7995 ] final   35.38 input   59.86 | X-H torsion
[ 10167 10162 10161 10158 ] final  -21.75 input  -65.29 | X-H torsion
[ 10718 10713 10712 10709 ] final   -4.43 input   66.30 | X-H torsion
[ 10763 10752 10751 10750 ] final  178.53 input  -60.55 | X-H torsion
[ 11005 11000 10999 10996 ] final   26.87 input  -57.11 | X-H torsion

> <Gold.Protein.ActiveResidues>
 VAL166  LYS551  ARG553  GLY616  TRP617  ASP618  TYR619  PRO620  LYS621  CYS622 
 ASP623  PHE694  ASN695  SER759  ASP760  ASP761  ALA762  ILE779  LEU786  VAL792 
 PHE793  MET794  SER795  GLU796  ALA797  LYS798  CYS799  TRP800  GLU811  SER814 

> <Gold.Protein.RotatedAtoms>
  151.3201  133.4043  159.2653 H   0  0  0  0  0  0  0  0  0  0  0  0  # atno 6907 bound_to 6896
  151.0041  134.9346  159.7981 H   0  0  0  0  0  0  0  0  0  0  0  0  # atno 6908 bound_to 6896
  152.5283  134.3166  159.9185 H   0  0  0  0  0  0  0  0  0  0  0  0  # atno 6909 bound_to 6896
  145.6223  140.9360  143.1131 H   0  0  0  0  0  0  0  0  0  0  0  0  # atno 7974 bound_to 7965
  155.1701  140.3291  155.4394 H   0  0  0  0  0  0  0  0  0  0  0  0  # atno 8008 bound_to 7997
  156.2513  140.1945  156.6755 H   0  0  0  0  0  0  0  0  0  0  0  0  # atno 8009 bound_to 7997
  154.6343  140.0578  156.9756 H   0  0  0  0  0  0  0  0  0  0  0  0  # atno 8010 bound_to 7997
  140.7283  143.4599  151.0395 H   0  0  0  0  0  0  0  0  0  0  0  0  # atno 10167 bound_to 10162
  156.7614  130.5271  149.5784 H   0  0  0  0  0  0  0  0  0  0  0  0  # atno 10718 bound_to 10713
  154.5089  135.2787  155.1359 H   0  0  0  0  0  0  0  0  0  0  0  0  # atno 10763 bound_to 10752
  154.2963  135.6257  153.5409 H   0  0  0  0  0  0  0  0  0  0  0  0  # atno 10764 bound_to 10752
  152.9915  135.5686  154.5549 H   0  0  0  0  0  0  0  0  0  0  0  0  # atno 10765 bound_to 10752
  140.3324  134.2423  155.7700 H   0  0  0  0  0  0  0  0  0  0  0  0  # atno 11005 bound_to 11000
  144.7226  139.7979  143.7376 LP  0  0  0  0  0  0  0  0  0  0  0  0  # atno 17320 bound_to 7965
  146.1422  139.4481  143.0102 LP  0  0  0  0  0  0  0  0  0  0  0  0  # atno 17321 bound_to 7965
  139.8282  143.7727  152.3179 LP  0  0  0  0  0  0  0  0  0  0  0  0  # atno 17342 bound_to 10162
  139.7833  144.7436  151.0057 LP  0  0  0  0  0  0  0  0  0  0  0  0  # atno 17343 bound_to 10162
  156.1336  130.6196  151.0369 LP  0  0  0  0  0  0  0  0  0  0  0  0  # atno 17370 bound_to 10713
  157.6733  131.0856  150.7559 LP  0  0  0  0  0  0  0  0  0  0  0  0  # atno 17371 bound_to 10713
  141.2060  133.7845  157.0202 LP  0  0  0  0  0  0  0  0  0  0  0  0  # atno 17394 bound_to 11000
  140.0850  134.9626  157.1685 LP  0  0  0  0  0  0  0  0  0  0  0  0  # atno 17395 bound_to 11000

$$$$
