AV-unprocessed.smi:675|AV-procd|sdf|3304|dock3
  -GOLD-   22720 0263D 1   1.00000     0.00000
 Structure written by MMmdl.
 29 30  0  0  0  0  0  0  0  0  1 V2000
  146.6747  139.1053  152.7946 O   0  0  0  0  0  0  0  0  0  0  0  0
  147.5677  139.5406  153.5190 C   0  0  0  0  0  0  0  0  0  0  0  0
  148.7279  138.7872  153.7230 N   0  0  0  0  0  0  0  0  0  0  0  0
  149.8125  139.1629  154.5164 C   0  0  0  0  0  0  0  0  0  0  0  0
  150.7792  138.4092  154.6266 O   0  0  0  0  0  0  0  0  0  0  0  0
  149.7243  140.4187  155.1606 N   0  0  0  0  0  0  0  0  0  0  0  0
  150.8154  140.8312  156.0104 C   0  0  0  0  0  0  0  0  0  0  0  0
  150.3701  141.1584  157.4528 C   0  0  1  0  0  0  0  0  0  0  0  0
  149.7539  140.0155  158.0158 O   0  0  0  0  0  0  0  0  0  0  0  0
  151.5555  141.6378  158.2900 C   0  0  0  0  0  0  0  0  0  0  0  0
  151.6395  142.9924  158.6899 C   0  0  0  0  0  0  0  0  0  0  0  0
  152.7210  143.4458  159.4685 C   0  0  0  0  0  0  0  0  0  0  0  0
  153.7290  142.5479  159.8625 C   0  0  0  0  0  0  0  0  0  0  0  0
  153.6498  141.1957  159.4822 C   0  0  0  0  0  0  0  0  0  0  0  0
  152.5690  140.7356  158.7034 C   0  0  0  0  0  0  0  0  0  0  0  0
  152.5117  139.0575  158.2879 Cl  0  0  0  0  0  0  0  0  0  0  0  0
  148.5885  141.1959  154.9929 C   0  0  0  0  0  0  0  0  0  0  0  0
  147.5387  140.8222  154.2225 C   0  0  0  0  0  0  0  0  0  0  0  0
  146.1576  141.8476  154.0655 Cl  0  0  0  0  0  0  0  0  0  0  0  0
  148.7851  137.8931  153.2576 H   0  0  0  0  0  0  0  0  0  0  0  0
  151.6257  140.1010  155.9516 H   0  0  0  0  0  0  0  0  0  0  0  0
  151.2015  141.7292  155.5243 H   0  0  0  0  0  0  0  0  0  0  0  0
  149.6085  141.9376  157.4400 H   0  0  0  0  0  0  0  0  0  0  0  0
  149.4900  140.2216  158.8993 H   0  0  0  0  0  0  0  0  0  0  0  0
  150.8711  143.6966  158.4063 H   0  0  0  0  0  0  0  0  0  0  0  0
  152.7749  144.4828  159.7656 H   0  0  0  0  0  0  0  0  0  0  0  0
  154.5589  142.8941  160.4609 H   0  0  0  0  0  0  0  0  0  0  0  0
  154.4211  140.5069  159.7946 H   0  0  0  0  0  0  0  0  0  0  0  0
  148.5329  142.1469  155.5037 H   0  0  0  0  0  0  0  0  0  0  0  0
  1  2  2  0  0  0  0
  2 18  1  0  0  0  0
  2  3  1  0  0  0  0
  3 20  1  0  0  0  0
  3  4  1  0  0  0  0
  4  5  2  0  0  0  0
  4  6  1  0  0  0  0
  6  7  1  0  0  0  0
  6 17  1  0  0  0  0
  7  8  1  0  0  0  0
  7 21  1  0  0  0  0
  7 22  1  0  0  0  0
  8  9  1  0  0  0  0
  8 10  1  0  0  0  0
  8 23  1  0  0  0  0
  9 24  1  0  0  0  0
 10 15  1  0  0  0  0
 10 11  2  0  0  0  0
 11 12  1  0  0  0  0
 11 25  1  0  0  0  0
 12 13  2  0  0  0  0
 12 26  1  0  0  0  0
 13 14  1  0  0  0  0
 13 27  1  0  0  0  0
 14 15  2  0  0  0  0
 14 28  1  0  0  0  0
 15 16  1  0  0  0  0
 17 18  2  0  0  0  0
 17 29  1  0  0  0  0
 18 19  1  0  0  0  0
M  END
> <s_m_source_file>
AV-unprocessed.smi

> <i_m_source_file_index>
675

> <i_lp_mmshare_version>
43012

> <i_f3d_flags>
0

> <s_epik_input>
Tz1jMVtuSF1jKD1PKW4oW2NIXWMxQ2wpW0NIMl1bQ0BIXShbT0hdKWMyW2NIXVtjSF1bY0hdW2NIXWMyQ2w=

> <s_epik_cmdline>
J2VwaWtfcHl0aG9uJywgJy1waCcsICc3LjAnLCAnLXRuJywgJzgnLCAnLW1hJywgJzIwMCcsICctbWV0YWxfYmluZGluZycsICctaW1hZScsICc8aW5maWxlLm1hZT4nLCAnLW9tYWUnLCAnPG91dGZpbGUubWFlPic=

> <r_lp_tautomer_probability>
0.999537

> <r_epik_Ionization_Penalty>
0.029206

> <r_epik_Ionization_Penalty_Charging>
0.0292057

> <r_epik_Ionization_Penalty_Neutral>
2.68278e-07

> <r_epik_State_Penalty>
0.0240115

> <r_epik_Charging_Adjusted_Penalty>
0.0532172

> <i_epik_Tot_Q>
0

> <i_epik_Tot_abs_Q>
0

> <r_epik_Metal_State_Penalty>
2.21956

> <b_epik_Metal_Only>
0

> <s_lp_Force_Field>
OPLS_2005

> <r_lp_Energy>
14.2263

> <b_lp_Chiralities_Consistent>
1

> <s_lp_Variant>
AV-unprocessed.smi:675-2

> <Gold.Version>
5.8.1

> <Gold.Id.Protein>
6NUR|6NUR_protein|mol2

> <Gold.PLP.Fitness>
44.7259

> <Gold.PLP.PLP>
-39.9506

> <Gold.PLP.part.hbond>
-1.6437

> <Gold.PLP.part.metal>
0.0000

> <Gold.PLP.part.buried>
-3.4472

> <Gold.PLP.part.nonpolar>
-35.5960

> <Gold.PLP.part.repulsive>
0.9883

> <Gold.PLP.ligand.clash>
0.0000

> <Gold.PLP.ligand.torsion>
0.2171

> <Gold.PLP.Chemscore.Hbond>
0.7313

> <Gold.PLP.Chemscore.CHOScore>
1.0000

> <Gold.PLP.Chemscore.Metal>
0.0000

> <Gold.Chemscore.Hbonds>
donor molecule, donor type, donor heavy atom, donor atom, acceptor molecule, acceptor atom, score
      L1  H     3    20       P1  7948  0.68
      L1  C    17    29       P1  8028  0.85

> <Gold.PLP.Chemscore.Internal.Correction>
0.0157

> <Gold.Rescore>
     Score         DG    S(hbond)    S(metal)    S(lipo)     H(rot)  DE(clash)    DE(int)     intcor
     13.68     -14.10       0.87        0.00      96.49       2.18       0.40       0.03       ----

> <Gold.Chemscore.Fitness>
13.6816

> <Gold.Chemscore.DG>
-14.1023

> <Gold.Chemscore.ZeroCoef>
-5.4800

> <Gold.Chemscore.Hbond>
0.8703

> <Gold.Chemscore.Metal>
0.0000

> <Gold.Chemscore.Lipo>
96.4948

> <Gold.Chemscore.Internal_Hbond>
0.0000

> <Gold.Chemscore.DEClash>
0.3953

> <Gold.Chemscore.DEInternal>
0.0254

> <Gold.Chemscore.Rot>
2.1775

> <Gold.Chemscore.Internal.Correction>
   9.000000E+99

> <Gold.Chemscore.Hbonds>
donor molecule, donor type, donor heavy atom, donor atom, acceptor molecule, acceptor atom, score
      L1  H     3    20       P1  7948  0.69

> <Gold.Chemscore.Hbond.Weighted>
-2.9068

> <Gold.Chemscore.Metal.Weighted>
-0.0000

> <Gold.Chemscore.Lipo.Weighted>
-11.2899

> <Gold.Chemscore.Internal_Hbond.Weighted>
0.0000

> <Gold.Chemscore.DEClash.Weighted>
0.3953

> <Gold.Chemscore.DEInternal.Weighted>
0.0254

> <Gold.Chemscore.Rot.Weighted>
5.5745

> <Gold.Chemscore.Internal.Correction.Weighted>
   9.000000E+99

> <Gold.Protein.RotatedTorsions>
[ 6907 6896 6895 6894 ] final   35.60 input  -60.11 | X-H torsion
[ 7974 7965 7964 7962 ] final   30.23 input  175.53 | X-H torsion
[ 8008 7997 7996 7995 ] final  -27.85 input   59.86 | X-H torsion
[ 10167 10162 10161 10158 ] final  106.26 input  -65.29 | X-H torsion
[ 10718 10713 10712 10709 ] final   84.35 input   66.30 | X-H torsion
[ 10763 10752 10751 10750 ] final  -32.92 input  -60.55 | X-H torsion
[ 11005 11000 10999 10996 ] final -125.80 input  -57.11 | X-H torsion

> <Gold.Protein.ActiveResidues>
 VAL166  LYS551  ARG553  GLY616  TRP617  ASP618  TYR619  PRO620  LYS621  CYS622 
 ASP623  PHE694  ASN695  SER759  ASP760  ASP761  ALA762  ILE779  LEU786  VAL792 
 PHE793  MET794  SER795  GLU796  ALA797  LYS798  CYS799  TRP800  GLU811  SER814 

> <Gold.Protein.RotatedAtoms>
  152.1183  134.9224  160.0563 H   0  0  0  0  0  0  0  0  0  0  0  0  # atno 6907 bound_to 6896
  152.0375  133.3958  159.4331 H   0  0  0  0  0  0  0  0  0  0  0  0  # atno 6908 bound_to 6896
  150.6847  134.3373  159.4896 H   0  0  0  0  0  0  0  0  0  0  0  0  # atno 6909 bound_to 6896
  146.1624  139.6816  142.9024 H   0  0  0  0  0  0  0  0  0  0  0  0  # atno 7974 bound_to 7965
  154.4358  140.1861  156.0996 H   0  0  0  0  0  0  0  0  0  0  0  0  # atno 8008 bound_to 7997
  156.0302  140.3331  155.7106 H   0  0  0  0  0  0  0  0  0  0  0  0  # atno 8009 bound_to 7997
  155.5850  140.0625  157.2764 H   0  0  0  0  0  0  0  0  0  0  0  0  # atno 8010 bound_to 7997
  139.7024  144.7092  151.1163 H   0  0  0  0  0  0  0  0  0  0  0  0  # atno 10167 bound_to 10162
  157.6896  131.0129  150.2659 H   0  0  0  0  0  0  0  0  0  0  0  0  # atno 10718 bound_to 10713
  153.8217  135.6873  153.4826 H   0  0  0  0  0  0  0  0  0  0  0  0  # atno 10763 bound_to 10752
  153.1565  135.4597  154.9709 H   0  0  0  0  0  0  0  0  0  0  0  0  # atno 10764 bound_to 10752
  154.7924  135.3307  154.7689 H   0  0  0  0  0  0  0  0  0  0  0  0  # atno 10765 bound_to 10752
  140.9733  134.0775  157.3846 H   0  0  0  0  0  0  0  0  0  0  0  0  # atno 11005 bound_to 11000
  145.4554  141.0430  143.2781 LP  0  0  0  0  0  0  0  0  0  0  0  0  # atno 17320 bound_to 7965
  144.8045  139.6077  143.7057 LP  0  0  0  0  0  0  0  0  0  0  0  0  # atno 17321 bound_to 7965
  140.7713  143.5405  150.9318 LP  0  0  0  0  0  0  0  0  0  0  0  0  # atno 17342 bound_to 10162
  139.9087  143.6746  152.3119 LP  0  0  0  0  0  0  0  0  0  0  0  0  # atno 17343 bound_to 10162
  156.3230  130.3789  149.7558 LP  0  0  0  0  0  0  0  0  0  0  0  0  # atno 17370 bound_to 10713
  156.5122  130.8177  151.3173 LP  0  0  0  0  0  0  0  0  0  0  0  0  # atno 17371 bound_to 10713
  139.8920  135.0122  156.6825 LP  0  0  0  0  0  0  0  0  0  0  0  0  # atno 17394 bound_to 11000
  140.7297  133.9070  155.8202 LP  0  0  0  0  0  0  0  0  0  0  0  0  # atno 17395 bound_to 11000

$$$$
