AV-unprocessed.smi:1792|AV-procd|sdf|7222|dock9
  -GOLD-   22720 8463D 1   1.00000     0.00000
 Structure written by MMmdl.
 42 43  0  0  0  0  0  0  0  0  1 V2000
  146.8213  139.3884  153.5405 C   0  0  0  0  0  0  0  0  0  0  0  0
  147.2190  138.9108  154.9580 C   0  0  0  0  0  0  0  0  0  0  0  0
  146.3903  139.7404  155.9721 C   0  0  0  0  0  0  0  0  0  0  0  0
  146.7341  137.4396  155.1039 C   0  0  0  0  0  0  0  0  0  0  0  0
  146.9691  136.6640  153.8871 N   0  0  0  0  0  0  0  0  0  0  0  0
  146.1420  135.7462  153.3685 C   0  0  0  0  0  0  0  0  0  0  0  0
  145.0433  135.4676  153.8495 O   0  0  0  0  0  0  0  0  0  0  0  0
  146.6777  135.1818  152.2721 N   0  0  0  0  0  0  0  0  0  0  0  0
  146.1306  134.1582  151.4535 C   0  0  0  0  0  0  0  0  0  0  0  0
  144.7271  134.0145  151.5342 C   0  0  0  0  0  0  0  0  0  0  0  0
  144.0852  133.0306  150.7577 C   0  0  0  0  0  0  0  0  0  0  0  0
  144.8649  132.2128  149.9205 C   0  0  0  0  0  0  0  0  0  0  0  0
  146.2565  132.4200  149.9007 C   0  0  0  0  0  0  0  0  0  0  0  0
  146.8736  133.3634  150.6433 N   0  0  0  0  0  0  0  0  0  0  0  0
  148.6791  139.0387  155.2287 N   0  0  0  0  0  0  0  0  0  0  0  0
  149.1281  140.3934  155.5701 C   0  0  0  0  0  0  0  0  0  0  0  0
  150.6179  140.4315  155.9517 C   0  0  0  0  0  0  0  0  0  0  0  0
  151.3997  139.8957  154.8911 O   0  0  0  0  0  0  0  0  0  0  0  0
  151.0359  138.5586  154.5718 C   0  0  0  0  0  0  0  0  0  0  0  0
  149.5511  138.5074  154.1745 C   0  0  0  0  0  0  0  0  0  0  0  0
  145.7475  139.2839  153.3804 H   0  0  0  0  0  0  0  0  0  0  0  0
  147.3120  138.8098  152.7581 H   0  0  0  0  0  0  0  0  0  0  0  0
  147.0611  140.4385  153.3765 H   0  0  0  0  0  0  0  0  0  0  0  0
  145.3253  139.5163  155.8977 H   0  0  0  0  0  0  0  0  0  0  0  0
  146.4865  140.8132  155.8056 H   0  0  0  0  0  0  0  0  0  0  0  0
  146.6919  139.5377  157.0005 H   0  0  0  0  0  0  0  0  0  0  0  0
  147.2284  136.9743  155.9588 H   0  0  0  0  0  0  0  0  0  0  0  0
  145.6713  137.3924  155.3398 H   0  0  0  0  0  0  0  0  0  0  0  0
  147.8514  136.8225  153.4227 H   0  0  0  0  0  0  0  0  0  0  0  0
  147.5908  135.5133  151.9991 H   0  0  0  0  0  0  0  0  0  0  0  0
  144.1431  134.6517  152.1825 H   0  0  0  0  0  0  0  0  0  0  0  0
  143.0135  132.9068  150.8038 H   0  0  0  0  0  0  0  0  0  0  0  0
  144.4090  131.4470  149.3107 H   0  0  0  0  0  0  0  0  0  0  0  0
  146.8916  131.8130  149.2726 H   0  0  0  0  0  0  0  0  0  0  0  0
  148.9640  141.0685  154.7301 H   0  0  0  0  0  0  0  0  0  0  0  0
  148.5625  140.7905  156.4110 H   0  0  0  0  0  0  0  0  0  0  0  0
  150.9332  141.4573  156.1428 H   0  0  0  0  0  0  0  0  0  0  0  0
  150.7968  139.8655  156.8672 H   0  0  0  0  0  0  0  0  0  0  0  0
  151.6600  138.2060  153.7507 H   0  0  0  0  0  0  0  0  0  0  0  0
  151.2301  137.9065  155.4248 H   0  0  0  0  0  0  0  0  0  0  0  0
  149.3054  137.4710  153.9502 H   0  0  0  0  0  0  0  0  0  0  0  0
  149.4155  139.0718  153.2520 H   0  0  0  0  0  0  0  0  0  0  0  0
  1  2  1  0  0  0  0
  1 21  1  0  0  0  0
  1 22  1  0  0  0  0
  1 23  1  0  0  0  0
  2  3  1  0  0  0  0
  2  4  1  0  0  0  0
  2 15  1  0  0  0  0
  3 24  1  0  0  0  0
  3 25  1  0  0  0  0
  3 26  1  0  0  0  0
  4  5  1  0  0  0  0
  4 27  1  0  0  0  0
  4 28  1  0  0  0  0
  5  6  1  0  0  0  0
  5 29  1  0  0  0  0
  6  7  2  0  0  0  0
  6  8  1  0  0  0  0
  8  9  1  0  0  0  0
  8 30  1  0  0  0  0
  9 14  1  0  0  0  0
  9 10  2  0  0  0  0
 10 11  1  0  0  0  0
 10 31  1  0  0  0  0
 11 12  2  0  0  0  0
 11 32  1  0  0  0  0
 12 13  1  0  0  0  0
 12 33  1  0  0  0  0
 13 14  2  0  0  0  0
 13 34  1  0  0  0  0
 15 20  1  0  0  0  0
 15 16  1  0  0  0  0
 16 17  1  0  0  0  0
 16 35  1  0  0  0  0
 16 36  1  0  0  0  0
 17 18  1  0  0  0  0
 17 37  1  0  0  0  0
 17 38  1  0  0  0  0
 18 19  1  0  0  0  0
 19 20  1  0  0  0  0
 19 39  1  0  0  0  0
 19 40  1  0  0  0  0
 20 41  1  0  0  0  0
 20 42  1  0  0  0  0
M  END
> <s_m_source_file>
AV-unprocessed.smi

> <i_m_source_file_index>
1792

> <i_lp_mmshare_version>
43012

> <i_f3d_flags>
0

> <s_epik_input>
W0NIMl0xW0NIMl1PW0NIMl1bQ0gyXU4xQyhbQ0gzXSkoW0NIM10pW0NIMl1bTkhdQyg9TylbTkhdYzJbY0hdW2NIXVtjSF1bY0hdbjI=

> <s_epik_cmdline>
J2VwaWtfcHl0aG9uJywgJy1waCcsICc3LjAnLCAnLXRuJywgJzgnLCAnLW1hJywgJzIwMCcsICctbWV0YWxfYmluZGluZycsICctaW1hZScsICc8aW5maWxlLm1hZT4nLCAnLW9tYWUnLCAnPG91dGZpbGUubWFlPic=

> <r_epik_Ionization_Penalty>
0.26604

> <r_epik_Ionization_Penalty_Charging>
0

> <r_epik_Ionization_Penalty_Neutral>
0.26604

> <r_epik_State_Penalty>
0.257924

> <r_epik_Charging_Adjusted_Penalty>
0.257924

> <i_epik_Tot_Q>
0

> <i_epik_Tot_abs_Q>
0

> <r_epik_Metal_State_Penalty>
0.257923

> <b_epik_Metal_Only>
0

> <s_lp_Force_Field>
OPLS_2005

> <r_lp_Energy>
43.4175

> <b_lp_Chiralities_Consistent>
1

> <s_lp_Variant>
AV-unprocessed.smi:1792-1

> <Gold.Version>
5.8.1

> <Gold.Id.Protein>
6NUR|6NUR_protein|mol2

> <Gold.PLP.Fitness>
40.9935

> <Gold.PLP.PLP>
-31.3472

> <Gold.PLP.part.hbond>
-2.9520

> <Gold.PLP.part.metal>
0.0000

> <Gold.PLP.part.buried>
-1.6091

> <Gold.PLP.part.nonpolar>
-27.2185

> <Gold.PLP.part.repulsive>
0.5286

> <Gold.PLP.ligand.clash>
0.0000

> <Gold.PLP.ligand.torsion>
0.9677

> <Gold.PLP.Chemscore.Hbond>
2.8393

> <Gold.PLP.Chemscore.CHOScore>
1.0000

> <Gold.PLP.Chemscore.Metal>
0.0000

> <Gold.Chemscore.Hbonds>
donor molecule, donor type, donor heavy atom, donor atom, acceptor molecule, acceptor atom, score
      L1  H     5    29       P1  7948  0.85
      L1  H     8    30       P1  7948  0.96
      P1  H  7989  7998       L1    18  1.00
      L1  C    13    34       P1 10747  0.79

> <Gold.PLP.Chemscore.Internal.Correction>
0.0640

> <Gold.Rescore>
     Score         DG    S(hbond)    S(metal)    S(lipo)     H(rot)  DE(clash)    DE(int)     intcor
     17.56     -20.19       2.80        0.00      78.71       1.50       0.16       2.47       ----

> <Gold.Chemscore.Fitness>
17.5619

> <Gold.Chemscore.DG>
-20.1925

> <Gold.Chemscore.ZeroCoef>
-5.4800

> <Gold.Chemscore.Hbond>
2.8011

> <Gold.Chemscore.Metal>
0.0000

> <Gold.Chemscore.Lipo>
78.7052

> <Gold.Chemscore.Internal_Hbond>
0.0000

> <Gold.Chemscore.DEClash>
0.1594

> <Gold.Chemscore.DEInternal>
2.4712

> <Gold.Chemscore.Rot>
1.5045

> <Gold.Chemscore.Internal.Correction>
   9.000000E+99

> <Gold.Chemscore.Hbonds>
donor molecule, donor type, donor heavy atom, donor atom, acceptor molecule, acceptor atom, score
      L1  H     5    29       P1  7948  0.82
      L1  H     8    30       P1  7948  0.91
      P1  H  7989  7998       L1    18  0.81

> <Gold.Chemscore.Hbond.Weighted>
-9.3555

> <Gold.Chemscore.Metal.Weighted>
-0.0000

> <Gold.Chemscore.Lipo.Weighted>
-9.2085

> <Gold.Chemscore.Internal_Hbond.Weighted>
0.0000

> <Gold.Chemscore.DEClash.Weighted>
0.1594

> <Gold.Chemscore.DEInternal.Weighted>
2.4712

> <Gold.Chemscore.Rot.Weighted>
3.8515

> <Gold.Chemscore.Internal.Correction.Weighted>
   9.000000E+99

> <Gold.Protein.RotatedTorsions>
[ 6907 6896 6895 6894 ] final -147.15 input  -60.11 | X-H torsion
[ 7974 7965 7964 7962 ] final  121.25 input  175.53 | X-H torsion
[ 8008 7997 7996 7995 ] final   63.95 input   59.86 | X-H torsion
[ 10167 10162 10161 10158 ] final  162.59 input  -65.29 | X-H torsion
[ 10718 10713 10712 10709 ] final  -77.44 input   66.30 | X-H torsion
[ 10763 10752 10751 10750 ] final  130.99 input  -60.55 | X-H torsion
[ 11005 11000 10999 10996 ] final    7.90 input  -57.11 | X-H torsion

> <Gold.Protein.ActiveResidues>
 VAL166  LYS551  ARG553  GLY616  TRP617  ASP618  TYR619  PRO620  LYS621  CYS622 
 ASP623  PHE694  ASN695  SER759  ASP760  ASP761  ALA762  ILE779  LEU786  VAL792 
 PHE793  MET794  SER795  GLU796  ALA797  LYS798  CYS799  TRP800  GLU811  SER814 

> <Gold.Protein.RotatedAtoms>
  151.1516  133.4904  159.2594 H   0  0  0  0  0  0  0  0  0  0  0  0  # atno 6907 bound_to 6896
  151.1548  135.0244  159.8694 H   0  0  0  0  0  0  0  0  0  0  0  0  # atno 6908 bound_to 6896
  152.5463  134.1396  159.8526 H   0  0  0  0  0  0  0  0  0  0  0  0  # atno 6909 bound_to 6896
  145.1216  139.3385  143.4711 H   0  0  0  0  0  0  0  0  0  0  0  0  # atno 7974 bound_to 7965
  155.6384  140.3496  155.4706 H   0  0  0  0  0  0  0  0  0  0  0  0  # atno 8008 bound_to 7997
  155.9946  140.1201  157.0629 H   0  0  0  0  0  0  0  0  0  0  0  0  # atno 8009 bound_to 7997
  154.4229  140.1112  156.5599 H   0  0  0  0  0  0  0  0  0  0  0  0  # atno 8010 bound_to 7997
  139.4862  144.4422  151.8937 H   0  0  0  0  0  0  0  0  0  0  0  0  # atno 10167 bound_to 10162
  156.0145  130.4491  150.3345 H   0  0  0  0  0  0  0  0  0  0  0  0  # atno 10718 bound_to 10713
  153.7670  135.3187  155.3346 H   0  0  0  0  0  0  0  0  0  0  0  0  # atno 10763 bound_to 10752
  154.8210  135.4603  154.0781 H   0  0  0  0  0  0  0  0  0  0  0  0  # atno 10764 bound_to 10752
  153.2029  135.6925  153.8292 H   0  0  0  0  0  0  0  0  0  0  0  0  # atno 10765 bound_to 10752
  140.5430  134.0356  155.7910 H   0  0  0  0  0  0  0  0  0  0  0  0  # atno 11005 bound_to 11000
  146.3520  140.1177  142.8601 LP  0  0  0  0  0  0  0  0  0  0  0  0  # atno 17320 bound_to 7965
  145.0734  140.9171  143.4868 LP  0  0  0  0  0  0  0  0  0  0  0  0  # atno 17321 bound_to 7965
  140.3874  144.2659  150.5902 LP  0  0  0  0  0  0  0  0  0  0  0  0  # atno 17342 bound_to 10162
  140.5177  143.2273  151.8437 LP  0  0  0  0  0  0  0  0  0  0  0  0  # atno 17343 bound_to 10162
  157.1442  131.0304  151.2914 LP  0  0  0  0  0  0  0  0  0  0  0  0  # atno 17370 bound_to 10713
  157.4446  130.7563  149.7099 LP  0  0  0  0  0  0  0  0  0  0  0  0  # atno 17371 bound_to 10713
  141.1216  133.9452  157.2718 LP  0  0  0  0  0  0  0  0  0  0  0  0  # atno 17394 bound_to 11000
  139.9494  135.0178  156.8949 LP  0  0  0  0  0  0  0  0  0  0  0  0  # atno 17395 bound_to 11000

$$$$
