AV-unprocessed.smi:101|AV-procd|sdf|930|dock10
  -GOLD-   2262017443D 1   1.00000     0.00000
 Structure written by MMmdl.
 43 45  0  0  0  0  0  0  0  0  2 V2000
  143.5800  144.5730  154.6777 C   0  0  0  0  0  0  0  0  0  0  0  0
  144.5721  143.5449  155.1925 C   0  0  0  0  0  0  0  0  0  0  0  0
  145.6025  143.0979  154.4411 C   0  0  0  0  0  0  0  0  0  0  0  0
  146.5064  142.1637  154.9150 N   0  0  0  0  0  0  0  0  0  0  0  0
  147.6510  141.6962  154.0401 C   0  0  1  0  0  0  0  0  0  0  0  0
  148.8036  141.6127  154.8246 O   0  0  0  0  0  0  0  0  0  0  0  0
  149.5138  140.4226  154.5047 C   0  0  1  0  0  0  0  0  0  0  0  0
  150.4411  140.0069  155.6555 C   0  0  0  0  0  0  0  0  0  0  0  0
  150.9896  141.1694  156.2540 O   0  0  0  0  0  0  0  0  0  0  0  0
  151.9677  141.0569  157.1728 C   0  0  0  0  0  0  0  0  0  0  0  0
  152.7205  140.0838  157.2518 O   0  0  0  0  0  0  0  0  0  0  0  0
  152.0461  142.2353  158.0839 C   0  0  0  0  0  0  0  0  0  0  0  0
  151.3299  143.4110  157.7595 C   0  0  0  0  0  0  0  0  0  0  0  0
  151.3856  144.5400  158.6001 C   0  0  0  0  0  0  0  0  0  0  0  0
  152.1587  144.5071  159.7752 C   0  0  0  0  0  0  0  0  0  0  0  0
  152.8764  143.3438  160.1089 C   0  0  0  0  0  0  0  0  0  0  0  0
  152.8218  142.2138  159.2696 C   0  0  0  0  0  0  0  0  0  0  0  0
  148.4092  139.4211  154.1464 C   0  0  1  0  0  0  0  0  0  0  0  0
  147.8665  138.8266  155.3148 O   0  0  0  0  0  0  0  0  0  0  0  0
  147.4043  140.3056  153.4148 C   0  0  1  0  0  0  0  0  0  0  0  0
  146.0759  139.8171  153.4878 O   0  0  0  0  0  0  0  0  0  0  0  0
  146.3679  141.6588  156.2346 C   0  0  0  0  0  0  0  0  0  0  0  0
  147.2016  140.8483  156.6393 O   0  0  0  0  0  0  0  0  0  0  0  0
  145.3270  142.0992  156.9977 N   0  5  0  0  0  0  0  0  0  0  0  0
  144.4191  143.0150  156.5527 C   0  0  0  0  0  0  0  0  0  0  0  0
  143.4858  143.4046  157.2539 O   0  0  0  0  0  0  0  0  0  0  0  0
  143.7943  144.8477  153.6445 H   0  0  0  0  0  0  0  0  0  0  0  0
  143.6219  145.4778  155.2847 H   0  0  0  0  0  0  0  0  0  0  0  0
  142.5646  144.1773  154.7179 H   0  0  0  0  0  0  0  0  0  0  0  0
  145.7228  143.4861  153.4408 H   0  0  0  0  0  0  0  0  0  0  0  0
  147.8147  142.4720  153.2915 H   0  0  0  0  0  0  0  0  0  0  0  0
  150.1054  140.6143  153.6074 H   0  0  0  0  0  0  0  0  0  0  0  0
  149.8973  139.4159  156.3940 H   0  0  0  0  0  0  0  0  0  0  0  0
  151.2553  139.3910  155.2714 H   0  0  0  0  0  0  0  0  0  0  0  0
  150.7295  143.4599  156.8622 H   0  0  0  0  0  0  0  0  0  0  0  0
  150.8338  145.4319  158.3421 H   0  0  0  0  0  0  0  0  0  0  0  0
  152.2011  145.3726  160.4196 H   0  0  0  0  0  0  0  0  0  0  0  0
  153.4707  143.3174  161.0104 H   0  0  0  0  0  0  0  0  0  0  0  0
  153.3860  141.3379  159.5544 H   0  0  0  0  0  0  0  0  0  0  0  0
  148.7825  138.6229  153.5039 H   0  0  0  0  0  0  0  0  0  0  0  0
  147.9297  137.8875  155.2324 H   0  0  0  0  0  0  0  0  0  0  0  0
  147.6890  140.3729  152.3640 H   0  0  0  0  0  0  0  0  0  0  0  0
  145.5490  140.3045  152.8727 H   0  0  0  0  0  0  0  0  0  0  0  0
  1  2  1  0  0  0  0
  1 27  1  0  0  0  0
  1 28  1  0  0  0  0
  1 29  1  0  0  0  0
  2 25  1  0  0  0  0
  2  3  2  0  0  0  0
  3  4  1  0  0  0  0
  3 30  1  0  0  0  0
  4  5  1  0  0  0  0
  4 22  1  0  0  0  0
  5 20  1  0  0  0  0
  5  6  1  0  0  0  0
  5 31  1  0  0  0  0
  6  7  1  0  0  0  0
  7  8  1  0  0  0  0
  7 18  1  0  0  0  0
  7 32  1  0  0  0  0
  8  9  1  0  0  0  0
  8 33  1  0  0  0  0
  8 34  1  0  0  0  0
  9 10  1  0  0  0  0
 10 11  2  0  0  0  0
 10 12  1  0  0  0  0
 12 17  1  0  0  0  0
 12 13  2  0  0  0  0
 13 14  1  0  0  0  0
 13 35  1  0  0  0  0
 14 15  2  0  0  0  0
 14 36  1  0  0  0  0
 15 16  1  0  0  0  0
 15 37  1  0  0  0  0
 16 17  2  0  0  0  0
 16 38  1  0  0  0  0
 17 39  1  0  0  0  0
 18 19  1  0  0  0  0
 18 20  1  0  0  0  0
 18 40  1  0  0  0  0
 19 41  1  0  0  0  0
 20 21  1  0  0  0  0
 20 42  1  0  0  0  0
 21 43  1  0  0  0  0
 22 23  2  0  0  0  0
 22 24  1  0  0  0  0
 24 25  1  0  0  0  0
 25 26  2  0  0  0  0
M  CHG  1  24  -1
M  END
> <s_m_source_file>
AV-unprocessed.smi

> <i_m_source_file_index>
101

> <i_lp_mmshare_version>
43012

> <i_f3d_flags>
0

> <s_epik_input>
Tz1jMVtuSF1jKD1PKW4oW2NIXWMxW0NIM10pW0NAQEhdMk9bQ0BIXShbQ0BASF0oW09IXSlbQ0BIXTJbT0hdKVtDSDJdT0MoPU8pYzNbY0hdW2NIXVtjSF1bY0hdW2NIXTM=

> <s_epik_cmdline>
J2VwaWtfcHl0aG9uJywgJy1waCcsICc3LjAnLCAnLXRuJywgJzgnLCAnLW1hJywgJzIwMCcsICctbWV0YWxfYmluZGluZycsICctaW1hZScsICc8aW5maWxlLm1hZT4nLCAnLW9tYWUnLCAnPG91dGZpbGUubWFlPic=

> <r_lp_tautomer_probability>
0.999537

> <r_epik_Ionization_Penalty>
3.21006

> <r_epik_Ionization_Penalty_Charging>
5.75142e-08

> <r_epik_Ionization_Penalty_Neutral>
3.21006

> <r_epik_State_Penalty>
3.20925

> <r_epik_Charging_Adjusted_Penalty>
3.20925

> <i_epik_Tot_Q>
-1

> <i_epik_Tot_abs_Q>
1

> <r_epik_Metal_State_Penalty>
0.119957

> <b_epik_Metal_Only>
1

> <s_epik_Chemistry_Notes>
This compound has an ester and may undergo hydrolysis at high or low pH. This compound contains an acetal/aminal-like group ( X-CH(R)-Y where X, Y are N, S, or O) that may be acid/base labile, releasing an aldehyde.

> <s_lp_Force_Field>
OPLS_2005

> <r_lp_Energy>
50.5402

> <b_lp_Chiralities_Consistent>
1

> <s_lp_Variant>
AV-unprocessed.smi:101-18

> <Gold.Version>
5.8.1

> <Gold.Id.Protein>
6NUR|6NUR_protein|mol2

> <Gold.PLP.Fitness>
52.4429

> <Gold.PLP.PLP>
-50.4834

> <Gold.PLP.part.hbond>
-2.1717

> <Gold.PLP.part.metal>
0.0000

> <Gold.PLP.part.buried>
-5.7233

> <Gold.PLP.part.nonpolar>
-42.8596

> <Gold.PLP.part.repulsive>
0.3693

> <Gold.PLP.ligand.clash>
0.0000

> <Gold.PLP.ligand.torsion>
1.1985

> <Gold.PLP.Chemscore.Hbond>
1.4441

> <Gold.PLP.Chemscore.CHOScore>
0.0000

> <Gold.PLP.Chemscore.Metal>
0.0000

> <Gold.Chemscore.Hbonds>
donor molecule, donor type, donor heavy atom, donor atom, acceptor molecule, acceptor atom, score
      L1  H    21    43       P1 10175  0.75
      P1  H  7997  8009       L1    11  1.00

> <Gold.PLP.Chemscore.Internal.Correction>
0.0243

> <Gold.Rescore>
     Score         DG    S(hbond)    S(metal)    S(lipo)     H(rot)  DE(clash)    DE(int)     intcor
     11.15     -15.90       1.85        0.00     107.64       3.27       0.02       4.74       ----

> <Gold.Chemscore.Fitness>
11.1511

> <Gold.Chemscore.DG>
-15.9049

> <Gold.Chemscore.ZeroCoef>
-5.4800

> <Gold.Chemscore.Hbond>
1.8535

> <Gold.Chemscore.Metal>
0.0000

> <Gold.Chemscore.Lipo>
107.6420

> <Gold.Chemscore.Internal_Hbond>
0.0000

> <Gold.Chemscore.DEClash>
0.0174

> <Gold.Chemscore.DEInternal>
4.7364

> <Gold.Chemscore.Rot>
3.2656

> <Gold.Chemscore.Internal.Correction>
   9.000000E+99

> <Gold.Chemscore.Hbonds>
donor molecule, donor type, donor heavy atom, donor atom, acceptor molecule, acceptor atom, score
      L1  H    21    43       P1 10175  0.68
      P1  H  7997  8009       L1    11  0.97

> <Gold.Chemscore.Hbond.Weighted>
-6.1906

> <Gold.Chemscore.Metal.Weighted>
-0.0000

> <Gold.Chemscore.Lipo.Weighted>
-12.5941

> <Gold.Chemscore.Internal_Hbond.Weighted>
0.0000

> <Gold.Chemscore.DEClash.Weighted>
0.0174

> <Gold.Chemscore.DEInternal.Weighted>
4.7364

> <Gold.Chemscore.Rot.Weighted>
8.3598

> <Gold.Chemscore.Internal.Correction.Weighted>
   9.000000E+99

> <Gold.Protein.RotatedTorsions>
[ 6907 6896 6895 6894 ] final  -82.46 input  -60.11 | X-H torsion
[ 7974 7965 7964 7962 ] final  149.91 input  175.53 | X-H torsion
[ 8008 7997 7996 7995 ] final  179.74 input   59.86 | X-H torsion
[ 10167 10162 10161 10158 ] final  144.13 input  -65.29 | X-H torsion
[ 10718 10713 10712 10709 ] final    9.19 input   66.30 | X-H torsion
[ 10763 10752 10751 10750 ] final  -11.42 input  -60.55 | X-H torsion
[ 11005 11000 10999 10996 ] final   28.86 input  -57.11 | X-H torsion

> <Gold.Protein.ActiveResidues>
 VAL166  LYS551  ARG553  GLY616  TRP617  ASP618  TYR619  PRO620  LYS621  CYS622 
 ASP623  PHE694  ASN695  SER759  ASP760  ASP761  ALA762  ILE779  LEU786  VAL792 
 PHE793  MET794  SER795  GLU796  ALA797  LYS798  CYS799  TRP800  GLU811  SER814 

> <Gold.Protein.RotatedAtoms>
  150.6897  134.3661  159.4971 H   0  0  0  0  0  0  0  0  0  0  0  0  # atno 6907 bound_to 6896
  152.1483  134.9005  160.0559 H   0  0  0  0  0  0  0  0  0  0  0  0  # atno 6908 bound_to 6896
  152.0113  133.3827  159.4257 H   0  0  0  0  0  0  0  0  0  0  0  0  # atno 6909 bound_to 6896
  144.8403  139.6340  143.6019 H   0  0  0  0  0  0  0  0  0  0  0  0  # atno 7974 bound_to 7965
  156.0400  140.1301  157.0166 H   0  0  0  0  0  0  0  0  0  0  0  0  # atno 8008 bound_to 7997
  154.4387  140.1032  156.6293 H   0  0  0  0  0  0  0  0  0  0  0  0  # atno 8009 bound_to 7997
  155.5681  140.3466  155.4510 H   0  0  0  0  0  0  0  0  0  0  0  0  # atno 8010 bound_to 7997
  139.4954  144.5993  151.6515 H   0  0  0  0  0  0  0  0  0  0  0  0  # atno 10167 bound_to 10162
  156.9627  130.5939  149.5663 H   0  0  0  0  0  0  0  0  0  0  0  0  # atno 10718 bound_to 10713
  153.4836  135.7017  153.5924 H   0  0  0  0  0  0  0  0  0  0  0  0  # atno 10763 bound_to 10752
  153.4127  135.3844  155.2060 H   0  0  0  0  0  0  0  0  0  0  0  0  # atno 10764 bound_to 10752
  154.8720  135.3908  154.4288 H   0  0  0  0  0  0  0  0  0  0  0  0  # atno 10765 bound_to 10752
  140.3110  134.2649  155.7734 H   0  0  0  0  0  0  0  0  0  0  0  0  # atno 11005 bound_to 11000
  146.2696  139.6604  142.9305 LP  0  0  0  0  0  0  0  0  0  0  0  0  # atno 17320 bound_to 7965
  145.4708  141.0436  143.2700 LP  0  0  0  0  0  0  0  0  0  0  0  0  # atno 17321 bound_to 7965
  140.5639  144.0222  150.6183 LP  0  0  0  0  0  0  0  0  0  0  0  0  # atno 17342 bound_to 10162
  140.3317  143.3073  152.0680 LP  0  0  0  0  0  0  0  0  0  0  0  0  # atno 17343 bound_to 10162
  156.0315  130.5406  150.8546 LP  0  0  0  0  0  0  0  0  0  0  0  0  # atno 17370 bound_to 10713
  157.5646  131.0946  150.9508 LP  0  0  0  0  0  0  0  0  0  0  0  0  # atno 17371 bound_to 10713
  141.2108  133.7709  156.9908 LP  0  0  0  0  0  0  0  0  0  0  0  0  # atno 17394 bound_to 11000
  140.1024  134.9527  157.1943 LP  0  0  0  0  0  0  0  0  0  0  0  0  # atno 17395 bound_to 11000

$$$$
