AV-unprocessed.smi:1651|AV-procd|sdf|6637|dock3
  -GOLD-   22720 7343D 1   1.00000     0.00000
 Structure written by MMmdl.
 42 44  0  0  0  0  0  0  0  0  1 V2000
  146.6584  139.5569  153.9984 O   0  0  0  0  0  0  0  0  0  0  0  0
  147.3536  138.6049  153.6454 C   0  0  0  0  0  0  0  0  0  0  0  0
  146.9272  137.6500  152.8073 N   0  0  0  0  0  0  0  0  0  0  0  0
  145.6118  137.6160  152.1812 C   0  0  0  0  0  0  0  0  0  0  0  0
  145.2265  136.2799  151.5753 C   0  0  0  0  0  0  0  0  0  0  0  0
  143.8772  135.6548  151.8476 C   0  0  0  0  0  0  0  0  0  0  0  0
  145.1230  135.0511  152.4484 C   0  0  0  0  0  0  0  0  0  0  0  0
  148.6140  138.3676  154.0479 N   0  0  0  0  0  0  0  0  0  0  0  0
  149.4460  139.1539  154.8909 C   0  0  0  0  0  0  0  0  0  0  0  0
  150.5069  138.6421  155.6763 C   0  0  0  0  0  0  0  0  0  0  0  0
  151.2413  139.5274  156.4883 C   0  0  0  0  0  0  0  0  0  0  0  0
  150.8907  140.8928  156.4979 C   0  0  0  0  0  0  0  0  0  0  0  0
  151.6153  141.7772  157.3096 N   0  0  0  0  0  0  0  0  0  0  0  0
  151.2675  143.1780  157.0836 C   0  0  0  0  0  0  0  0  0  0  0  0
  152.2290  144.1097  157.8418 C   0  0  0  0  0  0  0  0  0  0  0  0
  152.2786  143.7508  159.3359 C   0  0  0  0  0  0  0  0  0  0  0  0
  152.6192  142.2623  159.5131 C   0  0  0  0  0  0  0  0  0  0  0  0
  151.6451  141.3786  158.7150 C   0  0  0  0  0  0  0  0  0  0  0  0
  149.8727  141.3888  155.7557 N   0  0  0  0  0  0  0  0  0  0  0  0
  149.1732  140.5348  154.9794 C   0  0  0  0  0  0  0  0  0  0  0  0
  147.5607  136.8986  152.5768 H   0  0  0  0  0  0  0  0  0  0  0  0
  144.8776  137.8639  152.9477 H   0  0  0  0  0  0  0  0  0  0  0  0
  145.5378  138.3989  151.4243 H   0  0  0  0  0  0  0  0  0  0  0  0
  145.6444  136.1116  150.5844 H   0  0  0  0  0  0  0  0  0  0  0  0
  143.2000  136.1811  152.5176 H   0  0  0  0  0  0  0  0  0  0  0  0
  143.3999  135.1176  151.0307 H   0  0  0  0  0  0  0  0  0  0  0  0
  145.4759  134.1089  152.0340 H   0  0  0  0  0  0  0  0  0  0  0  0
  145.2732  135.1750  153.5191 H   0  0  0  0  0  0  0  0  0  0  0  0
  149.0218  137.4999  153.7320 H   0  0  0  0  0  0  0  0  0  0  0  0
  150.7649  137.5950  155.6874 H   0  0  0  0  0  0  0  0  0  0  0  0
  152.0547  139.1606  157.0974 H   0  0  0  0  0  0  0  0  0  0  0  0
  151.3022  143.3987  156.0159 H   0  0  0  0  0  0  0  0  0  0  0  0
  150.2431  143.3560  157.4137 H   0  0  0  0  0  0  0  0  0  0  0  0
  153.2290  144.0278  157.4137 H   0  0  0  0  0  0  0  0  0  0  0  0
  151.9210  145.1477  157.7148 H   0  0  0  0  0  0  0  0  0  0  0  0
  153.0139  144.3707  159.8495 H   0  0  0  0  0  0  0  0  0  0  0  0
  151.3130  143.9632  159.7965 H   0  0  0  0  0  0  0  0  0  0  0  0
  153.6395  142.0785  159.1738 H   0  0  0  0  0  0  0  0  0  0  0  0
  152.5898  141.9927  160.5690 H   0  0  0  0  0  0  0  0  0  0  0  0
  150.6426  141.4592  159.1380 H   0  0  0  0  0  0  0  0  0  0  0  0
  151.9424  140.3321  158.7946 H   0  0  0  0  0  0  0  0  0  0  0  0
  148.3669  140.9715  154.4080 H   0  0  0  0  0  0  0  0  0  0  0  0
  1  2  2  0  0  0  0
  2  3  1  0  0  0  0
  2  8  1  0  0  0  0
  3  4  1  0  0  0  0
  3 21  1  0  0  0  0
  4  5  1  0  0  0  0
  4 22  1  0  0  0  0
  4 23  1  0  0  0  0
  5  7  1  0  0  0  0
  5  6  1  0  0  0  0
  5 24  1  0  0  0  0
  6  7  1  0  0  0  0
  6 25  1  0  0  0  0
  6 26  1  0  0  0  0
  7 27  1  0  0  0  0
  7 28  1  0  0  0  0
  8  9  1  0  0  0  0
  8 29  1  0  0  0  0
  9 20  1  0  0  0  0
  9 10  2  0  0  0  0
 10 11  1  0  0  0  0
 10 30  1  0  0  0  0
 11 12  2  0  0  0  0
 11 31  1  0  0  0  0
 12 13  1  0  0  0  0
 12 19  1  0  0  0  0
 13 18  1  0  0  0  0
 13 14  1  0  0  0  0
 14 15  1  0  0  0  0
 14 32  1  0  0  0  0
 14 33  1  0  0  0  0
 15 16  1  0  0  0  0
 15 34  1  0  0  0  0
 15 35  1  0  0  0  0
 16 17  1  0  0  0  0
 16 36  1  0  0  0  0
 16 37  1  0  0  0  0
 17 18  1  0  0  0  0
 17 38  1  0  0  0  0
 17 39  1  0  0  0  0
 18 40  1  0  0  0  0
 18 41  1  0  0  0  0
 19 20  2  0  0  0  0
 20 42  1  0  0  0  0
M  END
> <s_m_source_file>
AV-unprocessed.smi

> <i_m_source_file_index>
1651

> <i_lp_mmshare_version>
43012

> <i_f3d_flags>
0

> <s_epik_input>
W0NIMl0xW0NIMl1bQ0hdMVtDSDJdW05IXUMoPU8pW05IXWMyW2NIXVtjSF1jKG5bY0hdMilOM1tDSDJdW0NIMl1bQ0gyXVtDSDJdW0NIMl0z

> <s_epik_cmdline>
J2VwaWtfcHl0aG9uJywgJy1waCcsICc3LjAnLCAnLXRuJywgJzgnLCAnLW1hJywgJzIwMCcsICctbWV0YWxfYmluZGluZycsICctaW1hZScsICc8aW5maWxlLm1hZT4nLCAnLW9tYWUnLCAnPG91dGZpbGUubWFlPic=

> <r_lp_tautomer_probability>
1

> <r_epik_Ionization_Penalty>
0.1086

> <r_epik_Ionization_Penalty_Charging>
0

> <r_epik_Ionization_Penalty_Neutral>
0.1086

> <r_epik_State_Penalty>
0.0922233

> <r_epik_Charging_Adjusted_Penalty>
0.0922233

> <i_epik_Tot_Q>
0

> <i_epik_Tot_abs_Q>
0

> <r_epik_Metal_State_Penalty>
0.0785278

> <b_epik_Metal_Only>
0

> <s_lp_Force_Field>
OPLS_2005

> <r_lp_Energy>
29.7099

> <b_lp_Chiralities_Consistent>
1

> <s_lp_Variant>
AV-unprocessed.smi:1651-1

> <Gold.Version>
5.8.1

> <Gold.Id.Protein>
6NUR|6NUR_protein|mol2

> <Gold.PLP.Fitness>
44.5714

> <Gold.PLP.PLP>
-40.3375

> <Gold.PLP.part.hbond>
-2.8994

> <Gold.PLP.part.metal>
0.0000

> <Gold.PLP.part.buried>
4.2064

> <Gold.PLP.part.nonpolar>
-42.5664

> <Gold.PLP.part.repulsive>
0.4399

> <Gold.PLP.ligand.clash>
0.0000

> <Gold.PLP.ligand.torsion>
0.6520

> <Gold.PLP.Chemscore.Hbond>
1.6153

> <Gold.PLP.Chemscore.CHOScore>
0.0000

> <Gold.PLP.Chemscore.Metal>
0.0000

> <Gold.Chemscore.Hbonds>
donor molecule, donor type, donor heavy atom, donor atom, acceptor molecule, acceptor atom, score
      L1  H     3    21       P1  7948  1.00
      L1  H     8    29       P1  7948  0.35

> <Gold.PLP.Chemscore.Internal.Correction>
0.6920

> <Gold.Rescore>
     Score         DG    S(hbond)    S(metal)    S(lipo)     H(rot)  DE(clash)    DE(int)     intcor
     15.62     -18.50       1.32        0.00     102.17       1.31       1.00       1.88       ----

> <Gold.Chemscore.Fitness>
15.6240

> <Gold.Chemscore.DG>
-18.5019

> <Gold.Chemscore.ZeroCoef>
-5.4800

> <Gold.Chemscore.Hbond>
1.3227

> <Gold.Chemscore.Metal>
0.0000

> <Gold.Chemscore.Lipo>
102.1692

> <Gold.Chemscore.Internal_Hbond>
0.0000

> <Gold.Chemscore.DEClash>
0.9989

> <Gold.Chemscore.DEInternal>
1.8790

> <Gold.Chemscore.Rot>
1.3084

> <Gold.Chemscore.Internal.Correction>
   9.000000E+99

> <Gold.Chemscore.Hbonds>
donor molecule, donor type, donor heavy atom, donor atom, acceptor molecule, acceptor atom, score
      L1  H     3    21       P1  7948  0.98
      L1  H     8    29       P1  7948  0.35

> <Gold.Chemscore.Hbond.Weighted>
-4.4177

> <Gold.Chemscore.Metal.Weighted>
-0.0000

> <Gold.Chemscore.Lipo.Weighted>
-11.9538

> <Gold.Chemscore.Internal_Hbond.Weighted>
0.0000

> <Gold.Chemscore.DEClash.Weighted>
0.9989

> <Gold.Chemscore.DEInternal.Weighted>
1.8790

> <Gold.Chemscore.Rot.Weighted>
3.3495

> <Gold.Chemscore.Internal.Correction.Weighted>
   9.000000E+99

> <Gold.Protein.RotatedTorsions>
[ 6907 6896 6895 6894 ] final  -24.85 input  -60.11 | X-H torsion
[ 7974 7965 7964 7962 ] final   71.39 input  175.53 | X-H torsion
[ 8008 7997 7996 7995 ] final -110.93 input   59.86 | X-H torsion
[ 10167 10162 10161 10158 ] final  -76.70 input  -65.29 | X-H torsion
[ 10718 10713 10712 10709 ] final -100.26 input   66.30 | X-H torsion
[ 10763 10752 10751 10750 ] final   24.69 input  -60.55 | X-H torsion
[ 11005 11000 10999 10996 ] final  -15.61 input  -57.11 | X-H torsion

> <Gold.Protein.ActiveResidues>
 VAL166  LYS551  ARG553  GLY616  TRP617  ASP618  TYR619  PRO620  LYS621  CYS622 
 ASP623  PHE694  ASN695  SER759  ASP760  ASP761  ALA762  ILE779  LEU786  VAL792 
 PHE793  MET794  SER795  GLU796  ALA797  LYS798  CYS799  TRP800  GLU811  SER814 

> <Gold.Protein.RotatedAtoms>
  151.1837  135.0372  159.8802 H   0  0  0  0  0  0  0  0  0  0  0  0  # atno 6907 bound_to 6896
  152.5443  134.1034  159.8338 H   0  0  0  0  0  0  0  0  0  0  0  0  # atno 6908 bound_to 6896
  151.1154  133.5095  159.2636 H   0  0  0  0  0  0  0  0  0  0  0  0  # atno 6909 bound_to 6896
  145.7665  139.2823  143.1346 H   0  0  0  0  0  0  0  0  0  0  0  0  # atno 7974 bound_to 7965
  154.9821  140.0396  157.2282 H   0  0  0  0  0  0  0  0  0  0  0  0  # atno 8008 bound_to 7997
  154.7705  140.2801  155.6119 H   0  0  0  0  0  0  0  0  0  0  0  0  # atno 8009 bound_to 7997
  156.2920  140.2611  156.2506 H   0  0  0  0  0  0  0  0  0  0  0  0  # atno 8010 bound_to 7997
  140.4834  143.2397  151.8022 H   0  0  0  0  0  0  0  0  0  0  0  0  # atno 10167 bound_to 10162
  156.0158  130.5320  150.6791 H   0  0  0  0  0  0  0  0  0  0  0  0  # atno 10718 bound_to 10713
  153.0746  135.6600  154.0174 H   0  0  0  0  0  0  0  0  0  0  0  0  # atno 10763 bound_to 10752
  153.9811  135.2955  155.3421 H   0  0  0  0  0  0  0  0  0  0  0  0  # atno 10764 bound_to 10752
  154.7130  135.5197  153.8765 H   0  0  0  0  0  0  0  0  0  0  0  0  # atno 10765 bound_to 10752
  140.7984  133.8233  155.9446 H   0  0  0  0  0  0  0  0  0  0  0  0  # atno 11005 bound_to 11000
  146.0213  140.8345  142.9922 LP  0  0  0  0  0  0  0  0  0  0  0  0  # atno 17320 bound_to 7965
  144.6820  140.2632  143.7316 LP  0  0  0  0  0  0  0  0  0  0  0  0  # atno 17321 bound_to 7965
  139.4837  144.4743  151.9386 LP  0  0  0  0  0  0  0  0  0  0  0  0  # atno 17342 bound_to 10162
  140.3829  144.2714  150.5907 LP  0  0  0  0  0  0  0  0  0  0  0  0  # atno 17343 bound_to 10162
  157.4497  131.0871  151.0858 LP  0  0  0  0  0  0  0  0  0  0  0  0  # atno 17370 bound_to 10713
  157.1377  130.6130  149.5546 LP  0  0  0  0  0  0  0  0  0  0  0  0  # atno 17371 bound_to 10713
  140.9319  134.2010  157.4858 LP  0  0  0  0  0  0  0  0  0  0  0  0  # atno 17394 bound_to 11000
  139.8724  134.9836  156.5206 LP  0  0  0  0  0  0  0  0  0  0  0  0  # atno 17395 bound_to 11000

$$$$
