AV-unprocessed.smi:81|AV-procd|sdf|788|dock5
  -GOLD-   2262017163D 1   1.00000     0.00000
 Structure written by MMmdl.
 64 67  0  0  0  0  0  0  0  0  2 V2000
  152.9038  138.8734  154.8588 C   0  0  0  0  0  0  0  0  0  0  0  0
  151.6667  138.9827  155.7656 C   0  0  0  0  0  0  0  0  0  0  0  0
  150.3929  138.6400  154.9806 C   0  0  0  0  0  0  0  0  0  0  0  0
  151.5440  140.3844  156.4051 C   0  0  0  0  0  0  0  0  0  0  0  0
  150.8644  140.3904  157.7040 N   0  0  0  0  0  0  0  0  0  0  0  0
  149.6503  139.7856  157.7105 C   0  0  0  0  0  0  0  0  0  0  0  0
  148.5946  140.3704  157.0850 N   0  0  0  0  0  0  0  0  0  0  0  0
  147.4031  139.7652  157.0773 C   0  0  0  0  0  0  0  0  0  0  0  0
  147.0580  138.5952  157.6190 N   0  0  0  0  0  0  0  0  0  0  0  0
  148.1195  138.0013  158.2362 C   0  0  0  0  0  0  0  0  0  0  0  0
  149.4381  138.5257  158.3304 C   0  0  0  0  0  0  0  0  0  0  0  0
  150.2535  137.6465  159.0313 N   0  0  0  0  0  0  0  0  0  0  0  0
  149.4609  136.6549  159.3336 C   0  0  0  0  0  0  0  0  0  0  0  0
  148.1640  136.7817  158.8881 N   0  0  0  0  0  0  0  0  0  0  0  0
  147.0831  135.8267  159.0724 C   0  0  0  0  0  0  0  0  0  0  0  0
  146.6322  135.6890  160.5460 C   0  0  1  0  0  0  0  0  0  0  0  0
  145.4550  134.8985  160.5870 O   0  0  0  0  0  0  0  0  0  0  0  0
  147.6718  135.0545  161.4580 C   0  0  0  0  0  0  0  0  0  0  0  0
  147.2652  135.5707  162.8326 C   0  0  0  0  0  0  0  0  0  0  0  0
  146.7888  136.8908  162.6028 O   0  0  0  0  0  0  0  0  0  0  0  0
  146.4015  137.0498  161.2383 C   0  0  2  0  0  0  0  0  0  0  0  0
  144.9887  137.6460  161.1320 C   0  0  0  0  0  0  0  0  0  0  0  0
  150.9824  141.6213  158.4991 C   0  0  2  0  0  0  0  0  0  0  0  0
  150.2058  142.8194  157.9132 C   0  0  0  0  0  0  0  0  0  0  0  0
  150.3029  144.0414  158.8407 C   0  0  0  0  0  0  0  0  0  0  0  0
  151.7192  144.4108  159.0854 N   0  3  1  0  0  0  0  0  0  0  0  0
  151.8486  145.6577  159.8694 C   0  0  0  0  0  0  0  0  0  0  0  0
  152.4924  143.2899  159.6757 C   0  0  0  0  0  0  0  0  0  0  0  0
  152.4416  142.0455  158.7736 C   0  0  0  0  0  0  0  0  0  0  0  0
  152.8639  139.5986  154.0455 H   0  0  0  0  0  0  0  0  0  0  0  0
  152.9785  137.8801  154.4154 H   0  0  0  0  0  0  0  0  0  0  0  0
  153.8244  139.0493  155.4152 H   0  0  0  0  0  0  0  0  0  0  0  0
  151.7604  138.2350  156.5540 H   0  0  0  0  0  0  0  0  0  0  0  0
  150.2280  139.3446  154.1647 H   0  0  0  0  0  0  0  0  0  0  0  0
  149.5148  138.6665  155.6267 H   0  0  0  0  0  0  0  0  0  0  0  0
  150.4534  137.6398  154.5506 H   0  0  0  0  0  0  0  0  0  0  0  0
  152.5411  140.8097  156.5261 H   0  0  0  0  0  0  0  0  0  0  0  0
  151.0157  141.0519  155.7232 H   0  0  0  0  0  0  0  0  0  0  0  0
  146.6140  140.2910  156.5602 H   0  0  0  0  0  0  0  0  0  0  0  0
  149.8053  135.7933  159.8869 H   0  0  0  0  0  0  0  0  0  0  0  0
  146.2463  136.1458  158.4496 H   0  0  0  0  0  0  0  0  0  0  0  0
  147.4024  134.8595  158.6819 H   0  0  0  0  0  0  0  0  0  0  0  0
  145.0530  134.9152  159.7319 H   0  0  0  0  0  0  0  0  0  0  0  0
  147.7027  133.9653  161.4010 H   0  0  0  0  0  0  0  0  0  0  0  0
  148.6661  135.4311  161.2136 H   0  0  0  0  0  0  0  0  0  0  0  0
  146.4533  134.9690  163.2429 H   0  0  0  0  0  0  0  0  0  0  0  0
  148.0893  135.5602  163.5461 H   0  0  0  0  0  0  0  0  0  0  0  0
  147.1055  137.7724  160.8232 H   0  0  0  0  0  0  0  0  0  0  0  0
  144.6882  137.7583  160.0901 H   0  0  0  0  0  0  0  0  0  0  0  0
  144.9512  138.6317  161.5959 H   0  0  0  0  0  0  0  0  0  0  0  0
  144.2482  137.0215  161.6322 H   0  0  0  0  0  0  0  0  0  0  0  0
  150.5235  141.3932  159.4622 H   0  0  0  0  0  0  0  0  0  0  0  0
  150.5971  143.0910  156.9318 H   0  0  0  0  0  0  0  0  0  0  0  0
  149.1579  142.5530  157.7716 H   0  0  0  0  0  0  0  0  0  0  0  0
  149.7777  144.8831  158.3874 H   0  0  0  0  0  0  0  0  0  0  0  0
  149.8081  143.8330  159.7907 H   0  0  0  0  0  0  0  0  0  0  0  0
  151.4339  145.5360  160.8711 H   0  0  0  0  0  0  0  0  0  0  0  0
  151.3239  146.4780  159.3785 H   0  0  0  0  0  0  0  0  0  0  0  0
  152.8962  145.9448  159.9654 H   0  0  0  0  0  0  0  0  0  0  0  0
  153.5304  143.5953  159.8138 H   0  0  0  0  0  0  0  0  0  0  0  0
  152.0971  143.0529  160.6647 H   0  0  0  0  0  0  0  0  0  0  0  0
  152.9931  141.2345  159.2497 H   0  0  0  0  0  0  0  0  0  0  0  0
  152.9572  142.2655  157.8386 H   0  0  0  0  0  0  0  0  0  0  0  0
  152.1281  144.5982  158.1809 H   0  0  0  0  0  0  0  0  0  0  0  0
  1  2  1  0  0  0  0
  1 30  1  0  0  0  0
  1 31  1  0  0  0  0
  1 32  1  0  0  0  0
  2  3  1  0  0  0  0
  2  4  1  0  0  0  0
  2 33  1  0  0  0  0
  3 34  1  0  0  0  0
  3 35  1  0  0  0  0
  3 36  1  0  0  0  0
  4  5  1  0  0  0  0
  4 37  1  0  0  0  0
  4 38  1  0  0  0  0
  5  6  1  0  0  0  0
  5 23  1  0  0  0  0
  6 11  1  0  0  0  0
  6  7  2  0  0  0  0
  7  8  1  0  0  0  0
  8  9  2  0  0  0  0
  8 39  1  0  0  0  0
  9 10  1  0  0  0  0
 10 14  1  0  0  0  0
 10 11  2  0  0  0  0
 11 12  1  0  0  0  0
 12 13  2  0  0  0  0
 13 14  1  0  0  0  0
 13 40  1  0  0  0  0
 14 15  1  0  0  0  0
 15 16  1  0  0  0  0
 15 41  1  0  0  0  0
 15 42  1  0  0  0  0
 16 21  1  0  0  0  0
 16 17  1  0  0  0  0
 16 18  1  0  0  0  0
 17 43  1  0  0  0  0
 18 19  1  0  0  0  0
 18 44  1  0  0  0  0
 18 45  1  0  0  0  0
 19 20  1  0  0  0  0
 19 46  1  0  0  0  0
 19 47  1  0  0  0  0
 20 21  1  0  0  0  0
 21 22  1  0  0  0  0
 21 48  1  0  0  0  0
 22 49  1  0  0  0  0
 22 50  1  0  0  0  0
 22 51  1  0  0  0  0
 23 29  1  0  0  0  0
 23 24  1  0  0  0  0
 23 52  1  0  0  0  0
 24 25  1  0  0  0  0
 24 53  1  0  0  0  0
 24 54  1  0  0  0  0
 25 26  1  0  0  0  0
 25 55  1  0  0  0  0
 25 56  1  0  0  0  0
 26 27  1  0  0  0  0
 26 28  1  0  0  0  0
 26 64  1  0  0  0  0
 27 57  1  0  0  0  0
 27 58  1  0  0  0  0
 27 59  1  0  0  0  0
 28 29  1  0  0  0  0
 28 60  1  0  0  0  0
 28 61  1  0  0  0  0
 29 62  1  0  0  0  0
 29 63  1  0  0  0  0
M  CHG  1  26   1
M  END
> <s_m_source_file>
AV-unprocessed.smi

> <i_m_source_file_index>
81

> <i_lp_mmshare_version>
43012

> <i_f3d_flags>
0

> <s_epik_input>
W0NIMl0xW0NIMl1OKFtDSDNdKVtDSDJdW0NIMl1bQ0hdMU4oW0NIMl1bQ0hdKFtDSDNdKVtDSDNdKWMobltjSF1uMiljKGMyMyluW2NIXW4zW0NIMl1bQ0BAXTQoW09IXSlbQ0gyXVtDSDJdT1tDQEhdNFtDSDNd

> <s_epik_cmdline>
J2VwaWtfcHl0aG9uJywgJy1waCcsICc3LjAnLCAnLXRuJywgJzgnLCAnLW1hJywgJzIwMCcsICctbWV0YWxfYmluZGluZycsICctaW1hZScsICc8aW5maWxlLm1hZT4nLCAnLW9tYWUnLCAnPG91dGZpbGUubWFlPic=

> <r_lp_tautomer_probability>
1

> <r_epik_Ionization_Penalty>
0.00272708

> <r_epik_Ionization_Penalty_Charging>
0.00158983

> <r_epik_Ionization_Penalty_Neutral>
0.00113725

> <r_epik_State_Penalty>
-0

> <r_epik_Charging_Adjusted_Penalty>
0.00158983

> <i_epik_Tot_Q>
1

> <i_epik_Tot_abs_Q>
1

> <r_epik_Metal_State_Penalty>
-0

> <b_epik_Metal_Only>
0

> <s_lp_Force_Field>
OPLS_2005

> <r_lp_Energy>
45.229

> <b_lp_Chiralities_Consistent>
1

> <s_lp_Variant>
AV-unprocessed.smi:81-3

> <Gold.Version>
5.8.1

> <Gold.Id.Protein>
6NUR|6NUR_protein|mol2

> <Gold.PLP.Fitness>
44.3164

> <Gold.PLP.PLP>
-45.1583

> <Gold.PLP.part.hbond>
0.0000

> <Gold.PLP.part.metal>
0.0000

> <Gold.PLP.part.buried>
-7.3971

> <Gold.PLP.part.nonpolar>
-37.7478

> <Gold.PLP.part.repulsive>
0.0912

> <Gold.PLP.ligand.clash>
0.0000

> <Gold.PLP.ligand.torsion>
0.8186

> <Gold.PLP.Chemscore.Hbond>
0.0000

> <Gold.PLP.Chemscore.CHOScore>
0.0000

> <Gold.PLP.Chemscore.Metal>
0.0000

> <Gold.PLP.Chemscore.Internal.Correction>
0.7954

> <Gold.Rescore>
     Score         DG    S(hbond)    S(metal)    S(lipo)     H(rot)  DE(clash)    DE(int)     intcor
     12.20     -13.20       0.00        0.00     122.36       2.58       0.06       0.94       ----

> <Gold.Chemscore.Fitness>
12.2003

> <Gold.Chemscore.DG>
-13.1975

> <Gold.Chemscore.ZeroCoef>
-5.4800

> <Gold.Chemscore.Hbond>
0.0000

> <Gold.Chemscore.Metal>
0.0000

> <Gold.Chemscore.Lipo>
122.3566

> <Gold.Chemscore.Internal_Hbond>
0.0000

> <Gold.Chemscore.DEClash>
0.0551

> <Gold.Chemscore.DEInternal>
0.9420

> <Gold.Chemscore.Rot>
2.5774

> <Gold.Chemscore.Internal.Correction>
   9.000000E+99

> <Gold.Chemscore.Hbond.Weighted>
-0.0000

> <Gold.Chemscore.Metal.Weighted>
-0.0000

> <Gold.Chemscore.Lipo.Weighted>
-14.3157

> <Gold.Chemscore.Internal_Hbond.Weighted>
0.0000

> <Gold.Chemscore.DEClash.Weighted>
0.0551

> <Gold.Chemscore.DEInternal.Weighted>
0.9420

> <Gold.Chemscore.Rot.Weighted>
6.5982

> <Gold.Chemscore.Internal.Correction.Weighted>
   9.000000E+99

> <Gold.Protein.RotatedTorsions>
[ 6907 6896 6895 6894 ] final   85.26 input  -60.11 | X-H torsion
[ 7974 7965 7964 7962 ] final -151.24 input  175.53 | X-H torsion
[ 8008 7997 7996 7995 ] final   -7.49 input   59.86 | X-H torsion
[ 10167 10162 10161 10158 ] final  176.98 input  -65.29 | X-H torsion
[ 10718 10713 10712 10709 ] final   34.68 input   66.30 | X-H torsion
[ 10763 10752 10751 10750 ] final   13.30 input  -60.55 | X-H torsion
[ 11005 11000 10999 10996 ] final  121.05 input  -57.11 | X-H torsion

> <Gold.Protein.ActiveResidues>
 VAL166  LYS551  ARG553  GLY616  TRP617  ASP618  TYR619  PRO620  LYS621  CYS622 
 ASP623  PHE694  ASN695  SER759  ASP760  ASP761  ALA762  ILE779  LEU786  VAL792 
 PHE793  MET794  SER795  GLU796  ALA797  LYS798  CYS799  TRP800  GLU811  SER814 

> <Gold.Protein.RotatedAtoms>
  152.5371  134.2613  159.8936 H   0  0  0  0  0  0  0  0  0  0  0  0  # atno 6907 bound_to 6896
  151.2573  133.4313  159.2622 H   0  0  0  0  0  0  0  0  0  0  0  0  # atno 6908 bound_to 6896
  151.0484  134.9670  159.8255 H   0  0  0  0  0  0  0  0  0  0  0  0  # atno 6909 bound_to 6896
  144.7861  140.4823  143.5805 H   0  0  0  0  0  0  0  0  0  0  0  0  # atno 7974 bound_to 7965
  154.5833  140.2405  155.8023 H   0  0  0  0  0  0  0  0  0  0  0  0  # atno 8008 bound_to 7997
  156.2195  140.3002  155.9874 H   0  0  0  0  0  0  0  0  0  0  0  0  # atno 8009 bound_to 7997
  155.2503  140.0410  157.2976 H   0  0  0  0  0  0  0  0  0  0  0  0  # atno 8010 bound_to 7997
  139.5235  144.2852  152.0512 H   0  0  0  0  0  0  0  0  0  0  0  0  # atno 10167 bound_to 10162
  157.3133  130.7410  149.6738 H   0  0  0  0  0  0  0  0  0  0  0  0  # atno 10718 bound_to 10713
  153.1735  135.6816  153.8575 H   0  0  0  0  0  0  0  0  0  0  0  0  # atno 10763 bound_to 10752
  153.7931  135.3166  155.3382 H   0  0  0  0  0  0  0  0  0  0  0  0  # atno 10764 bound_to 10752
  154.8013  135.4776  154.0376 H   0  0  0  0  0  0  0  0  0  0  0  0  # atno 10765 bound_to 10752
  139.9210  134.9637  156.7899 H   0  0  0  0  0  0  0  0  0  0  0  0  # atno 11005 bound_to 11000
  145.5919  139.1496  143.3178 LP  0  0  0  0  0  0  0  0  0  0  0  0  # atno 17320 bound_to 7965
  146.2093  140.6044  142.9067 LP  0  0  0  0  0  0  0  0  0  0  0  0  # atno 17321 bound_to 7965
  140.2305  144.4373  150.6302 LP  0  0  0  0  0  0  0  0  0  0  0  0  # atno 17342 bound_to 10162
  140.6358  143.2194  151.6398 LP  0  0  0  0  0  0  0  0  0  0  0  0  # atno 17343 bound_to 10162
  155.9679  130.4245  150.4610 LP  0  0  0  0  0  0  0  0  0  0  0  0  # atno 17370 bound_to 10713
  157.2612  131.0567  151.2319 LP  0  0  0  0  0  0  0  0  0  0  0  0  # atno 17371 bound_to 10713
  140.6475  133.9761  155.7738 LP  0  0  0  0  0  0  0  0  0  0  0  0  # atno 17394 bound_to 11000
  141.0730  134.0177  157.3499 LP  0  0  0  0  0  0  0  0  0  0  0  0  # atno 17395 bound_to 11000

$$$$
