AV-unprocessed.smi:1809|AV-procd|sdf|7327|dock3
  -GOLD-   22720 8583D 1   1.00000     0.00000
 Structure written by MMmdl.
 39 41  0  0  0  0  0  0  0  0  3 V2000
  154.3139  140.9465  160.2030 C   0  0  0  0  0  0  0  0  0  0  0  0
  153.6665  140.0349  159.2179 C   0  0  0  0  0  0  0  0  0  0  0  0
  154.3620  139.2123  158.4287 N   0  0  0  0  0  0  0  0  0  0  0  0
  153.5392  138.4648  157.5985 N   0  0  0  0  0  0  0  0  0  0  0  0
  152.2361  138.7238  157.7783 C   0  0  0  0  0  0  0  0  0  0  0  0
  151.2748  138.1095  157.0690 N   0  5  0  0  0  0  0  0  0  0  0  0
  151.5841  137.0520  156.2864 C   0  0  0  0  0  0  0  0  0  0  0  0
  152.7023  136.5553  156.1326 O   0  0  0  0  0  0  0  0  0  0  0  0
  150.5322  136.5363  155.6392 N   0  0  0  0  0  0  0  0  0  0  0  0
  150.5898  135.4093  154.7195 C   0  0  0  0  0  0  0  0  0  0  0  0
  149.7407  134.2340  155.2403 C   0  0  2  0  0  0  0  0  0  0  0  0
  149.3753  133.2232  154.1266 C   0  0  0  0  0  0  0  0  0  0  0  0
  148.3275  133.8120  153.2716 N   0  3  1  0  0  0  0  0  0  0  0  0
  147.8341  133.0211  152.1314 C   0  0  0  0  0  0  0  0  0  0  0  0
  146.4255  133.5777  151.8435 C   0  0  0  0  0  0  0  0  0  0  0  0
  146.1263  134.5680  152.9836 C   0  0  0  0  0  0  0  0  0  0  0  0
  147.1458  134.1852  154.0520 C   0  0  2  0  0  0  0  0  0  0  0  0
  147.5414  135.2482  155.0839 C   0  0  0  0  0  0  0  0  0  0  0  0
  148.5588  134.6889  155.9189 O   0  0  0  0  0  0  0  0  0  0  0  0
  151.9260  139.9523  159.0049 S   0  0  0  0  0  0  0  0  0  0  0  0
  154.5564  140.3983  161.1134 H   0  0  0  0  0  0  0  0  0  0  0  0
  153.6424  141.7671  160.4560 H   0  0  0  0  0  0  0  0  0  0  0  0
  155.2316  141.3631  159.7873 H   0  0  0  0  0  0  0  0  0  0  0  0
  149.6317  136.9684  155.7883 H   0  0  0  0  0  0  0  0  0  0  0  0
  150.2580  135.7266  153.7303 H   0  0  0  0  0  0  0  0  0  0  0  0
  151.6294  135.0954  154.6143 H   0  0  0  0  0  0  0  0  0  0  0  0
  150.3402  133.7066  155.9834 H   0  0  0  0  0  0  0  0  0  0  0  0
  150.2507  132.9702  153.5274 H   0  0  0  0  0  0  0  0  0  0  0  0
  149.0079  132.2954  154.5674 H   0  0  0  0  0  0  0  0  0  0  0  0
  148.5035  133.1095  151.2754 H   0  0  0  0  0  0  0  0  0  0  0  0
  147.7714  131.9674  152.4076 H   0  0  0  0  0  0  0  0  0  0  0  0
  146.3793  134.0758  150.8746 H   0  0  0  0  0  0  0  0  0  0  0  0
  145.6960  132.7669  151.8313 H   0  0  0  0  0  0  0  0  0  0  0  0
  146.3025  135.5895  152.6431 H   0  0  0  0  0  0  0  0  0  0  0  0
  145.0982  134.5052  153.3412 H   0  0  0  0  0  0  0  0  0  0  0  0
  146.7787  133.2994  154.5752 H   0  0  0  0  0  0  0  0  0  0  0  0
  147.8878  136.1647  154.6056 H   0  0  0  0  0  0  0  0  0  0  0  0
  146.6840  135.5159  155.7016 H   0  0  0  0  0  0  0  0  0  0  0  0
  148.6986  134.6697  152.8879 H   0  0  0  0  0  0  0  0  0  0  0  0
  1  2  1  0  0  0  0
  1 21  1  0  0  0  0
  1 22  1  0  0  0  0
  1 23  1  0  0  0  0
  2 20  1  0  0  0  0
  2  3  2  0  0  0  0
  3  4  1  0  0  0  0
  4  5  2  0  0  0  0
  5  6  1  0  0  0  0
  5 20  1  0  0  0  0
  6  7  1  0  0  0  0
  7  8  2  0  0  0  0
  7  9  1  0  0  0  0
  9 10  1  0  0  0  0
  9 24  1  0  0  0  0
 10 11  1  0  0  0  0
 10 25  1  0  0  0  0
 10 26  1  0  0  0  0
 11 19  1  0  0  0  0
 11 12  1  0  0  0  0
 11 27  1  0  0  0  0
 12 13  1  0  0  0  0
 12 28  1  0  0  0  0
 12 29  1  0  0  0  0
 13 17  1  0  0  0  0
 13 14  1  0  0  0  0
 13 39  1  0  0  0  0
 14 15  1  0  0  0  0
 14 30  1  0  0  0  0
 14 31  1  0  0  0  0
 15 16  1  0  0  0  0
 15 32  1  0  0  0  0
 15 33  1  0  0  0  0
 16 17  1  0  0  0  0
 16 34  1  0  0  0  0
 16 35  1  0  0  0  0
 17 18  1  0  0  0  0
 17 36  1  0  0  0  0
 18 19  1  0  0  0  0
 18 37  1  0  0  0  0
 18 38  1  0  0  0  0
M  CHG  1   6  -1
M  CHG  1  13   1
M  END
> <s_m_source_file>
AV-unprocessed.smi

> <i_m_source_file_index>
1809

> <i_lp_mmshare_version>
43012

> <i_f3d_flags>
0

> <s_epik_input>
W0NIM11jMW5uYyhzMSlbTkhdQyg9TylbTkhdW0NIMl1bQ0BIXShbQ0gyXTIpT1tDSDJdW0NAQEhdKE4yMylbQ0gyXVtDSDJdW0NIMl0z

> <s_epik_cmdline>
J2VwaWtfcHl0aG9uJywgJy1waCcsICc3LjAnLCAnLXRuJywgJzgnLCAnLW1hJywgJzIwMCcsICctbWV0YWxfYmluZGluZycsICctaW1hZScsICc8aW5maWxlLm1hZT4nLCAnLW9tYWUnLCAnPG91dGZpbGUubWFlPic=

> <r_lp_tautomer_probability>
1

> <r_epik_Ionization_Penalty>
3.2601

> <r_epik_Ionization_Penalty_Charging>
3.1406

> <r_epik_Ionization_Penalty_Neutral>
0.119497

> <r_epik_State_Penalty>
3.08894

> <r_epik_Charging_Adjusted_Penalty>
6.22954

> <i_epik_Tot_Q>
0

> <i_epik_Tot_abs_Q>
2

> <r_epik_Metal_State_Penalty>
0.510807

> <b_epik_Metal_Only>
1

> <s_lp_Force_Field>
OPLS_2005

> <r_lp_Energy>
31.1042

> <b_lp_Chiralities_Consistent>
1

> <s_lp_Variant>
AV-unprocessed.smi:1809-19

> <Gold.Version>
5.8.1

> <Gold.Id.Protein>
6NUR|6NUR_protein|mol2

> <Gold.PLP.Fitness>
37.6411

> <Gold.PLP.PLP>
-26.0856

> <Gold.PLP.part.hbond>
-4.0000

> <Gold.PLP.part.metal>
0.0000

> <Gold.PLP.part.buried>
-2.6862

> <Gold.PLP.part.nonpolar>
-19.8073

> <Gold.PLP.part.repulsive>
0.0896

> <Gold.PLP.ligand.clash>
0.0000

> <Gold.PLP.ligand.torsion>
0.2473

> <Gold.PLP.Chemscore.Hbond>
4.0000

> <Gold.PLP.Chemscore.CHOScore>
0.0000

> <Gold.PLP.Chemscore.Metal>
0.0000

> <Gold.Chemscore.Hbonds>
donor molecule, donor type, donor heavy atom, donor atom, acceptor molecule, acceptor atom, score
      L1  H    13    39       P1  7948  1.70
      P1  H  7997  8010       L1     3  1.00
      P1  H 10752 10763       L1     8  0.98

> <Gold.PLP.Chemscore.Internal.Correction>
0.0501

> <Gold.Rescore>
     Score         DG    S(hbond)    S(metal)    S(lipo)     H(rot)  DE(clash)    DE(int)     intcor
     14.09     -16.04       2.30        0.00      53.46       1.32       0.00       1.95       ----

> <Gold.Chemscore.Fitness>
14.0915

> <Gold.Chemscore.DG>
-16.0407

> <Gold.Chemscore.ZeroCoef>
-5.4800

> <Gold.Chemscore.Hbond>
2.3045

> <Gold.Chemscore.Metal>
0.0000

> <Gold.Chemscore.Lipo>
53.4585

> <Gold.Chemscore.Internal_Hbond>
0.0000

> <Gold.Chemscore.DEClash>
0.0030

> <Gold.Chemscore.DEInternal>
1.9463

> <Gold.Chemscore.Rot>
1.3246

> <Gold.Chemscore.Internal.Correction>
   9.000000E+99

> <Gold.Chemscore.Hbonds>
donor molecule, donor type, donor heavy atom, donor atom, acceptor molecule, acceptor atom, score
      L1  H    13    39       P1  7948  0.15
      P1  H  7997  8010       L1     3  0.20
      P1  H 10752 10763       L1     8  0.90

> <Gold.Chemscore.Hbond.Weighted>
-7.6971

> <Gold.Chemscore.Metal.Weighted>
-0.0000

> <Gold.Chemscore.Lipo.Weighted>
-6.2546

> <Gold.Chemscore.Internal_Hbond.Weighted>
0.0000

> <Gold.Chemscore.DEClash.Weighted>
0.0030

> <Gold.Chemscore.DEInternal.Weighted>
1.9463

> <Gold.Chemscore.Rot.Weighted>
3.3910

> <Gold.Chemscore.Internal.Correction.Weighted>
   9.000000E+99

> <Gold.Protein.RotatedTorsions>
[ 6907 6896 6895 6894 ] final   36.51 input  -60.11 | X-H torsion
[ 7974 7965 7964 7962 ] final   69.31 input  175.53 | X-H torsion
[ 8008 7997 7996 7995 ] final   -6.77 input   59.86 | X-H torsion
[ 10167 10162 10161 10158 ] final   14.05 input  -65.29 | X-H torsion
[ 10718 10713 10712 10709 ] final  -34.80 input   66.30 | X-H torsion
[ 10763 10752 10751 10750 ] final  102.03 input  -60.55 | X-H torsion
[ 11005 11000 10999 10996 ] final  146.73 input  -57.11 | X-H torsion

> <Gold.Protein.ActiveResidues>
 VAL166  LYS551  ARG553  GLY616  TRP617  ASP618  TYR619  PRO620  LYS621  CYS622 
 ASP623  PHE694  ASN695  SER759  ASP760  ASP761  ALA762  ILE779  LEU786  VAL792 
 PHE793  MET794  SER795  GLU796  ALA797  LYS798  CYS799  TRP800  GLU811  SER814 

> <Gold.Protein.RotatedAtoms>
  152.1306  134.9137  160.0558 H   0  0  0  0  0  0  0  0  0  0  0  0  # atno 6907 bound_to 6896
  152.0243  133.3906  159.4279 H   0  0  0  0  0  0  0  0  0  0  0  0  # atno 6908 bound_to 6896
  150.6856  134.3513  159.4954 H   0  0  0  0  0  0  0  0  0  0  0  0  # atno 6909 bound_to 6896
  145.7920  139.2938  143.1205 H   0  0  0  0  0  0  0  0  0  0  0  0  # atno 7974 bound_to 7965
  154.5904  140.2424  155.7928 H   0  0  0  0  0  0  0  0  0  0  0  0  # atno 8008 bound_to 7997
  156.2243  140.2987  155.9983 H   0  0  0  0  0  0  0  0  0  0  0  0  # atno 8009 bound_to 7997
  155.2384  140.0406  157.2962 H   0  0  0  0  0  0  0  0  0  0  0  0  # atno 8010 bound_to 7997
  140.5961  143.8698  150.6920 H   0  0  0  0  0  0  0  0  0  0  0  0  # atno 10167 bound_to 10162
  156.3462  130.4301  149.7743 H   0  0  0  0  0  0  0  0  0  0  0  0  # atno 10718 bound_to 10713
  153.3344  135.4024  155.1521 H   0  0  0  0  0  0  0  0  0  0  0  0  # atno 10763 bound_to 10752
  154.8630  135.3618  154.5428 H   0  0  0  0  0  0  0  0  0  0  0  0  # atno 10764 bound_to 10752
  153.5869  135.7075  153.5499 H   0  0  0  0  0  0  0  0  0  0  0  0  # atno 10765 bound_to 10752
  140.0817  134.9093  157.1511 H   0  0  0  0  0  0  0  0  0  0  0  0  # atno 11005 bound_to 11000
  145.9967  140.8556  143.0039 LP  0  0  0  0  0  0  0  0  0  0  0  0  # atno 17320 bound_to 7965
  144.6780  140.2293  143.7357 LP  0  0  0  0  0  0  0  0  0  0  0  0  # atno 17321 bound_to 7965
  140.2233  143.3792  152.1625 LP  0  0  0  0  0  0  0  0  0  0  0  0  # atno 17342 bound_to 10162
  139.5259  144.7102  151.5231 LP  0  0  0  0  0  0  0  0  0  0  0  0  # atno 17343 bound_to 10162
  156.4961  130.8107  151.3114 LP  0  0  0  0  0  0  0  0  0  0  0  0  # atno 17370 bound_to 10713
  157.7454  130.9960  150.2763 LP  0  0  0  0  0  0  0  0  0  0  0  0  # atno 17371 bound_to 10713
  140.3478  134.2632  155.7202 LP  0  0  0  0  0  0  0  0  0  0  0  0  # atno 17394 bound_to 11000
  141.2049  133.7875  157.0263 LP  0  0  0  0  0  0  0  0  0  0  0  0  # atno 17395 bound_to 11000

$$$$
