AV-unprocessed.smi:3194|AV-procd|sdf|12210|dock2
  -GOLD-   2272018 43D 1   1.00000     0.00000
 Structure written by MMmdl.
 28 28  0  0  0  0  0  0  0  0  1 V2000
  150.6947  138.5323  154.0621 C   0  0  0  0  0  0  0  0  0  0  0  0
  149.8575  139.2843  155.1115 C   0  0  2  0  0  0  0  0  0  0  0  0
  149.7484  140.7979  154.8485 C   0  0  0  0  0  0  0  0  0  0  0  0
  149.1946  141.0686  153.5766 O   0  0  0  0  0  0  0  0  0  0  0  0
  150.3608  139.0508  156.4622 N   0  0  0  0  0  0  0  0  0  0  0  0
  151.6128  139.2891  156.8881 C   0  0  0  0  0  0  0  0  0  0  0  0
  152.4937  139.7496  156.1607 O   0  0  0  0  0  0  0  0  0  0  0  0
  151.9213  138.9472  158.3537 C   0  0  0  0  0  0  0  0  0  0  0  0
  150.8060  138.4975  158.9337 F   0  0  0  0  0  0  0  0  0  0  0  0
  152.8265  137.9660  158.3969 F   0  0  0  0  0  0  0  0  0  0  0  0
  152.4427  140.1804  159.0869 C   0  0  0  0  0  0  0  0  0  0  0  0
  151.6594  141.3528  159.1875 C   0  0  0  0  0  0  0  0  0  0  0  0
  152.1936  142.4668  159.8631 C   0  0  0  0  0  0  0  0  0  0  0  0
  153.4869  142.3724  160.4107 C   0  0  0  0  0  0  0  0  0  0  0  0
  154.1923  141.1631  160.2561 C   0  0  0  0  0  0  0  0  0  0  0  0
  153.6897  140.0898  159.6096 N   0  0  0  0  0  0  0  0  0  0  0  0
  148.8400  138.8921  155.0633 H   0  0  0  0  0  0  0  0  0  0  0  0
  150.3180  138.7187  153.0561 H   0  0  0  0  0  0  0  0  0  0  0  0
  150.6611  137.4555  154.2302 H   0  0  0  0  0  0  0  0  0  0  0  0
  151.7416  138.8364  154.0880 H   0  0  0  0  0  0  0  0  0  0  0  0
  149.1065  141.2585  155.6000 H   0  0  0  0  0  0  0  0  0  0  0  0
  150.7243  141.2786  154.9295 H   0  0  0  0  0  0  0  0  0  0  0  0
  149.2871  140.2976  153.0379 H   0  0  0  0  0  0  0  0  0  0  0  0
  149.7037  138.6680  157.1272 H   0  0  0  0  0  0  0  0  0  0  0  0
  150.6719  141.4037  158.7532 H   0  0  0  0  0  0  0  0  0  0  0  0
  151.6220  143.3781  159.9578 H   0  0  0  0  0  0  0  0  0  0  0  0
  153.9283  143.2068  160.9353 H   0  0  0  0  0  0  0  0  0  0  0  0
  155.1875  141.0552  160.6615 H   0  0  0  0  0  0  0  0  0  0  0  0
  1  2  1  0  0  0  0
  1 18  1  0  0  0  0
  1 19  1  0  0  0  0
  1 20  1  0  0  0  0
  2 17  1  0  0  0  0
  2  3  1  0  0  0  0
  2  5  1  0  0  0  0
  3  4  1  0  0  0  0
  3 21  1  0  0  0  0
  3 22  1  0  0  0  0
  4 23  1  0  0  0  0
  5  6  1  0  0  0  0
  5 24  1  0  0  0  0
  6  7  2  0  0  0  0
  6  8  1  0  0  0  0
  8  9  1  0  0  0  0
  8 10  1  0  0  0  0
  8 11  1  0  0  0  0
 11 16  1  0  0  0  0
 11 12  2  0  0  0  0
 12 13  1  0  0  0  0
 12 25  1  0  0  0  0
 13 14  2  0  0  0  0
 13 26  1  0  0  0  0
 14 15  1  0  0  0  0
 14 27  1  0  0  0  0
 15 16  2  0  0  0  0
 15 28  1  0  0  0  0
M  END
> <s_m_source_file>
AV-unprocessed.smi

> <i_m_source_file_index>
3194

> <i_lp_mmshare_version>
43012

> <i_f3d_flags>
0

> <s_epik_input>
W09IXVtDSDJdW0NASF0oW0NIM10pW05IXUMoPU8pQyhGKShGKWMxW2NIXVtjSF1bY0hdW2NIXW4x

> <s_epik_cmdline>
J2VwaWtfcHl0aG9uJywgJy1waCcsICc3LjAnLCAnLXRuJywgJzgnLCAnLW1hJywgJzIwMCcsICctbWV0YWxfYmluZGluZycsICctaW1hZScsICc8aW5maWxlLm1hZT4nLCAnLW9tYWUnLCAnPG91dGZpbGUubWFlPic=

> <r_lp_tautomer_probability>
1

> <r_epik_Ionization_Penalty>
3.67967e-05

> <r_epik_Ionization_Penalty_Charging>
0

> <r_epik_Ionization_Penalty_Neutral>
3.67967e-05

> <r_epik_State_Penalty>
-0

> <r_epik_Charging_Adjusted_Penalty>
0

> <i_epik_Tot_Q>
0

> <i_epik_Tot_abs_Q>
0

> <r_epik_Metal_State_Penalty>
0.0311521

> <b_epik_Metal_Only>
0

> <s_lp_Force_Field>
OPLS_2005

> <r_lp_Energy>
12.3204

> <b_lp_Chiralities_Consistent>
1

> <s_lp_Variant>
AV-unprocessed.smi:3194-2

> <Gold.Version>
5.8.1

> <Gold.Id.Protein>
6NUR|6NUR_protein|mol2

> <Gold.PLP.Fitness>
39.2993

> <Gold.PLP.PLP>
-31.3719

> <Gold.PLP.part.hbond>
-4.0000

> <Gold.PLP.part.metal>
0.0000

> <Gold.PLP.part.buried>
-3.9742

> <Gold.PLP.part.nonpolar>
-23.1808

> <Gold.PLP.part.repulsive>
0.0155

> <Gold.PLP.ligand.clash>
0.0000

> <Gold.PLP.ligand.torsion>
0.0935

> <Gold.PLP.Chemscore.Hbond>
2.6880

> <Gold.PLP.Chemscore.CHOScore>
0.0000

> <Gold.PLP.Chemscore.Metal>
0.0000

> <Gold.Chemscore.Hbonds>
donor molecule, donor type, donor heavy atom, donor atom, acceptor molecule, acceptor atom, score
      L1  H     4    23       P1  7957  0.66
      P1  H  7997  8010       L1     7  1.00
      P1  H  8011  8017       L1     4  1.00

> <Gold.PLP.Chemscore.Internal.Correction>
0.0505

> <Gold.Rescore>
     Score         DG    S(hbond)    S(metal)    S(lipo)     H(rot)  DE(clash)    DE(int)     intcor
     14.01     -15.47       2.36        0.00      72.73       2.50       1.41       0.06       ----

> <Gold.Chemscore.Fitness>
14.0105

> <Gold.Chemscore.DG>
-15.4736

> <Gold.Chemscore.ZeroCoef>
-5.4800

> <Gold.Chemscore.Hbond>
2.3583

> <Gold.Chemscore.Metal>
0.0000

> <Gold.Chemscore.Lipo>
72.7267

> <Gold.Chemscore.Internal_Hbond>
0.0000

> <Gold.Chemscore.DEClash>
1.4072

> <Gold.Chemscore.DEInternal>
0.0559

> <Gold.Chemscore.Rot>
2.4970

> <Gold.Chemscore.Internal.Correction>
   9.000000E+99

> <Gold.Chemscore.Hbonds>
donor molecule, donor type, donor heavy atom, donor atom, acceptor molecule, acceptor atom, score
      L1  H     4    23       P1  7957  0.66
      P1  H  7997  8010       L1     7  0.99
      P1  H  8011  8017       L1     4  0.24

> <Gold.Chemscore.Hbond.Weighted>
-7.8768

> <Gold.Chemscore.Metal.Weighted>
-0.0000

> <Gold.Chemscore.Lipo.Weighted>
-8.5090

> <Gold.Chemscore.Internal_Hbond.Weighted>
0.0000

> <Gold.Chemscore.DEClash.Weighted>
1.4072

> <Gold.Chemscore.DEInternal.Weighted>
0.0559

> <Gold.Chemscore.Rot.Weighted>
6.3922

> <Gold.Chemscore.Internal.Correction.Weighted>
   9.000000E+99

> <Gold.Protein.RotatedTorsions>
[ 6907 6896 6895 6894 ] final  -98.32 input  -60.11 | X-H torsion
[ 7974 7965 7964 7962 ] final   27.09 input  175.53 | X-H torsion
[ 8008 7997 7996 7995 ] final   89.99 input   59.86 | X-H torsion
[ 10167 10162 10161 10158 ] final   10.36 input  -65.29 | X-H torsion
[ 10718 10713 10712 10709 ] final  -90.86 input   66.30 | X-H torsion
[ 10763 10752 10751 10750 ] final  166.17 input  -60.55 | X-H torsion
[ 11005 11000 10999 10996 ] final  168.76 input  -57.11 | X-H torsion

> <Gold.Protein.ActiveResidues>
 VAL166  LYS551  ARG553  GLY616  TRP617  ASP618  TYR619  PRO620  LYS621  CYS622 
 ASP623  PHE694  ASN695  SER759  ASP760  ASP761  ALA762  ILE779  LEU786  VAL792 
 PHE793  MET794  SER795  GLU796  ALA797  LYS798  CYS799  TRP800  GLU811  SER814 

> <Gold.Protein.RotatedAtoms>
  150.7043  134.1212  159.4035 H   0  0  0  0  0  0  0  0  0  0  0  0  # atno 6907 bound_to 6896
  151.9199  135.0300  160.0530 H   0  0  0  0  0  0  0  0  0  0  0  0  # atno 6908 bound_to 6896
  152.2265  133.4989  159.5228 H   0  0  0  0  0  0  0  0  0  0  0  0  # atno 6909 bound_to 6896
  146.1803  139.7239  142.8905 H   0  0  0  0  0  0  0  0  0  0  0  0  # atno 7974 bound_to 7965
  156.0066  140.3354  155.6899 H   0  0  0  0  0  0  0  0  0  0  0  0  # atno 8008 bound_to 7997
  155.6216  140.0675  157.2694 H   0  0  0  0  0  0  0  0  0  0  0  0  # atno 8009 bound_to 7997
  154.4267  140.1775  156.1365 H   0  0  0  0  0  0  0  0  0  0  0  0  # atno 8010 bound_to 7997
  140.6199  143.8228  150.7162 H   0  0  0  0  0  0  0  0  0  0  0  0  # atno 10167 bound_to 10162
  155.9990  130.4926  150.5387 H   0  0  0  0  0  0  0  0  0  0  0  0  # atno 10718 bound_to 10713
  154.3350  135.2754  155.2452 H   0  0  0  0  0  0  0  0  0  0  0  0  # atno 10763 bound_to 10752
  154.4748  135.5874  153.6350 H   0  0  0  0  0  0  0  0  0  0  0  0  # atno 10764 bound_to 10752
  152.9863  135.6097  154.3546 H   0  0  0  0  0  0  0  0  0  0  0  0  # atno 10765 bound_to 10752
  140.2907  134.7676  157.3836 H   0  0  0  0  0  0  0  0  0  0  0  0  # atno 11005 bound_to 11000
  145.4095  141.0395  143.3025 LP  0  0  0  0  0  0  0  0  0  0  0  0  # atno 17320 bound_to 7965
  144.8304  139.5639  143.6946 LP  0  0  0  0  0  0  0  0  0  0  0  0  # atno 17321 bound_to 7965
  140.1815  143.4110  152.1929 LP  0  0  0  0  0  0  0  0  0  0  0  0  # atno 17342 bound_to 10162
  139.5429  144.7273  151.4674 LP  0  0  0  0  0  0  0  0  0  0  0  0  # atno 17343 bound_to 10162
  157.3327  131.0702  151.1849 LP  0  0  0  0  0  0  0  0  0  0  0  0  # atno 17370 bound_to 10713
  157.2724  130.6710  149.6026 LP  0  0  0  0  0  0  0  0  0  0  0  0  # atno 17371 bound_to 10713
  140.1198  134.5234  155.8193 LP  0  0  0  0  0  0  0  0  0  0  0  0  # atno 17394 bound_to 11000
  141.2147  133.6752  156.6845 LP  0  0  0  0  0  0  0  0  0  0  0  0  # atno 17395 bound_to 11000

$$$$
