AV-unprocessed.smi:705|AV-procd|sdf|3447|dock6
  -GOLD-   22720 0433D 1   1.00000     0.00000
 Structure written by MMmdl.
 29 30  0  0  0  0  0  0  0  0  2 V2000
  150.1659  137.7356  154.0159 N   0  0  0  0  0  0  0  0  0  0  0  0
  151.0749  137.3751  154.9264 C   0  0  0  0  0  0  0  0  0  0  0  0
  151.5039  136.2256  155.0033 O   0  0  0  0  0  0  0  0  0  0  0  0
  151.5193  138.4182  155.8741 C   0  0  0  0  0  0  0  0  0  0  0  0
  150.7961  139.5006  156.2876 C   0  0  0  0  0  0  0  0  0  0  0  0
  151.7032  140.1720  157.1629 C   0  0  0  0  0  0  0  0  0  0  0  0
  151.4543  141.4394  157.9403 C   0  0  1  0  0  0  0  0  0  0  0  0
  152.7363  141.9625  158.6171 C   0  0  0  0  0  0  0  0  0  0  0  0
  152.4434  143.2548  159.3946 C   0  0  0  0  0  0  0  0  0  0  0  0
  151.7823  144.3044  158.4855 C   0  0  0  0  0  0  0  0  0  0  0  0
  150.5556  143.7609  157.8623 N   0  3  0  0  0  0  0  0  0  0  0  0
  150.8021  142.5352  157.0710 C   0  0  0  0  0  0  0  0  0  0  0  0
  152.8793  139.5530  157.2573 N   0  0  0  0  0  0  0  0  0  0  0  0
  152.7614  138.4781  156.4532 N   0  0  0  0  0  0  0  0  0  0  0  0
  153.5113  137.8141  156.3202 H   0  0  0  0  0  0  0  0  0  0  0  0
  149.8275  137.0569  153.3493 H   0  0  0  0  0  0  0  0  0  0  0  0
  149.8171  138.6826  153.9999 H   0  0  0  0  0  0  0  0  0  0  0  0
  149.7863  139.7741  156.0186 H   0  0  0  0  0  0  0  0  0  0  0  0
  150.7473  141.2028  158.7372 H   0  0  0  0  0  0  0  0  0  0  0  0
  153.1440  141.2073  159.2902 H   0  0  0  0  0  0  0  0  0  0  0  0
  153.5038  142.1581  157.8667 H   0  0  0  0  0  0  0  0  0  0  0  0
  151.7893  143.0348  160.2396 H   0  0  0  0  0  0  0  0  0  0  0  0
  153.3670  143.6538  159.8148 H   0  0  0  0  0  0  0  0  0  0  0  0
  151.5255  145.1945  159.0603 H   0  0  0  0  0  0  0  0  0  0  0  0
  152.4740  144.6181  157.7024 H   0  0  0  0  0  0  0  0  0  0  0  0
  149.8940  143.5431  158.5935 H   0  0  0  0  0  0  0  0  0  0  0  0
  151.4400  142.7872  156.2226 H   0  0  0  0  0  0  0  0  0  0  0  0
  149.8539  142.1833  156.6631 H   0  0  0  0  0  0  0  0  0  0  0  0
  150.1548  144.4648  157.2589 H   0  0  0  0  0  0  0  0  0  0  0  0
  1  2  1  0  0  0  0
  1 16  1  0  0  0  0
  1 17  1  0  0  0  0
  2  3  2  0  0  0  0
  2  4  1  0  0  0  0
  4 14  1  0  0  0  0
  4  5  2  0  0  0  0
  5  6  1  0  0  0  0
  5 18  1  0  0  0  0
  6  7  1  0  0  0  0
  6 13  2  0  0  0  0
  7 12  1  0  0  0  0
  7  8  1  0  0  0  0
  7 19  1  0  0  0  0
  8  9  1  0  0  0  0
  8 20  1  0  0  0  0
  8 21  1  0  0  0  0
  9 10  1  0  0  0  0
  9 22  1  0  0  0  0
  9 23  1  0  0  0  0
 10 11  1  0  0  0  0
 10 24  1  0  0  0  0
 10 25  1  0  0  0  0
 11 12  1  0  0  0  0
 11 26  1  0  0  0  0
 11 29  1  0  0  0  0
 12 27  1  0  0  0  0
 12 28  1  0  0  0  0
 13 14  1  0  0  0  0
 14 15  1  0  0  0  0
M  CHG  1  11   1
M  END
> <s_m_source_file>
AV-unprocessed.smi

> <i_m_source_file_index>
705

> <i_lp_mmshare_version>
43012

> <i_f3d_flags>
0

> <s_epik_input>
W05IMl1DKD1PKWMxW2NIXWMoW25IXW4xKVtDQEBIXTJbQ0gyXVtDSDJdW0NIMl1bTkhdW0NIMl0y

> <s_epik_cmdline>
J2VwaWtfcHl0aG9uJywgJy1waCcsICc3LjAnLCAnLXRuJywgJzgnLCAnLW1hJywgJzIwMCcsICctbWV0YWxfYmluZGluZycsICctaW1hZScsICc8aW5maWxlLm1hZT4nLCAnLW9tYWUnLCAnPG91dGZpbGUubWFlPic=

> <r_lp_tautomer_probability>
0.5

> <r_epik_Ionization_Penalty>
0.000242638

> <r_epik_Ionization_Penalty_Charging>
0.000157527

> <r_epik_Ionization_Penalty_Neutral>
8.51112e-05

> <r_epik_State_Penalty>
0.41068

> <r_epik_Charging_Adjusted_Penalty>
0.410837

> <i_epik_Tot_Q>
1

> <i_epik_Tot_abs_Q>
1

> <r_epik_Metal_State_Penalty>
0.446108

> <b_epik_Metal_Only>
0

> <s_lp_Force_Field>
OPLS_2005

> <r_lp_Energy>
10.1374

> <b_lp_Chiralities_Consistent>
1

> <s_lp_Variant>
AV-unprocessed.smi:705-2

> <Gold.Version>
5.8.1

> <Gold.Id.Protein>
6NUR|6NUR_protein|mol2

> <Gold.PLP.Fitness>
39.3181

> <Gold.PLP.PLP>
-26.2926

> <Gold.PLP.part.hbond>
-4.6577

> <Gold.PLP.part.metal>
0.0000

> <Gold.PLP.part.buried>
-4.1139

> <Gold.PLP.part.nonpolar>
-18.7376

> <Gold.PLP.part.repulsive>
0.3968

> <Gold.PLP.ligand.clash>
0.0000

> <Gold.PLP.ligand.torsion>
0.5956

> <Gold.PLP.Chemscore.Hbond>
4.7280

> <Gold.PLP.Chemscore.CHOScore>
0.0000

> <Gold.PLP.Chemscore.Metal>
0.0000

> <Gold.Chemscore.Hbonds>
donor molecule, donor type, donor heavy atom, donor atom, acceptor molecule, acceptor atom, score
      L1  H     1    16       P1  7948  1.00
      L1  H    11    29       P1  8028  1.76
      P1  H  7997  8008       L1    13  1.00
      P1  H 10752 10764       L1     3  1.00

> <Gold.PLP.Chemscore.Internal.Correction>
0.0328

> <Gold.Rescore>
     Score         DG    S(hbond)    S(metal)    S(lipo)     H(rot)  DE(clash)    DE(int)     intcor
     20.91     -21.39       3.20        0.00      66.44       1.00       0.26       0.22       ----

> <Gold.Chemscore.Fitness>
20.9074

> <Gold.Chemscore.DG>
-21.3949

> <Gold.Chemscore.ZeroCoef>
-5.4800

> <Gold.Chemscore.Hbond>
3.2040

> <Gold.Chemscore.Metal>
0.0000

> <Gold.Chemscore.Lipo>
66.4398

> <Gold.Chemscore.Internal_Hbond>
0.0000

> <Gold.Chemscore.DEClash>
0.2647

> <Gold.Chemscore.DEInternal>
0.2228

> <Gold.Chemscore.Rot>
1.0000

> <Gold.Chemscore.Internal.Correction>
   9.000000E+99

> <Gold.Chemscore.Hbonds>
donor molecule, donor type, donor heavy atom, donor atom, acceptor molecule, acceptor atom, score
      L1  H     1    16       P1  7948  0.45
      L1  H    11    29       P1  8028  0.40
      P1  H  7997  8008       L1    13  0.30
      P1  H 10752 10764       L1     3  0.99

> <Gold.Chemscore.Hbond.Weighted>
-10.7014

> <Gold.Chemscore.Metal.Weighted>
-0.0000

> <Gold.Chemscore.Lipo.Weighted>
-7.7735

> <Gold.Chemscore.Internal_Hbond.Weighted>
0.0000

> <Gold.Chemscore.DEClash.Weighted>
0.2647

> <Gold.Chemscore.DEInternal.Weighted>
0.2228

> <Gold.Chemscore.Rot.Weighted>
2.5600

> <Gold.Chemscore.Internal.Correction.Weighted>
   9.000000E+99

> <Gold.Protein.RotatedTorsions>
[ 6907 6896 6895 6894 ] final   51.87 input  -60.11 | X-H torsion
[ 7974 7965 7964 7962 ] final  160.77 input  175.53 | X-H torsion
[ 8008 7997 7996 7995 ] final  -78.44 input   59.86 | X-H torsion
[ 10167 10162 10161 10158 ] final   38.85 input  -65.29 | X-H torsion
[ 10718 10713 10712 10709 ] final -122.17 input   66.30 | X-H torsion
[ 10763 10752 10751 10750 ] final  -45.21 input  -60.55 | X-H torsion
[ 11005 11000 10999 10996 ] final  -84.51 input  -57.11 | X-H torsion

> <Gold.Protein.ActiveResidues>
 VAL166  LYS551  ARG553  GLY616  TRP617  ASP618  TYR619  PRO620  LYS621  CYS622 
 ASP623  PHE694  ASN695  SER759  ASP760  ASP761  ALA762  ILE779  LEU786  VAL792 
 PHE793  MET794  SER795  GLU796  ALA797  LYS798  CYS799  TRP800  GLU811  SER814 

> <Gold.Protein.RotatedAtoms>
  152.3172  134.7425  160.0322 H   0  0  0  0  0  0  0  0  0  0  0  0  # atno 6907 bound_to 6896
  151.7885  133.3351  159.3500 H   0  0  0  0  0  0  0  0  0  0  0  0  # atno 6908 bound_to 6896
  150.7351  134.5795  159.5976 H   0  0  0  0  0  0  0  0  0  0  0  0  # atno 6909 bound_to 6896
  144.7720  139.7803  143.6293 H   0  0  0  0  0  0  0  0  0  0  0  0  # atno 7974 bound_to 7965
  154.5690  140.0694  156.8935 H   0  0  0  0  0  0  0  0  0  0  0  0  # atno 8008 bound_to 7997
  155.2669  140.3362  155.4250 H   0  0  0  0  0  0  0  0  0  0  0  0  # atno 8009 bound_to 7997
  156.2103  140.1756  156.7694 H   0  0  0  0  0  0  0  0  0  0  0  0  # atno 8010 bound_to 7997
  140.3897  144.1869  150.6131 H   0  0  0  0  0  0  0  0  0  0  0  0  # atno 10167 bound_to 10162
  156.1396  130.6456  150.9751 H   0  0  0  0  0  0  0  0  0  0  0  0  # atno 10718 bound_to 10713
  154.0248  135.6664  153.4775 H   0  0  0  0  0  0  0  0  0  0  0  0  # atno 10763 bound_to 10752
  153.0565  135.5053  154.7989 H   0  0  0  0  0  0  0  0  0  0  0  0  # atno 10764 bound_to 10752
  154.6915  135.3062  154.9438 H   0  0  0  0  0  0  0  0  0  0  0  0  # atno 10765 bound_to 10752
  141.1650  133.7350  156.8878 H   0  0  0  0  0  0  0  0  0  0  0  0  # atno 11005 bound_to 11000
  146.1873  139.5095  142.9828 LP  0  0  0  0  0  0  0  0  0  0  0  0  # atno 17320 bound_to 7965
  145.6296  141.0306  143.1870 LP  0  0  0  0  0  0  0  0  0  0  0  0  # atno 17321 bound_to 7965
  140.4852  143.2365  151.8897 LP  0  0  0  0  0  0  0  0  0  0  0  0  # atno 17342 bound_to 10162
  139.4790  144.5226  151.8780 LP  0  0  0  0  0  0  0  0  0  0  0  0  # atno 17343 bound_to 10162
  157.6564  131.0888  150.7938 LP  0  0  0  0  0  0  0  0  0  0  0  0  # atno 17370 bound_to 10713
  156.8014  130.4922  149.5369 LP  0  0  0  0  0  0  0  0  0  0  0  0  # atno 17371 bound_to 10713
  140.1669  134.9127  157.2785 LP  0  0  0  0  0  0  0  0  0  0  0  0  # atno 17394 bound_to 11000
  140.2546  134.3642  155.7429 LP  0  0  0  0  0  0  0  0  0  0  0  0  # atno 17395 bound_to 11000

$$$$
