AV-unprocessed.smi:3045|AV-procd|sdf|11609|dock8
  -GOLD-   2272016593D 1   1.00000     0.00000
 Structure written by MMmdl.
 35 36  0  0  0  0  0  0  0  0  1 V2000
  149.4786  136.1343  157.0479 C   0  0  0  0  0  0  0  0  0  0  0  0
  149.9422  136.9950  155.9682 N   0  0  0  0  0  0  0  0  0  0  0  0
  149.0450  137.9374  155.3225 C   0  0  0  0  0  0  0  0  0  0  0  0
  149.9301  138.7605  154.3607 C   0  0  1  0  0  0  0  0  0  0  0  0
  150.0893  140.2186  154.8190 C   0  0  0  0  0  0  0  0  0  0  0  0
  149.7088  141.1413  154.0973 O   0  0  0  0  0  0  0  0  0  0  0  0
  150.6590  140.4109  156.0185 N   0  0  0  0  0  0  0  0  0  0  0  0
  150.9098  141.7124  156.6252 C   0  0  0  0  0  0  0  0  0  0  0  0
  151.4357  141.5734  158.0630 C   0  0  0  0  0  0  0  0  0  0  0  0
  151.6102  142.9186  158.7387 C   0  0  0  0  0  0  0  0  0  0  0  0
  152.1772  143.0122  160.0264 C   0  0  0  0  0  0  0  0  0  0  0  0
  152.3219  144.2842  160.6127 C   0  0  0  0  0  0  0  0  0  0  0  0
  151.8927  145.4114  159.8836 C   0  0  0  0  0  0  0  0  0  0  0  0
  151.3499  145.3337  158.6494 N   0  0  0  0  0  0  0  0  0  0  0  0
  151.2141  144.1100  158.0947 C   0  0  0  0  0  0  0  0  0  0  0  0
  151.2854  138.0243  154.3304 C   0  0  0  0  0  0  0  0  0  0  0  0
  151.1670  136.9883  155.4356 C   0  0  0  0  0  0  0  0  0  0  0  0
  152.1002  136.2615  155.7730 O   0  0  0  0  0  0  0  0  0  0  0  0
  149.4754  135.0916  156.7289 H   0  0  0  0  0  0  0  0  0  0  0  0
  148.4661  136.3984  157.3543 H   0  0  0  0  0  0  0  0  0  0  0  0
  150.1288  136.2262  157.9185 H   0  0  0  0  0  0  0  0  0  0  0  0
  148.2809  137.3879  154.7712 H   0  0  0  0  0  0  0  0  0  0  0  0
  148.5359  138.5517  156.0675 H   0  0  0  0  0  0  0  0  0  0  0  0
  149.4867  138.7484  153.3634 H   0  0  0  0  0  0  0  0  0  0  0  0
  150.9417  139.5984  156.5472 H   0  0  0  0  0  0  0  0  0  0  0  0
  151.6119  142.2810  156.0128 H   0  0  0  0  0  0  0  0  0  0  0  0
  149.9736  142.2715  156.6243 H   0  0  0  0  0  0  0  0  0  0  0  0
  150.7519  140.9632  158.6546 H   0  0  0  0  0  0  0  0  0  0  0  0
  152.3944  141.0529  158.0686 H   0  0  0  0  0  0  0  0  0  0  0  0
  152.4973  142.1263  160.5552 H   0  0  0  0  0  0  0  0  0  0  0  0
  152.7515  144.3938  161.5974 H   0  0  0  0  0  0  0  0  0  0  0  0
  151.9889  146.4020  160.3027 H   0  0  0  0  0  0  0  0  0  0  0  0
  150.7780  144.0822  157.1067 H   0  0  0  0  0  0  0  0  0  0  0  0
  151.4381  137.5209  153.3754 H   0  0  0  0  0  0  0  0  0  0  0  0
  152.1435  138.6746  154.5086 H   0  0  0  0  0  0  0  0  0  0  0  0
  1  2  1  0  0  0  0
  1 19  1  0  0  0  0
  1 20  1  0  0  0  0
  1 21  1  0  0  0  0
  2 17  1  0  0  0  0
  2  3  1  0  0  0  0
  3  4  1  0  0  0  0
  3 22  1  0  0  0  0
  3 23  1  0  0  0  0
  4  5  1  0  0  0  0
  4 16  1  0  0  0  0
  4 24  1  0  0  0  0
  5  6  2  0  0  0  0
  5  7  1  0  0  0  0
  7  8  1  0  0  0  0
  7 25  1  0  0  0  0
  8  9  1  0  0  0  0
  8 26  1  0  0  0  0
  8 27  1  0  0  0  0
  9 10  1  0  0  0  0
  9 28  1  0  0  0  0
  9 29  1  0  0  0  0
 10 15  1  0  0  0  0
 10 11  2  0  0  0  0
 11 12  1  0  0  0  0
 11 30  1  0  0  0  0
 12 13  2  0  0  0  0
 12 31  1  0  0  0  0
 13 14  1  0  0  0  0
 13 32  1  0  0  0  0
 14 15  2  0  0  0  0
 15 33  1  0  0  0  0
 16 17  1  0  0  0  0
 16 34  1  0  0  0  0
 16 35  1  0  0  0  0
 17 18  2  0  0  0  0
M  END
> <s_m_source_file>
AV-unprocessed.smi

> <i_m_source_file_index>
3045

> <i_lp_mmshare_version>
43012

> <i_f3d_flags>
0

> <s_epik_input>
W0NIM11OMVtDSDJdW0NASF0oW0NIMl1DMT1PKUMoPU8pW05IXVtDSDJdW0NIMl1jMltjSF1bY0hdW2NIXW5bY0hdMg==

> <s_epik_cmdline>
J2VwaWtfcHl0aG9uJywgJy1waCcsICc3LjAnLCAnLXRuJywgJzgnLCAnLW1hJywgJzIwMCcsICctbWV0YWxfYmluZGluZycsICctaW1hZScsICc8aW5maWxlLm1hZT4nLCAnLW9tYWUnLCAnPG91dGZpbGUubWFlPic=

> <r_epik_Ionization_Penalty>
0.0130932

> <r_epik_Ionization_Penalty_Charging>
0

> <r_epik_Ionization_Penalty_Neutral>
0.0130932

> <r_epik_State_Penalty>
0.0101714

> <r_epik_Charging_Adjusted_Penalty>
0.0101714

> <i_epik_Tot_Q>
0

> <i_epik_Tot_abs_Q>
0

> <r_epik_Metal_State_Penalty>
0.00995082

> <b_epik_Metal_Only>
0

> <s_lp_Force_Field>
OPLS_2005

> <r_lp_Energy>
9.14953

> <b_lp_Chiralities_Consistent>
1

> <s_lp_Variant>
AV-unprocessed.smi:3045-1

> <Gold.Version>
5.8.1

> <Gold.Id.Protein>
6NUR|6NUR_protein|mol2

> <Gold.PLP.Fitness>
43.1014

> <Gold.PLP.PLP>
-35.3931

> <Gold.PLP.part.hbond>
-3.5027

> <Gold.PLP.part.metal>
0.0000

> <Gold.PLP.part.buried>
-3.0190

> <Gold.PLP.part.nonpolar>
-29.6050

> <Gold.PLP.part.repulsive>
0.5640

> <Gold.PLP.ligand.clash>
0.0000

> <Gold.PLP.ligand.torsion>
0.0518

> <Gold.PLP.Chemscore.Hbond>
1.6006

> <Gold.PLP.Chemscore.CHOScore>
1.0000

> <Gold.PLP.Chemscore.Metal>
0.0000

> <Gold.Chemscore.Hbonds>
donor molecule, donor type, donor heavy atom, donor atom, acceptor molecule, acceptor atom, score
      P1  H  8011  8017       L1     6  0.50
      P1  H 10752 10763       L1    18  0.96
      L1  C    15    33       P1  8028  1.00

> <Gold.PLP.Chemscore.Internal.Correction>
0.0102

> <Gold.Rescore>
     Score         DG    S(hbond)    S(metal)    S(lipo)     H(rot)  DE(clash)    DE(int)     intcor
     16.70     -17.39       1.70        0.00      88.65       1.62       0.52       0.17       ----

> <Gold.Chemscore.Fitness>
16.6988

> <Gold.Chemscore.DG>
-17.3885

> <Gold.Chemscore.ZeroCoef>
-5.4800

> <Gold.Chemscore.Hbond>
1.7024

> <Gold.Chemscore.Metal>
0.0000

> <Gold.Chemscore.Lipo>
88.6521

> <Gold.Chemscore.Internal_Hbond>
0.0000

> <Gold.Chemscore.DEClash>
0.5189

> <Gold.Chemscore.DEInternal>
0.1708

> <Gold.Chemscore.Rot>
1.6210

> <Gold.Chemscore.Internal.Correction>
   9.000000E+99

> <Gold.Chemscore.Hbonds>
donor molecule, donor type, donor heavy atom, donor atom, acceptor molecule, acceptor atom, score
      P1  H  8011  8017       L1     6  0.50
      P1  H 10752 10763       L1    18  0.89

> <Gold.Chemscore.Hbond.Weighted>
-5.6860

> <Gold.Chemscore.Metal.Weighted>
-0.0000

> <Gold.Chemscore.Lipo.Weighted>
-10.3723

> <Gold.Chemscore.Internal_Hbond.Weighted>
0.0000

> <Gold.Chemscore.DEClash.Weighted>
0.5189

> <Gold.Chemscore.DEInternal.Weighted>
0.1708

> <Gold.Chemscore.Rot.Weighted>
4.1498

> <Gold.Chemscore.Internal.Correction.Weighted>
   9.000000E+99

> <Gold.Protein.RotatedTorsions>
[ 6907 6896 6895 6894 ] final   24.56 input  -60.11 | X-H torsion
[ 7974 7965 7964 7962 ] final   -4.55 input  175.53 | X-H torsion
[ 8008 7997 7996 7995 ] final   43.84 input   59.86 | X-H torsion
[ 10167 10162 10161 10158 ] final   16.45 input  -65.29 | X-H torsion
[ 10718 10713 10712 10709 ] final -177.51 input   66.30 | X-H torsion
[ 10763 10752 10751 10750 ] final  102.07 input  -60.55 | X-H torsion
[ 11005 11000 10999 10996 ] final   44.60 input  -57.11 | X-H torsion

> <Gold.Protein.ActiveResidues>
 VAL166  LYS551  ARG553  GLY616  TRP617  ASP618  TYR619  PRO620  LYS621  CYS622 
 ASP623  PHE694  ASN695  SER759  ASP760  ASP761  ALA762  ILE779  LEU786  VAL792 
 PHE793  MET794  SER795  GLU796  ALA797  LYS798  CYS799  TRP800  GLU811  SER814 

> <Gold.Protein.RotatedAtoms>
  151.9593  135.0131  160.0546 H   0  0  0  0  0  0  0  0  0  0  0  0  # atno 6907 bound_to 6896
  152.1883  133.4750  159.5002 H   0  0  0  0  0  0  0  0  0  0  0  0  # atno 6908 bound_to 6896
  150.6930  134.1663  159.4238 H   0  0  0  0  0  0  0  0  0  0  0  0  # atno 6909 bound_to 6896
  146.2370  140.1887  142.8332 H   0  0  0  0  0  0  0  0  0  0  0  0  # atno 7974 bound_to 7965
  155.3095  140.3390  155.4244 H   0  0  0  0  0  0  0  0  0  0  0  0  # atno 8008 bound_to 7997
  156.1963  140.1716  156.8030 H   0  0  0  0  0  0  0  0  0  0  0  0  # atno 8009 bound_to 7997
  154.5502  140.0707  156.8639 H   0  0  0  0  0  0  0  0  0  0  0  0  # atno 8010 bound_to 7997
  140.5796  143.9006  150.6779 H   0  0  0  0  0  0  0  0  0  0  0  0  # atno 10167 bound_to 10162
  156.8305  130.9651  151.3107 H   0  0  0  0  0  0  0  0  0  0  0  0  # atno 10718 bound_to 10713
  153.3348  135.4023  155.1525 H   0  0  0  0  0  0  0  0  0  0  0  0  # atno 10763 bound_to 10752
  154.8631  135.3619  154.5423 H   0  0  0  0  0  0  0  0  0  0  0  0  # atno 10764 bound_to 10752
  153.5864  135.7075  153.5501 H   0  0  0  0  0  0  0  0  0  0  0  0  # atno 10765 bound_to 10752
  140.1537  134.4429  155.8364 H   0  0  0  0  0  0  0  0  0  0  0  0  # atno 11005 bound_to 11000
  144.9875  140.8516  143.5359 LP  0  0  0  0  0  0  0  0  0  0  0  0  # atno 17320 bound_to 7965
  145.1889  139.2312  143.5253 LP  0  0  0  0  0  0  0  0  0  0  0  0  # atno 17321 bound_to 7965
  140.2502  143.3599  152.1412 LP  0  0  0  0  0  0  0  0  0  0  0  0  # atno 17342 bound_to 10162
  139.5162  144.6974  151.5590 LP  0  0  0  0  0  0  0  0  0  0  0  0  # atno 17343 bound_to 10162
  157.6409  130.8805  149.9447 LP  0  0  0  0  0  0  0  0  0  0  0  0  # atno 17370 bound_to 10713
  156.0937  130.3661  150.0347 LP  0  0  0  0  0  0  0  0  0  0  0  0  # atno 17371 bound_to 10713
  141.2202  133.6883  156.7468 LP  0  0  0  0  0  0  0  0  0  0  0  0  # atno 17394 bound_to 11000
  140.2574  134.8493  157.3726 LP  0  0  0  0  0  0  0  0  0  0  0  0  # atno 17395 bound_to 11000

$$$$
