AV-unprocessed.smi:2070|AV-procd|sdf|8439|dock10
  -GOLD-   2272011143D 1   1.00000     0.00000
 Structure written by MMmdl.
 40 41  0  0  0  0  0  0  0  0  1 V2000
  148.6168  144.1081  159.0615 C   0  0  0  0  0  0  0  0  0  0  0  0
  150.1078  143.9856  159.0988 C   0  0  0  0  0  0  0  0  0  0  0  0
  151.0192  144.8903  158.6144 C   0  0  0  0  0  0  0  0  0  0  0  0
  152.6592  144.3586  158.8646 S   0  0  0  0  0  0  0  0  0  0  0  0
  152.0374  142.8974  159.6221 C   0  0  0  0  0  0  0  0  0  0  0  0
  152.9196  141.8371  160.1999 C   0  0  0  0  0  0  0  0  0  0  0  0
  152.9174  140.5210  159.3978 C   0  0  0  0  0  0  0  0  0  0  0  0
  153.1562  140.7301  157.9735 N   0  0  0  0  0  0  0  0  0  0  0  0
  153.8923  139.9311  157.1836 C   0  0  0  0  0  0  0  0  0  0  0  0
  154.3832  138.8786  157.5945 O   0  0  0  0  0  0  0  0  0  0  0  0
  154.0387  140.3736  155.9089 N   0  0  0  0  0  0  0  0  0  0  0  0
  154.8683  139.7524  154.8622 C   0  0  0  0  0  0  0  0  0  0  0  0
  153.9464  138.9979  153.8878 C   0  0  0  0  0  0  0  0  0  0  0  0
  152.8848  139.9449  153.2803 C   0  0  0  0  0  0  0  0  0  0  0  0
  151.8846  139.1681  152.4137 C   0  0  0  0  0  0  0  0  0  0  0  0
  151.8475  139.4653  151.1122 N   0  0  0  0  0  0  0  0  0  0  0  0
  151.1540  138.3119  152.9082 O   0  0  0  0  0  0  0  0  0  0  0  0
  152.1591  140.7428  154.3897 C   0  0  0  0  0  0  0  0  0  0  0  0
  153.1672  141.4106  155.3434 C   0  0  0  0  0  0  0  0  0  0  0  0
  150.7027  142.8606  159.6768 N   0  0  0  0  0  0  0  0  0  0  0  0
  148.2528  144.7258  159.8829 H   0  0  0  0  0  0  0  0  0  0  0  0
  148.1326  143.1342  159.1398 H   0  0  0  0  0  0  0  0  0  0  0  0
  148.2816  144.5656  158.1304 H   0  0  0  0  0  0  0  0  0  0  0  0
  150.8256  145.8350  158.1282 H   0  0  0  0  0  0  0  0  0  0  0  0
  153.9355  142.2293  160.2633 H   0  0  0  0  0  0  0  0  0  0  0  0
  152.6042  141.6438  161.2255 H   0  0  0  0  0  0  0  0  0  0  0  0
  153.6491  139.8231  159.8078 H   0  0  0  0  0  0  0  0  0  0  0  0
  151.9441  140.0398  159.4963 H   0  0  0  0  0  0  0  0  0  0  0  0
  152.7763  141.5726  157.5670 H   0  0  0  0  0  0  0  0  0  0  0  0
  155.4150  140.5316  154.3289 H   0  0  0  0  0  0  0  0  0  0  0  0
  155.6339  139.0777  155.2451 H   0  0  0  0  0  0  0  0  0  0  0  0
  154.5415  138.5435  153.0947 H   0  0  0  0  0  0  0  0  0  0  0  0
  153.4632  138.1778  154.4202 H   0  0  0  0  0  0  0  0  0  0  0  0
  153.4073  140.6624  152.6450 H   0  0  0  0  0  0  0  0  0  0  0  0
  151.2071  138.9797  150.5014 H   0  0  0  0  0  0  0  0  0  0  0  0
  152.4635  140.1755  150.7437 H   0  0  0  0  0  0  0  0  0  0  0  0
  151.5160  141.5030  153.9446 H   0  0  0  0  0  0  0  0  0  0  0  0
  151.5060  140.0851  154.9661 H   0  0  0  0  0  0  0  0  0  0  0  0
  152.6370  141.9786  156.1091 H   0  0  0  0  0  0  0  0  0  0  0  0
  153.7718  142.1397  154.8022 H   0  0  0  0  0  0  0  0  0  0  0  0
  1  2  1  0  0  0  0
  1 21  1  0  0  0  0
  1 22  1  0  0  0  0
  1 23  1  0  0  0  0
  2 20  1  0  0  0  0
  2  3  2  0  0  0  0
  3  4  1  0  0  0  0
  3 24  1  0  0  0  0
  4  5  1  0  0  0  0
  5  6  1  0  0  0  0
  5 20  2  0  0  0  0
  6  7  1  0  0  0  0
  6 25  1  0  0  0  0
  6 26  1  0  0  0  0
  7  8  1  0  0  0  0
  7 27  1  0  0  0  0
  7 28  1  0  0  0  0
  8  9  1  0  0  0  0
  8 29  1  0  0  0  0
  9 10  2  0  0  0  0
  9 11  1  0  0  0  0
 11 19  1  0  0  0  0
 11 12  1  0  0  0  0
 12 13  1  0  0  0  0
 12 30  1  0  0  0  0
 12 31  1  0  0  0  0
 13 14  1  0  0  0  0
 13 32  1  0  0  0  0
 13 33  1  0  0  0  0
 14 15  1  0  0  0  0
 14 18  1  0  0  0  0
 14 34  1  0  0  0  0
 15 16  1  0  0  0  0
 15 17  2  0  0  0  0
 16 35  1  0  0  0  0
 16 36  1  0  0  0  0
 18 19  1  0  0  0  0
 18 37  1  0  0  0  0
 18 38  1  0  0  0  0
 19 39  1  0  0  0  0
 19 40  1  0  0  0  0
M  END
> <s_m_source_file>
AV-unprocessed.smi

> <i_m_source_file_index>
2070

> <i_lp_mmshare_version>
43012

> <i_f3d_flags>
0

> <s_epik_input>
W0NIM11jMVtjSF1zYyhuMSlbQ0gyXVtDSDJdW05IXUMoPU8pTjJbQ0gyXVtDSDJdW0NIXShDKD1PKVtOSDJdKVtDSDJdW0NIMl0y

> <s_epik_cmdline>
J2VwaWtfcHl0aG9uJywgJy1waCcsICc3LjAnLCAnLXRuJywgJzgnLCAnLW1hJywgJzIwMCcsICctbWV0YWxfYmluZGluZycsICctaW1hZScsICc8aW5maWxlLm1hZT4nLCAnLW9tYWUnLCAnPG91dGZpbGUubWFlPic=

> <r_epik_Ionization_Penalty>
0.00203811

> <r_epik_Ionization_Penalty_Charging>
0

> <r_epik_Ionization_Penalty_Neutral>
0.00203811

> <r_epik_State_Penalty>
0.00135523

> <r_epik_Charging_Adjusted_Penalty>
0.00135523

> <i_epik_Tot_Q>
0

> <i_epik_Tot_abs_Q>
0

> <r_epik_Metal_State_Penalty>
-0

> <b_epik_Metal_Only>
0

> <s_lp_Force_Field>
OPLS_2005

> <r_lp_Energy>
19.595

> <b_lp_Chiralities_Consistent>
1

> <s_lp_Variant>
AV-unprocessed.smi:2070-1

> <Gold.Version>
5.8.1

> <Gold.Id.Protein>
6NUR|6NUR_protein|mol2

> <Gold.PLP.Fitness>
46.7729

> <Gold.PLP.PLP>
-45.6625

> <Gold.PLP.part.hbond>
-2.7616

> <Gold.PLP.part.metal>
0.0000

> <Gold.PLP.part.buried>
-4.5318

> <Gold.PLP.part.nonpolar>
-37.6654

> <Gold.PLP.part.repulsive>
0.3149

> <Gold.PLP.ligand.clash>
1.2033

> <Gold.PLP.ligand.torsion>
0.3726

> <Gold.PLP.Chemscore.Hbond>
1.0000

> <Gold.PLP.Chemscore.CHOScore>
0.0000

> <Gold.PLP.Chemscore.Metal>
0.0000

> <Gold.PLP.Chemscore.Internal.Correction>
0.0588

> <Gold.Rescore>
     Score         DG    S(hbond)    S(metal)    S(lipo)     H(rot)  DE(clash)    DE(int)     intcor
     15.67     -16.20       0.99        0.00     105.94       1.95       0.11       0.42       ----

> <Gold.Chemscore.Fitness>
15.6666

> <Gold.Chemscore.DG>
-16.1961

> <Gold.Chemscore.ZeroCoef>
-5.4800

> <Gold.Chemscore.Hbond>
0.9914

> <Gold.Chemscore.Metal>
0.0000

> <Gold.Chemscore.Lipo>
105.9373

> <Gold.Chemscore.Internal_Hbond>
0.0000

> <Gold.Chemscore.DEClash>
0.1107

> <Gold.Chemscore.DEInternal>
0.4189

> <Gold.Chemscore.Rot>
1.9492

> <Gold.Chemscore.Internal.Correction>
   9.000000E+99

> <Gold.Chemscore.Hbond.Weighted>
-3.3114

> <Gold.Chemscore.Metal.Weighted>
-0.0000

> <Gold.Chemscore.Lipo.Weighted>
-12.3947

> <Gold.Chemscore.Internal_Hbond.Weighted>
0.0000

> <Gold.Chemscore.DEClash.Weighted>
0.1107

> <Gold.Chemscore.DEInternal.Weighted>
0.4189

> <Gold.Chemscore.Rot.Weighted>
4.9900

> <Gold.Chemscore.Internal.Correction.Weighted>
   9.000000E+99

> <Gold.Protein.RotatedTorsions>
[ 6907 6896 6895 6894 ] final   93.11 input  -60.11 | X-H torsion
[ 7974 7965 7964 7962 ] final -136.43 input  175.53 | X-H torsion
[ 8008 7997 7996 7995 ] final  -49.24 input   59.86 | X-H torsion
[ 10167 10162 10161 10158 ] final  -49.25 input  -65.29 | X-H torsion
[ 10718 10713 10712 10709 ] final -120.73 input   66.30 | X-H torsion
[ 10763 10752 10751 10750 ] final -131.48 input  -60.55 | X-H torsion
[ 11005 11000 10999 10996 ] final  -15.96 input  -57.11 | X-H torsion

> <Gold.Protein.ActiveResidues>
 VAL166  LYS551  ARG553  GLY616  TRP617  ASP618  TYR619  PRO620  LYS621  CYS622 
 ASP623  PHE694  ASN695  SER759  ASP760  ASP761  ALA762  ILE779  LEU786  VAL792 
 PHE793  MET794  SER795  GLU796  ALA797  LYS798  CYS799  TRP800  GLU811  SER814 

> <Gold.Protein.RotatedAtoms>
  152.5453  134.1398  159.8473 H   0  0  0  0  0  0  0  0  0  0  0  0  # atno 6907 bound_to 6896
  151.1435  133.4948  159.2604 H   0  0  0  0  0  0  0  0  0  0  0  0  # atno 6908 bound_to 6896
  151.1548  135.0255  159.8739 H   0  0  0  0  0  0  0  0  0  0  0  0  # atno 6909 bound_to 6896
  144.8928  140.6665  143.5134 H   0  0  0  0  0  0  0  0  0  0  0  0  # atno 7974 bound_to 7965
  154.4041  140.1302  156.4470 H   0  0  0  0  0  0  0  0  0  0  0  0  # atno 8008 bound_to 7997
  155.7403  140.3490  155.5081 H   0  0  0  0  0  0  0  0  0  0  0  0  # atno 8009 bound_to 7997
  155.9045  140.1025  157.1316 H   0  0  0  0  0  0  0  0  0  0  0  0  # atno 8010 bound_to 7997
  140.6694  143.2706  151.4188 H   0  0  0  0  0  0  0  0  0  0  0  0  # atno 10167 bound_to 10162
  156.1281  130.6374  150.9576 H   0  0  0  0  0  0  0  0  0  0  0  0  # atno 10718 bound_to 10713
  154.8750  135.3829  154.4253 H   0  0  0  0  0  0  0  0  0  0  0  0  # atno 10763 bound_to 10752
  153.4952  135.7030  153.5867 H   0  0  0  0  0  0  0  0  0  0  0  0  # atno 10764 bound_to 10752
  153.4223  135.3898  155.2086 H   0  0  0  0  0  0  0  0  0  0  0  0  # atno 10765 bound_to 10752
  140.8019  133.8207  155.9478 H   0  0  0  0  0  0  0  0  0  0  0  0  # atno 11005 bound_to 11000
  145.3753  139.1649  143.4310 LP  0  0  0  0  0  0  0  0  0  0  0  0  # atno 17320 bound_to 7965
  146.3063  140.3829  142.8686 LP  0  0  0  0  0  0  0  0  0  0  0  0  # atno 17321 bound_to 7965
  139.5955  144.1406  152.2139 LP  0  0  0  0  0  0  0  0  0  0  0  0  # atno 17342 bound_to 10162
  140.0774  144.5729  150.7147 LP  0  0  0  0  0  0  0  0  0  0  0  0  # atno 17343 bound_to 10162
  157.6461  131.0904  150.8150 LP  0  0  0  0  0  0  0  0  0  0  0  0  # atno 17370 bound_to 10713
  156.8238  130.4993  149.5340 LP  0  0  0  0  0  0  0  0  0  0  0  0  # atno 17371 bound_to 10713
  140.9286  134.2051  157.4879 LP  0  0  0  0  0  0  0  0  0  0  0  0  # atno 17394 bound_to 11000
  139.8721  134.9823  156.5151 LP  0  0  0  0  0  0  0  0  0  0  0  0  # atno 17395 bound_to 11000

$$$$
