AV-unprocessed.smi:1796|AV-procd|sdf|7251|dock1
  -GOLD-   22720 8503D 1   1.00000     0.00000
 Structure written by MMmdl.
 42 43  0  0  0  0  0  0  0  0  1 V2000
  152.2750  144.7718  161.8225 C   0  0  0  0  0  0  0  0  0  0  0  0
  152.3332  143.3733  161.2025 C   0  0  0  0  0  0  0  0  0  0  0  0
  152.2024  142.4037  161.9498 O   0  0  0  0  0  0  0  0  0  0  0  0
  152.5283  143.2478  159.8679 N   0  0  0  0  0  0  0  0  0  0  0  0
  152.6134  144.4011  158.9626 C   0  0  0  0  0  0  0  0  0  0  0  0
  151.3613  144.4273  158.0661 C   0  0  0  0  0  0  0  0  0  0  0  0
  151.1917  143.0960  157.3090 C   0  0  0  0  0  0  0  0  0  0  0  0
  151.2651  141.8872  158.2688 C   0  0  1  0  0  0  0  0  0  0  0  0
  151.2195  140.5576  157.5080 C   0  0  0  0  0  0  0  0  0  0  0  0
  151.7543  139.5548  157.9815 O   0  0  0  0  0  0  0  0  0  0  0  0
  150.5387  140.5592  156.3508 N   0  0  0  0  0  0  0  0  0  0  0  0
  150.2053  139.3780  155.5559 C   0  0  2  0  0  0  0  0  0  0  0  0
  151.4908  138.6060  155.2301 C   0  0  0  0  0  0  0  0  0  0  0  0
  149.4534  139.7974  154.2751 C   0  0  0  0  0  0  0  0  0  0  0  0
  148.3268  140.6731  154.5504 N   0  0  0  0  0  0  0  0  0  0  0  0
  147.4544  141.2521  153.6522 C   0  0  0  0  0  0  0  0  0  0  0  0
  146.5805  142.0168  154.3700 C   0  0  0  0  0  0  0  0  0  0  0  0
  147.0002  141.8336  155.7173 C   0  0  0  0  0  0  0  0  0  0  0  0
  148.0443  141.0270  155.8223 N   0  0  0  0  0  0  0  0  0  0  0  0
  152.5445  141.9781  159.1308 C   0  0  0  0  0  0  0  0  0  0  0  0
  153.1946  145.3230  161.6243 H   0  0  0  0  0  0  0  0  0  0  0  0
  152.1527  144.7073  162.9044 H   0  0  0  0  0  0  0  0  0  0  0  0
  151.4305  145.3359  161.4255 H   0  0  0  0  0  0  0  0  0  0  0  0
  152.7085  145.3494  159.4931 H   0  0  0  0  0  0  0  0  0  0  0  0
  153.5116  144.3126  158.3497 H   0  0  0  0  0  0  0  0  0  0  0  0
  150.4793  144.6115  158.6810 H   0  0  0  0  0  0  0  0  0  0  0  0
  151.4229  145.2543  157.3582 H   0  0  0  0  0  0  0  0  0  0  0  0
  150.2436  143.0959  156.7699 H   0  0  0  0  0  0  0  0  0  0  0  0
  151.9754  143.0187  156.5536 H   0  0  0  0  0  0  0  0  0  0  0  0
  150.4030  141.9296  158.9376 H   0  0  0  0  0  0  0  0  0  0  0  0
  150.1488  141.4367  156.0387 H   0  0  0  0  0  0  0  0  0  0  0  0
  149.5612  138.7071  156.1271 H   0  0  0  0  0  0  0  0  0  0  0  0
  151.2714  137.7072  154.6528 H   0  0  0  0  0  0  0  0  0  0  0  0
  152.0036  138.2942  156.1406 H   0  0  0  0  0  0  0  0  0  0  0  0
  152.1840  139.2142  154.6479 H   0  0  0  0  0  0  0  0  0  0  0  0
  150.1283  140.3088  153.5872 H   0  0  0  0  0  0  0  0  0  0  0  0
  149.0821  138.9164  153.7494 H   0  0  0  0  0  0  0  0  0  0  0  0
  147.5345  141.0826  152.5886 H   0  0  0  0  0  0  0  0  0  0  0  0
  145.7671  142.6171  153.9904 H   0  0  0  0  0  0  0  0  0  0  0  0
  146.5801  142.2604  156.6160 H   0  0  0  0  0  0  0  0  0  0  0  0
  153.4334  141.9535  158.4980 H   0  0  0  0  0  0  0  0  0  0  0  0
  152.6304  141.1040  159.7754 H   0  0  0  0  0  0  0  0  0  0  0  0
  1  2  1  0  0  0  0
  1 21  1  0  0  0  0
  1 22  1  0  0  0  0
  1 23  1  0  0  0  0
  2  3  2  0  0  0  0
  2  4  1  0  0  0  0
  4 20  1  0  0  0  0
  4  5  1  0  0  0  0
  5  6  1  0  0  0  0
  5 24  1  0  0  0  0
  5 25  1  0  0  0  0
  6  7  1  0  0  0  0
  6 26  1  0  0  0  0
  6 27  1  0  0  0  0
  7  8  1  0  0  0  0
  7 28  1  0  0  0  0
  7 29  1  0  0  0  0
  8  9  1  0  0  0  0
  8 20  1  0  0  0  0
  8 30  1  0  0  0  0
  9 10  2  0  0  0  0
  9 11  1  0  0  0  0
 11 12  1  0  0  0  0
 11 31  1  0  0  0  0
 12 13  1  0  0  0  0
 12 14  1  0  0  0  0
 12 32  1  0  0  0  0
 13 33  1  0  0  0  0
 13 34  1  0  0  0  0
 13 35  1  0  0  0  0
 14 15  1  0  0  0  0
 14 36  1  0  0  0  0
 14 37  1  0  0  0  0
 15 19  1  0  0  0  0
 15 16  1  0  0  0  0
 16 17  2  0  0  0  0
 16 38  1  0  0  0  0
 17 18  1  0  0  0  0
 17 39  1  0  0  0  0
 18 19  2  0  0  0  0
 18 40  1  0  0  0  0
 20 41  1  0  0  0  0
 20 42  1  0  0  0  0
M  END
> <s_m_source_file>
AV-unprocessed.smi

> <i_m_source_file_index>
1796

> <i_lp_mmshare_version>
43012

> <i_f3d_flags>
0

> <s_epik_input>
W0NIM11DKD1PKU4xW0NIMl1bQ0gyXVtDSDJdW0NASF0oW0NIMl0xKUMoPU8pW05IXVtDQEhdKFtDSDNdKVtDSDJdbjJbY0hdW2NIXVtjSF1uMg==

> <s_epik_cmdline>
J2VwaWtfcHl0aG9uJywgJy1waCcsICc3LjAnLCAnLXRuJywgJzgnLCAnLW1hJywgJzIwMCcsICctbWV0YWxfYmluZGluZycsICctaW1hZScsICc8aW5maWxlLm1hZT4nLCAnLW9tYWUnLCAnPG91dGZpbGUubWFlPic=

> <r_lp_tautomer_probability>
1

> <r_epik_Ionization_Penalty>
0.000315051

> <r_epik_Ionization_Penalty_Charging>
0

> <r_epik_Ionization_Penalty_Neutral>
0.000315051

> <r_epik_State_Penalty>
-0

> <r_epik_Charging_Adjusted_Penalty>
0

> <i_epik_Tot_Q>
0

> <i_epik_Tot_abs_Q>
0

> <r_epik_Metal_State_Penalty>
-0

> <b_epik_Metal_Only>
0

> <s_lp_Force_Field>
OPLS_2005

> <r_lp_Energy>
23.171

> <b_lp_Chiralities_Consistent>
1

> <s_lp_Variant>
AV-unprocessed.smi:1796-1

> <Gold.Version>
5.8.1

> <Gold.Id.Protein>
6NUR|6NUR_protein|mol2

> <Gold.PLP.Fitness>
46.2452

> <Gold.PLP.PLP>
-42.3976

> <Gold.PLP.part.hbond>
-1.0000

> <Gold.PLP.part.metal>
0.0000

> <Gold.PLP.part.buried>
-1.4453

> <Gold.PLP.part.nonpolar>
-41.1568

> <Gold.PLP.part.repulsive>
0.2616

> <Gold.PLP.ligand.clash>
0.0000

> <Gold.PLP.ligand.torsion>
0.7946

> <Gold.PLP.Chemscore.Hbond>
0.8003

> <Gold.PLP.Chemscore.CHOScore>
1.0000

> <Gold.PLP.Chemscore.Metal>
0.0000

> <Gold.Chemscore.Hbonds>
donor molecule, donor type, donor heavy atom, donor atom, acceptor molecule, acceptor atom, score
      P1  H  6933  6945       L1     3  0.37
      L1  C    16    38       P1  7957  0.57

> <Gold.PLP.Chemscore.Internal.Correction>
0.0360

> <Gold.Rescore>
     Score         DG    S(hbond)    S(metal)    S(lipo)     H(rot)  DE(clash)    DE(int)     intcor
     11.37     -16.30       0.88        0.00     103.25       1.63       1.43       3.50       ----

> <Gold.Chemscore.Fitness>
11.3736

> <Gold.Chemscore.DG>
-16.3019

> <Gold.Chemscore.ZeroCoef>
-5.4800

> <Gold.Chemscore.Hbond>
0.8755

> <Gold.Chemscore.Metal>
0.0000

> <Gold.Chemscore.Lipo>
103.2478

> <Gold.Chemscore.Internal_Hbond>
0.0000

> <Gold.Chemscore.DEClash>
1.4253

> <Gold.Chemscore.DEInternal>
3.5030

> <Gold.Chemscore.Rot>
1.6336

> <Gold.Chemscore.Internal.Correction>
   9.000000E+99

> <Gold.Chemscore.Hbonds>
donor molecule, donor type, donor heavy atom, donor atom, acceptor molecule, acceptor atom, score
      P1  H  6933  6945       L1     3  0.32

> <Gold.Chemscore.Hbond.Weighted>
-2.9240

> <Gold.Chemscore.Metal.Weighted>
-0.0000

> <Gold.Chemscore.Lipo.Weighted>
-12.0800

> <Gold.Chemscore.Internal_Hbond.Weighted>
0.0000

> <Gold.Chemscore.DEClash.Weighted>
1.4253

> <Gold.Chemscore.DEInternal.Weighted>
3.5030

> <Gold.Chemscore.Rot.Weighted>
4.1821

> <Gold.Chemscore.Internal.Correction.Weighted>
   9.000000E+99

> <Gold.Protein.RotatedTorsions>
[ 6907 6896 6895 6894 ] final  -74.52 input  -60.11 | X-H torsion
[ 7974 7965 7964 7962 ] final   26.88 input  175.53 | X-H torsion
[ 8008 7997 7996 7995 ] final   62.26 input   59.86 | X-H torsion
[ 10167 10162 10161 10158 ] final  -87.04 input  -65.29 | X-H torsion
[ 10718 10713 10712 10709 ] final  -31.03 input   66.30 | X-H torsion
[ 10763 10752 10751 10750 ] final  -90.94 input  -60.55 | X-H torsion
[ 11005 11000 10999 10996 ] final   26.83 input  -57.11 | X-H torsion

> <Gold.Protein.ActiveResidues>
 VAL166  LYS551  ARG553  GLY616  TRP617  ASP618  TYR619  PRO620  LYS621  CYS622 
 ASP623  PHE694  ASN695  SER759  ASP760  ASP761  ALA762  ILE779  LEU786  VAL792 
 PHE793  MET794  SER795  GLU796  ALA797  LYS798  CYS799  TRP800  GLU811  SER814 

> <Gold.Protein.RotatedAtoms>
  150.7090  134.4857  159.5491 H   0  0  0  0  0  0  0  0  0  0  0  0  # atno 6907 bound_to 6896
  152.2485  134.8154  160.0459 H   0  0  0  0  0  0  0  0  0  0  0  0  # atno 6908 bound_to 6896
  151.8910  133.3481  159.3835 H   0  0  0  0  0  0  0  0  0  0  0  0  # atno 6909 bound_to 6896
  146.1814  139.7268  142.8897 H   0  0  0  0  0  0  0  0  0  0  0  0  # atno 7974 bound_to 7965
  155.6115  140.3495  155.4624 H   0  0  0  0  0  0  0  0  0  0  0  0  # atno 8008 bound_to 7997
  156.0150  140.1241  157.0439 H   0  0  0  0  0  0  0  0  0  0  0  0  # atno 8009 bound_to 7997
  154.4294  140.1074  156.5870 H   0  0  0  0  0  0  0  0  0  0  0  0  # atno 8010 bound_to 7997
  140.3883  143.2716  151.9297 H   0  0  0  0  0  0  0  0  0  0  0  0  # atno 10167 bound_to 10162
  156.3923  130.4375  149.7385 H   0  0  0  0  0  0  0  0  0  0  0  0  # atno 10718 bound_to 10713
  154.6709  135.5286  153.8138 H   0  0  0  0  0  0  0  0  0  0  0  0  # atno 10763 bound_to 10752
  153.0501  135.6529  154.0725 H   0  0  0  0  0  0  0  0  0  0  0  0  # atno 10764 bound_to 10752
  154.0624  135.2960  155.3302 H   0  0  0  0  0  0  0  0  0  0  0  0  # atno 10765 bound_to 10752
  140.3328  134.2418  155.7700 H   0  0  0  0  0  0  0  0  0  0  0  0  # atno 11005 bound_to 11000
  145.4065  141.0391  143.3041 LP  0  0  0  0  0  0  0  0  0  0  0  0  # atno 17320 bound_to 7965
  144.8322  139.5610  143.6938 LP  0  0  0  0  0  0  0  0  0  0  0  0  # atno 17321 bound_to 7965
  139.4790  144.5752  151.8023 LP  0  0  0  0  0  0  0  0  0  0  0  0  # atno 17342 bound_to 10162
  140.4866  144.1372  150.5942 LP  0  0  0  0  0  0  0  0  0  0  0  0  # atno 17343 bound_to 10162
  156.4433  130.7872  151.2893 LP  0  0  0  0  0  0  0  0  0  0  0  0  # atno 17370 bound_to 10713
  157.7499  131.0118  150.3359 LP  0  0  0  0  0  0  0  0  0  0  0  0  # atno 17371 bound_to 10713
  141.2059  133.7848  157.0208 LP  0  0  0  0  0  0  0  0  0  0  0  0  # atno 17394 bound_to 11000
  140.0846  134.9628  157.1679 LP  0  0  0  0  0  0  0  0  0  0  0  0  # atno 17395 bound_to 11000

$$$$
