AV-unprocessed.smi:3314|AV-procd|sdf|12744|dock6
  -GOLD-   2272019 83D 1   1.00000     0.00000
 Structure written by MMmdl.
 37 38  0  0  0  0  0  0  0  0  3 V2000
  151.7359  144.4938  159.8400 C   0  0  0  0  0  0  0  0  0  0  0  0
  152.2455  143.0698  159.9066 C   0  0  0  0  0  0  0  0  0  0  0  0
  152.8304  142.5649  161.0834 C   0  0  0  0  0  0  0  0  0  0  0  0
  153.2797  141.2301  161.0803 C   0  0  0  0  0  0  0  0  0  0  0  0
  153.9195  140.6283  162.3135 C   0  0  0  0  0  0  0  0  0  0  0  0
  153.1802  140.4199  160.0040 N   0  0  0  0  0  0  0  0  0  0  0  0
  152.6258  140.8961  158.8638 C   0  0  0  0  0  0  0  0  0  0  0  0
  152.5252  140.0779  157.8066 N   0  5  0  0  0  0  0  0  0  0  0  0
  151.5357  140.2626  156.8993 C   0  0  0  0  0  0  0  0  0  0  0  0
  150.4464  140.8185  157.0550 O   0  0  0  0  0  0  0  0  0  0  0  0
  151.9125  139.6728  155.5213 C   0  0  1  0  0  0  0  0  0  0  0  0
  152.0698  138.1335  155.5082 C   0  0  0  0  0  0  0  0  0  0  0  0
  150.7584  137.4632  155.6757 N   0  3  2  0  0  0  0  0  0  0  0  0
  150.8724  135.9913  155.7420 C   0  0  0  0  0  0  0  0  0  0  0  0
  149.7986  137.9175  154.6444 C   0  0  0  0  0  0  0  0  0  0  0  0
  149.6697  139.4491  154.6721 C   0  0  0  0  0  0  0  0  0  0  0  0
  150.9588  140.0413  154.5167 O   0  0  0  0  0  0  0  0  0  0  0  0
  152.1402  142.2220  158.7859 C   0  0  0  0  0  0  0  0  0  0  0  0
  152.0167  145.0573  160.7302 H   0  0  0  0  0  0  0  0  0  0  0  0
  150.6490  144.5008  159.7584 H   0  0  0  0  0  0  0  0  0  0  0  0
  152.1501  145.0035  158.9697 H   0  0  0  0  0  0  0  0  0  0  0  0
  152.9312  143.1816  161.9644 H   0  0  0  0  0  0  0  0  0  0  0  0
  153.5028  141.0700  163.2192 H   0  0  0  0  0  0  0  0  0  0  0  0
  154.9941  140.8104  162.3054 H   0  0  0  0  0  0  0  0  0  0  0  0
  153.7534  139.5511  162.3559 H   0  0  0  0  0  0  0  0  0  0  0  0
  152.8695  140.1135  155.2381 H   0  0  0  0  0  0  0  0  0  0  0  0
  152.5176  137.8194  154.5640 H   0  0  0  0  0  0  0  0  0  0  0  0
  152.7539  137.8138  156.2960 H   0  0  0  0  0  0  0  0  0  0  0  0
  151.2708  135.5871  154.8104 H   0  0  0  0  0  0  0  0  0  0  0  0
  149.8968  135.5392  155.9226 H   0  0  0  0  0  0  0  0  0  0  0  0
  151.5332  135.6940  156.5569 H   0  0  0  0  0  0  0  0  0  0  0  0
  150.1356  137.5883  153.6602 H   0  0  0  0  0  0  0  0  0  0  0  0
  148.8237  137.4611  154.8195 H   0  0  0  0  0  0  0  0  0  0  0  0
  149.0324  139.7838  153.8536 H   0  0  0  0  0  0  0  0  0  0  0  0
  149.1889  139.7829  155.5925 H   0  0  0  0  0  0  0  0  0  0  0  0
  151.6934  142.5866  157.8719 H   0  0  0  0  0  0  0  0  0  0  0  0
  150.3945  137.7691  156.5677 H   0  0  0  0  0  0  0  0  0  0  0  0
  1  2  1  0  0  0  0
  1 19  1  0  0  0  0
  1 20  1  0  0  0  0
  1 21  1  0  0  0  0
  2 18  2  0  0  0  0
  2  3  1  0  0  0  0
  3  4  2  0  0  0  0
  3 22  1  0  0  0  0
  4  5  1  0  0  0  0
  4  6  1  0  0  0  0
  5 23  1  0  0  0  0
  5 24  1  0  0  0  0
  5 25  1  0  0  0  0
  6  7  2  0  0  0  0
  7  8  1  0  0  0  0
  7 18  1  0  0  0  0
  8  9  1  0  0  0  0
  9 10  2  0  0  0  0
  9 11  1  0  0  0  0
 11 17  1  0  0  0  0
 11 12  1  0  0  0  0
 11 26  1  0  0  0  0
 12 13  1  0  0  0  0
 12 27  1  0  0  0  0
 12 28  1  0  0  0  0
 13 14  1  0  0  0  0
 13 15  1  0  0  0  0
 13 37  1  0  0  0  0
 14 29  1  0  0  0  0
 14 30  1  0  0  0  0
 14 31  1  0  0  0  0
 15 16  1  0  0  0  0
 15 32  1  0  0  0  0
 15 33  1  0  0  0  0
 16 17  1  0  0  0  0
 16 34  1  0  0  0  0
 16 35  1  0  0  0  0
 18 36  1  0  0  0  0
M  CHG  1   8  -1
M  CHG  1  13   1
M  END
> <s_m_source_file>
AV-unprocessed.smi

> <i_m_source_file_index>
3314

> <i_lp_mmshare_version>
43012

> <i_f3d_flags>
0

> <s_epik_input>
W0NIM11jMVtjSF1jKFtDSDNdKW5jKFtjSF0xKVtOSF1DKD1PKVtDQEBIXTJbQ0gyXU4oW0NIM10pW0NIMl1bQ0gyXU8y

> <s_epik_cmdline>
J2VwaWtfcHl0aG9uJywgJy1waCcsICc3LjAnLCAnLXRuJywgJzgnLCAnLW1hJywgJzIwMCcsICctbWV0YWxfYmluZGluZycsICctaW1hZScsICc8aW5maWxlLm1hZT4nLCAnLW9tYWUnLCAnPG91dGZpbGUubWFlPic=

> <r_epik_Ionization_Penalty>
13.8964

> <r_epik_Ionization_Penalty_Charging>
7.88995

> <r_epik_Ionization_Penalty_Neutral>
6.00641

> <r_epik_State_Penalty>
8.39989

> <r_epik_Charging_Adjusted_Penalty>
16.2898

> <i_epik_Tot_Q>
0

> <i_epik_Tot_abs_Q>
2

> <r_epik_Metal_State_Penalty>
4.31145

> <b_epik_Metal_Only>
1

> <s_lp_Force_Field>
OPLS_2005

> <r_lp_Energy>
7.08315

> <b_lp_Chiralities_Consistent>
1

> <s_lp_Variant>
AV-unprocessed.smi:3314-14

> <Gold.Version>
5.8.1

> <Gold.Id.Protein>
6NUR|6NUR_protein|mol2

> <Gold.PLP.Fitness>
45.5823

> <Gold.PLP.PLP>
-37.2937

> <Gold.PLP.part.hbond>
-2.0000

> <Gold.PLP.part.metal>
0.0000

> <Gold.PLP.part.buried>
-3.8544

> <Gold.PLP.part.nonpolar>
-31.2021

> <Gold.PLP.part.repulsive>
0.1770

> <Gold.PLP.ligand.clash>
0.0000

> <Gold.PLP.ligand.torsion>
0.3811

> <Gold.PLP.Chemscore.Hbond>
3.0000

> <Gold.PLP.Chemscore.CHOScore>
0.0000

> <Gold.PLP.Chemscore.Metal>
0.0000

> <Gold.Chemscore.Hbonds>
donor molecule, donor type, donor heavy atom, donor atom, acceptor molecule, acceptor atom, score
      P1  H  7989  7998       L1    17  0.86
      P1  H  7997  8010       L1     8  1.37

> <Gold.PLP.Chemscore.Internal.Correction>
0.0508

> <Gold.Rescore>
     Score         DG    S(hbond)    S(metal)    S(lipo)     H(rot)  DE(clash)    DE(int)     intcor
     16.06     -19.40       1.53        0.00      97.05       1.00       0.02       3.32       ----

> <Gold.Chemscore.Fitness>
16.0635

> <Gold.Chemscore.DG>
-19.4009

> <Gold.Chemscore.ZeroCoef>
-5.4800

> <Gold.Chemscore.Hbond>
1.5347

> <Gold.Chemscore.Metal>
0.0000

> <Gold.Chemscore.Lipo>
97.0500

> <Gold.Chemscore.Internal_Hbond>
0.0000

> <Gold.Chemscore.DEClash>
0.0174

> <Gold.Chemscore.DEInternal>
3.3200

> <Gold.Chemscore.Rot>
1.0000

> <Gold.Chemscore.Internal.Correction>
   9.000000E+99

> <Gold.Chemscore.Hbonds>
donor molecule, donor type, donor heavy atom, donor atom, acceptor molecule, acceptor atom, score
      P1  H  7989  7998       L1    17  0.59
      P1  H  7997  8010       L1     8  0.31

> <Gold.Chemscore.Hbond.Weighted>
-5.1260

> <Gold.Chemscore.Metal.Weighted>
-0.0000

> <Gold.Chemscore.Lipo.Weighted>
-11.3548

> <Gold.Chemscore.Internal_Hbond.Weighted>
0.0000

> <Gold.Chemscore.DEClash.Weighted>
0.0174

> <Gold.Chemscore.DEInternal.Weighted>
3.3200

> <Gold.Chemscore.Rot.Weighted>
2.5600

> <Gold.Chemscore.Internal.Correction.Weighted>
   9.000000E+99

> <Gold.Protein.RotatedTorsions>
[ 6907 6896 6895 6894 ] final   62.40 input  -60.11 | X-H torsion
[ 7974 7965 7964 7962 ] final   30.88 input  175.53 | X-H torsion
[ 8008 7997 7996 7995 ] final   50.79 input   59.86 | X-H torsion
[ 10167 10162 10161 10158 ] final  -52.93 input  -65.29 | X-H torsion
[ 10718 10713 10712 10709 ] final  -99.75 input   66.30 | X-H torsion
[ 10763 10752 10751 10750 ] final  165.20 input  -60.55 | X-H torsion
[ 11005 11000 10999 10996 ] final  -48.76 input  -57.11 | X-H torsion

> <Gold.Protein.ActiveResidues>
 VAL166  LYS551  ARG553  GLY616  TRP617  ASP618  TYR619  PRO620  LYS621  CYS622 
 ASP623  PHE694  ASN695  SER759  ASP760  ASP761  ALA762  ILE779  LEU786  VAL792 
 PHE793  MET794  SER795  GLU796  ALA797  LYS798  CYS799  TRP800  GLU811  SER814 

> <Gold.Protein.RotatedAtoms>
  152.4169  134.6025  160.0003 H   0  0  0  0  0  0  0  0  0  0  0  0  # atno 6907 bound_to 6896
  151.6186  133.3335  159.3091 H   0  0  0  0  0  0  0  0  0  0  0  0  # atno 6908 bound_to 6896
  150.8057  134.7220  159.6708 H   0  0  0  0  0  0  0  0  0  0  0  0  # atno 6909 bound_to 6896
  146.1585  139.6731  142.9050 H   0  0  0  0  0  0  0  0  0  0  0  0  # atno 7974 bound_to 7965
  155.4245  140.3448  155.4274 H   0  0  0  0  0  0  0  0  0  0  0  0  # atno 8008 bound_to 7997
  156.1373  140.1531  156.9006 H   0  0  0  0  0  0  0  0  0  0  0  0  # atno 8009 bound_to 7997
  154.4942  140.0832  156.7641 H   0  0  0  0  0  0  0  0  0  0  0  0  # atno 8010 bound_to 7997
  140.6512  143.2567  151.4718 H   0  0  0  0  0  0  0  0  0  0  0  0  # atno 10167 bound_to 10162
  156.0143  130.5297  150.6716 H   0  0  0  0  0  0  0  0  0  0  0  0  # atno 10718 bound_to 10713
  154.3204  135.2756  155.2522 H   0  0  0  0  0  0  0  0  0  0  0  0  # atno 10763 bound_to 10752
  154.4878  135.5841  153.6440 H   0  0  0  0  0  0  0  0  0  0  0  0  # atno 10764 bound_to 10752
  152.9877  135.6127  154.3388 H   0  0  0  0  0  0  0  0  0  0  0  0  # atno 10765 bound_to 10752
  141.0720  133.6676  156.3488 H   0  0  0  0  0  0  0  0  0  0  0  0  # atno 11005 bound_to 11000
  145.4648  141.0434  143.2731 LP  0  0  0  0  0  0  0  0  0  0  0  0  # atno 17320 bound_to 7965
  144.7995  139.6169  143.7078 LP  0  0  0  0  0  0  0  0  0  0  0  0  # atno 17321 bound_to 7965
  139.5727  144.1890  152.1859 LP  0  0  0  0  0  0  0  0  0  0  0  0  # atno 17342 bound_to 10162
  140.1192  144.5389  150.6874 LP  0  0  0  0  0  0  0  0  0  0  0  0  # atno 17343 bound_to 10162
  157.4438  131.0864  151.0917 LP  0  0  0  0  0  0  0  0  0  0  0  0  # atno 17370 bound_to 10713
  157.1453  130.6160  149.5566 LP  0  0  0  0  0  0  0  0  0  0  0  0  # atno 17371 bound_to 10713
  140.5654  134.5893  157.5444 LP  0  0  0  0  0  0  0  0  0  0  0  0  # atno 17394 bound_to 11000
  139.9533  134.7579  156.0399 LP  0  0  0  0  0  0  0  0  0  0  0  0  # atno 17395 bound_to 11000

$$$$
