AV-unprocessed.smi:1417|AV-procd|sdf|5770|dock5
  -GOLD-   22720 5413D 1   1.00000     0.00000
 Structure written by MMmdl.
 39 40  0  0  0  0  0  0  0  0  3 V2000
  152.7045  140.7375  159.3592 C   0  0  0  0  0  0  0  0  0  0  0  0
  152.2646  140.4338  157.9679 C   0  0  0  0  0  0  0  0  0  0  0  0
  151.2863  140.9549  157.1695 C   0  0  0  0  0  0  0  0  0  0  0  0
  151.4104  140.2018  155.9703 C   0  0  0  0  0  0  0  0  0  0  0  0
  150.6658  140.3519  154.8640 N   0  5  0  0  0  0  0  0  0  0  0  0
  149.3820  140.7669  154.9587 C   0  0  0  0  0  0  0  0  0  0  0  0
  148.8225  141.1954  155.9705 O   0  0  0  0  0  0  0  0  0  0  0  0
  148.7034  140.6747  153.8062 N   0  0  0  0  0  0  0  0  0  0  0  0
  147.3025  141.0369  153.5943 C   0  0  2  0  0  0  0  0  0  0  0  0
  146.3553  140.1794  154.4569 C   0  0  0  0  0  0  0  0  0  0  0  0
  146.3124  138.7170  153.9803 C   0  0  0  0  0  0  0  0  0  0  0  0
  145.9324  138.6339  152.5447 N   0  3  2  0  0  0  0  0  0  0  0  0
  145.7397  137.2386  152.0723 C   0  0  0  0  0  0  0  0  0  0  0  0
  144.3510  136.6808  152.4022 C   0  0  0  0  0  0  0  0  0  0  0  0
  143.3231  137.5270  152.3021 N   0  0  0  0  0  0  0  0  0  0  0  0
  144.2059  135.5130  152.7590 O   0  0  0  0  0  0  0  0  0  0  0  0
  146.8706  139.4002  151.6855 C   0  0  0  0  0  0  0  0  0  0  0  0
  146.9325  140.8794  152.1095 C   0  0  0  0  0  0  0  0  0  0  0  0
  152.3888  139.3139  156.0292 N   0  0  0  0  0  0  0  0  0  0  0  0
  152.9381  139.4524  157.3093 O   0  0  0  0  0  0  0  0  0  0  0  0
  153.2631  141.6728  159.3908 H   0  0  0  0  0  0  0  0  0  0  0  0
  153.3457  139.9472  159.7502 H   0  0  0  0  0  0  0  0  0  0  0  0
  151.8454  140.8331  160.0231 H   0  0  0  0  0  0  0  0  0  0  0  0
  150.5902  141.7461  157.4057 H   0  0  0  0  0  0  0  0  0  0  0  0
  149.2108  140.3262  153.0064 H   0  0  0  0  0  0  0  0  0  0  0  0
  147.1787  142.0866  153.8661 H   0  0  0  0  0  0  0  0  0  0  0  0
  146.6467  140.2216  155.5070 H   0  0  0  0  0  0  0  0  0  0  0  0
  145.3496  140.5989  154.4079 H   0  0  0  0  0  0  0  0  0  0  0  0
  147.2830  138.2417  154.1318 H   0  0  0  0  0  0  0  0  0  0  0  0
  145.5962  138.1655  154.5900 H   0  0  0  0  0  0  0  0  0  0  0  0
  145.8384  137.2009  150.9866 H   0  0  0  0  0  0  0  0  0  0  0  0
  146.5203  136.5937  152.4796 H   0  0  0  0  0  0  0  0  0  0  0  0
  142.3851  137.2123  152.5043 H   0  0  0  0  0  0  0  0  0  0  0  0
  143.4867  138.4831  152.0198 H   0  0  0  0  0  0  0  0  0  0  0  0
  147.8622  138.9471  151.7324 H   0  0  0  0  0  0  0  0  0  0  0  0
  146.5468  139.3438  150.6456 H   0  0  0  0  0  0  0  0  0  0  0  0
  145.9607  141.3421  151.9316 H   0  0  0  0  0  0  0  0  0  0  0  0
  147.6439  141.4197  151.4836 H   0  0  0  0  0  0  0  0  0  0  0  0
  145.0333  139.0855  152.4532 H   0  0  0  0  0  0  0  0  0  0  0  0
  1  2  1  0  0  0  0
  1 21  1  0  0  0  0
  1 22  1  0  0  0  0
  1 23  1  0  0  0  0
  2 20  1  0  0  0  0
  2  3  2  0  0  0  0
  3  4  1  0  0  0  0
  3 24  1  0  0  0  0
  4  5  1  0  0  0  0
  4 19  2  0  0  0  0
  5  6  1  0  0  0  0
  6  7  2  0  0  0  0
  6  8  1  0  0  0  0
  8  9  1  0  0  0  0
  8 25  1  0  0  0  0
  9 18  1  0  0  0  0
  9 10  1  0  0  0  0
  9 26  1  0  0  0  0
 10 11  1  0  0  0  0
 10 27  1  0  0  0  0
 10 28  1  0  0  0  0
 11 12  1  0  0  0  0
 11 29  1  0  0  0  0
 11 30  1  0  0  0  0
 12 13  1  0  0  0  0
 12 17  1  0  0  0  0
 12 39  1  0  0  0  0
 13 14  1  0  0  0  0
 13 31  1  0  0  0  0
 13 32  1  0  0  0  0
 14 15  1  0  0  0  0
 14 16  2  0  0  0  0
 15 33  1  0  0  0  0
 15 34  1  0  0  0  0
 17 18  1  0  0  0  0
 17 35  1  0  0  0  0
 17 36  1  0  0  0  0
 18 37  1  0  0  0  0
 18 38  1  0  0  0  0
 19 20  1  0  0  0  0
M  CHG  1   5  -1
M  CHG  1  12   1
M  END
> <s_m_source_file>
AV-unprocessed.smi

> <i_m_source_file_index>
1417

> <i_lp_mmshare_version>
43012

> <i_f3d_flags>
0

> <s_epik_input>
W0NIM11jMVtjSF1jKG5vMSlbTkhdQyg9TylbTkhdW0NIXTJbQ0gyXVtDSDJdTihbQ0gyXVtDSDJdMilbQ0gyXUMoPU8pW05IMl0=

> <s_epik_cmdline>
J2VwaWtfcHl0aG9uJywgJy1waCcsICc3LjAnLCAnLXRuJywgJzgnLCAnLW1hJywgJzIwMCcsICctbWV0YWxfYmluZGluZycsICctaW1hZScsICc8aW5maWxlLm1hZT4nLCAnLW9tYWUnLCAnPG91dGZpbGUubWFlPic=

> <r_epik_Ionization_Penalty>
7.07562

> <r_epik_Ionization_Penalty_Charging>
7.07548

> <r_epik_Ionization_Penalty_Neutral>
0.00013758

> <r_epik_State_Penalty>
7.16607

> <r_epik_Charging_Adjusted_Penalty>
14.2416

> <i_epik_Tot_Q>
0

> <i_epik_Tot_abs_Q>
2

> <r_epik_Metal_State_Penalty>
3.11438

> <b_epik_Metal_Only>
1

> <s_lp_Force_Field>
OPLS_2005

> <r_lp_Energy>
2.10932

> <b_lp_Chiralities_Consistent>
1

> <s_lp_Variant>
AV-unprocessed.smi:1417-6

> <Gold.Version>
5.8.1

> <Gold.Id.Protein>
6NUR|6NUR_protein|mol2

> <Gold.PLP.Fitness>
45.8164

> <Gold.PLP.PLP>
-29.4334

> <Gold.PLP.part.hbond>
-6.7751

> <Gold.PLP.part.metal>
0.0000

> <Gold.PLP.part.buried>
-0.8075

> <Gold.PLP.part.nonpolar>
-23.2015

> <Gold.PLP.part.repulsive>
0.4768

> <Gold.PLP.ligand.clash>
0.0000

> <Gold.PLP.ligand.torsion>
0.8309

> <Gold.PLP.Chemscore.Hbond>
6.0000

> <Gold.PLP.Chemscore.CHOScore>
0.0000

> <Gold.PLP.Chemscore.Metal>
0.0000

> <Gold.Chemscore.Hbonds>
donor molecule, donor type, donor heavy atom, donor atom, acceptor molecule, acceptor atom, score
      L1  H     8    25       P1  7957  1.00
      L1  H    12    39       P1 10175  2.00
      L1  H    15    34       P1 10175  1.00
      P1  H  7989  7998       L1     5  1.00
      P1  H  7997  8008       L1    20  0.90

> <Gold.PLP.Chemscore.Internal.Correction>
0.0449

> <Gold.Rescore>
     Score         DG    S(hbond)    S(metal)    S(lipo)     H(rot)  DE(clash)    DE(int)     intcor
     16.47     -21.59       4.12        0.00      64.41       2.02       2.94       2.18       ----

> <Gold.Chemscore.Fitness>
16.4714

> <Gold.Chemscore.DG>
-21.5875

> <Gold.Chemscore.ZeroCoef>
-5.4800

> <Gold.Chemscore.Hbond>
4.1161

> <Gold.Chemscore.Metal>
0.0000

> <Gold.Chemscore.Lipo>
64.4145

> <Gold.Chemscore.Internal_Hbond>
0.0000

> <Gold.Chemscore.DEClash>
2.9394

> <Gold.Chemscore.DEInternal>
2.1767

> <Gold.Chemscore.Rot>
2.0222

> <Gold.Chemscore.Internal.Correction>
   9.000000E+99

> <Gold.Chemscore.Hbonds>
donor molecule, donor type, donor heavy atom, donor atom, acceptor molecule, acceptor atom, score
      L1  H     8    25       P1  7957  0.99
      L1  H    12    39       P1 10175  0.99
      L1  H    15    34       P1 10175  0.92
      P1  H  7989  7998       L1     5  0.78
      P1  H  7997  8008       L1    20  0.13

> <Gold.Chemscore.Hbond.Weighted>
-13.7479

> <Gold.Chemscore.Metal.Weighted>
-0.0000

> <Gold.Chemscore.Lipo.Weighted>
-7.5365

> <Gold.Chemscore.Internal_Hbond.Weighted>
0.0000

> <Gold.Chemscore.DEClash.Weighted>
2.9394

> <Gold.Chemscore.DEInternal.Weighted>
2.1767

> <Gold.Chemscore.Rot.Weighted>
5.1769

> <Gold.Chemscore.Internal.Correction.Weighted>
   9.000000E+99

> <Gold.Protein.RotatedTorsions>
[ 6907 6896 6895 6894 ] final -168.82 input  -60.11 | X-H torsion
[ 7974 7965 7964 7962 ] final   84.88 input  175.53 | X-H torsion
[ 8008 7997 7996 7995 ] final  -74.40 input   59.86 | X-H torsion
[ 10167 10162 10161 10158 ] final   16.28 input  -65.29 | X-H torsion
[ 10718 10713 10712 10709 ] final  -99.63 input   66.30 | X-H torsion
[ 10763 10752 10751 10750 ] final   67.47 input  -60.55 | X-H torsion
[ 11005 11000 10999 10996 ] final  136.88 input  -57.11 | X-H torsion

> <Gold.Protein.ActiveResidues>
 VAL166  LYS551  ARG553  GLY616  TRP617  ASP618  TYR619  PRO620  LYS621  CYS622 
 ASP623  PHE694  ASN695  SER759  ASP760  ASP761  ALA762  ILE779  LEU786  VAL792 
 PHE793  MET794  SER795  GLU796  ALA797  LYS798  CYS799  TRP800  GLU811  SER814 

> <Gold.Protein.RotatedAtoms>
  151.4817  133.3545  159.2839 H   0  0  0  0  0  0  0  0  0  0  0  0  # atno 6907 bound_to 6896
  150.8892  134.8296  159.7292 H   0  0  0  0  0  0  0  0  0  0  0  0  # atno 6908 bound_to 6896
  152.4812  134.4725  159.9692 H   0  0  0  0  0  0  0  0  0  0  0  0  # atno 6909 bound_to 6896
  145.5928  139.2340  143.2289 H   0  0  0  0  0  0  0  0  0  0  0  0  # atno 7974 bound_to 7965
  154.5327  140.0762  156.8374 H   0  0  0  0  0  0  0  0  0  0  0  0  # atno 8008 bound_to 7997
  155.3341  140.3403  155.4221 H   0  0  0  0  0  0  0  0  0  0  0  0  # atno 8009 bound_to 7997
  156.1798  140.1648  156.8282 H   0  0  0  0  0  0  0  0  0  0  0  0  # atno 8010 bound_to 7997
  140.5808  143.8984  150.6788 H   0  0  0  0  0  0  0  0  0  0  0  0  # atno 10167 bound_to 10162
  156.0139  130.5291  150.6699 H   0  0  0  0  0  0  0  0  0  0  0  0  # atno 10718 bound_to 10713
  153.0188  135.5283  154.6984 H   0  0  0  0  0  0  0  0  0  0  0  0  # atno 10763 bound_to 10752
  154.6100  135.2877  155.0445 H   0  0  0  0  0  0  0  0  0  0  0  0  # atno 10764 bound_to 10752
  154.1471  135.6569  153.5007 H   0  0  0  0  0  0  0  0  0  0  0  0  # atno 10765 bound_to 10752
  140.0076  134.9453  157.0208 H   0  0  0  0  0  0  0  0  0  0  0  0  # atno 11005 bound_to 11000
  146.1634  140.6754  142.9267 LP  0  0  0  0  0  0  0  0  0  0  0  0  # atno 17320 bound_to 7965
  144.7343  140.4764  143.6915 LP  0  0  0  0  0  0  0  0  0  0  0  0  # atno 17321 bound_to 7965
  140.2483  143.3612  152.1428 LP  0  0  0  0  0  0  0  0  0  0  0  0  # atno 17342 bound_to 10162
  139.5169  144.6984  151.5565 LP  0  0  0  0  0  0  0  0  0  0  0  0  # atno 17343 bound_to 10162
  157.4424  131.0863  151.0930 LP  0  0  0  0  0  0  0  0  0  0  0  0  # atno 17370 bound_to 10713
  157.1470  130.6168  149.5571 LP  0  0  0  0  0  0  0  0  0  0  0  0  # atno 17371 bound_to 10713
  140.4613  134.1481  155.7192 LP  0  0  0  0  0  0  0  0  0  0  0  0  # atno 17394 bound_to 11000
  141.1688  133.8650  157.1635 LP  0  0  0  0  0  0  0  0  0  0  0  0  # atno 17395 bound_to 11000

$$$$
