AV-unprocessed.smi:34|AV-procd|sdf|223|dock10
  -GOLD-   2262015543D 1   1.00000     0.00000
 Structure written by MMmdl.
 55 59  0  0  0  0  0  0  0  0  1 V2000
  151.9840  140.5553  158.0044 O   0  0  0  0  0  0  0  0  0  0  0  0
  151.1708  141.4775  157.9382 C   0  0  0  0  0  0  0  0  0  0  0  0
  150.0433  141.4502  157.0228 N   0  0  0  0  0  0  0  0  0  0  0  0
  149.6680  140.4543  156.1860 C   0  0  0  0  0  0  0  0  0  0  0  0
  149.2574  140.6876  154.9119 N   0  0  0  0  0  0  0  0  0  0  0  0
  148.8923  139.6706  154.1267 C   0  0  0  0  0  0  0  0  0  0  0  0
  148.8629  138.3674  154.4115 N   0  0  0  0  0  0  0  0  0  0  0  0
  149.2748  138.1209  155.6884 C   0  0  0  0  0  0  0  0  0  0  0  0
  149.6901  139.1058  156.6288 C   0  0  0  0  0  0  0  0  0  0  0  0
  150.0385  138.4965  157.8265 N   0  0  0  0  0  0  0  0  0  0  0  0
  149.8383  137.2260  157.6036 C   0  0  0  0  0  0  0  0  0  0  0  0
  149.3742  136.9087  156.3460 N   0  0  0  0  0  0  0  0  0  0  0  0
  149.0500  135.5379  155.8283 C   0  0  2  0  0  0  0  0  0  0  0  0
  149.3338  134.5794  156.8061 O   0  0  0  0  0  0  0  0  0  0  0  0
  150.3512  133.6969  156.3405 C   0  0  1  0  0  0  0  0  0  0  0  0
  150.2180  132.3136  156.9890 C   0  0  0  0  0  0  0  0  0  0  0  0
  151.2730  131.4792  156.5379 O   0  0  0  0  0  0  0  0  0  0  0  0
  152.5526  131.8038  156.8075 C   0  0  0  0  0  0  0  0  0  0  0  0
  152.8833  132.6009  157.6878 O   0  0  0  0  0  0  0  0  0  0  0  0
  153.5293  131.0948  155.9311 C   0  0  0  0  0  0  0  0  0  0  0  0
  153.0640  130.1026  155.0368 C   0  0  0  0  0  0  0  0  0  0  0  0
  153.9620  129.4151  154.1973 C   0  0  0  0  0  0  0  0  0  0  0  0
  155.3368  129.7102  154.2428 C   0  0  0  0  0  0  0  0  0  0  0  0
  155.8125  130.6947  155.1283 C   0  0  0  0  0  0  0  0  0  0  0  0
  154.9158  131.3846  155.9676 C   0  0  0  0  0  0  0  0  0  0  0  0
  150.2017  133.7201  154.8188 C   0  0  1  0  0  0  0  0  0  0  0  0
  149.1937  132.9362  154.4296 F   0  0  0  0  0  0  0  0  0  0  0  0
  149.8405  135.1699  154.5549 C   0  0  2  0  0  0  0  0  0  0  0  0
  151.0035  135.9499  154.3374 O   0  0  0  0  0  0  0  0  0  0  0  0
  151.3361  142.7337  158.7434 C   0  0  0  0  0  0  0  0  0  0  0  0
  150.4649  143.8264  158.5342 C   0  0  0  0  0  0  0  0  0  0  0  0
  150.6209  145.0149  159.2735 C   0  0  0  0  0  0  0  0  0  0  0  0
  151.6543  145.1243  160.2226 C   0  0  0  0  0  0  0  0  0  0  0  0
  152.5342  144.0453  160.4294 C   0  0  0  0  0  0  0  0  0  0  0  0
  152.3791  142.8558  159.6910 C   0  0  0  0  0  0  0  0  0  0  0  0
  149.4584  142.2730  157.0198 H   0  0  0  0  0  0  0  0  0  0  0  0
  148.5779  139.9394  153.1290 H   0  0  0  0  0  0  0  0  0  0  0  0
  150.0198  136.4773  158.3611 H   0  0  0  0  0  0  0  0  0  0  0  0
  147.9719  135.5573  155.6629 H   0  0  0  0  0  0  0  0  0  0  0  0
  151.3181  134.1251  156.6060 H   0  0  0  0  0  0  0  0  0  0  0  0
  150.2798  132.4047  158.0740 H   0  0  0  0  0  0  0  0  0  0  0  0
  149.2478  131.8734  156.7544 H   0  0  0  0  0  0  0  0  0  0  0  0
  152.0125  129.8593  154.9837 H   0  0  0  0  0  0  0  0  0  0  0  0
  153.5946  128.6604  153.5178 H   0  0  0  0  0  0  0  0  0  0  0  0
  156.0250  129.1824  153.5992 H   0  0  0  0  0  0  0  0  0  0  0  0
  156.8678  130.9223  155.1648 H   0  0  0  0  0  0  0  0  0  0  0  0
  155.3144  132.1334  156.6362 H   0  0  0  0  0  0  0  0  0  0  0  0
  151.0951  133.3841  154.2906 H   0  0  0  0  0  0  0  0  0  0  0  0
  149.1950  135.2766  153.6825 H   0  0  0  0  0  0  0  0  0  0  0  0
  151.0301  136.1999  153.4263 H   0  0  0  0  0  0  0  0  0  0  0  0
  149.6674  143.7593  157.8082 H   0  0  0  0  0  0  0  0  0  0  0  0
  149.9473  145.8434  159.1109 H   0  0  0  0  0  0  0  0  0  0  0  0
  151.7739  146.0363  160.7886 H   0  0  0  0  0  0  0  0  0  0  0  0
  153.3314  144.1307  161.1532 H   0  0  0  0  0  0  0  0  0  0  0  0
  153.0717  142.0439  159.8593 H   0  0  0  0  0  0  0  0  0  0  0  0
  1  2  2  0  0  0  0
  2  3  1  0  0  0  0
  2 30  1  0  0  0  0
  3  4  1  0  0  0  0
  3 36  1  0  0  0  0
  4  9  1  0  0  0  0
  4  5  2  0  0  0  0
  5  6  1  0  0  0  0
  6  7  2  0  0  0  0
  6 37  1  0  0  0  0
  7  8  1  0  0  0  0
  8 12  1  0  0  0  0
  8  9  2  0  0  0  0
  9 10  1  0  0  0  0
 10 11  2  0  0  0  0
 11 12  1  0  0  0  0
 11 38  1  0  0  0  0
 12 13  1  0  0  0  0
 13 28  1  0  0  0  0
 13 14  1  0  0  0  0
 13 39  1  0  0  0  0
 14 15  1  0  0  0  0
 15 16  1  0  0  0  0
 15 26  1  0  0  0  0
 15 40  1  0  0  0  0
 16 17  1  0  0  0  0
 16 41  1  0  0  0  0
 16 42  1  0  0  0  0
 17 18  1  0  0  0  0
 18 19  2  0  0  0  0
 18 20  1  0  0  0  0
 20 25  1  0  0  0  0
 20 21  2  0  0  0  0
 21 22  1  0  0  0  0
 21 43  1  0  0  0  0
 22 23  2  0  0  0  0
 22 44  1  0  0  0  0
 23 24  1  0  0  0  0
 23 45  1  0  0  0  0
 24 25  2  0  0  0  0
 24 46  1  0  0  0  0
 25 47  1  0  0  0  0
 26 27  1  0  0  0  0
 26 28  1  0  0  0  0
 26 48  1  0  0  0  0
 28 29  1  0  0  0  0
 28 49  1  0  0  0  0
 29 50  1  0  0  0  0
 30 35  1  0  0  0  0
 30 31  2  0  0  0  0
 31 32  1  0  0  0  0
 31 51  1  0  0  0  0
 32 33  2  0  0  0  0
 32 52  1  0  0  0  0
 33 34  1  0  0  0  0
 33 53  1  0  0  0  0
 34 35  2  0  0  0  0
 34 54  1  0  0  0  0
 35 55  1  0  0  0  0
M  END
> <s_m_source_file>
AV-unprocessed.smi

> <i_m_source_file_index>
34

> <i_lp_mmshare_version>
43012

> <i_f3d_flags>
0

> <s_epik_input>
W2NIXTFbY0hdW2NIXVtjSF1bY0hdYzFDKD1PKVtOSF1jKG5bY0hdbjIpYyhjMjMpbltjSF1uM1tDQEBIXTRPW0NASF0oW0NAQEhdKEYpW0NASF00W09IXSlbQ0gyXU9DKD1PKWM1W2NIXVtjSF1bY0hdW2NIXVtjSF01

> <s_epik_cmdline>
J2VwaWtfcHl0aG9uJywgJy1waCcsICc3LjAnLCAnLXRuJywgJzgnLCAnLW1hJywgJzIwMCcsICctbWV0YWxfYmluZGluZycsICctaW1hZScsICc8aW5maWxlLm1hZT4nLCAnLW9tYWUnLCAnPG91dGZpbGUubWFlPic=

> <r_lp_tautomer_probability>
1

> <r_epik_Ionization_Penalty>
0.00257489

> <r_epik_Ionization_Penalty_Charging>
0

> <r_epik_Ionization_Penalty_Neutral>
0.00257489

> <r_epik_State_Penalty>
0.00519398

> <r_epik_Charging_Adjusted_Penalty>
0.00519398

> <i_epik_Tot_Q>
0

> <i_epik_Tot_abs_Q>
0

> <r_epik_Metal_State_Penalty>
0.335891

> <b_epik_Metal_Only>
0

> <s_epik_Chemistry_Notes>
This compound has an ester and may undergo hydrolysis at high or low pH. This compound contains an acetal/aminal-like group ( X-CH(R)-Y where X, Y are N, S, or O) that may be acid/base labile, releasing an aldehyde.

> <s_lp_Force_Field>
OPLS_2005

> <r_lp_Energy>
53.1328

> <b_lp_Chiralities_Consistent>
1

> <s_lp_Variant>
AV-unprocessed.smi:34-9

> <Gold.Version>
5.8.1

> <Gold.Id.Protein>
6NUR|6NUR_protein|mol2

> <Gold.PLP.Fitness>
60.9978

> <Gold.PLP.PLP>
-50.4464

> <Gold.PLP.part.hbond>
-3.2694

> <Gold.PLP.part.metal>
0.0000

> <Gold.PLP.part.buried>
-6.9351

> <Gold.PLP.part.nonpolar>
-40.9559

> <Gold.PLP.part.repulsive>
0.3155

> <Gold.PLP.ligand.clash>
0.0000

> <Gold.PLP.ligand.torsion>
0.6315

> <Gold.PLP.Chemscore.Hbond>
2.8697

> <Gold.PLP.Chemscore.CHOScore>
1.0000

> <Gold.PLP.Chemscore.Metal>
0.0000

> <Gold.Chemscore.Hbonds>
donor molecule, donor type, donor heavy atom, donor atom, acceptor molecule, acceptor atom, score
      L1  H    29    50       P1  7949  1.00
      P1  H  6896  6908       L1    19  0.96
      P1  H 10752 10765       L1    29  0.93
      L1  C     6    37       P1  7957  1.00

> <Gold.PLP.Chemscore.Internal.Correction>
0.2053

> <Gold.Rescore>
     Score         DG    S(hbond)    S(metal)    S(lipo)     H(rot)  DE(clash)    DE(int)     intcor
     15.93     -18.26       1.66        0.00     121.37       2.72       0.58       1.75       ----

> <Gold.Chemscore.Fitness>
15.9252

> <Gold.Chemscore.DG>
-18.2566

> <Gold.Chemscore.ZeroCoef>
-5.4800

> <Gold.Chemscore.Hbond>
1.6597

> <Gold.Chemscore.Metal>
0.0000

> <Gold.Chemscore.Lipo>
121.3709

> <Gold.Chemscore.Internal_Hbond>
0.0000

> <Gold.Chemscore.DEClash>
0.5793

> <Gold.Chemscore.DEInternal>
1.7521

> <Gold.Chemscore.Rot>
2.7215

> <Gold.Chemscore.Internal.Correction>
   9.000000E+99

> <Gold.Chemscore.Hbonds>
donor molecule, donor type, donor heavy atom, donor atom, acceptor molecule, acceptor atom, score
      L1  H    29    50       P1  7949  0.25
      P1  H  6896  6908       L1    19  0.87
      P1  H 10752 10765       L1    29  0.25

> <Gold.Chemscore.Hbond.Weighted>
-5.5432

> <Gold.Chemscore.Metal.Weighted>
-0.0000

> <Gold.Chemscore.Lipo.Weighted>
-14.2004

> <Gold.Chemscore.Internal_Hbond.Weighted>
0.0000

> <Gold.Chemscore.DEClash.Weighted>
0.5793

> <Gold.Chemscore.DEInternal.Weighted>
1.7521

> <Gold.Chemscore.Rot.Weighted>
6.9670

> <Gold.Chemscore.Internal.Correction.Weighted>
   9.000000E+99

> <Gold.Protein.RotatedTorsions>
[ 6907 6896 6895 6894 ] final   27.83 input  -60.11 | X-H torsion
[ 7974 7965 7964 7962 ] final -100.76 input  175.53 | X-H torsion
[ 8008 7997 7996 7995 ] final  -67.45 input   59.86 | X-H torsion
[ 10167 10162 10161 10158 ] final  -56.59 input  -65.29 | X-H torsion
[ 10718 10713 10712 10709 ] final -111.13 input   66.30 | X-H torsion
[ 10763 10752 10751 10750 ] final -171.82 input  -60.55 | X-H torsion
[ 11005 11000 10999 10996 ] final    3.09 input  -57.11 | X-H torsion

> <Gold.Protein.ActiveResidues>
 VAL166  LYS551  ARG553  GLY616  TRP617  ASP618  TYR619  PRO620  LYS621  CYS622 
 ASP623  PHE694  ASN695  SER759  ASP760  ASP761  ALA762  ILE779  LEU786  VAL792 
 PHE793  MET794  SER795  GLU796  ALA797  LYS798  CYS799  TRP800  GLU811  SER814 

> <Gold.Protein.RotatedAtoms>
  152.0080  134.9892  160.0567 H   0  0  0  0  0  0  0  0  0  0  0  0  # atno 6907 bound_to 6896
  152.1456  133.4485  159.4796 H   0  0  0  0  0  0  0  0  0  0  0  0  # atno 6908 bound_to 6896
  150.6870  134.2170  159.4425 H   0  0  0  0  0  0  0  0  0  0  0  0  # atno 6909 bound_to 6896
  145.2904  140.9351  143.2881 H   0  0  0  0  0  0  0  0  0  0  0  0  # atno 7974 bound_to 7965
  154.4801  140.0892  156.7356 H   0  0  0  0  0  0  0  0  0  0  0  0  # atno 8008 bound_to 7997
  155.4494  140.3457  155.4281 H   0  0  0  0  0  0  0  0  0  0  0  0  # atno 8009 bound_to 7997
  156.1177  140.1465  156.9237 H   0  0  0  0  0  0  0  0  0  0  0  0  # atno 8010 bound_to 7997
  140.6308  143.2458  151.5246 H   0  0  0  0  0  0  0  0  0  0  0  0  # atno 10167 bound_to 10162
  156.0630  130.5851  150.8332 H   0  0  0  0  0  0  0  0  0  0  0  0  # atno 10718 bound_to 10713
  154.6263  135.2881  155.0268 H   0  0  0  0  0  0  0  0  0  0  0  0  # atno 10763 bound_to 10752
  154.1445  135.6513  153.4953 H   0  0  0  0  0  0  0  0  0  0  0  0  # atno 10764 bound_to 10752
  153.0259  135.5341  154.7072 H   0  0  0  0  0  0  0  0  0  0  0  0  # atno 10765 bound_to 10752
  140.5970  133.9871  155.8114 H   0  0  0  0  0  0  0  0  0  0  0  0  # atno 11005 bound_to 11000
  144.9178  139.4449  143.6556 LP  0  0  0  0  0  0  0  0  0  0  0  0  # atno 17320 bound_to 7965
  146.3187  139.8021  142.8963 LP  0  0  0  0  0  0  0  0  0  0  0  0  # atno 17321 bound_to 7965
  139.5522  144.2366  152.1551 LP  0  0  0  0  0  0  0  0  0  0  0  0  # atno 17342 bound_to 10162
  140.1609  144.5027  150.6633 LP  0  0  0  0  0  0  0  0  0  0  0  0  # atno 17343 bound_to 10162
  157.5652  131.0946  150.9501 LP  0  0  0  0  0  0  0  0  0  0  0  0  # atno 17370 bound_to 10713
  156.9729  130.5498  149.5291 LP  0  0  0  0  0  0  0  0  0  0  0  0  # atno 17371 bound_to 10713
  141.0898  133.9935  157.3256 LP  0  0  0  0  0  0  0  0  0  0  0  0  # atno 17394 bound_to 11000
  139.9249  135.0201  156.8198 LP  0  0  0  0  0  0  0  0  0  0  0  0  # atno 17395 bound_to 11000

$$$$
