AV-unprocessed.smi:15|AV-procd|sdf|81|dock2
  -GOLD-   2262015213D 1   1.00000     0.00000
 Structure written by MMmdl.
 53 56  0  0  0  0  0  0  0  0  1 V2000
  149.7327  140.9031  155.0835 C   0  0  0  0  0  0  0  0  0  0  0  0
  149.1892  140.5791  156.4818 C   0  0  0  0  0  0  0  0  0  0  0  0
  150.2393  140.4730  157.4991 N   0  0  0  0  0  0  0  0  0  0  0  0
  151.4996  141.1965  157.3086 C   0  0  0  0  0  0  0  0  0  0  0  0
  151.4464  142.6536  157.8034 C   0  0  2  0  0  0  0  0  0  0  0  0
  152.8094  143.3403  157.8109 C   0  0  0  0  0  0  0  0  0  0  0  0
  152.6366  144.4515  158.8336 C   0  0  0  0  0  0  0  0  0  0  0  0
  151.4074  144.0233  159.6409 C   0  0  0  0  0  0  0  0  0  0  0  0
  151.0890  142.7193  159.1748 O   0  0  0  0  0  0  0  0  0  0  0  0
  150.3727  139.2691  158.1157 C   0  0  0  0  0  0  0  0  0  0  0  0
  151.6140  138.8023  158.4191 N   0  0  0  0  0  0  0  0  0  0  0  0
  151.7617  137.6363  159.0542 C   0  0  0  0  0  0  0  0  0  0  0  0
  150.8199  136.7881  159.4697 N   0  0  0  0  0  0  0  0  0  0  0  0
  149.5726  137.2427  159.1585 C   0  0  0  0  0  0  0  0  0  0  0  0
  149.2613  138.4623  158.4925 C   0  0  0  0  0  0  0  0  0  0  0  0
  147.8835  138.5848  158.3537 N   0  0  0  0  0  0  0  0  0  0  0  0
  147.4086  137.5072  158.9158 C   0  0  0  0  0  0  0  0  0  0  0  0
  148.3535  136.6390  159.4139 N   0  0  0  0  0  0  0  0  0  0  0  0
  148.1042  135.3716  160.0838 C   0  0  0  0  0  0  0  0  0  0  0  0
  146.9445  135.4085  161.1159 C   0  0  2  0  0  0  0  0  0  0  0  0
  145.7168  135.4630  160.4110 O   0  0  0  0  0  0  0  0  0  0  0  0
  147.0092  136.5876  162.0807 C   0  0  0  0  0  0  0  0  0  0  0  0
  147.9463  136.0673  163.1588 C   0  0  0  0  0  0  0  0  0  0  0  0
  147.5625  134.7088  163.3098 O   0  0  0  0  0  0  0  0  0  0  0  0
  147.0266  134.2019  162.0863 C   0  0  1  0  0  0  0  0  0  0  0  0
  145.6860  133.5332  162.4367 C   0  0  0  0  0  0  0  0  0  0  0  0
  148.9126  141.0589  154.3826 H   0  0  0  0  0  0  0  0  0  0  0  0
  150.3444  140.0922  154.6889 H   0  0  0  0  0  0  0  0  0  0  0  0
  150.3363  141.8111  155.0956 H   0  0  0  0  0  0  0  0  0  0  0  0
  148.4964  141.3733  156.7642 H   0  0  0  0  0  0  0  0  0  0  0  0
  148.6090  139.6567  156.4524 H   0  0  0  0  0  0  0  0  0  0  0  0
  152.3128  140.6638  157.8004 H   0  0  0  0  0  0  0  0  0  0  0  0
  151.7631  141.1967  156.2520 H   0  0  0  0  0  0  0  0  0  0  0  0
  150.7451  143.2469  157.2136 H   0  0  0  0  0  0  0  0  0  0  0  0
  153.5781  142.6455  158.1526 H   0  0  0  0  0  0  0  0  0  0  0  0
  153.1015  143.7089  156.8271 H   0  0  0  0  0  0  0  0  0  0  0  0
  153.5234  144.5532  159.4598 H   0  0  0  0  0  0  0  0  0  0  0  0
  152.4555  145.4107  158.3473 H   0  0  0  0  0  0  0  0  0  0  0  0
  151.5925  144.0174  160.7152 H   0  0  0  0  0  0  0  0  0  0  0  0
  150.5674  144.6909  159.4436 H   0  0  0  0  0  0  0  0  0  0  0  0
  152.7800  137.3421  159.2607 H   0  0  0  0  0  0  0  0  0  0  0  0
  146.3479  137.3098  158.9749 H   0  0  0  0  0  0  0  0  0  0  0  0
  147.8988  134.6201  159.3201 H   0  0  0  0  0  0  0  0  0  0  0  0
  149.0322  135.0599  160.5646 H   0  0  0  0  0  0  0  0  0  0  0  0
  145.4302  136.3627  160.3769 H   0  0  0  0  0  0  0  0  0  0  0  0
  147.3422  137.5242  161.6367 H   0  0  0  0  0  0  0  0  0  0  0  0
  146.0293  136.7698  162.5252 H   0  0  0  0  0  0  0  0  0  0  0  0
  148.9854  136.1186  162.8318 H   0  0  0  0  0  0  0  0  0  0  0  0
  147.8557  136.6147  164.0969 H   0  0  0  0  0  0  0  0  0  0  0  0
  147.7036  133.4408  161.6957 H   0  0  0  0  0  0  0  0  0  0  0  0
  145.2264  133.0782  161.5587 H   0  0  0  0  0  0  0  0  0  0  0  0
  144.9808  134.2517  162.8555 H   0  0  0  0  0  0  0  0  0  0  0  0
  145.8295  132.7437  163.1746 H   0  0  0  0  0  0  0  0  0  0  0  0
  1  2  1  0  0  0  0
  1 27  1  0  0  0  0
  1 28  1  0  0  0  0
  1 29  1  0  0  0  0
  2  3  1  0  0  0  0
  2 30  1  0  0  0  0
  2 31  1  0  0  0  0
  3  4  1  0  0  0  0
  3 10  1  0  0  0  0
  4  5  1  0  0  0  0
  4 32  1  0  0  0  0
  4 33  1  0  0  0  0
  5  9  1  0  0  0  0
  5  6  1  0  0  0  0
  5 34  1  0  0  0  0
  6  7  1  0  0  0  0
  6 35  1  0  0  0  0
  6 36  1  0  0  0  0
  7  8  1  0  0  0  0
  7 37  1  0  0  0  0
  7 38  1  0  0  0  0
  8  9  1  0  0  0  0
  8 39  1  0  0  0  0
  8 40  1  0  0  0  0
 10 15  1  0  0  0  0
 10 11  2  0  0  0  0
 11 12  1  0  0  0  0
 12 13  2  0  0  0  0
 12 41  1  0  0  0  0
 13 14  1  0  0  0  0
 14 18  1  0  0  0  0
 14 15  2  0  0  0  0
 15 16  1  0  0  0  0
 16 17  2  0  0  0  0
 17 18  1  0  0  0  0
 17 42  1  0  0  0  0
 18 19  1  0  0  0  0
 19 20  1  0  0  0  0
 19 43  1  0  0  0  0
 19 44  1  0  0  0  0
 20 25  1  0  0  0  0
 20 21  1  0  0  0  0
 20 22  1  0  0  0  0
 21 45  1  0  0  0  0
 22 23  1  0  0  0  0
 22 46  1  0  0  0  0
 22 47  1  0  0  0  0
 23 24  1  0  0  0  0
 23 48  1  0  0  0  0
 23 49  1  0  0  0  0
 24 25  1  0  0  0  0
 25 26  1  0  0  0  0
 25 50  1  0  0  0  0
 26 51  1  0  0  0  0
 26 52  1  0  0  0  0
 26 53  1  0  0  0  0
M  END
> <s_m_source_file>
AV-unprocessed.smi

> <i_m_source_file_index>
15

> <i_lp_mmshare_version>
43012

> <i_f3d_flags>
0

> <s_epik_input>
TzFbQ0gyXVtDSDJdW0NIMl1bQ0BIXTFbQ0gyXU4oW0NIMl1bQ0gzXSljKG5bY0hdbjIpYyhjMjMpbltjSF1uM1tDSDJdW0NAQF00KFtPSF0pW0NIMl1bQ0gyXU9bQ0BIXTRbQ0gzXQ==

> <s_epik_cmdline>
J2VwaWtfcHl0aG9uJywgJy1waCcsICc3LjAnLCAnLXRuJywgJzgnLCAnLW1hJywgJzIwMCcsICctbWV0YWxfYmluZGluZycsICctaW1hZScsICc8aW5maWxlLm1hZT4nLCAnLW9tYWUnLCAnPG91dGZpbGUubWFlPic=

> <r_lp_tautomer_probability>
1

> <r_epik_Ionization_Penalty>
0.00360814

> <r_epik_Ionization_Penalty_Charging>
0

> <r_epik_Ionization_Penalty_Neutral>
0.00360814

> <r_epik_State_Penalty>
0.00237482

> <r_epik_Charging_Adjusted_Penalty>
0.00237482

> <i_epik_Tot_Q>
0

> <i_epik_Tot_abs_Q>
0

> <r_epik_Metal_State_Penalty>
-0

> <b_epik_Metal_Only>
0

> <s_lp_Force_Field>
OPLS_2005

> <r_lp_Energy>
47.2651

> <b_lp_Chiralities_Consistent>
1

> <s_lp_Variant>
AV-unprocessed.smi:15-3

> <Gold.Version>
5.8.1

> <Gold.Id.Protein>
6NUR|6NUR_protein|mol2

> <Gold.PLP.Fitness>
50.4087

> <Gold.PLP.PLP>
-48.6636

> <Gold.PLP.part.hbond>
-2.5692

> <Gold.PLP.part.metal>
0.0000

> <Gold.PLP.part.buried>
-6.7247

> <Gold.PLP.part.nonpolar>
-39.9852

> <Gold.PLP.part.repulsive>
0.0787

> <Gold.PLP.ligand.clash>
0.0000

> <Gold.PLP.ligand.torsion>
1.0950

> <Gold.PLP.Chemscore.Hbond>
0.9913

> <Gold.PLP.Chemscore.CHOScore>
0.0000

> <Gold.PLP.Chemscore.Metal>
0.0000

> <Gold.Chemscore.Hbonds>
donor molecule, donor type, donor heavy atom, donor atom, acceptor molecule, acceptor atom, score
      P1  H  6896  6909       L1    13  1.00

> <Gold.PLP.Chemscore.Internal.Correction>
0.9614

> <Gold.Rescore>
     Score         DG    S(hbond)    S(metal)    S(lipo)     H(rot)  DE(clash)    DE(int)     intcor
     12.72     -15.10       0.88        0.00     110.50       2.44       0.07       2.31       ----

> <Gold.Chemscore.Fitness>
12.7189

> <Gold.Chemscore.DG>
-15.0992

> <Gold.Chemscore.ZeroCoef>
-5.4800

> <Gold.Chemscore.Hbond>
0.8818

> <Gold.Chemscore.Metal>
0.0000

> <Gold.Chemscore.Lipo>
110.4996

> <Gold.Chemscore.Internal_Hbond>
0.0000

> <Gold.Chemscore.DEClash>
0.0721

> <Gold.Chemscore.DEInternal>
2.3082

> <Gold.Chemscore.Rot>
2.4431

> <Gold.Chemscore.Internal.Correction>
   9.000000E+99

> <Gold.Chemscore.Hbonds>
donor molecule, donor type, donor heavy atom, donor atom, acceptor molecule, acceptor atom, score
      P1  H  6896  6909       L1    13  0.98

> <Gold.Chemscore.Hbond.Weighted>
-2.9452

> <Gold.Chemscore.Metal.Weighted>
-0.0000

> <Gold.Chemscore.Lipo.Weighted>
-12.9285

> <Gold.Chemscore.Internal_Hbond.Weighted>
0.0000

> <Gold.Chemscore.DEClash.Weighted>
0.0721

> <Gold.Chemscore.DEInternal.Weighted>
2.3082

> <Gold.Chemscore.Rot.Weighted>
6.2544

> <Gold.Chemscore.Internal.Correction.Weighted>
   9.000000E+99

> <Gold.Protein.RotatedTorsions>
[ 6907 6896 6895 6894 ] final   96.24 input  -60.11 | X-H torsion
[ 7974 7965 7964 7962 ] final   -0.76 input  175.53 | X-H torsion
[ 8008 7997 7996 7995 ] final  -68.34 input   59.86 | X-H torsion
[ 10167 10162 10161 10158 ] final    8.44 input  -65.29 | X-H torsion
[ 10718 10713 10712 10709 ] final  -87.43 input   66.30 | X-H torsion
[ 10763 10752 10751 10750 ] final -145.75 input  -60.55 | X-H torsion
[ 11005 11000 10999 10996 ] final   19.67 input  -57.11 | X-H torsion

> <Gold.Protein.ActiveResidues>
 VAL166  LYS551  ARG553  GLY616  TRP617  ASP618  TYR619  PRO620  LYS621  CYS622 
 ASP623  PHE694  ASN695  SER759  ASP760  ASP761  ALA762  ILE779  LEU786  VAL792 
 PHE793  MET794  SER795  GLU796  ALA797  LYS798  CYS799  TRP800  GLU811  SER814 

> <Gold.Protein.RotatedAtoms>
  152.5437  134.0917  159.8279 H   0  0  0  0  0  0  0  0  0  0  0  0  # atno 6907 bound_to 6896
  151.1006  133.5239  159.2617 H   0  0  0  0  0  0  0  0  0  0  0  0  # atno 6908 bound_to 6896
  151.1996  135.0446  159.8921 H   0  0  0  0  0  0  0  0  0  0  0  0  # atno 6909 bound_to 6896
  146.2424  140.1318  142.8337 H   0  0  0  0  0  0  0  0  0  0  0  0  # atno 7974 bound_to 7965
  154.4861  140.0875  156.7490 H   0  0  0  0  0  0  0  0  0  0  0  0  # atno 8008 bound_to 7997
  155.4346  140.3451  155.4265 H   0  0  0  0  0  0  0  0  0  0  0  0  # atno 8009 bound_to 7997
  156.1264  140.1488  156.9118 H   0  0  0  0  0  0  0  0  0  0  0  0  # atno 8010 bound_to 7997
  140.6314  143.7985  150.7300 H   0  0  0  0  0  0  0  0  0  0  0  0  # atno 10167 bound_to 10162
  155.9985  130.4800  150.4867 H   0  0  0  0  0  0  0  0  0  0  0  0  # atno 10718 bound_to 10713
  154.8369  135.3405  154.6553 H   0  0  0  0  0  0  0  0  0  0  0  0  # atno 10763 bound_to 10752
  153.7167  135.6960  153.5028 H   0  0  0  0  0  0  0  0  0  0  0  0  # atno 10764 bound_to 10752
  153.2412  135.4384  155.0652 H   0  0  0  0  0  0  0  0  0  0  0  0  # atno 10765 bound_to 10752
  140.4111  134.1617  155.7667 H   0  0  0  0  0  0  0  0  0  0  0  0  # atno 11005 bound_to 11000
  145.0320  140.8878  143.5104 LP  0  0  0  0  0  0  0  0  0  0  0  0  # atno 17320 bound_to 7965
  145.1383  139.2588  143.5503 LP  0  0  0  0  0  0  0  0  0  0  0  0  # atno 17321 bound_to 7965
  140.1597  143.4286  152.2075 LP  0  0  0  0  0  0  0  0  0  0  0  0  # atno 17342 bound_to 10162
  139.5528  144.7350  151.4384 LP  0  0  0  0  0  0  0  0  0  0  0  0  # atno 17343 bound_to 10162
  157.2866  131.0618  151.2162 LP  0  0  0  0  0  0  0  0  0  0  0  0  # atno 17370 bound_to 10713
  157.3189  130.6927  149.6258 LP  0  0  0  0  0  0  0  0  0  0  0  0  # atno 17371 bound_to 10713
  141.1820  133.8393  157.1222 LP  0  0  0  0  0  0  0  0  0  0  0  0  # atno 17394 bound_to 11000
  140.0266  134.9921  157.0699 LP  0  0  0  0  0  0  0  0  0  0  0  0  # atno 17395 bound_to 11000

$$$$
