AV-unprocessed.smi:3244|AV-procd|sdf|12398|dock9
  -GOLD-   2272018273D 1   1.00000     0.00000
 Structure written by MMmdl.
 41 42  0  0  0  0  0  0  0  0  2 V2000
  151.6433  145.5171  160.0869 C   0  0  0  0  0  0  0  0  0  0  0  0
  152.7078  144.6528  159.3914 C   0  0  0  0  0  0  0  0  0  0  0  0
  152.1305  143.4368  158.7988 N   0  0  0  0  0  0  0  0  0  0  0  0
  151.4604  143.4284  157.6184 C   0  0  0  0  0  0  0  0  0  0  0  0
  151.4562  144.3977  156.8571 O   0  0  0  0  0  0  0  0  0  0  0  0
  150.6586  142.1774  157.2205 C   0  0  0  0  0  0  0  0  0  0  0  0
  150.2724  142.1905  155.7927 N   0  3  0  0  0  0  0  0  0  0  0  0
  149.5197  141.0048  155.3231 C   0  0  2  0  0  0  0  0  0  0  0  0
  150.4743  139.8597  154.9461 C   0  0  0  0  0  0  0  0  0  0  0  0
  148.6206  141.3846  154.1302 C   0  0  0  0  0  0  0  0  0  0  0  0
  147.4092  142.0690  154.5476 N   0  0  0  0  0  0  0  0  0  0  0  0
  146.4218  142.6215  153.7594 C   0  0  0  0  0  0  0  0  0  0  0  0
  145.4797  143.1461  154.5973 C   0  0  0  0  0  0  0  0  0  0  0  0
  145.9853  142.8618  155.8965 C   0  0  0  0  0  0  0  0  0  0  0  0
  147.1396  142.2154  155.8633 N   0  0  0  0  0  0  0  0  0  0  0  0
  152.1594  142.3077  159.6923 C   0  0  0  0  0  0  0  0  0  0  0  0
  152.6669  142.5032  161.1055 C   0  0  0  0  0  0  0  0  0  0  0  0
  153.4735  141.6844  160.1312 C   0  0  0  0  0  0  0  0  0  0  0  0
  152.0960  146.4091  160.5202 H   0  0  0  0  0  0  0  0  0  0  0  0
  151.1611  144.9684  160.8964 H   0  0  0  0  0  0  0  0  0  0  0  0
  150.8635  145.8450  159.4010 H   0  0  0  0  0  0  0  0  0  0  0  0
  153.2408  145.2420  158.6453 H   0  0  0  0  0  0  0  0  0  0  0  0
  153.4697  144.3827  160.1235 H   0  0  0  0  0  0  0  0  0  0  0  0
  151.2402  141.2797  157.4211 H   0  0  0  0  0  0  0  0  0  0  0  0
  149.7552  142.1363  157.8302 H   0  0  0  0  0  0  0  0  0  0  0  0
  149.6780  142.9967  155.6562 H   0  0  0  0  0  0  0  0  0  0  0  0
  148.8725  140.6635  156.1326 H   0  0  0  0  0  0  0  0  0  0  0  0
  149.9202  138.9931  154.5844 H   0  0  0  0  0  0  0  0  0  0  0  0
  151.0652  139.5273  155.7994 H   0  0  0  0  0  0  0  0  0  0  0  0
  151.1652  140.1621  154.1585 H   0  0  0  0  0  0  0  0  0  0  0  0
  149.1600  142.0163  153.4224 H   0  0  0  0  0  0  0  0  0  0  0  0
  148.3255  140.4883  153.5827 H   0  0  0  0  0  0  0  0  0  0  0  0
  146.4699  142.5953  152.6806 H   0  0  0  0  0  0  0  0  0  0  0  0
  144.5682  143.6569  154.3239 H   0  0  0  0  0  0  0  0  0  0  0  0
  145.5508  143.1033  156.8556 H   0  0  0  0  0  0  0  0  0  0  0  0
  151.3305  141.6114  159.5795 H   0  0  0  0  0  0  0  0  0  0  0  0
  153.0589  143.4816  161.3770 H   0  0  0  0  0  0  0  0  0  0  0  0
  152.1496  141.9721  161.9019 H   0  0  0  0  0  0  0  0  0  0  0  0
  153.4924  140.6062  160.2769 H   0  0  0  0  0  0  0  0  0  0  0  0
  154.4088  142.1215  159.7872 H   0  0  0  0  0  0  0  0  0  0  0  0
  151.0979  142.3112  155.2236 H   0  0  0  0  0  0  0  0  0  0  0  0
  1  2  1  0  0  0  0
  1 19  1  0  0  0  0
  1 20  1  0  0  0  0
  1 21  1  0  0  0  0
  2  3  1  0  0  0  0
  2 22  1  0  0  0  0
  2 23  1  0  0  0  0
  3  4  1  0  0  0  0
  3 16  1  0  0  0  0
  4  5  2  0  0  0  0
  4  6  1  0  0  0  0
  6  7  1  0  0  0  0
  6 24  1  0  0  0  0
  6 25  1  0  0  0  0
  7  8  1  0  0  0  0
  7 26  1  0  0  0  0
  7 41  1  0  0  0  0
  8  9  1  0  0  0  0
  8 10  1  0  0  0  0
  8 27  1  0  0  0  0
  9 28  1  0  0  0  0
  9 29  1  0  0  0  0
  9 30  1  0  0  0  0
 10 11  1  0  0  0  0
 10 31  1  0  0  0  0
 10 32  1  0  0  0  0
 11 15  1  0  0  0  0
 11 12  1  0  0  0  0
 12 13  2  0  0  0  0
 12 33  1  0  0  0  0
 13 14  1  0  0  0  0
 13 34  1  0  0  0  0
 14 15  2  0  0  0  0
 14 35  1  0  0  0  0
 16 18  1  0  0  0  0
 16 17  1  0  0  0  0
 16 36  1  0  0  0  0
 17 18  1  0  0  0  0
 17 37  1  0  0  0  0
 17 38  1  0  0  0  0
 18 39  1  0  0  0  0
 18 40  1  0  0  0  0
M  CHG  1   7   1
M  END
> <s_m_source_file>
AV-unprocessed.smi

> <i_m_source_file_index>
3244

> <i_lp_mmshare_version>
43012

> <i_f3d_flags>
0

> <s_epik_input>
W0NIMl0xW0NIMl1bQ0hdMU4oW0NIMl1bQ0gzXSlDKD1PKVtDSDJdW05IXVtDQEhdKFtDSDNdKVtDSDJdbjJbY0hdW2NIXVtjSF1uMg==

> <s_epik_cmdline>
J2VwaWtfcHl0aG9uJywgJy1waCcsICc3LjAnLCAnLXRuJywgJzgnLCAnLW1hJywgJzIwMCcsICctbWV0YWxfYmluZGluZycsICctaW1hZScsICc8aW5maWxlLm1hZT4nLCAnLW9tYWUnLCAnPG91dGZpbGUubWFlPic=

> <r_lp_tautomer_probability>
1

> <r_epik_Ionization_Penalty>
0.115625

> <r_epik_Ionization_Penalty_Charging>
0.115622

> <r_epik_Ionization_Penalty_Neutral>
3.43793e-06

> <r_epik_State_Penalty>
0.105255

> <r_epik_Charging_Adjusted_Penalty>
0.220877

> <i_epik_Tot_Q>
1

> <i_epik_Tot_abs_Q>
1

> <r_epik_Metal_State_Penalty>
0.105264

> <b_epik_Metal_Only>
0

> <s_lp_Force_Field>
OPLS_2005

> <r_lp_Energy>
33.3923

> <b_lp_Chiralities_Consistent>
1

> <s_lp_Variant>
AV-unprocessed.smi:3244-1

> <Gold.Version>
5.8.1

> <Gold.Id.Protein>
6NUR|6NUR_protein|mol2

> <Gold.PLP.Fitness>
48.6192

> <Gold.PLP.PLP>
-44.5876

> <Gold.PLP.part.hbond>
-1.0000

> <Gold.PLP.part.metal>
0.0000

> <Gold.PLP.part.buried>
-4.5308

> <Gold.PLP.part.nonpolar>
-41.4377

> <Gold.PLP.part.repulsive>
3.0831

> <Gold.PLP.ligand.clash>
0.0121

> <Gold.PLP.ligand.torsion>
1.1373

> <Gold.PLP.Chemscore.Hbond>
2.0000

> <Gold.PLP.Chemscore.CHOScore>
0.0000

> <Gold.PLP.Chemscore.Metal>
0.0000

> <Gold.Chemscore.Hbonds>
donor molecule, donor type, donor heavy atom, donor atom, acceptor molecule, acceptor atom, score
      L1  H     7    26       P1  8028  2.00

> <Gold.PLP.Chemscore.Internal.Correction>
0.3183

> <Gold.Rescore>
     Score         DG    S(hbond)    S(metal)    S(lipo)     H(rot)  DE(clash)    DE(int)     intcor
     12.59     -15.19       1.00        0.00      99.24       2.04       1.40       1.20       ----

> <Gold.Chemscore.Fitness>
12.5949

> <Gold.Chemscore.DG>
-15.1882

> <Gold.Chemscore.ZeroCoef>
-5.4800

> <Gold.Chemscore.Hbond>
0.9968

> <Gold.Chemscore.Metal>
0.0000

> <Gold.Chemscore.Lipo>
99.2422

> <Gold.Chemscore.Internal_Hbond>
0.0000

> <Gold.Chemscore.DEClash>
1.3958

> <Gold.Chemscore.DEInternal>
1.1975

> <Gold.Chemscore.Rot>
2.0440

> <Gold.Chemscore.Internal.Correction>
   9.000000E+99

> <Gold.Chemscore.Hbonds>
donor molecule, donor type, donor heavy atom, donor atom, acceptor molecule, acceptor atom, score
      L1  H     7    26       P1  8028  1.00

> <Gold.Chemscore.Hbond.Weighted>
-3.3294

> <Gold.Chemscore.Metal.Weighted>
-0.0000

> <Gold.Chemscore.Lipo.Weighted>
-11.6113

> <Gold.Chemscore.Internal_Hbond.Weighted>
0.0000

> <Gold.Chemscore.DEClash.Weighted>
1.3958

> <Gold.Chemscore.DEInternal.Weighted>
1.1975

> <Gold.Chemscore.Rot.Weighted>
5.2325

> <Gold.Chemscore.Internal.Correction.Weighted>
   9.000000E+99

> <Gold.Protein.RotatedTorsions>
[ 6907 6896 6895 6894 ] final -105.56 input  -60.11 | X-H torsion
[ 7974 7965 7964 7962 ] final   68.81 input  175.53 | X-H torsion
[ 8008 7997 7996 7995 ] final   29.33 input   59.86 | X-H torsion
[ 10167 10162 10161 10158 ] final -109.32 input  -65.29 | X-H torsion
[ 10718 10713 10712 10709 ] final  109.11 input   66.30 | X-H torsion
[ 10763 10752 10751 10750 ] final  -39.36 input  -60.55 | X-H torsion
[ 11005 11000 10999 10996 ] final  167.21 input  -57.11 | X-H torsion

> <Gold.Protein.ActiveResidues>
 VAL166  LYS551  ARG553  GLY616  TRP617  ASP618  TYR619  PRO620  LYS621  CYS622 
 ASP623  PHE694  ASN695  SER759  ASP760  ASP761  ALA762  ILE779  LEU786  VAL792 
 PHE793  MET794  SER795  GLU796  ALA797  LYS798  CYS799  TRP800  GLU811  SER814 

> <Gold.Protein.RotatedAtoms>
  150.7343  134.0108  159.3668 H   0  0  0  0  0  0  0  0  0  0  0  0  # atno 6907 bound_to 6896
  151.8068  135.0690  160.0417 H   0  0  0  0  0  0  0  0  0  0  0  0  # atno 6908 bound_to 6896
  152.3102  133.5708  159.5712 H   0  0  0  0  0  0  0  0  0  0  0  0  # atno 6909 bound_to 6896
  145.7980  139.2968  143.1171 H   0  0  0  0  0  0  0  0  0  0  0  0  # atno 7974 bound_to 7965
  155.0727  140.3202  155.4625 H   0  0  0  0  0  0  0  0  0  0  0  0  # atno 8008 bound_to 7997
  156.2786  140.2109  156.5800 H   0  0  0  0  0  0  0  0  0  0  0  0  # atno 8009 bound_to 7997
  154.7042  140.0504  157.0475 H   0  0  0  0  0  0  0  0  0  0  0  0  # atno 8010 bound_to 7997
  140.1566  143.4155  152.1456 H   0  0  0  0  0  0  0  0  0  0  0  0  # atno 10167 bound_to 10162
  157.6556  131.0907  150.6405 H   0  0  0  0  0  0  0  0  0  0  0  0  # atno 10718 bound_to 10713
  153.9282  135.6775  153.4746 H   0  0  0  0  0  0  0  0  0  0  0  0  # atno 10763 bound_to 10752
  153.0993  135.4835  154.8835 H   0  0  0  0  0  0  0  0  0  0  0  0  # atno 10764 bound_to 10752
  154.7442  135.3168  154.8631 H   0  0  0  0  0  0  0  0  0  0  0  0  # atno 10765 bound_to 10752
  140.2744  134.7800  157.3704 H   0  0  0  0  0  0  0  0  0  0  0  0  # atno 11005 bound_to 11000
  145.9907  140.8605  143.0068 LP  0  0  0  0  0  0  0  0  0  0  0  0  # atno 17320 bound_to 7965
  144.6772  140.2212  143.7366 LP  0  0  0  0  0  0  0  0  0  0  0  0  # atno 17321 bound_to 7965
  139.5401  144.7248  151.4763 LP  0  0  0  0  0  0  0  0  0  0  0  0  # atno 17342 bound_to 10162
  140.6669  143.8378  150.6953 LP  0  0  0  0  0  0  0  0  0  0  0  0  # atno 17343 bound_to 10162
  156.6711  130.4540  149.5657 LP  0  0  0  0  0  0  0  0  0  0  0  0  # atno 17370 bound_to 10713
  156.1997  130.6612  151.1153 LP  0  0  0  0  0  0  0  0  0  0  0  0  # atno 17371 bound_to 10713
  140.1342  134.5055  155.8081 LP  0  0  0  0  0  0  0  0  0  0  0  0  # atno 17394 bound_to 11000
  141.2172  133.6801  156.7094 LP  0  0  0  0  0  0  0  0  0  0  0  0  # atno 17395 bound_to 11000

$$$$
