AV-unprocessed.smi:2026|AV-procd|sdf|8202|dock2
  -GOLD-   2272010463D 1   1.00000     0.00000
 Structure written by MMmdl.
 46 48  0  0  0  0  0  0  0  0  1 V2000
  152.3364  143.7182  162.1183 C   0  0  0  0  0  0  0  0  0  0  0  0
  152.0600  143.0157  160.8005 C   0  0  0  0  0  0  0  0  0  0  0  0
  152.3903  141.6482  160.6671 C   0  0  0  0  0  0  0  0  0  0  0  0
  152.1494  140.9588  159.4584 C   0  0  0  0  0  0  0  0  0  0  0  0
  152.3904  139.6399  159.1131 N   0  0  0  0  0  0  0  0  0  0  0  0
  151.9508  139.6076  157.8581 C   0  0  0  0  0  0  0  0  0  0  0  0
  151.4537  140.7510  157.3488 N   0  0  0  0  0  0  0  0  0  0  0  0
  150.9238  140.9516  156.0118 C   0  0  0  0  0  0  0  0  0  0  0  0
  149.5112  141.5676  156.0193 C   0  0  1  0  0  0  0  0  0  0  0  0
  149.3084  142.2526  154.7980 O   0  0  0  0  0  0  0  0  0  0  0  0
  148.4227  140.4845  156.1681 C   0  0  0  0  0  0  0  0  0  0  0  0
  147.1562  140.8912  155.5513 N   0  0  0  0  0  0  0  0  0  0  0  0
  146.6572  140.3595  154.4214 C   0  0  0  0  0  0  0  0  0  0  0  0
  147.1610  139.4606  153.7497 O   0  0  0  0  0  0  0  0  0  0  0  0
  145.5028  140.9782  154.1400 N   0  0  0  0  0  0  0  0  0  0  0  0
  145.1588  142.0009  155.1095 C   0  0  0  0  0  0  0  0  0  0  0  0
  145.1110  143.3897  154.4480 C   0  0  0  0  0  0  0  0  0  0  0  0
  143.8452  141.6531  155.8328 C   0  0  0  0  0  0  0  0  0  0  0  0
  146.3616  141.8581  156.0291 C   0  0  0  0  0  0  0  0  0  0  0  0
  146.5452  142.5418  157.0367 O   0  0  0  0  0  0  0  0  0  0  0  0
  151.5648  141.6811  158.3771 C   0  0  0  0  0  0  0  0  0  0  0  0
  151.2314  143.0419  158.4979 C   0  0  0  0  0  0  0  0  0  0  0  0
  151.4788  143.7153  159.7124 C   0  0  0  0  0  0  0  0  0  0  0  0
  151.1145  145.1846  159.8323 C   0  0  0  0  0  0  0  0  0  0  0  0
  152.7505  143.0318  162.8573 H   0  0  0  0  0  0  0  0  0  0  0  0
  151.4175  144.1366  162.5292 H   0  0  0  0  0  0  0  0  0  0  0  0
  153.0524  144.5278  161.9753 H   0  0  0  0  0  0  0  0  0  0  0  0
  152.8329  141.1148  161.4953 H   0  0  0  0  0  0  0  0  0  0  0  0
  151.9904  138.6996  157.2739 H   0  0  0  0  0  0  0  0  0  0  0  0
  151.6142  141.5828  155.4506 H   0  0  0  0  0  0  0  0  0  0  0  0
  150.9081  139.9847  155.5069 H   0  0  0  0  0  0  0  0  0  0  0  0
  149.4450  142.2857  156.8379 H   0  0  0  0  0  0  0  0  0  0  0  0
  149.2427  143.1780  154.9777 H   0  0  0  0  0  0  0  0  0  0  0  0
  148.7683  139.5282  155.7710 H   0  0  0  0  0  0  0  0  0  0  0  0
  148.2355  140.3012  157.2277 H   0  0  0  0  0  0  0  0  0  0  0  0
  144.9258  140.7681  153.3383 H   0  0  0  0  0  0  0  0  0  0  0  0
  144.8775  144.1668  155.1768 H   0  0  0  0  0  0  0  0  0  0  0  0
  144.3464  143.4277  153.6715 H   0  0  0  0  0  0  0  0  0  0  0  0
  146.0637  143.6489  153.9831 H   0  0  0  0  0  0  0  0  0  0  0  0
  143.5867  142.4139  156.5703 H   0  0  0  0  0  0  0  0  0  0  0  0
  143.9114  140.6974  156.3549 H   0  0  0  0  0  0  0  0  0  0  0  0
  143.0161  141.5842  155.1280 H   0  0  0  0  0  0  0  0  0  0  0  0
  150.7869  143.5629  157.6630 H   0  0  0  0  0  0  0  0  0  0  0  0
  150.7145  145.5731  158.8954 H   0  0  0  0  0  0  0  0  0  0  0  0
  151.9916  145.7777  160.0920 H   0  0  0  0  0  0  0  0  0  0  0  0
  150.3581  145.3275  160.6044 H   0  0  0  0  0  0  0  0  0  0  0  0
  1  2  1  0  0  0  0
  1 25  1  0  0  0  0
  1 26  1  0  0  0  0
  1 27  1  0  0  0  0
  2 23  1  0  0  0  0
  2  3  2  0  0  0  0
  3  4  1  0  0  0  0
  3 28  1  0  0  0  0
  4 21  2  0  0  0  0
  4  5  1  0  0  0  0
  5  6  2  0  0  0  0
  6  7  1  0  0  0  0
  6 29  1  0  0  0  0
  7  8  1  0  0  0  0
  7 21  1  0  0  0  0
  8  9  1  0  0  0  0
  8 30  1  0  0  0  0
  8 31  1  0  0  0  0
  9 10  1  0  0  0  0
  9 11  1  0  0  0  0
  9 32  1  0  0  0  0
 10 33  1  0  0  0  0
 11 12  1  0  0  0  0
 11 34  1  0  0  0  0
 11 35  1  0  0  0  0
 12 19  1  0  0  0  0
 12 13  1  0  0  0  0
 13 14  2  0  0  0  0
 13 15  1  0  0  0  0
 15 16  1  0  0  0  0
 15 36  1  0  0  0  0
 16 17  1  0  0  0  0
 16 18  1  0  0  0  0
 16 19  1  0  0  0  0
 17 37  1  0  0  0  0
 17 38  1  0  0  0  0
 17 39  1  0  0  0  0
 18 40  1  0  0  0  0
 18 41  1  0  0  0  0
 18 42  1  0  0  0  0
 19 20  2  0  0  0  0
 21 22  1  0  0  0  0
 22 23  2  0  0  0  0
 22 43  1  0  0  0  0
 23 24  1  0  0  0  0
 24 44  1  0  0  0  0
 24 45  1  0  0  0  0
 24 46  1  0  0  0  0
M  END
> <s_m_source_file>
AV-unprocessed.smi

> <i_m_source_file_index>
2026

> <i_lp_mmshare_version>
43012

> <i_f3d_flags>
0

> <s_epik_input>
W0NIM11jKFtjSF0xKWMoW0NIM10pW2NIXWMoYzEyKW4oW2NIXW4yKVtDSDJdW0NASF0oW09IXSlbQ0gyXU4oQzM9TylDKD1PKVtOSF1DMyhbQ0gzXSlbQ0gzXQ==

> <s_epik_cmdline>
J2VwaWtfcHl0aG9uJywgJy1waCcsICc3LjAnLCAnLXRuJywgJzgnLCAnLW1hJywgJzIwMCcsICctbWV0YWxfYmluZGluZycsICctaW1hZScsICc8aW5maWxlLm1hZT4nLCAnLW9tYWUnLCAnPG91dGZpbGUubWFlPic=

> <r_lp_tautomer_probability>
1

> <r_epik_Ionization_Penalty>
0.103994

> <r_epik_Ionization_Penalty_Charging>
0

> <r_epik_Ionization_Penalty_Neutral>
0.103994

> <r_epik_State_Penalty>
0.0938482

> <r_epik_Charging_Adjusted_Penalty>
0.0938482

> <i_epik_Tot_Q>
0

> <i_epik_Tot_abs_Q>
0

> <r_epik_Metal_State_Penalty>
0.106997

> <b_epik_Metal_Only>
0

> <s_lp_Force_Field>
OPLS_2005

> <r_lp_Energy>
23.8549

> <b_lp_Chiralities_Consistent>
1

> <s_lp_Variant>
AV-unprocessed.smi:2026-2

> <Gold.Version>
5.8.1

> <Gold.Id.Protein>
6NUR|6NUR_protein|mol2

> <Gold.PLP.Fitness>
48.7168

> <Gold.PLP.PLP>
-44.1319

> <Gold.PLP.part.hbond>
-3.4167

> <Gold.PLP.part.metal>
0.0000

> <Gold.PLP.part.buried>
-4.3579

> <Gold.PLP.part.nonpolar>
-35.9850

> <Gold.PLP.part.repulsive>
0.3602

> <Gold.PLP.ligand.clash>
0.0000

> <Gold.PLP.ligand.torsion>
0.7637

> <Gold.PLP.Chemscore.Hbond>
2.0252

> <Gold.PLP.Chemscore.CHOScore>
0.0000

> <Gold.PLP.Chemscore.Metal>
0.0000

> <Gold.Chemscore.Hbonds>
donor molecule, donor type, donor heavy atom, donor atom, acceptor molecule, acceptor atom, score
      L1  H    10    33       P1  8028  1.00
      L1  H    15    36       P1 10175  1.00

> <Gold.PLP.Chemscore.Internal.Correction>
0.0368

> <Gold.Rescore>
     Score         DG    S(hbond)    S(metal)    S(lipo)     H(rot)  DE(clash)    DE(int)     intcor
     17.81     -18.63       1.99        0.00     108.93       2.44       0.03       0.79       ----

> <Gold.Chemscore.Fitness>
17.8132

> <Gold.Chemscore.DG>
-18.6259

> <Gold.Chemscore.ZeroCoef>
-5.4800

> <Gold.Chemscore.Hbond>
1.9871

> <Gold.Chemscore.Metal>
0.0000

> <Gold.Chemscore.Lipo>
108.9274

> <Gold.Chemscore.Internal_Hbond>
0.0000

> <Gold.Chemscore.DEClash>
0.0274

> <Gold.Chemscore.DEInternal>
0.7852

> <Gold.Chemscore.Rot>
2.4358

> <Gold.Chemscore.Internal.Correction>
   9.000000E+99

> <Gold.Chemscore.Hbonds>
donor molecule, donor type, donor heavy atom, donor atom, acceptor molecule, acceptor atom, score
      L1  H    10    33       P1  8028  1.00
      L1  H    15    36       P1 10175  0.80

> <Gold.Chemscore.Hbond.Weighted>
-6.6370

> <Gold.Chemscore.Metal.Weighted>
-0.0000

> <Gold.Chemscore.Lipo.Weighted>
-12.7445

> <Gold.Chemscore.Internal_Hbond.Weighted>
0.0000

> <Gold.Chemscore.DEClash.Weighted>
0.0274

> <Gold.Chemscore.DEInternal.Weighted>
0.7852

> <Gold.Chemscore.Rot.Weighted>
6.2357

> <Gold.Chemscore.Internal.Correction.Weighted>
   9.000000E+99

> <Gold.Protein.RotatedTorsions>
[ 6907 6896 6895 6894 ] final  126.46 input  -60.11 | X-H torsion
[ 7974 7965 7964 7962 ] final  107.96 input  175.53 | X-H torsion
[ 8008 7997 7996 7995 ] final   15.26 input   59.86 | X-H torsion
[ 10167 10162 10161 10158 ] final   25.74 input  -65.29 | X-H torsion
[ 10718 10713 10712 10709 ] final  169.92 input   66.30 | X-H torsion
[ 10763 10752 10751 10750 ] final   15.66 input  -60.55 | X-H torsion
[ 11005 11000 10999 10996 ] final  -55.86 input  -57.11 | X-H torsion

> <Gold.Protein.ActiveResidues>
 VAL166  LYS551  ARG553  GLY616  TRP617  ASP618  TYR619  PRO620  LYS621  CYS622 
 ASP623  PHE694  ASN695  SER759  ASP760  ASP761  ALA762  ILE779  LEU786  VAL792 
 PHE793  MET794  SER795  GLU796  ALA797  LYS798  CYS799  TRP800  GLU811  SER814 

> <Gold.Protein.RotatedAtoms>
  152.3901  133.6667  159.6230 H   0  0  0  0  0  0  0  0  0  0  0  0  # atno 6907 bound_to 6896
  150.7811  133.8968  159.3338 H   0  0  0  0  0  0  0  0  0  0  0  0  # atno 6908 bound_to 6896
  151.6756  135.0971  160.0257 H   0  0  0  0  0  0  0  0  0  0  0  0  # atno 6909 bound_to 6896
  145.2868  139.2613  143.3886 H   0  0  0  0  0  0  0  0  0  0  0  0  # atno 7974 bound_to 7965
  154.8601  140.2943  155.5544 H   0  0  0  0  0  0  0  0  0  0  0  0  # atno 8008 bound_to 7997
  156.3019  140.2479  156.3506 H   0  0  0  0  0  0  0  0  0  0  0  0  # atno 8009 bound_to 7997
  154.8928  140.0394  157.1837 H   0  0  0  0  0  0  0  0  0  0  0  0  # atno 8010 bound_to 7997
  140.5081  144.0205  150.6361 H   0  0  0  0  0  0  0  0  0  0  0  0  # atno 10167 bound_to 10162
  157.0157  131.0217  151.2790 H   0  0  0  0  0  0  0  0  0  0  0  0  # atno 10718 bound_to 10713
  153.1504  135.6777  153.8890 H   0  0  0  0  0  0  0  0  0  0  0  0  # atno 10763 bound_to 10752
  153.8318  135.3116  155.3420 H   0  0  0  0  0  0  0  0  0  0  0  0  # atno 10764 bound_to 10752
  154.7858  135.4863  154.0029 H   0  0  0  0  0  0  0  0  0  0  0  0  # atno 10765 bound_to 10752
  141.1094  133.6611  156.4533 H   0  0  0  0  0  0  0  0  0  0  0  0  # atno 11005 bound_to 11000
  146.3198  140.3350  142.8643 LP  0  0  0  0  0  0  0  0  0  0  0  0  # atno 17320 bound_to 7965
  144.9206  140.7863  143.5750 LP  0  0  0  0  0  0  0  0  0  0  0  0  # atno 17321 bound_to 7965
  140.3520  143.2957  152.0476 LP  0  0  0  0  0  0  0  0  0  0  0  0  # atno 17342 bound_to 10162
  139.4889  144.6366  151.6962 LP  0  0  0  0  0  0  0  0  0  0  0  0  # atno 17343 bound_to 10162
  157.5287  130.8044  149.7892 LP  0  0  0  0  0  0  0  0  0  0  0  0  # atno 17370 bound_to 10713
  156.0120  130.3829  150.2233 LP  0  0  0  0  0  0  0  0  0  0  0  0  # atno 17371 bound_to 10713
  140.4817  134.6658  157.5173 LP  0  0  0  0  0  0  0  0  0  0  0  0  # atno 17394 bound_to 11000
  139.9979  134.6882  155.9578 LP  0  0  0  0  0  0  0  0  0  0  0  0  # atno 17395 bound_to 11000

$$$$
