AV-unprocessed.smi:3348|AV-procd|sdf|12918|dock5
  -GOLD-   2272019333D 1   1.00000     0.00000
 Structure written by MMmdl.
 47 48  0  0  0  0  0  0  0  0  2 V2000
  146.0591  136.4615  150.4458 C   0  0  0  0  0  0  0  0  0  0  0  0
  145.8052  136.1846  151.9407 C   0  0  1  0  0  0  0  0  0  0  0  0
  146.0801  134.7145  152.3201 C   0  0  0  0  0  0  0  0  0  0  0  0
  145.4934  133.7674  151.3893 N   0  0  0  0  0  0  0  0  0  0  0  0
  146.0673  132.6469  150.8261 C   0  0  0  0  0  0  0  0  0  0  0  0
  145.1276  132.0714  150.0198 C   0  0  0  0  0  0  0  0  0  0  0  0
  143.9943  132.9197  150.1623 C   0  0  0  0  0  0  0  0  0  0  0  0
  144.2163  133.9330  150.9841 N   0  0  0  0  0  0  0  0  0  0  0  0
  146.6273  137.0687  152.7968 N   0  3  0  0  0  0  0  0  0  0  0  0
  146.5211  136.8247  154.2511 C   0  0  0  0  0  0  0  0  0  0  0  0
  146.7234  138.1230  155.0376 C   0  0  0  0  0  0  0  0  0  0  0  0
  148.1176  138.3316  155.2040 O   0  0  0  0  0  0  0  0  0  0  0  0
  148.7790  138.8862  154.0713 C   0  0  1  0  0  0  0  0  0  0  0  0
  148.1850  140.2660  153.7148 C   0  0  0  0  0  0  0  0  0  0  0  0
  148.4291  141.2950  154.8306 C   0  0  0  0  0  0  0  0  0  0  0  0
  149.9247  141.4118  155.1613 C   0  0  0  0  0  0  0  0  0  0  0  0
  150.5279  140.0434  155.5169 C   0  0  0  0  0  0  0  0  0  0  0  0
  150.2841  139.0091  154.3992 C   0  0  1  0  0  0  0  0  0  0  0  0
  150.9162  137.6482  154.7317 C   0  0  0  0  0  0  0  0  0  0  0  0
  145.4372  135.8294  149.8115 H   0  0  0  0  0  0  0  0  0  0  0  0
  147.1000  136.2736  150.1803 H   0  0  0  0  0  0  0  0  0  0  0  0
  145.8277  137.4921  150.1788 H   0  0  0  0  0  0  0  0  0  0  0  0
  144.7565  136.3940  152.1584 H   0  0  0  0  0  0  0  0  0  0  0  0
  147.1547  134.5306  152.3659 H   0  0  0  0  0  0  0  0  0  0  0  0
  145.6858  134.5000  153.3147 H   0  0  0  0  0  0  0  0  0  0  0  0
  147.0853  132.3565  151.0403 H   0  0  0  0  0  0  0  0  0  0  0  0
  145.2325  131.1789  149.4207 H   0  0  0  0  0  0  0  0  0  0  0  0
  143.0239  132.8293  149.6971 H   0  0  0  0  0  0  0  0  0  0  0  0
  147.5943  136.9188  152.5453 H   0  0  0  0  0  0  0  0  0  0  0  0
  145.5373  136.4164  154.4810 H   0  0  0  0  0  0  0  0  0  0  0  0
  147.2595  136.0841  154.5618 H   0  0  0  0  0  0  0  0  0  0  0  0
  146.2657  138.9618  154.5108 H   0  0  0  0  0  0  0  0  0  0  0  0
  146.2342  138.0382  156.0077 H   0  0  0  0  0  0  0  0  0  0  0  0
  148.6695  138.2141  153.2182 H   0  0  0  0  0  0  0  0  0  0  0  0
  148.6453  140.6250  152.7934 H   0  0  0  0  0  0  0  0  0  0  0  0
  147.1188  140.1921  153.5035 H   0  0  0  0  0  0  0  0  0  0  0  0
  148.0389  142.2678  154.5302 H   0  0  0  0  0  0  0  0  0  0  0  0
  147.8772  141.0046  155.7254 H   0  0  0  0  0  0  0  0  0  0  0  0
  150.4553  141.8334  154.3066 H   0  0  0  0  0  0  0  0  0  0  0  0
  150.0690  142.1081  155.9880 H   0  0  0  0  0  0  0  0  0  0  0  0
  151.5981  140.1540  155.6950 H   0  0  0  0  0  0  0  0  0  0  0  0
  150.0968  139.6871  156.4535 H   0  0  0  0  0  0  0  0  0  0  0  0
  150.7829  139.3773  153.5014 H   0  0  0  0  0  0  0  0  0  0  0  0
  150.4893  137.2190  155.6384 H   0  0  0  0  0  0  0  0  0  0  0  0
  151.9911  137.7441  154.8860 H   0  0  0  0  0  0  0  0  0  0  0  0
  150.7631  136.9356  153.9209 H   0  0  0  0  0  0  0  0  0  0  0  0
  146.3926  138.0310  152.5997 H   0  0  0  0  0  0  0  0  0  0  0  0
  1  2  1  0  0  0  0
  1 20  1  0  0  0  0
  1 21  1  0  0  0  0
  1 22  1  0  0  0  0
  2  3  1  0  0  0  0
  2  9  1  0  0  0  0
  2 23  1  0  0  0  0
  3  4  1  0  0  0  0
  3 24  1  0  0  0  0
  3 25  1  0  0  0  0
  4  8  1  0  0  0  0
  4  5  1  0  0  0  0
  5  6  2  0  0  0  0
  5 26  1  0  0  0  0
  6  7  1  0  0  0  0
  6 27  1  0  0  0  0
  7  8  2  0  0  0  0
  7 28  1  0  0  0  0
  9 10  1  0  0  0  0
  9 29  1  0  0  0  0
  9 47  1  0  0  0  0
 10 11  1  0  0  0  0
 10 30  1  0  0  0  0
 10 31  1  0  0  0  0
 11 12  1  0  0  0  0
 11 32  1  0  0  0  0
 11 33  1  0  0  0  0
 12 13  1  0  0  0  0
 13 18  1  0  0  0  0
 13 14  1  0  0  0  0
 13 34  1  0  0  0  0
 14 15  1  0  0  0  0
 14 35  1  0  0  0  0
 14 36  1  0  0  0  0
 15 16  1  0  0  0  0
 15 37  1  0  0  0  0
 15 38  1  0  0  0  0
 16 17  1  0  0  0  0
 16 39  1  0  0  0  0
 16 40  1  0  0  0  0
 17 18  1  0  0  0  0
 17 41  1  0  0  0  0
 17 42  1  0  0  0  0
 18 19  1  0  0  0  0
 18 43  1  0  0  0  0
 19 44  1  0  0  0  0
 19 45  1  0  0  0  0
 19 46  1  0  0  0  0
M  CHG  1   9   1
M  END
> <s_m_source_file>
AV-unprocessed.smi

> <i_m_source_file_index>
3348

> <i_lp_mmshare_version>
43012

> <i_f3d_flags>
0

> <s_epik_input>
bjFbY0hdW2NIXVtjSF1uMVtDSDJdW0NAQEhdKFtDSDNdKVtOSF1bQ0gyXVtDSDJdT1tDQEBIXTJbQ0gyXVtDSDJdW0NIMl1bQ0gyXVtDQEhdMltDSDNd

> <s_epik_cmdline>
J2VwaWtfcHl0aG9uJywgJy1waCcsICc3LjAnLCAnLXRuJywgJzgnLCAnLW1hJywgJzIwMCcsICctbWV0YWxfYmluZGluZycsICctaW1hZScsICc8aW5maWxlLm1hZT4nLCAnLW9tYWUnLCAnPG91dGZpbGUubWFlPic=

> <r_lp_tautomer_probability>
1

> <r_epik_Ionization_Penalty>
0.00925088

> <r_epik_Ionization_Penalty_Charging>
0.00924645

> <r_epik_Ionization_Penalty_Neutral>
4.42413e-06

> <r_epik_State_Penalty>
0.0070118

> <r_epik_Charging_Adjusted_Penalty>
0.0162583

> <i_epik_Tot_Q>
1

> <i_epik_Tot_abs_Q>
1

> <r_epik_Metal_State_Penalty>
0.00701222

> <b_epik_Metal_Only>
0

> <s_lp_Force_Field>
OPLS_2005

> <r_lp_Energy>
16.697

> <b_lp_Chiralities_Consistent>
1

> <s_lp_Variant>
AV-unprocessed.smi:3348-4

> <Gold.Version>
5.8.1

> <Gold.Id.Protein>
6NUR|6NUR_protein|mol2

> <Gold.PLP.Fitness>
44.5786

> <Gold.PLP.PLP>
-33.7697

> <Gold.PLP.part.hbond>
-1.0000

> <Gold.PLP.part.metal>
0.0000

> <Gold.PLP.part.buried>
-1.9389

> <Gold.PLP.part.nonpolar>
-32.2817

> <Gold.PLP.part.repulsive>
0.2366

> <Gold.PLP.ligand.clash>
0.0000

> <Gold.PLP.ligand.torsion>
0.6796

> <Gold.PLP.Chemscore.Hbond>
2.0000

> <Gold.PLP.Chemscore.CHOScore>
1.9886

> <Gold.PLP.Chemscore.Metal>
0.0000

> <Gold.Chemscore.Hbonds>
donor molecule, donor type, donor heavy atom, donor atom, acceptor molecule, acceptor atom, score
      L1  H     9    29       P1  7948  2.00
      L1  C     5    26       P1 10747  1.00
      L1  C     7    28       P1 10186  0.90

> <Gold.PLP.Chemscore.Internal.Correction>
0.2022

> <Gold.Rescore>
     Score         DG    S(hbond)    S(metal)    S(lipo)     H(rot)  DE(clash)    DE(int)     intcor
     14.61     -15.63       0.99        0.00      98.16       1.82       0.28       0.74       ----

> <Gold.Chemscore.Fitness>
14.6065

> <Gold.Chemscore.DG>
-15.6260

> <Gold.Chemscore.ZeroCoef>
-5.4800

> <Gold.Chemscore.Hbond>
0.9913

> <Gold.Chemscore.Metal>
0.0000

> <Gold.Chemscore.Lipo>
98.1605

> <Gold.Chemscore.Internal_Hbond>
0.0000

> <Gold.Chemscore.DEClash>
0.2802

> <Gold.Chemscore.DEInternal>
0.7393

> <Gold.Chemscore.Rot>
1.8163

> <Gold.Chemscore.Internal.Correction>
   9.000000E+99

> <Gold.Chemscore.Hbonds>
donor molecule, donor type, donor heavy atom, donor atom, acceptor molecule, acceptor atom, score
      L1  H     9    29       P1  7948  0.99

> <Gold.Chemscore.Hbond.Weighted>
-3.3110

> <Gold.Chemscore.Metal.Weighted>
-0.0000

> <Gold.Chemscore.Lipo.Weighted>
-11.4848

> <Gold.Chemscore.Internal_Hbond.Weighted>
0.0000

> <Gold.Chemscore.DEClash.Weighted>
0.2802

> <Gold.Chemscore.DEInternal.Weighted>
0.7393

> <Gold.Chemscore.Rot.Weighted>
4.6497

> <Gold.Chemscore.Internal.Correction.Weighted>
   9.000000E+99

> <Gold.Protein.RotatedTorsions>
[ 6907 6896 6895 6894 ] final -160.20 input  -60.11 | X-H torsion
[ 7974 7965 7964 7962 ] final   60.79 input  175.53 | X-H torsion
[ 8008 7997 7996 7995 ] final  -33.78 input   59.86 | X-H torsion
[ 10167 10162 10161 10158 ] final  -89.31 input  -65.29 | X-H torsion
[ 10718 10713 10712 10709 ] final -151.77 input   66.30 | X-H torsion
[ 10763 10752 10751 10750 ] final  -93.67 input  -60.55 | X-H torsion
[ 11005 11000 10999 10996 ] final   93.07 input  -57.11 | X-H torsion

> <Gold.Protein.ActiveResidues>
 VAL166  LYS551  ARG553  GLY616  TRP617  ASP618  TYR619  PRO620  LYS621  CYS622 
 ASP623  PHE694  ASN695  SER759  ASP760  ASP761  ALA762  ILE779  LEU786  VAL792 
 PHE793  MET794  SER795  GLU796  ALA797  LYS798  CYS799  TRP800  GLU811  SER814 

> <Gold.Protein.RotatedAtoms>
  151.3453  133.3946  159.2674 H   0  0  0  0  0  0  0  0  0  0  0  0  # atno 6907 bound_to 6896
  150.9845  134.9194  159.7874 H   0  0  0  0  0  0  0  0  0  0  0  0  # atno 6908 bound_to 6896
  152.5227  134.3417  159.9272 H   0  0  0  0  0  0  0  0  0  0  0  0  # atno 6909 bound_to 6896
  145.8920  139.3518  143.0643 H   0  0  0  0  0  0  0  0  0  0  0  0  # atno 7974 bound_to 7965
  154.4139  140.1701  156.1944 H   0  0  0  0  0  0  0  0  0  0  0  0  # atno 8008 bound_to 7997
  155.9576  140.3396  155.6439 H   0  0  0  0  0  0  0  0  0  0  0  0  # atno 8009 bound_to 7997
  155.6789  140.0720  157.2483 H   0  0  0  0  0  0  0  0  0  0  0  0  # atno 8010 bound_to 7997
  140.3661  143.2817  151.9556 H   0  0  0  0  0  0  0  0  0  0  0  0  # atno 10167 bound_to 10162
  156.4637  130.8225  151.2456 H   0  0  0  0  0  0  0  0  0  0  0  0  # atno 10718 bound_to 10713
  154.6982  135.5186  153.8488 H   0  0  0  0  0  0  0  0  0  0  0  0  # atno 10763 bound_to 10752
  153.0683  135.6592  154.0313 H   0  0  0  0  0  0  0  0  0  0  0  0  # atno 10764 bound_to 10752
  154.0177  135.2996  155.3364 H   0  0  0  0  0  0  0  0  0  0  0  0  # atno 10765 bound_to 10752
  139.8815  134.8769  156.3664 H   0  0  0  0  0  0  0  0  0  0  0  0  # atno 11005 bound_to 11000
  145.8896  140.9312  143.0559 LP  0  0  0  0  0  0  0  0  0  0  0  0  # atno 17320 bound_to 7965
  144.6731  140.0888  143.7466 LP  0  0  0  0  0  0  0  0  0  0  0  0  # atno 17321 bound_to 7965
  139.4808  144.5949  151.7707 LP  0  0  0  0  0  0  0  0  0  0  0  0  # atno 17342 bound_to 10162
  140.5079  144.1069  150.5987 LP  0  0  0  0  0  0  0  0  0  0  0  0  # atno 17343 bound_to 10162
  157.7496  131.0099  150.3285 LP  0  0  0  0  0  0  0  0  0  0  0  0  # atno 17370 bound_to 10713
  156.3690  130.3860  149.7190 LP  0  0  0  0  0  0  0  0  0  0  0  0  # atno 17371 bound_to 10713
  140.9494  133.7461  156.0252 LP  0  0  0  0  0  0  0  0  0  0  0  0  # atno 17394 bound_to 11000
  140.8124  134.3384  157.5408 LP  0  0  0  0  0  0  0  0  0  0  0  0  # atno 17395 bound_to 11000

$$$$
