AV-unprocessed.smi:2712|AV-procd|sdf|10474|dock10
  -GOLD-   2272014513D 1   1.00000     0.00000
 Structure written by MMmdl.
 52 53  0  0  0  0  0  0  0  0  1 V2000
  145.7610  137.3169  162.5024 C   0  0  0  0  0  0  0  0  0  0  0  0
  146.6741  136.5937  161.5571 C   0  0  0  0  0  0  0  0  0  0  0  0
  147.3559  135.3623  161.9069 C   0  0  0  0  0  0  0  0  0  0  0  0
  148.1626  134.7716  160.9996 C   0  0  0  0  0  0  0  0  0  0  0  0
  148.3659  135.3386  159.6684 C   0  0  0  0  0  0  0  0  0  0  0  0
  149.0825  134.8168  158.8148 O   0  0  0  0  0  0  0  0  0  0  0  0
  147.6738  136.4970  159.4527 N   0  0  0  0  0  0  0  0  0  0  0  0
  147.7370  137.1954  158.1578 C   0  0  0  0  0  0  0  0  0  0  0  0
  148.6944  138.4000  158.1202 C   0  0  0  0  0  0  0  0  0  0  0  0
  149.1912  138.8041  159.1708 O   0  0  0  0  0  0  0  0  0  0  0  0
  148.9537  138.9614  156.9270 N   0  0  0  0  0  0  0  0  0  0  0  0
  149.8556  140.0813  156.6767 C   0  0  2  0  0  0  0  0  0  0  0  0
  151.2979  139.6591  157.0135 C   0  0  0  0  0  0  0  0  0  0  0  0
  151.6744  139.7869  158.4972 C   0  0  0  0  0  0  0  0  0  0  0  0
  152.2398  141.1726  158.8609 C   0  0  0  0  0  0  0  0  0  0  0  0
  151.2155  142.3401  158.9261 C   0  0  1  0  0  0  0  0  0  0  0  0
  151.8579  143.7070  159.3691 C   0  0  0  0  0  0  0  0  0  0  0  0
  150.7866  144.7328  159.7990 C   0  0  0  0  0  0  0  0  0  0  0  0
  152.6933  144.3309  158.2272 C   0  0  0  0  0  0  0  0  0  0  0  0
  152.8368  143.4910  160.5483 C   0  0  0  0  0  0  0  0  0  0  0  0
  150.3864  142.4528  157.6137 C   0  0  0  0  0  0  0  0  0  0  0  0
  149.3525  141.3278  157.4350 C   0  0  0  0  0  0  0  0  0  0  0  0
  146.8489  137.1068  160.3837 N   0  0  0  0  0  0  0  0  0  0  0  0
  145.6331  136.7604  163.4312 H   0  0  0  0  0  0  0  0  0  0  0  0
  144.7745  137.4579  162.0598 H   0  0  0  0  0  0  0  0  0  0  0  0
  146.1627  138.2988  162.7537 H   0  0  0  0  0  0  0  0  0  0  0  0
  147.2155  134.9294  162.8863 H   0  0  0  0  0  0  0  0  0  0  0  0
  148.6707  133.8550  161.2619 H   0  0  0  0  0  0  0  0  0  0  0  0
  148.0464  136.4979  157.3774 H   0  0  0  0  0  0  0  0  0  0  0  0
  146.7418  137.5328  157.8627 H   0  0  0  0  0  0  0  0  0  0  0  0
  148.4973  138.5640  156.1187 H   0  0  0  0  0  0  0  0  0  0  0  0
  149.8377  140.2976  155.6069 H   0  0  0  0  0  0  0  0  0  0  0  0
  151.4480  138.6269  156.6931 H   0  0  0  0  0  0  0  0  0  0  0  0
  151.9985  140.2408  156.4132 H   0  0  0  0  0  0  0  0  0  0  0  0
  150.8377  139.5194  159.1439 H   0  0  0  0  0  0  0  0  0  0  0  0
  152.4524  139.0519  158.7060 H   0  0  0  0  0  0  0  0  0  0  0  0
  152.7059  141.0496  159.8372 H   0  0  0  0  0  0  0  0  0  0  0  0
  153.0503  141.4183  158.1749 H   0  0  0  0  0  0  0  0  0  0  0  0
  150.5158  142.0754  159.7201 H   0  0  0  0  0  0  0  0  0  0  0  0
  151.2441  145.6807  160.0847 H   0  0  0  0  0  0  0  0  0  0  0  0
  150.2126  144.3872  160.6588 H   0  0  0  0  0  0  0  0  0  0  0  0
  150.0819  144.9475  158.9959 H   0  0  0  0  0  0  0  0  0  0  0  0
  152.0695  144.6860  157.4071 H   0  0  0  0  0  0  0  0  0  0  0  0
  153.4104  143.6165  157.8210 H   0  0  0  0  0  0  0  0  0  0  0  0
  153.2581  145.1969  158.5740 H   0  0  0  0  0  0  0  0  0  0  0  0
  153.3847  144.4050  160.7805 H   0  0  0  0  0  0  0  0  0  0  0  0
  153.5764  142.7239  160.3168 H   0  0  0  0  0  0  0  0  0  0  0  0
  152.3348  143.2006  161.4697 H   0  0  0  0  0  0  0  0  0  0  0  0
  149.8183  143.3794  157.6147 H   0  0  0  0  0  0  0  0  0  0  0  0
  151.0365  142.5183  156.7407 H   0  0  0  0  0  0  0  0  0  0  0  0
  148.4982  141.7268  156.8863 H   0  0  0  0  0  0  0  0  0  0  0  0
  148.9525  141.0454  158.4100 H   0  0  0  0  0  0  0  0  0  0  0  0
  1  2  1  0  0  0  0
  1 24  1  0  0  0  0
  1 25  1  0  0  0  0
  1 26  1  0  0  0  0
  2 23  2  0  0  0  0
  2  3  1  0  0  0  0
  3  4  2  0  0  0  0
  3 27  1  0  0  0  0
  4  5  1  0  0  0  0
  4 28  1  0  0  0  0
  5  6  2  0  0  0  0
  5  7  1  0  0  0  0
  7  8  1  0  0  0  0
  7 23  1  0  0  0  0
  8  9  1  0  0  0  0
  8 29  1  0  0  0  0
  8 30  1  0  0  0  0
  9 10  2  0  0  0  0
  9 11  1  0  0  0  0
 11 12  1  0  0  0  0
 11 31  1  0  0  0  0
 12 22  1  0  0  0  0
 12 13  1  0  0  0  0
 12 32  1  0  0  0  0
 13 14  1  0  0  0  0
 13 33  1  0  0  0  0
 13 34  1  0  0  0  0
 14 15  1  0  0  0  0
 14 35  1  0  0  0  0
 14 36  1  0  0  0  0
 15 16  1  0  0  0  0
 15 37  1  0  0  0  0
 15 38  1  0  0  0  0
 16 17  1  0  0  0  0
 16 21  1  0  0  0  0
 16 39  1  0  0  0  0
 17 18  1  0  0  0  0
 17 19  1  0  0  0  0
 17 20  1  0  0  0  0
 18 40  1  0  0  0  0
 18 41  1  0  0  0  0
 18 42  1  0  0  0  0
 19 43  1  0  0  0  0
 19 44  1  0  0  0  0
 19 45  1  0  0  0  0
 20 46  1  0  0  0  0
 20 47  1  0  0  0  0
 20 48  1  0  0  0  0
 21 22  1  0  0  0  0
 21 49  1  0  0  0  0
 21 50  1  0  0  0  0
 22 51  1  0  0  0  0
 22 52  1  0  0  0  0
M  END
> <s_m_source_file>
AV-unprocessed.smi

> <i_m_source_file_index>
2712

> <i_lp_mmshare_version>
43012

> <i_f3d_flags>
0

> <s_epik_input>
W0NIM11jMVtjSF1bY0hdYyg9TyluKG4xKVtDSDJdQyg9TylbTkhdW0NAQEhdMltDSDJdW0NIMl1bQ0gyXVtDQEBIXShDKFtDSDNdKShbQ0gzXSlbQ0gzXSlbQ0gyXVtDSDJdMg==

> <s_epik_cmdline>
J2VwaWtfcHl0aG9uJywgJy1waCcsICc3LjAnLCAnLXRuJywgJzgnLCAnLW1hJywgJzIwMCcsICctbWV0YWxfYmluZGluZycsICctaW1hZScsICc8aW5maWxlLm1hZT4nLCAnLW9tYWUnLCAnPG91dGZpbGUubWFlPic=

> <r_lp_tautomer_probability>
1

> <r_epik_Ionization_Penalty>
8.71758e-07

> <r_epik_Ionization_Penalty_Charging>
8.50442e-07

> <r_epik_Ionization_Penalty_Neutral>
2.13165e-08

> <r_epik_State_Penalty>
-0

> <r_epik_Charging_Adjusted_Penalty>
8.50442e-07

> <i_epik_Tot_Q>
0

> <i_epik_Tot_abs_Q>
0

> <r_epik_Metal_State_Penalty>
-0

> <b_epik_Metal_Only>
0

> <s_lp_Force_Field>
OPLS_2005

> <r_lp_Energy>
38.8827

> <b_lp_Chiralities_Consistent>
1

> <s_lp_Variant>
AV-unprocessed.smi:2712-1

> <Gold.Version>
5.8.1

> <Gold.Id.Protein>
6NUR|6NUR_protein|mol2

> <Gold.PLP.Fitness>
42.8889

> <Gold.PLP.PLP>
-38.1750

> <Gold.PLP.part.hbond>
-4.0000

> <Gold.PLP.part.metal>
0.0000

> <Gold.PLP.part.buried>
-3.6434

> <Gold.PLP.part.nonpolar>
-31.5655

> <Gold.PLP.part.repulsive>
0.0287

> <Gold.PLP.ligand.clash>
0.0000

> <Gold.PLP.ligand.torsion>
0.6102

> <Gold.PLP.Chemscore.Hbond>
1.9500

> <Gold.PLP.Chemscore.CHOScore>
0.0000

> <Gold.PLP.Chemscore.Metal>
0.0000

> <Gold.Chemscore.Hbonds>
donor molecule, donor type, donor heavy atom, donor atom, acceptor molecule, acceptor atom, score
      P1  H  6896  6908       L1     6  1.00
      P1  H  6934  6947       L1    23  0.95

> <Gold.PLP.Chemscore.Internal.Correction>
0.0843

> <Gold.Rescore>
     Score         DG    S(hbond)    S(metal)    S(lipo)     H(rot)  DE(clash)    DE(int)     intcor
     16.17     -19.32       1.03        0.00     121.98       1.52       1.17       1.98       ----

> <Gold.Chemscore.Fitness>
16.1743

> <Gold.Chemscore.DG>
-19.3196

> <Gold.Chemscore.ZeroCoef>
-5.4800

> <Gold.Chemscore.Hbond>
1.0328

> <Gold.Chemscore.Metal>
0.0000

> <Gold.Chemscore.Lipo>
121.9787

> <Gold.Chemscore.Internal_Hbond>
0.0000

> <Gold.Chemscore.DEClash>
1.1654

> <Gold.Chemscore.DEInternal>
1.9798

> <Gold.Chemscore.Rot>
1.5162

> <Gold.Chemscore.Internal.Correction>
   9.000000E+99

> <Gold.Chemscore.Hbonds>
donor molecule, donor type, donor heavy atom, donor atom, acceptor molecule, acceptor atom, score
      P1  H  6896  6908       L1     6  0.90
      P1  H  6934  6947       L1    23  0.20

> <Gold.Chemscore.Hbond.Weighted>
-3.4495

> <Gold.Chemscore.Metal.Weighted>
-0.0000

> <Gold.Chemscore.Lipo.Weighted>
-14.2715

> <Gold.Chemscore.Internal_Hbond.Weighted>
0.0000

> <Gold.Chemscore.DEClash.Weighted>
1.1654

> <Gold.Chemscore.DEInternal.Weighted>
1.9798

> <Gold.Chemscore.Rot.Weighted>
3.8814

> <Gold.Chemscore.Internal.Correction.Weighted>
   9.000000E+99

> <Gold.Protein.RotatedTorsions>
[ 6907 6896 6895 6894 ] final  147.22 input  -60.11 | X-H torsion
[ 7974 7965 7964 7962 ] final -175.56 input  175.53 | X-H torsion
[ 8008 7997 7996 7995 ] final  -84.07 input   59.86 | X-H torsion
[ 10167 10162 10161 10158 ] final -165.80 input  -65.29 | X-H torsion
[ 10718 10713 10712 10709 ] final -152.56 input   66.30 | X-H torsion
[ 10763 10752 10751 10750 ] final  -19.00 input  -60.55 | X-H torsion
[ 11005 11000 10999 10996 ] final  -93.33 input  -57.11 | X-H torsion

> <Gold.Protein.ActiveResidues>
 VAL166  LYS551  ARG553  GLY616  TRP617  ASP618  TYR619  PRO620  LYS621  CYS622 
 ASP623  PHE694  ASN695  SER759  ASP760  ASP761  ALA762  ILE779  LEU786  VAL792 
 PHE793  MET794  SER795  GLU796  ALA797  LYS798  CYS799  TRP800  GLU811  SER814 

> <Gold.Protein.RotatedAtoms>
  152.1576  133.4561  159.4844 H   0  0  0  0  0  0  0  0  0  0  0  0  # atno 6907 bound_to 6896
  150.6903  134.2112  159.4369 H   0  0  0  0  0  0  0  0  0  0  0  0  # atno 6908 bound_to 6896
  152.0012  134.9927  160.0616 H   0  0  0  0  0  0  0  0  0  0  0  0  # atno 6909 bound_to 6896
  144.7128  140.1302  143.6399 H   0  0  0  0  0  0  0  0  0  0  0  0  # atno 7974 bound_to 7965
  154.6258  140.0610  156.9672 H   0  0  0  0  0  0  0  0  0  0  0  0  # atno 8008 bound_to 7997
  155.1744  140.3293  155.4368 H   0  0  0  0  0  0  0  0  0  0  0  0  # atno 8009 bound_to 7997
  156.2457  140.1908  156.6844 H   0  0  0  0  0  0  0  0  0  0  0  0  # atno 8010 bound_to 7997
  139.6158  144.0724  152.1886 H   0  0  0  0  0  0  0  0  0  0  0  0  # atno 10167 bound_to 10162
  156.4742  130.8272  151.2501 H   0  0  0  0  0  0  0  0  0  0  0  0  # atno 10718 bound_to 10713
  153.5980  135.7000  153.5396 H   0  0  0  0  0  0  0  0  0  0  0  0  # atno 10763 bound_to 10752
  153.3121  135.4098  155.1344 H   0  0  0  0  0  0  0  0  0  0  0  0  # atno 10764 bound_to 10752
  154.8588  135.3674  154.5515 H   0  0  0  0  0  0  0  0  0  0  0  0  # atno 10765 bound_to 10752
  141.1500  133.7880  157.0144 H   0  0  0  0  0  0  0  0  0  0  0  0  # atno 11005 bound_to 11000
  145.9294  139.2596  143.1334 LP  0  0  0  0  0  0  0  0  0  0  0  0  # atno 17320 bound_to 7965
  145.9539  140.8888  143.0245 LP  0  0  0  0  0  0  0  0  0  0  0  0  # atno 17321 bound_to 7965
  140.0353  144.6049  150.7454 LP  0  0  0  0  0  0  0  0  0  0  0  0  # atno 17342 bound_to 10162
  140.7349  143.2735  151.3814 LP  0  0  0  0  0  0  0  0  0  0  0  0  # atno 17343 bound_to 10162
  157.7489  131.0066  150.3159 LP  0  0  0  0  0  0  0  0  0  0  0  0  # atno 17370 bound_to 10713
  156.3588  130.3843  149.7268 LP  0  0  0  0  0  0  0  0  0  0  0  0  # atno 17371 bound_to 10713
  140.0856  134.9622  157.1695 LP  0  0  0  0  0  0  0  0  0  0  0  0  # atno 17394 bound_to 11000
  140.3516  134.2592  155.7198 LP  0  0  0  0  0  0  0  0  0  0  0  0  # atno 17395 bound_to 11000

$$$$
