AV-unprocessed.smi:2725|AV-procd|sdf|10515|dock1
  -GOLD-   2272014553D 1   1.00000     0.00000
 Structure written by MMmdl.
 44 45  0  0  0  0  0  0  0  0  1 V2000
  150.6171  141.4947  158.4108 O   0  0  0  0  0  0  0  0  0  0  0  0
  150.7397  142.2750  157.4661 C   0  0  0  0  0  0  0  0  0  0  0  0
  151.5108  143.5886  157.6271 C   0  0  0  0  0  0  0  0  0  0  0  0
  151.4596  144.1574  159.0584 C   0  0  0  0  0  0  0  0  0  0  0  0
  152.5993  143.6395  159.9534 C   0  0  0  0  0  0  0  0  0  0  0  0
  153.0628  142.2150  159.6313 C   0  0  0  0  0  0  0  0  0  0  0  0
  153.7696  141.7233  160.8999 C   0  0  0  0  0  0  0  0  0  0  0  0
  153.2585  142.6059  162.0490 C   0  0  0  0  0  0  0  0  0  0  0  0
  152.2214  143.5504  161.4336 C   0  0  0  0  0  0  0  0  0  0  0  0
  150.2191  142.0454  156.2511 N   0  0  0  0  0  0  0  0  0  0  0  0
  149.4438  140.8646  155.8703 C   0  0  2  0  0  0  0  0  0  0  0  0
  148.9023  141.0545  154.4390 C   0  0  0  0  0  0  0  0  0  0  0  0
  149.9296  140.8495  153.4919 O   0  0  0  0  0  0  0  0  0  0  0  0
  148.3077  140.5970  156.8890 C   0  0  0  0  0  0  0  0  0  0  0  0
  147.0593  141.4442  156.6876 C   0  0  0  0  0  0  0  0  0  0  0  0
  146.7197  142.4578  157.6100 C   0  0  0  0  0  0  0  0  0  0  0  0
  145.5597  143.2203  157.3744 C   0  0  0  0  0  0  0  0  0  0  0  0
  144.7843  142.9397  156.2328 C   0  0  0  0  0  0  0  0  0  0  0  0
  145.2054  141.9044  155.3747 C   0  0  0  0  0  0  0  0  0  0  0  0
  146.3172  141.1688  155.5908 N   0  0  0  0  0  0  0  0  0  0  0  0
  152.5447  143.4139  157.3284 H   0  0  0  0  0  0  0  0  0  0  0  0
  151.1024  144.3229  156.9309 H   0  0  0  0  0  0  0  0  0  0  0  0
  151.5171  145.2460  159.0129 H   0  0  0  0  0  0  0  0  0  0  0  0
  150.4990  143.9216  159.5196 H   0  0  0  0  0  0  0  0  0  0  0  0
  153.4554  144.3103  159.8650 H   0  0  0  0  0  0  0  0  0  0  0  0
  152.1984  141.5801  159.4305 H   0  0  0  0  0  0  0  0  0  0  0  0
  153.7110  142.1738  158.7556 H   0  0  0  0  0  0  0  0  0  0  0  0
  153.5678  140.6667  161.0785 H   0  0  0  0  0  0  0  0  0  0  0  0
  154.8496  141.8360  160.7990 H   0  0  0  0  0  0  0  0  0  0  0  0
  152.8321  142.0162  162.8612 H   0  0  0  0  0  0  0  0  0  0  0  0
  154.0862  143.1820  162.4645 H   0  0  0  0  0  0  0  0  0  0  0  0
  152.2061  144.5256  161.9213 H   0  0  0  0  0  0  0  0  0  0  0  0
  151.2271  143.1138  161.5380 H   0  0  0  0  0  0  0  0  0  0  0  0
  150.3720  142.7386  155.5329 H   0  0  0  0  0  0  0  0  0  0  0  0
  150.0910  139.9851  155.8715 H   0  0  0  0  0  0  0  0  0  0  0  0
  148.1250  140.3199  154.2273 H   0  0  0  0  0  0  0  0  0  0  0  0
  148.4538  142.0392  154.3015 H   0  0  0  0  0  0  0  0  0  0  0  0
  149.6536  140.1748  152.8904 H   0  0  0  0  0  0  0  0  0  0  0  0
  148.0303  139.5421  156.8727 H   0  0  0  0  0  0  0  0  0  0  0  0
  148.6815  140.7793  157.8975 H   0  0  0  0  0  0  0  0  0  0  0  0
  147.3369  142.6513  158.4753 H   0  0  0  0  0  0  0  0  0  0  0  0
  145.2704  144.0059  158.0567 H   0  0  0  0  0  0  0  0  0  0  0  0
  143.8880  143.5034  156.0202 H   0  0  0  0  0  0  0  0  0  0  0  0
  144.6349  141.6609  154.4907 H   0  0  0  0  0  0  0  0  0  0  0  0
  1  2  2  0  0  0  0
  2  3  1  0  0  0  0
  2 10  1  0  0  0  0
  3  4  1  0  0  0  0
  3 21  1  0  0  0  0
  3 22  1  0  0  0  0
  4  5  1  0  0  0  0
  4 23  1  0  0  0  0
  4 24  1  0  0  0  0
  5  9  1  0  0  0  0
  5  6  1  0  0  0  0
  5 25  1  0  0  0  0
  6  7  1  0  0  0  0
  6 26  1  0  0  0  0
  6 27  1  0  0  0  0
  7  8  1  0  0  0  0
  7 28  1  0  0  0  0
  7 29  1  0  0  0  0
  8  9  1  0  0  0  0
  8 30  1  0  0  0  0
  8 31  1  0  0  0  0
  9 32  1  0  0  0  0
  9 33  1  0  0  0  0
 10 11  1  0  0  0  0
 10 34  1  0  0  0  0
 11 12  1  0  0  0  0
 11 14  1  0  0  0  0
 11 35  1  0  0  0  0
 12 13  1  0  0  0  0
 12 36  1  0  0  0  0
 12 37  1  0  0  0  0
 13 38  1  0  0  0  0
 14 15  1  0  0  0  0
 14 39  1  0  0  0  0
 14 40  1  0  0  0  0
 15 20  1  0  0  0  0
 15 16  2  0  0  0  0
 16 17  1  0  0  0  0
 16 41  1  0  0  0  0
 17 18  2  0  0  0  0
 17 42  1  0  0  0  0
 18 19  1  0  0  0  0
 18 43  1  0  0  0  0
 19 20  2  0  0  0  0
 19 44  1  0  0  0  0
M  END
> <s_m_source_file>
AV-unprocessed.smi

> <i_m_source_file_index>
2725

> <i_lp_mmshare_version>
43012

> <i_f3d_flags>
0

> <s_epik_input>
W0NIMl0xW0NIMl1bQ0gyXVtDSDJdW0NIXTFbQ0gyXVtDSDJdQyg9TylbTkhdW0NASF0oW0NIMl1bT0hdKVtDSDJdYzJbY0hdW2NIXVtjSF1bY0hdbjI=

> <s_epik_cmdline>
J2VwaWtfcHl0aG9uJywgJy1waCcsICc3LjAnLCAnLXRuJywgJzgnLCAnLW1hJywgJzIwMCcsICctbWV0YWxfYmluZGluZycsICctaW1hZScsICc8aW5maWxlLm1hZT4nLCAnLW9tYWUnLCAnPG91dGZpbGUubWFlPic=

> <r_epik_Ionization_Penalty>
0.0257016

> <r_epik_Ionization_Penalty_Charging>
0

> <r_epik_Ionization_Penalty_Neutral>
0.0257016

> <r_epik_State_Penalty>
0.0209381

> <r_epik_Charging_Adjusted_Penalty>
0.0209381

> <i_epik_Tot_Q>
0

> <i_epik_Tot_abs_Q>
0

> <r_epik_Metal_State_Penalty>
0.0200649

> <b_epik_Metal_Only>
0

> <s_lp_Force_Field>
OPLS_2005

> <r_lp_Energy>
24.7076

> <b_lp_Chiralities_Consistent>
1

> <s_lp_Variant>
AV-unprocessed.smi:2725-1

> <Gold.Version>
5.8.1

> <Gold.Id.Protein>
6NUR|6NUR_protein|mol2

> <Gold.PLP.Fitness>
50.5552

> <Gold.PLP.PLP>
-44.1492

> <Gold.PLP.part.hbond>
-3.6893

> <Gold.PLP.part.metal>
0.0000

> <Gold.PLP.part.buried>
-5.8237

> <Gold.PLP.part.nonpolar>
-35.2422

> <Gold.PLP.part.repulsive>
0.1907

> <Gold.PLP.ligand.clash>
0.0000

> <Gold.PLP.ligand.torsion>
1.4100

> <Gold.PLP.Chemscore.Hbond>
2.0162

> <Gold.PLP.Chemscore.CHOScore>
0.9768

> <Gold.PLP.Chemscore.Metal>
0.0000

> <Gold.Chemscore.Hbonds>
donor molecule, donor type, donor heavy atom, donor atom, acceptor molecule, acceptor atom, score
      L1  H    13    38       P1  7957  0.67
      P1  H  7989  7998       L1    13  0.32
      P1  H  8011  8017       L1    13  1.00
      L1  C    19    44       P1 10175  1.00

> <Gold.PLP.Chemscore.Internal.Correction>
0.2471

> <Gold.Rescore>
     Score         DG    S(hbond)    S(metal)    S(lipo)     H(rot)  DE(clash)    DE(int)     intcor
     12.39     -16.79       1.48        0.00     107.75       2.44       0.85       3.55       ----

> <Gold.Chemscore.Fitness>
12.3886

> <Gold.Chemscore.DG>
-16.7865

> <Gold.Chemscore.ZeroCoef>
-5.4800

> <Gold.Chemscore.Hbond>
1.4821

> <Gold.Chemscore.Metal>
0.0000

> <Gold.Chemscore.Lipo>
107.7497

> <Gold.Chemscore.Internal_Hbond>
0.0000

> <Gold.Chemscore.DEClash>
0.8529

> <Gold.Chemscore.DEInternal>
3.5451

> <Gold.Chemscore.Rot>
2.4416

> <Gold.Chemscore.Internal.Correction>
   9.000000E+99

> <Gold.Chemscore.Hbonds>
donor molecule, donor type, donor heavy atom, donor atom, acceptor molecule, acceptor atom, score
      L1  H    10    34       P1  8028  0.01
      L1  H    13    38       P1  7957  0.68
      P1  H  7989  7998       L1    13  0.19
      P1  H  8011  8017       L1    13  0.11

> <Gold.Chemscore.Hbond.Weighted>
-4.9503

> <Gold.Chemscore.Metal.Weighted>
-0.0000

> <Gold.Chemscore.Lipo.Weighted>
-12.6067

> <Gold.Chemscore.Internal_Hbond.Weighted>
0.0000

> <Gold.Chemscore.DEClash.Weighted>
0.8529

> <Gold.Chemscore.DEInternal.Weighted>
3.5451

> <Gold.Chemscore.Rot.Weighted>
6.2505

> <Gold.Chemscore.Internal.Correction.Weighted>
   9.000000E+99

> <Gold.Protein.RotatedTorsions>
[ 6907 6896 6895 6894 ] final -144.47 input  -60.11 | X-H torsion
[ 7974 7965 7964 7962 ] final  -58.14 input  175.53 | X-H torsion
[ 8008 7997 7996 7995 ] final -104.67 input   59.86 | X-H torsion
[ 10167 10162 10161 10158 ] final   64.07 input  -65.29 | X-H torsion
[ 10718 10713 10712 10709 ] final  -51.27 input   66.30 | X-H torsion
[ 10763 10752 10751 10750 ] final  -85.87 input  -60.55 | X-H torsion
[ 11005 11000 10999 10996 ] final   39.50 input  -57.11 | X-H torsion

> <Gold.Protein.ActiveResidues>
 VAL166  LYS551  ARG553  GLY616  TRP617  ASP618  TYR619  PRO620  LYS621  CYS622 
 ASP623  PHE694  ASN695  SER759  ASP760  ASP761  ALA762  ILE779  LEU786  VAL792 
 PHE793  MET794  SER795  GLU796  ALA797  LYS798  CYS799  TRP800  GLU811  SER814 

> <Gold.Protein.RotatedAtoms>
  151.1145  133.5149  159.2604 H   0  0  0  0  0  0  0  0  0  0  0  0  # atno 6907 bound_to 6896
  151.1930  135.0410  159.8850 H   0  0  0  0  0  0  0  0  0  0  0  0  # atno 6908 bound_to 6896
  152.5452  134.0982  159.8360 H   0  0  0  0  0  0  0  0  0  0  0  0  # atno 6909 bound_to 6896
  145.8428  140.8405  143.0026 H   0  0  0  0  0  0  0  0  0  0  0  0  # atno 7974 bound_to 7965
  154.8887  140.0416  157.1826 H   0  0  0  0  0  0  0  0  0  0  0  0  # atno 8008 bound_to 7997
  154.8563  140.2937  155.5546 H   0  0  0  0  0  0  0  0  0  0  0  0  # atno 8009 bound_to 7997
  156.2997  140.2455  156.3530 H   0  0  0  0  0  0  0  0  0  0  0  0  # atno 8010 bound_to 7997
  140.1262  144.4685  150.6891 H   0  0  0  0  0  0  0  0  0  0  0  0  # atno 10167 bound_to 10162
  156.1725  130.4149  149.9625 H   0  0  0  0  0  0  0  0  0  0  0  0  # atno 10718 bound_to 10713
  154.6160  135.5469  153.7524 H   0  0  0  0  0  0  0  0  0  0  0  0  # atno 10763 bound_to 10752
  153.0216  135.6401  154.1510 H   0  0  0  0  0  0  0  0  0  0  0  0  # atno 10764 bound_to 10752
  154.1446  135.2906  155.3132 H   0  0  0  0  0  0  0  0  0  0  0  0  # atno 10765 bound_to 10752
  140.2022  134.3856  155.8090 H   0  0  0  0  0  0  0  0  0  0  0  0  # atno 11005 bound_to 11000
  144.6732  140.0837  143.7468 LP  0  0  0  0  0  0  0  0  0  0  0  0  # atno 17320 bound_to 7965
  145.9446  139.2692  143.1248 LP  0  0  0  0  0  0  0  0  0  0  0  0  # atno 17321 bound_to 7965
  140.6843  143.2342  151.5301 LP  0  0  0  0  0  0  0  0  0  0  0  0  # atno 17342 bound_to 10162
  139.5543  144.2316  152.1585 LP  0  0  0  0  0  0  0  0  0  0  0  0  # atno 17343 bound_to 10162
  156.7421  130.9083  151.3633 LP  0  0  0  0  0  0  0  0  0  0  0  0  # atno 17370 bound_to 10713
  157.6813  130.9142  150.0274 LP  0  0  0  0  0  0  0  0  0  0  0  0  # atno 17371 bound_to 10713
  141.2227  133.7100  156.8277 LP  0  0  0  0  0  0  0  0  0  0  0  0  # atno 17394 bound_to 11000
  140.2042  134.8875  157.3202 LP  0  0  0  0  0  0  0  0  0  0  0  0  # atno 17395 bound_to 11000

$$$$
