AV-unprocessed.smi:45|AV-procd|sdf|412|dock6
  -GOLD-   2262016273D 1   1.00000     0.00000
 Structure written by MMmdl.
 61 64  0  0  0  0  0  0  0  0  2 V2000
  142.4420  144.7444  158.0126 C   0  0  0  0  0  0  0  0  0  0  0  0
  142.8636  145.0966  156.7031 O   0  0  0  0  0  0  0  0  0  0  0  0
  143.7991  144.2959  156.0807 C   0  0  0  0  0  0  0  0  0  0  0  0
  144.3707  143.1419  156.6748 C   0  0  0  0  0  0  0  0  0  0  0  0
  145.3231  142.3744  155.9770 C   0  0  0  0  0  0  0  0  0  0  0  0
  145.7209  142.7447  154.6772 C   0  0  0  0  0  0  0  0  0  0  0  0
  146.7506  141.9209  153.9292 C   0  0  0  0  0  0  0  0  0  0  0  0
  146.3547  140.5299  153.7645 N   0  0  0  0  0  0  0  0  0  0  0  0
  146.9120  139.5106  154.5529 C   0  0  0  0  0  0  0  0  0  0  0  0
  147.8266  139.8571  155.4973 N   0  3  0  0  0  0  0  0  0  0  0  0
  148.3841  138.9307  156.2942 C   0  0  0  0  0  0  0  0  0  0  0  0
  149.3220  139.3241  157.2476 N   0  0  0  0  0  0  0  0  0  0  0  0
  149.8527  138.3812  158.2269 C   0  0  0  0  0  0  0  0  0  0  0  0
  151.2843  138.8312  158.5139 C   0  0  0  0  0  0  0  0  0  0  0  0
  151.2288  140.3318  158.2592 C   0  0  0  0  0  0  0  0  0  0  0  0
  150.2333  140.4598  157.0971 C   0  0  2  0  0  0  0  0  0  0  0  0
  149.5129  141.8249  157.0828 C   0  0  0  0  0  0  0  0  0  0  0  0
  150.4536  142.8608  156.9003 O   0  0  0  0  0  0  0  0  0  0  0  0
  148.0748  137.6315  156.1943 N   0  0  0  0  0  0  0  0  0  0  0  0
  147.1756  137.2354  155.2744 C   0  0  0  0  0  0  0  0  0  0  0  0
  146.5412  138.1485  154.4098 C   0  0  0  0  0  0  0  0  0  0  0  0
  145.5655  137.6645  153.3715 C   0  0  0  0  0  0  0  0  0  0  0  0
  144.3510  137.7909  153.5284 O   0  0  0  0  0  0  0  0  0  0  0  0
  146.1169  137.0782  152.2971 N   0  0  0  0  0  0  0  0  0  0  0  0
  145.3720  136.5941  151.1410 C   0  0  0  0  0  0  0  0  0  0  0  0
  144.9985  135.1271  151.2677 C   0  0  0  0  0  0  0  0  0  0  0  0
  143.9587  134.8334  152.0549 N   0  0  0  0  0  0  0  0  0  0  0  0
  143.6181  133.5302  152.1560 C   0  0  0  0  0  0  0  0  0  0  0  0
  144.3235  132.5239  151.4656 C   0  0  0  0  0  0  0  0  0  0  0  0
  145.4007  132.9543  150.6654 C   0  0  0  0  0  0  0  0  0  0  0  0
  145.7365  134.2589  150.5672 N   0  0  0  0  0  0  0  0  0  0  0  0
  145.1551  143.8877  154.0790 C   0  0  0  0  0  0  0  0  0  0  0  0
  144.2028  144.6573  154.7758 C   0  0  0  0  0  0  0  0  0  0  0  0
  143.5324  146.0556  154.0143 Cl  0  0  0  0  0  0  0  0  0  0  0  0
  150.7695  140.3205  156.1569 H   0  0  0  0  0  0  0  0  0  0  0  0
  141.7091  145.4714  158.3623 H   0  0  0  0  0  0  0  0  0  0  0  0
  143.2756  144.7533  158.7162 H   0  0  0  0  0  0  0  0  0  0  0  0
  141.9652  143.7634  158.0276 H   0  0  0  0  0  0  0  0  0  0  0  0
  144.0958  142.8229  157.6686 H   0  0  0  0  0  0  0  0  0  0  0  0
  145.7493  141.4990  156.4451 H   0  0  0  0  0  0  0  0  0  0  0  0
  146.9062  142.3705  152.9478 H   0  0  0  0  0  0  0  0  0  0  0  0
  147.7045  141.9626  154.4568 H   0  0  0  0  0  0  0  0  0  0  0  0
  145.6337  140.3069  153.0923 H   0  0  0  0  0  0  0  0  0  0  0  0
  149.2426  138.4338  159.1294 H   0  0  0  0  0  0  0  0  0  0  0  0
  149.8345  137.3523  157.8650 H   0  0  0  0  0  0  0  0  0  0  0  0
  151.6155  138.5783  159.5215 H   0  0  0  0  0  0  0  0  0  0  0  0
  151.9691  138.3629  157.8053 H   0  0  0  0  0  0  0  0  0  0  0  0
  150.8459  140.8341  159.1491 H   0  0  0  0  0  0  0  0  0  0  0  0
  152.2049  140.7596  158.0283 H   0  0  0  0  0  0  0  0  0  0  0  0
  148.7849  141.8936  156.2756 H   0  0  0  0  0  0  0  0  0  0  0  0
  148.9702  141.9891  158.0144 H   0  0  0  0  0  0  0  0  0  0  0  0
  150.1248  143.4576  156.2449 H   0  0  0  0  0  0  0  0  0  0  0  0
  146.9717  136.1753  155.2282 H   0  0  0  0  0  0  0  0  0  0  0  0
  147.1220  136.9966  152.2529 H   0  0  0  0  0  0  0  0  0  0  0  0
  144.4584  137.1821  151.0490 H   0  0  0  0  0  0  0  0  0  0  0  0
  145.9419  136.7691  150.2263 H   0  0  0  0  0  0  0  0  0  0  0  0
  142.7789  133.2890  152.7913 H   0  0  0  0  0  0  0  0  0  0  0  0
  144.0533  131.4812  151.5452 H   0  0  0  0  0  0  0  0  0  0  0  0
  145.9936  132.2500  150.1010 H   0  0  0  0  0  0  0  0  0  0  0  0
  145.4523  144.1813  153.0829 H   0  0  0  0  0  0  0  0  0  0  0  0
  148.0867  140.8384  155.5933 H   0  0  0  0  0  0  0  0  0  0  0  0
  1  2  1  0  0  0  0
  1 36  1  0  0  0  0
  1 37  1  0  0  0  0
  1 38  1  0  0  0  0
  2  3  1  0  0  0  0
  3 33  1  0  0  0  0
  3  4  2  0  0  0  0
  4  5  1  0  0  0  0
  4 39  1  0  0  0  0
  5  6  2  0  0  0  0
  5 40  1  0  0  0  0
  6  7  1  0  0  0  0
  6 32  1  0  0  0  0
  7  8  1  0  0  0  0
  7 41  1  0  0  0  0
  7 42  1  0  0  0  0
  8  9  1  0  0  0  0
  8 43  1  0  0  0  0
  9 21  1  0  0  0  0
  9 10  2  0  0  0  0
 10 11  1  0  0  0  0
 10 61  1  0  0  0  0
 11 12  1  0  0  0  0
 11 19  2  0  0  0  0
 12 16  1  0  0  0  0
 12 13  1  0  0  0  0
 13 14  1  0  0  0  0
 13 44  1  0  0  0  0
 13 45  1  0  0  0  0
 14 15  1  0  0  0  0
 14 46  1  0  0  0  0
 14 47  1  0  0  0  0
 15 16  1  0  0  0  0
 15 48  1  0  0  0  0
 15 49  1  0  0  0  0
 16 35  1  0  0  0  0
 16 17  1  0  0  0  0
 17 18  1  0  0  0  0
 17 50  1  0  0  0  0
 17 51  1  0  0  0  0
 18 52  1  0  0  0  0
 19 20  1  0  0  0  0
 20 21  2  0  0  0  0
 20 53  1  0  0  0  0
 21 22  1  0  0  0  0
 22 23  2  0  0  0  0
 22 24  1  0  0  0  0
 24 25  1  0  0  0  0
 24 54  1  0  0  0  0
 25 26  1  0  0  0  0
 25 55  1  0  0  0  0
 25 56  1  0  0  0  0
 26 31  1  0  0  0  0
 26 27  2  0  0  0  0
 27 28  1  0  0  0  0
 28 29  2  0  0  0  0
 28 57  1  0  0  0  0
 29 30  1  0  0  0  0
 29 58  1  0  0  0  0
 30 31  2  0  0  0  0
 30 59  1  0  0  0  0
 32 33  2  0  0  0  0
 32 60  1  0  0  0  0
 33 34  1  0  0  0  0
M  CHG  1  10   1
M  END
> <s_m_source_file>
AV-unprocessed.smi

> <i_m_source_file_index>
45

> <i_lp_mmshare_version>
43012

> <i_f3d_flags>
0

> <s_epik_input>
W0NIM11PYzFbY0hdW2NIXWMoW2NIXWMxQ2wpW0NIMl1bTkhdYzJuYyhOM1tDSDJdW0NIMl1bQ0gyXVtDQEhdM1tDSDJdW09IXSluW2NIXWMyQyg9TylbTkhdW0NIMl1jNG5bY0hdW2NIXVtjSF1uNA==

> <s_epik_cmdline>
J2VwaWtfcHl0aG9uJywgJy1waCcsICc3LjAnLCAnLXRuJywgJzgnLCAnLW1hJywgJzIwMCcsICctbWV0YWxfYmluZGluZycsICctaW1hZScsICc8aW5maWxlLm1hZT4nLCAnLW9tYWUnLCAnPG91dGZpbGUubWFlPic=

> <r_lp_tautomer_probability>
0.424989

> <r_epik_Ionization_Penalty>
2.31209

> <r_epik_Ionization_Penalty_Charging>
2.31199

> <r_epik_Ionization_Penalty_Neutral>
9.65277e-05

> <r_epik_State_Penalty>
2.29675

> <r_epik_Charging_Adjusted_Penalty>
4.60874

> <i_epik_Tot_Q>
1

> <i_epik_Tot_abs_Q>
1

> <r_epik_Metal_State_Penalty>
2.3404

> <b_epik_Metal_Only>
0

> <s_epik_Chemistry_Notes>
This compound contains an electron-poor aromatic ring that is susceptible to covalent hydrolysis at low pH, typically resulting in measured values for nitrogen ring protonation that are around two units higher than predicted values.

> <s_lp_Force_Field>
OPLS_2005

> <r_lp_Energy>
35.4262

> <b_lp_Chiralities_Consistent>
1

> <s_lp_Variant>
AV-unprocessed.smi:45-6

> <Gold.Version>
5.8.1

> <Gold.Id.Protein>
6NUR|6NUR_protein|mol2

> <Gold.PLP.Fitness>
52.7253

> <Gold.PLP.PLP>
-40.2827

> <Gold.PLP.part.hbond>
-3.0000

> <Gold.PLP.part.metal>
0.0000

> <Gold.PLP.part.buried>
-8.2604

> <Gold.PLP.part.nonpolar>
-33.5596

> <Gold.PLP.part.repulsive>
2.7605

> <Gold.PLP.ligand.clash>
0.0000

> <Gold.PLP.ligand.torsion>
2.1768

> <Gold.PLP.Chemscore.Hbond>
3.9666

> <Gold.PLP.Chemscore.CHOScore>
1.0000

> <Gold.PLP.Chemscore.Metal>
0.0000

> <Gold.Chemscore.Hbonds>
donor molecule, donor type, donor heavy atom, donor atom, acceptor molecule, acceptor atom, score
      L1  H     8    43       P1 10175  1.87
      L1  H    18    52       P1  8028  1.00
      L1  H    24    54       P1  7948  1.00
      L1  C    28    57       P1 10957  1.00

> <Gold.PLP.Chemscore.Internal.Correction>
1.8962

> <Gold.Rescore>
     Score         DG    S(hbond)    S(metal)    S(lipo)     H(rot)  DE(clash)    DE(int)     intcor
     14.69     -17.91       2.82        0.00      90.15       2.94       0.19       3.02       ----

> <Gold.Chemscore.Fitness>
14.6912

> <Gold.Chemscore.DG>
-17.9093

> <Gold.Chemscore.ZeroCoef>
-5.4800

> <Gold.Chemscore.Hbond>
2.8164

> <Gold.Chemscore.Metal>
0.0000

> <Gold.Chemscore.Lipo>
90.1505

> <Gold.Chemscore.Internal_Hbond>
0.0000

> <Gold.Chemscore.DEClash>
0.1946

> <Gold.Chemscore.DEInternal>
3.0235

> <Gold.Chemscore.Rot>
2.9395

> <Gold.Chemscore.Internal.Correction>
   9.000000E+99

> <Gold.Chemscore.Hbonds>
donor molecule, donor type, donor heavy atom, donor atom, acceptor molecule, acceptor atom, score
      L1  H     8    43       P1 10175  0.80
      L1  H    18    52       P1  8028  0.95
      L1  H    24    54       P1  7948  0.95

> <Gold.Chemscore.Hbond.Weighted>
-9.4069

> <Gold.Chemscore.Metal.Weighted>
-0.0000

> <Gold.Chemscore.Lipo.Weighted>
-10.5476

> <Gold.Chemscore.Internal_Hbond.Weighted>
0.0000

> <Gold.Chemscore.DEClash.Weighted>
0.1946

> <Gold.Chemscore.DEInternal.Weighted>
3.0235

> <Gold.Chemscore.Rot.Weighted>
7.5251

> <Gold.Chemscore.Internal.Correction.Weighted>
   9.000000E+99

> <Gold.Protein.RotatedTorsions>
[ 6907 6896 6895 6894 ] final  -29.06 input  -60.11 | X-H torsion
[ 7974 7965 7964 7962 ] final -130.67 input  175.53 | X-H torsion
[ 8008 7997 7996 7995 ] final  169.23 input   59.86 | X-H torsion
[ 10167 10162 10161 10158 ] final  -58.64 input  -65.29 | X-H torsion
[ 10718 10713 10712 10709 ] final   -8.46 input   66.30 | X-H torsion
[ 10763 10752 10751 10750 ] final  175.01 input  -60.55 | X-H torsion
[ 11005 11000 10999 10996 ] final   73.07 input  -57.11 | X-H torsion

> <Gold.Protein.ActiveResidues>
 VAL166  LYS551  ARG553  GLY616  TRP617  ASP618  TYR619  PRO620  LYS621  CYS622 
 ASP623  PHE694  ASN695  SER759  ASP760  ASP761  ALA762  ILE779  LEU786  VAL792 
 PHE793  MET794  SER795  GLU796  ALA797  LYS798  CYS799  TRP800  GLU811  SER814 

> <Gold.Protein.RotatedAtoms>
  151.1243  135.0096  159.8552 H   0  0  0  0  0  0  0  0  0  0  0  0  # atno 6907 bound_to 6896
  152.5449  134.1685  159.8597 H   0  0  0  0  0  0  0  0  0  0  0  0  # atno 6908 bound_to 6896
  151.1746  133.4718  159.2627 H   0  0  0  0  0  0  0  0  0  0  0  0  # atno 6909 bound_to 6896
  144.9453  140.7284  143.4821 H   0  0  0  0  0  0  0  0  0  0  0  0  # atno 7974 bound_to 7965
  156.1476  140.1569  156.8822 H   0  0  0  0  0  0  0  0  0  0  0  0  # atno 8008 bound_to 7997
  154.5042  140.0817  156.7897 H   0  0  0  0  0  0  0  0  0  0  0  0  # atno 8009 bound_to 7997
  155.3959  140.3412  155.4256 H   0  0  0  0  0  0  0  0  0  0  0  0  # atno 8010 bound_to 7997
  140.6184  143.2411  151.5540 H   0  0  0  0  0  0  0  0  0  0  0  0  # atno 10167 bound_to 10162
  156.7023  130.5097  149.5914 H   0  0  0  0  0  0  0  0  0  0  0  0  # atno 10718 bound_to 10713
  154.4617  135.2768  155.1708 H   0  0  0  0  0  0  0  0  0  0  0  0  # atno 10763 bound_to 10752
  154.3493  135.6153  153.5638 H   0  0  0  0  0  0  0  0  0  0  0  0  # atno 10764 bound_to 10752
  152.9855  135.5807  154.4981 H   0  0  0  0  0  0  0  0  0  0  0  0  # atno 10765 bound_to 10752
  139.9459  134.7315  156.0982 H   0  0  0  0  0  0  0  0  0  0  0  0  # atno 11005 bound_to 11000
  145.2928  139.1877  143.4731 LP  0  0  0  0  0  0  0  0  0  0  0  0  # atno 17320 bound_to 7965
  146.3301  140.2907  142.8615 LP  0  0  0  0  0  0  0  0  0  0  0  0  # atno 17321 bound_to 7965
  139.5418  144.2627  152.1366 LP  0  0  0  0  0  0  0  0  0  0  0  0  # atno 17342 bound_to 10162
  140.1841  144.4815  150.6513 LP  0  0  0  0  0  0  0  0  0  0  0  0  # atno 17343 bound_to 10162
  156.1720  130.6443  151.0849 LP  0  0  0  0  0  0  0  0  0  0  0  0  # atno 17370 bound_to 10713
  157.6968  131.0791  150.6943 LP  0  0  0  0  0  0  0  0  0  0  0  0  # atno 17371 bound_to 10713
  141.1108  133.6644  156.2975 LP  0  0  0  0  0  0  0  0  0  0  0  0  # atno 17394 bound_to 11000
  140.5837  134.5720  157.5485 LP  0  0  0  0  0  0  0  0  0  0  0  0  # atno 17395 bound_to 11000

$$$$
