AV-unprocessed.smi:2747|AV-procd|sdf|10577|dock4
  -GOLD-   2272015 33D 1   1.00000     0.00000
 Structure written by MMmdl.
 24 25  0  0  0  0  0  0  0  0  1 V2000
  150.0721  139.8523  154.0126 O   0  0  0  0  0  0  0  0  0  0  0  0
  149.4006  140.7465  154.8810 C   0  0  2  0  0  0  0  0  0  0  0  0
  150.4044  141.7734  155.4430 C   0  0  0  0  0  0  0  0  0  0  0  0
  151.2857  141.1976  156.4432 N   0  0  0  0  0  0  0  0  0  0  0  0
  151.9109  140.0151  156.1815 N   0  0  0  0  0  0  0  0  0  0  0  0
  152.6365  139.6917  157.2099 N   0  0  0  0  0  0  0  0  0  0  0  0
  152.4863  140.6799  158.1685 C   0  0  0  0  0  0  0  0  0  0  0  0
  153.0384  140.8319  159.4599 C   0  0  0  0  0  0  0  0  0  0  0  0
  152.7105  141.9562  160.2491 C   0  0  0  0  0  0  0  0  0  0  0  0
  153.4047  142.1053  161.8242 Cl  0  0  0  0  0  0  0  0  0  0  0  0
  151.8247  142.9433  159.7532 C   0  0  0  0  0  0  0  0  0  0  0  0
  151.4105  144.3234  160.7063 Cl  0  0  0  0  0  0  0  0  0  0  0  0
  151.2679  142.8054  158.4660 C   0  0  0  0  0  0  0  0  0  0  0  0
  151.6077  141.6794  157.6972 C   0  0  0  0  0  0  0  0  0  0  0  0
  148.6863  139.9430  155.9842 C   0  0  0  0  0  0  0  0  0  0  0  0
  148.0942  140.7708  156.8454 F   0  0  0  0  0  0  0  0  0  0  0  0
  147.7791  139.1161  155.4631 F   0  0  0  0  0  0  0  0  0  0  0  0
  149.5829  139.2220  156.6573 F   0  0  0  0  0  0  0  0  0  0  0  0
  149.6150  139.8360  153.1857 H   0  0  0  0  0  0  0  0  0  0  0  0
  148.6480  141.2714  154.2911 H   0  0  0  0  0  0  0  0  0  0  0  0
  151.0174  142.1844  154.6397 H   0  0  0  0  0  0  0  0  0  0  0  0
  149.8770  142.6161  155.8913 H   0  0  0  0  0  0  0  0  0  0  0  0
  153.7141  140.0820  159.8443 H   0  0  0  0  0  0  0  0  0  0  0  0
  150.5901  143.5507  158.0765 H   0  0  0  0  0  0  0  0  0  0  0  0
  1  2  1  0  0  0  0
  1 19  1  0  0  0  0
  2  3  1  0  0  0  0
  2 15  1  0  0  0  0
  2 20  1  0  0  0  0
  3  4  1  0  0  0  0
  3 21  1  0  0  0  0
  3 22  1  0  0  0  0
  4 14  1  0  0  0  0
  4  5  1  0  0  0  0
  5  6  2  0  0  0  0
  6  7  1  0  0  0  0
  7 14  2  0  0  0  0
  7  8  1  0  0  0  0
  8  9  2  0  0  0  0
  8 23  1  0  0  0  0
  9 10  1  0  0  0  0
  9 11  1  0  0  0  0
 11 12  1  0  0  0  0
 11 13  2  0  0  0  0
 13 14  1  0  0  0  0
 13 24  1  0  0  0  0
 15 16  1  0  0  0  0
 15 17  1  0  0  0  0
 15 18  1  0  0  0  0
M  END
> <s_m_source_file>
AV-unprocessed.smi

> <i_m_source_file_index>
2747

> <i_lp_mmshare_version>
43012

> <i_f3d_flags>
0

> <s_epik_input>
RkMoRikoRilbQ0BIXShbT0hdKVtDSDJdbihubjEpYyhjMTIpW2NIXWMoQ2wpYyhDbClbY0hdMg==

> <s_epik_cmdline>
J2VwaWtfcHl0aG9uJywgJy1waCcsICc3LjAnLCAnLXRuJywgJzgnLCAnLW1hJywgJzIwMCcsICctbWV0YWxfYmluZGluZycsICctaW1hZScsICc8aW5maWxlLm1hZT4nLCAnLW9tYWUnLCAnPG91dGZpbGUubWFlPic=

> <r_lp_tautomer_probability>
1

> <r_epik_Ionization_Penalty>
0.0735676

> <r_epik_Ionization_Penalty_Charging>
0

> <r_epik_Ionization_Penalty_Neutral>
0.0735676

> <r_epik_State_Penalty>
0.0647209

> <r_epik_Charging_Adjusted_Penalty>
0.0647209

> <i_epik_Tot_Q>
0

> <i_epik_Tot_abs_Q>
0

> <r_epik_Metal_State_Penalty>
0.0647209

> <b_epik_Metal_Only>
0

> <s_lp_Force_Field>
OPLS_2005

> <r_lp_Energy>
9.1287

> <b_lp_Chiralities_Consistent>
1

> <s_lp_Variant>
AV-unprocessed.smi:2747-1

> <Gold.Version>
5.8.1

> <Gold.Id.Protein>
6NUR|6NUR_protein|mol2

> <Gold.PLP.Fitness>
41.0809

> <Gold.PLP.PLP>
-32.7697

> <Gold.PLP.part.hbond>
-3.0000

> <Gold.PLP.part.metal>
0.0000

> <Gold.PLP.part.buried>
-4.2111

> <Gold.PLP.part.nonpolar>
-24.4963

> <Gold.PLP.part.repulsive>
0.0000

> <Gold.PLP.ligand.clash>
0.0000

> <Gold.PLP.ligand.torsion>
0.2145

> <Gold.PLP.Chemscore.Hbond>
2.9105

> <Gold.PLP.Chemscore.CHOScore>
0.0000

> <Gold.PLP.Chemscore.Metal>
0.0000

> <Gold.Chemscore.Hbonds>
donor molecule, donor type, donor heavy atom, donor atom, acceptor molecule, acceptor atom, score
      L1  H     1    19       P1  7957  0.99
      P1  H  7989  7998       L1     1  0.88
      P1  H  7997  8008       L1     6  1.00

> <Gold.PLP.Chemscore.Internal.Correction>
0.0086

> <Gold.Rescore>
     Score         DG    S(hbond)    S(metal)    S(lipo)     H(rot)  DE(clash)    DE(int)     intcor
     12.75     -17.88       2.05        0.00      89.63       1.92       0.19       4.93       ----

> <Gold.Chemscore.Fitness>
12.7477

> <Gold.Chemscore.DG>
-17.8758

> <Gold.Chemscore.ZeroCoef>
-5.4800

> <Gold.Chemscore.Hbond>
2.0458

> <Gold.Chemscore.Metal>
0.0000

> <Gold.Chemscore.Lipo>
89.6321

> <Gold.Chemscore.Internal_Hbond>
0.0000

> <Gold.Chemscore.DEClash>
0.1937

> <Gold.Chemscore.DEInternal>
4.9345

> <Gold.Chemscore.Rot>
1.9235

> <Gold.Chemscore.Internal.Correction>
   9.000000E+99

> <Gold.Chemscore.Hbonds>
donor molecule, donor type, donor heavy atom, donor atom, acceptor molecule, acceptor atom, score
      L1  H     1    19       P1  7957  0.87
      P1  H  7989  7998       L1     1  0.07
      P1  H  7997  8008       L1     6  0.08

> <Gold.Chemscore.Hbond.Weighted>
-6.8331

> <Gold.Chemscore.Metal.Weighted>
-0.0000

> <Gold.Chemscore.Lipo.Weighted>
-10.4870

> <Gold.Chemscore.Internal_Hbond.Weighted>
0.0000

> <Gold.Chemscore.DEClash.Weighted>
0.1937

> <Gold.Chemscore.DEInternal.Weighted>
4.9345

> <Gold.Chemscore.Rot.Weighted>
4.9242

> <Gold.Chemscore.Internal.Correction.Weighted>
   9.000000E+99

> <Gold.Protein.RotatedTorsions>
[ 6907 6896 6895 6894 ] final  139.38 input  -60.11 | X-H torsion
[ 7974 7965 7964 7962 ] final   83.83 input  175.53 | X-H torsion
[ 8008 7997 7996 7995 ] final  -55.79 input   59.86 | X-H torsion
[ 10167 10162 10161 10158 ] final   -6.26 input  -65.29 | X-H torsion
[ 10718 10713 10712 10709 ] final  -74.99 input   66.30 | X-H torsion
[ 10763 10752 10751 10750 ] final  -38.55 input  -60.55 | X-H torsion
[ 11005 11000 10999 10996 ] final -166.36 input  -57.11 | X-H torsion

> <Gold.Protein.ActiveResidues>
 VAL166  LYS551  ARG553  GLY616  TRP617  ASP618  TYR619  PRO620  LYS621  CYS622 
 ASP623  PHE694  ASN695  SER759  ASP760  ASP761  ALA762  ILE779  LEU786  VAL792 
 PHE793  MET794  SER795  GLU796  ALA797  LYS798  CYS799  TRP800  GLU811  SER814 

> <Gold.Protein.RotatedAtoms>
  152.2556  133.5252  159.5350 H   0  0  0  0  0  0  0  0  0  0  0  0  # atno 6907 bound_to 6896
  150.7108  134.0900  159.3937 H   0  0  0  0  0  0  0  0  0  0  0  0  # atno 6908 bound_to 6896
  151.8819  135.0450  160.0540 H   0  0  0  0  0  0  0  0  0  0  0  0  # atno 6909 bound_to 6896
  145.6067  139.2361  143.2215 H   0  0  0  0  0  0  0  0  0  0  0  0  # atno 7974 bound_to 7965
  154.4207  140.1144  156.5534 H   0  0  0  0  0  0  0  0  0  0  0  0  # atno 8008 bound_to 7997
  155.6386  140.3496  155.4688 H   0  0  0  0  0  0  0  0  0  0  0  0  # atno 8009 bound_to 7997
  155.9889  140.1175  157.0646 H   0  0  0  0  0  0  0  0  0  0  0  0  # atno 8010 bound_to 7997
  140.6991  143.6214  150.8609 H   0  0  0  0  0  0  0  0  0  0  0  0  # atno 10167 bound_to 10162
  156.0223  130.4430  150.2976 H   0  0  0  0  0  0  0  0  0  0  0  0  # atno 10718 bound_to 10713
  153.9148  135.6788  153.4749 H   0  0  0  0  0  0  0  0  0  0  0  0  # atno 10763 bound_to 10752
  153.1059  135.4805  154.8948 H   0  0  0  0  0  0  0  0  0  0  0  0  # atno 10764 bound_to 10752
  154.7508  135.3184  154.8516 H   0  0  0  0  0  0  0  0  0  0  0  0  # atno 10765 bound_to 10752
  140.5653  134.5292  157.5151 H   0  0  0  0  0  0  0  0  0  0  0  0  # atno 11005 bound_to 11000
  146.1535  140.6891  142.9311 LP  0  0  0  0  0  0  0  0  0  0  0  0  # atno 17320 bound_to 7965
  144.7287  140.4605  143.6954 LP  0  0  0  0  0  0  0  0  0  0  0  0  # atno 17321 bound_to 7965
  139.9934  143.5822  152.2902 LP  0  0  0  0  0  0  0  0  0  0  0  0  # atno 17342 bound_to 10162
  139.6485  144.7659  151.2195 LP  0  0  0  0  0  0  0  0  0  0  0  0  # atno 17343 bound_to 10162
  157.1079  131.0213  151.3060 LP  0  0  0  0  0  0  0  0  0  0  0  0  # atno 17370 bound_to 10713
  157.4728  130.7719  149.7339 LP  0  0  0  0  0  0  0  0  0  0  0  0  # atno 17371 bound_to 10713
  139.9388  134.7826  156.0733 LP  0  0  0  0  0  0  0  0  0  0  0  0  # atno 17394 bound_to 11000
  141.1089  133.6650  156.2931 LP  0  0  0  0  0  0  0  0  0  0  0  0  # atno 17395 bound_to 11000

$$$$
