AV-unprocessed.smi:1403|AV-procd|sdf|5699|dock5
  -GOLD-   22720 5333D 1   1.00000     0.00000
 Structure written by MMmdl.
 36 37  0  0  0  0  0  0  0  0  1 V2000
  145.7996  135.6259  151.4043 C   0  0  0  0  0  0  0  0  0  0  0  0
  145.9935  134.3849  152.2876 C   0  0  2  0  0  0  0  0  0  0  0  0
  147.3963  134.3121  152.6928 N   0  0  0  0  0  0  0  0  0  0  0  0
  147.9393  133.3860  153.4986 C   0  0  0  0  0  0  0  0  0  0  0  0
  147.2997  132.4535  153.9867 O   0  0  0  0  0  0  0  0  0  0  0  0
  149.4449  133.5257  153.7643 C   0  0  0  0  0  0  0  0  0  0  0  0
  149.7445  134.2892  154.9843 N   0  0  0  0  0  0  0  0  0  0  0  0
  150.6349  135.3529  154.9449 C   0  0  0  0  0  0  0  0  0  0  0  0
  150.9623  136.0916  156.0315 C   0  0  0  0  0  0  0  0  0  0  0  0
  150.3748  135.7919  157.3328 C   0  0  0  0  0  0  0  0  0  0  0  0
  150.6063  136.4032  158.3734 O   0  0  0  0  0  0  0  0  0  0  0  0
  149.4863  134.7134  157.3319 N   0  0  0  0  0  0  0  0  0  0  0  0
  149.1460  133.9467  156.2164 C   0  0  0  0  0  0  0  0  0  0  0  0
  148.3525  133.0128  156.3264 O   0  0  0  0  0  0  0  0  0  0  0  0
  145.5755  133.0903  151.5603 C   0  0  1  0  0  0  0  0  0  0  0  0
  144.1976  133.1356  150.8997 C   0  0  0  0  0  0  0  0  0  0  0  0
  144.3052  132.0130  149.8928 C   0  0  0  0  0  0  0  0  0  0  0  0
  145.7640  132.1071  149.4474 C   0  0  0  0  0  0  0  0  0  0  0  0
  146.4546  132.8161  150.4743 O   0  0  0  0  0  0  0  0  0  0  0  0
  149.0564  134.4670  158.2115 H   0  0  0  0  0  0  0  0  0  0  0  0
  144.7562  135.7413  151.1101 H   0  0  0  0  0  0  0  0  0  0  0  0
  146.3967  135.5641  150.4937 H   0  0  0  0  0  0  0  0  0  0  0  0
  146.0915  136.5334  151.9337 H   0  0  0  0  0  0  0  0  0  0  0  0
  145.3588  134.5070  153.1673 H   0  0  0  0  0  0  0  0  0  0  0  0
  148.0049  135.0330  152.3331 H   0  0  0  0  0  0  0  0  0  0  0  0
  149.8690  132.5230  153.8318 H   0  0  0  0  0  0  0  0  0  0  0  0
  149.9339  133.9870  152.9037 H   0  0  0  0  0  0  0  0  0  0  0  0
  151.0981  135.6088  154.0026 H   0  0  0  0  0  0  0  0  0  0  0  0
  151.6634  136.9082  155.9376 H   0  0  0  0  0  0  0  0  0  0  0  0
  145.6143  132.2427  152.2474 H   0  0  0  0  0  0  0  0  0  0  0  0
  143.3790  132.9959  151.6062 H   0  0  0  0  0  0  0  0  0  0  0  0
  144.0497  134.0866  150.3858 H   0  0  0  0  0  0  0  0  0  0  0  0
  144.1260  131.0561  150.3845 H   0  0  0  0  0  0  0  0  0  0  0  0
  143.5999  132.1090  149.0669 H   0  0  0  0  0  0  0  0  0  0  0  0
  146.2022  131.1212  149.2902 H   0  0  0  0  0  0  0  0  0  0  0  0
  145.8522  132.6687  148.5169 H   0  0  0  0  0  0  0  0  0  0  0  0
  1  2  1  0  0  0  0
  1 21  1  0  0  0  0
  1 22  1  0  0  0  0
  1 23  1  0  0  0  0
  2  3  1  0  0  0  0
  2 15  1  0  0  0  0
  2 24  1  0  0  0  0
  3  4  1  0  0  0  0
  3 25  1  0  0  0  0
  4  5  2  0  0  0  0
  4  6  1  0  0  0  0
  6  7  1  0  0  0  0
  6 26  1  0  0  0  0
  6 27  1  0  0  0  0
  7 13  1  0  0  0  0
  7  8  1  0  0  0  0
  8  9  2  0  0  0  0
  8 28  1  0  0  0  0
  9 10  1  0  0  0  0
  9 29  1  0  0  0  0
 10 11  2  0  0  0  0
 10 12  1  0  0  0  0
 12 20  1  0  0  0  0
 12 13  1  0  0  0  0
 13 14  2  0  0  0  0
 15 19  1  0  0  0  0
 15 16  1  0  0  0  0
 15 30  1  0  0  0  0
 16 17  1  0  0  0  0
 16 31  1  0  0  0  0
 16 32  1  0  0  0  0
 17 18  1  0  0  0  0
 17 33  1  0  0  0  0
 17 34  1  0  0  0  0
 18 19  1  0  0  0  0
 18 35  1  0  0  0  0
 18 36  1  0  0  0  0
M  END
> <s_m_source_file>
AV-unprocessed.smi

> <i_m_source_file_index>
1403

> <i_lp_mmshare_version>
43012

> <i_f3d_flags>
0

> <s_epik_input>
TzFbQ0gyXVtDSDJdW0NIMl1bQ0BIXTFbQ0BIXShbQ0gzXSlbTkhdQyg9TylbQ0gyXW4yW2NIXVtjSF1jKD1PKVtuSF1jMj1P

> <s_epik_cmdline>
J2VwaWtfcHl0aG9uJywgJy1waCcsICc3LjAnLCAnLXRuJywgJzgnLCAnLW1hJywgJzIwMCcsICctbWV0YWxfYmluZGluZycsICctaW1hZScsICc8aW5maWxlLm1hZT4nLCAnLW9tYWUnLCAnPG91dGZpbGUubWFlPic=

> <r_lp_tautomer_probability>
0.999537

> <r_epik_Ionization_Penalty>
0.00331407

> <r_epik_Ionization_Penalty_Charging>
0.00331405

> <r_epik_Ionization_Penalty_Neutral>
2.30132e-08

> <r_epik_State_Penalty>
0.00234266

> <r_epik_Charging_Adjusted_Penalty>
0.00565671

> <i_epik_Tot_Q>
0

> <i_epik_Tot_abs_Q>
0

> <r_epik_Metal_State_Penalty>
0.365604

> <b_epik_Metal_Only>
0

> <s_lp_Force_Field>
OPLS_2005

> <r_lp_Energy>
18.4227

> <b_lp_Chiralities_Consistent>
1

> <s_lp_Variant>
AV-unprocessed.smi:1403-3

> <Gold.Version>
5.8.1

> <Gold.Id.Protein>
6NUR|6NUR_protein|mol2

> <Gold.PLP.Fitness>
37.0280

> <Gold.PLP.PLP>
-29.5021

> <Gold.PLP.part.hbond>
-2.0000

> <Gold.PLP.part.metal>
0.0000

> <Gold.PLP.part.buried>
-2.8770

> <Gold.PLP.part.nonpolar>
-24.7424

> <Gold.PLP.part.repulsive>
0.3618

> <Gold.PLP.ligand.clash>
0.0000

> <Gold.PLP.ligand.torsion>
0.5056

> <Gold.PLP.Chemscore.Hbond>
1.8640

> <Gold.PLP.Chemscore.CHOScore>
0.9762

> <Gold.PLP.Chemscore.Metal>
0.0000

> <Gold.Chemscore.Hbonds>
donor molecule, donor type, donor heavy atom, donor atom, acceptor molecule, acceptor atom, score
      L1  H     3    25       P1  7948  1.00
      P1  H  6896  6909       L1    11  0.85
      L1  C     8    28       P1  7949  0.98

> <Gold.PLP.Chemscore.Internal.Correction>
0.0165

> <Gold.Rescore>
     Score         DG    S(hbond)    S(metal)    S(lipo)     H(rot)  DE(clash)    DE(int)     intcor
      9.55     -13.27       1.75        0.00      61.14       2.04       0.10       3.61       ----

> <Gold.Chemscore.Fitness>
9.5541

> <Gold.Chemscore.DG>
-13.2673

> <Gold.Chemscore.ZeroCoef>
-5.4800

> <Gold.Chemscore.Hbond>
1.7532

> <Gold.Chemscore.Metal>
0.0000

> <Gold.Chemscore.Lipo>
61.1350

> <Gold.Chemscore.Internal_Hbond>
0.0000

> <Gold.Chemscore.DEClash>
0.1027

> <Gold.Chemscore.DEInternal>
3.6105

> <Gold.Chemscore.Rot>
2.0395

> <Gold.Chemscore.Internal.Correction>
   9.000000E+99

> <Gold.Chemscore.Hbonds>
donor molecule, donor type, donor heavy atom, donor atom, acceptor molecule, acceptor atom, score
      L1  H     3    25       P1  7948  0.79
      P1  H  6896  6909       L1    11  0.36

> <Gold.Chemscore.Hbond.Weighted>
-5.8556

> <Gold.Chemscore.Metal.Weighted>
-0.0000

> <Gold.Chemscore.Lipo.Weighted>
-7.1528

> <Gold.Chemscore.Internal_Hbond.Weighted>
0.0000

> <Gold.Chemscore.DEClash.Weighted>
0.1027

> <Gold.Chemscore.DEInternal.Weighted>
3.6105

> <Gold.Chemscore.Rot.Weighted>
5.2211

> <Gold.Chemscore.Internal.Correction.Weighted>
   9.000000E+99

> <Gold.Protein.RotatedTorsions>
[ 6907 6896 6895 6894 ] final   77.52 input  -60.11 | X-H torsion
[ 7974 7965 7964 7962 ] final -137.11 input  175.53 | X-H torsion
[ 8008 7997 7996 7995 ] final   25.08 input   59.86 | X-H torsion
[ 10167 10162 10161 10158 ] final -139.79 input  -65.29 | X-H torsion
[ 10718 10713 10712 10709 ] final   28.32 input   66.30 | X-H torsion
[ 10763 10752 10751 10750 ] final   58.80 input  -60.55 | X-H torsion
[ 11005 11000 10999 10996 ] final -120.29 input  -57.11 | X-H torsion

> <Gold.Protein.ActiveResidues>
 VAL166  LYS551  ARG553  GLY616  TRP617  ASP618  TYR619  PRO620  LYS621  CYS622 
 ASP623  PHE694  ASN695  SER759  ASP760  ASP761  ALA762  ILE779  LEU786  VAL792 
 PHE793  MET794  SER795  GLU796  ALA797  LYS798  CYS799  TRP800  GLU811  SER814 

> <Gold.Protein.RotatedAtoms>
  152.5121  134.3805  159.9349 H   0  0  0  0  0  0  0  0  0  0  0  0  # atno 6907 bound_to 6896
  151.3762  133.3831  159.2713 H   0  0  0  0  0  0  0  0  0  0  0  0  # atno 6908 bound_to 6896
  150.9540  134.8956  159.7748 H   0  0  0  0  0  0  0  0  0  0  0  0  # atno 6909 bound_to 6896
  144.8870  140.6588  143.5170 H   0  0  0  0  0  0  0  0  0  0  0  0  # atno 7974 bound_to 7965
  155.0061  140.3131  155.4848 H   0  0  0  0  0  0  0  0  0  0  0  0  # atno 8008 bound_to 7997
  156.2917  140.2223  156.5115 H   0  0  0  0  0  0  0  0  0  0  0  0  # atno 8009 bound_to 7997
  154.7575  140.0461  157.0934 H   0  0  0  0  0  0  0  0  0  0  0  0  # atno 8010 bound_to 7997
  139.8345  143.7403  152.2665 H   0  0  0  0  0  0  0  0  0  0  0  0  # atno 10167 bound_to 10162
  157.2319  130.7028  149.6317 H   0  0  0  0  0  0  0  0  0  0  0  0  # atno 10718 bound_to 10713
  152.9879  135.5594  154.5611 H   0  0  0  0  0  0  0  0  0  0  0  0  # atno 10763 bound_to 10752
  154.5030  135.2798  155.1407 H   0  0  0  0  0  0  0  0  0  0  0  0  # atno 10764 bound_to 10752
  154.2830  135.6341  153.5407 H   0  0  0  0  0  0  0  0  0  0  0  0  # atno 10765 bound_to 10752
  141.0154  134.0203  157.3356 H   0  0  0  0  0  0  0  0  0  0  0  0  # atno 11005 bound_to 11000
  145.3851  139.1628  143.4259 LP  0  0  0  0  0  0  0  0  0  0  0  0  # atno 17320 bound_to 7965
  146.3030  140.3936  142.8697 LP  0  0  0  0  0  0  0  0  0  0  0  0  # atno 17321 bound_to 7965
  139.7620  144.7503  151.0349 LP  0  0  0  0  0  0  0  0  0  0  0  0  # atno 17342 bound_to 10162
  140.7804  143.4740  151.0108 LP  0  0  0  0  0  0  0  0  0  0  0  0  # atno 17343 bound_to 10162
  155.9675  130.4486  150.5625 LP  0  0  0  0  0  0  0  0  0  0  0  0  # atno 17370 bound_to 10713
  157.3469  131.0726  151.1744 LP  0  0  0  0  0  0  0  0  0  0  0  0  # atno 17371 bound_to 10713
  139.9114  135.0190  156.7707 LP  0  0  0  0  0  0  0  0  0  0  0  0  # atno 17394 bound_to 11000
  140.6663  133.9600  155.7832 LP  0  0  0  0  0  0  0  0  0  0  0  0  # atno 17395 bound_to 11000

$$$$
