AV-unprocessed.smi:2698|AV-procd|sdf|10419|dock3
  -GOLD-   2272014453D 1   1.00000     0.00000
 Structure written by MMmdl.
 33 33  0  0  0  0  0  0  0  0  2 V2000
  154.1433  140.8770  160.7562 C   0  0  0  0  0  0  0  0  0  0  0  0
  153.2027  141.8025  159.9623 C   0  0  0  0  0  0  0  0  0  0  0  0
  152.6182  142.8881  160.8783 C   0  0  0  0  0  0  0  0  0  0  0  0
  152.0709  141.0434  159.2319 C   0  0  0  0  0  0  0  0  0  0  0  0
  152.5830  139.9171  158.3317 C   0  0  0  0  0  0  0  0  0  0  0  0
  153.7904  139.6896  158.2553 O   0  0  0  0  0  0  0  0  0  0  0  0
  151.6495  139.2301  157.6561 N   0  0  0  0  0  0  0  0  0  0  0  0
  151.8914  138.1320  156.7210 C   0  0  2  0  0  0  0  0  0  0  0  0
  150.7375  138.0745  155.6952 C   0  0  0  0  0  0  0  0  0  0  0  0
  150.2034  139.4140  155.2393 C   0  0  0  0  0  0  0  0  0  0  0  0
  149.6620  139.8414  154.0445 C   0  0  0  0  0  0  0  0  0  0  0  0
  149.3058  141.1890  154.1372 N   0  0  0  0  0  0  0  0  0  0  0  0
  149.6296  141.5228  155.3806 C   0  0  0  0  0  0  0  0  0  0  0  0
  150.1573  140.5137  156.0784 N   0  0  0  0  0  0  0  0  0  0  0  0
  151.9843  136.8144  157.5024 C   0  0  0  0  0  0  0  0  0  0  0  0
  151.6931  136.8395  158.7195 O   0  0  0  0  0  0  0  0  0  0  0  0
  152.3462  135.8002  156.8669 O   0  5  0  0  0  0  0  0  0  0  0  0
  150.4711  140.5475  157.0379 H   0  0  0  0  0  0  0  0  0  0  0  0
  153.5946  140.3000  161.5011 H   0  0  0  0  0  0  0  0  0  0  0  0
  154.9077  141.4526  161.2790 H   0  0  0  0  0  0  0  0  0  0  0  0
  154.6640  140.1740  160.1062 H   0  0  0  0  0  0  0  0  0  0  0  0
  153.8063  142.3119  159.2091 H   0  0  0  0  0  0  0  0  0  0  0  0
  151.9982  142.4525  161.6624 H   0  0  0  0  0  0  0  0  0  0  0  0
  152.0001  143.5877  160.3147 H   0  0  0  0  0  0  0  0  0  0  0  0
  153.4083  143.4647  161.3602 H   0  0  0  0  0  0  0  0  0  0  0  0
  151.3725  140.6243  159.9577 H   0  0  0  0  0  0  0  0  0  0  0  0
  151.4912  141.7372  158.6212 H   0  0  0  0  0  0  0  0  0  0  0  0
  150.6824  139.4793  157.8037 H   0  0  0  0  0  0  0  0  0  0  0  0
  152.8317  138.2751  156.1849 H   0  0  0  0  0  0  0  0  0  0  0  0
  151.0614  137.5338  154.8048 H   0  0  0  0  0  0  0  0  0  0  0  0
  149.9036  137.5058  156.1103 H   0  0  0  0  0  0  0  0  0  0  0  0
  149.5019  139.2887  153.1305 H   0  0  0  0  0  0  0  0  0  0  0  0
  149.4791  142.5116  155.7880 H   0  0  0  0  0  0  0  0  0  0  0  0
  1  2  1  0  0  0  0
  1 19  1  0  0  0  0
  1 20  1  0  0  0  0
  1 21  1  0  0  0  0
  2  3  1  0  0  0  0
  2  4  1  0  0  0  0
  2 22  1  0  0  0  0
  3 23  1  0  0  0  0
  3 24  1  0  0  0  0
  3 25  1  0  0  0  0
  4  5  1  0  0  0  0
  4 26  1  0  0  0  0
  4 27  1  0  0  0  0
  5  6  2  0  0  0  0
  5  7  1  0  0  0  0
  7  8  1  0  0  0  0
  7 28  1  0  0  0  0
  8  9  1  0  0  0  0
  8 15  1  0  0  0  0
  8 29  1  0  0  0  0
  9 30  1  0  0  0  0
  9 31  1  0  0  0  0
  9 10  1  0  0  0  0
 10 11  2  0  0  0  0
 10 14  1  0  0  0  0
 11 32  1  0  0  0  0
 11 12  1  0  0  0  0
 12 13  2  0  0  0  0
 13 14  1  0  0  0  0
 13 33  1  0  0  0  0
 14 18  1  0  0  0  0
 15 16  2  0  0  0  0
 15 17  1  0  0  0  0
M  CHG  1  17  -1
M  END
> <s_m_source_file>
AV-unprocessed.smi

> <i_m_source_file_index>
2698

> <i_lp_mmshare_version>
43012

> <i_f3d_flags>
0

> <s_epik_input>
W0NIM11bQ0hdKFtDSDNdKVtDSDJdQyg9TylbTkhdW0NAQEhdKEMoPU8pW09IXSlbQ0gyXWMxW2NIXVtuSF1bY0hdbjE=

> <s_epik_cmdline>
J2VwaWtfcHl0aG9uJywgJy1waCcsICc3LjAnLCAnLXRuJywgJzgnLCAnLW1hJywgJzIwMCcsICctbWV0YWxfYmluZGluZycsICctaW1hZScsICc8aW5maWxlLm1hZT4nLCAnLW9tYWUnLCAnPG91dGZpbGUubWFlPic=

> <r_lp_tautomer_probability>
0.5

> <r_epik_Ionization_Penalty>
0.536153

> <r_epik_Ionization_Penalty_Charging>
0.536153

> <r_epik_Ionization_Penalty_Neutral>
4.95393e-08

> <r_epik_State_Penalty>
0.778213

> <r_epik_Charging_Adjusted_Penalty>
1.31437

> <i_epik_Tot_Q>
-1

> <i_epik_Tot_abs_Q>
1

> <r_epik_Metal_State_Penalty>
0.658344

> <b_epik_Metal_Only>
0

> <s_lp_Force_Field>
OPLS_2005

> <r_lp_Energy>
3.7745

> <b_lp_Chiralities_Consistent>
1

> <s_lp_Variant>
AV-unprocessed.smi:2698-3

> <Gold.Version>
5.8.1

> <Gold.Id.Protein>
6NUR|6NUR_protein|mol2

> <Gold.PLP.Fitness>
46.7140

> <Gold.PLP.PLP>
-26.8890

> <Gold.PLP.part.hbond>
-4.9839

> <Gold.PLP.part.metal>
0.0000

> <Gold.PLP.part.buried>
0.5440

> <Gold.PLP.part.nonpolar>
-22.2552

> <Gold.PLP.part.repulsive>
0.3041

> <Gold.PLP.ligand.clash>
0.0000

> <Gold.PLP.ligand.torsion>
1.0932

> <Gold.PLP.Chemscore.Hbond>
5.3270

> <Gold.PLP.Chemscore.CHOScore>
1.9895

> <Gold.PLP.Chemscore.Metal>
0.0000

> <Gold.Chemscore.Hbonds>
donor molecule, donor type, donor heavy atom, donor atom, acceptor molecule, acceptor atom, score
      P1  H  6896  6907       L1    16  1.43
      P1  H  7997  8009       L1     6  1.00
      P1  H  8011  8017       L1    12  0.38
      P1  H 10752 10764       L1    17  2.00
      L1  C    11    32       P1  7957  0.95
      L1  C    13    33       P1  8028  1.00

> <Gold.PLP.Chemscore.Internal.Correction>
0.0618

> <Gold.Rescore>
     Score         DG    S(hbond)    S(metal)    S(lipo)     H(rot)  DE(clash)    DE(int)     intcor
     10.19     -14.75       2.96        0.00      60.78       3.01       0.32       4.23       ----

> <Gold.Chemscore.Fitness>
10.1893

> <Gold.Chemscore.DG>
-14.7473

> <Gold.Chemscore.ZeroCoef>
-5.4800

> <Gold.Chemscore.Hbond>
2.9561

> <Gold.Chemscore.Metal>
0.0000

> <Gold.Chemscore.Lipo>
60.7762

> <Gold.Chemscore.Internal_Hbond>
0.0000

> <Gold.Chemscore.DEClash>
0.3230

> <Gold.Chemscore.DEInternal>
4.2350

> <Gold.Chemscore.Rot>
3.0145

> <Gold.Chemscore.Internal.Correction>
   9.000000E+99

> <Gold.Chemscore.Hbonds>
donor molecule, donor type, donor heavy atom, donor atom, acceptor molecule, acceptor atom, score
      P1  H  6896  6907       L1    16  0.70
      P1  H  7997  8009       L1     6  0.90
      P1  H  8011  8017       L1    12  0.35
      P1  H 10752 10764       L1    17  0.99

> <Gold.Chemscore.Hbond.Weighted>
-9.8735

> <Gold.Chemscore.Metal.Weighted>
-0.0000

> <Gold.Chemscore.Lipo.Weighted>
-7.1108

> <Gold.Chemscore.Internal_Hbond.Weighted>
0.0000

> <Gold.Chemscore.DEClash.Weighted>
0.3230

> <Gold.Chemscore.DEInternal.Weighted>
4.2350

> <Gold.Chemscore.Rot.Weighted>
7.7171

> <Gold.Chemscore.Internal.Correction.Weighted>
   9.000000E+99

> <Gold.Protein.RotatedTorsions>
[ 6907 6896 6895 6894 ] final  -11.55 input  -60.11 | X-H torsion
[ 7974 7965 7964 7962 ] final  113.16 input  175.53 | X-H torsion
[ 8008 7997 7996 7995 ] final  129.10 input   59.86 | X-H torsion
[ 10167 10162 10161 10158 ] final   83.32 input  -65.29 | X-H torsion
[ 10718 10713 10712 10709 ] final -124.61 input   66.30 | X-H torsion
[ 10763 10752 10751 10750 ] final  -10.79 input  -60.55 | X-H torsion
[ 11005 11000 10999 10996 ] final  138.62 input  -57.11 | X-H torsion

> <Gold.Protein.ActiveResidues>
 VAL166  LYS551  ARG553  GLY616  TRP617  ASP618  TYR619  PRO620  LYS621  CYS622 
 ASP623  PHE694  ASN695  SER759  ASP760  ASP761  ALA762  ILE779  LEU786  VAL792 
 PHE793  MET794  SER795  GLU796  ALA797  LYS798  CYS799  TRP800  GLU811  SER814 

> <Gold.Protein.RotatedAtoms>
  151.3845  135.0945  159.9506 H   0  0  0  0  0  0  0  0  0  0  0  0  # atno 6907 bound_to 6896
  152.5098  133.9039  159.7465 H   0  0  0  0  0  0  0  0  0  0  0  0  # atno 6908 bound_to 6896
  150.9480  133.6526  159.2806 H   0  0  0  0  0  0  0  0  0  0  0  0  # atno 6909 bound_to 6896
  145.2205  139.2864  143.4221 H   0  0  0  0  0  0  0  0  0  0  0  0  # atno 7974 bound_to 7965
  156.2929  140.2628  156.2544 H   0  0  0  0  0  0  0  0  0  0  0  0  # atno 8008 bound_to 7997
  154.9851  140.0389  157.2313 H   0  0  0  0  0  0  0  0  0  0  0  0  # atno 8009 bound_to 7997
  154.7736  140.2782  155.6123 H   0  0  0  0  0  0  0  0  0  0  0  0  # atno 8010 bound_to 7997
  139.9196  144.6221  150.8454 H   0  0  0  0  0  0  0  0  0  0  0  0  # atno 10167 bound_to 10162
  156.1603  130.6597  151.0040 H   0  0  0  0  0  0  0  0  0  0  0  0  # atno 10718 bound_to 10713
  153.4744  135.7017  153.5974 H   0  0  0  0  0  0  0  0  0  0  0  0  # atno 10763 bound_to 10752
  153.4215  135.3824  155.2114 H   0  0  0  0  0  0  0  0  0  0  0  0  # atno 10764 bound_to 10752
  154.8724  135.3929  154.4186 H   0  0  0  0  0  0  0  0  0  0  0  0  # atno 10765 bound_to 10752
  140.0196  134.9402  157.0447 H   0  0  0  0  0  0  0  0  0  0  0  0  # atno 11005 bound_to 11000
  146.3377  140.2509  142.8598 LP  0  0  0  0  0  0  0  0  0  0  0  0  # atno 17320 bound_to 7965
  144.9770  140.8423  143.5420 LP  0  0  0  0  0  0  0  0  0  0  0  0  # atno 17321 bound_to 7965
  140.7665  143.3307  151.2417 LP  0  0  0  0  0  0  0  0  0  0  0  0  # atno 17342 bound_to 10162
  139.6873  143.9752  152.2841 LP  0  0  0  0  0  0  0  0  0  0  0  0  # atno 17343 bound_to 10162
  157.6727  131.0857  150.7572 LP  0  0  0  0  0  0  0  0  0  0  0  0  # atno 17370 bound_to 10713
  156.7635  130.4806  149.5432 LP  0  0  0  0  0  0  0  0  0  0  0  0  # atno 17371 bound_to 10713
  140.4410  134.1681  155.7174 LP  0  0  0  0  0  0  0  0  0  0  0  0  # atno 17394 bound_to 11000
  141.1765  133.8502  157.1402 LP  0  0  0  0  0  0  0  0  0  0  0  0  # atno 17395 bound_to 11000

$$$$
