AV-unprocessed.smi:199|AV-procd|sdf|1565|dock6
  -GOLD-   2262019443D 1   1.00000     0.00000
 Structure written by MMmdl.
 51 55  0  0  0  0  0  0  0  0  1 V2000
  152.4768  129.2958  157.0677 C   0  0  0  0  0  0  0  0  0  0  0  0
  151.1532  130.0147  156.7598 C   0  0  1  0  0  0  0  0  0  0  0  0
  150.0787  129.4095  157.4648 O   0  0  0  0  0  0  0  0  0  0  0  0
  149.0045  130.3319  157.4529 C   0  0  0  0  0  0  0  0  0  0  0  0
  149.6936  131.6520  157.7756 C   0  0  0  0  0  0  0  0  0  0  0  0
  151.0693  131.5234  157.1140 C   0  0  1  0  0  0  0  0  0  0  0  0
  152.0516  131.8965  158.0667 O   0  0  0  0  0  0  0  0  0  0  0  0
  151.2131  132.4496  155.8808 C   0  0  0  0  0  0  0  0  0  0  0  0
  150.1885  132.2350  154.8693 N   0  0  0  0  0  0  0  0  0  0  0  0
  149.9502  131.0740  154.1700 C   0  0  0  0  0  0  0  0  0  0  0  0
  148.9637  131.1303  153.3188 N   0  0  0  0  0  0  0  0  0  0  0  0
  148.4924  132.4337  153.4227 C   0  0  0  0  0  0  0  0  0  0  0  0
  147.4478  133.1702  152.7918 C   0  0  0  0  0  0  0  0  0  0  0  0
  146.6242  132.6496  151.8412 N   0  0  0  0  0  0  0  0  0  0  0  0
  145.2103  132.4257  152.1147 C   0  0  2  0  0  0  0  0  0  0  0  0
  144.7566  131.6541  150.8648 C   0  0  0  0  0  0  0  0  0  0  0  0
  145.6183  132.3155  149.7786 C   0  0  0  0  0  0  0  0  0  0  0  0
  146.3891  133.3695  150.5979 C   0  0  1  0  0  0  0  0  0  0  0  0
  145.4721  134.5403  151.0366 C   0  0  1  0  0  0  0  0  0  0  0  0
  144.7025  135.2894  149.9328 C   0  0  0  0  0  0  0  0  0  0  0  0
  145.5428  136.2335  149.3045 O   0  0  0  0  0  0  0  0  0  0  0  0
  144.5828  133.8367  152.0779 C   0  0  0  0  0  0  0  0  0  0  0  0
  147.2641  134.4561  153.1939 N   0  0  0  0  0  0  0  0  0  0  0  0
  148.0583  134.9976  154.1211 C   0  0  0  0  0  0  0  0  0  0  0  0
  149.0761  134.4383  154.7761 N   0  0  0  0  0  0  0  0  0  0  0  0
  149.2539  133.1407  154.3974 C   0  0  0  0  0  0  0  0  0  0  0  0
  153.3098  129.7637  156.5423 H   0  0  0  0  0  0  0  0  0  0  0  0
  152.4313  128.2533  156.7526 H   0  0  0  0  0  0  0  0  0  0  0  0
  152.7003  129.3060  158.1348 H   0  0  0  0  0  0  0  0  0  0  0  0
  150.9260  129.8793  155.7019 H   0  0  0  0  0  0  0  0  0  0  0  0
  148.5497  130.3581  156.4612 H   0  0  0  0  0  0  0  0  0  0  0  0
  148.2362  130.0676  158.1797 H   0  0  0  0  0  0  0  0  0  0  0  0
  149.1210  132.5126  157.4279 H   0  0  0  0  0  0  0  0  0  0  0  0
  149.7863  131.7405  158.8595 H   0  0  0  0  0  0  0  0  0  0  0  0
  152.7411  131.2506  158.0558 H   0  0  0  0  0  0  0  0  0  0  0  0
  151.1724  133.4943  156.1921 H   0  0  0  0  0  0  0  0  0  0  0  0
  152.1885  132.3120  155.4124 H   0  0  0  0  0  0  0  0  0  0  0  0
  150.5290  130.1740  154.3181 H   0  0  0  0  0  0  0  0  0  0  0  0
  145.0009  131.8816  153.0365 H   0  0  0  0  0  0  0  0  0  0  0  0
  144.9966  130.5936  150.9510 H   0  0  0  0  0  0  0  0  0  0  0  0
  143.6866  131.7466  150.6754 H   0  0  0  0  0  0  0  0  0  0  0  0
  146.3102  131.5867  149.3544 H   0  0  0  0  0  0  0  0  0  0  0  0
  145.0371  132.7283  148.9556 H   0  0  0  0  0  0  0  0  0  0  0  0
  147.2853  133.7058  150.0796 H   0  0  0  0  0  0  0  0  0  0  0  0
  146.0886  135.2740  151.5595 H   0  0  0  0  0  0  0  0  0  0  0  0
  144.2893  134.6122  149.1865 H   0  0  0  0  0  0  0  0  0  0  0  0
  143.8574  135.8213  150.3697 H   0  0  0  0  0  0  0  0  0  0  0  0
  145.0990  137.0676  149.2893 H   0  0  0  0  0  0  0  0  0  0  0  0
  143.5281  133.8128  151.8007 H   0  0  0  0  0  0  0  0  0  0  0  0
  144.6606  134.3331  153.0458 H   0  0  0  0  0  0  0  0  0  0  0  0
  147.8480  136.0262  154.3743 H   0  0  0  0  0  0  0  0  0  0  0  0
  1  2  1  0  0  0  0
  1 27  1  0  0  0  0
  1 28  1  0  0  0  0
  1 29  1  0  0  0  0
  2  6  1  0  0  0  0
  2  3  1  0  0  0  0
  2 30  1  0  0  0  0
  3  4  1  0  0  0  0
  4  5  1  0  0  0  0
  4 31  1  0  0  0  0
  4 32  1  0  0  0  0
  5  6  1  0  0  0  0
  5 33  1  0  0  0  0
  5 34  1  0  0  0  0
  6  7  1  0  0  0  0
  6  8  1  0  0  0  0
  7 35  1  0  0  0  0
  8  9  1  0  0  0  0
  8 36  1  0  0  0  0
  8 37  1  0  0  0  0
  9 26  1  0  0  0  0
  9 10  1  0  0  0  0
 10 11  2  0  0  0  0
 10 38  1  0  0  0  0
 11 12  1  0  0  0  0
 12 26  2  0  0  0  0
 12 13  1  0  0  0  0
 13 14  1  0  0  0  0
 13 23  2  0  0  0  0
 14 18  1  0  0  0  0
 14 15  1  0  0  0  0
 15 22  1  0  0  0  0
 15 16  1  0  0  0  0
 15 39  1  0  0  0  0
 16 17  1  0  0  0  0
 16 40  1  0  0  0  0
 16 41  1  0  0  0  0
 17 18  1  0  0  0  0
 17 42  1  0  0  0  0
 17 43  1  0  0  0  0
 18 19  1  0  0  0  0
 18 44  1  0  0  0  0
 19 20  1  0  0  0  0
 19 22  1  0  0  0  0
 19 45  1  0  0  0  0
 20 21  1  0  0  0  0
 20 46  1  0  0  0  0
 20 47  1  0  0  0  0
 21 48  1  0  0  0  0
 22 49  1  0  0  0  0
 22 50  1  0  0  0  0
 23 24  1  0  0  0  0
 24 25  2  0  0  0  0
 24 51  1  0  0  0  0
 25 26  1  0  0  0  0
M  END
> <s_m_source_file>
AV-unprocessed.smi

> <i_m_source_file_index>
199

> <i_lp_mmshare_version>
43012

> <i_f3d_flags>
0

> <s_epik_input>
W0NIMl0xW0NIMl1PW0NAQEhdKFtDSDNdKVtDQEBdMShbT0hdKVtDSDJdbihbY0hdbjIpYyhjMjMpbltjSF1uYzNOKFtDQEBIXTQ1KVtDQEhdKFtDSDJdW0NIMl00KVtDQEhdKFtDSDJdNSlbQ0gyXVtPSF0=

> <s_epik_cmdline>
J2VwaWtfcHl0aG9uJywgJy1waCcsICc3LjAnLCAnLXRuJywgJzgnLCAnLW1hJywgJzIwMCcsICctbWV0YWxfYmluZGluZycsICctaW1hZScsICc8aW5maWxlLm1hZT4nLCAnLW9tYWUnLCAnPG91dGZpbGUubWFlPic=

> <r_lp_tautomer_probability>
1

> <r_epik_Ionization_Penalty>
0.00583903

> <r_epik_Ionization_Penalty_Charging>
0

> <r_epik_Ionization_Penalty_Neutral>
0.00583903

> <r_epik_State_Penalty>
-0

> <r_epik_Charging_Adjusted_Penalty>
0

> <i_epik_Tot_Q>
0

> <i_epik_Tot_abs_Q>
0

> <r_epik_Metal_State_Penalty>
-0

> <b_epik_Metal_Only>
0

> <s_lp_Force_Field>
OPLS_2005

> <r_lp_Energy>
84.4473

> <b_lp_Chiralities_Consistent>
1

> <s_lp_Variant>
AV-unprocessed.smi:199-6

> <Gold.Version>
5.8.1

> <Gold.Id.Protein>
6NUR|6NUR_protein|mol2

> <Gold.PLP.Fitness>
41.3793

> <Gold.PLP.PLP>
-36.0459

> <Gold.PLP.part.hbond>
-3.0000

> <Gold.PLP.part.metal>
0.0000

> <Gold.PLP.part.buried>
-4.9452

> <Gold.PLP.part.nonpolar>
-29.3020

> <Gold.PLP.part.repulsive>
0.8360

> <Gold.PLP.ligand.clash>
0.0000

> <Gold.PLP.ligand.torsion>
0.3575

> <Gold.PLP.Chemscore.Hbond>
2.0000

> <Gold.PLP.Chemscore.CHOScore>
0.0000

> <Gold.PLP.Chemscore.Metal>
0.0000

> <Gold.Chemscore.Hbonds>
donor molecule, donor type, donor heavy atom, donor atom, acceptor molecule, acceptor atom, score
      L1  H    21    48       P1 10171  1.00
      P1  H  6896  6909       L1     7  1.00

> <Gold.PLP.Chemscore.Internal.Correction>
0.0485

> <Gold.Rescore>
     Score         DG    S(hbond)    S(metal)    S(lipo)     H(rot)  DE(clash)    DE(int)     intcor
      9.98     -13.17       1.97        0.00      76.59       3.07       0.27       2.92       ----

> <Gold.Chemscore.Fitness>
9.9772

> <Gold.Chemscore.DG>
-13.1700

> <Gold.Chemscore.ZeroCoef>
-5.4800

> <Gold.Chemscore.Hbond>
1.9748

> <Gold.Chemscore.Metal>
0.0000

> <Gold.Chemscore.Lipo>
76.5880

> <Gold.Chemscore.Internal_Hbond>
0.0000

> <Gold.Chemscore.DEClash>
0.2705

> <Gold.Chemscore.DEInternal>
2.9223

> <Gold.Chemscore.Rot>
3.0729

> <Gold.Chemscore.Internal.Correction>
   9.000000E+99

> <Gold.Chemscore.Hbonds>
donor molecule, donor type, donor heavy atom, donor atom, acceptor molecule, acceptor atom, score
      L1  H    21    48       P1 10171  0.97
      P1  H  6896  6909       L1     7  0.99

> <Gold.Chemscore.Hbond.Weighted>
-6.5959

> <Gold.Chemscore.Metal.Weighted>
-0.0000

> <Gold.Chemscore.Lipo.Weighted>
-8.9608

> <Gold.Chemscore.Internal_Hbond.Weighted>
0.0000

> <Gold.Chemscore.DEClash.Weighted>
0.2705

> <Gold.Chemscore.DEInternal.Weighted>
2.9223

> <Gold.Chemscore.Rot.Weighted>
7.8667

> <Gold.Chemscore.Internal.Correction.Weighted>
   9.000000E+99

> <Gold.Protein.RotatedTorsions>
[ 6907 6896 6895 6894 ] final  -68.27 input  -60.11 | X-H torsion
[ 7974 7965 7964 7962 ] final  -77.01 input  175.53 | X-H torsion
[ 8008 7997 7996 7995 ] final  162.54 input   59.86 | X-H torsion
[ 10167 10162 10161 10158 ] final -112.73 input  -65.29 | X-H torsion
[ 10718 10713 10712 10709 ] final   56.31 input   66.30 | X-H torsion
[ 10763 10752 10751 10750 ] final  -16.21 input  -60.55 | X-H torsion
[ 11005 11000 10999 10996 ] final   21.58 input  -57.11 | X-H torsion

> <Gold.Protein.ActiveResidues>
 VAL166  LYS551  ARG553  GLY616  TRP617  ASP618  TYR619  PRO620  LYS621  CYS622 
 ASP623  PHE694  ASN695  SER759  ASP760  ASP761  ALA762  ILE779  LEU786  VAL792 
 PHE793  MET794  SER795  GLU796  ALA797  LYS798  CYS799  TRP800  GLU811  SER814 

> <Gold.Protein.RotatedAtoms>
  150.7365  134.5762  159.5915 H   0  0  0  0  0  0  0  0  0  0  0  0  # atno 6907 bound_to 6896
  152.3188  134.7403  160.0328 H   0  0  0  0  0  0  0  0  0  0  0  0  # atno 6908 bound_to 6896
  151.7926  133.3325  159.3540 H   0  0  0  0  0  0  0  0  0  0  0  0  # atno 6909 bound_to 6896
  145.6053  140.9399  143.1219 H   0  0  0  0  0  0  0  0  0  0  0  0  # atno 7974 bound_to 7965
  156.2023  140.1747  156.7873 H   0  0  0  0  0  0  0  0  0  0  0  0  # atno 8008 bound_to 7997
  154.5609  140.0700  156.8847 H   0  0  0  0  0  0  0  0  0  0  0  0  # atno 8009 bound_to 7997
  155.2851  140.3351  155.4258 H   0  0  0  0  0  0  0  0  0  0  0  0  # atno 8010 bound_to 7997
  140.1195  143.4456  152.1700 H   0  0  0  0  0  0  0  0  0  0  0  0  # atno 10167 bound_to 10162
  157.5420  130.8704  149.8836 H   0  0  0  0  0  0  0  0  0  0  0  0  # atno 10718 bound_to 10713
  153.5551  135.7011  153.5573 H   0  0  0  0  0  0  0  0  0  0  0  0  # atno 10763 bound_to 10752
  153.3480  135.4003  155.1623 H   0  0  0  0  0  0  0  0  0  0  0  0  # atno 10764 bound_to 10752
  154.8656  135.3758  154.5065 H   0  0  0  0  0  0  0  0  0  0  0  0  # atno 10765 bound_to 10752
  140.3900  134.1829  155.7662 H   0  0  0  0  0  0  0  0  0  0  0  0  # atno 11005 bound_to 11000
  144.7292  139.7777  143.7353 LP  0  0  0  0  0  0  0  0  0  0  0  0  # atno 17320 bound_to 7965
  146.1545  139.4639  143.0027 LP  0  0  0  0  0  0  0  0  0  0  0  0  # atno 17321 bound_to 7965
  139.5576  144.7384  151.4248 LP  0  0  0  0  0  0  0  0  0  0  0  0  # atno 17342 bound_to 10162
  140.6880  143.7928  150.7214 LP  0  0  0  0  0  0  0  0  0  0  0  0  # atno 17343 bound_to 10162
  156.0504  130.3719  150.1214 LP  0  0  0  0  0  0  0  0  0  0  0  0  # atno 17370 bound_to 10713
  156.9393  130.9739  151.3519 LP  0  0  0  0  0  0  0  0  0  0  0  0  # atno 17371 bound_to 10713
  141.1894  133.8239  157.0958 LP  0  0  0  0  0  0  0  0  0  0  0  0  # atno 17394 bound_to 11000
  140.0414  134.9852  157.0968 LP  0  0  0  0  0  0  0  0  0  0  0  0  # atno 17395 bound_to 11000

$$$$
