AV-unprocessed.smi:1507|AV-procd|sdf|6080|dock3
  -GOLD-   22720 6203D 1   1.00000     0.00000
 Structure written by MMmdl.
 34 35  0  0  0  0  0  0  0  0  1 V2000
  147.2787  137.8721  152.8807 N   0  0  0  0  0  0  0  0  0  0  0  0
  148.1594  138.9362  153.9040 S   0  0  0  0  0  0  0  0  0  0  0  0
  147.7142  140.3140  153.6471 O   0  0  0  0  0  0  0  0  0  0  0  0
  148.1695  138.3811  155.2657 O   0  0  0  0  0  0  0  0  0  0  0  0
  149.7270  138.7324  153.2207 N   0  0  0  0  0  0  0  0  0  0  0  0
  150.8364  138.3004  154.0672 C   0  0  0  0  0  0  0  0  0  0  0  0
  151.1635  139.3070  155.1518 C   0  0  0  0  0  0  0  0  0  0  0  0
  150.4053  140.4839  155.3039 C   0  0  0  0  0  0  0  0  0  0  0  0
  150.7495  141.3881  156.3270 C   0  0  0  0  0  0  0  0  0  0  0  0
  151.8459  141.0916  157.1724 C   0  0  0  0  0  0  0  0  0  0  0  0
  152.2117  141.9865  158.2015 N   0  0  0  0  0  0  0  0  0  0  0  0
  152.2763  141.4131  159.5438 C   0  0  0  0  0  0  0  0  0  0  0  0
  152.9675  142.3887  160.5125 C   0  0  0  0  0  0  0  0  0  0  0  0
  152.3073  143.6493  160.4807 O   0  0  0  0  0  0  0  0  0  0  0  0
  152.3589  144.2403  159.1866 C   0  0  0  0  0  0  0  0  0  0  0  0
  151.6409  143.3323  158.1742 C   0  0  0  0  0  0  0  0  0  0  0  0
  152.5659  139.9512  157.0255 N   0  0  0  0  0  0  0  0  0  0  0  0
  152.2336  139.0890  156.0419 C   0  0  0  0  0  0  0  0  0  0  0  0
  147.8858  137.1678  152.4628 H   0  0  0  0  0  0  0  0  0  0  0  0
  146.7623  138.3873  152.1679 H   0  0  0  0  0  0  0  0  0  0  0  0
  149.9707  139.4103  152.4992 H   0  0  0  0  0  0  0  0  0  0  0  0
  150.5761  137.3532  154.5413 H   0  0  0  0  0  0  0  0  0  0  0  0
  151.7095  138.1111  153.4419 H   0  0  0  0  0  0  0  0  0  0  0  0
  149.5707  140.6927  154.6508 H   0  0  0  0  0  0  0  0  0  0  0  0
  150.1635  142.2852  156.4589 H   0  0  0  0  0  0  0  0  0  0  0  0
  151.2615  141.2051  159.8854 H   0  0  0  0  0  0  0  0  0  0  0  0
  152.8136  140.4660  159.5537 H   0  0  0  0  0  0  0  0  0  0  0  0
  152.9321  141.9956  161.5287 H   0  0  0  0  0  0  0  0  0  0  0  0
  154.0208  142.5111  160.2554 H   0  0  0  0  0  0  0  0  0  0  0  0
  151.8762  145.2169  159.2225 H   0  0  0  0  0  0  0  0  0  0  0  0
  153.3960  144.4087  158.8921 H   0  0  0  0  0  0  0  0  0  0  0  0
  151.7332  143.7619  157.1759 H   0  0  0  0  0  0  0  0  0  0  0  0
  150.5771  143.2788  158.4105 H   0  0  0  0  0  0  0  0  0  0  0  0
  152.8390  138.1976  155.9654 H   0  0  0  0  0  0  0  0  0  0  0  0
  1  2  1  0  0  0  0
  1 19  1  0  0  0  0
  1 20  1  0  0  0  0
  2  3  2  0  0  0  0
  2  4  2  0  0  0  0
  2  5  1  0  0  0  0
  5  6  1  0  0  0  0
  5 21  1  0  0  0  0
  6  7  1  0  0  0  0
  6 22  1  0  0  0  0
  6 23  1  0  0  0  0
  7 18  1  0  0  0  0
  7  8  2  0  0  0  0
  8  9  1  0  0  0  0
  8 24  1  0  0  0  0
  9 10  2  0  0  0  0
  9 25  1  0  0  0  0
 10 11  1  0  0  0  0
 10 17  1  0  0  0  0
 11 16  1  0  0  0  0
 11 12  1  0  0  0  0
 12 13  1  0  0  0  0
 12 26  1  0  0  0  0
 12 27  1  0  0  0  0
 13 14  1  0  0  0  0
 13 28  1  0  0  0  0
 13 29  1  0  0  0  0
 14 15  1  0  0  0  0
 15 16  1  0  0  0  0
 15 30  1  0  0  0  0
 15 31  1  0  0  0  0
 16 32  1  0  0  0  0
 16 33  1  0  0  0  0
 17 18  2  0  0  0  0
 18 34  1  0  0  0  0
M  END
> <s_m_source_file>
AV-unprocessed.smi

> <i_m_source_file_index>
1507

> <i_lp_mmshare_version>
43012

> <i_f3d_flags>
0

> <s_epik_input>
W05IMl1TKD1PKSg9TylbTkhdW0NIMl1jMVtjSF1bY0hdYyhuW2NIXTEpTjJbQ0gyXVtDSDJdT1tDSDJdW0NIMl0y

> <s_epik_cmdline>
J2VwaWtfcHl0aG9uJywgJy1waCcsICc3LjAnLCAnLXRuJywgJzgnLCAnLW1hJywgJzIwMCcsICctbWV0YWxfYmluZGluZycsICctaW1hZScsICc8aW5maWxlLm1hZT4nLCAnLW9tYWUnLCAnPG91dGZpbGUubWFlPic=

> <r_lp_tautomer_probability>
1

> <r_epik_Ionization_Penalty>
0.193648

> <r_epik_Ionization_Penalty_Charging>
0

> <r_epik_Ionization_Penalty_Neutral>
0.193648

> <r_epik_State_Penalty>
0.187016

> <r_epik_Charging_Adjusted_Penalty>
0.187016

> <i_epik_Tot_Q>
0

> <i_epik_Tot_abs_Q>
0

> <r_epik_Metal_State_Penalty>
0.77957

> <b_epik_Metal_Only>
0

> <s_lp_Force_Field>
OPLS_2005

> <r_lp_Energy>
21.8842

> <b_lp_Chiralities_Consistent>
1

> <s_lp_Variant>
AV-unprocessed.smi:1507-1

> <Gold.Version>
5.8.1

> <Gold.Id.Protein>
6NUR|6NUR_protein|mol2

> <Gold.PLP.Fitness>
44.5609

> <Gold.PLP.PLP>
-35.6654

> <Gold.PLP.part.hbond>
-3.7938

> <Gold.PLP.part.metal>
0.0000

> <Gold.PLP.part.buried>
-4.1340

> <Gold.PLP.part.nonpolar>
-27.3072

> <Gold.PLP.part.repulsive>
0.2662

> <Gold.PLP.ligand.clash>
0.0000

> <Gold.PLP.ligand.torsion>
0.2533

> <Gold.PLP.Chemscore.Hbond>
2.9920

> <Gold.PLP.Chemscore.CHOScore>
0.0000

> <Gold.PLP.Chemscore.Metal>
0.0000

> <Gold.Chemscore.Hbonds>
donor molecule, donor type, donor heavy atom, donor atom, acceptor molecule, acceptor atom, score
      L1  H     1    19       P1  7948  1.00
      L1  H     5    21       P1  7957  0.91
      P1  H  7997  8008       L1    17  0.98

> <Gold.PLP.Chemscore.Internal.Correction>
0.4261

> <Gold.Rescore>
     Score         DG    S(hbond)    S(metal)    S(lipo)     H(rot)  DE(clash)    DE(int)     intcor
     16.58     -16.93       2.52        0.00      79.95       2.47       0.05       0.31       ----

> <Gold.Chemscore.Fitness>
16.5752

> <Gold.Chemscore.DG>
-16.9334

> <Gold.Chemscore.ZeroCoef>
-5.4800

> <Gold.Chemscore.Hbond>
2.5193

> <Gold.Chemscore.Metal>
0.0000

> <Gold.Chemscore.Lipo>
79.9549

> <Gold.Chemscore.Internal_Hbond>
0.0000

> <Gold.Chemscore.DEClash>
0.0528

> <Gold.Chemscore.DEInternal>
0.3054

> <Gold.Chemscore.Rot>
2.4671

> <Gold.Chemscore.Internal.Correction>
   9.000000E+99

> <Gold.Chemscore.Hbonds>
donor molecule, donor type, donor heavy atom, donor atom, acceptor molecule, acceptor atom, score
      L1  H     1    19       P1  7948  0.93
      L1  H     5    21       P1  7957  0.74
      P1  H  7997  8008       L1    17  0.31

> <Gold.Chemscore.Hbond.Weighted>
-8.4144

> <Gold.Chemscore.Metal.Weighted>
-0.0000

> <Gold.Chemscore.Lipo.Weighted>
-9.3547

> <Gold.Chemscore.Internal_Hbond.Weighted>
0.0000

> <Gold.Chemscore.DEClash.Weighted>
0.0528

> <Gold.Chemscore.DEInternal.Weighted>
0.3054

> <Gold.Chemscore.Rot.Weighted>
6.3157

> <Gold.Chemscore.Internal.Correction.Weighted>
   9.000000E+99

> <Gold.Protein.RotatedTorsions>
[ 6907 6896 6895 6894 ] final  104.20 input  -60.11 | X-H torsion
[ 7974 7965 7964 7962 ] final  -60.38 input  175.53 | X-H torsion
[ 8008 7997 7996 7995 ] final  -74.12 input   59.86 | X-H torsion
[ 10167 10162 10161 10158 ] final -130.85 input  -65.29 | X-H torsion
[ 10718 10713 10712 10709 ] final  -35.70 input   66.30 | X-H torsion
[ 10763 10752 10751 10750 ] final   74.15 input  -60.55 | X-H torsion
[ 11005 11000 10999 10996 ] final    0.94 input  -57.11 | X-H torsion

> <Gold.Protein.ActiveResidues>
 VAL166  LYS551  ARG553  GLY616  TRP617  ASP618  TYR619  PRO620  LYS621  CYS622 
 ASP623  PHE694  ASN695  SER759  ASP760  ASP761  ALA762  ILE779  LEU786  VAL792 
 PHE793  MET794  SER795  GLU796  ALA797  LYS798  CYS799  TRP800  GLU811  SER814 

> <Gold.Protein.RotatedAtoms>
  152.5272  133.9712  159.7762 H   0  0  0  0  0  0  0  0  0  0  0  0  # atno 6907 bound_to 6896
  150.9984  133.6072  159.2705 H   0  0  0  0  0  0  0  0  0  0  0  0  # atno 6908 bound_to 6896
  151.3190  135.0820  159.9352 H   0  0  0  0  0  0  0  0  0  0  0  0  # atno 6909 bound_to 6896
  145.8162  140.8569  143.0156 H   0  0  0  0  0  0  0  0  0  0  0  0  # atno 7974 bound_to 7965
  154.5304  140.0767  156.8335 H   0  0  0  0  0  0  0  0  0  0  0  0  # atno 8008 bound_to 7997
  155.3386  140.3406  155.4221 H   0  0  0  0  0  0  0  0  0  0  0  0  # atno 8009 bound_to 7997
  156.1775  140.1641  156.8322 H   0  0  0  0  0  0  0  0  0  0  0  0  # atno 8010 bound_to 7997
  139.9250  143.6338  152.2544 H   0  0  0  0  0  0  0  0  0  0  0  0  # atno 10167 bound_to 10162
  156.3355  130.4285  149.7834 H   0  0  0  0  0  0  0  0  0  0  0  0  # atno 10718 bound_to 10713
  153.0568  135.5036  154.8000 H   0  0  0  0  0  0  0  0  0  0  0  0  # atno 10763 bound_to 10752
  154.6820  135.2970  154.9602 H   0  0  0  0  0  0  0  0  0  0  0  0  # atno 10764 bound_to 10752
  154.0385  135.6720  153.4840 H   0  0  0  0  0  0  0  0  0  0  0  0  # atno 10765 bound_to 10752
  140.6210  133.9662  155.8224 H   0  0  0  0  0  0  0  0  0  0  0  0  # atno 11005 bound_to 11000
  144.6752  140.0466  143.7479 LP  0  0  0  0  0  0  0  0  0  0  0  0  # atno 17320 bound_to 7965
  145.9725  139.2880  143.1090 LP  0  0  0  0  0  0  0  0  0  0  0  0  # atno 17321 bound_to 7965
  139.6829  144.7654  151.1575 LP  0  0  0  0  0  0  0  0  0  0  0  0  # atno 17342 bound_to 10162
  140.7652  143.5698  150.9008 LP  0  0  0  0  0  0  0  0  0  0  0  0  # atno 17343 bound_to 10162
  156.5090  130.8163  151.3161 LP  0  0  0  0  0  0  0  0  0  0  0  0  # atno 17370 bound_to 10713
  157.7438  130.9920  150.2621 LP  0  0  0  0  0  0  0  0  0  0  0  0  # atno 17371 bound_to 10713
  141.0742  134.0159  157.3481 LP  0  0  0  0  0  0  0  0  0  0  0  0  # atno 17394 bound_to 11000
  139.9153  135.0196  156.7858 LP  0  0  0  0  0  0  0  0  0  0  0  0  # atno 17395 bound_to 11000

$$$$
