AV-unprocessed.smi:3029|AV-procd|sdf|11526|dock2
  -GOLD-   2272016463D 1   1.00000     0.00000
 Structure written by MMmdl.
 42 43  0  0  0  0  0  0  0  0  4 V2000
  150.5766  144.1406  159.7657 O   0  0  0  0  0  0  0  0  0  0  0  0
  151.5248  143.3588  159.8371 C   0  0  0  0  0  0  0  0  0  0  0  0
  152.3923  143.2898  161.0175 C   0  0  0  0  0  0  0  0  0  0  0  0
  153.4142  142.4145  161.0950 C   0  0  0  0  0  0  0  0  0  0  0  0
  153.6870  141.5037  159.9999 C   0  0  0  0  0  0  0  0  0  0  0  0
  154.7709  140.5493  160.0781 N   0  3  0  0  0  0  0  0  0  0  0  0
  155.5119  140.5699  161.0563 O   0  0  0  0  0  0  0  0  0  0  0  0
  154.9164  139.7480  159.1610 O   0  5  0  0  0  0  0  0  0  0  0  0
  152.8942  141.5761  158.9126 C   0  0  0  0  0  0  0  0  0  0  0  0
  151.8324  142.4963  158.8217 N   0  0  0  0  0  0  0  0  0  0  0  0
  151.0407  142.4815  157.5843 C   0  0  0  0  0  0  0  0  0  0  0  0
  149.6196  141.9508  157.8319 C   0  0  0  0  0  0  0  0  0  0  0  0
  148.8109  142.0269  156.5978 N   0  3  0  0  0  0  0  0  0  0  0  0
  147.5843  141.1935  156.5842 C   0  0  1  0  0  0  0  0  0  0  0  0
  146.5175  141.7427  157.5582 C   0  0  0  0  0  0  0  0  0  0  0  0
  145.9379  143.0861  157.0829 C   0  0  0  0  0  0  0  0  0  0  0  0
  145.3690  142.9745  155.6608 C   0  0  0  0  0  0  0  0  0  0  0  0
  146.4154  142.4275  154.6765 C   0  0  0  0  0  0  0  0  0  0  0  0
  146.9928  141.0762  155.1536 C   0  0  1  0  0  0  0  0  0  0  0  0
  147.9620  140.4473  154.1259 C   0  0  0  0  0  0  0  0  0  0  0  0
  148.3215  139.2139  154.4827 F   0  0  0  0  0  0  0  0  0  0  0  0
  147.3835  140.3969  152.9261 F   0  0  0  0  0  0  0  0  0  0  0  0
  149.0596  141.1963  154.0266 F   0  0  0  0  0  0  0  0  0  0  0  0
  152.2069  143.9594  161.8447 H   0  0  0  0  0  0  0  0  0  0  0  0
  154.0265  142.4010  161.9849 H   0  0  0  0  0  0  0  0  0  0  0  0
  153.0119  140.9398  158.0472 H   0  0  0  0  0  0  0  0  0  0  0  0
  150.9970  143.4818  157.1493 H   0  0  0  0  0  0  0  0  0  0  0  0
  151.5359  141.8678  156.8298 H   0  0  0  0  0  0  0  0  0  0  0  0
  149.6649  140.9145  158.1700 H   0  0  0  0  0  0  0  0  0  0  0  0
  149.1396  142.5277  158.6221 H   0  0  0  0  0  0  0  0  0  0  0  0
  148.5532  142.9883  156.4254 H   0  0  0  0  0  0  0  0  0  0  0  0
  147.8632  140.1915  156.9132 H   0  0  0  0  0  0  0  0  0  0  0  0
  145.7052  141.0190  157.6385 H   0  0  0  0  0  0  0  0  0  0  0  0
  146.9174  141.8447  158.5666 H   0  0  0  0  0  0  0  0  0  0  0  0
  145.1561  143.4145  157.7685 H   0  0  0  0  0  0  0  0  0  0  0  0
  146.7112  143.8547  157.1105 H   0  0  0  0  0  0  0  0  0  0  0  0
  144.4986  142.3174  155.6682 H   0  0  0  0  0  0  0  0  0  0  0  0
  145.0150  143.9492  155.3237 H   0  0  0  0  0  0  0  0  0  0  0  0
  145.9553  142.3125  153.6947 H   0  0  0  0  0  0  0  0  0  0  0  0
  147.2178  143.1554  154.5520 H   0  0  0  0  0  0  0  0  0  0  0  0
  146.1494  140.3870  155.2266 H   0  0  0  0  0  0  0  0  0  0  0  0
  149.3983  141.7143  155.8376 H   0  0  0  0  0  0  0  0  0  0  0  0
  1  2  2  0  0  0  0
  2 10  1  0  0  0  0
  2  3  1  0  0  0  0
  3  4  2  0  0  0  0
  3 24  1  0  0  0  0
  4  5  1  0  0  0  0
  4 25  1  0  0  0  0
  5  6  1  0  0  0  0
  5  9  2  0  0  0  0
  6  7  2  0  0  0  0
  6  8  1  0  0  0  0
  9 10  1  0  0  0  0
  9 26  1  0  0  0  0
 10 11  1  0  0  0  0
 11 12  1  0  0  0  0
 11 27  1  0  0  0  0
 11 28  1  0  0  0  0
 12 13  1  0  0  0  0
 12 29  1  0  0  0  0
 12 30  1  0  0  0  0
 13 14  1  0  0  0  0
 13 31  1  0  0  0  0
 13 42  1  0  0  0  0
 14 19  1  0  0  0  0
 14 15  1  0  0  0  0
 14 32  1  0  0  0  0
 15 16  1  0  0  0  0
 15 33  1  0  0  0  0
 15 34  1  0  0  0  0
 16 17  1  0  0  0  0
 16 35  1  0  0  0  0
 16 36  1  0  0  0  0
 17 18  1  0  0  0  0
 17 37  1  0  0  0  0
 17 38  1  0  0  0  0
 18 19  1  0  0  0  0
 18 39  1  0  0  0  0
 18 40  1  0  0  0  0
 19 20  1  0  0  0  0
 19 41  1  0  0  0  0
 20 21  1  0  0  0  0
 20 22  1  0  0  0  0
 20 23  1  0  0  0  0
M  CHG  1   6   1
M  CHG  1   8  -1
M  CHG  1  13   1
M  END
> <s_m_source_file>
AV-unprocessed.smi

> <i_m_source_file_index>
3029

> <i_lp_mmshare_version>
43012

> <i_f3d_flags>
0

> <s_epik_input>
Tz1jMVtjSF1bY0hdYyhbTitdKD1PKVtPLV0pW2NIXW4xW0NIMl1bQ0gyXVtOSF1bQ0BASF0yW0NIMl1bQ0gyXVtDSDJdW0NIMl1bQ0BIXTJDKEYpKEYpRg==

> <s_epik_cmdline>
J2VwaWtfcHl0aG9uJywgJy1waCcsICc3LjAnLCAnLXRuJywgJzgnLCAnLW1hJywgJzIwMCcsICctbWV0YWxfYmluZGluZycsICctaW1hZScsICc8aW5maWxlLm1hZT4nLCAnLW9tYWUnLCAnPG91dGZpbGUubWFlPic=

> <r_lp_tautomer_probability>
1

> <r_epik_Ionization_Penalty>
0.037386

> <r_epik_Ionization_Penalty_Charging>
0.037386

> <r_epik_Ionization_Penalty_Neutral>
0

> <r_epik_State_Penalty>
0.0312892

> <r_epik_Charging_Adjusted_Penalty>
0.0686752

> <i_epik_Tot_Q>
1

> <i_epik_Tot_abs_Q>
3

> <r_epik_Metal_State_Penalty>
0.0312892

> <b_epik_Metal_Only>
0

> <s_lp_Force_Field>
OPLS_2005

> <r_lp_Energy>
34.3569

> <b_lp_Chiralities_Consistent>
1

> <s_lp_Variant>
AV-unprocessed.smi:3029-2

> <Gold.Version>
5.8.1

> <Gold.Id.Protein>
6NUR|6NUR_protein|mol2

> <Gold.PLP.Fitness>
52.7506

> <Gold.PLP.PLP>
-44.1031

> <Gold.PLP.part.hbond>
-3.0000

> <Gold.PLP.part.metal>
0.0000

> <Gold.PLP.part.buried>
-4.4884

> <Gold.PLP.part.nonpolar>
-35.6010

> <Gold.PLP.part.repulsive>
0.1505

> <Gold.PLP.ligand.clash>
0.0000

> <Gold.PLP.ligand.torsion>
0.2700

> <Gold.PLP.Chemscore.Hbond>
2.9840

> <Gold.PLP.Chemscore.CHOScore>
0.0000

> <Gold.PLP.Chemscore.Metal>
0.0000

> <Gold.Chemscore.Hbonds>
donor molecule, donor type, donor heavy atom, donor atom, acceptor molecule, acceptor atom, score
      L1  H    13    31       P1  8028  2.00
      P1  H  7997  8009       L1     8  0.99

> <Gold.PLP.Chemscore.Internal.Correction>
0.2355

> <Gold.Rescore>
     Score         DG    S(hbond)    S(metal)    S(lipo)     H(rot)  DE(clash)    DE(int)     intcor
     14.52     -16.49       1.87        0.00      82.31       1.90       0.06       1.90       ----

> <Gold.Chemscore.Fitness>
14.5236

> <Gold.Chemscore.DG>
-16.4869

> <Gold.Chemscore.ZeroCoef>
-5.4800

> <Gold.Chemscore.Hbond>
1.8714

> <Gold.Chemscore.Metal>
0.0000

> <Gold.Chemscore.Lipo>
82.3087

> <Gold.Chemscore.Internal_Hbond>
0.0000

> <Gold.Chemscore.DEClash>
0.0632

> <Gold.Chemscore.DEInternal>
1.9001

> <Gold.Chemscore.Rot>
1.9037

> <Gold.Chemscore.Internal.Correction>
   9.000000E+99

> <Gold.Chemscore.Hbonds>
donor molecule, donor type, donor heavy atom, donor atom, acceptor molecule, acceptor atom, score
      L1  H    13    31       P1  8028  0.85
      P1  H  7997  8009       L1     8  0.93

> <Gold.Chemscore.Hbond.Weighted>
-6.2504

> <Gold.Chemscore.Metal.Weighted>
-0.0000

> <Gold.Chemscore.Lipo.Weighted>
-9.6301

> <Gold.Chemscore.Internal_Hbond.Weighted>
0.0000

> <Gold.Chemscore.DEClash.Weighted>
0.0632

> <Gold.Chemscore.DEInternal.Weighted>
1.9001

> <Gold.Chemscore.Rot.Weighted>
4.8736

> <Gold.Chemscore.Internal.Correction.Weighted>
   9.000000E+99

> <Gold.Protein.RotatedTorsions>
[ 6907 6896 6895 6894 ] final  121.69 input  -60.11 | X-H torsion
[ 7974 7965 7964 7962 ] final -140.36 input  175.53 | X-H torsion
[ 8008 7997 7996 7995 ] final  131.45 input   59.86 | X-H torsion
[ 10167 10162 10161 10158 ] final    2.34 input  -65.29 | X-H torsion
[ 10718 10713 10712 10709 ] final  118.03 input   66.30 | X-H torsion
[ 10763 10752 10751 10750 ] final  114.70 input  -60.55 | X-H torsion
[ 11005 11000 10999 10996 ] final -101.75 input  -57.11 | X-H torsion

> <Gold.Protein.ActiveResidues>
 VAL166  LYS551  ARG553  GLY616  TRP617  ASP618  TYR619  PRO620  LYS621  CYS622 
 ASP623  PHE694  ASN695  SER759  ASP760  ASP761  ALA762  ILE779  LEU786  VAL792 
 PHE793  MET794  SER795  GLU796  ALA797  LYS798  CYS799  TRP800  GLU811  SER814 

> <Gold.Protein.RotatedAtoms>
  152.4302  133.7265  159.6562 H   0  0  0  0  0  0  0  0  0  0  0  0  # atno 6907 bound_to 6896
  150.8181  133.8291  159.3157 H   0  0  0  0  0  0  0  0  0  0  0  0  # atno 6908 bound_to 6896
  151.5981  135.1051  160.0106 H   0  0  0  0  0  0  0  0  0  0  0  0  # atno 6909 bound_to 6896
  144.8603  140.6209  143.5333 H   0  0  0  0  0  0  0  0  0  0  0  0  # atno 7974 bound_to 7965
  156.2970  140.2571  156.2928 H   0  0  0  0  0  0  0  0  0  0  0  0  # atno 8008 bound_to 7997
  154.9493  140.0394  157.2154 H   0  0  0  0  0  0  0  0  0  0  0  0  # atno 8009 bound_to 7997
  154.8051  140.2835  155.5897 H   0  0  0  0  0  0  0  0  0  0  0  0  # atno 8010 bound_to 7997
  140.6640  143.7230  150.7791 H   0  0  0  0  0  0  0  0  0  0  0  0  # atno 10167 bound_to 10162
  157.6057  131.1043  150.7699 H   0  0  0  0  0  0  0  0  0  0  0  0  # atno 10718 bound_to 10713
  153.5112  135.3617  155.2587 H   0  0  0  0  0  0  0  0  0  0  0  0  # atno 10763 bound_to 10752
  154.8742  135.4023  154.3366 H   0  0  0  0  0  0  0  0  0  0  0  0  # atno 10764 bound_to 10752
  153.4020  135.7075  153.6486 H   0  0  0  0  0  0  0  0  0  0  0  0  # atno 10765 bound_to 10752
  141.1218  133.8503  157.1272 H   0  0  0  0  0  0  0  0  0  0  0  0  # atno 11005 bound_to 11000
  145.4325  139.1547  143.4014 LP  0  0  0  0  0  0  0  0  0  0  0  0  # atno 17320 bound_to 7965
  146.2855  140.4442  142.8759 LP  0  0  0  0  0  0  0  0  0  0  0  0  # atno 17321 bound_to 7965
  140.0904  143.4883  152.2482 LP  0  0  0  0  0  0  0  0  0  0  0  0  # atno 17342 bound_to 10162
  139.5882  144.7539  151.3467 LP  0  0  0  0  0  0  0  0  0  0  0  0  # atno 17343 bound_to 10162
  156.8087  130.4945  149.5359 LP  0  0  0  0  0  0  0  0  0  0  0  0  # atno 17370 bound_to 10713
  156.1143  130.6063  151.0096 LP  0  0  0  0  0  0  0  0  0  0  0  0  # atno 17371 bound_to 10713
  140.0181  134.9958  157.0536 LP  0  0  0  0  0  0  0  0  0  0  0  0  # atno 17394 bound_to 11000
  140.4485  134.1607  155.7179 LP  0  0  0  0  0  0  0  0  0  0  0  0  # atno 17395 bound_to 11000

$$$$
