AV-unprocessed.smi:950|AV-procd|sdf|4250|dock1
  -GOLD-   22720 2153D 1   1.00000     0.00000
 Structure written by MMmdl.
 34 35  0  0  0  0  0  0  0  0  1 V2000
  152.2744  144.4642  157.9778 C   0  0  0  0  0  0  0  0  0  0  0  0
  151.9269  144.8699  159.4141 C   0  0  0  0  0  0  0  0  0  0  0  0
  152.4667  143.9136  160.4234 C   0  0  0  0  0  0  0  0  0  0  0  0
  152.9972  142.7308  160.1046 N   0  0  0  0  0  0  0  0  0  0  0  0
  153.3857  141.9912  161.2268 C   0  0  0  0  0  0  0  0  0  0  0  0
  153.9937  140.6276  161.0586 C   0  0  0  0  0  0  0  0  0  0  0  0
  153.9095  140.0815  159.6180 C   0  0  0  0  0  0  0  0  0  0  0  0
  152.6160  140.3268  158.9877 N   0  0  0  0  0  0  0  0  0  0  0  0
  152.2399  139.8547  157.7904 C   0  0  0  0  0  0  0  0  0  0  0  0
  152.9422  139.1059  157.1099 O   0  0  0  0  0  0  0  0  0  0  0  0
  150.8614  140.3101  157.2953 C   0  0  0  0  0  0  0  0  0  0  0  0
  150.5842  140.0634  155.8009 C   0  0  0  0  0  0  0  0  0  0  0  0
  150.0083  141.4802  155.7175 C   0  0  0  0  0  0  0  0  0  0  0  0
  150.7727  141.8171  157.0009 C   0  0  0  0  0  0  0  0  0  0  0  0
  153.1366  142.6393  162.4112 C   0  0  0  0  0  0  0  0  0  0  0  0
  152.3978  144.1970  162.1584 S   0  0  0  0  0  0  0  0  0  0  0  0
  151.8756  145.1843  157.2634 H   0  0  0  0  0  0  0  0  0  0  0  0
  151.8576  143.4864  157.7342 H   0  0  0  0  0  0  0  0  0  0  0  0
  153.3538  144.4132  157.8332 H   0  0  0  0  0  0  0  0  0  0  0  0
  152.3197  145.8651  159.6252 H   0  0  0  0  0  0  0  0  0  0  0  0
  150.8448  144.9297  159.5327 H   0  0  0  0  0  0  0  0  0  0  0  0
  155.0377  140.6506  161.3734 H   0  0  0  0  0  0  0  0  0  0  0  0
  153.5061  139.9208  161.7308 H   0  0  0  0  0  0  0  0  0  0  0  0
  154.7087  140.5022  159.0059 H   0  0  0  0  0  0  0  0  0  0  0  0
  154.0674  139.0028  159.6308 H   0  0  0  0  0  0  0  0  0  0  0  0
  151.9769  140.9345  159.4794 H   0  0  0  0  0  0  0  0  0  0  0  0
  150.0383  139.9670  157.9251 H   0  0  0  0  0  0  0  0  0  0  0  0
  151.4776  139.9377  155.1868 H   0  0  0  0  0  0  0  0  0  0  0  0
  149.8546  139.2777  155.6030 H   0  0  0  0  0  0  0  0  0  0  0  0
  150.3196  142.0479  154.8402 H   0  0  0  0  0  0  0  0  0  0  0  0
  148.9260  141.5039  155.8535 H   0  0  0  0  0  0  0  0  0  0  0  0
  150.1908  142.3844  157.7275 H   0  0  0  0  0  0  0  0  0  0  0  0
  151.7370  142.2908  156.8067 H   0  0  0  0  0  0  0  0  0  0  0  0
  153.3354  142.2932  163.4145 H   0  0  0  0  0  0  0  0  0  0  0  0
  1  2  1  0  0  0  0
  1 17  1  0  0  0  0
  1 18  1  0  0  0  0
  1 19  1  0  0  0  0
  2  3  1  0  0  0  0
  2 20  1  0  0  0  0
  2 21  1  0  0  0  0
  3 16  1  0  0  0  0
  3  4  2  0  0  0  0
  4  5  1  0  0  0  0
  5  6  1  0  0  0  0
  5 15  2  0  0  0  0
  6  7  1  0  0  0  0
  6 22  1  0  0  0  0
  6 23  1  0  0  0  0
  7  8  1  0  0  0  0
  7 24  1  0  0  0  0
  7 25  1  0  0  0  0
  8  9  1  0  0  0  0
  8 26  1  0  0  0  0
  9 10  2  0  0  0  0
  9 11  1  0  0  0  0
 11 14  1  0  0  0  0
 11 12  1  0  0  0  0
 11 27  1  0  0  0  0
 12 13  1  0  0  0  0
 12 28  1  0  0  0  0
 12 29  1  0  0  0  0
 13 14  1  0  0  0  0
 13 30  1  0  0  0  0
 13 31  1  0  0  0  0
 14 32  1  0  0  0  0
 14 33  1  0  0  0  0
 15 16  1  0  0  0  0
 15 34  1  0  0  0  0
M  END
> <s_m_source_file>
AV-unprocessed.smi

> <i_m_source_file_index>
950

> <i_lp_mmshare_version>
43012

> <i_f3d_flags>
0

> <s_epik_input>
W0NIM11bQ0gyXWMxbmMoW2NIXXMxKVtDSDJdW0NIMl1bTkhdQyg9TylbQ0hdMltDSDJdW0NIMl1bQ0gyXTI=

> <s_epik_cmdline>
J2VwaWtfcHl0aG9uJywgJy1waCcsICc3LjAnLCAnLXRuJywgJzgnLCAnLW1hJywgJzIwMCcsICctbWV0YWxfYmluZGluZycsICctaW1hZScsICc8aW5maWxlLm1hZT4nLCAnLW9tYWUnLCAnPG91dGZpbGUubWFlPic=

> <r_epik_Ionization_Penalty>
0.00109666

> <r_epik_Ionization_Penalty_Charging>
0

> <r_epik_Ionization_Penalty_Neutral>
0.00109666

> <r_epik_State_Penalty>
0.000719322

> <r_epik_Charging_Adjusted_Penalty>
0.000719322

> <i_epik_Tot_Q>
0

> <i_epik_Tot_abs_Q>
0

> <r_epik_Metal_State_Penalty>
-0

> <b_epik_Metal_Only>
0

> <s_lp_Force_Field>
OPLS_2005

> <r_lp_Energy>
2.32113

> <b_lp_Chiralities_Consistent>
1

> <s_lp_Variant>
AV-unprocessed.smi:950-1

> <Gold.Version>
5.8.1

> <Gold.Id.Protein>
6NUR|6NUR_protein|mol2

> <Gold.PLP.Fitness>
44.5398

> <Gold.PLP.PLP>
-42.0660

> <Gold.PLP.part.hbond>
-1.0000

> <Gold.PLP.part.metal>
0.0000

> <Gold.PLP.part.buried>
-3.9782

> <Gold.PLP.part.nonpolar>
-36.8717

> <Gold.PLP.part.repulsive>
0.1102

> <Gold.PLP.ligand.clash>
0.0000

> <Gold.PLP.ligand.torsion>
0.4784

> <Gold.PLP.Chemscore.Hbond>
1.0000

> <Gold.PLP.Chemscore.CHOScore>
0.0000

> <Gold.PLP.Chemscore.Metal>
0.0000

> <Gold.Chemscore.Hbonds>
donor molecule, donor type, donor heavy atom, donor atom, acceptor molecule, acceptor atom, score
      P1  H  7997  8008       L1    10  1.00

> <Gold.PLP.Chemscore.Internal.Correction>
0.4305

> <Gold.Rescore>
     Score         DG    S(hbond)    S(metal)    S(lipo)     H(rot)  DE(clash)    DE(int)     intcor
     17.71     -18.46       0.87        0.00     119.10       1.51       0.24       0.51       ----

> <Gold.Chemscore.Fitness>
17.7132

> <Gold.Chemscore.DG>
-18.4561

> <Gold.Chemscore.ZeroCoef>
-5.4800

> <Gold.Chemscore.Hbond>
0.8699

> <Gold.Chemscore.Metal>
0.0000

> <Gold.Chemscore.Lipo>
119.1043

> <Gold.Chemscore.Internal_Hbond>
0.0000

> <Gold.Chemscore.DEClash>
0.2374

> <Gold.Chemscore.DEInternal>
0.5055

> <Gold.Chemscore.Rot>
1.5096

> <Gold.Chemscore.Internal.Correction>
   9.000000E+99

> <Gold.Chemscore.Hbonds>
donor molecule, donor type, donor heavy atom, donor atom, acceptor molecule, acceptor atom, score
      P1  H  7997  8008       L1    10  0.50

> <Gold.Chemscore.Hbond.Weighted>
-2.9055

> <Gold.Chemscore.Metal.Weighted>
-0.0000

> <Gold.Chemscore.Lipo.Weighted>
-13.9352

> <Gold.Chemscore.Internal_Hbond.Weighted>
0.0000

> <Gold.Chemscore.DEClash.Weighted>
0.2374

> <Gold.Chemscore.DEInternal.Weighted>
0.5055

> <Gold.Chemscore.Rot.Weighted>
3.8646

> <Gold.Chemscore.Internal.Correction.Weighted>
   9.000000E+99

> <Gold.Protein.RotatedTorsions>
[ 6907 6896 6895 6894 ] final  149.84 input  -60.11 | X-H torsion
[ 7974 7965 7964 7962 ] final    8.84 input  175.53 | X-H torsion
[ 8008 7997 7996 7995 ] final  -70.25 input   59.86 | X-H torsion
[ 10167 10162 10161 10158 ] final  165.67 input  -65.29 | X-H torsion
[ 10718 10713 10712 10709 ] final   92.19 input   66.30 | X-H torsion
[ 10763 10752 10751 10750 ] final  -29.21 input  -60.55 | X-H torsion
[ 11005 11000 10999 10996 ] final  -41.88 input  -57.11 | X-H torsion

> <Gold.Protein.ActiveResidues>
 VAL166  LYS551  ARG553  GLY616  TRP617  ASP618  TYR619  PRO620  LYS621  CYS622 
 ASP623  PHE694  ASN695  SER759  ASP760  ASP761  ALA762  ILE779  LEU786  VAL792 
 PHE793  MET794  SER795  GLU796  ALA797  LYS798  CYS799  TRP800  GLU811  SER814 

> <Gold.Protein.RotatedAtoms>
  152.1225  133.4361  159.4682 H   0  0  0  0  0  0  0  0  0  0  0  0  # atno 6907 bound_to 6896
  150.6873  134.2517  159.4523 H   0  0  0  0  0  0  0  0  0  0  0  0  # atno 6908 bound_to 6896
  152.0395  134.9719  160.0624 H   0  0  0  0  0  0  0  0  0  0  0  0  # atno 6909 bound_to 6896
  146.2411  139.9873  142.8429 H   0  0  0  0  0  0  0  0  0  0  0  0  # atno 7974 bound_to 7965
  154.4998  140.0838  156.7773 H   0  0  0  0  0  0  0  0  0  0  0  0  # atno 8008 bound_to 7997
  155.4030  140.3438  155.4240 H   0  0  0  0  0  0  0  0  0  0  0  0  # atno 8009 bound_to 7997
  156.1441  140.1538  156.8861 H   0  0  0  0  0  0  0  0  0  0  0  0  # atno 8010 bound_to 7997
  139.4910  144.4108  151.9302 H   0  0  0  0  0  0  0  0  0  0  0  0  # atno 10167 bound_to 10162
  157.6959  131.0434  150.3845 H   0  0  0  0  0  0  0  0  0  0  0  0  # atno 10718 bound_to 10713
  153.7609  135.6919  153.4925 H   0  0  0  0  0  0  0  0  0  0  0  0  # atno 10763 bound_to 10752
  153.1939  135.4461  155.0182 H   0  0  0  0  0  0  0  0  0  0  0  0  # atno 10764 bound_to 10752
  154.8153  135.3396  154.7125 H   0  0  0  0  0  0  0  0  0  0  0  0  # atno 10765 bound_to 10752
  141.0277  133.6834  156.2518 H   0  0  0  0  0  0  0  0  0  0  0  0  # atno 11005 bound_to 11000
  145.1536  140.9636  143.4418 LP  0  0  0  0  0  0  0  0  0  0  0  0  # atno 17320 bound_to 7965
  145.0182  139.3448  143.6086 LP  0  0  0  0  0  0  0  0  0  0  0  0  # atno 17321 bound_to 7965
  140.3549  144.3044  150.5943 LP  0  0  0  0  0  0  0  0  0  0  0  0  # atno 17342 bound_to 10162
  140.5453  143.2216  151.8017 LP  0  0  0  0  0  0  0  0  0  0  0  0  # atno 17343 bound_to 10162
  156.4255  130.3961  149.6796 LP  0  0  0  0  0  0  0  0  0  0  0  0  # atno 17370 bound_to 10713
  156.4032  130.7685  151.2694 LP  0  0  0  0  0  0  0  0  0  0  0  0  # atno 17371 bound_to 10713
  140.6462  134.5114  157.5574 LP  0  0  0  0  0  0  0  0  0  0  0  0  # atno 17394 bound_to 11000
  139.9187  134.8193  156.1282 LP  0  0  0  0  0  0  0  0  0  0  0  0  # atno 17395 bound_to 11000

$$$$
