AV-unprocessed.smi:3112|AV-procd|sdf|11844|dock7
  -GOLD-   2272017223D 1   1.00000     0.00000
 Structure written by MMmdl.
 36 36  0  0  0  0  0  0  0  0  1 V2000
  145.9072  136.4635  153.2087 C   0  0  0  0  0  0  0  0  0  0  0  0
  145.5351  137.5157  152.1549 C   0  0  0  0  0  0  0  0  0  0  0  0
  146.5427  138.6796  152.0712 C   0  0  2  0  0  0  0  0  0  0  0  0
  147.6978  138.2272  151.3950 O   0  0  0  0  0  0  0  0  0  0  0  0
  146.9867  139.1924  153.4516 C   0  0  0  0  0  0  0  0  0  0  0  0
  148.4431  139.3195  153.5300 N   0  0  0  0  0  0  0  0  0  0  0  0
  148.9314  140.1849  154.6081 C   0  0  2  0  0  0  0  0  0  0  0  0
  148.5092  141.6316  154.2890 C   0  0  0  0  0  0  0  0  0  0  0  0
  150.4710  140.0490  154.8085 C   0  0  2  0  0  0  0  0  0  0  0  0
  150.9897  138.5989  154.7986 C   0  0  0  0  0  0  0  0  0  0  0  0
  150.9190  140.7180  156.0242 N   0  0  0  0  0  0  0  0  0  0  0  0
  150.7950  142.0506  156.3602 C   0  0  0  0  0  0  0  0  0  0  0  0
  151.3558  142.2154  157.5940 C   0  0  0  0  0  0  0  0  0  0  0  0
  151.8048  140.9100  157.9379 C   0  0  0  0  0  0  0  0  0  0  0  0
  151.5424  140.0164  156.9985 N   0  0  0  0  0  0  0  0  0  0  0  0
  145.1841  135.6477  153.2129 H   0  0  0  0  0  0  0  0  0  0  0  0
  145.9267  136.8910  154.2113 H   0  0  0  0  0  0  0  0  0  0  0  0
  146.8894  136.0349  153.0069 H   0  0  0  0  0  0  0  0  0  0  0  0
  145.4744  137.0161  151.1876 H   0  0  0  0  0  0  0  0  0  0  0  0
  144.5352  137.9014  152.3580 H   0  0  0  0  0  0  0  0  0  0  0  0
  146.1170  139.5040  151.4974 H   0  0  0  0  0  0  0  0  0  0  0  0
  148.4172  138.7992  151.6150 H   0  0  0  0  0  0  0  0  0  0  0  0
  146.5165  140.1560  153.6528 H   0  0  0  0  0  0  0  0  0  0  0  0
  146.6214  138.5132  154.2193 H   0  0  0  0  0  0  0  0  0  0  0  0
  148.7882  139.6668  152.6409 H   0  0  0  0  0  0  0  0  0  0  0  0
  148.4332  139.9154  155.5407 H   0  0  0  0  0  0  0  0  0  0  0  0
  148.7298  142.3114  155.1121 H   0  0  0  0  0  0  0  0  0  0  0  0
  147.4356  141.6950  154.1084 H   0  0  0  0  0  0  0  0  0  0  0  0
  149.0180  142.0071  153.4004 H   0  0  0  0  0  0  0  0  0  0  0  0
  150.9572  140.5666  153.9797 H   0  0  0  0  0  0  0  0  0  0  0  0
  150.9038  138.1533  153.8081 H   0  0  0  0  0  0  0  0  0  0  0  0
  150.4443  137.9721  155.5047 H   0  0  0  0  0  0  0  0  0  0  0  0
  152.0459  138.5595  155.0672 H   0  0  0  0  0  0  0  0  0  0  0  0
  150.3214  142.7630  155.7010 H   0  0  0  0  0  0  0  0  0  0  0  0
  151.4340  143.1290  158.1643 H   0  0  0  0  0  0  0  0  0  0  0  0
  152.3100  140.5871  158.8364 H   0  0  0  0  0  0  0  0  0  0  0  0
  1  2  1  0  0  0  0
  1 16  1  0  0  0  0
  1 17  1  0  0  0  0
  1 18  1  0  0  0  0
  2  3  1  0  0  0  0
  2 19  1  0  0  0  0
  2 20  1  0  0  0  0
  3  4  1  0  0  0  0
  3  5  1  0  0  0  0
  3 21  1  0  0  0  0
  4 22  1  0  0  0  0
  5  6  1  0  0  0  0
  5 23  1  0  0  0  0
  5 24  1  0  0  0  0
  6  7  1  0  0  0  0
  6 25  1  0  0  0  0
  7  8  1  0  0  0  0
  7  9  1  0  0  0  0
  7 26  1  0  0  0  0
  8 27  1  0  0  0  0
  8 28  1  0  0  0  0
  8 29  1  0  0  0  0
  9 10  1  0  0  0  0
  9 11  1  0  0  0  0
  9 30  1  0  0  0  0
 10 31  1  0  0  0  0
 10 32  1  0  0  0  0
 10 33  1  0  0  0  0
 11 15  1  0  0  0  0
 11 12  1  0  0  0  0
 12 13  2  0  0  0  0
 12 34  1  0  0  0  0
 13 14  1  0  0  0  0
 13 35  1  0  0  0  0
 14 15  2  0  0  0  0
 14 36  1  0  0  0  0
M  END
> <s_m_source_file>
AV-unprocessed.smi

> <i_m_source_file_index>
3112

> <i_lp_mmshare_version>
43012

> <i_f3d_flags>
0

> <s_epik_input>
W0NIM11bQ0gyXVtDQEhdKFtPSF0pW0NIMl1bTkhdW0NASF0oW0NIM10pW0NASF0oW0NIM10pbjFbY0hdW2NIXVtjSF1uMQ==

> <s_epik_cmdline>
J2VwaWtfcHl0aG9uJywgJy1waCcsICc3LjAnLCAnLXRuJywgJzgnLCAnLW1hJywgJzIwMCcsICctbWV0YWxfYmluZGluZycsICctaW1hZScsICc8aW5maWxlLm1hZT4nLCAnLW9tYWUnLCAnPG91dGZpbGUubWFlPic=

> <r_lp_tautomer_probability>
1

> <r_epik_Ionization_Penalty>
2.16876

> <r_epik_Ionization_Penalty_Charging>
0

> <r_epik_Ionization_Penalty_Neutral>
2.16876

> <r_epik_State_Penalty>
2.30854

> <r_epik_Charging_Adjusted_Penalty>
2.30854

> <i_epik_Tot_Q>
0

> <i_epik_Tot_abs_Q>
0

> <r_epik_Metal_State_Penalty>
2.3073

> <b_epik_Metal_Only>
0

> <s_lp_Force_Field>
OPLS_2005

> <r_lp_Energy>
16.1769

> <b_lp_Chiralities_Consistent>
1

> <s_lp_Variant>
AV-unprocessed.smi:3112-9

> <Gold.Version>
5.8.1

> <Gold.Id.Protein>
6NUR|6NUR_protein|mol2

> <Gold.PLP.Fitness>
40.6204

> <Gold.PLP.PLP>
-30.7675

> <Gold.PLP.part.hbond>
-3.8881

> <Gold.PLP.part.metal>
0.0000

> <Gold.PLP.part.buried>
2.2746

> <Gold.PLP.part.nonpolar>
-28.9073

> <Gold.PLP.part.repulsive>
0.0000

> <Gold.PLP.ligand.clash>
0.0000

> <Gold.PLP.ligand.torsion>
1.1362

> <Gold.PLP.Chemscore.Hbond>
2.9920

> <Gold.PLP.Chemscore.CHOScore>
1.0000

> <Gold.PLP.Chemscore.Metal>
0.0000

> <Gold.Chemscore.Hbonds>
donor molecule, donor type, donor heavy atom, donor atom, acceptor molecule, acceptor atom, score
      L1  H     4    22       P1  7957  0.98
      L1  H     6    25       P1  7957  1.00
      P1  H  7954  7966       L1     4  0.80
      L1  C    12    34       P1  8028  1.00

> <Gold.PLP.Chemscore.Internal.Correction>
0.1493

> <Gold.Rescore>
     Score         DG    S(hbond)    S(metal)    S(lipo)     H(rot)  DE(clash)    DE(int)     intcor
     13.78     -15.19       2.15        0.00      72.23       2.31       0.40       1.01       ----

> <Gold.Chemscore.Fitness>
13.7842

> <Gold.Chemscore.DG>
-15.1900

> <Gold.Chemscore.ZeroCoef>
-5.4800

> <Gold.Chemscore.Hbond>
2.1481

> <Gold.Chemscore.Metal>
0.0000

> <Gold.Chemscore.Lipo>
72.2324

> <Gold.Chemscore.Internal_Hbond>
0.0000

> <Gold.Chemscore.DEClash>
0.3969

> <Gold.Chemscore.DEInternal>
1.0090

> <Gold.Chemscore.Rot>
2.3108

> <Gold.Chemscore.Internal.Correction>
   9.000000E+99

> <Gold.Chemscore.Hbonds>
donor molecule, donor type, donor heavy atom, donor atom, acceptor molecule, acceptor atom, score
      L1  H     4    22       P1  7957  0.56
      L1  H     6    25       P1  7957  1.00
      P1  H  7954  7966       L1     4  0.11

> <Gold.Chemscore.Hbond.Weighted>
-7.1745

> <Gold.Chemscore.Metal.Weighted>
-0.0000

> <Gold.Chemscore.Lipo.Weighted>
-8.4512

> <Gold.Chemscore.Internal_Hbond.Weighted>
0.0000

> <Gold.Chemscore.DEClash.Weighted>
0.3969

> <Gold.Chemscore.DEInternal.Weighted>
1.0090

> <Gold.Chemscore.Rot.Weighted>
5.9157

> <Gold.Chemscore.Internal.Correction.Weighted>
   9.000000E+99

> <Gold.Protein.RotatedTorsions>
[ 6907 6896 6895 6894 ] final  -54.63 input  -60.11 | X-H torsion
[ 7974 7965 7964 7962 ] final -119.51 input  175.53 | X-H torsion
[ 8008 7997 7996 7995 ] final  -82.09 input   59.86 | X-H torsion
[ 10167 10162 10161 10158 ] final  -49.78 input  -65.29 | X-H torsion
[ 10718 10713 10712 10709 ] final -158.37 input   66.30 | X-H torsion
[ 10763 10752 10751 10750 ] final  -22.14 input  -60.55 | X-H torsion
[ 11005 11000 10999 10996 ] final -179.70 input  -57.11 | X-H torsion

> <Gold.Protein.ActiveResidues>
 VAL166  LYS551  ARG553  GLY616  TRP617  ASP618  TYR619  PRO620  LYS621  CYS622 
 ASP623  PHE694  ASN695  SER759  ASP760  ASP761  ALA762  ILE779  LEU786  VAL792 
 PHE793  MET794  SER795  GLU796  ALA797  LYS798  CYS799  TRP800  GLU811  SER814 

> <Gold.Protein.RotatedAtoms>
  150.8321  134.7579  159.6862 H   0  0  0  0  0  0  0  0  0  0  0  0  # atno 6907 bound_to 6896
  152.4424  134.5560  159.9890 H   0  0  0  0  0  0  0  0  0  0  0  0  # atno 6908 bound_to 6896
  151.5719  133.3351  159.3027 H   0  0  0  0  0  0  0  0  0  0  0  0  # atno 6909 bound_to 6896
  145.0617  140.8295  143.4148 H   0  0  0  0  0  0  0  0  0  0  0  0  # atno 7974 bound_to 7965
  154.6050  140.0638  156.9419 H   0  0  0  0  0  0  0  0  0  0  0  0  # atno 8008 bound_to 7997
  155.2069  140.3319  155.4316 H   0  0  0  0  0  0  0  0  0  0  0  0  # atno 8009 bound_to 7997
  156.2342  140.1855  156.7148 H   0  0  0  0  0  0  0  0  0  0  0  0  # atno 8010 bound_to 7997
  140.6669  143.2684  151.4265 H   0  0  0  0  0  0  0  0  0  0  0  0  # atno 10167 bound_to 10162
  156.5532  130.8615  151.2786 H   0  0  0  0  0  0  0  0  0  0  0  0  # atno 10718 bound_to 10713
  153.6472  135.6982  153.5221 H   0  0  0  0  0  0  0  0  0  0  0  0  # atno 10763 bound_to 10752
  153.2735  135.4207  155.1010 H   0  0  0  0  0  0  0  0  0  0  0  0  # atno 10764 bound_to 10752
  154.8485  135.3584  154.6016 H   0  0  0  0  0  0  0  0  0  0  0  0  # atno 10765 bound_to 10752
  140.4158  134.6651  157.4638 H   0  0  0  0  0  0  0  0  0  0  0  0  # atno 11005 bound_to 11000
  145.1400  139.2578  143.5495 LP  0  0  0  0  0  0  0  0  0  0  0  0  # atno 17320 bound_to 7965
  146.3524  140.1075  142.8605 LP  0  0  0  0  0  0  0  0  0  0  0  0  # atno 17321 bound_to 7965
  139.5921  144.1477  152.2100 LP  0  0  0  0  0  0  0  0  0  0  0  0  # atno 17342 bound_to 10162
  140.0834  144.5681  150.7106 LP  0  0  0  0  0  0  0  0  0  0  0  0  # atno 17343 bound_to 10162
  157.7383  130.9811  150.2245 LP  0  0  0  0  0  0  0  0  0  0  0  0  # atno 17370 bound_to 10713
  156.2865  130.3740  149.7883 LP  0  0  0  0  0  0  0  0  0  0  0  0  # atno 17371 bound_to 10713
  140.0235  134.6511  155.9205 LP  0  0  0  0  0  0  0  0  0  0  0  0  # atno 17394 bound_to 11000
  141.1803  133.6545  156.4995 LP  0  0  0  0  0  0  0  0  0  0  0  0  # atno 17395 bound_to 11000

$$$$
