AV-unprocessed.smi:1019|AV-procd|sdf|4452|dock10
  -GOLD-   22720 2423D 1   1.00000     0.00000
 Structure written by MMmdl.
 43 45  0  0  0  0  0  0  0  0  1 V2000
  148.0342  138.8845  154.1704 C   0  0  0  0  0  0  0  0  0  0  0  0
  147.7835  140.3191  154.0626 N   0  0  0  0  0  0  0  0  0  0  0  0
  146.8991  140.7812  155.1364 C   0  0  0  0  0  0  0  0  0  0  0  0
  146.1983  142.0947  154.8332 C   0  0  0  0  0  0  0  0  0  0  0  0
  146.4495  142.7664  153.6182 C   0  0  0  0  0  0  0  0  0  0  0  0
  145.7997  143.9834  153.3347 C   0  0  0  0  0  0  0  0  0  0  0  0
  144.8974  144.5336  154.2656 C   0  0  0  0  0  0  0  0  0  0  0  0
  144.6458  143.8667  155.4803 C   0  0  0  0  0  0  0  0  0  0  0  0
  145.2957  142.6497  155.7646 C   0  0  0  0  0  0  0  0  0  0  0  0
  149.0529  141.0486  154.0453 C   0  0  0  0  0  0  0  0  0  0  0  0
  149.9808  140.7905  155.2524 C   0  0  1  0  0  0  0  0  0  0  0  0
  151.0788  140.0022  154.8329 O   0  0  0  0  0  0  0  0  0  0  0  0
  150.5233  142.1026  155.8527 C   0  0  0  0  0  0  0  0  0  0  0  0
  151.1313  141.9087  157.1574 N   0  0  0  0  0  0  0  0  0  0  0  0
  151.4182  140.7373  157.7573 C   0  0  0  0  0  0  0  0  0  0  0  0
  151.9783  140.7913  158.9625 N   0  0  0  0  0  0  0  0  0  0  0  0
  152.0703  142.1573  159.1672 C   0  0  0  0  0  0  0  0  0  0  0  0
  152.5796  142.8892  160.2638 C   0  0  0  0  0  0  0  0  0  0  0  0
  152.5684  144.2996  160.2484 C   0  0  0  0  0  0  0  0  0  0  0  0
  152.0494  144.9988  159.1394 C   0  0  0  0  0  0  0  0  0  0  0  0
  151.5370  144.2916  158.0348 C   0  0  0  0  0  0  0  0  0  0  0  0
  151.5495  142.8847  158.0546 C   0  0  0  0  0  0  0  0  0  0  0  0
  148.6773  138.5409  153.3595 H   0  0  0  0  0  0  0  0  0  0  0  0
  147.1072  138.3142  154.1074 H   0  0  0  0  0  0  0  0  0  0  0  0
  148.5205  138.6396  155.1155 H   0  0  0  0  0  0  0  0  0  0  0  0
  146.1606  140.0133  155.3716 H   0  0  0  0  0  0  0  0  0  0  0  0
  147.4699  140.9468  156.0493 H   0  0  0  0  0  0  0  0  0  0  0  0
  147.1399  142.3470  152.9009 H   0  0  0  0  0  0  0  0  0  0  0  0
  145.9931  144.4943  152.4030 H   0  0  0  0  0  0  0  0  0  0  0  0
  144.3986  145.4664  154.0479 H   0  0  0  0  0  0  0  0  0  0  0  0
  143.9541  144.2885  156.1945 H   0  0  0  0  0  0  0  0  0  0  0  0
  145.0968  142.1428  156.6974 H   0  0  0  0  0  0  0  0  0  0  0  0
  149.5837  140.8706  153.1084 H   0  0  0  0  0  0  0  0  0  0  0  0
  148.8181  142.1138  154.0416 H   0  0  0  0  0  0  0  0  0  0  0  0
  149.4369  140.2488  156.0279 H   0  0  0  0  0  0  0  0  0  0  0  0
  151.5417  139.7020  155.6005 H   0  0  0  0  0  0  0  0  0  0  0  0
  151.2593  142.5533  155.1850 H   0  0  0  0  0  0  0  0  0  0  0  0
  149.7167  142.8285  155.9634 H   0  0  0  0  0  0  0  0  0  0  0  0
  151.1997  139.7912  157.2840 H   0  0  0  0  0  0  0  0  0  0  0  0
  152.9799  142.3645  161.1186 H   0  0  0  0  0  0  0  0  0  0  0  0
  152.9605  144.8479  161.0924 H   0  0  0  0  0  0  0  0  0  0  0  0
  152.0448  146.0790  159.1371 H   0  0  0  0  0  0  0  0  0  0  0  0
  151.1386  144.8232  157.1834 H   0  0  0  0  0  0  0  0  0  0  0  0
  1  2  1  0  0  0  0
  1 23  1  0  0  0  0
  1 24  1  0  0  0  0
  1 25  1  0  0  0  0
  2  3  1  0  0  0  0
  2 10  1  0  0  0  0
  3  4  1  0  0  0  0
  3 26  1  0  0  0  0
  3 27  1  0  0  0  0
  4  9  1  0  0  0  0
  4  5  2  0  0  0  0
  5  6  1  0  0  0  0
  5 28  1  0  0  0  0
  6  7  2  0  0  0  0
  6 29  1  0  0  0  0
  7  8  1  0  0  0  0
  7 30  1  0  0  0  0
  8  9  2  0  0  0  0
  8 31  1  0  0  0  0
  9 32  1  0  0  0  0
 10 11  1  0  0  0  0
 10 33  1  0  0  0  0
 10 34  1  0  0  0  0
 11 12  1  0  0  0  0
 11 13  1  0  0  0  0
 11 35  1  0  0  0  0
 12 36  1  0  0  0  0
 13 14  1  0  0  0  0
 13 37  1  0  0  0  0
 13 38  1  0  0  0  0
 14 22  1  0  0  0  0
 14 15  1  0  0  0  0
 15 16  2  0  0  0  0
 15 39  1  0  0  0  0
 16 17  1  0  0  0  0
 17 22  2  0  0  0  0
 17 18  1  0  0  0  0
 18 19  2  0  0  0  0
 18 40  1  0  0  0  0
 19 20  1  0  0  0  0
 19 41  1  0  0  0  0
 20 21  2  0  0  0  0
 20 42  1  0  0  0  0
 21 22  1  0  0  0  0
 21 43  1  0  0  0  0
M  END
> <s_m_source_file>
AV-unprocessed.smi

> <i_m_source_file_index>
1019

> <i_lp_mmshare_version>
43012

> <i_f3d_flags>
0

> <s_epik_input>
W2NIXTFbY0hdW2NIXVtjSF1bY0hdYzFbQ0gyXU4oW0NIM10pW0NIMl1bQ0BIXShbT0hdKVtDSDJdbihbY0hdbjIpYyhjMjMpW2NIXVtjSF1bY0hdW2NIXTM=

> <s_epik_cmdline>
J2VwaWtfcHl0aG9uJywgJy1waCcsICc3LjAnLCAnLXRuJywgJzgnLCAnLW1hJywgJzIwMCcsICctbWV0YWxfYmluZGluZycsICctaW1hZScsICc8aW5maWxlLm1hZT4nLCAnLW9tYWUnLCAnPG91dGZpbGUubWFlPic=

> <r_epik_Ionization_Penalty>
1.56741

> <r_epik_Ionization_Penalty_Charging>
0

> <r_epik_Ionization_Penalty_Neutral>
1.56741

> <r_epik_State_Penalty>
1.62466

> <r_epik_Charging_Adjusted_Penalty>
1.62466

> <i_epik_Tot_Q>
0

> <i_epik_Tot_abs_Q>
0

> <r_epik_Metal_State_Penalty>
1.58486

> <b_epik_Metal_Only>
0

> <s_lp_Force_Field>
OPLS_2005

> <r_lp_Energy>
22.9091

> <b_lp_Chiralities_Consistent>
1

> <s_lp_Variant>
AV-unprocessed.smi:1019-10

> <Gold.Version>
5.8.1

> <Gold.Id.Protein>
6NUR|6NUR_protein|mol2

> <Gold.PLP.Fitness>
51.0481

> <Gold.PLP.PLP>
-49.9445

> <Gold.PLP.part.hbond>
-1.0000

> <Gold.PLP.part.metal>
0.0000

> <Gold.PLP.part.buried>
-6.2581

> <Gold.PLP.part.nonpolar>
-41.6171

> <Gold.PLP.part.repulsive>
0.1239

> <Gold.PLP.ligand.clash>
0.0000

> <Gold.PLP.ligand.torsion>
1.0453

> <Gold.PLP.Chemscore.Hbond>
1.0000

> <Gold.PLP.Chemscore.CHOScore>
0.0000

> <Gold.PLP.Chemscore.Metal>
0.0000

> <Gold.Chemscore.Hbonds>
donor molecule, donor type, donor heavy atom, donor atom, acceptor molecule, acceptor atom, score
      P1  H  7989  7998       L1    12  1.00

> <Gold.PLP.Chemscore.Internal.Correction>
0.1942

> <Gold.Rescore>
     Score         DG    S(hbond)    S(metal)    S(lipo)     H(rot)  DE(clash)    DE(int)     intcor
     14.71     -16.98       0.80        0.00     124.96       2.27       0.58       1.69       ----

> <Gold.Chemscore.Fitness>
14.7068

> <Gold.Chemscore.DG>
-16.9778

> <Gold.Chemscore.ZeroCoef>
-5.4800

> <Gold.Chemscore.Hbond>
0.8025

> <Gold.Chemscore.Metal>
0.0000

> <Gold.Chemscore.Lipo>
124.9595

> <Gold.Chemscore.Internal_Hbond>
0.0000

> <Gold.Chemscore.DEClash>
0.5771

> <Gold.Chemscore.DEInternal>
1.6939

> <Gold.Chemscore.Rot>
2.2667

> <Gold.Chemscore.Internal.Correction>
   9.000000E+99

> <Gold.Chemscore.Hbonds>
donor molecule, donor type, donor heavy atom, donor atom, acceptor molecule, acceptor atom, score
      P1  H  7989  7998       L1    12  0.35

> <Gold.Chemscore.Hbond.Weighted>
-2.6804

> <Gold.Chemscore.Metal.Weighted>
-0.0000

> <Gold.Chemscore.Lipo.Weighted>
-14.6203

> <Gold.Chemscore.Internal_Hbond.Weighted>
0.0000

> <Gold.Chemscore.DEClash.Weighted>
0.5771

> <Gold.Chemscore.DEInternal.Weighted>
1.6939

> <Gold.Chemscore.Rot.Weighted>
5.8028

> <Gold.Chemscore.Internal.Correction.Weighted>
   9.000000E+99

> <Gold.Protein.RotatedTorsions>
[ 6907 6896 6895 6894 ] final   89.27 input  -60.11 | X-H torsion
[ 7974 7965 7964 7962 ] final -126.46 input  175.53 | X-H torsion
[ 8008 7997 7996 7995 ] final   41.16 input   59.86 | X-H torsion
[ 10167 10162 10161 10158 ] final  153.80 input  -65.29 | X-H torsion
[ 10718 10713 10712 10709 ] final  124.97 input   66.30 | X-H torsion
[ 10763 10752 10751 10750 ] final  168.53 input  -60.55 | X-H torsion
[ 11005 11000 10999 10996 ] final -139.59 input  -57.11 | X-H torsion

> <Gold.Protein.ActiveResidues>
 VAL166  LYS551  ARG553  GLY616  TRP617  ASP618  TYR619  PRO620  LYS621  CYS622 
 ASP623  PHE694  ASN695  SER759  ASP760  ASP761  ALA762  ILE779  LEU786  VAL792 
 PHE793  MET794  SER795  GLU796  ALA797  LYS798  CYS799  TRP800  GLU811  SER814 

> <Gold.Protein.RotatedAtoms>
  152.5434  134.1992  159.8705 H   0  0  0  0  0  0  0  0  0  0  0  0  # atno 6907 bound_to 6896
  151.1982  133.4619  159.2603 H   0  0  0  0  0  0  0  0  0  0  0  0  # atno 6908 bound_to 6896
  151.1015  134.9987  159.8506 H   0  0  0  0  0  0  0  0  0  0  0  0  # atno 6909 bound_to 6896
  144.9870  140.7695  143.4577 H   0  0  0  0  0  0  0  0  0  0  0  0  # atno 7974 bound_to 7965
  155.2650  140.3362  155.4270 H   0  0  0  0  0  0  0  0  0  0  0  0  # atno 8008 bound_to 7997
  156.2158  140.1788  156.7635 H   0  0  0  0  0  0  0  0  0  0  0  0  # atno 8009 bound_to 7997
  154.5751  140.0663  156.9007 H   0  0  0  0  0  0  0  0  0  0  0  0  # atno 8010 bound_to 7997
  139.4825  144.5241  151.7828 H   0  0  0  0  0  0  0  0  0  0  0  0  # atno 10167 bound_to 10162
  157.5542  131.1093  150.8651 H   0  0  0  0  0  0  0  0  0  0  0  0  # atno 10718 bound_to 10713
  154.3698  135.2753  155.2272 H   0  0  0  0  0  0  0  0  0  0  0  0  # atno 10763 bound_to 10752
  154.4425  135.5951  153.6142 H   0  0  0  0  0  0  0  0  0  0  0  0  # atno 10764 bound_to 10752
  152.9839  135.6022  154.3928 H   0  0  0  0  0  0  0  0  0  0  0  0  # atno 10765 bound_to 10752
  140.8505  134.2291  157.4763 H   0  0  0  0  0  0  0  0  0  0  0  0  # atno 11005 bound_to 11000
  145.2339  139.2102  143.5028 LP  0  0  0  0  0  0  0  0  0  0  0  0  # atno 17320 bound_to 7965
  146.3422  140.2222  142.8591 LP  0  0  0  0  0  0  0  0  0  0  0  0  # atno 17321 bound_to 7965
  140.4759  144.1519  150.5925 LP  0  0  0  0  0  0  0  0  0  0  0  0  # atno 17342 bound_to 10162
  140.4331  143.2559  151.9570 LP  0  0  0  0  0  0  0  0  0  0  0  0  # atno 17343 bound_to 10162
  156.9167  130.5300  149.5279 LP  0  0  0  0  0  0  0  0  0  0  0  0  # atno 17370 bound_to 10713
  156.0603  130.5657  150.9179 LP  0  0  0  0  0  0  0  0  0  0  0  0  # atno 17371 bound_to 10713
  139.8704  134.9681  156.4619 LP  0  0  0  0  0  0  0  0  0  0  0  0  # atno 17394 bound_to 11000
  140.8795  133.7928  155.9451 LP  0  0  0  0  0  0  0  0  0  0  0  0  # atno 17395 bound_to 11000

$$$$
