AV-unprocessed.smi:286|AV-procd|sdf|2173|dock4
  -GOLD-   2262021533D 1   1.00000     0.00000
 Structure written by MMmdl.
 46 48  0  0  0  0  0  0  0  0  1 V2000
  152.9616  138.4593  158.0884 O   0  0  0  0  0  0  0  0  0  0  0  0
  152.4989  139.5866  158.2715 C   0  0  0  0  0  0  0  0  0  0  0  0
  153.1352  140.5839  159.1253 C   0  0  0  0  0  0  0  0  0  0  0  0
  154.2898  140.2870  159.7456 F   0  0  0  0  0  0  0  0  0  0  0  0
  152.5834  141.8034  159.3075 C   0  0  0  0  0  0  0  0  0  0  0  0
  151.3957  142.1923  158.7090 N   0  0  0  0  0  0  0  0  0  0  0  0
  150.7884  143.5606  158.9379 C   0  0  2  0  0  0  0  0  0  0  0  0
  151.6998  144.6616  158.3632 C   0  0  0  0  0  0  0  0  0  0  0  0
  151.8499  145.6171  159.5305 C   0  0  0  0  0  0  0  0  0  0  0  0
  151.7060  144.6834  160.7229 C   0  0  0  0  0  0  0  0  0  0  0  0
  150.6675  143.8046  160.3106 O   0  0  0  0  0  0  0  0  0  0  0  0
  150.7057  141.2868  157.8738 C   0  0  0  0  0  0  0  0  0  0  0  0
  149.6327  141.6015  157.3526 O   0  0  0  0  0  0  0  0  0  0  0  0
  151.2899  140.0143  157.6701 N   0  0  0  0  0  0  0  0  0  0  0  0
  150.5752  139.0705  156.8264 C   0  0  0  0  0  0  0  0  0  0  0  0
  151.0447  139.0891  155.3530 C   0  0  2  0  0  0  0  0  0  0  0  0
  152.1212  139.9981  155.2236 O   0  0  0  0  0  0  0  0  0  0  0  0
  149.9162  139.4884  154.3707 C   0  0  0  0  0  0  0  0  0  0  0  0
  149.3598  140.8976  154.6701 C   0  0  0  0  0  0  0  0  0  0  0  0
  148.2922  141.3167  153.6467 C   0  0  0  0  0  0  0  0  0  0  0  0
  147.1540  140.2873  153.5769 C   0  0  0  0  0  0  0  0  0  0  0  0
  147.6974  138.8842  153.2673 C   0  0  0  0  0  0  0  0  0  0  0  0
  148.7640  138.4590  154.2898 C   0  0  0  0  0  0  0  0  0  0  0  0
  153.1074  142.4886  159.9558 H   0  0  0  0  0  0  0  0  0  0  0  0
  149.7944  143.5223  158.4885 H   0  0  0  0  0  0  0  0  0  0  0  0
  152.6690  144.2442  158.0859 H   0  0  0  0  0  0  0  0  0  0  0  0
  151.2486  145.1236  157.4847 H   0  0  0  0  0  0  0  0  0  0  0  0
  152.7972  146.1568  159.5228 H   0  0  0  0  0  0  0  0  0  0  0  0
  151.0388  146.3461  159.5264 H   0  0  0  0  0  0  0  0  0  0  0  0
  152.6283  144.1260  160.8921 H   0  0  0  0  0  0  0  0  0  0  0  0
  151.4460  145.2085  161.6423 H   0  0  0  0  0  0  0  0  0  0  0  0
  150.7264  138.0874  157.2759 H   0  0  0  0  0  0  0  0  0  0  0  0
  149.5030  139.2459  156.9281 H   0  0  0  0  0  0  0  0  0  0  0  0
  151.4046  138.0988  155.0711 H   0  0  0  0  0  0  0  0  0  0  0  0
  152.4724  140.1723  156.0834 H   0  0  0  0  0  0  0  0  0  0  0  0
  150.3713  139.5393  153.3802 H   0  0  0  0  0  0  0  0  0  0  0  0
  148.9261  140.9236  155.6702 H   0  0  0  0  0  0  0  0  0  0  0  0
  150.1701  141.6274  154.6674 H   0  0  0  0  0  0  0  0  0  0  0  0
  147.8912  142.2958  153.9092 H   0  0  0  0  0  0  0  0  0  0  0  0
  148.7505  141.4241  152.6629 H   0  0  0  0  0  0  0  0  0  0  0  0
  146.6167  140.2709  154.5261 H   0  0  0  0  0  0  0  0  0  0  0  0
  146.4306  140.5828  152.8165 H   0  0  0  0  0  0  0  0  0  0  0  0
  146.8802  138.1625  153.2610 H   0  0  0  0  0  0  0  0  0  0  0  0
  148.1268  138.8723  152.2649 H   0  0  0  0  0  0  0  0  0  0  0  0
  149.1487  137.4775  154.0130 H   0  0  0  0  0  0  0  0  0  0  0  0
  148.2948  138.3421  155.2672 H   0  0  0  0  0  0  0  0  0  0  0  0
  1  2  2  0  0  0  0
  2 14  1  0  0  0  0
  2  3  1  0  0  0  0
  3  4  1  0  0  0  0
  3  5  2  0  0  0  0
  5  6  1  0  0  0  0
  5 24  1  0  0  0  0
  6  7  1  0  0  0  0
  6 12  1  0  0  0  0
  7 11  1  0  0  0  0
  7  8  1  0  0  0  0
  7 25  1  0  0  0  0
  8  9  1  0  0  0  0
  8 26  1  0  0  0  0
  8 27  1  0  0  0  0
  9 10  1  0  0  0  0
  9 28  1  0  0  0  0
  9 29  1  0  0  0  0
 10 11  1  0  0  0  0
 10 30  1  0  0  0  0
 10 31  1  0  0  0  0
 12 13  2  0  0  0  0
 12 14  1  0  0  0  0
 14 15  1  0  0  0  0
 15 16  1  0  0  0  0
 15 32  1  0  0  0  0
 15 33  1  0  0  0  0
 16 17  1  0  0  0  0
 16 18  1  0  0  0  0
 16 34  1  0  0  0  0
 17 35  1  0  0  0  0
 18 23  1  0  0  0  0
 18 19  1  0  0  0  0
 18 36  1  0  0  0  0
 19 20  1  0  0  0  0
 19 37  1  0  0  0  0
 19 38  1  0  0  0  0
 20 21  1  0  0  0  0
 20 39  1  0  0  0  0
 20 40  1  0  0  0  0
 21 22  1  0  0  0  0
 21 41  1  0  0  0  0
 21 42  1  0  0  0  0
 22 23  1  0  0  0  0
 22 43  1  0  0  0  0
 22 44  1  0  0  0  0
 23 45  1  0  0  0  0
 23 46  1  0  0  0  0
M  END
> <s_m_source_file>
AV-unprocessed.smi

> <i_m_source_file_index>
286

> <i_lp_mmshare_version>
43012

> <i_f3d_flags>
0

> <s_epik_input>
TzFbQ0gyXVtDSDJdW0NIMl1bQ0BIXTFuKFtjSF1jKEYpYzI9TyljKD1PKW4yW0NIMl1bQ0BIXShbT0hdKVtDSF0zW0NIMl1bQ0gyXVtDSDJdW0NIMl1bQ0gyXTM=

> <s_epik_cmdline>
J2VwaWtfcHl0aG9uJywgJy1waCcsICc3LjAnLCAnLXRuJywgJzgnLCAnLW1hJywgJzIwMCcsICctbWV0YWxfYmluZGluZycsICctaW1hZScsICc8aW5maWxlLm1hZT4nLCAnLW9tYWUnLCAnPG91dGZpbGUubWFlPic=

> <r_lp_tautomer_probability>
1

> <r_epik_Ionization_Penalty>
3.15564e-07

> <r_epik_Ionization_Penalty_Charging>
2.06416e-08

> <r_epik_Ionization_Penalty_Neutral>
2.94923e-07

> <r_epik_State_Penalty>
-0

> <r_epik_Charging_Adjusted_Penalty>
2.06416e-08

> <i_epik_Tot_Q>
0

> <i_epik_Tot_abs_Q>
0

> <r_epik_Metal_State_Penalty>
-0

> <b_epik_Metal_Only>
0

> <s_epik_Chemistry_Notes>
This compound contains an acetal/aminal-like group ( X-CH(R)-Y where X, Y are N, S, or O) that may be acid/base labile, releasing an aldehyde.

> <s_lp_Force_Field>
OPLS_2005

> <r_lp_Energy>
41.5856

> <b_lp_Chiralities_Consistent>
1

> <s_lp_Variant>
AV-unprocessed.smi:286-1

> <Gold.Version>
5.8.1

> <Gold.Id.Protein>
6NUR|6NUR_protein|mol2

> <Gold.PLP.Fitness>
47.1017

> <Gold.PLP.PLP>
-46.9679

> <Gold.PLP.part.hbond>
-2.0000

> <Gold.PLP.part.metal>
0.0000

> <Gold.PLP.part.buried>
-5.2539

> <Gold.PLP.part.nonpolar>
-40.1064

> <Gold.PLP.part.repulsive>
0.2191

> <Gold.PLP.ligand.clash>
0.0000

> <Gold.PLP.ligand.torsion>
1.1990

> <Gold.PLP.Chemscore.Hbond>
0.8320

> <Gold.PLP.Chemscore.CHOScore>
0.0000

> <Gold.PLP.Chemscore.Metal>
0.0000

> <Gold.Chemscore.Hbonds>
donor molecule, donor type, donor heavy atom, donor atom, acceptor molecule, acceptor atom, score
      P1  H  7989  7998       L1    17  0.77

> <Gold.PLP.Chemscore.Internal.Correction>
0.0359

> <Gold.Rescore>
     Score         DG    S(hbond)    S(metal)    S(lipo)     H(rot)  DE(clash)    DE(int)     intcor
     13.29     -14.47       0.92        0.00     100.24       2.28       0.03       1.15       ----

> <Gold.Chemscore.Fitness>
13.2858

> <Gold.Chemscore.DG>
-14.4676

> <Gold.Chemscore.ZeroCoef>
-5.4800

> <Gold.Chemscore.Hbond>
0.9237

> <Gold.Chemscore.Metal>
0.0000

> <Gold.Chemscore.Lipo>
100.2382

> <Gold.Chemscore.Internal_Hbond>
0.0000

> <Gold.Chemscore.DEClash>
0.0294

> <Gold.Chemscore.DEInternal>
1.1525

> <Gold.Chemscore.Rot>
2.2756

> <Gold.Chemscore.Internal.Correction>
   9.000000E+99

> <Gold.Chemscore.Hbonds>
donor molecule, donor type, donor heavy atom, donor atom, acceptor molecule, acceptor atom, score
      P1  H  7989  7998       L1    17  0.23

> <Gold.Chemscore.Hbond.Weighted>
-3.0852

> <Gold.Chemscore.Metal.Weighted>
-0.0000

> <Gold.Chemscore.Lipo.Weighted>
-11.7279

> <Gold.Chemscore.Internal_Hbond.Weighted>
0.0000

> <Gold.Chemscore.DEClash.Weighted>
0.0294

> <Gold.Chemscore.DEInternal.Weighted>
1.1525

> <Gold.Chemscore.Rot.Weighted>
5.8254

> <Gold.Chemscore.Internal.Correction.Weighted>
   9.000000E+99

> <Gold.Protein.RotatedTorsions>
[ 6907 6896 6895 6894 ] final   42.24 input  -60.11 | X-H torsion
[ 7974 7965 7964 7962 ] final -123.68 input  175.53 | X-H torsion
[ 8008 7997 7996 7995 ] final -116.47 input   59.86 | X-H torsion
[ 10167 10162 10161 10158 ] final   38.11 input  -65.29 | X-H torsion
[ 10718 10713 10712 10709 ] final  173.24 input   66.30 | X-H torsion
[ 10763 10752 10751 10750 ] final  140.64 input  -60.55 | X-H torsion
[ 11005 11000 10999 10996 ] final -166.22 input  -57.11 | X-H torsion

> <Gold.Protein.ActiveResidues>
 VAL166  LYS551  ARG553  GLY616  TRP617  ASP618  TYR619  PRO620  LYS621  CYS622 
 ASP623  PHE694  ASN695  SER759  ASP760  ASP761  ALA762  ILE779  LEU786  VAL792 
 PHE793  MET794  SER795  GLU796  ALA797  LYS798  CYS799  TRP800  GLU811  SER814 

> <Gold.Protein.RotatedAtoms>
  152.2054  134.8550  160.0503 H   0  0  0  0  0  0  0  0  0  0  0  0  # atno 6907 bound_to 6896
  151.9388  133.3627  159.3966 H   0  0  0  0  0  0  0  0  0  0  0  0  # atno 6908 bound_to 6896
  150.6964  134.4385  159.5325 H   0  0  0  0  0  0  0  0  0  0  0  0  # atno 6909 bound_to 6896
  145.0161  140.7948  143.4409 H   0  0  0  0  0  0  0  0  0  0  0  0  # atno 7974 bound_to 7965
  155.0684  140.0393  157.2600 H   0  0  0  0  0  0  0  0  0  0  0  0  # atno 8008 bound_to 7997
  154.7003  140.2672  155.6702 H   0  0  0  0  0  0  0  0  0  0  0  0  # atno 8009 bound_to 7997
  156.2758  140.2742  156.1611 H   0  0  0  0  0  0  0  0  0  0  0  0  # atno 8010 bound_to 7997
  140.3968  144.1777  150.6132 H   0  0  0  0  0  0  0  0  0  0  0  0  # atno 10167 bound_to 10162
  156.9672  131.0079  151.2914 H   0  0  0  0  0  0  0  0  0  0  0  0  # atno 10718 bound_to 10713
  153.9261  135.2995  155.3447 H   0  0  0  0  0  0  0  0  0  0  0  0  # atno 10763 bound_to 10752
  154.7551  135.4962  153.9362 H   0  0  0  0  0  0  0  0  0  0  0  0  # atno 10764 bound_to 10752
  153.1116  135.6760  153.9594 H   0  0  0  0  0  0  0  0  0  0  0  0  # atno 10765 bound_to 10752
  140.5669  134.5277  157.5154 H   0  0  0  0  0  0  0  0  0  0  0  0  # atno 11005 bound_to 11000
  145.1957  139.2278  143.5219 LP  0  0  0  0  0  0  0  0  0  0  0  0  # atno 17320 bound_to 7965
  146.3478  140.1763  142.8589 LP  0  0  0  0  0  0  0  0  0  0  0  0  # atno 17321 bound_to 7965
  140.4781  143.2388  151.8994 LP  0  0  0  0  0  0  0  0  0  0  0  0  # atno 17342 bound_to 10162
  139.4786  144.5298  151.8683 LP  0  0  0  0  0  0  0  0  0  0  0  0  # atno 17343 bound_to 10162
  157.5617  130.8250  149.8275 LP  0  0  0  0  0  0  0  0  0  0  0  0  # atno 17370 bound_to 10713
  156.0297  130.3768  150.1721 LP  0  0  0  0  0  0  0  0  0  0  0  0  # atno 17371 bound_to 10713
  139.9380  134.7839  156.0751 LP  0  0  0  0  0  0  0  0  0  0  0  0  # atno 17394 bound_to 11000
  141.1080  133.6653  156.2910 LP  0  0  0  0  0  0  0  0  0  0  0  0  # atno 17395 bound_to 11000

$$$$
