AV-unprocessed.smi:3259|AV-procd|sdf|12475|dock8
  -GOLD-   2272018373D 1   1.00000     0.00000
 Structure written by MMmdl.
 39 40  0  0  0  0  0  0  0  0  1 V2000
  151.5273  135.5527  155.6649 C   0  0  0  0  0  0  0  0  0  0  0  0
  152.2582  136.6799  155.1996 O   0  0  0  0  0  0  0  0  0  0  0  0
  151.5735  137.9334  155.2228 C   0  0  2  0  0  0  0  0  0  0  0  0
  150.3751  137.8936  154.2618 C   0  0  0  0  0  0  0  0  0  0  0  0
  152.5391  139.1288  155.1216 C   0  0  0  0  0  0  0  0  0  0  0  0
  151.7115  139.7780  156.2287 C   0  0  2  0  0  0  0  0  0  0  0  0
  152.5266  140.5487  157.1609 N   0  0  0  0  0  0  0  0  0  0  0  0
  152.0443  141.2022  158.2285 C   0  0  0  0  0  0  0  0  0  0  0  0
  150.8526  141.2104  158.5357 O   0  0  0  0  0  0  0  0  0  0  0  0
  153.0622  141.9546  159.0868 C   0  0  0  0  0  0  0  0  0  0  0  0
  152.6529  143.3306  159.3061 N   0  0  0  0  0  0  0  0  0  0  0  0
  152.5218  144.3444  158.3796 C   0  0  0  0  0  0  0  0  0  0  0  0
  152.1031  145.4575  159.0507 C   0  0  0  0  0  0  0  0  0  0  0  0
  152.0065  145.0213  160.4016 C   0  0  0  0  0  0  0  0  0  0  0  0
  152.3368  143.7486  160.5515 N   0  0  0  0  0  0  0  0  0  0  0  0
  151.3372  138.3529  156.7107 C   0  0  0  0  0  0  0  0  0  0  0  0
  149.9164  138.1858  157.2588 C   0  0  0  0  0  0  0  0  0  0  0  0
  152.2690  137.7053  157.7549 C   0  0  0  0  0  0  0  0  0  0  0  0
  152.1229  134.6537  155.5076 H   0  0  0  0  0  0  0  0  0  0  0  0
  150.5883  135.4237  155.1264 H   0  0  0  0  0  0  0  0  0  0  0  0
  151.3153  135.6164  156.7318 H   0  0  0  0  0  0  0  0  0  0  0  0
  149.7499  138.7814  154.3548 H   0  0  0  0  0  0  0  0  0  0  0  0
  149.7423  137.0268  154.4539 H   0  0  0  0  0  0  0  0  0  0  0  0
  150.6901  137.8498  153.2197 H   0  0  0  0  0  0  0  0  0  0  0  0
  153.5629  138.8935  155.4186 H   0  0  0  0  0  0  0  0  0  0  0  0
  152.5123  139.6588  154.1691 H   0  0  0  0  0  0  0  0  0  0  0  0
  150.8602  140.3314  155.8256 H   0  0  0  0  0  0  0  0  0  0  0  0
  153.5190  140.5907  156.9801 H   0  0  0  0  0  0  0  0  0  0  0  0
  153.1837  141.4555  160.0494 H   0  0  0  0  0  0  0  0  0  0  0  0
  154.0375  141.9488  158.5979 H   0  0  0  0  0  0  0  0  0  0  0  0
  152.7328  144.1899  157.3318 H   0  0  0  0  0  0  0  0  0  0  0  0
  151.8971  146.4346  158.6397 H   0  0  0  0  0  0  0  0  0  0  0  0
  151.7083  145.5878  161.2713 H   0  0  0  0  0  0  0  0  0  0  0  0
  149.8264  138.5899  158.2677 H   0  0  0  0  0  0  0  0  0  0  0  0
  149.6254  137.1357  157.2976 H   0  0  0  0  0  0  0  0  0  0  0  0
  149.1781  138.7058  156.6490 H   0  0  0  0  0  0  0  0  0  0  0  0
  152.1743  138.1825  158.7308 H   0  0  0  0  0  0  0  0  0  0  0  0
  153.3191  137.7685  157.4696 H   0  0  0  0  0  0  0  0  0  0  0  0
  152.0395  136.6479  157.8911 H   0  0  0  0  0  0  0  0  0  0  0  0
  1  2  1  0  0  0  0
  1 19  1  0  0  0  0
  1 20  1  0  0  0  0
  1 21  1  0  0  0  0
  2  3  1  0  0  0  0
  3 16  1  0  0  0  0
  3  4  1  0  0  0  0
  3  5  1  0  0  0  0
  4 22  1  0  0  0  0
  4 23  1  0  0  0  0
  4 24  1  0  0  0  0
  5  6  1  0  0  0  0
  5 25  1  0  0  0  0
  5 26  1  0  0  0  0
  6  7  1  0  0  0  0
  6 16  1  0  0  0  0
  6 27  1  0  0  0  0
  7  8  1  0  0  0  0
  7 28  1  0  0  0  0
  8  9  2  0  0  0  0
  8 10  1  0  0  0  0
 10 11  1  0  0  0  0
 10 29  1  0  0  0  0
 10 30  1  0  0  0  0
 11 15  1  0  0  0  0
 11 12  1  0  0  0  0
 12 13  2  0  0  0  0
 12 31  1  0  0  0  0
 13 14  1  0  0  0  0
 13 32  1  0  0  0  0
 14 15  2  0  0  0  0
 14 33  1  0  0  0  0
 16 17  1  0  0  0  0
 16 18  1  0  0  0  0
 17 34  1  0  0  0  0
 17 35  1  0  0  0  0
 17 36  1  0  0  0  0
 18 37  1  0  0  0  0
 18 38  1  0  0  0  0
 18 39  1  0  0  0  0
M  END
> <s_m_source_file>
AV-unprocessed.smi

> <i_m_source_file_index>
3259

> <i_lp_mmshare_version>
43012

> <i_f3d_flags>
0

> <s_epik_input>
W0NIM11PW0NAQF0xKFtDSDNdKVtDSDJdW0NASF0oQzEoW0NIM10pW0NIM10pW05IXUMoPU8pW0NIMl1uMltjSF1bY0hdW2NIXW4y

> <s_epik_cmdline>
J2VwaWtfcHl0aG9uJywgJy1waCcsICc3LjAnLCAnLXRuJywgJzgnLCAnLW1hJywgJzIwMCcsICctbWV0YWxfYmluZGluZycsICctaW1hZScsICc8aW5maWxlLm1hZT4nLCAnLW9tYWUnLCAnPG91dGZpbGUubWFlPic=

> <r_lp_tautomer_probability>
1

> <r_epik_Ionization_Penalty>
1.78399e-05

> <r_epik_Ionization_Penalty_Charging>
0

> <r_epik_Ionization_Penalty_Neutral>
1.78399e-05

> <r_epik_State_Penalty>
-0

> <r_epik_Charging_Adjusted_Penalty>
0

> <i_epik_Tot_Q>
0

> <i_epik_Tot_abs_Q>
0

> <r_epik_Metal_State_Penalty>
-0

> <b_epik_Metal_Only>
0

> <s_lp_Force_Field>
OPLS_2005

> <r_lp_Energy>
24.0627

> <b_lp_Chiralities_Consistent>
1

> <s_lp_Variant>
AV-unprocessed.smi:3259-4

> <Gold.Version>
5.8.1

> <Gold.Id.Protein>
6NUR|6NUR_protein|mol2

> <Gold.PLP.Fitness>
38.4458

> <Gold.PLP.PLP>
-35.7460

> <Gold.PLP.part.hbond>
-1.0000

> <Gold.PLP.part.metal>
0.0000

> <Gold.PLP.part.buried>
-4.3191

> <Gold.PLP.part.nonpolar>
-31.0293

> <Gold.PLP.part.repulsive>
0.2843

> <Gold.PLP.ligand.clash>
0.0000

> <Gold.PLP.ligand.torsion>
0.3361

> <Gold.PLP.Chemscore.Hbond>
1.0000

> <Gold.PLP.Chemscore.CHOScore>
0.0000

> <Gold.PLP.Chemscore.Metal>
0.0000

> <Gold.Chemscore.Hbonds>
donor molecule, donor type, donor heavy atom, donor atom, acceptor molecule, acceptor atom, score
      P1  H 10752 10763       L1     2  0.03

> <Gold.PLP.Chemscore.Internal.Correction>
0.3719

> <Gold.Rescore>
     Score         DG    S(hbond)    S(metal)    S(lipo)     H(rot)  DE(clash)    DE(int)     intcor
     12.76     -13.26       0.38        0.00      90.62       1.60       0.10       0.40       ----

> <Gold.Chemscore.Fitness>
12.7579

> <Gold.Chemscore.DG>
-13.2554

> <Gold.Chemscore.ZeroCoef>
-5.4800

> <Gold.Chemscore.Hbond>
0.3770

> <Gold.Chemscore.Metal>
0.0000

> <Gold.Chemscore.Lipo>
90.6203

> <Gold.Chemscore.Internal_Hbond>
0.0000

> <Gold.Chemscore.DEClash>
0.0990

> <Gold.Chemscore.DEInternal>
0.3985

> <Gold.Chemscore.Rot>
1.5962

> <Gold.Chemscore.Internal.Correction>
   9.000000E+99

> <Gold.Chemscore.Hbond.Weighted>
-1.2591

> <Gold.Chemscore.Metal.Weighted>
-0.0000

> <Gold.Chemscore.Lipo.Weighted>
-10.6026

> <Gold.Chemscore.Internal_Hbond.Weighted>
0.0000

> <Gold.Chemscore.DEClash.Weighted>
0.0990

> <Gold.Chemscore.DEInternal.Weighted>
0.3985

> <Gold.Chemscore.Rot.Weighted>
4.0862

> <Gold.Chemscore.Internal.Correction.Weighted>
   9.000000E+99

> <Gold.Protein.RotatedTorsions>
[ 6907 6896 6895 6894 ] final  112.34 input  -60.11 | X-H torsion
[ 7974 7965 7964 7962 ] final  104.40 input  175.53 | X-H torsion
[ 8008 7997 7996 7995 ] final  -81.12 input   59.86 | X-H torsion
[ 10167 10162 10161 10158 ] final  166.06 input  -65.29 | X-H torsion
[ 10718 10713 10712 10709 ] final  -71.37 input   66.30 | X-H torsion
[ 10763 10752 10751 10750 ] final   50.53 input  -60.55 | X-H torsion
[ 11005 11000 10999 10996 ] final  -52.95 input  -57.11 | X-H torsion

> <Gold.Protein.ActiveResidues>
 VAL166  LYS551  ARG553  GLY616  TRP617  ASP618  TYR619  PRO620  LYS621  CYS622 
 ASP623  PHE694  ASN695  SER759  ASP760  ASP761  ALA762  ILE779  LEU786  VAL792 
 PHE793  MET794  SER795  GLU796  ALA797  LYS798  CYS799  TRP800  GLU811  SER814 

> <Gold.Protein.RotatedAtoms>
  152.4922  133.8530  159.7211 H   0  0  0  0  0  0  0  0  0  0  0  0  # atno 6907 bound_to 6896
  150.9062  133.7046  159.2873 H   0  0  0  0  0  0  0  0  0  0  0  0  # atno 6908 bound_to 6896
  151.4470  135.1030  159.9739 H   0  0  0  0  0  0  0  0  0  0  0  0  # atno 6909 bound_to 6896
  145.3333  139.2481  143.3649 H   0  0  0  0  0  0  0  0  0  0  0  0  # atno 7974 bound_to 7965
  154.5951  140.0652  156.9293 H   0  0  0  0  0  0  0  0  0  0  0  0  # atno 8008 bound_to 7997
  155.2227  140.3331  155.4295 H   0  0  0  0  0  0  0  0  0  0  0  0  # atno 8009 bound_to 7997
  156.2282  140.1829  156.7294 H   0  0  0  0  0  0  0  0  0  0  0  0  # atno 8010 bound_to 7997
  139.4917  144.4066  151.9348 H   0  0  0  0  0  0  0  0  0  0  0  0  # atno 10167 bound_to 10162
  156.0366  130.4350  150.2434 H   0  0  0  0  0  0  0  0  0  0  0  0  # atno 10718 bound_to 10713
  152.9784  135.5876  154.4268 H   0  0  0  0  0  0  0  0  0  0  0  0  # atno 10763 bound_to 10752
  154.3886  135.2767  155.2170 H   0  0  0  0  0  0  0  0  0  0  0  0  # atno 10764 bound_to 10752
  154.4052  135.6094  153.5975 H   0  0  0  0  0  0  0  0  0  0  0  0  # atno 10765 bound_to 10752
  141.0951  133.6626  156.4100 H   0  0  0  0  0  0  0  0  0  0  0  0  # atno 11005 bound_to 11000
  146.3037  140.3915  142.8695 LP  0  0  0  0  0  0  0  0  0  0  0  0  # atno 17320 bound_to 7965
  144.8847  140.7447  143.5964 LP  0  0  0  0  0  0  0  0  0  0  0  0  # atno 17321 bound_to 7965
  140.3507  144.3092  150.5950 LP  0  0  0  0  0  0  0  0  0  0  0  0  # atno 17342 bound_to 10162
  140.5488  143.2210  151.7962 LP  0  0  0  0  0  0  0  0  0  0  0  0  # atno 17343 bound_to 10162
  157.0533  131.0069  151.3246 LP  0  0  0  0  0  0  0  0  0  0  0  0  # atno 17370 bound_to 10713
  157.5124  130.7947  149.7720 LP  0  0  0  0  0  0  0  0  0  0  0  0  # atno 17371 bound_to 10713
  140.5160  134.6350  157.5301 LP  0  0  0  0  0  0  0  0  0  0  0  0  # atno 17394 bound_to 11000
  139.9785  134.7175  155.9903 LP  0  0  0  0  0  0  0  0  0  0  0  0  # atno 17395 bound_to 11000

$$$$
