AV-unprocessed.smi:1404|AV-procd|sdf|5706|dock6
  -GOLD-   22720 5343D 1   1.00000     0.00000
 Structure written by MMmdl.
 48 49  0  0  0  0  0  0  0  0  2 V2000
  151.8431  140.7850  156.9933 C   0  0  0  0  0  0  0  0  0  0  0  0
  151.4399  139.8615  155.9532 N   0  0  0  0  0  0  0  0  0  0  0  0
  152.3546  138.8734  155.5148 C   0  0  0  0  0  0  0  0  0  0  0  0
  153.4862  138.7585  155.9865 O   0  0  0  0  0  0  0  0  0  0  0  0
  151.8467  138.0092  154.4558 C   0  0  0  0  0  0  0  0  0  0  0  0
  150.6016  138.1769  153.9593 C   0  0  0  0  0  0  0  0  0  0  0  0
  149.7302  139.1557  154.4013 N   0  0  0  0  0  0  0  0  0  0  0  0
  148.3991  139.2771  153.7945 C   0  0  0  0  0  0  0  0  0  0  0  0
  147.3755  138.3402  154.4467 C   0  0  0  0  0  0  0  0  0  0  0  0
  146.5166  138.7877  155.2073 O   0  0  0  0  0  0  0  0  0  0  0  0
  147.4805  137.0393  154.1358 N   0  0  0  0  0  0  0  0  0  0  0  0
  146.6512  135.9628  154.6766 C   0  0  0  0  0  0  0  0  0  0  0  0
  147.0268  134.5428  154.1477 C   0  0  0  0  0  0  0  0  0  0  0  0
  148.5527  134.3521  154.3563 C   0  0  0  0  0  0  0  0  0  0  0  0
  146.3018  133.4386  154.9571 C   0  0  0  0  0  0  0  0  0  0  0  0
  146.6632  134.4682  152.6837 N   0  3  0  0  0  0  0  0  0  0  0  0
  146.9045  133.1610  152.0072 C   0  0  0  0  0  0  0  0  0  0  0  0
  146.6307  133.2647  150.4960 C   0  0  0  0  0  0  0  0  0  0  0  0
  145.3076  133.7261  150.2668 O   0  0  0  0  0  0  0  0  0  0  0  0
  145.1030  135.0180  150.8188 C   0  0  0  0  0  0  0  0  0  0  0  0
  145.2947  134.9537  152.3417 C   0  0  0  0  0  0  0  0  0  0  0  0
  150.1418  140.0360  155.4252 C   0  0  0  0  0  0  0  0  0  0  0  0
  149.3888  140.9248  155.8326 O   0  0  0  0  0  0  0  0  0  0  0  0
  152.7951  140.4923  157.4348 H   0  0  0  0  0  0  0  0  0  0  0  0
  151.0726  140.7692  157.7665 H   0  0  0  0  0  0  0  0  0  0  0  0
  151.9241  141.7702  156.5311 H   0  0  0  0  0  0  0  0  0  0  0  0
  152.4774  137.2256  154.0620 H   0  0  0  0  0  0  0  0  0  0  0  0
  150.2746  137.5127  153.1723 H   0  0  0  0  0  0  0  0  0  0  0  0
  148.0330  140.3003  153.8888 H   0  0  0  0  0  0  0  0  0  0  0  0
  148.4621  139.0826  152.7219 H   0  0  0  0  0  0  0  0  0  0  0  0
  148.2138  136.7687  153.4961 H   0  0  0  0  0  0  0  0  0  0  0  0
  146.6853  136.0144  155.7635 H   0  0  0  0  0  0  0  0  0  0  0  0
  145.6183  136.1878  154.4078 H   0  0  0  0  0  0  0  0  0  0  0  0
  148.8457  134.4990  155.3960 H   0  0  0  0  0  0  0  0  0  0  0  0
  149.1303  135.0554  153.7556 H   0  0  0  0  0  0  0  0  0  0  0  0
  148.8801  133.3427  154.1068 H   0  0  0  0  0  0  0  0  0  0  0  0
  146.6632  133.3935  155.9847 H   0  0  0  0  0  0  0  0  0  0  0  0
  146.4627  132.4502  154.5269 H   0  0  0  0  0  0  0  0  0  0  0  0
  145.2263  133.6082  155.0107 H   0  0  0  0  0  0  0  0  0  0  0  0
  147.9380  132.8372  152.1154 H   0  0  0  0  0  0  0  0  0  0  0  0
  146.2727  132.3896  152.4489 H   0  0  0  0  0  0  0  0  0  0  0  0
  147.3479  133.9334  150.0173 H   0  0  0  0  0  0  0  0  0  0  0  0
  146.7479  132.2878  150.0264 H   0  0  0  0  0  0  0  0  0  0  0  0
  145.7850  135.7395  150.3661 H   0  0  0  0  0  0  0  0  0  0  0  0
  144.0901  135.3442  150.5818 H   0  0  0  0  0  0  0  0  0  0  0  0
  144.5424  134.2842  152.7603 H   0  0  0  0  0  0  0  0  0  0  0  0
  145.1021  135.9423  152.7516 H   0  0  0  0  0  0  0  0  0  0  0  0
  147.2988  135.1097  152.2314 H   0  0  0  0  0  0  0  0  0  0  0  0
  1  2  1  0  0  0  0
  1 24  1  0  0  0  0
  1 25  1  0  0  0  0
  1 26  1  0  0  0  0
  2 22  1  0  0  0  0
  2  3  1  0  0  0  0
  3  4  2  0  0  0  0
  3  5  1  0  0  0  0
  5  6  2  0  0  0  0
  5 27  1  0  0  0  0
  6  7  1  0  0  0  0
  6 28  1  0  0  0  0
  7  8  1  0  0  0  0
  7 22  1  0  0  0  0
  8  9  1  0  0  0  0
  8 29  1  0  0  0  0
  8 30  1  0  0  0  0
  9 10  2  0  0  0  0
  9 11  1  0  0  0  0
 11 12  1  0  0  0  0
 11 31  1  0  0  0  0
 12 13  1  0  0  0  0
 12 32  1  0  0  0  0
 12 33  1  0  0  0  0
 13 14  1  0  0  0  0
 13 15  1  0  0  0  0
 13 16  1  0  0  0  0
 14 34  1  0  0  0  0
 14 35  1  0  0  0  0
 14 36  1  0  0  0  0
 15 37  1  0  0  0  0
 15 38  1  0  0  0  0
 15 39  1  0  0  0  0
 16 21  1  0  0  0  0
 16 17  1  0  0  0  0
 16 48  1  0  0  0  0
 17 18  1  0  0  0  0
 17 40  1  0  0  0  0
 17 41  1  0  0  0  0
 18 19  1  0  0  0  0
 18 42  1  0  0  0  0
 18 43  1  0  0  0  0
 19 20  1  0  0  0  0
 20 21  1  0  0  0  0
 20 44  1  0  0  0  0
 20 45  1  0  0  0  0
 21 46  1  0  0  0  0
 21 47  1  0  0  0  0
 22 23  2  0  0  0  0
M  CHG  1  16   1
M  END
> <s_m_source_file>
AV-unprocessed.smi

> <i_m_source_file_index>
1404

> <i_lp_mmshare_version>
43012

> <i_f3d_flags>
0

> <s_epik_input>
W0NIM11uMWMoPU8pW2NIXVtjSF1uKGMxPU8pW0NIMl1DKD1PKVtOSF1bQ0gyXUMoW0NIM10pKFtDSDNdKU4yW0NIMl1bQ0gyXU9bQ0gyXVtDSDJdMg==

> <s_epik_cmdline>
J2VwaWtfcHl0aG9uJywgJy1waCcsICc3LjAnLCAnLXRuJywgJzgnLCAnLW1hJywgJzIwMCcsICctbWV0YWxfYmluZGluZycsICctaW1hZScsICc8aW5maWxlLm1hZT4nLCAnLW9tYWUnLCAnPG91dGZpbGUubWFlPic=

> <r_lp_tautomer_probability>
1

> <r_epik_Ionization_Penalty>
0.656654

> <r_epik_Ionization_Penalty_Charging>
0.656653

> <r_epik_Ionization_Penalty_Neutral>
9.12373e-08

> <r_epik_State_Penalty>
0.675641

> <r_epik_Charging_Adjusted_Penalty>
1.33229

> <i_epik_Tot_Q>
1

> <i_epik_Tot_abs_Q>
1

> <r_epik_Metal_State_Penalty>
0.675694

> <b_epik_Metal_Only>
0

> <s_lp_Force_Field>
OPLS_2005

> <r_lp_Energy>
33.2005

> <b_lp_Chiralities_Consistent>
1

> <s_lp_Variant>
AV-unprocessed.smi:1404-2

> <Gold.Version>
5.8.1

> <Gold.Id.Protein>
6NUR|6NUR_protein|mol2

> <Gold.PLP.Fitness>
47.3566

> <Gold.PLP.PLP>
-33.4064

> <Gold.PLP.part.hbond>
-2.7845

> <Gold.PLP.part.metal>
0.0000

> <Gold.PLP.part.buried>
-3.1071

> <Gold.PLP.part.nonpolar>
-28.6493

> <Gold.PLP.part.repulsive>
1.1581

> <Gold.PLP.ligand.clash>
0.0000

> <Gold.PLP.ligand.torsion>
0.7356

> <Gold.PLP.Chemscore.Hbond>
4.0000

> <Gold.PLP.Chemscore.CHOScore>
1.0930

> <Gold.PLP.Chemscore.Metal>
0.0000

> <Gold.Chemscore.Hbonds>
donor molecule, donor type, donor heavy atom, donor atom, acceptor molecule, acceptor atom, score
      L1  H    11    31       P1  7948  1.00
      L1  H    16    48       P1  7948  2.00
      P1  H  7997  8009       L1     4  0.77
      L1  C     6    28       P1  7948  0.74
      L1  C     6    28       P1  7949  0.22

> <Gold.PLP.Chemscore.Internal.Correction>
0.1422

> <Gold.Rescore>
     Score         DG    S(hbond)    S(metal)    S(lipo)     H(rot)  DE(clash)    DE(int)     intcor
     14.43     -16.70       2.80        0.00      62.77       2.14       1.76       0.51       ----

> <Gold.Chemscore.Fitness>
14.4336

> <Gold.Chemscore.DG>
-16.7023

> <Gold.Chemscore.ZeroCoef>
-5.4800

> <Gold.Chemscore.Hbond>
2.8000

> <Gold.Chemscore.Metal>
0.0000

> <Gold.Chemscore.Lipo>
62.7689

> <Gold.Chemscore.Internal_Hbond>
0.0000

> <Gold.Chemscore.DEClash>
1.7556

> <Gold.Chemscore.DEInternal>
0.5131

> <Gold.Chemscore.Rot>
2.1381

> <Gold.Chemscore.Internal.Correction>
   9.000000E+99

> <Gold.Chemscore.Hbonds>
donor molecule, donor type, donor heavy atom, donor atom, acceptor molecule, acceptor atom, score
      L1  H    11    31       P1  7948  0.99
      L1  H    16    48       P1  7948  0.95
      P1  H  7997  8009       L1     4  0.75

> <Gold.Chemscore.Hbond.Weighted>
-9.3519

> <Gold.Chemscore.Metal.Weighted>
-0.0000

> <Gold.Chemscore.Lipo.Weighted>
-7.3440

> <Gold.Chemscore.Internal_Hbond.Weighted>
0.0000

> <Gold.Chemscore.DEClash.Weighted>
1.7556

> <Gold.Chemscore.DEInternal.Weighted>
0.5131

> <Gold.Chemscore.Rot.Weighted>
5.4735

> <Gold.Chemscore.Internal.Correction.Weighted>
   9.000000E+99

> <Gold.Protein.RotatedTorsions>
[ 6907 6896 6895 6894 ] final -128.18 input  -60.11 | X-H torsion
[ 7974 7965 7964 7962 ] final -161.75 input  175.53 | X-H torsion
[ 8008 7997 7996 7995 ] final -177.12 input   59.86 | X-H torsion
[ 10167 10162 10161 10158 ] final  110.64 input  -65.29 | X-H torsion
[ 10718 10713 10712 10709 ] final   34.04 input   66.30 | X-H torsion
[ 10763 10752 10751 10750 ] final  -10.38 input  -60.55 | X-H torsion
[ 11005 11000 10999 10996 ] final -102.80 input  -57.11 | X-H torsion

> <Gold.Protein.ActiveResidues>
 VAL166  LYS551  ARG553  GLY616  TRP617  ASP618  TYR619  PRO620  LYS621  CYS622 
 ASP623  PHE694  ASN695  SER759  ASP760  ASP761  ALA762  ILE779  LEU786  VAL792 
 PHE793  MET794  SER795  GLU796  ALA797  LYS798  CYS799  TRP800  GLU811  SER814 

> <Gold.Protein.RotatedAtoms>
  150.9152  133.6948  159.2844 H   0  0  0  0  0  0  0  0  0  0  0  0  # atno 6907 bound_to 6896
  151.4421  135.1020  159.9683 H   0  0  0  0  0  0  0  0  0  0  0  0  # atno 6908 bound_to 6896
  152.4951  133.8557  159.7280 H   0  0  0  0  0  0  0  0  0  0  0  0  # atno 6909 bound_to 6896
  144.7380  140.3352  143.6145 H   0  0  0  0  0  0  0  0  0  0  0  0  # atno 7974 bound_to 7965
  156.0031  140.1225  157.0528 H   0  0  0  0  0  0  0  0  0  0  0  0  # atno 8008 bound_to 7997
  154.4249  140.1103  156.5793 H   0  0  0  0  0  0  0  0  0  0  0  0  # atno 8009 bound_to 7997
  155.6185  140.3472  155.4646 H   0  0  0  0  0  0  0  0  0  0  0  0  # atno 8010 bound_to 7997
  139.6673  144.7127  151.1753 H   0  0  0  0  0  0  0  0  0  0  0  0  # atno 10167 bound_to 10162
  157.3053  130.7371  149.6692 H   0  0  0  0  0  0  0  0  0  0  0  0  # atno 10718 bound_to 10713
  153.4683  135.7016  153.6008 H   0  0  0  0  0  0  0  0  0  0  0  0  # atno 10763 bound_to 10752
  153.4273  135.3811  155.2149 H   0  0  0  0  0  0  0  0  0  0  0  0  # atno 10764 bound_to 10752
  154.8726  135.3942  154.4118 H   0  0  0  0  0  0  0  0  0  0  0  0  # atno 10765 bound_to 10752
  141.1173  133.8588  157.1405 H   0  0  0  0  0  0  0  0  0  0  0  0  # atno 11005 bound_to 11000
  145.7431  139.1770  143.2364 LP  0  0  0  0  0  0  0  0  0  0  0  0  # atno 17320 bound_to 7965
  146.1119  140.7418  142.9499 LP  0  0  0  0  0  0  0  0  0  0  0  0  # atno 17321 bound_to 7965
  140.7604  143.5900  150.8806 LP  0  0  0  0  0  0  0  0  0  0  0  0  # atno 17342 bound_to 10162
  139.9562  143.6215  152.3015 LP  0  0  0  0  0  0  0  0  0  0  0  0  # atno 17343 bound_to 10162
  155.9674  130.4267  150.4713 LP  0  0  0  0  0  0  0  0  0  0  0  0  # atno 17370 bound_to 10713
  157.2701  131.0585  151.2265 LP  0  0  0  0  0  0  0  0  0  0  0  0  # atno 17371 bound_to 10713
  140.0105  134.9990  157.0385 LP  0  0  0  0  0  0  0  0  0  0  0  0  # atno 17394 bound_to 11000
  140.4608  134.1486  155.7191 LP  0  0  0  0  0  0  0  0  0  0  0  0  # atno 17395 bound_to 11000

$$$$
