AV-unprocessed.smi:1929|AV-procd|sdf|7804|dock4
  -GOLD-   22720 9543D 1   1.00000     0.00000
 Structure written by MMmdl.
 44 45  0  0  0  0  0  0  0  0  3 V2000
  141.6482  138.5274  154.3215 C   0  0  0  0  0  0  0  0  0  0  0  0
  142.4637  139.7223  154.4794 N   0  0  0  0  0  0  0  0  0  0  0  0
  142.8729  140.2038  155.6613 C   0  0  0  0  0  0  0  0  0  0  0  0
  142.6024  139.6701  156.7377 O   0  0  0  0  0  0  0  0  0  0  0  0
  143.7320  141.4716  155.6176 C   0  0  0  0  0  0  0  0  0  0  0  0
  145.0061  141.2830  154.8771 N   0  3  2  0  0  0  0  0  0  0  0  0
  145.9871  140.4406  155.6121 C   0  0  0  0  0  0  0  0  0  0  0  0
  147.2283  140.1551  154.7493 C   0  0  0  0  0  0  0  0  0  0  0  0
  147.8955  141.4523  154.2493 C   0  0  2  0  0  0  0  0  0  0  0  0
  148.5545  142.1840  155.3315 N   0  0  0  0  0  0  0  0  0  0  0  0
  149.5031  141.6855  156.1384 C   0  0  0  0  0  0  0  0  0  0  0  0
  149.9061  140.5250  156.0713 O   0  0  0  0  0  0  0  0  0  0  0  0
  149.9264  142.6073  157.0210 N   0  0  0  0  0  0  0  0  0  0  0  0
  150.9245  142.4861  158.0271 C   0  0  0  0  0  0  0  0  0  0  0  0
  151.3478  141.1822  158.3692 C   0  0  0  0  0  0  0  0  0  0  0  0
  152.3238  141.0068  159.3713 C   0  0  0  0  0  0  0  0  0  0  0  0
  152.8406  142.0828  160.0021 N   0  3  0  0  0  0  0  0  0  0  0  0
  152.4593  143.3468  159.7197 C   0  0  0  0  0  0  0  0  0  0  0  0
  151.4866  143.5846  158.7272 C   0  0  0  0  0  0  0  0  0  0  0  0
  146.8458  142.3409  153.5594 C   0  0  0  0  0  0  0  0  0  0  0  0
  145.6069  142.5708  154.4451 C   0  0  0  0  0  0  0  0  0  0  0  0
  141.4290  138.3634  153.2665 H   0  0  0  0  0  0  0  0  0  0  0  0
  140.7016  138.6287  154.8542 H   0  0  0  0  0  0  0  0  0  0  0  0
  142.1698  137.6484  154.7025 H   0  0  0  0  0  0  0  0  0  0  0  0
  142.7322  140.2110  153.6373 H   0  0  0  0  0  0  0  0  0  0  0  0
  143.1306  142.2367  155.1250 H   0  0  0  0  0  0  0  0  0  0  0  0
  143.9355  141.8343  156.6267 H   0  0  0  0  0  0  0  0  0  0  0  0
  146.2770  140.9401  156.5379 H   0  0  0  0  0  0  0  0  0  0  0  0
  145.5295  139.4933  155.8989 H   0  0  0  0  0  0  0  0  0  0  0  0
  147.9389  139.5437  155.3066 H   0  0  0  0  0  0  0  0  0  0  0  0
  146.9294  139.5549  153.8887 H   0  0  0  0  0  0  0  0  0  0  0  0
  148.6562  141.1938  153.5102 H   0  0  0  0  0  0  0  0  0  0  0  0
  148.2852  143.1489  155.4577 H   0  0  0  0  0  0  0  0  0  0  0  0
  149.4448  143.4940  156.9978 H   0  0  0  0  0  0  0  0  0  0  0  0
  150.9337  140.3196  157.8671 H   0  0  0  0  0  0  0  0  0  0  0  0
  152.7023  140.0452  159.6858 H   0  0  0  0  0  0  0  0  0  0  0  0
  152.9360  144.1259  160.2966 H   0  0  0  0  0  0  0  0  0  0  0  0
  151.1857  144.6027  158.5351 H   0  0  0  0  0  0  0  0  0  0  0  0
  147.2869  143.2969  153.2745 H   0  0  0  0  0  0  0  0  0  0  0  0
  146.5323  141.8645  152.6293 H   0  0  0  0  0  0  0  0  0  0  0  0
  144.8719  143.1488  153.8837 H   0  0  0  0  0  0  0  0  0  0  0  0
  145.8700  143.1633  155.3229 H   0  0  0  0  0  0  0  0  0  0  0  0
  144.7654  140.7843  154.0317 H   0  0  0  0  0  0  0  0  0  0  0  0
  153.5450  141.9346  160.7254 H   0  0  0  0  0  0  0  0  0  0  0  0
  1  2  1  0  0  0  0
  1 22  1  0  0  0  0
  1 23  1  0  0  0  0
  1 24  1  0  0  0  0
  2  3  1  0  0  0  0
  2 25  1  0  0  0  0
  3  4  2  0  0  0  0
  3  5  1  0  0  0  0
  5  6  1  0  0  0  0
  5 26  1  0  0  0  0
  5 27  1  0  0  0  0
  6 21  1  0  0  0  0
  6  7  1  0  0  0  0
  6 43  1  0  0  0  0
  7  8  1  0  0  0  0
  7 28  1  0  0  0  0
  7 29  1  0  0  0  0
  8  9  1  0  0  0  0
  8 30  1  0  0  0  0
  8 31  1  0  0  0  0
  9 10  1  0  0  0  0
  9 20  1  0  0  0  0
  9 32  1  0  0  0  0
 10 11  1  0  0  0  0
 10 33  1  0  0  0  0
 11 12  2  0  0  0  0
 11 13  1  0  0  0  0
 13 14  1  0  0  0  0
 13 34  1  0  0  0  0
 14 19  1  0  0  0  0
 14 15  2  0  0  0  0
 15 16  1  0  0  0  0
 15 35  1  0  0  0  0
 16 17  2  0  0  0  0
 16 36  1  0  0  0  0
 17 18  1  0  0  0  0
 17 44  1  0  0  0  0
 18 19  2  0  0  0  0
 18 37  1  0  0  0  0
 19 38  1  0  0  0  0
 20 21  1  0  0  0  0
 20 39  1  0  0  0  0
 20 40  1  0  0  0  0
 21 41  1  0  0  0  0
 21 42  1  0  0  0  0
M  CHG  1   6   1
M  CHG  1  17   1
M  END
> <s_m_source_file>
AV-unprocessed.smi

> <i_m_source_file_index>
1929

> <i_lp_mmshare_version>
43012

> <i_f3d_flags>
0

> <s_epik_input>
W0NIM11bTkhdQyg9TylbQ0gyXU4xW0NIMl1bQ0gyXVtDSF0oW0NIMl1bQ0gyXTEpW05IXUMoPU8pW05IXWMyW2NIXVtjSF1uW2NIXVtjSF0y

> <s_epik_cmdline>
J2VwaWtfcHl0aG9uJywgJy1waCcsICc3LjAnLCAnLXRuJywgJzgnLCAnLW1hJywgJzIwMCcsICctbWV0YWxfYmluZGluZycsICctaW1hZScsICc8aW5maWxlLm1hZT4nLCAnLW9tYWUnLCAnPG91dGZpbGUubWFlPic=

> <r_epik_Ionization_Penalty>
1.97435

> <r_epik_Ionization_Penalty_Charging>
1.97431

> <r_epik_Ionization_Penalty_Neutral>
3.89585e-05

> <r_epik_State_Penalty>
2.00691

> <r_epik_Charging_Adjusted_Penalty>
3.98122

> <i_epik_Tot_Q>
2

> <i_epik_Tot_abs_Q>
2

> <r_epik_Metal_State_Penalty>
2.11022

> <b_epik_Metal_Only>
0

> <s_lp_Force_Field>
OPLS_2005

> <r_lp_Energy>
26.8992

> <b_lp_Chiralities_Consistent>
1

> <s_lp_Variant>
AV-unprocessed.smi:1929-6

> <Gold.Version>
5.8.1

> <Gold.Id.Protein>
6NUR|6NUR_protein|mol2

> <Gold.PLP.Fitness>
47.1637

> <Gold.PLP.PLP>
-32.6632

> <Gold.PLP.part.hbond>
-4.0000

> <Gold.PLP.part.metal>
0.0000

> <Gold.PLP.part.buried>
-6.4864

> <Gold.PLP.part.nonpolar>
-23.2001

> <Gold.PLP.part.repulsive>
0.3581

> <Gold.PLP.ligand.clash>
0.0000

> <Gold.PLP.ligand.torsion>
0.1772

> <Gold.PLP.Chemscore.Hbond>
4.9425

> <Gold.PLP.Chemscore.CHOScore>
0.0000

> <Gold.PLP.Chemscore.Metal>
0.0000

> <Gold.Chemscore.Hbonds>
donor molecule, donor type, donor heavy atom, donor atom, acceptor molecule, acceptor atom, score
      L1  H     2    25       P1 10175  0.80
      L1  H     6    43       P1 10175  2.00
      L1  H    10    33       P1  8028  0.90
      L1  H    13    34       P1  8028  0.75

> <Gold.PLP.Chemscore.Internal.Correction>
0.0274

> <Gold.Rescore>
     Score         DG    S(hbond)    S(metal)    S(lipo)     H(rot)  DE(clash)    DE(int)     intcor
     19.61     -23.42       3.85        0.00      80.79       1.71       1.31       2.50       ----

> <Gold.Chemscore.Fitness>
19.6114

> <Gold.Chemscore.DG>
-23.4218

> <Gold.Chemscore.ZeroCoef>
-5.4800

> <Gold.Chemscore.Hbond>
3.8544

> <Gold.Chemscore.Metal>
0.0000

> <Gold.Chemscore.Lipo>
80.7855

> <Gold.Chemscore.Internal_Hbond>
0.0000

> <Gold.Chemscore.DEClash>
1.3108

> <Gold.Chemscore.DEInternal>
2.4996

> <Gold.Chemscore.Rot>
1.7124

> <Gold.Chemscore.Internal.Correction>
   9.000000E+99

> <Gold.Chemscore.Hbonds>
donor molecule, donor type, donor heavy atom, donor atom, acceptor molecule, acceptor atom, score
      L1  H     2    25       P1 10175  0.74
      L1  H     6    43       P1 10175  0.94
      L1  H    10    33       P1  8028  0.84
      L1  H    13    34       P1  8028  0.68

> <Gold.Chemscore.Hbond.Weighted>
-12.8737

> <Gold.Chemscore.Metal.Weighted>
-0.0000

> <Gold.Chemscore.Lipo.Weighted>
-9.4519

> <Gold.Chemscore.Internal_Hbond.Weighted>
0.0000

> <Gold.Chemscore.DEClash.Weighted>
1.3108

> <Gold.Chemscore.DEInternal.Weighted>
2.4996

> <Gold.Chemscore.Rot.Weighted>
4.3838

> <Gold.Chemscore.Internal.Correction.Weighted>
   9.000000E+99

> <Gold.Protein.RotatedTorsions>
[ 6907 6896 6895 6894 ] final   24.15 input  -60.11 | X-H torsion
[ 7974 7965 7964 7962 ] final    0.97 input  175.53 | X-H torsion
[ 8008 7997 7996 7995 ] final   44.76 input   59.86 | X-H torsion
[ 10167 10162 10161 10158 ] final  176.55 input  -65.29 | X-H torsion
[ 10718 10713 10712 10709 ] final   20.56 input   66.30 | X-H torsion
[ 10763 10752 10751 10750 ] final   85.46 input  -60.55 | X-H torsion
[ 11005 11000 10999 10996 ] final   -1.85 input  -57.11 | X-H torsion

> <Gold.Protein.ActiveResidues>
 VAL166  LYS551  ARG553  GLY616  TRP617  ASP618  TYR619  PRO620  LYS621  CYS622 
 ASP623  PHE694  ASN695  SER759  ASP760  ASP761  ALA762  ILE779  LEU786  VAL792 
 PHE793  MET794  SER795  GLU796  ALA797  LYS798  CYS799  TRP800  GLU811  SER814 

> <Gold.Protein.RotatedAtoms>
  151.9532  135.0159  160.0542 H   0  0  0  0  0  0  0  0  0  0  0  0  # atno 6907 bound_to 6896
  152.1934  133.4785  159.5028 H   0  0  0  0  0  0  0  0  0  0  0  0  # atno 6908 bound_to 6896
  150.6940  134.1600  159.4215 H   0  0  0  0  0  0  0  0  0  0  0  0  # atno 6909 bound_to 6896
  146.2438  140.1057  142.8346 H   0  0  0  0  0  0  0  0  0  0  0  0  # atno 7974 bound_to 7965
  155.3246  140.3399  155.4240 H   0  0  0  0  0  0  0  0  0  0  0  0  # atno 8008 bound_to 7997
  156.1892  140.1691  156.8163 H   0  0  0  0  0  0  0  0  0  0  0  0  # atno 8009 bound_to 7997
  154.5422  140.0722  156.8512 H   0  0  0  0  0  0  0  0  0  0  0  0  # atno 8010 bound_to 7997
  139.5218  144.2902  152.0470 H   0  0  0  0  0  0  0  0  0  0  0  0  # atno 10167 bound_to 10162
  157.1261  130.6571  149.5938 H   0  0  0  0  0  0  0  0  0  0  0  0  # atno 10718 bound_to 10713
  153.1477  135.4616  154.9591 H   0  0  0  0  0  0  0  0  0  0  0  0  # atno 10763 bound_to 10752
  154.7800  135.3185  154.8013 H   0  0  0  0  0  0  0  0  0  0  0  0  # atno 10764 bound_to 10752
  153.8524  135.6920  153.4845 H   0  0  0  0  0  0  0  0  0  0  0  0  # atno 10765 bound_to 10752
  140.6519  133.9397  155.8385 H   0  0  0  0  0  0  0  0  0  0  0  0  # atno 11005 bound_to 11000
  145.0530  140.9032  143.4984 LP  0  0  0  0  0  0  0  0  0  0  0  0  # atno 17320 bound_to 7965
  145.1158  139.2726  143.5614 LP  0  0  0  0  0  0  0  0  0  0  0  0  # atno 17321 bound_to 7965
  140.2354  144.4325  150.6282 LP  0  0  0  0  0  0  0  0  0  0  0  0  # atno 17342 bound_to 10162
  140.6327  143.2190  151.6461 LP  0  0  0  0  0  0  0  0  0  0  0  0  # atno 17343 bound_to 10162
  155.9818  130.4827  150.6846 LP  0  0  0  0  0  0  0  0  0  0  0  0  # atno 17370 bound_to 10713
  157.4433  131.0864  151.0921 LP  0  0  0  0  0  0  0  0  0  0  0  0  # atno 17371 bound_to 10713
  141.0530  134.0456  157.3758 LP  0  0  0  0  0  0  0  0  0  0  0  0  # atno 17394 bound_to 11000
  139.9043  135.0175  156.7414 LP  0  0  0  0  0  0  0  0  0  0  0  0  # atno 17395 bound_to 11000

$$$$
