AV-unprocessed.smi:2862|AV-procd|sdf|11010|dock4
  -GOLD-   2272015473D 1   1.00000     0.00000
 Structure written by MMmdl.
 52 54  0  0  0  0  0  0  0  0  1 V2000
  153.4708  142.3153  159.9364 C   0  0  0  0  0  0  0  0  0  0  0  0
  151.9760  142.3583  159.5828 C   0  0  2  0  0  0  0  0  0  0  0  0
  151.7991  142.2450  158.1411 N   0  0  0  0  0  0  0  0  0  0  0  0
  150.6382  142.3323  157.4689 C   0  0  0  0  0  0  0  0  0  0  0  0
  149.5500  142.4593  158.0283 O   0  0  0  0  0  0  0  0  0  0  0  0
  150.6923  142.2852  155.9303 C   0  0  0  0  0  0  0  0  0  0  0  0
  149.8354  141.2493  155.3218 N   0  0  0  0  0  0  0  0  0  0  0  0
  148.9023  141.6821  154.3580 C   0  0  0  0  0  0  0  0  0  0  0  0
  148.0292  140.8420  153.7815 C   0  0  0  0  0  0  0  0  0  0  0  0
  148.0510  139.4552  154.1769 C   0  0  0  0  0  0  0  0  0  0  0  0
  148.9309  139.0323  155.1123 C   0  0  0  0  0  0  0  0  0  0  0  0
  149.0159  137.6280  155.5271 C   0  0  0  0  0  0  0  0  0  0  0  0
  148.0523  137.0187  155.9951 O   0  0  0  0  0  0  0  0  0  0  0  0
  150.2404  137.0430  155.3845 N   0  0  0  0  0  0  0  0  0  0  0  0
  151.2876  137.5682  154.4907 C   0  0  0  0  0  0  0  0  0  0  0  0
  150.5766  135.7323  155.9834 C   0  0  1  0  0  0  0  0  0  0  0  0
  150.7465  135.8252  157.5132 C   0  0  0  0  0  0  0  0  0  0  0  0
  149.6336  134.5997  155.5993 C   0  0  0  0  0  0  0  0  0  0  0  0
  150.1286  133.1771  155.4963 C   0  0  0  0  0  0  0  0  0  0  0  0
  149.7246  133.9316  154.2490 C   0  0  0  0  0  0  0  0  0  0  0  0
  149.9262  139.9415  155.7217 C   0  0  0  0  0  0  0  0  0  0  0  0
  150.7630  139.5911  156.5586 O   0  0  0  0  0  0  0  0  0  0  0  0
  151.3244  143.6135  160.1313 C   0  0  0  0  0  0  0  0  0  0  0  0
  151.9373  144.9757  159.9151 C   0  0  0  0  0  0  0  0  0  0  0  0
  151.9290  144.3580  161.2967 C   0  0  0  0  0  0  0  0  0  0  0  0
  153.6190  142.3759  161.0149 H   0  0  0  0  0  0  0  0  0  0  0  0
  154.0104  143.1456  159.4799 H   0  0  0  0  0  0  0  0  0  0  0  0
  153.9338  141.3889  159.5946 H   0  0  0  0  0  0  0  0  0  0  0  0
  151.4889  141.5042  160.0572 H   0  0  0  0  0  0  0  0  0  0  0  0
  152.6420  142.1334  157.5967 H   0  0  0  0  0  0  0  0  0  0  0  0
  150.4218  143.2728  155.5543 H   0  0  0  0  0  0  0  0  0  0  0  0
  151.7298  142.1432  155.6222 H   0  0  0  0  0  0  0  0  0  0  0  0
  148.9368  142.7365  154.1249 H   0  0  0  0  0  0  0  0  0  0  0  0
  147.3205  141.1972  153.0479 H   0  0  0  0  0  0  0  0  0  0  0  0
  147.3597  138.7631  153.7174 H   0  0  0  0  0  0  0  0  0  0  0  0
  150.8801  138.1283  153.6478 H   0  0  0  0  0  0  0  0  0  0  0  0
  151.8829  136.7703  154.0454 H   0  0  0  0  0  0  0  0  0  0  0  0
  151.9668  138.2185  155.0424 H   0  0  0  0  0  0  0  0  0  0  0  0
  151.5645  135.4424  155.6216 H   0  0  0  0  0  0  0  0  0  0  0  0
  151.1604  134.8984  157.9113 H   0  0  0  0  0  0  0  0  0  0  0  0
  149.8021  136.0003  158.0280 H   0  0  0  0  0  0  0  0  0  0  0  0
  151.4305  136.6299  157.7843 H   0  0  0  0  0  0  0  0  0  0  0  0
  148.6292  134.7047  156.0041 H   0  0  0  0  0  0  0  0  0  0  0  0
  151.1903  132.9952  155.6508 H   0  0  0  0  0  0  0  0  0  0  0  0
  149.4646  132.3889  155.8453 H   0  0  0  0  0  0  0  0  0  0  0  0
  148.7908  133.6489  153.7675 H   0  0  0  0  0  0  0  0  0  0  0  0
  150.5182  134.2498  153.5762 H   0  0  0  0  0  0  0  0  0  0  0  0
  150.2363  143.5798  160.1122 H   0  0  0  0  0  0  0  0  0  0  0  0
  152.8920  145.0276  159.3951 H   0  0  0  0  0  0  0  0  0  0  0  0
  151.2599  145.8071  159.7309 H   0  0  0  0  0  0  0  0  0  0  0  0
  151.2443  144.7738  162.0332 H   0  0  0  0  0  0  0  0  0  0  0  0
  152.8765  143.9969  161.6920 H   0  0  0  0  0  0  0  0  0  0  0  0
  1  2  1  0  0  0  0
  1 26  1  0  0  0  0
  1 27  1  0  0  0  0
  1 28  1  0  0  0  0
  2  3  1  0  0  0  0
  2 23  1  0  0  0  0
  2 29  1  0  0  0  0
  3  4  1  0  0  0  0
  3 30  1  0  0  0  0
  4  5  2  0  0  0  0
  4  6  1  0  0  0  0
  6  7  1  0  0  0  0
  6 31  1  0  0  0  0
  6 32  1  0  0  0  0
  7 21  1  0  0  0  0
  7  8  1  0  0  0  0
  8  9  2  0  0  0  0
  8 33  1  0  0  0  0
  9 10  1  0  0  0  0
  9 34  1  0  0  0  0
 10 11  2  0  0  0  0
 10 35  1  0  0  0  0
 11 12  1  0  0  0  0
 11 21  1  0  0  0  0
 12 13  2  0  0  0  0
 12 14  1  0  0  0  0
 14 15  1  0  0  0  0
 14 16  1  0  0  0  0
 15 36  1  0  0  0  0
 15 37  1  0  0  0  0
 15 38  1  0  0  0  0
 16 17  1  0  0  0  0
 16 18  1  0  0  0  0
 16 39  1  0  0  0  0
 17 40  1  0  0  0  0
 17 41  1  0  0  0  0
 17 42  1  0  0  0  0
 18 20  1  0  0  0  0
 18 19  1  0  0  0  0
 18 43  1  0  0  0  0
 19 20  1  0  0  0  0
 19 44  1  0  0  0  0
 19 45  1  0  0  0  0
 20 46  1  0  0  0  0
 20 47  1  0  0  0  0
 21 22  2  0  0  0  0
 23 25  1  0  0  0  0
 23 24  1  0  0  0  0
 23 48  1  0  0  0  0
 24 25  1  0  0  0  0
 24 49  1  0  0  0  0
 24 50  1  0  0  0  0
 25 51  1  0  0  0  0
 25 52  1  0  0  0  0
M  END
> <s_m_source_file>
AV-unprocessed.smi

> <i_m_source_file_index>
2862

> <i_lp_mmshare_version>
43012

> <i_f3d_flags>
0

> <s_epik_input>
W0NIMl0xW0NIMl1bQ0hdMVtDQEhdKFtDSDNdKVtOSF1DKD1PKVtDSDJdbjJbY0hdW2NIXVtjSF1jKGMyPU8pQyg9TylOKFtDSDNdKVtDQEhdKFtDSDNdKVtDSF0zW0NIMl1bQ0gyXTM=

> <s_epik_cmdline>
J2VwaWtfcHl0aG9uJywgJy1waCcsICc3LjAnLCAnLXRuJywgJzgnLCAnLW1hJywgJzIwMCcsICctbWV0YWxfYmluZGluZycsICctaW1hZScsICc8aW5maWxlLm1hZT4nLCAnLW9tYWUnLCAnPG91dGZpbGUubWFlPic=

> <r_lp_tautomer_probability>
1

> <r_epik_Ionization_Penalty>
4.00841e-08

> <r_epik_Ionization_Penalty_Charging>
2.07773e-08

> <r_epik_Ionization_Penalty_Neutral>
1.93069e-08

> <r_epik_State_Penalty>
-0

> <r_epik_Charging_Adjusted_Penalty>
2.07773e-08

> <i_epik_Tot_Q>
0

> <i_epik_Tot_abs_Q>
0

> <r_epik_Metal_State_Penalty>
-0

> <b_epik_Metal_Only>
0

> <s_lp_Force_Field>
OPLS_2005

> <r_lp_Energy>
59.7867

> <b_lp_Chiralities_Consistent>
1

> <s_lp_Variant>
AV-unprocessed.smi:2862-3

> <Gold.Version>
5.8.1

> <Gold.Id.Protein>
6NUR|6NUR_protein|mol2

> <Gold.PLP.Fitness>
45.1117

> <Gold.PLP.PLP>
-42.6477

> <Gold.PLP.part.hbond>
0.0000

> <Gold.PLP.part.metal>
0.0000

> <Gold.PLP.part.buried>
-1.0296

> <Gold.PLP.part.nonpolar>
-41.3218

> <Gold.PLP.part.repulsive>
0.2348

> <Gold.PLP.ligand.clash>
0.0000

> <Gold.PLP.ligand.torsion>
2.4446

> <Gold.PLP.Chemscore.Hbond>
0.0000

> <Gold.PLP.Chemscore.CHOScore>
1.0000

> <Gold.PLP.Chemscore.Metal>
0.0000

> <Gold.Chemscore.Hbonds>
donor molecule, donor type, donor heavy atom, donor atom, acceptor molecule, acceptor atom, score
      L1  C     8    33       P1  8028  1.00

> <Gold.PLP.Chemscore.Internal.Correction>
4.3533

> <Gold.Rescore>
     Score         DG    S(hbond)    S(metal)    S(lipo)     H(rot)  DE(clash)    DE(int)     intcor
      7.43     -14.90       0.00        0.00     118.44       1.73       0.07       7.40       ----

> <Gold.Chemscore.Fitness>
7.4346

> <Gold.Chemscore.DG>
-14.8964

> <Gold.Chemscore.ZeroCoef>
-5.4800

> <Gold.Chemscore.Hbond>
0.0000

> <Gold.Chemscore.Metal>
0.0000

> <Gold.Chemscore.Lipo>
118.4406

> <Gold.Chemscore.Internal_Hbond>
0.0000

> <Gold.Chemscore.DEClash>
0.0666

> <Gold.Chemscore.DEInternal>
7.3952

> <Gold.Chemscore.Rot>
1.7348

> <Gold.Chemscore.Internal.Correction>
   9.000000E+99

> <Gold.Chemscore.Hbond.Weighted>
-0.0000

> <Gold.Chemscore.Metal.Weighted>
-0.0000

> <Gold.Chemscore.Lipo.Weighted>
-13.8576

> <Gold.Chemscore.Internal_Hbond.Weighted>
0.0000

> <Gold.Chemscore.DEClash.Weighted>
0.0666

> <Gold.Chemscore.DEInternal.Weighted>
7.3952

> <Gold.Chemscore.Rot.Weighted>
4.4412

> <Gold.Chemscore.Internal.Correction.Weighted>
   9.000000E+99

> <Gold.Protein.RotatedTorsions>
[ 6907 6896 6895 6894 ] final  127.38 input  -60.11 | X-H torsion
[ 7974 7965 7964 7962 ] final -162.31 input  175.53 | X-H torsion
[ 8008 7997 7996 7995 ] final   75.08 input   59.86 | X-H torsion
[ 10167 10162 10161 10158 ] final  -49.23 input  -65.29 | X-H torsion
[ 10718 10713 10712 10709 ] final  -71.22 input   66.30 | X-H torsion
[ 10763 10752 10751 10750 ] final  138.40 input  -60.55 | X-H torsion
[ 11005 11000 10999 10996 ] final  -47.21 input  -57.11 | X-H torsion

> <Gold.Protein.ActiveResidues>
 VAL166  LYS551  ARG553  GLY616  TRP617  ASP618  TYR619  PRO620  LYS621  CYS622 
 ASP623  PHE694  ASN695  SER759  ASP760  ASP761  ALA762  ILE779  LEU786  VAL792 
 PHE793  MET794  SER795  GLU796  ALA797  LYS798  CYS799  TRP800  GLU811  SER814 

> <Gold.Protein.RotatedAtoms>
  152.3818  133.6556  159.6166 H   0  0  0  0  0  0  0  0  0  0  0  0  # atno 6907 bound_to 6896
  150.7747  133.9101  159.3376 H   0  0  0  0  0  0  0  0  0  0  0  0  # atno 6908 bound_to 6896
  151.6905  135.0948  160.0284 H   0  0  0  0  0  0  0  0  0  0  0  0  # atno 6909 bound_to 6896
  144.7362  140.3271  143.6160 H   0  0  0  0  0  0  0  0  0  0  0  0  # atno 7974 bound_to 7965
  155.8078  140.3474  155.5440 H   0  0  0  0  0  0  0  0  0  0  0  0  # atno 8008 bound_to 7997
  155.8472  140.0950  157.1718 H   0  0  0  0  0  0  0  0  0  0  0  0  # atno 8009 bound_to 7997
  154.4006  140.1383  156.3788 H   0  0  0  0  0  0  0  0  0  0  0  0  # atno 8010 bound_to 7997
  140.6695  143.2706  151.4185 H   0  0  0  0  0  0  0  0  0  0  0  0  # atno 10167 bound_to 10162
  156.0373  130.4347  150.2411 H   0  0  0  0  0  0  0  0  0  0  0  0  # atno 10718 bound_to 10713
  153.8890  135.3035  155.3447 H   0  0  0  0  0  0  0  0  0  0  0  0  # atno 10763 bound_to 10752
  154.7725  135.4878  153.9681 H   0  0  0  0  0  0  0  0  0  0  0  0  # atno 10764 bound_to 10752
  153.1308  135.6803  153.9279 H   0  0  0  0  0  0  0  0  0  0  0  0  # atno 10765 bound_to 10752
  141.0626  133.6704  156.3265 H   0  0  0  0  0  0  0  0  0  0  0  0  # atno 11005 bound_to 11000
  145.7509  139.1793  143.2322 LP  0  0  0  0  0  0  0  0  0  0  0  0  # atno 17320 bound_to 7965
  146.1061  140.7485  142.9525 LP  0  0  0  0  0  0  0  0  0  0  0  0  # atno 17321 bound_to 7965
  139.5957  144.1403  152.2141 LP  0  0  0  0  0  0  0  0  0  0  0  0  # atno 17342 bound_to 10162
  140.0771  144.5731  150.7149 LP  0  0  0  0  0  0  0  0  0  0  0  0  # atno 17343 bound_to 10162
  157.0509  131.0062  151.3254 LP  0  0  0  0  0  0  0  0  0  0  0  0  # atno 17370 bound_to 10713
  157.5141  130.7957  149.7737 LP  0  0  0  0  0  0  0  0  0  0  0  0  # atno 17371 bound_to 10713
  140.5837  134.5720  157.5485 LP  0  0  0  0  0  0  0  0  0  0  0  0  # atno 17394 bound_to 11000
  139.9447  134.7724  156.0591 LP  0  0  0  0  0  0  0  0  0  0  0  0  # atno 17395 bound_to 11000

$$$$
