AV-unprocessed.smi:104|AV-procd|sdf|1001|dock3
  -GOLD-   2262017593D 1   1.00000     0.00000
 Structure written by MMmdl.
 47 49  0  0  0  0  0  0  0  0  1 V2000
  147.6748  135.8372  162.5918 C   0  0  0  0  0  0  0  0  0  0  0  0
  147.8582  136.6042  161.2891 C   0  0  0  0  0  0  0  0  0  0  0  0
  146.9057  137.1323  160.7154 O   0  0  0  0  0  0  0  0  0  0  0  0
  149.1382  136.6141  160.8776 O   0  0  0  0  0  0  0  0  0  0  0  0
  149.4849  137.0896  159.5813 C   0  0  0  0  0  0  0  0  0  0  0  0
  148.8833  136.2388  158.4418 C   0  0  2  0  0  0  0  0  0  0  0  0
  148.9716  134.8510  158.7304 O   0  0  0  0  0  0  0  0  0  0  0  0
  148.9751  134.1209  157.5475 C   0  0  1  0  0  0  0  0  0  0  0  0
  147.5649  133.6509  157.2647 N   0  0  0  0  0  0  0  0  0  0  0  0
  147.1736  132.3861  156.8772 C   0  0  0  0  0  0  0  0  0  0  0  0
  148.4120  130.9657  156.5952 Br  0  0  0  0  0  0  0  0  0  0  0  0
  145.9009  132.1739  156.7023 N   0  0  0  0  0  0  0  0  0  0  0  0
  145.3413  133.4022  157.0170 C   0  0  0  0  0  0  0  0  0  0  0  0
  144.0103  133.8897  157.0482 C   0  0  0  0  0  0  0  0  0  0  0  0
  142.9479  133.1356  156.7334 N   0  0  0  0  0  0  0  0  0  0  0  0
  143.7991  135.1747  157.4132 N   0  0  0  0  0  0  0  0  0  0  0  0
  144.8414  135.9453  157.7342 C   0  0  0  0  0  0  0  0  0  0  0  0
  146.1381  135.6286  157.7519 N   0  0  0  0  0  0  0  0  0  0  0  0
  146.3605  134.3326  157.3814 C   0  0  0  0  0  0  0  0  0  0  0  0
  149.6070  135.0178  156.4644 C   0  0  1  0  0  0  0  0  0  0  0  0
  149.0006  134.8818  155.1842 O   0  0  0  0  0  0  0  0  0  0  0  0
  149.2213  133.7841  154.4428 C   0  0  0  0  0  0  0  0  0  0  0  0
  148.5749  133.8760  153.0677 C   0  0  0  0  0  0  0  0  0  0  0  0
  149.8523  132.7872  154.7943 O   0  0  0  0  0  0  0  0  0  0  0  0
  149.4443  136.4358  157.0158 C   0  0  2  0  0  0  0  0  0  0  0  0
  150.6999  137.1064  156.9951 O   0  0  0  0  0  0  0  0  0  0  0  0
  151.3137  137.3733  155.8292 C   0  0  0  0  0  0  0  0  0  0  0  0
  152.1730  138.6285  155.9017 C   0  0  0  0  0  0  0  0  0  0  0  0
  151.2298  136.7096  154.7959 O   0  0  0  0  0  0  0  0  0  0  0  0
  148.5161  136.0131  163.2627 H   0  0  0  0  0  0  0  0  0  0  0  0
  147.6088  134.7678  162.3912 H   0  0  0  0  0  0  0  0  0  0  0  0
  146.7605  136.1522  163.0953 H   0  0  0  0  0  0  0  0  0  0  0  0
  149.1928  138.1345  159.4669 H   0  0  0  0  0  0  0  0  0  0  0  0
  150.5719  137.0703  159.5022 H   0  0  0  0  0  0  0  0  0  0  0  0
  147.8207  136.4743  158.4155 H   0  0  0  0  0  0  0  0  0  0  0  0
  149.5444  133.2029  157.6794 H   0  0  0  0  0  0  0  0  0  0  0  0
  143.0778  132.1725  156.4582 H   0  0  0  0  0  0  0  0  0  0  0  0
  142.0197  133.5314  156.7704 H   0  0  0  0  0  0  0  0  0  0  0  0
  144.6037  136.9602  158.0170 H   0  0  0  0  0  0  0  0  0  0  0  0
  150.6702  134.7752  156.4182 H   0  0  0  0  0  0  0  0  0  0  0  0
  148.8932  134.7862  152.5585 H   0  0  0  0  0  0  0  0  0  0  0  0
  147.4889  133.8937  153.1631 H   0  0  0  0  0  0  0  0  0  0  0  0
  148.8548  133.0196  152.4538 H   0  0  0  0  0  0  0  0  0  0  0  0
  148.7163  137.0039  156.4345 H   0  0  0  0  0  0  0  0  0  0  0  0
  151.6321  139.4326  156.4009 H   0  0  0  0  0  0  0  0  0  0  0  0
  152.4440  138.9648  154.9005 H   0  0  0  0  0  0  0  0  0  0  0  0
  153.0879  138.4275  156.4591 H   0  0  0  0  0  0  0  0  0  0  0  0
  1  2  1  0  0  0  0
  1 30  1  0  0  0  0
  1 31  1  0  0  0  0
  1 32  1  0  0  0  0
  2  3  2  0  0  0  0
  2  4  1  0  0  0  0
  4  5  1  0  0  0  0
  5  6  1  0  0  0  0
  5 33  1  0  0  0  0
  5 34  1  0  0  0  0
  6 25  1  0  0  0  0
  6  7  1  0  0  0  0
  6 35  1  0  0  0  0
  7  8  1  0  0  0  0
  8  9  1  0  0  0  0
  8 20  1  0  0  0  0
  8 36  1  0  0  0  0
  9 19  1  0  0  0  0
  9 10  1  0  0  0  0
 10 11  1  0  0  0  0
 10 12  2  0  0  0  0
 12 13  1  0  0  0  0
 13 19  2  0  0  0  0
 13 14  1  0  0  0  0
 14 15  1  0  0  0  0
 14 16  2  0  0  0  0
 15 37  1  0  0  0  0
 15 38  1  0  0  0  0
 16 17  1  0  0  0  0
 17 18  2  0  0  0  0
 17 39  1  0  0  0  0
 18 19  1  0  0  0  0
 20 21  1  0  0  0  0
 20 25  1  0  0  0  0
 20 40  1  0  0  0  0
 21 22  1  0  0  0  0
 22 23  1  0  0  0  0
 22 24  2  0  0  0  0
 23 41  1  0  0  0  0
 23 42  1  0  0  0  0
 23 43  1  0  0  0  0
 25 26  1  0  0  0  0
 25 44  1  0  0  0  0
 26 27  1  0  0  0  0
 27 28  1  0  0  0  0
 27 29  2  0  0  0  0
 28 45  1  0  0  0  0
 28 46  1  0  0  0  0
 28 47  1  0  0  0  0
M  END
> <s_m_source_file>
AV-unprocessed.smi

> <i_m_source_file_index>
104

> <i_lp_mmshare_version>
43012

> <i_f3d_flags>
0

> <s_epik_input>
W0NIM11DKD1PKU9bQ0gyXVtDQEBIXTFPW0NASF0oW0NAQEhdKE9DKD1PKVtDSDNdKVtDQEhdMU9DKD1PKVtDSDNdKW4oYyhCciluMiljKGMyMyluW2NIXW5jM1tOSDJd

> <s_epik_cmdline>
J2VwaWtfcHl0aG9uJywgJy1waCcsICc3LjAnLCAnLXRuJywgJzgnLCAnLW1hJywgJzIwMCcsICctbWV0YWxfYmluZGluZycsICctaW1hZScsICc8aW5maWxlLm1hZT4nLCAnLW9tYWUnLCAnPG91dGZpbGUubWFlPic=

> <r_lp_tautomer_probability>
1

> <r_epik_Ionization_Penalty>
7.36622e-05

> <r_epik_Ionization_Penalty_Charging>
0

> <r_epik_Ionization_Penalty_Neutral>
7.36622e-05

> <r_epik_State_Penalty>
-0

> <r_epik_Charging_Adjusted_Penalty>
0

> <i_epik_Tot_Q>
0

> <i_epik_Tot_abs_Q>
0

> <r_epik_Metal_State_Penalty>
-0

> <b_epik_Metal_Only>
0

> <s_epik_Chemistry_Notes>
This compound has an ester and may undergo hydrolysis at high or low pH. This compound contains an acetal/aminal-like group ( X-CH(R)-Y where X, Y are N, S, or O) that may be acid/base labile, releasing an aldehyde.

> <s_lp_Force_Field>
OPLS_2005

> <r_lp_Energy>
20.7491

> <b_lp_Chiralities_Consistent>
1

> <s_lp_Variant>
AV-unprocessed.smi:104-9

> <Gold.Version>
5.8.1

> <Gold.Id.Protein>
6NUR|6NUR_protein|mol2

> <Gold.PLP.Fitness>
36.9961

> <Gold.PLP.PLP>
-26.4274

> <Gold.PLP.part.hbond>
-5.6835

> <Gold.PLP.part.metal>
0.0000

> <Gold.PLP.part.buried>
-2.0917

> <Gold.PLP.part.nonpolar>
-19.7778

> <Gold.PLP.part.repulsive>
0.4073

> <Gold.PLP.ligand.clash>
0.0000

> <Gold.PLP.ligand.torsion>
1.1212

> <Gold.PLP.Chemscore.Hbond>
4.1920

> <Gold.PLP.Chemscore.CHOScore>
0.0000

> <Gold.PLP.Chemscore.Metal>
0.0000

> <Gold.Chemscore.Hbonds>
donor molecule, donor type, donor heavy atom, donor atom, acceptor molecule, acceptor atom, score
      L1  H    15    37       P1 10957  0.37
      L1  H    15    38       P1 11000  1.00
      P1  H  6896  6909       L1     7  1.00
      P1  H  6934  6947       L1     3  1.00
      P1  H 10752 10763       L1    29  0.91

> <Gold.PLP.Chemscore.Internal.Correction>
0.2351

> <Gold.Rescore>
     Score         DG    S(hbond)    S(metal)    S(lipo)     H(rot)  DE(clash)    DE(int)     intcor
      3.44      -9.26       3.11        0.00      37.66       4.31       1.13       4.69       ----

> <Gold.Chemscore.Fitness>
3.4365

> <Gold.Chemscore.DG>
-9.2579

> <Gold.Chemscore.ZeroCoef>
-5.4800

> <Gold.Chemscore.Hbond>
3.1130

> <Gold.Chemscore.Metal>
0.0000

> <Gold.Chemscore.Lipo>
37.6616

> <Gold.Chemscore.Internal_Hbond>
0.0000

> <Gold.Chemscore.DEClash>
1.1328

> <Gold.Chemscore.DEInternal>
4.6886

> <Gold.Chemscore.Rot>
4.3070

> <Gold.Chemscore.Internal.Correction>
   9.000000E+99

> <Gold.Chemscore.Hbonds>
donor molecule, donor type, donor heavy atom, donor atom, acceptor molecule, acceptor atom, score
      L1  H    15    37       P1 10957  0.36
      L1  H    15    38       P1 11000  0.87
      P1  H  6896  6909       L1     7  0.23
      P1  H  6934  6947       L1     3  0.50
      P1  H 10752 10763       L1    29  0.79

> <Gold.Chemscore.Hbond.Weighted>
-10.3974

> <Gold.Chemscore.Metal.Weighted>
-0.0000

> <Gold.Chemscore.Lipo.Weighted>
-4.4064

> <Gold.Chemscore.Internal_Hbond.Weighted>
0.0000

> <Gold.Chemscore.DEClash.Weighted>
1.1328

> <Gold.Chemscore.DEInternal.Weighted>
4.6886

> <Gold.Chemscore.Rot.Weighted>
11.0259

> <Gold.Chemscore.Internal.Correction.Weighted>
   9.000000E+99

> <Gold.Protein.RotatedTorsions>
[ 6907 6896 6895 6894 ] final   34.26 input  -60.11 | X-H torsion
[ 7974 7965 7964 7962 ] final   55.86 input  175.53 | X-H torsion
[ 8008 7997 7996 7995 ] final -147.04 input   59.86 | X-H torsion
[ 10167 10162 10161 10158 ] final  159.35 input  -65.29 | X-H torsion
[ 10718 10713 10712 10709 ] final -144.04 input   66.30 | X-H torsion
[ 10763 10752 10751 10750 ] final   41.24 input  -60.55 | X-H torsion
[ 11005 11000 10999 10996 ] final  150.11 input  -57.11 | X-H torsion

> <Gold.Protein.ActiveResidues>
 VAL166  LYS551  ARG553  GLY616  TRP617  ASP618  TYR619  PRO620  LYS621  CYS622 
 ASP623  PHE694  ASN695  SER759  ASP760  ASP761  ALA762  ILE779  LEU786  VAL792 
 PHE793  MET794  SER795  GLU796  ALA797  LYS798  CYS799  TRP800  GLU811  SER814 

> <Gold.Protein.RotatedAtoms>
  152.0999  134.9349  160.0569 H   0  0  0  0  0  0  0  0  0  0  0  0  # atno 6907 bound_to 6896
  152.0568  133.4039  159.4408 H   0  0  0  0  0  0  0  0  0  0  0  0  # atno 6908 bound_to 6896
  150.6839  134.3166  159.4812 H   0  0  0  0  0  0  0  0  0  0  0  0  # atno 6909 bound_to 6896
  145.9459  139.3929  143.0335 H   0  0  0  0  0  0  0  0  0  0  0  0  # atno 7974 bound_to 7965
  155.5690  140.0632  157.2811 H   0  0  0  0  0  0  0  0  0  0  0  0  # atno 8008 bound_to 7997
  154.4366  140.1872  156.0906 H   0  0  0  0  0  0  0  0  0  0  0  0  # atno 8009 bound_to 7997
  156.0390  140.3298  155.7226 H   0  0  0  0  0  0  0  0  0  0  0  0  # atno 8010 bound_to 7997
  139.4832  144.4738  151.8539 H   0  0  0  0  0  0  0  0  0  0  0  0  # atno 10167 bound_to 10162
  156.3653  130.7759  151.1933 H   0  0  0  0  0  0  0  0  0  0  0  0  # atno 10718 bound_to 10713
  152.9914  135.6168  154.2755 H   0  0  0  0  0  0  0  0  0  0  0  0  # atno 10763 bound_to 10752
  154.2486  135.2786  155.2827 H   0  0  0  0  0  0  0  0  0  0  0  0  # atno 10764 bound_to 10752
  154.5307  135.5789  153.6814 H   0  0  0  0  0  0  0  0  0  0  0  0  # atno 10765 bound_to 10752
  140.1102  134.8929  157.1925 H   0  0  0  0  0  0  0  0  0  0  0  0  # atno 11005 bound_to 11000
  145.8236  140.9666  143.0885 LP  0  0  0  0  0  0  0  0  0  0  0  0  # atno 17320 bound_to 7965
  144.6787  140.0073  143.7484 LP  0  0  0  0  0  0  0  0  0  0  0  0  # atno 17321 bound_to 7965
  140.4209  144.2244  150.5887 LP  0  0  0  0  0  0  0  0  0  0  0  0  # atno 17342 bound_to 10162
  140.4874  143.2358  151.8867 LP  0  0  0  0  0  0  0  0  0  0  0  0  # atno 17343 bound_to 10162
  157.7478  131.0388  150.4521 LP  0  0  0  0  0  0  0  0  0  0  0  0  # atno 17370 bound_to 10713
  156.4738  130.4058  149.6502 LP  0  0  0  0  0  0  0  0  0  0  0  0  # atno 17371 bound_to 10713
  140.3101  134.3034  155.7269 LP  0  0  0  0  0  0  0  0  0  0  0  0  # atno 17394 bound_to 11000
  141.2128  133.7645  156.9764 LP  0  0  0  0  0  0  0  0  0  0  0  0  # atno 17395 bound_to 11000

$$$$
