AV-unprocessed.smi:3044|AV-procd|sdf|11608|dock8
  -GOLD-   2272016583D 1   1.00000     0.00000
 Structure written by MMmdl.
 41 42  0  0  0  0  0  0  0  0  1 V2000
  145.2143  137.9736  161.2634 C   0  0  0  0  0  0  0  0  0  0  0  0
  145.9985  136.7145  161.5901 C   0  0  0  0  0  0  0  0  0  0  0  0
  145.4761  135.9476  162.5731 N   0  0  0  0  0  0  0  0  0  0  0  0
  146.1265  134.8166  162.9154 C   0  0  0  0  0  0  0  0  0  0  0  0
  147.3240  134.4021  162.3042 C   0  0  0  0  0  0  0  0  0  0  0  0
  147.8671  135.2013  161.2808 C   0  0  0  0  0  0  0  0  0  0  0  0
  147.1893  136.3844  160.8961 C   0  0  0  0  0  0  0  0  0  0  0  0
  147.6678  137.2682  159.8872 N   0  0  0  0  0  0  0  0  0  0  0  0
  148.7748  137.1626  159.1288 C   0  0  0  0  0  0  0  0  0  0  0  0
  149.5652  136.2203  159.1656 O   0  0  0  0  0  0  0  0  0  0  0  0
  149.0161  138.2990  158.1382 C   0  0  0  0  0  0  0  0  0  0  0  0
  150.1357  139.0498  158.5842 O   0  0  0  0  0  0  0  0  0  0  0  0
  151.1250  139.2927  157.5901 C   0  0  1  0  0  0  0  0  0  0  0  0
  150.5830  140.1944  156.4607 C   0  0  0  0  0  0  0  0  0  0  0  0
  150.2473  141.6037  156.9729 C   0  0  0  0  0  0  0  0  0  0  0  0
  151.4643  142.2528  157.6496 C   0  0  0  0  0  0  0  0  0  0  0  0
  152.0114  141.3754  158.7916 C   0  0  2  0  0  0  0  0  0  0  0  0
  153.2351  142.0212  159.4570 C   0  0  0  0  0  0  0  0  0  0  0  0
  152.3323  139.9555  158.2795 C   0  0  0  0  0  0  0  0  0  0  0  0
  144.8695  137.9471  160.2296 H   0  0  0  0  0  0  0  0  0  0  0  0
  145.8386  138.8571  161.3978 H   0  0  0  0  0  0  0  0  0  0  0  0
  144.3400  138.0806  161.9070 H   0  0  0  0  0  0  0  0  0  0  0  0
  145.6834  134.2281  163.7051 H   0  0  0  0  0  0  0  0  0  0  0  0
  147.8182  133.4944  162.6173 H   0  0  0  0  0  0  0  0  0  0  0  0
  148.7970  134.8987  160.8257 H   0  0  0  0  0  0  0  0  0  0  0  0
  147.0641  138.0494  159.6757 H   0  0  0  0  0  0  0  0  0  0  0  0
  149.1980  137.9035  157.1373 H   0  0  0  0  0  0  0  0  0  0  0  0
  148.1179  138.9144  158.0929 H   0  0  0  0  0  0  0  0  0  0  0  0
  151.4552  138.3405  157.1716 H   0  0  0  0  0  0  0  0  0  0  0  0
  151.3367  140.2725  155.6762 H   0  0  0  0  0  0  0  0  0  0  0  0
  149.7083  139.7508  155.9872 H   0  0  0  0  0  0  0  0  0  0  0  0
  149.9068  142.2276  156.1460 H   0  0  0  0  0  0  0  0  0  0  0  0
  149.4185  141.5495  157.6800 H   0  0  0  0  0  0  0  0  0  0  0  0
  152.2452  142.4215  156.9068 H   0  0  0  0  0  0  0  0  0  0  0  0
  151.1870  143.2352  158.0333 H   0  0  0  0  0  0  0  0  0  0  0  0
  151.2333  141.2927  159.5519 H   0  0  0  0  0  0  0  0  0  0  0  0
  154.0578  142.1341  158.7500 H   0  0  0  0  0  0  0  0  0  0  0  0
  153.5934  141.4172  160.2911 H   0  0  0  0  0  0  0  0  0  0  0  0
  152.9933  143.0102  159.8471 H   0  0  0  0  0  0  0  0  0  0  0  0
  152.6719  139.3280  159.1046 H   0  0  0  0  0  0  0  0  0  0  0  0
  153.1624  140.0054  157.5736 H   0  0  0  0  0  0  0  0  0  0  0  0
  1  2  1  0  0  0  0
  1 20  1  0  0  0  0
  1 21  1  0  0  0  0
  1 22  1  0  0  0  0
  2  7  1  0  0  0  0
  2  3  2  0  0  0  0
  3  4  1  0  0  0  0
  4  5  2  0  0  0  0
  4 23  1  0  0  0  0
  5  6  1  0  0  0  0
  5 24  1  0  0  0  0
  6  7  2  0  0  0  0
  6 25  1  0  0  0  0
  7  8  1  0  0  0  0
  8  9  1  0  0  0  0
  8 26  1  0  0  0  0
  9 10  2  0  0  0  0
  9 11  1  0  0  0  0
 11 12  1  0  0  0  0
 11 27  1  0  0  0  0
 11 28  1  0  0  0  0
 12 13  1  0  0  0  0
 13 19  1  0  0  0  0
 13 14  1  0  0  0  0
 13 29  1  0  0  0  0
 14 15  1  0  0  0  0
 14 30  1  0  0  0  0
 14 31  1  0  0  0  0
 15 16  1  0  0  0  0
 15 32  1  0  0  0  0
 15 33  1  0  0  0  0
 16 17  1  0  0  0  0
 16 34  1  0  0  0  0
 16 35  1  0  0  0  0
 17 18  1  0  0  0  0
 17 19  1  0  0  0  0
 17 36  1  0  0  0  0
 18 37  1  0  0  0  0
 18 38  1  0  0  0  0
 18 39  1  0  0  0  0
 19 40  1  0  0  0  0
 19 41  1  0  0  0  0
M  END
> <s_m_source_file>
AV-unprocessed.smi

> <i_m_source_file_index>
3044

> <i_lp_mmshare_version>
43012

> <i_f3d_flags>
0

> <s_epik_input>
W0NIM11jMW5bY0hdW2NIXVtjSF1jMVtOSF1DKD1PKVtDSDJdT1tDQEBIXTJbQ0gyXVtDSDJdW0NIMl1bQ0BASF0oW0NIM10pW0NIMl0y

> <s_epik_cmdline>
J2VwaWtfcHl0aG9uJywgJy1waCcsICc3LjAnLCAnLXRuJywgJzgnLCAnLW1hJywgJzIwMCcsICctbWV0YWxfYmluZGluZycsICctaW1hZScsICc8aW5maWxlLm1hZT4nLCAnLW9tYWUnLCAnPG91dGZpbGUubWFlPic=

> <r_epik_Ionization_Penalty>
0.0077122

> <r_epik_Ionization_Penalty_Charging>
0

> <r_epik_Ionization_Penalty_Neutral>
0.0077122

> <r_epik_State_Penalty>
0.00577497

> <r_epik_Charging_Adjusted_Penalty>
0.00577497

> <i_epik_Tot_Q>
0

> <i_epik_Tot_abs_Q>
0

> <r_epik_Metal_State_Penalty>
-0

> <b_epik_Metal_Only>
0

> <s_lp_Force_Field>
OPLS_2005

> <r_lp_Energy>
18.191

> <b_lp_Chiralities_Consistent>
1

> <s_lp_Variant>
AV-unprocessed.smi:3044-4

> <Gold.Version>
5.8.1

> <Gold.Id.Protein>
6NUR|6NUR_protein|mol2

> <Gold.PLP.Fitness>
34.3760

> <Gold.PLP.PLP>
-32.3172

> <Gold.PLP.part.hbond>
-1.0000

> <Gold.PLP.part.metal>
0.0000

> <Gold.PLP.part.buried>
-5.5461

> <Gold.PLP.part.nonpolar>
-26.7446

> <Gold.PLP.part.repulsive>
0.6851

> <Gold.PLP.ligand.clash>
0.0000

> <Gold.PLP.ligand.torsion>
0.4721

> <Gold.PLP.Chemscore.Hbond>
1.0000

> <Gold.PLP.Chemscore.CHOScore>
0.0000

> <Gold.PLP.Chemscore.Metal>
0.0000

> <Gold.Chemscore.Hbonds>
donor molecule, donor type, donor heavy atom, donor atom, acceptor molecule, acceptor atom, score
      P1  H  6896  6908       L1    10  1.00

> <Gold.PLP.Chemscore.Internal.Correction>
0.0029

> <Gold.Rescore>
     Score         DG    S(hbond)    S(metal)    S(lipo)     H(rot)  DE(clash)    DE(int)     intcor
     14.25     -16.02       1.00        0.00      90.10       1.31       0.06       1.71       ----

> <Gold.Chemscore.Fitness>
14.2520

> <Gold.Chemscore.DG>
-16.0170

> <Gold.Chemscore.ZeroCoef>
-5.4800

> <Gold.Chemscore.Hbond>
1.0000

> <Gold.Chemscore.Metal>
0.0000

> <Gold.Chemscore.Lipo>
90.0968

> <Gold.Chemscore.Internal_Hbond>
0.0000

> <Gold.Chemscore.DEClash>
0.0580

> <Gold.Chemscore.DEInternal>
1.7070

> <Gold.Chemscore.Rot>
1.3064

> <Gold.Chemscore.Internal.Correction>
   9.000000E+99

> <Gold.Chemscore.Hbonds>
donor molecule, donor type, donor heavy atom, donor atom, acceptor molecule, acceptor atom, score
      P1  H  6896  6908       L1    10  0.99

> <Gold.Chemscore.Hbond.Weighted>
-3.3400

> <Gold.Chemscore.Metal.Weighted>
-0.0000

> <Gold.Chemscore.Lipo.Weighted>
-10.5413

> <Gold.Chemscore.Internal_Hbond.Weighted>
0.0000

> <Gold.Chemscore.DEClash.Weighted>
0.0580

> <Gold.Chemscore.DEInternal.Weighted>
1.7070

> <Gold.Chemscore.Rot.Weighted>
3.3443

> <Gold.Chemscore.Internal.Correction.Weighted>
   9.000000E+99

> <Gold.Protein.RotatedTorsions>
[ 6907 6896 6895 6894 ] final -162.21 input  -60.11 | X-H torsion
[ 7974 7965 7964 7962 ] final   80.86 input  175.53 | X-H torsion
[ 8008 7997 7996 7995 ] final  -42.21 input   59.86 | X-H torsion
[ 10167 10162 10161 10158 ] final   69.79 input  -65.29 | X-H torsion
[ 10718 10713 10712 10709 ] final  104.57 input   66.30 | X-H torsion
[ 10763 10752 10751 10750 ] final -164.33 input  -60.55 | X-H torsion
[ 11005 11000 10999 10996 ] final  121.40 input  -57.11 | X-H torsion

> <Gold.Protein.ActiveResidues>
 VAL166  LYS551  ARG553  GLY616  TRP617  ASP618  TYR619  PRO620  LYS621  CYS622 
 ASP623  PHE694  ASN695  SER759  ASP760  ASP761  ALA762  ILE779  LEU786  VAL792 
 PHE793  MET794  SER795  GLU796  ALA797  LYS798  CYS799  TRP800  GLU811  SER814 

> <Gold.Protein.RotatedAtoms>
  151.3767  133.3835  159.2705 H   0  0  0  0  0  0  0  0  0  0  0  0  # atno 6907 bound_to 6896
  150.9609  134.8998  159.7740 H   0  0  0  0  0  0  0  0  0  0  0  0  # atno 6908 bound_to 6896
  152.5149  134.3726  159.9375 H   0  0  0  0  0  0  0  0  0  0  0  0  # atno 6909 bound_to 6896
  145.6457  139.2435  143.2005 H   0  0  0  0  0  0  0  0  0  0  0  0  # atno 7974 bound_to 7965
  154.4000  140.1479  156.3317 H   0  0  0  0  0  0  0  0  0  0  0  0  # atno 8008 bound_to 7997
  155.8437  140.3461  155.5627 H   0  0  0  0  0  0  0  0  0  0  0  0  # atno 8009 bound_to 7997
  155.8059  140.0877  157.1921 H   0  0  0  0  0  0  0  0  0  0  0  0  # atno 8010 bound_to 7997
  140.0640  144.5209  150.7274 H   0  0  0  0  0  0  0  0  0  0  0  0  # atno 10167 bound_to 10162
  157.6736  131.0807  150.5726 H   0  0  0  0  0  0  0  0  0  0  0  0  # atno 10718 bound_to 10713
  154.7039  135.2993  154.9300 H   0  0  0  0  0  0  0  0  0  0  0  0  # atno 10763 bound_to 10752
  154.0223  135.6681  153.4777 H   0  0  0  0  0  0  0  0  0  0  0  0  # atno 10764 bound_to 10752
  153.0702  135.5065  154.8198 H   0  0  0  0  0  0  0  0  0  0  0  0  # atno 10765 bound_to 10752
  139.9224  134.9638  156.7952 H   0  0  0  0  0  0  0  0  0  0  0  0  # atno 11005 bound_to 11000
  146.1245  140.7266  142.9442 LP  0  0  0  0  0  0  0  0  0  0  0  0  # atno 17320 bound_to 7965
  144.7141  140.4146  143.7058 LP  0  0  0  0  0  0  0  0  0  0  0  0  # atno 17321 bound_to 7965
  140.7158  143.2543  151.4439 LP  0  0  0  0  0  0  0  0  0  0  0  0  # atno 17342 bound_to 10162
  139.5876  144.1570  152.2048 LP  0  0  0  0  0  0  0  0  0  0  0  0  # atno 17343 bound_to 10162
  156.6027  130.4359  149.5890 LP  0  0  0  0  0  0  0  0  0  0  0  0  # atno 17370 bound_to 10713
  156.2493  130.6898  151.1630 LP  0  0  0  0  0  0  0  0  0  0  0  0  # atno 17371 bound_to 10713
  140.6434  133.9797  155.7719 LP  0  0  0  0  0  0  0  0  0  0  0  0  # atno 17394 bound_to 11000
  141.0756  134.0140  157.3463 LP  0  0  0  0  0  0  0  0  0  0  0  0  # atno 17395 bound_to 11000

$$$$
