AV-unprocessed.smi:3240|AV-procd|sdf|12381|dock2
  -GOLD-   2272018243D 1   1.00000     0.00000
 Structure written by MMmdl.
 44 45  0  0  0  0  0  0  0  0  2 V2000
  143.8669  132.0982  148.8999 C   0  0  0  0  0  0  0  0  0  0  0  0
  144.7042  133.0175  149.7414 C   0  0  0  0  0  0  0  0  0  0  0  0
  146.0259  132.8018  150.2253 C   0  0  0  0  0  0  0  0  0  0  0  0
  146.4807  133.8147  150.9447 N   0  0  0  0  0  0  0  0  0  0  0  0
  145.4727  134.7126  150.9406 N   0  0  0  0  0  0  0  0  0  0  0  0
  145.6163  135.9677  151.6582 C   0  0  0  0  0  0  0  0  0  0  0  0
  145.6852  135.7813  153.1879 C   0  0  2  0  0  0  0  0  0  0  0  0
  144.2948  135.9641  153.8189 C   0  0  0  0  0  0  0  0  0  0  0  0
  146.6660  136.7255  153.7707 N   0  3  0  0  0  0  0  0  0  0  0  0
  146.2585  138.1481  153.7719 C   0  0  0  0  0  0  0  0  0  0  0  0
  147.4571  139.0993  153.5599 C   0  0  0  0  0  0  0  0  0  0  0  0
  147.8699  138.9580  152.2119 O   0  0  0  0  0  0  0  0  0  0  0  0
  147.0811  140.5775  153.8317 C   0  0  0  0  0  0  0  0  0  0  0  0
  148.2912  141.5270  153.7675 C   0  0  0  0  0  0  0  0  0  0  0  0
  149.4123  141.0703  154.7110 C   0  0  0  0  0  0  0  0  0  0  0  0
  149.8341  139.6278  154.4009 C   0  0  0  0  0  0  0  0  0  0  0  0
  148.6329  138.6679  154.4690 C   0  0  0  0  0  0  0  0  0  0  0  0
  144.3847  134.2527  150.2295 C   0  0  0  0  0  0  0  0  0  0  0  0
  144.3898  131.1696  148.6695 H   0  0  0  0  0  0  0  0  0  0  0  0
  143.5962  132.5585  147.9495 H   0  0  0  0  0  0  0  0  0  0  0  0
  142.9380  131.8273  149.4021 H   0  0  0  0  0  0  0  0  0  0  0  0
  146.6637  131.9427  150.0771 H   0  0  0  0  0  0  0  0  0  0  0  0
  146.5121  136.4746  151.2963 H   0  0  0  0  0  0  0  0  0  0  0  0
  144.7705  136.6033  151.3924 H   0  0  0  0  0  0  0  0  0  0  0  0
  146.0230  134.7644  153.3936 H   0  0  0  0  0  0  0  0  0  0  0  0
  143.5705  135.2863  153.3659 H   0  0  0  0  0  0  0  0  0  0  0  0
  143.9262  136.9812  153.6814 H   0  0  0  0  0  0  0  0  0  0  0  0
  144.3022  135.7528  154.8880 H   0  0  0  0  0  0  0  0  0  0  0  0
  146.8024  136.4628  154.7369 H   0  0  0  0  0  0  0  0  0  0  0  0
  145.5195  138.3122  152.9876 H   0  0  0  0  0  0  0  0  0  0  0  0
  145.7683  138.3754  154.7201 H   0  0  0  0  0  0  0  0  0  0  0  0
  148.1379  138.0619  152.0723 H   0  0  0  0  0  0  0  0  0  0  0  0
  146.3232  140.9179  153.1250 H   0  0  0  0  0  0  0  0  0  0  0  0
  146.6286  140.6564  154.8212 H   0  0  0  0  0  0  0  0  0  0  0  0
  148.6707  141.5757  152.7460 H   0  0  0  0  0  0  0  0  0  0  0  0
  147.9803  142.5395  154.0265 H   0  0  0  0  0  0  0  0  0  0  0  0
  150.2706  141.7368  154.6205 H   0  0  0  0  0  0  0  0  0  0  0  0
  149.0736  141.1403  155.7455 H   0  0  0  0  0  0  0  0  0  0  0  0
  150.2899  139.5832  153.4112 H   0  0  0  0  0  0  0  0  0  0  0  0
  150.6022  139.3079  155.1058 H   0  0  0  0  0  0  0  0  0  0  0  0
  148.2878  138.6213  155.5030 H   0  0  0  0  0  0  0  0  0  0  0  0
  148.9569  137.6575  154.2156 H   0  0  0  0  0  0  0  0  0  0  0  0
  143.4813  134.8364  150.1282 H   0  0  0  0  0  0  0  0  0  0  0  0
  147.5469  136.6308  153.2866 H   0  0  0  0  0  0  0  0  0  0  0  0
  1  2  1  0  0  0  0
  1 19  1  0  0  0  0
  1 20  1  0  0  0  0
  1 21  1  0  0  0  0
  2 18  2  0  0  0  0
  2  3  1  0  0  0  0
  3  4  2  0  0  0  0
  3 22  1  0  0  0  0
  4  5  1  0  0  0  0
  5  6  1  0  0  0  0
  5 18  1  0  0  0  0
  6  7  1  0  0  0  0
  6 23  1  0  0  0  0
  6 24  1  0  0  0  0
  7  8  1  0  0  0  0
  7  9  1  0  0  0  0
  7 25  1  0  0  0  0
  8 26  1  0  0  0  0
  8 27  1  0  0  0  0
  8 28  1  0  0  0  0
  9 10  1  0  0  0  0
  9 29  1  0  0  0  0
  9 44  1  0  0  0  0
 10 11  1  0  0  0  0
 10 30  1  0  0  0  0
 10 31  1  0  0  0  0
 11 17  1  0  0  0  0
 11 12  1  0  0  0  0
 11 13  1  0  0  0  0
 12 32  1  0  0  0  0
 13 14  1  0  0  0  0
 13 33  1  0  0  0  0
 13 34  1  0  0  0  0
 14 15  1  0  0  0  0
 14 35  1  0  0  0  0
 14 36  1  0  0  0  0
 15 16  1  0  0  0  0
 15 37  1  0  0  0  0
 15 38  1  0  0  0  0
 16 17  1  0  0  0  0
 16 39  1  0  0  0  0
 16 40  1  0  0  0  0
 17 41  1  0  0  0  0
 17 42  1  0  0  0  0
 18 43  1  0  0  0  0
M  CHG  1   9   1
M  END
> <s_m_source_file>
AV-unprocessed.smi

> <i_m_source_file_index>
3240

> <i_lp_mmshare_version>
43012

> <i_f3d_flags>
0

> <s_epik_input>
W0NIM11jMVtjSF1ubihbY0hdMSlbQ0gyXVtDQEhdKFtDSDNdKVtOSF1bQ0gyXUMyKFtPSF0pW0NIMl1bQ0gyXVtDSDJdW0NIMl1bQ0gyXTI=

> <s_epik_cmdline>
J2VwaWtfcHl0aG9uJywgJy1waCcsICc3LjAnLCAnLXRuJywgJzgnLCAnLW1hJywgJzIwMCcsICctbWV0YWxfYmluZGluZycsICctaW1hZScsICc8aW5maWxlLm1hZT4nLCAnLW9tYWUnLCAnPG91dGZpbGUubWFlPic=

> <r_lp_tautomer_probability>
1

> <r_epik_Ionization_Penalty>
0.0111573

> <r_epik_Ionization_Penalty_Charging>
0.0111472

> <r_epik_Ionization_Penalty_Neutral>
1.01652e-05

> <r_epik_State_Penalty>
0.00856328

> <r_epik_Charging_Adjusted_Penalty>
0.0197104

> <i_epik_Tot_Q>
1

> <i_epik_Tot_abs_Q>
1

> <r_epik_Metal_State_Penalty>
0.00856448

> <b_epik_Metal_Only>
0

> <s_lp_Force_Field>
OPLS_2005

> <r_lp_Energy>
16.744

> <b_lp_Chiralities_Consistent>
1

> <s_lp_Variant>
AV-unprocessed.smi:3240-1

> <Gold.Version>
5.8.1

> <Gold.Id.Protein>
6NUR|6NUR_protein|mol2

> <Gold.PLP.Fitness>
45.2724

> <Gold.PLP.PLP>
-32.4341

> <Gold.PLP.part.hbond>
-2.2592

> <Gold.PLP.part.metal>
0.0000

> <Gold.PLP.part.buried>
1.4029

> <Gold.PLP.part.nonpolar>
-29.7140

> <Gold.PLP.part.repulsive>
0.2176

> <Gold.PLP.ligand.clash>
0.0000

> <Gold.PLP.ligand.torsion>
0.9478

> <Gold.PLP.Chemscore.Hbond>
3.0000

> <Gold.PLP.Chemscore.CHOScore>
1.8895

> <Gold.PLP.Chemscore.Metal>
0.0000

> <Gold.Chemscore.Hbonds>
donor molecule, donor type, donor heavy atom, donor atom, acceptor molecule, acceptor atom, score
      L1  H     9    44       P1  7948  1.95
      L1  H    12    32       P1  7948  1.00
      L1  C     3    22       P1 10747  0.95
      L1  C    18    43       P1 10186  0.92

> <Gold.PLP.Chemscore.Internal.Correction>
0.0653

> <Gold.Rescore>
     Score         DG    S(hbond)    S(metal)    S(lipo)     H(rot)  DE(clash)    DE(int)     intcor
     16.47     -17.41       1.96        0.00      92.25       2.12       0.15       0.79       ----

> <Gold.Chemscore.Fitness>
16.4677

> <Gold.Chemscore.DG>
-17.4071

> <Gold.Chemscore.ZeroCoef>
-5.4800

> <Gold.Chemscore.Hbond>
1.9637

> <Gold.Chemscore.Metal>
0.0000

> <Gold.Chemscore.Lipo>
92.2549

> <Gold.Chemscore.Internal_Hbond>
0.0000

> <Gold.Chemscore.DEClash>
0.1504

> <Gold.Chemscore.DEInternal>
0.7891

> <Gold.Chemscore.Rot>
2.1193

> <Gold.Chemscore.Internal.Correction>
   9.000000E+99

> <Gold.Chemscore.Hbonds>
donor molecule, donor type, donor heavy atom, donor atom, acceptor molecule, acceptor atom, score
      L1  H     9    44       P1  7948  0.91
      L1  H    12    32       P1  7948  0.97

> <Gold.Chemscore.Hbond.Weighted>
-6.5587

> <Gold.Chemscore.Metal.Weighted>
-0.0000

> <Gold.Chemscore.Lipo.Weighted>
-10.7938

> <Gold.Chemscore.Internal_Hbond.Weighted>
0.0000

> <Gold.Chemscore.DEClash.Weighted>
0.1504

> <Gold.Chemscore.DEInternal.Weighted>
0.7891

> <Gold.Chemscore.Rot.Weighted>
5.4254

> <Gold.Chemscore.Internal.Correction.Weighted>
   9.000000E+99

> <Gold.Protein.RotatedTorsions>
[ 6907 6896 6895 6894 ] final -143.03 input  -60.11 | X-H torsion
[ 7974 7965 7964 7962 ] final -162.69 input  175.53 | X-H torsion
[ 8008 7997 7996 7995 ] final   87.51 input   59.86 | X-H torsion
[ 10167 10162 10161 10158 ] final  -25.82 input  -65.29 | X-H torsion
[ 10718 10713 10712 10709 ] final -104.14 input   66.30 | X-H torsion
[ 10763 10752 10751 10750 ] final  -95.26 input  -60.55 | X-H torsion
[ 11005 11000 10999 10996 ] final   -0.66 input  -57.11 | X-H torsion

> <Gold.Protein.ActiveResidues>
 VAL166  LYS551  ARG553  GLY616  TRP617  ASP618  TYR619  PRO620  LYS621  CYS622 
 ASP623  PHE694  ASN695  SER759  ASP760  ASP761  ALA762  ILE779  LEU786  VAL792 
 PHE793  MET794  SER795  GLU796  ALA797  LYS798  CYS799  TRP800  GLU811  SER814 

> <Gold.Protein.RotatedAtoms>
  151.0950  133.5286  159.2612 H   0  0  0  0  0  0  0  0  0  0  0  0  # atno 6907 bound_to 6896
  151.2139  135.0491  159.8932 H   0  0  0  0  0  0  0  0  0  0  0  0  # atno 6908 bound_to 6896
  152.5438  134.0762  159.8269 H   0  0  0  0  0  0  0  0  0  0  0  0  # atno 6909 bound_to 6896
  144.7349  140.3216  143.6170 H   0  0  0  0  0  0  0  0  0  0  0  0  # atno 7974 bound_to 7965
  155.9762  140.3381  155.6621 H   0  0  0  0  0  0  0  0  0  0  0  0  # atno 8008 bound_to 7997
  155.6609  140.0716  157.2572 H   0  0  0  0  0  0  0  0  0  0  0  0  # atno 8009 bound_to 7997
  154.4179  140.1709  156.1762 H   0  0  0  0  0  0  0  0  0  0  0  0  # atno 8010 bound_to 7997
  140.7285  143.4231  151.0919 H   0  0  0  0  0  0  0  0  0  0  0  0  # atno 10167 bound_to 10162
  156.0292  130.5501  150.7353 H   0  0  0  0  0  0  0  0  0  0  0  0  # atno 10718 bound_to 10713
  154.7131  135.5127  153.8697 H   0  0  0  0  0  0  0  0  0  0  0  0  # atno 10763 bound_to 10752
  153.0797  135.6627  154.0079 H   0  0  0  0  0  0  0  0  0  0  0  0  # atno 10764 bound_to 10752
  153.9917  135.3019  155.3391 H   0  0  0  0  0  0  0  0  0  0  0  0  # atno 10765 bound_to 10752
  140.6388  133.9508  155.8314 H   0  0  0  0  0  0  0  0  0  0  0  0  # atno 11005 bound_to 11000
  145.7563  139.1810  143.2293 LP  0  0  0  0  0  0  0  0  0  0  0  0  # atno 17320 bound_to 7965
  146.1021  140.7531  142.9544 LP  0  0  0  0  0  0  0  0  0  0  0  0  # atno 17321 bound_to 7965
  139.7879  143.8260  152.3147 LP  0  0  0  0  0  0  0  0  0  0  0  0  # atno 17342 bound_to 10162
  139.8234  144.7286  150.9543 LP  0  0  0  0  0  0  0  0  0  0  0  0  # atno 17343 bound_to 10162
  157.4935  131.0913  151.0398 LP  0  0  0  0  0  0  0  0  0  0  0  0  # atno 17370 bound_to 10713
  157.0799  130.5898  149.5418 LP  0  0  0  0  0  0  0  0  0  0  0  0  # atno 17371 bound_to 10713
  141.0622  134.0329  157.3643 LP  0  0  0  0  0  0  0  0  0  0  0  0  # atno 17394 bound_to 11000
  139.9088  135.0186  156.7603 LP  0  0  0  0  0  0  0  0  0  0  0  0  # atno 17395 bound_to 11000

$$$$
