AV-unprocessed.smi:1976|AV-procd|sdf|7987|dock10
  -GOLD-   2272010173D 1   1.00000     0.00000
 Structure written by MMmdl.
 45 47  0  0  0  0  0  0  0  0  2 V2000
  148.9584  140.4630  156.9668 O   0  0  0  0  0  0  0  0  0  0  0  0
  149.5366  141.1247  156.1038 C   0  0  0  0  0  0  0  0  0  0  0  0
  151.0682  141.2285  156.0803 C   0  0  0  0  0  0  0  0  0  0  0  0
  151.6509  141.5724  157.3882 N   0  0  0  0  0  0  0  0  0  0  0  0
  151.3081  142.8249  157.9346 C   0  0  0  0  0  0  0  0  0  0  0  0
  151.7830  143.2639  159.1158 C   0  0  0  0  0  0  0  0  0  0  0  0
  151.3548  144.5997  159.7031 C   0  0  0  0  0  0  0  0  0  0  0  0
  150.0263  144.7045  159.7400 F   0  0  0  0  0  0  0  0  0  0  0  0
  151.8153  144.7157  160.9478 F   0  0  0  0  0  0  0  0  0  0  0  0
  151.8352  145.6167  158.9866 F   0  0  0  0  0  0  0  0  0  0  0  0
  152.6557  142.3584  159.8369 C   0  0  0  0  0  0  0  0  0  0  0  0
  152.9902  141.1552  159.3308 C   0  0  0  0  0  0  0  0  0  0  0  0
  152.4866  140.7032  158.0318 C   0  0  0  0  0  0  0  0  0  0  0  0
  152.7950  139.6121  157.5519 O   0  0  0  0  0  0  0  0  0  0  0  0
  148.8904  141.7769  155.1265 N   0  0  0  0  0  0  0  0  0  0  0  0
  147.4401  141.8071  154.9573 C   0  0  2  0  0  0  0  0  0  0  0  0
  146.6644  142.0505  156.2488 C   0  0  0  0  0  0  0  0  0  0  0  0
  145.2595  141.5450  155.9102 C   0  0  0  0  0  0  0  0  0  0  0  0
  145.4167  140.5147  154.8548 N   0  3  2  0  0  0  0  0  0  0  0  0
  144.8259  139.1958  155.2068 C   0  0  0  0  0  0  0  0  0  0  0  0
  145.3435  138.0955  154.2689 C   0  0  0  0  0  0  0  0  0  0  0  0
  146.8701  137.9261  154.3868 C   0  0  0  0  0  0  0  0  0  0  0  0
  147.5665  139.1967  154.9116 C   0  0  0  0  0  0  0  0  0  0  0  0
  146.8485  140.4845  154.4385 C   0  0  2  0  0  0  0  0  0  0  0  0
  151.4668  140.2791  155.7200 H   0  0  0  0  0  0  0  0  0  0  0  0
  151.3686  141.9647  155.3322 H   0  0  0  0  0  0  0  0  0  0  0  0
  150.6343  143.4116  157.3272 H   0  0  0  0  0  0  0  0  0  0  0  0
  153.0531  142.6506  160.7977 H   0  0  0  0  0  0  0  0  0  0  0  0
  153.6455  140.5080  159.8948 H   0  0  0  0  0  0  0  0  0  0  0  0
  149.4420  142.2923  154.4557 H   0  0  0  0  0  0  0  0  0  0  0  0
  147.1845  142.5958  154.2462 H   0  0  0  0  0  0  0  0  0  0  0  0
  147.0862  141.4564  157.0609 H   0  0  0  0  0  0  0  0  0  0  0  0
  146.6702  143.0960  156.5594 H   0  0  0  0  0  0  0  0  0  0  0  0
  144.7406  141.1781  156.7968 H   0  0  0  0  0  0  0  0  0  0  0  0
  144.6605  142.3573  155.4971 H   0  0  0  0  0  0  0  0  0  0  0  0
  145.0739  138.9347  156.2371 H   0  0  0  0  0  0  0  0  0  0  0  0
  143.7391  139.2677  155.1525 H   0  0  0  0  0  0  0  0  0  0  0  0
  144.8458  137.1481  154.4783 H   0  0  0  0  0  0  0  0  0  0  0  0
  145.0831  138.3553  153.2417 H   0  0  0  0  0  0  0  0  0  0  0  0
  147.1044  137.0943  155.0523 H   0  0  0  0  0  0  0  0  0  0  0  0
  147.2730  137.6548  153.4103 H   0  0  0  0  0  0  0  0  0  0  0  0
  147.5832  139.1746  156.0022 H   0  0  0  0  0  0  0  0  0  0  0  0
  148.6091  139.1861  154.5924 H   0  0  0  0  0  0  0  0  0  0  0  0
  146.8795  140.4924  153.3479 H   0  0  0  0  0  0  0  0  0  0  0  0
  144.9048  140.8533  154.0526 H   0  0  0  0  0  0  0  0  0  0  0  0
  1  2  2  0  0  0  0
  2  3  1  0  0  0  0
  2 15  1  0  0  0  0
  3  4  1  0  0  0  0
  3 25  1  0  0  0  0
  3 26  1  0  0  0  0
  4 13  1  0  0  0  0
  4  5  1  0  0  0  0
  5  6  2  0  0  0  0
  5 27  1  0  0  0  0
  6  7  1  0  0  0  0
  6 11  1  0  0  0  0
  7  8  1  0  0  0  0
  7  9  1  0  0  0  0
  7 10  1  0  0  0  0
 11 12  2  0  0  0  0
 11 28  1  0  0  0  0
 12 13  1  0  0  0  0
 12 29  1  0  0  0  0
 13 14  2  0  0  0  0
 15 16  1  0  0  0  0
 15 30  1  0  0  0  0
 16 24  1  0  0  0  0
 16 17  1  0  0  0  0
 16 31  1  0  0  0  0
 17 18  1  0  0  0  0
 17 32  1  0  0  0  0
 17 33  1  0  0  0  0
 18 19  1  0  0  0  0
 18 34  1  0  0  0  0
 18 35  1  0  0  0  0
 19 24  1  0  0  0  0
 19 20  1  0  0  0  0
 19 45  1  0  0  0  0
 20 21  1  0  0  0  0
 20 36  1  0  0  0  0
 20 37  1  0  0  0  0
 21 22  1  0  0  0  0
 21 38  1  0  0  0  0
 21 39  1  0  0  0  0
 22 23  1  0  0  0  0
 22 40  1  0  0  0  0
 22 41  1  0  0  0  0
 23 24  1  0  0  0  0
 23 42  1  0  0  0  0
 23 43  1  0  0  0  0
 24 44  1  0  0  0  0
M  CHG  1  19   1
M  END
> <s_m_source_file>
AV-unprocessed.smi

> <i_m_source_file_index>
1976

> <i_lp_mmshare_version>
43012

> <i_f3d_flags>
0

> <s_epik_input>
W0NIMl0xW0NIMl1bQ0gyXVtDSDJdW0NASF0oTjEyKVtDQEBIXShbQ0gyXVtDSDJdMilbTkhdQyg9TylbQ0gyXW4zW2NIXWMoQyhGKShGKUYpW2NIXVtjSF1jMz1P

> <s_epik_cmdline>
J2VwaWtfcHl0aG9uJywgJy1waCcsICc3LjAnLCAnLXRuJywgJzgnLCAnLW1hJywgJzIwMCcsICctbWV0YWxfYmluZGluZycsICctaW1hZScsICc8aW5maWxlLm1hZT4nLCAnLW9tYWUnLCAnPG91dGZpbGUubWFlPic=

> <r_lp_tautomer_probability>
1

> <r_epik_Ionization_Penalty>
0.00171506

> <r_epik_Ionization_Penalty_Charging>
0.00171498

> <r_epik_Ionization_Penalty_Neutral>
7.81737e-08

> <r_epik_State_Penalty>
0.00115937

> <r_epik_Charging_Adjusted_Penalty>
0.00287436

> <i_epik_Tot_Q>
1

> <i_epik_Tot_abs_Q>
1

> <r_epik_Metal_State_Penalty>
-0

> <b_epik_Metal_Only>
0

> <s_lp_Force_Field>
OPLS_2005

> <r_lp_Energy>
52.9045

> <b_lp_Chiralities_Consistent>
1

> <s_lp_Variant>
AV-unprocessed.smi:1976-5

> <Gold.Version>
5.8.1

> <Gold.Id.Protein>
6NUR|6NUR_protein|mol2

> <Gold.PLP.Fitness>
49.4331

> <Gold.PLP.PLP>
-40.4211

> <Gold.PLP.part.hbond>
-3.0000

> <Gold.PLP.part.metal>
0.0000

> <Gold.PLP.part.buried>
-4.3062

> <Gold.PLP.part.nonpolar>
-32.8601

> <Gold.PLP.part.repulsive>
0.1889

> <Gold.PLP.ligand.clash>
0.4346

> <Gold.PLP.ligand.torsion>
0.4371

> <Gold.PLP.Chemscore.Hbond>
2.9500

> <Gold.PLP.Chemscore.CHOScore>
0.4761

> <Gold.PLP.Chemscore.Metal>
0.0000

> <Gold.Chemscore.Hbonds>
donor molecule, donor type, donor heavy atom, donor atom, acceptor molecule, acceptor atom, score
      L1  H    19    45       P1 10175  2.00
      P1  H  7997  8009       L1    14  0.95
      L1  C     5    27       P1  8028  0.49

> <Gold.PLP.Chemscore.Internal.Correction>
0.0424

> <Gold.Rescore>
     Score         DG    S(hbond)    S(metal)    S(lipo)     H(rot)  DE(clash)    DE(int)     intcor
     12.53     -16.92       1.79        0.00      81.30       1.58       0.65       3.74       ----

> <Gold.Chemscore.Fitness>
12.5340

> <Gold.Chemscore.DG>
-16.9246

> <Gold.Chemscore.ZeroCoef>
-5.4800

> <Gold.Chemscore.Hbond>
1.7918

> <Gold.Chemscore.Metal>
0.0000

> <Gold.Chemscore.Lipo>
81.3030

> <Gold.Chemscore.Internal_Hbond>
0.0000

> <Gold.Chemscore.DEClash>
0.6504

> <Gold.Chemscore.DEInternal>
3.7403

> <Gold.Chemscore.Rot>
1.5830

> <Gold.Chemscore.Internal.Correction>
   9.000000E+99

> <Gold.Chemscore.Hbonds>
donor molecule, donor type, donor heavy atom, donor atom, acceptor molecule, acceptor atom, score
      L1  H    19    45       P1 10175  0.85
      P1  H  7997  8009       L1    14  0.22

> <Gold.Chemscore.Hbond.Weighted>
-5.9845

> <Gold.Chemscore.Metal.Weighted>
-0.0000

> <Gold.Chemscore.Lipo.Weighted>
-9.5125

> <Gold.Chemscore.Internal_Hbond.Weighted>
0.0000

> <Gold.Chemscore.DEClash.Weighted>
0.6504

> <Gold.Chemscore.DEInternal.Weighted>
3.7403

> <Gold.Chemscore.Rot.Weighted>
4.0524

> <Gold.Chemscore.Internal.Correction.Weighted>
   9.000000E+99

> <Gold.Protein.RotatedTorsions>
[ 6907 6896 6895 6894 ] final -152.59 input  -60.11 | X-H torsion
[ 7974 7965 7964 7962 ] final   -9.79 input  175.53 | X-H torsion
[ 8008 7997 7996 7995 ] final  172.28 input   59.86 | X-H torsion
[ 10167 10162 10161 10158 ] final -101.58 input  -65.29 | X-H torsion
[ 10718 10713 10712 10709 ] final   83.83 input   66.30 | X-H torsion
[ 10763 10752 10751 10750 ] final -130.22 input  -60.55 | X-H torsion
[ 11005 11000 10999 10996 ] final  -83.04 input  -57.11 | X-H torsion

> <Gold.Protein.ActiveResidues>
 VAL166  LYS551  ARG553  GLY616  TRP617  ASP618  TYR619  PRO620  LYS621  CYS622 
 ASP623  PHE694  ASN695  SER759  ASP760  ASP761  ALA762  ILE779  LEU786  VAL792 
 PHE793  MET794  SER795  GLU796  ALA797  LYS798  CYS799  TRP800  GLU811  SER814 

> <Gold.Protein.RotatedAtoms>
  151.2301  133.4455  159.2603 H   0  0  0  0  0  0  0  0  0  0  0  0  # atno 6907 bound_to 6896
  151.0803  134.9854  159.8363 H   0  0  0  0  0  0  0  0  0  0  0  0  # atno 6908 bound_to 6896
  152.5423  134.2241  159.8852 H   0  0  0  0  0  0  0  0  0  0  0  0  # atno 6909 bound_to 6896
  146.2241  140.2668  142.8354 H   0  0  0  0  0  0  0  0  0  0  0  0  # atno 7974 bound_to 7965
  156.1190  140.1490  156.9232 H   0  0  0  0  0  0  0  0  0  0  0  0  # atno 8008 bound_to 7997
  154.4821  140.0876  156.7444 H   0  0  0  0  0  0  0  0  0  0  0  0  # atno 8009 bound_to 7997
  155.4463  140.3433  155.4298 H   0  0  0  0  0  0  0  0  0  0  0  0  # atno 8010 bound_to 7997
  140.2398  143.3547  152.0812 H   0  0  0  0  0  0  0  0  0  0  0  0  # atno 10167 bound_to 10162
  157.6886  131.0107  150.2582 H   0  0  0  0  0  0  0  0  0  0  0  0  # atno 10718 bound_to 10713
  154.8756  135.3869  154.4048 H   0  0  0  0  0  0  0  0  0  0  0  0  # atno 10763 bound_to 10752
  153.4769  135.7030  153.5966 H   0  0  0  0  0  0  0  0  0  0  0  0  # atno 10764 bound_to 10752
  153.4399  135.3858  155.2189 H   0  0  0  0  0  0  0  0  0  0  0  0  # atno 10765 bound_to 10752
  141.1660  133.7274  156.8661 H   0  0  0  0  0  0  0  0  0  0  0  0  # atno 11005 bound_to 11000
  144.9298  140.7962  143.5696 LP  0  0  0  0  0  0  0  0  0  0  0  0  # atno 17320 bound_to 7965
  145.2611  139.1992  143.4891 LP  0  0  0  0  0  0  0  0  0  0  0  0  # atno 17321 bound_to 7965
  139.5081  144.6844  151.5926 LP  0  0  0  0  0  0  0  0  0  0  0  0  # atno 17342 bound_to 10162
  140.6122  143.9415  150.6462 LP  0  0  0  0  0  0  0  0  0  0  0  0  # atno 17343 bound_to 10162
  156.3166  130.3779  149.7613 LP  0  0  0  0  0  0  0  0  0  0  0  0  # atno 17370 bound_to 10713
  156.5196  130.8209  151.3199 LP  0  0  0  0  0  0  0  0  0  0  0  0  # atno 17371 bound_to 10713
  140.1814  134.9030  157.2953 LP  0  0  0  0  0  0  0  0  0  0  0  0  # atno 17394 bound_to 11000
  140.2390  134.3818  155.7488 LP  0  0  0  0  0  0  0  0  0  0  0  0  # atno 17395 bound_to 11000

$$$$
