AV-unprocessed.smi:1752|AV-procd|sdf|7060|dock2
  -GOLD-   22720 8273D 1   1.00000     0.00000
 Structure written by MMmdl.
 43 44  0  0  0  0  0  0  0  0  2 V2000
  150.1832  142.9060  158.5488 C   0  0  0  0  0  0  0  0  0  0  0  0
  151.0599  141.6527  158.4267 C   0  0  2  0  0  0  0  0  0  0  0  0
  152.5284  141.9573  158.7923 C   0  0  0  0  0  0  0  0  0  0  0  0
  152.6709  142.5506  160.1100 N   0  0  0  0  0  0  0  0  0  0  0  0
  152.2468  143.7890  160.5440 C   0  0  0  0  0  0  0  0  0  0  0  0
  152.6081  143.9053  161.8556 C   0  0  0  0  0  0  0  0  0  0  0  0
  153.2518  142.6683  162.1397 C   0  0  0  0  0  0  0  0  0  0  0  0
  153.2845  141.8583  161.0938 N   0  0  0  0  0  0  0  0  0  0  0  0
  150.9580  141.1395  157.0615 N   0  0  0  0  0  0  0  0  0  0  0  0
  151.6754  140.1288  156.5399 C   0  0  0  0  0  0  0  0  0  0  0  0
  152.5397  139.5297  157.1807 O   0  0  0  0  0  0  0  0  0  0  0  0
  151.3756  139.8271  155.2511 N   0  0  0  0  0  0  0  0  0  0  0  0
  150.3470  140.4880  154.4305 C   0  0  0  0  0  0  0  0  0  0  0  0
  148.9900  139.7822  154.5954 C   0  0  0  0  0  0  0  0  0  0  0  0
  149.0184  138.2783  154.2500 C   0  0  0  0  0  0  0  0  0  0  0  0
  149.7687  137.4910  155.2654 N   0  3  1  0  0  0  0  0  0  0  0  0
  149.1333  136.1865  155.5563 C   0  0  0  0  0  0  0  0  0  0  0  0
  151.2243  137.3383  154.9847 C   0  0  0  0  0  0  0  0  0  0  0  0
  151.9568  138.6454  154.6016 C   0  0  0  0  0  0  0  0  0  0  0  0
  150.2007  143.2977  159.5664 H   0  0  0  0  0  0  0  0  0  0  0  0
  149.1445  142.6851  158.3006 H   0  0  0  0  0  0  0  0  0  0  0  0
  150.5257  143.6979  157.8816 H   0  0  0  0  0  0  0  0  0  0  0  0
  150.6649  140.9175  159.1304 H   0  0  0  0  0  0  0  0  0  0  0  0
  153.1308  141.0486  158.7492 H   0  0  0  0  0  0  0  0  0  0  0  0
  152.9594  142.6488  158.0668 H   0  0  0  0  0  0  0  0  0  0  0  0
  151.7331  144.4778  159.8899 H   0  0  0  0  0  0  0  0  0  0  0  0
  152.4378  144.7448  162.5128 H   0  0  0  0  0  0  0  0  0  0  0  0
  153.6917  142.3363  163.0685 H   0  0  0  0  0  0  0  0  0  0  0  0
  150.2790  141.5878  156.4635 H   0  0  0  0  0  0  0  0  0  0  0  0
  150.2483  141.5474  154.6696 H   0  0  0  0  0  0  0  0  0  0  0  0
  150.6353  140.4794  153.3788 H   0  0  0  0  0  0  0  0  0  0  0  0
  148.6223  139.9173  155.6135 H   0  0  0  0  0  0  0  0  0  0  0  0
  148.2647  140.2774  153.9491 H   0  0  0  0  0  0  0  0  0  0  0  0
  147.9832  137.9354  154.2212 H   0  0  0  0  0  0  0  0  0  0  0  0
  149.4183  138.1037  153.2500 H   0  0  0  0  0  0  0  0  0  0  0  0
  149.1163  135.5532  154.6683 H   0  0  0  0  0  0  0  0  0  0  0  0
  148.1076  136.3232  155.9009 H   0  0  0  0  0  0  0  0  0  0  0  0
  149.6754  135.6598  156.3424 H   0  0  0  0  0  0  0  0  0  0  0  0
  151.6886  136.9282  155.8826 H   0  0  0  0  0  0  0  0  0  0  0  0
  151.3746  136.5979  154.1976 H   0  0  0  0  0  0  0  0  0  0  0  0
  151.9257  138.7584  153.5176 H   0  0  0  0  0  0  0  0  0  0  0  0
  153.0197  138.5600  154.8341 H   0  0  0  0  0  0  0  0  0  0  0  0
  149.7012  138.0209  156.1228 H   0  0  0  0  0  0  0  0  0  0  0  0
  1  2  1  0  0  0  0
  1 20  1  0  0  0  0
  1 21  1  0  0  0  0
  1 22  1  0  0  0  0
  2  3  1  0  0  0  0
  2  9  1  0  0  0  0
  2 23  1  0  0  0  0
  3  4  1  0  0  0  0
  3 24  1  0  0  0  0
  3 25  1  0  0  0  0
  4  8  1  0  0  0  0
  4  5  1  0  0  0  0
  5  6  2  0  0  0  0
  5 26  1  0  0  0  0
  6  7  1  0  0  0  0
  6 27  1  0  0  0  0
  7  8  2  0  0  0  0
  7 28  1  0  0  0  0
  9 10  1  0  0  0  0
  9 29  1  0  0  0  0
 10 11  2  0  0  0  0
 10 12  1  0  0  0  0
 12 19  1  0  0  0  0
 12 13  1  0  0  0  0
 13 14  1  0  0  0  0
 13 30  1  0  0  0  0
 13 31  1  0  0  0  0
 14 15  1  0  0  0  0
 14 32  1  0  0  0  0
 14 33  1  0  0  0  0
 15 16  1  0  0  0  0
 15 34  1  0  0  0  0
 15 35  1  0  0  0  0
 16 17  1  0  0  0  0
 16 18  1  0  0  0  0
 16 43  1  0  0  0  0
 17 36  1  0  0  0  0
 17 37  1  0  0  0  0
 17 38  1  0  0  0  0
 18 19  1  0  0  0  0
 18 39  1  0  0  0  0
 18 40  1  0  0  0  0
 19 41  1  0  0  0  0
 19 42  1  0  0  0  0
M  CHG  1  16   1
M  END
> <s_m_source_file>
AV-unprocessed.smi

> <i_m_source_file_index>
1752

> <i_lp_mmshare_version>
43012

> <i_f3d_flags>
0

> <s_epik_input>
bjFbY0hdW2NIXVtjSF1uMVtDSDJdW0NAQEhdKFtDSDNdKVtOSF1DKD1PKU4yW0NIMl1bQ0gyXVtDSDJdTihbQ0gzXSlbQ0gyXVtDSDJdMg==

> <s_epik_cmdline>
J2VwaWtfcHl0aG9uJywgJy1waCcsICc3LjAnLCAnLXRuJywgJzgnLCAnLW1hJywgJzIwMCcsICctbWV0YWxfYmluZGluZycsICctaW1hZScsICc8aW5maWxlLm1hZT4nLCAnLW9tYWUnLCAnPG91dGZpbGUubWFlPic=

> <r_lp_tautomer_probability>
1

> <r_epik_Ionization_Penalty>
0.00208423

> <r_epik_Ionization_Penalty_Charging>
0.00203643

> <r_epik_Ionization_Penalty_Neutral>
4.77939e-05

> <r_epik_State_Penalty>
0.00139278

> <r_epik_Charging_Adjusted_Penalty>
0.00342922

> <i_epik_Tot_Q>
1

> <i_epik_Tot_abs_Q>
1

> <r_epik_Metal_State_Penalty>
-0

> <b_epik_Metal_Only>
0

> <s_lp_Force_Field>
OPLS_2005

> <r_lp_Energy>
39.6128

> <b_lp_Chiralities_Consistent>
1

> <s_lp_Variant>
AV-unprocessed.smi:1752-3

> <Gold.Version>
5.8.1

> <Gold.Id.Protein>
6NUR|6NUR_protein|mol2

> <Gold.PLP.Fitness>
40.2075

> <Gold.PLP.PLP>
-37.4475

> <Gold.PLP.part.hbond>
-1.0000

> <Gold.PLP.part.metal>
0.0000

> <Gold.PLP.part.buried>
0.4696

> <Gold.PLP.part.nonpolar>
-36.2933

> <Gold.PLP.part.repulsive>
0.0837

> <Gold.PLP.ligand.clash>
0.0000

> <Gold.PLP.ligand.torsion>
0.1326

> <Gold.PLP.Chemscore.Hbond>
1.0000

> <Gold.PLP.Chemscore.CHOScore>
0.0000

> <Gold.PLP.Chemscore.Metal>
0.0000

> <Gold.Chemscore.Hbonds>
donor molecule, donor type, donor heavy atom, donor atom, acceptor molecule, acceptor atom, score
      P1  H  7997  8008       L1    11  1.00

> <Gold.PLP.Chemscore.Internal.Correction>
0.0253

> <Gold.Rescore>
     Score         DG    S(hbond)    S(metal)    S(lipo)     H(rot)  DE(clash)    DE(int)     intcor
     13.16     -16.01       0.97        0.00      93.22       1.41       1.42       1.42       ----

> <Gold.Chemscore.Fitness>
13.1602

> <Gold.Chemscore.DG>
-16.0059

> <Gold.Chemscore.ZeroCoef>
-5.4800

> <Gold.Chemscore.Hbond>
0.9686

> <Gold.Chemscore.Metal>
0.0000

> <Gold.Chemscore.Lipo>
93.2187

> <Gold.Chemscore.Internal_Hbond>
0.0000

> <Gold.Chemscore.DEClash>
1.4209

> <Gold.Chemscore.DEInternal>
1.4248

> <Gold.Chemscore.Rot>
1.4125

> <Gold.Chemscore.Internal.Correction>
   9.000000E+99

> <Gold.Chemscore.Hbonds>
donor molecule, donor type, donor heavy atom, donor atom, acceptor molecule, acceptor atom, score
      P1  H  7997  8008       L1    11  0.89

> <Gold.Chemscore.Hbond.Weighted>
-3.2353

> <Gold.Chemscore.Metal.Weighted>
-0.0000

> <Gold.Chemscore.Lipo.Weighted>
-10.9066

> <Gold.Chemscore.Internal_Hbond.Weighted>
0.0000

> <Gold.Chemscore.DEClash.Weighted>
1.4209

> <Gold.Chemscore.DEInternal.Weighted>
1.4248

> <Gold.Chemscore.Rot.Weighted>
3.6160

> <Gold.Chemscore.Internal.Correction.Weighted>
   9.000000E+99

> <Gold.Protein.RotatedTorsions>
[ 6907 6896 6895 6894 ] final   34.73 input  -60.11 | X-H torsion
[ 7974 7965 7964 7962 ] final   -7.00 input  175.53 | X-H torsion
[ 8008 7997 7996 7995 ] final  -73.81 input   59.86 | X-H torsion
[ 10167 10162 10161 10158 ] final   38.11 input  -65.29 | X-H torsion
[ 10718 10713 10712 10709 ] final -140.96 input   66.30 | X-H torsion
[ 10763 10752 10751 10750 ] final   41.55 input  -60.55 | X-H torsion
[ 11005 11000 10999 10996 ] final  -32.74 input  -57.11 | X-H torsion

> <Gold.Protein.ActiveResidues>
 VAL166  LYS551  ARG553  GLY616  TRP617  ASP618  TYR619  PRO620  LYS621  CYS622 
 ASP623  PHE694  ASN695  SER759  ASP760  ASP761  ALA762  ILE779  LEU786  VAL792 
 PHE793  MET794  SER795  GLU796  ALA797  LYS798  CYS799  TRP800  GLU811  SER814 

> <Gold.Protein.RotatedAtoms>
  152.1065  134.9305  160.0567 H   0  0  0  0  0  0  0  0  0  0  0  0  # atno 6907 bound_to 6896
  152.0499  133.4009  159.4381 H   0  0  0  0  0  0  0  0  0  0  0  0  # atno 6908 bound_to 6896
  150.6841  134.3240  159.4842 H   0  0  0  0  0  0  0  0  0  0  0  0  # atno 6909 bound_to 6896
  146.2317  140.2254  142.8338 H   0  0  0  0  0  0  0  0  0  0  0  0  # atno 7974 bound_to 7965
  154.5278  140.0772  156.8290 H   0  0  0  0  0  0  0  0  0  0  0  0  # atno 8008 bound_to 7997
  155.3439  140.3409  155.4221 H   0  0  0  0  0  0  0  0  0  0  0  0  # atno 8009 bound_to 7997
  156.1749  140.1632  156.8367 H   0  0  0  0  0  0  0  0  0  0  0  0  # atno 8010 bound_to 7997
  140.3968  144.1778  150.6132 H   0  0  0  0  0  0  0  0  0  0  0  0  # atno 10167 bound_to 10162
  156.3284  130.7572  151.1685 H   0  0  0  0  0  0  0  0  0  0  0  0  # atno 10718 bound_to 10713
  152.9905  135.6158  154.2805 H   0  0  0  0  0  0  0  0  0  0  0  0  # atno 10763 bound_to 10752
  154.2535  135.2784  155.2809 H   0  0  0  0  0  0  0  0  0  0  0  0  # atno 10764 bound_to 10752
  154.5268  135.5799  153.6783 H   0  0  0  0  0  0  0  0  0  0  0  0  # atno 10765 bound_to 10752
  140.9577  133.7183  156.1320 H   0  0  0  0  0  0  0  0  0  0  0  0  # atno 11005 bound_to 11000
  144.9599  140.8265  143.5520 LP  0  0  0  0  0  0  0  0  0  0  0  0  # atno 17320 bound_to 7965
  145.2223  139.2153  143.5086 LP  0  0  0  0  0  0  0  0  0  0  0  0  # atno 17321 bound_to 7965
  140.4782  143.2388  151.8992 LP  0  0  0  0  0  0  0  0  0  0  0  0  # atno 17342 bound_to 10162
  139.4786  144.5297  151.8684 LP  0  0  0  0  0  0  0  0  0  0  0  0  # atno 17343 bound_to 10162
  157.7425  131.0488  150.5015 LP  0  0  0  0  0  0  0  0  0  0  0  0  # atno 17370 bound_to 10713
  156.5177  130.4154  149.6267 LP  0  0  0  0  0  0  0  0  0  0  0  0  # atno 17371 bound_to 10713
  140.7512  134.4043  157.5541 LP  0  0  0  0  0  0  0  0  0  0  0  0  # atno 17394 bound_to 11000
  139.8868  134.8901  156.2566 LP  0  0  0  0  0  0  0  0  0  0  0  0  # atno 17395 bound_to 11000

$$$$
