AV-unprocessed.smi:911|AV-procd|sdf|4139|dock6
  -GOLD-   22720 2 43D 1   1.00000     0.00000
 Structure written by MMmdl.
 47 49  0  0  0  0  0  0  0  0  3 V2000
  144.9391  134.8299  162.5688 C   0  0  0  0  0  0  0  0  0  0  0  0
  146.1801  134.8114  161.6326 C   0  0  0  0  0  0  0  0  0  0  0  0
  146.8463  133.4255  161.8580 C   0  0  0  0  0  0  0  0  0  0  0  0
  145.8593  135.1314  160.1590 C   0  0  1  0  0  0  0  0  0  0  0  0
  145.3444  136.5881  160.2053 C   0  0  0  0  0  0  0  0  0  0  0  0
  146.1983  137.2099  161.3275 C   0  0  0  0  0  0  0  0  0  0  0  0
  147.1300  136.0356  161.7392 C   0  0  1  0  0  0  0  0  0  0  0  0
  147.7886  136.2489  163.1137 C   0  0  0  0  0  0  0  0  0  0  0  0
  148.1484  135.7842  160.5787 C   0  0  2  0  0  0  0  0  0  0  0  0
  148.8074  136.9928  160.0874 N   0  0  0  0  0  0  0  0  0  0  0  0
  149.7765  137.0310  159.1610 C   0  0  0  0  0  0  0  0  0  0  0  0
  150.1682  136.0433  158.5405 O   0  0  0  0  0  0  0  0  0  0  0  0
  150.4191  138.3986  158.9173 C   0  0  0  0  0  0  0  0  0  0  0  0
  150.5570  138.6531  157.4752 N   0  0  0  0  0  0  0  0  0  0  0  0
  149.8301  139.7431  156.9571 C   0  0  0  0  0  0  0  0  0  0  0  0
  149.9132  140.1110  155.6643 C   0  0  0  0  0  0  0  0  0  0  0  0
  149.1775  141.2492  155.1600 N   0  3  0  0  0  0  0  0  0  0  0  0
  149.4641  141.6903  154.0520 O   0  0  0  0  0  0  0  0  0  0  0  0
  148.2928  141.7409  155.8547 O   0  5  0  0  0  0  0  0  0  0  0  0
  150.7786  139.3358  154.7973 C   0  0  0  0  0  0  0  0  0  0  0  0
  151.4766  138.2913  155.2859 C   0  0  0  0  0  0  0  0  0  0  0  0
  151.3928  137.8995  156.6971 C   0  0  0  0  0  0  0  0  0  0  0  0
  152.0384  136.9550  157.1509 O   0  0  0  0  0  0  0  0  0  0  0  0
  147.2480  135.1657  159.4845 C   0  0  0  0  0  0  0  0  0  0  0  0
  144.2602  134.0142  162.3186 H   0  0  0  0  0  0  0  0  0  0  0  0
  144.3458  135.7406  162.5349 H   0  0  0  0  0  0  0  0  0  0  0  0
  145.2351  134.6903  163.6087 H   0  0  0  0  0  0  0  0  0  0  0  0
  147.7381  133.2371  161.2651 H   0  0  0  0  0  0  0  0  0  0  0  0
  146.1471  132.6219  161.6244 H   0  0  0  0  0  0  0  0  0  0  0  0
  147.1372  133.3021  162.9015 H   0  0  0  0  0  0  0  0  0  0  0  0
  145.1637  134.4427  159.6784 H   0  0  0  0  0  0  0  0  0  0  0  0
  145.4776  137.1047  159.2541 H   0  0  0  0  0  0  0  0  0  0  0  0
  144.2822  136.6323  160.4475 H   0  0  0  0  0  0  0  0  0  0  0  0
  146.7271  138.1033  160.9980 H   0  0  0  0  0  0  0  0  0  0  0  0
  145.5713  137.5317  162.1590 H   0  0  0  0  0  0  0  0  0  0  0  0
  148.3890  137.1584  163.1252 H   0  0  0  0  0  0  0  0  0  0  0  0
  148.4432  135.4171  163.3741 H   0  0  0  0  0  0  0  0  0  0  0  0
  147.0427  136.3449  163.9024 H   0  0  0  0  0  0  0  0  0  0  0  0
  148.9100  135.0621  160.8764 H   0  0  0  0  0  0  0  0  0  0  0  0
  148.5485  137.8602  160.5343 H   0  0  0  0  0  0  0  0  0  0  0  0
  149.8199  139.1705  159.4033 H   0  0  0  0  0  0  0  0  0  0  0  0
  151.3922  138.4416  159.4096 H   0  0  0  0  0  0  0  0  0  0  0  0
  149.2218  140.2607  157.6852 H   0  0  0  0  0  0  0  0  0  0  0  0
  150.8755  139.5885  153.7516 H   0  0  0  0  0  0  0  0  0  0  0  0
  152.1178  137.7287  154.6231 H   0  0  0  0  0  0  0  0  0  0  0  0
  147.5863  134.1641  159.2179 H   0  0  0  0  0  0  0  0  0  0  0  0
  147.2359  135.7460  158.5605 H   0  0  0  0  0  0  0  0  0  0  0  0
  1  2  1  0  0  0  0
  1 25  1  0  0  0  0
  1 26  1  0  0  0  0
  1 27  1  0  0  0  0
  2  7  1  0  0  0  0
  2  3  1  0  0  0  0
  2  4  1  0  0  0  0
  3 28  1  0  0  0  0
  3 29  1  0  0  0  0
  3 30  1  0  0  0  0
  4 24  1  0  0  0  0
  4  5  1  0  0  0  0
  4 31  1  0  0  0  0
  5  6  1  0  0  0  0
  5 32  1  0  0  0  0
  5 33  1  0  0  0  0
  6  7  1  0  0  0  0
  6 34  1  0  0  0  0
  6 35  1  0  0  0  0
  7  8  1  0  0  0  0
  7  9  1  0  0  0  0
  8 36  1  0  0  0  0
  8 37  1  0  0  0  0
  8 38  1  0  0  0  0
  9 10  1  0  0  0  0
  9 24  1  0  0  0  0
  9 39  1  0  0  0  0
 10 11  1  0  0  0  0
 10 40  1  0  0  0  0
 11 12  2  0  0  0  0
 11 13  1  0  0  0  0
 13 14  1  0  0  0  0
 13 41  1  0  0  0  0
 13 42  1  0  0  0  0
 14 22  1  0  0  0  0
 14 15  1  0  0  0  0
 15 16  2  0  0  0  0
 15 43  1  0  0  0  0
 16 17  1  0  0  0  0
 16 20  1  0  0  0  0
 17 18  2  0  0  0  0
 17 19  1  0  0  0  0
 20 21  2  0  0  0  0
 20 44  1  0  0  0  0
 21 22  1  0  0  0  0
 21 45  1  0  0  0  0
 22 23  2  0  0  0  0
 24 46  1  0  0  0  0
 24 47  1  0  0  0  0
M  CHG  1  17   1
M  CHG  1  19  -1
M  END
> <s_m_source_file>
AV-unprocessed.smi

> <i_m_source_file_index>
911

> <i_lp_mmshare_version>
43012

> <i_f3d_flags>
0

> <s_epik_input>
W0NIM11bQ0BdMTJDKFtDSDNdKShbQ0gzXSlbQ0BIXShbQ0gyXVtDSDJdMSlbQ0gyXVtDQEBIXTJbTkhdQyg9TylbQ0gyXW4zW2NIXWMoW04rXSg9TylbTy1dKVtjSF1bY0hdYzM9Tw==

> <s_epik_cmdline>
J2VwaWtfcHl0aG9uJywgJy1waCcsICc3LjAnLCAnLXRuJywgJzgnLCAnLW1hJywgJzIwMCcsICctbWV0YWxfYmluZGluZycsICctaW1hZScsICc8aW5maWxlLm1hZT4nLCAnLW9tYWUnLCAnPG91dGZpbGUubWFlPic=

> <r_lp_tautomer_probability>
1

> <r_epik_Ionization_Penalty>
2.04092e-08

> <r_epik_Ionization_Penalty_Charging>
8.54191e-11

> <r_epik_Ionization_Penalty_Neutral>
2.03238e-08

> <r_epik_State_Penalty>
-0

> <r_epik_Charging_Adjusted_Penalty>
8.54191e-11

> <i_epik_Tot_Q>
0

> <i_epik_Tot_abs_Q>
2

> <r_epik_Metal_State_Penalty>
-0

> <b_epik_Metal_Only>
0

> <s_lp_Force_Field>
OPLS_2005

> <r_lp_Energy>
68.3511

> <b_lp_Chiralities_Consistent>
1

> <s_lp_Variant>
AV-unprocessed.smi:911-4

> <Gold.Version>
5.8.1

> <Gold.Id.Protein>
6NUR|6NUR_protein|mol2

> <Gold.PLP.Fitness>
39.2484

> <Gold.PLP.PLP>
-34.3867

> <Gold.PLP.part.hbond>
-3.0000

> <Gold.PLP.part.metal>
0.0000

> <Gold.PLP.part.buried>
-5.6093

> <Gold.PLP.part.nonpolar>
-27.8844

> <Gold.PLP.part.repulsive>
1.8554

> <Gold.PLP.ligand.clash>
0.0000

> <Gold.PLP.ligand.torsion>
0.3295

> <Gold.PLP.Chemscore.Hbond>
1.8320

> <Gold.PLP.Chemscore.CHOScore>
0.0000

> <Gold.PLP.Chemscore.Metal>
0.0000

> <Gold.Chemscore.Hbonds>
donor molecule, donor type, donor heavy atom, donor atom, acceptor molecule, acceptor atom, score
      P1  H  6896  6908       L1    12  0.99
      P1  H  7989  7998       L1    18  0.04
      P1  H  8011  8017       L1    18  0.56

> <Gold.PLP.Chemscore.Internal.Correction>
0.0247

> <Gold.Rescore>
     Score         DG    S(hbond)    S(metal)    S(lipo)     H(rot)  DE(clash)    DE(int)     intcor
     12.80     -17.29       1.75        0.00      84.53       1.53       1.42       3.08       ----

> <Gold.Chemscore.Fitness>
12.8004

> <Gold.Chemscore.DG>
-17.2939

> <Gold.Chemscore.ZeroCoef>
-5.4800

> <Gold.Chemscore.Hbond>
1.7469

> <Gold.Chemscore.Metal>
0.0000

> <Gold.Chemscore.Lipo>
84.5332

> <Gold.Chemscore.Internal_Hbond>
0.0000

> <Gold.Chemscore.DEClash>
1.4181

> <Gold.Chemscore.DEInternal>
3.0754

> <Gold.Chemscore.Rot>
1.5277

> <Gold.Chemscore.Internal.Correction>
   9.000000E+99

> <Gold.Chemscore.Hbonds>
donor molecule, donor type, donor heavy atom, donor atom, acceptor molecule, acceptor atom, score
      P1  H  6896  6908       L1    12  0.80
      P1  H  7989  7998       L1    18  0.03
      P1  H  8011  8017       L1    18  0.56

> <Gold.Chemscore.Hbond.Weighted>
-5.8346

> <Gold.Chemscore.Metal.Weighted>
-0.0000

> <Gold.Chemscore.Lipo.Weighted>
-9.8904

> <Gold.Chemscore.Internal_Hbond.Weighted>
0.0000

> <Gold.Chemscore.DEClash.Weighted>
1.4181

> <Gold.Chemscore.DEInternal.Weighted>
3.0754

> <Gold.Chemscore.Rot.Weighted>
3.9110

> <Gold.Chemscore.Internal.Correction.Weighted>
   9.000000E+99

> <Gold.Protein.RotatedTorsions>
[ 6907 6896 6895 6894 ] final  178.67 input  -60.11 | X-H torsion
[ 7974 7965 7964 7962 ] final  -73.54 input  175.53 | X-H torsion
[ 8008 7997 7996 7995 ] final   19.27 input   59.86 | X-H torsion
[ 10167 10162 10161 10158 ] final -125.31 input  -65.29 | X-H torsion
[ 10718 10713 10712 10709 ] final  -32.34 input   66.30 | X-H torsion
[ 10763 10752 10751 10750 ] final   41.78 input  -60.55 | X-H torsion
[ 11005 11000 10999 10996 ] final  118.97 input  -57.11 | X-H torsion

> <Gold.Protein.ActiveResidues>
 VAL166  LYS551  ARG553  GLY616  TRP617  ASP618  TYR619  PRO620  LYS621  CYS622 
 ASP623  PHE694  ASN695  SER759  ASP760  ASP761  ALA762  ILE779  LEU786  VAL792 
 PHE793  MET794  SER795  GLU796  ALA797  LYS798  CYS799  TRP800  GLU811  SER814 

> <Gold.Protein.RotatedAtoms>
  151.6840  133.3311  159.3226 H   0  0  0  0  0  0  0  0  0  0  0  0  # atno 6907 bound_to 6896
  150.7809  134.6756  159.6425 H   0  0  0  0  0  0  0  0  0  0  0  0  # atno 6908 bound_to 6896
  152.3866  134.6510  160.0175 H   0  0  0  0  0  0  0  0  0  0  0  0  # atno 6909 bound_to 6896
  145.6509  140.9283  143.0985 H   0  0  0  0  0  0  0  0  0  0  0  0  # atno 7974 bound_to 7965
  154.9183  140.3024  155.5229 H   0  0  0  0  0  0  0  0  0  0  0  0  # atno 8008 bound_to 7997
  156.3011  140.2376  156.4166 H   0  0  0  0  0  0  0  0  0  0  0  0  # atno 8009 bound_to 7997
  154.8356  140.0416  157.1495 H   0  0  0  0  0  0  0  0  0  0  0  0  # atno 8010 bound_to 7997
  139.9835  143.5717  152.2369 H   0  0  0  0  0  0  0  0  0  0  0  0  # atno 10167 bound_to 10162
  156.3761  130.4348  149.7506 H   0  0  0  0  0  0  0  0  0  0  0  0  # atno 10718 bound_to 10713
  152.9899  135.6151  154.2842 H   0  0  0  0  0  0  0  0  0  0  0  0  # atno 10763 bound_to 10752
  154.2570  135.2783  155.2795 H   0  0  0  0  0  0  0  0  0  0  0  0  # atno 10764 bound_to 10752
  154.5238  135.5807  153.6760 H   0  0  0  0  0  0  0  0  0  0  0  0  # atno 10765 bound_to 10752
  139.9129  134.9625  156.7584 H   0  0  0  0  0  0  0  0  0  0  0  0  # atno 11005 bound_to 11000
  144.7123  139.8325  143.7410 LP  0  0  0  0  0  0  0  0  0  0  0  0  # atno 17320 bound_to 7965
  146.1205  139.4222  143.0231 LP  0  0  0  0  0  0  0  0  0  0  0  0  # atno 17321 bound_to 7965
  139.6392  144.7653  151.2373 LP  0  0  0  0  0  0  0  0  0  0  0  0  # atno 17342 bound_to 10162
  140.7481  143.6345  150.8392 LP  0  0  0  0  0  0  0  0  0  0  0  0  # atno 17343 bound_to 10162
  156.4615  130.7954  151.2974 LP  0  0  0  0  0  0  0  0  0  0  0  0  # atno 17370 bound_to 10713
  157.7488  131.0064  150.3151 LP  0  0  0  0  0  0  0  0  0  0  0  0  # atno 17371 bound_to 10713
  140.6717  133.9553  155.7860 LP  0  0  0  0  0  0  0  0  0  0  0  0  # atno 17394 bound_to 11000
  141.0573  134.0398  157.3706 LP  0  0  0  0  0  0  0  0  0  0  0  0  # atno 17395 bound_to 11000

$$$$
