AV-unprocessed.smi:819|AV-procd|sdf|3835|dock8
  -GOLD-   22720 1283D 1   1.00000     0.00000
 Structure written by MMmdl.
 40 41  0  0  0  0  0  0  0  0  1 V2000
  145.8810  142.3573  154.9486 C   0  0  0  0  0  0  0  0  0  0  0  0
  146.4305  141.9186  156.3162 C   0  0  1  0  0  0  0  0  0  0  0  0
  147.7395  142.5429  156.5037 N   0  0  0  0  0  0  0  0  0  0  0  0
  148.6787  142.1245  157.3657 C   0  0  0  0  0  0  0  0  0  0  0  0
  148.5360  141.1440  158.0955 O   0  0  0  0  0  0  0  0  0  0  0  0
  149.7618  142.9197  157.3226 N   0  0  0  0  0  0  0  0  0  0  0  0
  150.9755  142.8356  158.0600 C   0  0  0  0  0  0  0  0  0  0  0  0
  151.3893  141.7121  158.8180 C   0  0  0  0  0  0  0  0  0  0  0  0
  152.6241  141.7644  159.4930 C   0  0  0  0  0  0  0  0  0  0  0  0
  153.4026  142.9325  159.3841 C   0  0  0  0  0  0  0  0  0  0  0  0
  153.0255  144.0076  158.6613 N   0  0  0  0  0  0  0  0  0  0  0  0
  151.8400  143.9506  158.0179 C   0  0  0  0  0  0  0  0  0  0  0  0
  145.4532  142.3823  157.4078 C   0  0  0  0  0  0  0  0  0  0  0  0
  144.2804  142.0045  157.4006 O   0  0  0  0  0  0  0  0  0  0  0  0
  145.9570  143.2028  158.3416 N   0  0  0  0  0  0  0  0  0  0  0  0
  145.2022  143.7838  159.4481 C   0  0  0  0  0  0  0  0  0  0  0  0
  146.0610  144.7806  160.2523 C   0  0  0  0  0  0  0  0  0  0  0  0
  146.3882  144.0820  161.5720 C   0  0  0  0  0  0  0  0  0  0  0  0
  145.1757  143.1937  161.8318 C   0  0  0  0  0  0  0  0  0  0  0  0
  144.7677  142.6918  160.4453 C   0  0  0  0  0  0  0  0  0  0  0  0
  144.8986  141.9230  154.7585 H   0  0  0  0  0  0  0  0  0  0  0  0
  146.5396  142.0318  154.1430 H   0  0  0  0  0  0  0  0  0  0  0  0
  145.7846  143.4420  154.8768 H   0  0  0  0  0  0  0  0  0  0  0  0
  146.5336  140.8316  156.3350 H   0  0  0  0  0  0  0  0  0  0  0  0
  147.9338  143.3628  155.9482 H   0  0  0  0  0  0  0  0  0  0  0  0
  149.7002  143.7066  156.6932 H   0  0  0  0  0  0  0  0  0  0  0  0
  150.8012  140.8122  158.8949 H   0  0  0  0  0  0  0  0  0  0  0  0
  152.9680  140.9257  160.0800 H   0  0  0  0  0  0  0  0  0  0  0  0
  154.3550  143.0033  159.8883 H   0  0  0  0  0  0  0  0  0  0  0  0
  151.5724  144.8293  157.4491 H   0  0  0  0  0  0  0  0  0  0  0  0
  146.9298  143.4631  158.2670 H   0  0  0  0  0  0  0  0  0  0  0  0
  144.3192  144.2941  159.0587 H   0  0  0  0  0  0  0  0  0  0  0  0
  146.9613  145.1049  159.7281 H   0  0  0  0  0  0  0  0  0  0  0  0
  145.4721  145.6758  160.4567 H   0  0  0  0  0  0  0  0  0  0  0  0
  147.2788  143.4637  161.4498 H   0  0  0  0  0  0  0  0  0  0  0  0
  146.5776  144.7846  162.3839 H   0  0  0  0  0  0  0  0  0  0  0  0
  145.3910  142.3809  162.5259 H   0  0  0  0  0  0  0  0  0  0  0  0
  144.3690  143.7915  162.2581 H   0  0  0  0  0  0  0  0  0  0  0  0
  143.6986  142.4848  160.3881 H   0  0  0  0  0  0  0  0  0  0  0  0
  145.2871  141.7540  160.2416 H   0  0  0  0  0  0  0  0  0  0  0  0
  1  2  1  0  0  0  0
  1 21  1  0  0  0  0
  1 22  1  0  0  0  0
  1 23  1  0  0  0  0
  2  3  1  0  0  0  0
  2 13  1  0  0  0  0
  2 24  1  0  0  0  0
  3  4  1  0  0  0  0
  3 25  1  0  0  0  0
  4  5  2  0  0  0  0
  4  6  1  0  0  0  0
  6  7  1  0  0  0  0
  6 26  1  0  0  0  0
  7 12  1  0  0  0  0
  7  8  2  0  0  0  0
  8  9  1  0  0  0  0
  8 27  1  0  0  0  0
  9 10  2  0  0  0  0
  9 28  1  0  0  0  0
 10 11  1  0  0  0  0
 10 29  1  0  0  0  0
 11 12  2  0  0  0  0
 12 30  1  0  0  0  0
 13 14  2  0  0  0  0
 13 15  1  0  0  0  0
 15 16  1  0  0  0  0
 15 31  1  0  0  0  0
 16 20  1  0  0  0  0
 16 17  1  0  0  0  0
 16 32  1  0  0  0  0
 17 18  1  0  0  0  0
 17 33  1  0  0  0  0
 17 34  1  0  0  0  0
 18 19  1  0  0  0  0
 18 35  1  0  0  0  0
 18 36  1  0  0  0  0
 19 20  1  0  0  0  0
 19 37  1  0  0  0  0
 19 38  1  0  0  0  0
 20 39  1  0  0  0  0
 20 40  1  0  0  0  0
M  END
> <s_m_source_file>
AV-unprocessed.smi

> <i_m_source_file_index>
819

> <i_lp_mmshare_version>
43012

> <i_f3d_flags>
0

> <s_epik_input>
W0NIMl0xW0NIMl1bQ0gyXVtDSDJdW0NIXTFbTkhdQyg9TylbQ0BIXShbQ0gzXSlbTkhdQyg9TylbTkhdYzJbY0hdW2NIXVtjSF1uW2NIXTI=

> <s_epik_cmdline>
J2VwaWtfcHl0aG9uJywgJy1waCcsICc3LjAnLCAnLXRuJywgJzgnLCAnLW1hJywgJzIwMCcsICctbWV0YWxfYmluZGluZycsICctaW1hZScsICc8aW5maWxlLm1hZT4nLCAnLW9tYWUnLCAnPG91dGZpbGUubWFlPic=

> <r_epik_Ionization_Penalty>
0.00416979

> <r_epik_Ionization_Penalty_Charging>
0

> <r_epik_Ionization_Penalty_Neutral>
0.00416979

> <r_epik_State_Penalty>
0.00297037

> <r_epik_Charging_Adjusted_Penalty>
0.00297037

> <i_epik_Tot_Q>
0

> <i_epik_Tot_abs_Q>
0

> <r_epik_Metal_State_Penalty>
-0

> <b_epik_Metal_Only>
0

> <s_lp_Force_Field>
OPLS_2005

> <r_lp_Energy>
20.1385

> <b_lp_Chiralities_Consistent>
1

> <s_lp_Variant>
AV-unprocessed.smi:819-2

> <Gold.Version>
5.8.1

> <Gold.Id.Protein>
6NUR|6NUR_protein|mol2

> <Gold.PLP.Fitness>
39.9275

> <Gold.PLP.PLP>
-34.6592

> <Gold.PLP.part.hbond>
-2.6851

> <Gold.PLP.part.metal>
0.0000

> <Gold.PLP.part.buried>
-5.0452

> <Gold.PLP.part.nonpolar>
-26.3651

> <Gold.PLP.part.repulsive>
0.0978

> <Gold.PLP.ligand.clash>
0.0000

> <Gold.PLP.ligand.torsion>
0.3743

> <Gold.PLP.Chemscore.Hbond>
2.0000

> <Gold.PLP.Chemscore.CHOScore>
0.0000

> <Gold.PLP.Chemscore.Metal>
0.0000

> <Gold.Chemscore.Hbonds>
donor molecule, donor type, donor heavy atom, donor atom, acceptor molecule, acceptor atom, score
      L1  H     3    25       P1  8028  1.00
      L1  H     6    26       P1  8028  1.00

> <Gold.PLP.Chemscore.Internal.Correction>
0.0169

> <Gold.Rescore>
     Score         DG    S(hbond)    S(metal)    S(lipo)     H(rot)  DE(clash)    DE(int)     intcor
     15.40     -16.81       1.72        0.00      81.15       1.52       0.05       1.35       ----

> <Gold.Chemscore.Fitness>
15.3983

> <Gold.Chemscore.DG>
-16.8056

> <Gold.Chemscore.ZeroCoef>
-5.4800

> <Gold.Chemscore.Hbond>
1.7151

> <Gold.Chemscore.Metal>
0.0000

> <Gold.Chemscore.Lipo>
81.1523

> <Gold.Chemscore.Internal_Hbond>
0.0000

> <Gold.Chemscore.DEClash>
0.0536

> <Gold.Chemscore.DEInternal>
1.3536

> <Gold.Chemscore.Rot>
1.5225

> <Gold.Chemscore.Internal.Correction>
   9.000000E+99

> <Gold.Chemscore.Hbonds>
donor molecule, donor type, donor heavy atom, donor atom, acceptor molecule, acceptor atom, score
      L1  H     3    25       P1  8028  0.24
      L1  H     6    26       P1  8028  0.97

> <Gold.Chemscore.Hbond.Weighted>
-5.7285

> <Gold.Chemscore.Metal.Weighted>
-0.0000

> <Gold.Chemscore.Lipo.Weighted>
-9.4948

> <Gold.Chemscore.Internal_Hbond.Weighted>
0.0000

> <Gold.Chemscore.DEClash.Weighted>
0.0536

> <Gold.Chemscore.DEInternal.Weighted>
1.3536

> <Gold.Chemscore.Rot.Weighted>
3.8977

> <Gold.Chemscore.Internal.Correction.Weighted>
   9.000000E+99

> <Gold.Protein.RotatedTorsions>
[ 6907 6896 6895 6894 ] final  -58.91 input  -60.11 | X-H torsion
[ 7974 7965 7964 7962 ] final  117.49 input  175.53 | X-H torsion
[ 8008 7997 7996 7995 ] final   49.31 input   59.86 | X-H torsion
[ 10167 10162 10161 10158 ] final  -85.95 input  -65.29 | X-H torsion
[ 10718 10713 10712 10709 ] final  -60.81 input   66.30 | X-H torsion
[ 10763 10752 10751 10750 ] final -179.14 input  -60.55 | X-H torsion
[ 11005 11000 10999 10996 ] final   13.51 input  -57.11 | X-H torsion

> <Gold.Protein.ActiveResidues>
 VAL166  LYS551  ARG553  GLY616  TRP617  ASP618  TYR619  PRO620  LYS621  CYS622 
 ASP623  PHE694  ASN695  SER759  ASP760  ASP761  ALA762  ILE779  LEU786  VAL792 
 PHE793  MET794  SER795  GLU796  ALA797  LYS798  CYS799  TRP800  GLU811  SER814 

> <Gold.Protein.RotatedAtoms>
  150.7971  134.7037  159.6564 H   0  0  0  0  0  0  0  0  0  0  0  0  # atno 6907 bound_to 6896
  152.4084  134.6164  160.0049 H   0  0  0  0  0  0  0  0  0  0  0  0  # atno 6908 bound_to 6896
  151.6414  133.3289  159.3167 H   0  0  0  0  0  0  0  0  0  0  0  0  # atno 6909 bound_to 6896
  145.1668  139.3124  143.4488 H   0  0  0  0  0  0  0  0  0  0  0  0  # atno 7974 bound_to 7965
  155.4001  140.3437  155.4256 H   0  0  0  0  0  0  0  0  0  0  0  0  # atno 8008 bound_to 7997
  156.1508  140.1570  156.8805 H   0  0  0  0  0  0  0  0  0  0  0  0  # atno 8009 bound_to 7997
  154.5051  140.0804  156.7858 H   0  0  0  0  0  0  0  0  0  0  0  0  # atno 8010 bound_to 7997
  140.3988  143.2672  151.9169 H   0  0  0  0  0  0  0  0  0  0  0  0  # atno 10167 bound_to 10162
  156.0965  130.4192  150.0906 H   0  0  0  0  0  0  0  0  0  0  0  0  # atno 10718 bound_to 10713
  154.5388  135.2804  155.1114 H   0  0  0  0  0  0  0  0  0  0  0  0  # atno 10763 bound_to 10752
  154.2605  135.6322  153.5276 H   0  0  0  0  0  0  0  0  0  0  0  0  # atno 10764 bound_to 10752
  152.9974  135.5604  154.5922 H   0  0  0  0  0  0  0  0  0  0  0  0  # atno 10765 bound_to 10752
  140.4799  134.0946  155.7749 H   0  0  0  0  0  0  0  0  0  0  0  0  # atno 11005 bound_to 11000
  146.3474  140.1798  142.8589 LP  0  0  0  0  0  0  0  0  0  0  0  0  # atno 17320 bound_to 7965
  145.0274  140.8843  143.5130 LP  0  0  0  0  0  0  0  0  0  0  0  0  # atno 17321 bound_to 7965
  139.4785  144.5654  151.8173 LP  0  0  0  0  0  0  0  0  0  0  0  0  # atno 17342 bound_to 10162
  140.4762  144.1516  150.5925 LP  0  0  0  0  0  0  0  0  0  0  0  0  # atno 17343 bound_to 10162
  156.8904  130.9586  151.3589 LP  0  0  0  0  0  0  0  0  0  0  0  0  # atno 17370 bound_to 10713
  157.6126  130.8594  149.8977 LP  0  0  0  0  0  0  0  0  0  0  0  0  # atno 17371 bound_to 10713
  141.1536  133.8923  157.2034 LP  0  0  0  0  0  0  0  0  0  0  0  0  # atno 17394 bound_to 11000
  139.9833  135.0091  156.9802 LP  0  0  0  0  0  0  0  0  0  0  0  0  # atno 17395 bound_to 11000

$$$$
