AV-unprocessed.smi:1033|AV-procd|sdf|4512|dock9
  -GOLD-   22720 2523D 1   1.00000     0.00000
 Structure written by MMmdl.
 57 59  0  0  0  0  0  0  0  0  3 V2000
  154.8636  130.7523  155.3900 C   0  0  0  0  0  0  0  0  0  0  0  0
  153.3748  131.0117  155.2402 C   0  0  0  0  0  0  0  0  0  0  0  0
  152.6110  130.1651  154.4059 C   0  0  0  0  0  0  0  0  0  0  0  0
  151.2241  130.3701  154.2416 C   0  0  0  0  0  0  0  0  0  0  0  0
  150.2965  129.6747  153.4860 N   0  0  0  0  0  0  0  0  0  0  0  0
  149.1794  130.3466  153.7467 C   0  0  0  0  0  0  0  0  0  0  0  0
  149.2766  131.4083  154.5704 N   0  0  0  0  0  0  0  0  0  0  0  0
  148.2045  132.2948  154.9855 C   0  0  0  0  0  0  0  0  0  0  0  0
  148.5592  133.7844  154.8002 C   0  0  2  0  0  0  0  0  0  0  0  0
  149.1004  134.2554  156.0175 O   0  0  0  0  0  0  0  0  0  0  0  0
  147.3461  134.6639  154.4209 C   0  0  0  0  0  0  0  0  0  0  0  0
  147.1006  134.7097  152.9561 N   0  3  2  0  0  0  0  0  0  0  0  0
  145.8069  135.3576  152.6251 C   0  0  0  0  0  0  0  0  0  0  0  0
  145.6242  135.4865  151.1012 C   0  0  0  0  0  0  0  0  0  0  0  0
  145.7341  134.1728  150.4192 N   0  3  2  0  0  0  0  0  0  0  0  0
  144.5227  133.3216  150.5685 C   0  0  0  0  0  0  0  0  0  0  0  0
  144.6972  131.9222  149.9444 C   0  0  1  0  0  0  0  0  0  0  0  0
  145.3268  130.9328  150.9334 C   0  0  0  0  0  0  0  0  0  0  0  0
  143.4329  131.4125  149.5707 O   0  0  0  0  0  0  0  0  0  0  0  0
  147.0133  133.4983  150.7657 C   0  0  0  0  0  0  0  0  0  0  0  0
  147.2255  133.3864  152.2904 C   0  0  0  0  0  0  0  0  0  0  0  0
  150.6174  131.4570  154.9370 C   0  0  0  0  0  0  0  0  0  0  0  0
  151.3663  132.3049  155.7721 C   0  0  0  0  0  0  0  0  0  0  0  0
  152.7509  132.0843  155.9267 C   0  0  0  0  0  0  0  0  0  0  0  0
  153.5515  133.0031  156.8325 C   0  0  0  0  0  0  0  0  0  0  0  0
  155.1806  129.8963  154.7936 H   0  0  0  0  0  0  0  0  0  0  0  0
  155.1126  130.5446  156.4308 H   0  0  0  0  0  0  0  0  0  0  0  0
  155.4379  131.6189  155.0622 H   0  0  0  0  0  0  0  0  0  0  0  0
  153.0859  129.3467  153.8846 H   0  0  0  0  0  0  0  0  0  0  0  0
  148.2376  130.0564  153.3040 H   0  0  0  0  0  0  0  0  0  0  0  0
  147.3098  132.0447  154.4129 H   0  0  0  0  0  0  0  0  0  0  0  0
  147.9747  132.0847  156.0312 H   0  0  0  0  0  0  0  0  0  0  0  0
  149.3342  133.8587  154.0389 H   0  0  0  0  0  0  0  0  0  0  0  0
  149.2955  135.1764  155.9252 H   0  0  0  0  0  0  0  0  0  0  0  0
  146.4377  134.3164  154.9149 H   0  0  0  0  0  0  0  0  0  0  0  0
  147.5266  135.6734  154.7942 H   0  0  0  0  0  0  0  0  0  0  0  0
  144.9873  134.7838  153.0607 H   0  0  0  0  0  0  0  0  0  0  0  0
  145.7688  136.3508  153.0739 H   0  0  0  0  0  0  0  0  0  0  0  0
  144.6706  135.9606  150.8653 H   0  0  0  0  0  0  0  0  0  0  0  0
  146.3952  136.1457  150.7000 H   0  0  0  0  0  0  0  0  0  0  0  0
  144.2611  133.2340  151.6230 H   0  0  0  0  0  0  0  0  0  0  0  0
  143.6688  133.8052  150.0910 H   0  0  0  0  0  0  0  0  0  0  0  0
  145.3276  131.9649  149.0570 H   0  0  0  0  0  0  0  0  0  0  0  0
  146.3193  131.2639  151.2395 H   0  0  0  0  0  0  0  0  0  0  0  0
  145.4348  129.9441  150.4862 H   0  0  0  0  0  0  0  0  0  0  0  0
  144.7194  130.8255  151.8329 H   0  0  0  0  0  0  0  0  0  0  0  0
  142.8406  131.4813  150.3035 H   0  0  0  0  0  0  0  0  0  0  0  0
  147.0743  132.5143  150.3023 H   0  0  0  0  0  0  0  0  0  0  0  0
  147.8278  134.0824  150.3349 H   0  0  0  0  0  0  0  0  0  0  0  0
  148.2127  132.9636  152.4724 H   0  0  0  0  0  0  0  0  0  0  0  0
  146.5086  132.6895  152.7261 H   0  0  0  0  0  0  0  0  0  0  0  0
  150.8801  133.1161  156.2931 H   0  0  0  0  0  0  0  0  0  0  0  0
  152.9186  133.7673  157.2846 H   0  0  0  0  0  0  0  0  0  0  0  0
  154.3352  133.5082  156.2677 H   0  0  0  0  0  0  0  0  0  0  0  0
  154.0164  132.4349  157.6383 H   0  0  0  0  0  0  0  0  0  0  0  0
  145.7780  134.3852  149.4323 H   0  0  0  0  0  0  0  0  0  0  0  0
  147.8211  135.3055  152.5725 H   0  0  0  0  0  0  0  0  0  0  0  0
  1  2  1  0  0  0  0
  1 26  1  0  0  0  0
  1 27  1  0  0  0  0
  1 28  1  0  0  0  0
  2 24  1  0  0  0  0
  2  3  2  0  0  0  0
  3  4  1  0  0  0  0
  3 29  1  0  0  0  0
  4 22  2  0  0  0  0
  4  5  1  0  0  0  0
  5  6  2  0  0  0  0
  6  7  1  0  0  0  0
  6 30  1  0  0  0  0
  7  8  1  0  0  0  0
  7 22  1  0  0  0  0
  8  9  1  0  0  0  0
  8 31  1  0  0  0  0
  8 32  1  0  0  0  0
  9 10  1  0  0  0  0
  9 11  1  0  0  0  0
  9 33  1  0  0  0  0
 10 34  1  0  0  0  0
 11 12  1  0  0  0  0
 11 35  1  0  0  0  0
 11 36  1  0  0  0  0
 12 21  1  0  0  0  0
 12 13  1  0  0  0  0
 12 57  1  0  0  0  0
 13 14  1  0  0  0  0
 13 37  1  0  0  0  0
 13 38  1  0  0  0  0
 14 15  1  0  0  0  0
 14 39  1  0  0  0  0
 14 40  1  0  0  0  0
 15 16  1  0  0  0  0
 15 20  1  0  0  0  0
 15 56  1  0  0  0  0
 16 17  1  0  0  0  0
 16 41  1  0  0  0  0
 16 42  1  0  0  0  0
 17 18  1  0  0  0  0
 17 19  1  0  0  0  0
 17 43  1  0  0  0  0
 18 44  1  0  0  0  0
 18 45  1  0  0  0  0
 18 46  1  0  0  0  0
 19 47  1  0  0  0  0
 20 21  1  0  0  0  0
 20 48  1  0  0  0  0
 20 49  1  0  0  0  0
 21 50  1  0  0  0  0
 21 51  1  0  0  0  0
 22 23  1  0  0  0  0
 23 24  2  0  0  0  0
 23 52  1  0  0  0  0
 24 25  1  0  0  0  0
 25 53  1  0  0  0  0
 25 54  1  0  0  0  0
 25 55  1  0  0  0  0
M  CHG  1  12   1
M  CHG  1  15   1
M  END
> <s_m_source_file>
AV-unprocessed.smi

> <i_m_source_file_index>
1033

> <i_lp_mmshare_version>
43012

> <i_f3d_flags>
0

> <s_epik_input>
W0NIM11jKFtjSF0xKWMoW0NIM10pW2NIXWMoYzEyKW4oW2NIXW4yKVtDSDJdW0NASF0oW09IXSlbQ0gyXU4zW0NIMl1bQ0gyXU4oW0NIMl1bQ0gyXTMpW0NIMl1bQ0BIXShbQ0gzXSlbT0hd

> <s_epik_cmdline>
J2VwaWtfcHl0aG9uJywgJy1waCcsICc3LjAnLCAnLXRuJywgJzgnLCAnLW1hJywgJzIwMCcsICctbWV0YWxfYmluZGluZycsICctaW1hZScsICc8aW5maWxlLm1hZT4nLCAnLW9tYWUnLCAnPG91dGZpbGUubWFlPic=

> <r_epik_Ionization_Penalty>
3.16016

> <r_epik_Ionization_Penalty_Charging>
3.07679

> <r_epik_Ionization_Penalty_Neutral>
0.083365

> <r_epik_State_Penalty>
2.09701

> <r_epik_Charging_Adjusted_Penalty>
5.1738

> <i_epik_Tot_Q>
2

> <i_epik_Tot_abs_Q>
2

> <r_epik_Metal_State_Penalty>
2.02534

> <b_epik_Metal_Only>
0

> <s_lp_Force_Field>
OPLS_2005

> <r_lp_Energy>
31.6916

> <b_lp_Chiralities_Consistent>
1

> <s_lp_Variant>
AV-unprocessed.smi:1033-23

> <Gold.Version>
5.8.1

> <Gold.Id.Protein>
6NUR|6NUR_protein|mol2

> <Gold.PLP.Fitness>
53.4082

> <Gold.PLP.PLP>
-43.9311

> <Gold.PLP.part.hbond>
-4.8502

> <Gold.PLP.part.metal>
0.0000

> <Gold.PLP.part.buried>
-5.3719

> <Gold.PLP.part.nonpolar>
-33.3374

> <Gold.PLP.part.repulsive>
0.2278

> <Gold.PLP.ligand.clash>
0.0033

> <Gold.PLP.ligand.torsion>
1.2974

> <Gold.PLP.Chemscore.Hbond>
4.0000

> <Gold.PLP.Chemscore.CHOScore>
0.0000

> <Gold.PLP.Chemscore.Metal>
0.0000

> <Gold.Chemscore.Hbonds>
donor molecule, donor type, donor heavy atom, donor atom, acceptor molecule, acceptor atom, score
      L1  H    12    57       P1  7948  2.00
      L1  H    15    56       P1  7921  1.00
      P1  H 10785 10796       L1    19  1.00

> <Gold.PLP.Chemscore.Internal.Correction>
0.0751

> <Gold.Rescore>
     Score         DG    S(hbond)    S(metal)    S(lipo)     H(rot)  DE(clash)    DE(int)     intcor
     16.67     -18.97       2.85        0.00     102.61       3.14       0.14       2.16       ----

> <Gold.Chemscore.Fitness>
16.6700

> <Gold.Chemscore.DG>
-18.9739

> <Gold.Chemscore.ZeroCoef>
-5.4800

> <Gold.Chemscore.Hbond>
2.8508

> <Gold.Chemscore.Metal>
0.0000

> <Gold.Chemscore.Lipo>
102.6108

> <Gold.Chemscore.Internal_Hbond>
0.0000

> <Gold.Chemscore.DEClash>
0.1417

> <Gold.Chemscore.DEInternal>
2.1622

> <Gold.Chemscore.Rot>
3.1380

> <Gold.Chemscore.Internal.Correction>
   9.000000E+99

> <Gold.Chemscore.Hbonds>
donor molecule, donor type, donor heavy atom, donor atom, acceptor molecule, acceptor atom, score
      L1  H    12    57       P1  7948  0.98
      L1  H    15    56       P1  7921  0.70
      L1  H    19    47       P1 10952  0.01
      P1  H 10785 10796       L1    19  0.76

> <Gold.Chemscore.Hbond.Weighted>
-9.5216

> <Gold.Chemscore.Metal.Weighted>
-0.0000

> <Gold.Chemscore.Lipo.Weighted>
-12.0055

> <Gold.Chemscore.Internal_Hbond.Weighted>
0.0000

> <Gold.Chemscore.DEClash.Weighted>
0.1417

> <Gold.Chemscore.DEInternal.Weighted>
2.1622

> <Gold.Chemscore.Rot.Weighted>
8.0332

> <Gold.Chemscore.Internal.Correction.Weighted>
   9.000000E+99

> <Gold.Protein.RotatedTorsions>
[ 6907 6896 6895 6894 ] final  -22.34 input  -60.11 | X-H torsion
[ 7974 7965 7964 7962 ] final  126.78 input  175.53 | X-H torsion
[ 8008 7997 7996 7995 ] final -161.97 input   59.86 | X-H torsion
[ 10167 10162 10161 10158 ] final  171.92 input  -65.29 | X-H torsion
[ 10718 10713 10712 10709 ] final   20.29 input   66.30 | X-H torsion
[ 10763 10752 10751 10750 ] final -169.48 input  -60.55 | X-H torsion
[ 11005 11000 10999 10996 ] final  -23.60 input  -57.11 | X-H torsion

> <Gold.Protein.ActiveResidues>
 VAL166  LYS551  ARG553  GLY616  TRP617  ASP618  TYR619  PRO620  LYS621  CYS622 
 ASP623  PHE694  ASN695  SER759  ASP760  ASP761  ALA762  ILE779  LEU786  VAL792 
 PHE793  MET794  SER795  GLU796  ALA797  LYS798  CYS799  TRP800  GLU811  SER814 

> <Gold.Protein.RotatedAtoms>
  151.2200  135.0515  159.8945 H   0  0  0  0  0  0  0  0  0  0  0  0  # atno 6907 bound_to 6896
  152.5416  134.0651  159.8179 H   0  0  0  0  0  0  0  0  0  0  0  0  # atno 6908 bound_to 6896
  151.0816  133.5338  159.2652 H   0  0  0  0  0  0  0  0  0  0  0  0  # atno 6909 bound_to 6896
  145.0579  139.3829  143.5021 H   0  0  0  0  0  0  0  0  0  0  0  0  # atno 7974 bound_to 7965
  155.8000  140.0890  157.1962 H   0  0  0  0  0  0  0  0  0  0  0  0  # atno 8008 bound_to 7997
  154.3982  140.1474  156.3322 H   0  0  0  0  0  0  0  0  0  0  0  0  # atno 8009 bound_to 7997
  155.8472  140.3436  155.5672 H   0  0  0  0  0  0  0  0  0  0  0  0  # atno 8010 bound_to 7997
  139.5061  144.3432  151.9997 H   0  0  0  0  0  0  0  0  0  0  0  0  # atno 10167 bound_to 10162
  157.1224  130.6555  149.5927 H   0  0  0  0  0  0  0  0  0  0  0  0  # atno 10718 bound_to 10713
  154.6518  135.2912  154.9977 H   0  0  0  0  0  0  0  0  0  0  0  0  # atno 10763 bound_to 10752
  154.1068  135.6568  153.4882 H   0  0  0  0  0  0  0  0  0  0  0  0  # atno 10764 bound_to 10752
  153.0380  135.5255  154.7429 H   0  0  0  0  0  0  0  0  0  0  0  0  # atno 10765 bound_to 10752
  140.8767  133.7682  156.0252 H   0  0  0  0  0  0  0  0  0  0  0  0  # atno 11005 bound_to 11000
  146.3522  140.0262  142.8654 LP  0  0  0  0  0  0  0  0  0  0  0  0  # atno 17320 bound_to 7965
  145.1446  140.9590  143.4468 LP  0  0  0  0  0  0  0  0  0  0  0  0  # atno 17321 bound_to 7965
  140.2870  144.3797  150.6101 LP  0  0  0  0  0  0  0  0  0  0  0  0  # atno 17342 bound_to 10162
  140.5976  143.2167  151.7135 LP  0  0  0  0  0  0  0  0  0  0  0  0  # atno 17343 bound_to 10162
  155.9825  130.4840  150.6887 LP  0  0  0  0  0  0  0  0  0  0  0  0  # atno 17370 bound_to 10713
  157.4465  131.0867  151.0890 LP  0  0  0  0  0  0  0  0  0  0  0  0  # atno 17371 bound_to 10713
  140.8510  134.2954  157.5275 LP  0  0  0  0  0  0  0  0  0  0  0  0  # atno 17394 bound_to 11000
  139.8716  134.9467  156.3947 LP  0  0  0  0  0  0  0  0  0  0  0  0  # atno 17395 bound_to 11000

$$$$
