AV-unprocessed.smi:1680|AV-procd|sdf|6739|dock7
  -GOLD-   22720 7493D 1   1.00000     0.00000
 Structure written by MMmdl.
 37 38  0  0  0  0  0  0  0  0  2 V2000
  153.0932  142.7667  162.5196 C   0  0  0  0  0  0  0  0  0  0  0  0
  152.5710  143.4593  161.2591 C   0  0  0  0  0  0  0  0  0  0  0  0
  152.0190  144.5525  161.3862 O   0  0  0  0  0  0  0  0  0  0  0  0
  152.7311  142.8550  160.0580 N   0  0  0  0  0  0  0  0  0  0  0  0
  152.2189  143.4102  158.8025 C   0  0  0  0  0  0  0  0  0  0  0  0
  151.1356  142.4663  158.2452 C   0  0  0  0  0  0  0  0  0  0  0  0
  151.6937  141.1297  158.0216 N   0  0  0  0  0  0  0  0  0  0  0  0
  150.6603  140.2600  157.4594 C   0  0  0  0  0  0  0  0  0  0  0  0
  150.9863  138.7576  157.5897 C   0  0  0  0  0  0  0  0  0  0  0  0
  149.8150  137.9778  157.9812 N   0  0  0  0  0  0  0  0  0  0  0  0
  149.7162  137.1800  159.0546 C   0  0  0  0  0  0  0  0  0  0  0  0
  150.6717  137.0589  159.8248 O   0  0  0  0  0  0  0  0  0  0  0  0
  148.5134  136.5720  159.1712 N   0  5  0  0  0  0  0  0  0  0  0  0
  148.0284  136.2713  160.3872 C   0  0  0  0  0  0  0  0  0  0  0  0
  147.8109  137.2074  161.3250 N   0  0  0  0  0  0  0  0  0  0  0  0
  147.3119  136.6862  162.5112 N   0  0  0  0  0  0  0  0  0  0  0  0
  147.1723  135.3626  162.4395 C   0  0  0  0  0  0  0  0  0  0  0  0
  147.6418  134.6321  160.9190 S   0  0  0  0  0  0  0  0  0  0  0  0
  152.2300  140.5919  159.2778 C   0  0  0  0  0  0  0  0  0  0  0  0
  153.3185  141.5308  159.8318 C   0  0  0  0  0  0  0  0  0  0  0  0
  152.6077  141.8004  162.6592 H   0  0  0  0  0  0  0  0  0  0  0  0
  152.8895  143.3722  163.4035 H   0  0  0  0  0  0  0  0  0  0  0  0
  154.1715  142.6176  162.4593 H   0  0  0  0  0  0  0  0  0  0  0  0
  151.8029  144.4112  158.9232 H   0  0  0  0  0  0  0  0  0  0  0  0
  153.0383  143.5100  158.0890 H   0  0  0  0  0  0  0  0  0  0  0  0
  150.2914  142.4106  158.9344 H   0  0  0  0  0  0  0  0  0  0  0  0
  150.7576  142.8663  157.3037 H   0  0  0  0  0  0  0  0  0  0  0  0
  149.7016  140.4793  157.9317 H   0  0  0  0  0  0  0  0  0  0  0  0
  150.5391  140.4866  156.3990 H   0  0  0  0  0  0  0  0  0  0  0  0
  151.4545  138.3560  156.6912 H   0  0  0  0  0  0  0  0  0  0  0  0
  151.7263  138.6318  158.3799 H   0  0  0  0  0  0  0  0  0  0  0  0
  149.0066  138.0409  157.3801 H   0  0  0  0  0  0  0  0  0  0  0  0
  146.7947  134.8126  163.2885 H   0  0  0  0  0  0  0  0  0  0  0  0
  151.4286  140.4694  160.0080 H   0  0  0  0  0  0  0  0  0  0  0  0
  152.6677  139.6086  159.1140 H   0  0  0  0  0  0  0  0  0  0  0  0
  154.1378  141.6175  159.1163 H   0  0  0  0  0  0  0  0  0  0  0  0
  153.7558  141.0887  160.7255 H   0  0  0  0  0  0  0  0  0  0  0  0
  1  2  1  0  0  0  0
  1 21  1  0  0  0  0
  1 22  1  0  0  0  0
  1 23  1  0  0  0  0
  2  3  2  0  0  0  0
  2  4  1  0  0  0  0
  4 20  1  0  0  0  0
  4  5  1  0  0  0  0
  5  6  1  0  0  0  0
  5 24  1  0  0  0  0
  5 25  1  0  0  0  0
  6  7  1  0  0  0  0
  6 26  1  0  0  0  0
  6 27  1  0  0  0  0
  7  8  1  0  0  0  0
  7 19  1  0  0  0  0
  8  9  1  0  0  0  0
  8 28  1  0  0  0  0
  8 29  1  0  0  0  0
  9 10  1  0  0  0  0
  9 30  1  0  0  0  0
  9 31  1  0  0  0  0
 10 11  1  0  0  0  0
 10 32  1  0  0  0  0
 11 12  2  0  0  0  0
 11 13  1  0  0  0  0
 13 14  1  0  0  0  0
 14 18  1  0  0  0  0
 14 15  2  0  0  0  0
 15 16  1  0  0  0  0
 16 17  2  0  0  0  0
 17 18  1  0  0  0  0
 17 33  1  0  0  0  0
 19 20  1  0  0  0  0
 19 34  1  0  0  0  0
 19 35  1  0  0  0  0
 20 36  1  0  0  0  0
 20 37  1  0  0  0  0
M  CHG  1  13  -1
M  END
> <s_m_source_file>
AV-unprocessed.smi

> <i_m_source_file_index>
1680

> <i_lp_mmshare_version>
43012

> <i_f3d_flags>
0

> <s_epik_input>
W0NIM11DKD1PKU4xW0NIMl1bQ0gyXU4oW0NIMl1bQ0gyXTEpW0NIMl1bQ0gyXVtOSF1DKD1PKVtOSF1jMm5uW2NIXXMy

> <s_epik_cmdline>
J2VwaWtfcHl0aG9uJywgJy1waCcsICc3LjAnLCAnLXRuJywgJzgnLCAnLW1hJywgJzIwMCcsICctbWV0YWxfYmluZGluZycsICctaW1hZScsICc8aW5maWxlLm1hZT4nLCAnLW9tYWUnLCAnPG91dGZpbGUubWFlPic=

> <r_lp_tautomer_probability>
1

> <r_epik_Ionization_Penalty>
3.80493

> <r_epik_Ionization_Penalty_Charging>
3.53258

> <r_epik_Ionization_Penalty_Neutral>
0.272353

> <r_epik_State_Penalty>
3.75006

> <r_epik_Charging_Adjusted_Penalty>
7.28264

> <i_epik_Tot_Q>
-1

> <i_epik_Tot_abs_Q>
1

> <r_epik_Metal_State_Penalty>
0.749383

> <b_epik_Metal_Only>
1

> <s_lp_Force_Field>
OPLS_2005

> <r_lp_Energy>
35.6067

> <b_lp_Chiralities_Consistent>
1

> <s_lp_Variant>
AV-unprocessed.smi:1680-3

> <Gold.Version>
5.8.1

> <Gold.Id.Protein>
6NUR|6NUR_protein|mol2

> <Gold.PLP.Fitness>
47.3473

> <Gold.PLP.PLP>
-41.4517

> <Gold.PLP.part.hbond>
-3.3857

> <Gold.PLP.part.metal>
0.0000

> <Gold.PLP.part.buried>
-6.8919

> <Gold.PLP.part.nonpolar>
-31.7678

> <Gold.PLP.part.repulsive>
0.6146

> <Gold.PLP.ligand.clash>
0.0000

> <Gold.PLP.ligand.torsion>
1.2253

> <Gold.PLP.Chemscore.Hbond>
2.7680

> <Gold.PLP.Chemscore.CHOScore>
0.0000

> <Gold.PLP.Chemscore.Metal>
0.0000

> <Gold.Chemscore.Hbonds>
donor molecule, donor type, donor heavy atom, donor atom, acceptor molecule, acceptor atom, score
      P1  H  6896  6907       L1    12  1.00
      P1  H  6931  6943       L1    15  1.00
      P1  H  6934  6947       L1    15  0.77

> <Gold.PLP.Chemscore.Internal.Correction>
0.0422

> <Gold.Rescore>
     Score         DG    S(hbond)    S(metal)    S(lipo)     H(rot)  DE(clash)    DE(int)     intcor
     15.92     -17.21       2.35        0.00      71.72       1.77       0.08       1.21       ----

> <Gold.Chemscore.Fitness>
15.9152

> <Gold.Chemscore.DG>
-17.2074

> <Gold.Chemscore.ZeroCoef>
-5.4800

> <Gold.Chemscore.Hbond>
2.3521

> <Gold.Chemscore.Metal>
0.0000

> <Gold.Chemscore.Lipo>
71.7213

> <Gold.Chemscore.Internal_Hbond>
0.0000

> <Gold.Chemscore.DEClash>
0.0775

> <Gold.Chemscore.DEInternal>
1.2147

> <Gold.Chemscore.Rot>
1.7657

> <Gold.Chemscore.Internal.Correction>
   9.000000E+99

> <Gold.Chemscore.Hbonds>
donor molecule, donor type, donor heavy atom, donor atom, acceptor molecule, acceptor atom, score
      P1  H  6896  6907       L1    12  0.75
      P1  H  6931  6943       L1    15  0.28
      P1  H  6934  6947       L1    15  0.66

> <Gold.Chemscore.Hbond.Weighted>
-7.8561

> <Gold.Chemscore.Metal.Weighted>
-0.0000

> <Gold.Chemscore.Lipo.Weighted>
-8.3914

> <Gold.Chemscore.Internal_Hbond.Weighted>
0.0000

> <Gold.Chemscore.DEClash.Weighted>
0.0775

> <Gold.Chemscore.DEInternal.Weighted>
1.2147

> <Gold.Chemscore.Rot.Weighted>
4.5201

> <Gold.Chemscore.Internal.Correction.Weighted>
   9.000000E+99

> <Gold.Protein.RotatedTorsions>
[ 6907 6896 6895 6894 ] final  -17.27 input  -60.11 | X-H torsion
[ 7974 7965 7964 7962 ] final  -69.14 input  175.53 | X-H torsion
[ 8008 7997 7996 7995 ] final   35.50 input   59.86 | X-H torsion
[ 10167 10162 10161 10158 ] final  109.40 input  -65.29 | X-H torsion
[ 10718 10713 10712 10709 ] final  -65.21 input   66.30 | X-H torsion
[ 10763 10752 10751 10750 ] final   43.83 input  -60.55 | X-H torsion
[ 11005 11000 10999 10996 ] final   13.79 input  -57.11 | X-H torsion

> <Gold.Protein.ActiveResidues>
 VAL166  LYS551  ARG553  GLY616  TRP617  ASP618  TYR619  PRO620  LYS621  CYS622 
 ASP623  PHE694  ASN695  SER759  ASP760  ASP761  ALA762  ILE779  LEU786  VAL792 
 PHE793  MET794  SER795  GLU796  ALA797  LYS798  CYS799  TRP800  GLU811  SER814 

> <Gold.Protein.RotatedAtoms>
  151.2959  135.0755  159.9220 H   0  0  0  0  0  0  0  0  0  0  0  0  # atno 6907 bound_to 6896
  152.5307  133.9883  159.7849 H   0  0  0  0  0  0  0  0  0  0  0  0  # atno 6908 bound_to 6896
  151.0161  133.5868  159.2707 H   0  0  0  0  0  0  0  0  0  0  0  0  # atno 6909 bound_to 6896
  145.7076  140.9091  143.0698 H   0  0  0  0  0  0  0  0  0  0  0  0  # atno 7974 bound_to 7965
  155.1721  140.3292  155.4390 H   0  0  0  0  0  0  0  0  0  0  0  0  # atno 8008 bound_to 7997
  156.2506  140.1941  156.6774 H   0  0  0  0  0  0  0  0  0  0  0  0  # atno 8009 bound_to 7997
  154.6330  140.0580  156.9741 H   0  0  0  0  0  0  0  0  0  0  0  0  # atno 8010 bound_to 7997
  139.6769  144.7121  151.1585 H   0  0  0  0  0  0  0  0  0  0  0  0  # atno 10167 bound_to 10162
  156.0683  130.4244  150.1531 H   0  0  0  0  0  0  0  0  0  0  0  0  # atno 10718 bound_to 10713
  152.9852  135.6089  154.3176 H   0  0  0  0  0  0  0  0  0  0  0  0  # atno 10763 bound_to 10752
  154.2888  135.2775  155.2666 H   0  0  0  0  0  0  0  0  0  0  0  0  # atno 10764 bound_to 10752
  154.4971  135.5876  153.6559 H   0  0  0  0  0  0  0  0  0  0  0  0  # atno 10765 bound_to 10752
  140.4767  134.0976  155.7743 H   0  0  0  0  0  0  0  0  0  0  0  0  # atno 11005 bound_to 11000
  144.6951  139.9031  143.7459 LP  0  0  0  0  0  0  0  0  0  0  0  0  # atno 17320 bound_to 7965
  146.0742  139.3730  143.0504 LP  0  0  0  0  0  0  0  0  0  0  0  0  # atno 17321 bound_to 7965
  140.7638  143.5758  150.8947 LP  0  0  0  0  0  0  0  0  0  0  0  0  # atno 17342 bound_to 10162
  139.9427  143.6363  152.3049 LP  0  0  0  0  0  0  0  0  0  0  0  0  # atno 17343 bound_to 10162
  156.9587  130.9798  151.3483 LP  0  0  0  0  0  0  0  0  0  0  0  0  # atno 17370 bound_to 10713
  157.5738  130.8329  149.8428 LP  0  0  0  0  0  0  0  0  0  0  0  0  # atno 17371 bound_to 10713
  141.1551  133.8898  157.1999 LP  0  0  0  0  0  0  0  0  0  0  0  0  # atno 17394 bound_to 11000
  139.9851  135.0085  156.9844 LP  0  0  0  0  0  0  0  0  0  0  0  0  # atno 17395 bound_to 11000

$$$$
