AV-unprocessed.smi:232|AV-procd|sdf|1776|dock10
  -GOLD-   2262020323D 1   1.00000     0.00000
 Structure written by MMmdl.
 52 55  0  0  0  0  0  0  0  0  1 V2000
  152.6305  138.4069  154.7503 C   0  0  0  0  0  0  0  0  0  0  0  0
  151.1284  138.0983  154.7407 C   0  0  0  0  0  0  0  0  0  0  0  0
  150.2741  139.2138  155.3804 C   0  0  1  0  0  0  0  0  0  0  0  0
  151.0006  140.5631  155.4967 C   0  0  0  0  0  0  0  0  0  0  0  0
  149.9072  141.6209  155.3037 C   0  0  0  0  0  0  0  0  0  0  0  0
  148.6171  140.8138  155.1257 C   0  0  1  0  0  0  0  0  0  0  0  0
  147.5914  141.4915  154.2029 C   0  0  0  0  0  0  0  0  0  0  0  0
  149.0609  139.5163  154.6291 N   0  0  0  0  0  0  0  0  0  0  0  0
  148.1381  138.5250  154.6183 C   0  0  0  0  0  0  0  0  0  0  0  0
  148.0261  137.6707  155.6702 N   0  0  0  0  0  0  0  0  0  0  0  0
  147.1226  136.6862  155.6372 C   0  0  0  0  0  0  0  0  0  0  0  0
  146.2561  136.3793  154.6686 N   0  0  0  0  0  0  0  0  0  0  0  0
  146.3716  137.2345  153.6119 C   0  0  0  0  0  0  0  0  0  0  0  0
  147.2766  138.3267  153.5083 C   0  0  0  0  0  0  0  0  0  0  0  0
  147.1090  138.9746  152.2910 N   0  0  0  0  0  0  0  0  0  0  0  0
  146.1578  138.3002  151.7044 C   0  0  0  0  0  0  0  0  0  0  0  0
  145.6606  137.2378  152.4251 N   0  0  0  0  0  0  0  0  0  0  0  0
  144.6130  136.3239  152.0069 C   0  0  0  0  0  0  0  0  0  0  0  0
  145.0727  135.3780  150.8802 C   0  0  2  0  0  0  0  0  0  0  0  0
  144.7407  135.9496  149.6292 O   0  0  0  0  0  0  0  0  0  0  0  0
  144.4194  133.9876  150.9839 C   0  0  1  0  0  0  0  0  0  0  0  0
  144.8822  132.9906  149.9200 C   0  0  0  0  0  0  0  0  0  0  0  0
  144.5843  131.6694  150.5902 C   0  0  0  0  0  0  0  0  0  0  0  0
  144.9577  131.9649  152.0397 C   0  0  0  0  0  0  0  0  0  0  0  0
  144.7641  133.3656  152.2202 O   0  0  0  0  0  0  0  0  0  0  0  0
  153.1977  137.5795  154.3236 H   0  0  0  0  0  0  0  0  0  0  0  0
  152.9913  138.5669  155.7666 H   0  0  0  0  0  0  0  0  0  0  0  0
  152.8595  139.2987  154.1669 H   0  0  0  0  0  0  0  0  0  0  0  0
  150.7979  137.9182  153.7170 H   0  0  0  0  0  0  0  0  0  0  0  0
  150.9765  137.1614  155.2773 H   0  0  0  0  0  0  0  0  0  0  0  0
  149.9765  138.8968  156.3819 H   0  0  0  0  0  0  0  0  0  0  0  0
  151.5051  140.6616  156.4581 H   0  0  0  0  0  0  0  0  0  0  0  0
  151.7540  140.6723  154.7155 H   0  0  0  0  0  0  0  0  0  0  0  0
  149.8383  142.3085  156.1473 H   0  0  0  0  0  0  0  0  0  0  0  0
  150.1236  142.2106  154.4119 H   0  0  0  0  0  0  0  0  0  0  0  0
  148.1687  140.6823  156.1118 H   0  0  0  0  0  0  0  0  0  0  0  0
  147.3170  142.4753  154.5838 H   0  0  0  0  0  0  0  0  0  0  0  0
  146.6768  140.9030  154.1249 H   0  0  0  0  0  0  0  0  0  0  0  0
  147.9900  141.6211  153.1961 H   0  0  0  0  0  0  0  0  0  0  0  0
  147.0922  136.0509  156.5101 H   0  0  0  0  0  0  0  0  0  0  0  0
  145.7906  138.5596  150.7221 H   0  0  0  0  0  0  0  0  0  0  0  0
  144.3014  135.7499  152.8801 H   0  0  0  0  0  0  0  0  0  0  0  0
  143.7443  136.9031  151.6914 H   0  0  0  0  0  0  0  0  0  0  0  0
  146.1572  135.2686  150.9225 H   0  0  0  0  0  0  0  0  0  0  0  0
  144.7225  136.8898  149.7246 H   0  0  0  0  0  0  0  0  0  0  0  0
  143.3321  134.0743  150.9469 H   0  0  0  0  0  0  0  0  0  0  0  0
  144.3653  133.1120  148.9675 H   0  0  0  0  0  0  0  0  0  0  0  0
  145.9546  133.0853  149.7425 H   0  0  0  0  0  0  0  0  0  0  0  0
  143.5197  131.4438  150.5139 H   0  0  0  0  0  0  0  0  0  0  0  0
  145.1434  130.8347  150.1666 H   0  0  0  0  0  0  0  0  0  0  0  0
  144.3611  131.3867  152.7456 H   0  0  0  0  0  0  0  0  0  0  0  0
  146.0088  131.7358  152.2186 H   0  0  0  0  0  0  0  0  0  0  0  0
  1  2  1  0  0  0  0
  1 26  1  0  0  0  0
  1 27  1  0  0  0  0
  1 28  1  0  0  0  0
  2  3  1  0  0  0  0
  2 29  1  0  0  0  0
  2 30  1  0  0  0  0
  3  8  1  0  0  0  0
  3  4  1  0  0  0  0
  3 31  1  0  0  0  0
  4  5  1  0  0  0  0
  4 32  1  0  0  0  0
  4 33  1  0  0  0  0
  5  6  1  0  0  0  0
  5 34  1  0  0  0  0
  5 35  1  0  0  0  0
  6  7  1  0  0  0  0
  6  8  1  0  0  0  0
  6 36  1  0  0  0  0
  7 37  1  0  0  0  0
  7 38  1  0  0  0  0
  7 39  1  0  0  0  0
  8  9  1  0  0  0  0
  9 14  1  0  0  0  0
  9 10  2  0  0  0  0
 10 11  1  0  0  0  0
 11 12  2  0  0  0  0
 11 40  1  0  0  0  0
 12 13  1  0  0  0  0
 13 17  1  0  0  0  0
 13 14  2  0  0  0  0
 14 15  1  0  0  0  0
 15 16  2  0  0  0  0
 16 17  1  0  0  0  0
 16 41  1  0  0  0  0
 17 18  1  0  0  0  0
 18 19  1  0  0  0  0
 18 42  1  0  0  0  0
 18 43  1  0  0  0  0
 19 20  1  0  0  0  0
 19 21  1  0  0  0  0
 19 44  1  0  0  0  0
 20 45  1  0  0  0  0
 21 25  1  0  0  0  0
 21 22  1  0  0  0  0
 21 46  1  0  0  0  0
 22 23  1  0  0  0  0
 22 47  1  0  0  0  0
 22 48  1  0  0  0  0
 23 24  1  0  0  0  0
 23 49  1  0  0  0  0
 23 50  1  0  0  0  0
 24 25  1  0  0  0  0
 24 51  1  0  0  0  0
 24 52  1  0  0  0  0
M  END
> <s_m_source_file>
AV-unprocessed.smi

> <i_m_source_file_index>
232

> <i_lp_mmshare_version>
43012

> <i_f3d_flags>
0

> <s_epik_input>
W0NIM11bQ0gyXVtDQEBIXTFbQ0gyXVtDSDJdW0NAQEhdKFtDSDNdKU4xYyhuW2NIXW4yKWMoYzIzKW5bY0hdbjNbQ0gyXVtDQEhdKFtPSF0pW0NAQEhdNFtDSDJdW0NIMl1bQ0gyXU80

> <s_epik_cmdline>
J2VwaWtfcHl0aG9uJywgJy1waCcsICc3LjAnLCAnLXRuJywgJzgnLCAnLW1hJywgJzIwMCcsICctbWV0YWxfYmluZGluZycsICctaW1hZScsICc8aW5maWxlLm1hZT4nLCAnLW9tYWUnLCAnPG91dGZpbGUubWFlPic=

> <r_lp_tautomer_probability>
1

> <r_epik_Ionization_Penalty>
0.00258048

> <r_epik_Ionization_Penalty_Charging>
0

> <r_epik_Ionization_Penalty_Neutral>
0.00258048

> <r_epik_State_Penalty>
0.00168551

> <r_epik_Charging_Adjusted_Penalty>
0.00168551

> <i_epik_Tot_Q>
0

> <i_epik_Tot_abs_Q>
0

> <r_epik_Metal_State_Penalty>
-0

> <b_epik_Metal_Only>
0

> <s_lp_Force_Field>
OPLS_2005

> <r_lp_Energy>
51.3027

> <b_lp_Chiralities_Consistent>
1

> <s_lp_Variant>
AV-unprocessed.smi:232-10

> <Gold.Version>
5.8.1

> <Gold.Id.Protein>
6NUR|6NUR_protein|mol2

> <Gold.PLP.Fitness>
42.3366

> <Gold.PLP.PLP>
-40.0024

> <Gold.PLP.part.hbond>
-2.0000

> <Gold.PLP.part.metal>
0.0000

> <Gold.PLP.part.buried>
-1.9228

> <Gold.PLP.part.nonpolar>
-37.5594

> <Gold.PLP.part.repulsive>
1.9697

> <Gold.PLP.ligand.clash>
0.0000

> <Gold.PLP.ligand.torsion>
1.8951

> <Gold.PLP.Chemscore.Hbond>
1.0000

> <Gold.PLP.Chemscore.CHOScore>
1.0000

> <Gold.PLP.Chemscore.Metal>
0.0000

> <Gold.Chemscore.Hbonds>
donor molecule, donor type, donor heavy atom, donor atom, acceptor molecule, acceptor atom, score
      L1  H    20    45       P1 10171  1.00
      L1  C    16    41       P1 10171  1.00

> <Gold.PLP.Chemscore.Internal.Correction>
0.1243

> <Gold.Rescore>
     Score         DG    S(hbond)    S(metal)    S(lipo)     H(rot)  DE(clash)    DE(int)     intcor
     10.91     -13.60       0.96        0.00      95.07       2.43       0.74       1.95       ----

> <Gold.Chemscore.Fitness>
10.9057

> <Gold.Chemscore.DG>
-13.5957

> <Gold.Chemscore.ZeroCoef>
-5.4800

> <Gold.Chemscore.Hbond>
0.9589

> <Gold.Chemscore.Metal>
0.0000

> <Gold.Chemscore.Lipo>
95.0733

> <Gold.Chemscore.Internal_Hbond>
0.0000

> <Gold.Chemscore.DEClash>
0.7403

> <Gold.Chemscore.DEInternal>
1.9498

> <Gold.Chemscore.Rot>
2.4260

> <Gold.Chemscore.Internal.Correction>
   9.000000E+99

> <Gold.Chemscore.Hbonds>
donor molecule, donor type, donor heavy atom, donor atom, acceptor molecule, acceptor atom, score
      L1  H    20    45       P1 10171  0.98

> <Gold.Chemscore.Hbond.Weighted>
-3.2028

> <Gold.Chemscore.Metal.Weighted>
-0.0000

> <Gold.Chemscore.Lipo.Weighted>
-11.1236

> <Gold.Chemscore.Internal_Hbond.Weighted>
0.0000

> <Gold.Chemscore.DEClash.Weighted>
0.7403

> <Gold.Chemscore.DEInternal.Weighted>
1.9498

> <Gold.Chemscore.Rot.Weighted>
6.2107

> <Gold.Chemscore.Internal.Correction.Weighted>
   9.000000E+99

> <Gold.Protein.RotatedTorsions>
[ 6907 6896 6895 6894 ] final    8.39 input  -60.11 | X-H torsion
[ 7974 7965 7964 7962 ] final   85.69 input  175.53 | X-H torsion
[ 8008 7997 7996 7995 ] final   10.10 input   59.86 | X-H torsion
[ 10167 10162 10161 10158 ] final -124.01 input  -65.29 | X-H torsion
[ 10718 10713 10712 10709 ] final -116.11 input   66.30 | X-H torsion
[ 10763 10752 10751 10750 ] final  171.14 input  -60.55 | X-H torsion
[ 11005 11000 10999 10996 ] final   29.34 input  -57.11 | X-H torsion

> <Gold.Protein.ActiveResidues>
 VAL166  LYS551  ARG553  GLY616  TRP617  ASP618  TYR619  PRO620  LYS621  CYS622 
 ASP623  PHE694  ASN695  SER759  ASP760  ASP761  ALA762  ILE779  LEU786  VAL792 
 PHE793  MET794  SER795  GLU796  ALA797  LYS798  CYS799  TRP800  GLU811  SER814 

> <Gold.Protein.RotatedAtoms>
  151.7053  135.0923  160.0257 H   0  0  0  0  0  0  0  0  0  0  0  0  # atno 6907 bound_to 6896
  152.3695  133.6396  159.6085 H   0  0  0  0  0  0  0  0  0  0  0  0  # atno 6908 bound_to 6896
  150.7663  133.9209  159.3439 H   0  0  0  0  0  0  0  0  0  0  0  0  # atno 6909 bound_to 6896
  145.5822  139.2326  143.2346 H   0  0  0  0  0  0  0  0  0  0  0  0  # atno 7974 bound_to 7965
  154.7888  140.2832  155.6007 H   0  0  0  0  0  0  0  0  0  0  0  0  # atno 8008 bound_to 7997
  156.2961  140.2609  156.2659 H   0  0  0  0  0  0  0  0  0  0  0  0  # atno 8009 bound_to 7997
  154.9695  140.0376  157.2217 H   0  0  0  0  0  0  0  0  0  0  0  0  # atno 8010 bound_to 7997
  139.9973  143.5577  152.2318 H   0  0  0  0  0  0  0  0  0  0  0  0  # atno 10167 bound_to 10162
  156.0941  130.6118  150.8994 H   0  0  0  0  0  0  0  0  0  0  0  0  # atno 10718 bound_to 10713
  154.4077  135.2756  155.2057 H   0  0  0  0  0  0  0  0  0  0  0  0  # atno 10763 bound_to 10752
  154.4056  135.6034  153.5926 H   0  0  0  0  0  0  0  0  0  0  0  0  # atno 10764 bound_to 10752
  152.9831  135.5937  154.4354 H   0  0  0  0  0  0  0  0  0  0  0  0  # atno 10765 bound_to 10752
  140.3060  134.2703  155.7744 H   0  0  0  0  0  0  0  0  0  0  0  0  # atno 11005 bound_to 11000
  146.1708  140.6648  142.9234 LP  0  0  0  0  0  0  0  0  0  0  0  0  # atno 17320 bound_to 7965
  144.7389  140.4886  143.6884 LP  0  0  0  0  0  0  0  0  0  0  0  0  # atno 17321 bound_to 7965
  139.6296  144.7642  151.2564 LP  0  0  0  0  0  0  0  0  0  0  0  0  # atno 17342 bound_to 10162
  140.7432  143.6502  150.8255 LP  0  0  0  0  0  0  0  0  0  0  0  0  # atno 17343 bound_to 10162
  157.6098  131.0937  150.8815 LP  0  0  0  0  0  0  0  0  0  0  0  0  # atno 17370 bound_to 10713
  156.8956  130.5228  149.5284 LP  0  0  0  0  0  0  0  0  0  0  0  0  # atno 17371 bound_to 10713
  141.2118  133.7677  156.9837 LP  0  0  0  0  0  0  0  0  0  0  0  0  # atno 17394 bound_to 11000
  140.1067  134.9502  157.2004 LP  0  0  0  0  0  0  0  0  0  0  0  0  # atno 17395 bound_to 11000

$$$$
