AV-unprocessed.smi:396|AV-procd|sdf|2487|dock1
  -GOLD-   2262022433D 1   1.00000     0.00000
 Structure written by MMmdl.
 40 42  0  0  0  0  0  0  0  0  1 V2000
  151.2723  136.0817  154.6780 N   0  0  0  0  0  0  0  0  0  0  0  0
  150.7358  136.9965  155.1414 C   0  0  0  0  0  0  0  0  0  0  0  0
  150.0480  138.1117  155.7025 C   0  0  0  0  0  0  0  0  0  0  0  0
  148.9174  137.9605  156.4224 C   0  0  0  0  0  0  0  0  0  0  0  0
  148.2473  139.0264  156.9820 N   0  0  0  0  0  0  0  0  0  0  0  0
  146.9765  138.8574  157.6286 C   0  0  0  0  0  0  0  0  0  0  0  0
  146.4625  137.4677  157.9521 C   0  0  0  0  0  0  0  0  0  0  0  0
  145.8256  138.2677  156.8425 C   0  0  0  0  0  0  0  0  0  0  0  0
  148.6865  140.3466  156.7417 C   0  0  0  0  0  0  0  0  0  0  0  0
  148.0536  141.3171  157.1656 O   0  0  0  0  0  0  0  0  0  0  0  0
  149.8786  140.5231  155.9979 N   0  0  0  0  0  0  0  0  0  0  0  0
  150.3903  141.8969  155.7984 C   0  0  0  0  0  0  0  0  0  0  0  0
  150.9972  142.5126  157.0682 C   0  0  0  0  0  0  0  0  0  0  0  0
  151.5339  141.8073  157.9243 O   0  0  0  0  0  0  0  0  0  0  0  0
  150.9087  143.8471  157.1702 N   0  0  0  0  0  0  0  0  0  0  0  0
  151.4201  144.6367  158.2873 C   0  0  0  0  0  0  0  0  0  0  0  0
  152.9218  144.3704  158.4973 C   0  0  0  0  0  0  0  0  0  0  0  0
  153.0282  143.5548  159.7862 C   0  0  0  0  0  0  0  0  0  0  0  0
  151.8531  144.0387  160.6295 C   0  0  0  0  0  0  0  0  0  0  0  0
  150.7297  144.2641  159.6162 C   0  0  0  0  0  0  0  0  0  0  0  0
  150.6170  139.4361  155.4640 C   0  0  0  0  0  0  0  0  0  0  0  0
  151.6661  139.6235  154.8452 O   0  0  0  0  0  0  0  0  0  0  0  0
  148.5244  136.9657  156.5755 H   0  0  0  0  0  0  0  0  0  0  0  0
  146.7114  139.6372  158.3404 H   0  0  0  0  0  0  0  0  0  0  0  0
  147.0702  136.6127  157.6615 H   0  0  0  0  0  0  0  0  0  0  0  0
  145.8978  137.3453  158.8738 H   0  0  0  0  0  0  0  0  0  0  0  0
  144.8341  138.6776  157.0229 H   0  0  0  0  0  0  0  0  0  0  0  0
  146.0152  137.9402  155.8220 H   0  0  0  0  0  0  0  0  0  0  0  0
  151.1432  141.9269  155.0092 H   0  0  0  0  0  0  0  0  0  0  0  0
  149.6011  142.5561  155.4331 H   0  0  0  0  0  0  0  0  0  0  0  0
  150.4544  144.3526  156.4234 H   0  0  0  0  0  0  0  0  0  0  0  0
  151.2783  145.6978  158.0728 H   0  0  0  0  0  0  0  0  0  0  0  0
  153.3966  143.8682  157.6532 H   0  0  0  0  0  0  0  0  0  0  0  0
  153.4385  145.3216  158.6336 H   0  0  0  0  0  0  0  0  0  0  0  0
  152.9077  142.4939  159.5622 H   0  0  0  0  0  0  0  0  0  0  0  0
  153.9878  143.6843  160.2874 H   0  0  0  0  0  0  0  0  0  0  0  0
  151.5768  143.3319  161.4125 H   0  0  0  0  0  0  0  0  0  0  0  0
  152.1111  144.9840  161.1090 H   0  0  0  0  0  0  0  0  0  0  0  0
  150.0317  145.0341  159.9461 H   0  0  0  0  0  0  0  0  0  0  0  0
  150.1598  143.3394  159.5085 H   0  0  0  0  0  0  0  0  0  0  0  0
  1  2  3  0  0  0  0
  2  3  1  0  0  0  0
  3 21  1  0  0  0  0
  3  4  2  0  0  0  0
  4  5  1  0  0  0  0
  4 23  1  0  0  0  0
  5  6  1  0  0  0  0
  5  9  1  0  0  0  0
  6  8  1  0  0  0  0
  6  7  1  0  0  0  0
  6 24  1  0  0  0  0
  7  8  1  0  0  0  0
  7 25  1  0  0  0  0
  7 26  1  0  0  0  0
  8 27  1  0  0  0  0
  8 28  1  0  0  0  0
  9 10  2  0  0  0  0
  9 11  1  0  0  0  0
 11 12  1  0  0  0  0
 11 21  1  0  0  0  0
 12 13  1  0  0  0  0
 12 29  1  0  0  0  0
 12 30  1  0  0  0  0
 13 14  2  0  0  0  0
 13 15  1  0  0  0  0
 15 16  1  0  0  0  0
 15 31  1  0  0  0  0
 16 20  1  0  0  0  0
 16 17  1  0  0  0  0
 16 32  1  0  0  0  0
 17 18  1  0  0  0  0
 17 33  1  0  0  0  0
 17 34  1  0  0  0  0
 18 19  1  0  0  0  0
 18 35  1  0  0  0  0
 18 36  1  0  0  0  0
 19 20  1  0  0  0  0
 19 37  1  0  0  0  0
 19 38  1  0  0  0  0
 20 39  1  0  0  0  0
 20 40  1  0  0  0  0
 21 22  2  0  0  0  0
M  END
> <s_m_source_file>
AV-unprocessed.smi

> <i_m_source_file_index>
396

> <i_lp_mmshare_version>
43012

> <i_f3d_flags>
0

> <s_epik_input>
TiNDYzFbY0hdbihbQ0hdMltDSDJdW0NIMl0yKWMoPU8pbihjMT1PKVtDSDJdQyg9TylbTkhdW0NIXTNbQ0gyXVtDSDJdW0NIMl1bQ0gyXTM=

> <s_epik_cmdline>
J2VwaWtfcHl0aG9uJywgJy1waCcsICc3LjAnLCAnLXRuJywgJzgnLCAnLW1hJywgJzIwMCcsICctbWV0YWxfYmluZGluZycsICctaW1hZScsICc8aW5maWxlLm1hZT4nLCAnLW9tYWUnLCAnPG91dGZpbGUubWFlPic=

> <r_lp_tautomer_probability>
1

> <r_epik_Ionization_Penalty>
1.93885e-08

> <r_epik_Ionization_Penalty_Charging>
8.67893e-11

> <r_epik_Ionization_Penalty_Neutral>
1.93017e-08

> <r_epik_State_Penalty>
-0

> <r_epik_Charging_Adjusted_Penalty>
8.67893e-11

> <i_epik_Tot_Q>
0

> <i_epik_Tot_abs_Q>
0

> <r_epik_Metal_State_Penalty>
-0

> <b_epik_Metal_Only>
0

> <s_lp_Force_Field>
OPLS_2005

> <r_lp_Energy>
43.3866

> <b_lp_Chiralities_Consistent>
1

> <s_lp_Variant>
AV-unprocessed.smi:396-1

> <Gold.Version>
5.8.1

> <Gold.Id.Protein>
6NUR|6NUR_protein|mol2

> <Gold.PLP.Fitness>
42.6758

> <Gold.PLP.PLP>
-34.7772

> <Gold.PLP.part.hbond>
-3.0000

> <Gold.PLP.part.metal>
0.0000

> <Gold.PLP.part.buried>
-7.0475

> <Gold.PLP.part.nonpolar>
-26.0402

> <Gold.PLP.part.repulsive>
0.3106

> <Gold.PLP.ligand.clash>
0.0000

> <Gold.PLP.ligand.torsion>
0.6388

> <Gold.PLP.Chemscore.Hbond>
2.9920

> <Gold.PLP.Chemscore.CHOScore>
0.0000

> <Gold.PLP.Chemscore.Metal>
0.0000

> <Gold.Chemscore.Hbonds>
donor molecule, donor type, donor heavy atom, donor atom, acceptor molecule, acceptor atom, score
      L1  H    15    31       P1  8028  0.91
      P1  H  7989  7998       L1    22  1.00
      P1  H 10752 10765       L1     1  1.00

> <Gold.PLP.Chemscore.Internal.Correction>
0.2002

> <Gold.Rescore>
     Score         DG    S(hbond)    S(metal)    S(lipo)     H(rot)  DE(clash)    DE(int)     intcor
     17.15     -19.92       2.98        0.00      76.88       1.76       0.18       2.59       ----

> <Gold.Chemscore.Fitness>
17.1523

> <Gold.Chemscore.DG>
-19.9184

> <Gold.Chemscore.ZeroCoef>
-5.4800

> <Gold.Chemscore.Hbond>
2.9808

> <Gold.Chemscore.Metal>
0.0000

> <Gold.Chemscore.Lipo>
76.8828

> <Gold.Chemscore.Internal_Hbond>
0.0000

> <Gold.Chemscore.DEClash>
0.1795

> <Gold.Chemscore.DEInternal>
2.5866

> <Gold.Chemscore.Rot>
1.7627

> <Gold.Chemscore.Internal.Correction>
   9.000000E+99

> <Gold.Chemscore.Hbonds>
donor molecule, donor type, donor heavy atom, donor atom, acceptor molecule, acceptor atom, score
      L1  H    15    31       P1  8028  0.89
      P1  H  7989  7998       L1    22  0.94
      P1  H 10752 10765       L1     1  1.00

> <Gold.Chemscore.Hbond.Weighted>
-9.9557

> <Gold.Chemscore.Metal.Weighted>
-0.0000

> <Gold.Chemscore.Lipo.Weighted>
-8.9953

> <Gold.Chemscore.Internal_Hbond.Weighted>
0.0000

> <Gold.Chemscore.DEClash.Weighted>
0.1795

> <Gold.Chemscore.DEInternal.Weighted>
2.5866

> <Gold.Chemscore.Rot.Weighted>
4.5126

> <Gold.Chemscore.Internal.Correction.Weighted>
   9.000000E+99

> <Gold.Protein.RotatedTorsions>
[ 6907 6896 6895 6894 ] final  -44.36 input  -60.11 | X-H torsion
[ 7974 7965 7964 7962 ] final -100.55 input  175.53 | X-H torsion
[ 8008 7997 7996 7995 ] final -159.63 input   59.86 | X-H torsion
[ 10167 10162 10161 10158 ] final -127.04 input  -65.29 | X-H torsion
[ 10718 10713 10712 10709 ] final   88.44 input   66.30 | X-H torsion
[ 10763 10752 10751 10750 ] final  170.84 input  -60.55 | X-H torsion
[ 11005 11000 10999 10996 ] final  125.42 input  -57.11 | X-H torsion

> <Gold.Protein.ActiveResidues>
 VAL166  LYS551  ARG553  GLY616  TRP617  ASP618  TYR619  PRO620  LYS621  CYS622 
 ASP623  PHE694  ASN695  SER759  ASP760  ASP761  ALA762  ILE779  LEU786  VAL792 
 PHE793  MET794  SER795  GLU796  ALA797  LYS798  CYS799  TRP800  GLU811  SER814 

> <Gold.Protein.RotatedAtoms>
  150.9337  134.8750  159.7567 H   0  0  0  0  0  0  0  0  0  0  0  0  # atno 6907 bound_to 6896
  152.5049  134.4042  159.9437 H   0  0  0  0  0  0  0  0  0  0  0  0  # atno 6908 bound_to 6896
  151.4067  133.3700  159.2774 H   0  0  0  0  0  0  0  0  0  0  0  0  # atno 6909 bound_to 6896
  145.2931  140.9358  143.2866 H   0  0  0  0  0  0  0  0  0  0  0  0  # atno 7974 bound_to 7965
  155.7654  140.0845  157.2134 H   0  0  0  0  0  0  0  0  0  0  0  0  # atno 8008 bound_to 7997
  154.4000  140.1535  156.2938 H   0  0  0  0  0  0  0  0  0  0  0  0  # atno 8009 bound_to 7997
  155.8799  140.3421  155.5883 H   0  0  0  0  0  0  0  0  0  0  0  0  # atno 8010 bound_to 7997
  139.9651  143.5907  152.2432 H   0  0  0  0  0  0  0  0  0  0  0  0  # atno 10167 bound_to 10162
  157.6949  131.0294  150.3274 H   0  0  0  0  0  0  0  0  0  0  0  0  # atno 10718 bound_to 10713
  154.4034  135.2755  155.2082 H   0  0  0  0  0  0  0  0  0  0  0  0  # atno 10763 bound_to 10752
  154.4099  135.6025  153.5950 H   0  0  0  0  0  0  0  0  0  0  0  0  # atno 10764 bound_to 10752
  152.9831  135.5947  154.4305 H   0  0  0  0  0  0  0  0  0  0  0  0  # atno 10765 bound_to 10752
  139.9406  134.9636  156.8556 H   0  0  0  0  0  0  0  0  0  0  0  0  # atno 11005 bound_to 11000
  144.9156  139.4474  143.6566 LP  0  0  0  0  0  0  0  0  0  0  0  0  # atno 17320 bound_to 7965
  146.3178  139.7988  142.8970 LP  0  0  0  0  0  0  0  0  0  0  0  0  # atno 17321 bound_to 7965
  139.6524  144.7661  151.2122 LP  0  0  0  0  0  0  0  0  0  0  0  0  # atno 17342 bound_to 10162
  140.7540  143.6140  150.8578 LP  0  0  0  0  0  0  0  0  0  0  0  0  # atno 17343 bound_to 10162
  156.3753  130.3870  149.7144 LP  0  0  0  0  0  0  0  0  0  0  0  0  # atno 17370 bound_to 10713
  156.4544  130.7922  151.2943 LP  0  0  0  0  0  0  0  0  0  0  0  0  # atno 17371 bound_to 10713
  140.5963  134.0214  155.7519 LP  0  0  0  0  0  0  0  0  0  0  0  0  # atno 17394 bound_to 11000
  141.1038  133.9726  157.3032 LP  0  0  0  0  0  0  0  0  0  0  0  0  # atno 17395 bound_to 11000

$$$$
