AV-unprocessed.smi:2822|AV-procd|sdf|10863|dock4
  -GOLD-   2272015303D 1   1.00000     0.00000
 Structure written by MMmdl.
 41 43  0  0  0  0  0  0  0  0  3 V2000
  150.2961  138.6576  154.3196 Cl  0  0  0  0  0  0  0  0  0  0  0  0
  149.1543  139.9516  154.2088 C   0  0  0  0  0  0  0  0  0  0  0  0
  149.4093  141.1581  154.8932 C   0  0  0  0  0  0  0  0  0  0  0  0
  148.5283  142.1778  154.8155 N   0  3  0  0  0  0  0  0  0  0  0  0
  147.3870  142.1023  154.0988 C   0  0  0  0  0  0  0  0  0  0  0  0
  147.0768  140.9225  153.3920 C   0  0  0  0  0  0  0  0  0  0  0  0
  147.9700  139.8233  153.4420 C   0  0  0  0  0  0  0  0  0  0  0  0
  147.7223  138.6214  152.7623 N   0  0  0  0  0  0  0  0  0  0  0  0
  146.4920  138.4013  152.0147 C   0  0  0  0  0  0  0  0  0  0  0  0
  145.7143  137.1744  152.5213 C   0  0  1  0  0  0  0  0  0  0  0  0
  145.2789  136.2135  151.3961 C   0  0  0  0  0  0  0  0  0  0  0  0
  144.5885  135.0276  151.9610 N   0  3  1  0  0  0  0  0  0  0  0  0
  144.1062  134.0678  150.9333 C   0  0  0  0  0  0  0  0  0  0  0  0
  145.2534  133.2355  150.3278 C   0  0  0  0  0  0  0  0  0  0  0  0
  146.0670  132.5342  151.4241 C   0  0  0  0  0  0  0  0  0  0  0  0
  146.5564  133.5524  152.4640 C   0  0  0  0  0  0  0  0  0  0  0  0
  145.3772  134.3678  153.0384 C   0  0  1  0  0  0  0  0  0  0  0  0
  145.8239  135.4062  154.0863 C   0  0  0  0  0  0  0  0  0  0  0  0
  146.5229  136.4765  153.4622 O   0  0  0  0  0  0  0  0  0  0  0  0
  150.2872  141.3362  155.4971 H   0  0  0  0  0  0  0  0  0  0  0  0
  146.7595  142.9817  154.1121 H   0  0  0  0  0  0  0  0  0  0  0  0
  146.1586  140.8807  152.8253 H   0  0  0  0  0  0  0  0  0  0  0  0
  148.4015  137.8747  152.8090 H   0  0  0  0  0  0  0  0  0  0  0  0
  145.8634  139.2891  152.0916 H   0  0  0  0  0  0  0  0  0  0  0  0
  146.7330  138.2675  150.9594 H   0  0  0  0  0  0  0  0  0  0  0  0
  144.8241  137.5405  153.0361 H   0  0  0  0  0  0  0  0  0  0  0  0
  144.6083  136.7291  150.7080 H   0  0  0  0  0  0  0  0  0  0  0  0
  146.1435  135.8970  150.8133 H   0  0  0  0  0  0  0  0  0  0  0  0
  143.3838  133.3990  151.4032 H   0  0  0  0  0  0  0  0  0  0  0  0
  143.5658  134.6008  150.1502 H   0  0  0  0  0  0  0  0  0  0  0  0
  144.8471  132.4945  149.6387 H   0  0  0  0  0  0  0  0  0  0  0  0
  145.9093  133.8721  149.7335 H   0  0  0  0  0  0  0  0  0  0  0  0
  145.4492  131.7795  151.9126 H   0  0  0  0  0  0  0  0  0  0  0  0
  146.9145  132.0067  150.9855 H   0  0  0  0  0  0  0  0  0  0  0  0
  147.0734  133.0299  153.2695 H   0  0  0  0  0  0  0  0  0  0  0  0
  147.2944  134.2150  152.0106 H   0  0  0  0  0  0  0  0  0  0  0  0
  144.7092  133.6659  153.5401 H   0  0  0  0  0  0  0  0  0  0  0  0
  144.9618  135.7981  154.6286 H   0  0  0  0  0  0  0  0  0  0  0  0
  146.4734  134.9427  154.8293 H   0  0  0  0  0  0  0  0  0  0  0  0
  143.7600  135.3926  152.4090 H   0  0  0  0  0  0  0  0  0  0  0  0
  148.7339  143.0407  155.3200 H   0  0  0  0  0  0  0  0  0  0  0  0
  1  2  1  0  0  0  0
  2  7  1  0  0  0  0
  2  3  2  0  0  0  0
  3  4  1  0  0  0  0
  3 20  1  0  0  0  0
  4  5  2  0  0  0  0
  4 41  1  0  0  0  0
  5  6  1  0  0  0  0
  5 21  1  0  0  0  0
  6  7  2  0  0  0  0
  6 22  1  0  0  0  0
  7  8  1  0  0  0  0
  8  9  1  0  0  0  0
  8 23  1  0  0  0  0
  9 10  1  0  0  0  0
  9 24  1  0  0  0  0
  9 25  1  0  0  0  0
 10 19  1  0  0  0  0
 10 11  1  0  0  0  0
 10 26  1  0  0  0  0
 11 12  1  0  0  0  0
 11 27  1  0  0  0  0
 11 28  1  0  0  0  0
 12 17  1  0  0  0  0
 12 13  1  0  0  0  0
 12 40  1  0  0  0  0
 13 14  1  0  0  0  0
 13 29  1  0  0  0  0
 13 30  1  0  0  0  0
 14 15  1  0  0  0  0
 14 31  1  0  0  0  0
 14 32  1  0  0  0  0
 15 16  1  0  0  0  0
 15 33  1  0  0  0  0
 15 34  1  0  0  0  0
 16 17  1  0  0  0  0
 16 35  1  0  0  0  0
 16 36  1  0  0  0  0
 17 18  1  0  0  0  0
 17 37  1  0  0  0  0
 18 19  1  0  0  0  0
 18 38  1  0  0  0  0
 18 39  1  0  0  0  0
M  CHG  1   4   1
M  CHG  1  12   1
M  END
> <s_m_source_file>
AV-unprocessed.smi

> <i_m_source_file_index>
2822

> <i_lp_mmshare_version>
43012

> <i_f3d_flags>
0

> <s_epik_input>
Q2xjMVtjSF1uW2NIXVtjSF1jMVtOSF1bQ0gyXVtDQEhdKFtDSDJdMilPW0NIMl1bQ0BASF0oTjIzKVtDSDJdW0NIMl1bQ0gyXVtDSDJdMw==

> <s_epik_cmdline>
J2VwaWtfcHl0aG9uJywgJy1waCcsICc3LjAnLCAnLXRuJywgJzgnLCAnLW1hJywgJzIwMCcsICctbWV0YWxfYmluZGluZycsICctaW1hZScsICc8aW5maWxlLm1hZT4nLCAnLW9tYWUnLCAnPG91dGZpbGUubWFlPic=

> <r_lp_tautomer_probability>
1

> <r_epik_Ionization_Penalty>
0.254999

> <r_epik_Ionization_Penalty_Charging>
0.254956

> <r_epik_Ionization_Penalty_Neutral>
4.33524e-05

> <r_epik_State_Penalty>
0.230978

> <r_epik_Charging_Adjusted_Penalty>
0.485934

> <i_epik_Tot_Q>
2

> <i_epik_Tot_abs_Q>
2

> <r_epik_Metal_State_Penalty>
3.47007

> <b_epik_Metal_Only>
0

> <s_lp_Force_Field>
OPLS_2005

> <r_lp_Energy>
41.3986

> <b_lp_Chiralities_Consistent>
1

> <s_lp_Variant>
AV-unprocessed.smi:2822-4

> <Gold.Version>
5.8.1

> <Gold.Id.Protein>
6NUR|6NUR_protein|mol2

> <Gold.PLP.Fitness>
42.6335

> <Gold.PLP.PLP>
-35.5474

> <Gold.PLP.part.hbond>
-3.0000

> <Gold.PLP.part.metal>
0.0000

> <Gold.PLP.part.buried>
-1.8685

> <Gold.PLP.part.nonpolar>
-32.2088

> <Gold.PLP.part.repulsive>
1.6883

> <Gold.PLP.ligand.clash>
0.0000

> <Gold.PLP.ligand.torsion>
0.7059

> <Gold.PLP.Chemscore.Hbond>
2.8320

> <Gold.PLP.Chemscore.CHOScore>
0.0000

> <Gold.PLP.Chemscore.Metal>
0.0000

> <Gold.Chemscore.Hbonds>
donor molecule, donor type, donor heavy atom, donor atom, acceptor molecule, acceptor atom, score
      L1  H     4    41       P1  8028  2.00
      L1  H     8    23       P1  7948  0.83

> <Gold.PLP.Chemscore.Internal.Correction>
0.0019

> <Gold.Rescore>
     Score         DG    S(hbond)    S(metal)    S(lipo)     H(rot)  DE(clash)    DE(int)     intcor
     17.31     -18.88       1.83        0.00      88.62       1.20       0.89       0.69       ----

> <Gold.Chemscore.Fitness>
17.3051

> <Gold.Chemscore.DG>
-18.8840

> <Gold.Chemscore.ZeroCoef>
-5.4800

> <Gold.Chemscore.Hbond>
1.8256

> <Gold.Chemscore.Metal>
0.0000

> <Gold.Chemscore.Lipo>
88.6226

> <Gold.Chemscore.Internal_Hbond>
0.0000

> <Gold.Chemscore.DEClash>
0.8928

> <Gold.Chemscore.DEInternal>
0.6862

> <Gold.Chemscore.Rot>
1.1962

> <Gold.Chemscore.Internal.Correction>
   9.000000E+99

> <Gold.Chemscore.Hbonds>
donor molecule, donor type, donor heavy atom, donor atom, acceptor molecule, acceptor atom, score
      L1  H     4    41       P1  8028  0.99
      L1  H     8    23       P1  7948  0.80

> <Gold.Chemscore.Hbond.Weighted>
-6.0975

> <Gold.Chemscore.Metal.Weighted>
-0.0000

> <Gold.Chemscore.Lipo.Weighted>
-10.3688

> <Gold.Chemscore.Internal_Hbond.Weighted>
0.0000

> <Gold.Chemscore.DEClash.Weighted>
0.8928

> <Gold.Chemscore.DEInternal.Weighted>
0.6862

> <Gold.Chemscore.Rot.Weighted>
3.0623

> <Gold.Chemscore.Internal.Correction.Weighted>
   9.000000E+99

> <Gold.Protein.RotatedTorsions>
[ 6907 6896 6895 6894 ] final  -53.35 input  -60.11 | X-H torsion
[ 7974 7965 7964 7962 ] final -128.90 input  175.53 | X-H torsion
[ 8008 7997 7996 7995 ] final   35.89 input   59.86 | X-H torsion
[ 10167 10162 10161 10158 ] final  -23.14 input  -65.29 | X-H torsion
[ 10718 10713 10712 10709 ] final   97.47 input   66.30 | X-H torsion
[ 10763 10752 10751 10750 ] final  146.78 input  -60.55 | X-H torsion
[ 11005 11000 10999 10996 ] final -142.12 input  -57.11 | X-H torsion

> <Gold.Protein.ActiveResidues>
 VAL166  LYS551  ARG553  GLY616  TRP617  ASP618  TYR619  PRO620  LYS621  CYS622 
 ASP623  PHE694  ASN695  SER759  ASP760  ASP761  ALA762  ILE779  LEU786  VAL792 
 PHE793  MET794  SER795  GLU796  ALA797  LYS798  CYS799  TRP800  GLU811  SER814 

> <Gold.Protein.RotatedAtoms>
  150.8434  134.7735  159.6950 H   0  0  0  0  0  0  0  0  0  0  0  0  # atno 6907 bound_to 6896
  152.4517  134.5377  159.9839 H   0  0  0  0  0  0  0  0  0  0  0  0  # atno 6908 bound_to 6896
  151.5512  133.3379  159.2989 H   0  0  0  0  0  0  0  0  0  0  0  0  # atno 6909 bound_to 6896
  144.9625  140.7461  143.4720 H   0  0  0  0  0  0  0  0  0  0  0  0  # atno 7974 bound_to 7965
  155.1784  140.3298  155.4379 H   0  0  0  0  0  0  0  0  0  0  0  0  # atno 8008 bound_to 7997
  156.2485  140.1931  156.6834 H   0  0  0  0  0  0  0  0  0  0  0  0  # atno 8009 bound_to 7997
  154.6288  140.0585  156.9693 H   0  0  0  0  0  0  0  0  0  0  0  0  # atno 8010 bound_to 7997
  140.7287  143.4470  151.0572 H   0  0  0  0  0  0  0  0  0  0  0  0  # atno 10167 bound_to 10162
  157.6912  131.0610  150.4649 H   0  0  0  0  0  0  0  0  0  0  0  0  # atno 10718 bound_to 10713
  154.0276  135.2900  155.3373 H   0  0  0  0  0  0  0  0  0  0  0  0  # atno 10763 bound_to 10752
  154.7008  135.5189  153.8527 H   0  0  0  0  0  0  0  0  0  0  0  0  # atno 10764 bound_to 10752
  153.0654  135.6629  154.0492 H   0  0  0  0  0  0  0  0  0  0  0  0  # atno 10765 bound_to 10752
  140.8257  134.2577  157.4880 H   0  0  0  0  0  0  0  0  0  0  0  0  # atno 11005 bound_to 11000
  145.2679  139.1966  143.4857 LP  0  0  0  0  0  0  0  0  0  0  0  0  # atno 17320 bound_to 7965
  146.3357  140.2620  142.8602 LP  0  0  0  0  0  0  0  0  0  0  0  0  # atno 17321 bound_to 7965
  139.8143  143.7908  152.3173 LP  0  0  0  0  0  0  0  0  0  0  0  0  # atno 17342 bound_to 10162
  139.7968  144.7389  150.9879 LP  0  0  0  0  0  0  0  0  0  0  0  0  # atno 17343 bound_to 10162
  156.4991  130.4113  149.6363 LP  0  0  0  0  0  0  0  0  0  0  0  0  # atno 17370 bound_to 10713
  156.3345  130.7349  151.2284 LP  0  0  0  0  0  0  0  0  0  0  0  0  # atno 17371 bound_to 10713
  139.8706  134.9559  156.4222 LP  0  0  0  0  0  0  0  0  0  0  0  0  # atno 17394 bound_to 11000
  140.9052  133.7751  155.9726 LP  0  0  0  0  0  0  0  0  0  0  0  0  # atno 17395 bound_to 11000

$$$$
