AV-unprocessed.smi:3004|AV-procd|sdf|11442|dock7
  -GOLD-   2272016373D 1   1.00000     0.00000
 Structure written by MMmdl.
 47 48  0  0  0  0  0  0  0  0  2 V2000
  152.3314  141.5006  158.6491 C   0  0  0  0  0  0  0  0  0  0  0  0
  151.7275  141.0438  157.3543 C   0  0  0  0  0  0  0  0  0  0  0  0
  150.6206  141.5992  156.6534 C   0  0  0  0  0  0  0  0  0  0  0  0
  150.4910  140.8091  155.5461 C   0  0  0  0  0  0  0  0  0  0  0  0
  149.5104  140.8807  154.4220 C   0  0  0  0  0  0  0  0  0  0  0  0
  151.4847  139.8487  155.6203 N   0  0  0  0  0  0  0  0  0  0  0  0
  151.7926  138.7723  154.6923 C   0  0  0  0  0  0  0  0  0  0  0  0
  150.9594  137.5267  154.9966 C   0  0  0  0  0  0  0  0  0  0  0  0
  151.5145  136.4814  155.3350 O   0  0  0  0  0  0  0  0  0  0  0  0
  149.6282  137.6488  154.8720 N   0  0  0  0  0  0  0  0  0  0  0  0
  148.6628  136.5898  155.1410 C   0  0  0  0  0  0  0  0  0  0  0  0
  147.2479  136.9725  154.6659 C   0  0  0  0  0  0  0  0  0  0  0  0
  146.8800  136.2657  153.4070 N   0  3  1  0  0  0  0  0  0  0  0  0
  146.3648  134.8983  153.7040 C   0  0  0  0  0  0  0  0  0  0  0  0
  146.0972  134.0886  152.4293 C   0  0  0  0  0  0  0  0  0  0  0  0
  145.1000  134.8263  151.5373 C   0  0  0  0  0  0  0  0  0  0  0  0
  145.6433  136.2217  151.2234 C   0  0  0  0  0  0  0  0  0  0  0  0
  145.9659  137.0343  152.4989 C   0  0  2  0  0  0  0  0  0  0  0  0
  146.5564  138.3921  152.0581 C   0  0  0  0  0  0  0  0  0  0  0  0
  152.2415  139.9972  156.7298 N   0  0  0  0  0  0  0  0  0  0  0  0
  151.7675  142.3307  159.0753 H   0  0  0  0  0  0  0  0  0  0  0  0
  153.3589  141.8359  158.5063 H   0  0  0  0  0  0  0  0  0  0  0  0
  152.3414  140.6953  159.3840 H   0  0  0  0  0  0  0  0  0  0  0  0
  150.0128  142.4503  156.9233 H   0  0  0  0  0  0  0  0  0  0  0  0
  148.8274  141.7198  154.5545 H   0  0  0  0  0  0  0  0  0  0  0  0
  148.9140  139.9700  154.3680 H   0  0  0  0  0  0  0  0  0  0  0  0
  150.0200  141.0114  153.4673 H   0  0  0  0  0  0  0  0  0  0  0  0
  151.6064  139.1088  153.6708 H   0  0  0  0  0  0  0  0  0  0  0  0
  152.8554  138.5365  154.7569 H   0  0  0  0  0  0  0  0  0  0  0  0
  149.2600  138.5487  154.5970 H   0  0  0  0  0  0  0  0  0  0  0  0
  148.9887  135.6655  154.6607 H   0  0  0  0  0  0  0  0  0  0  0  0
  148.6748  136.4014  156.2138 H   0  0  0  0  0  0  0  0  0  0  0  0
  146.5108  136.7616  155.4422 H   0  0  0  0  0  0  0  0  0  0  0  0
  147.2260  138.0503  154.5383 H   0  0  0  0  0  0  0  0  0  0  0  0
  147.0789  134.3519  154.3194 H   0  0  0  0  0  0  0  0  0  0  0  0
  145.4458  134.9753  154.2877 H   0  0  0  0  0  0  0  0  0  0  0  0
  147.0308  133.9232  151.8900 H   0  0  0  0  0  0  0  0  0  0  0  0
  145.7077  133.1034  152.6871 H   0  0  0  0  0  0  0  0  0  0  0  0
  144.9329  134.2693  150.6147 H   0  0  0  0  0  0  0  0  0  0  0  0
  144.1339  134.9047  152.0377 H   0  0  0  0  0  0  0  0  0  0  0  0
  146.5426  136.1248  150.6127 H   0  0  0  0  0  0  0  0  0  0  0  0
  144.9167  136.7587  150.6123 H   0  0  0  0  0  0  0  0  0  0  0  0
  145.0332  137.2179  153.0350 H   0  0  0  0  0  0  0  0  0  0  0  0
  145.9558  138.8360  151.2635 H   0  0  0  0  0  0  0  0  0  0  0  0
  147.5705  138.2783  151.6733 H   0  0  0  0  0  0  0  0  0  0  0  0
  146.5773  139.1306  152.8580 H   0  0  0  0  0  0  0  0  0  0  0  0
  147.7388  136.1482  152.8883 H   0  0  0  0  0  0  0  0  0  0  0  0
  1  2  1  0  0  0  0
  1 21  1  0  0  0  0
  1 22  1  0  0  0  0
  1 23  1  0  0  0  0
  2 20  2  0  0  0  0
  2  3  1  0  0  0  0
  3  4  2  0  0  0  0
  3 24  1  0  0  0  0
  4  5  1  0  0  0  0
  4  6  1  0  0  0  0
  5 25  1  0  0  0  0
  5 26  1  0  0  0  0
  5 27  1  0  0  0  0
  6  7  1  0  0  0  0
  6 20  1  0  0  0  0
  7  8  1  0  0  0  0
  7 28  1  0  0  0  0
  7 29  1  0  0  0  0
  8  9  2  0  0  0  0
  8 10  1  0  0  0  0
 10 11  1  0  0  0  0
 10 30  1  0  0  0  0
 11 12  1  0  0  0  0
 11 31  1  0  0  0  0
 11 32  1  0  0  0  0
 12 13  1  0  0  0  0
 12 33  1  0  0  0  0
 12 34  1  0  0  0  0
 13 18  1  0  0  0  0
 13 14  1  0  0  0  0
 13 47  1  0  0  0  0
 14 15  1  0  0  0  0
 14 35  1  0  0  0  0
 14 36  1  0  0  0  0
 15 16  1  0  0  0  0
 15 37  1  0  0  0  0
 15 38  1  0  0  0  0
 16 17  1  0  0  0  0
 16 39  1  0  0  0  0
 16 40  1  0  0  0  0
 17 18  1  0  0  0  0
 17 41  1  0  0  0  0
 17 42  1  0  0  0  0
 18 19  1  0  0  0  0
 18 43  1  0  0  0  0
 19 44  1  0  0  0  0
 19 45  1  0  0  0  0
 19 46  1  0  0  0  0
M  CHG  1  13   1
M  END
> <s_m_source_file>
AV-unprocessed.smi

> <i_m_source_file_index>
3004

> <i_lp_mmshare_version>
43012

> <i_f3d_flags>
0

> <s_epik_input>
W0NIM11jMVtjSF1jKFtDSDNdKW4objEpW0NIMl1DKD1PKVtOSF1bQ0gyXVtDSDJdTjJbQ0gyXVtDSDJdW0NIMl1bQ0gyXVtDQEhdMltDSDNd

> <s_epik_cmdline>
J2VwaWtfcHl0aG9uJywgJy1waCcsICc3LjAnLCAnLXRuJywgJzgnLCAnLW1hJywgJzIwMCcsICctbWV0YWxfYmluZGluZycsICctaW1hZScsICc8aW5maWxlLm1hZT4nLCAnLW9tYWUnLCAnPG91dGZpbGUubWFlPic=

> <r_lp_tautomer_probability>
1

> <r_epik_Ionization_Penalty>
0.00303644

> <r_epik_Ionization_Penalty_Charging>
0.00284254

> <r_epik_Ionization_Penalty_Neutral>
0.000193908

> <r_epik_State_Penalty>
-0

> <r_epik_Charging_Adjusted_Penalty>
0.00284254

> <i_epik_Tot_Q>
1

> <i_epik_Tot_abs_Q>
1

> <r_epik_Metal_State_Penalty>
-0

> <b_epik_Metal_Only>
0

> <s_lp_Force_Field>
OPLS_2005

> <r_lp_Energy>
17.2859

> <b_lp_Chiralities_Consistent>
1

> <s_lp_Variant>
AV-unprocessed.smi:3004-4

> <Gold.Version>
5.8.1

> <Gold.Id.Protein>
6NUR|6NUR_protein|mol2

> <Gold.PLP.Fitness>
46.0249

> <Gold.PLP.PLP>
-36.1040

> <Gold.PLP.part.hbond>
-3.0496

> <Gold.PLP.part.metal>
0.0000

> <Gold.PLP.part.buried>
-1.1059

> <Gold.PLP.part.nonpolar>
-31.2808

> <Gold.PLP.part.repulsive>
0.1185

> <Gold.PLP.ligand.clash>
0.0000

> <Gold.PLP.ligand.torsion>
1.0583

> <Gold.PLP.Chemscore.Hbond>
4.0000

> <Gold.PLP.Chemscore.CHOScore>
0.0000

> <Gold.PLP.Chemscore.Metal>
0.0000

> <Gold.Chemscore.Hbonds>
donor molecule, donor type, donor heavy atom, donor atom, acceptor molecule, acceptor atom, score
      L1  H    13    47       P1  7948  2.00
      P1  H  7997  8009       L1    20  0.78
      P1  H 10752 10765       L1     9  1.00

> <Gold.PLP.Chemscore.Internal.Correction>
0.0375

> <Gold.Rescore>
     Score         DG    S(hbond)    S(metal)    S(lipo)     H(rot)  DE(clash)    DE(int)     intcor
     18.64     -19.68       2.86        0.00      76.25       1.67       0.04       1.00       ----

> <Gold.Chemscore.Fitness>
18.6376

> <Gold.Chemscore.DG>
-19.6764

> <Gold.Chemscore.ZeroCoef>
-5.4800

> <Gold.Chemscore.Hbond>
2.8561

> <Gold.Chemscore.Metal>
0.0000

> <Gold.Chemscore.Lipo>
76.2475

> <Gold.Chemscore.Internal_Hbond>
0.0000

> <Gold.Chemscore.DEClash>
0.0431

> <Gold.Chemscore.DEInternal>
0.9956

> <Gold.Chemscore.Rot>
1.6657

> <Gold.Chemscore.Internal.Correction>
   9.000000E+99

> <Gold.Chemscore.Hbonds>
donor molecule, donor type, donor heavy atom, donor atom, acceptor molecule, acceptor atom, score
      L1  H    13    47       P1  7948  0.98
      P1  H  7997  8009       L1    20  0.64
      P1  H 10752 10765       L1     9  0.95

> <Gold.Chemscore.Hbond.Weighted>
-9.5395

> <Gold.Chemscore.Metal.Weighted>
-0.0000

> <Gold.Chemscore.Lipo.Weighted>
-8.9210

> <Gold.Chemscore.Internal_Hbond.Weighted>
0.0000

> <Gold.Chemscore.DEClash.Weighted>
0.0431

> <Gold.Chemscore.DEInternal.Weighted>
0.9956

> <Gold.Chemscore.Rot.Weighted>
4.2641

> <Gold.Chemscore.Internal.Correction.Weighted>
   9.000000E+99

> <Gold.Protein.RotatedTorsions>
[ 6907 6896 6895 6894 ] final   94.76 input  -60.11 | X-H torsion
[ 7974 7965 7964 7962 ] final    2.62 input  175.53 | X-H torsion
[ 8008 7997 7996 7995 ] final -167.31 input   59.86 | X-H torsion
[ 10167 10162 10161 10158 ] final -144.27 input  -65.29 | X-H torsion
[ 10718 10713 10712 10709 ] final    1.51 input   66.30 | X-H torsion
[ 10763 10752 10751 10750 ] final  166.30 input  -60.55 | X-H torsion
[ 11005 11000 10999 10996 ] final  -87.78 input  -57.11 | X-H torsion

> <Gold.Protein.ActiveResidues>
 VAL166  LYS551  ARG553  GLY616  TRP617  ASP618  TYR619  PRO620  LYS621  CYS622 
 ASP623  PHE694  ASN695  SER759  ASP760  ASP761  ALA762  ILE779  LEU786  VAL792 
 PHE793  MET794  SER795  GLU796  ALA797  LYS798  CYS799  TRP800  GLU811  SER814 

> <Gold.Protein.RotatedAtoms>
  152.5448  134.1145  159.8372 H   0  0  0  0  0  0  0  0  0  0  0  0  # atno 6907 bound_to 6896
  151.1207  133.5098  159.2609 H   0  0  0  0  0  0  0  0  0  0  0  0  # atno 6908 bound_to 6896
  151.1782  135.0358  159.8835 H   0  0  0  0  0  0  0  0  0  0  0  0  # atno 6909 bound_to 6896
  146.2444  140.0808  142.8357 H   0  0  0  0  0  0  0  0  0  0  0  0  # atno 7974 bound_to 7965
  155.8759  140.1001  157.1519 H   0  0  0  0  0  0  0  0  0  0  0  0  # atno 8008 bound_to 7997
  154.4001  140.1338  156.4199 H   0  0  0  0  0  0  0  0  0  0  0  0  # atno 8009 bound_to 7997
  155.7698  140.3461  155.5243 H   0  0  0  0  0  0  0  0  0  0  0  0  # atno 8010 bound_to 7997
  139.7914  143.7960  152.2650 H   0  0  0  0  0  0  0  0  0  0  0  0  # atno 10167 bound_to 10162
  156.8493  130.5548  149.5671 H   0  0  0  0  0  0  0  0  0  0  0  0  # atno 10718 bound_to 10713
  154.3369  135.2754  155.2443 H   0  0  0  0  0  0  0  0  0  0  0  0  # atno 10763 bound_to 10752
  154.4730  135.5878  153.6338 H   0  0  0  0  0  0  0  0  0  0  0  0  # atno 10764 bound_to 10752
  152.9861  135.6093  154.3567 H   0  0  0  0  0  0  0  0  0  0  0  0  # atno 10765 bound_to 10752
  141.1612  133.7531  156.9356 H   0  0  0  0  0  0  0  0  0  0  0  0  # atno 11005 bound_to 11000
  145.0735  140.9171  143.4868 LP  0  0  0  0  0  0  0  0  0  0  0  0  # atno 17320 bound_to 7965
  145.0947  139.2865  143.5717 LP  0  0  0  0  0  0  0  0  0  0  0  0  # atno 17321 bound_to 7965
  139.8053  144.7358  150.9770 LP  0  0  0  0  0  0  0  0  0  0  0  0  # atno 17342 bound_to 10162
  140.7820  143.4304  151.0703 LP  0  0  0  0  0  0  0  0  0  0  0  0  # atno 17343 bound_to 10162
  156.0837  130.5841  150.9610 LP  0  0  0  0  0  0  0  0  0  0  0  0  # atno 17370 bound_to 10713
  157.6312  131.0921  150.8437 LP  0  0  0  0  0  0  0  0  0  0  0  0  # atno 17371 bound_to 10713
  140.1356  134.9327  157.2397 LP  0  0  0  0  0  0  0  0  0  0  0  0  # atno 17394 bound_to 11000
  140.2899  134.3252  155.7318 LP  0  0  0  0  0  0  0  0  0  0  0  0  # atno 17395 bound_to 11000

$$$$
