AV-unprocessed.smi:2789|AV-procd|sdf|10762|dock8
  -GOLD-   2272015193D 1   1.00000     0.00000
 Structure written by MMmdl.
 35 36  0  0  0  0  0  0  0  0  1 V2000
  151.8998  138.7650  154.5829 C   0  0  0  0  0  0  0  0  0  0  0  0
  151.2060  139.9898  154.7595 O   0  0  0  0  0  0  0  0  0  0  0  0
  150.5888  140.1211  156.0330 C   0  0  2  0  0  0  0  0  0  0  0  0
  149.3650  139.2066  156.1791 C   0  0  0  0  0  0  0  0  0  0  0  0
  148.4384  139.9601  157.1261 C   0  0  0  0  0  0  0  0  0  0  0  0
  148.6046  141.4218  156.7142 C   0  0  0  0  0  0  0  0  0  0  0  0
  150.0594  141.5593  156.2217 C   0  0  1  0  0  0  0  0  0  0  0  0
  150.8773  142.2867  157.1894 N   0  0  0  0  0  0  0  0  0  0  0  0
  151.1986  141.8450  158.4136 C   0  0  0  0  0  0  0  0  0  0  0  0
  150.8395  140.7536  158.8560 O   0  0  0  0  0  0  0  0  0  0  0  0
  151.9550  142.7426  159.0690 N   0  0  0  0  0  0  0  0  0  0  0  0
  152.4711  142.6641  160.3245 C   0  0  0  0  0  0  0  0  0  0  0  0
  152.0599  143.2975  161.4656 C   0  0  0  0  0  0  0  0  0  0  0  0
  152.9865  142.8179  162.4351 C   0  0  0  0  0  0  0  0  0  0  0  0
  153.8768  141.9732  161.9305 N   0  0  0  0  0  0  0  0  0  0  0  0
  153.5617  141.8757  160.6204 N   0  0  0  0  0  0  0  0  0  0  0  0
  154.3423  141.0203  159.7477 C   0  0  0  0  0  0  0  0  0  0  0  0
  152.3633  138.7489  153.5965 H   0  0  0  0  0  0  0  0  0  0  0  0
  151.2283  137.9085  154.6487 H   0  0  0  0  0  0  0  0  0  0  0  0
  152.6899  138.6485  155.3256 H   0  0  0  0  0  0  0  0  0  0  0  0
  151.3052  139.8866  156.8233 H   0  0  0  0  0  0  0  0  0  0  0  0
  148.8720  139.0879  155.2131 H   0  0  0  0  0  0  0  0  0  0  0  0
  149.6222  138.2128  156.5462 H   0  0  0  0  0  0  0  0  0  0  0  0
  147.4043  139.6205  157.0628 H   0  0  0  0  0  0  0  0  0  0  0  0
  148.7738  139.8257  158.1554 H   0  0  0  0  0  0  0  0  0  0  0  0
  147.9265  141.6400  155.8880 H   0  0  0  0  0  0  0  0  0  0  0  0
  148.3499  142.1069  157.5240 H   0  0  0  0  0  0  0  0  0  0  0  0
  150.0669  142.0880  155.2662 H   0  0  0  0  0  0  0  0  0  0  0  0
  151.2148  143.1946  156.9058 H   0  0  0  0  0  0  0  0  0  0  0  0
  152.1745  143.5899  158.5662 H   0  0  0  0  0  0  0  0  0  0  0  0
  151.2422  143.9883  161.6054 H   0  0  0  0  0  0  0  0  0  0  0  0
  153.0391  143.0579  163.4869 H   0  0  0  0  0  0  0  0  0  0  0  0
  153.7144  140.2131  159.3704 H   0  0  0  0  0  0  0  0  0  0  0  0
  155.1873  140.5895  160.2863 H   0  0  0  0  0  0  0  0  0  0  0  0
  154.7205  141.6018  158.9065 H   0  0  0  0  0  0  0  0  0  0  0  0
  1  2  1  0  0  0  0
  1 18  1  0  0  0  0
  1 19  1  0  0  0  0
  1 20  1  0  0  0  0
  2  3  1  0  0  0  0
  3  7  1  0  0  0  0
  3  4  1  0  0  0  0
  3 21  1  0  0  0  0
  4  5  1  0  0  0  0
  4 22  1  0  0  0  0
  4 23  1  0  0  0  0
  5  6  1  0  0  0  0
  5 24  1  0  0  0  0
  5 25  1  0  0  0  0
  6  7  1  0  0  0  0
  6 26  1  0  0  0  0
  6 27  1  0  0  0  0
  7  8  1  0  0  0  0
  7 28  1  0  0  0  0
  8  9  1  0  0  0  0
  8 29  1  0  0  0  0
  9 10  2  0  0  0  0
  9 11  1  0  0  0  0
 11 12  1  0  0  0  0
 11 30  1  0  0  0  0
 12 16  1  0  0  0  0
 12 13  2  0  0  0  0
 13 14  1  0  0  0  0
 13 31  1  0  0  0  0
 14 15  2  0  0  0  0
 14 32  1  0  0  0  0
 15 16  1  0  0  0  0
 16 17  1  0  0  0  0
 17 33  1  0  0  0  0
 17 34  1  0  0  0  0
 17 35  1  0  0  0  0
M  END
> <s_m_source_file>
AV-unprocessed.smi

> <i_m_source_file_index>
2789

> <i_lp_mmshare_version>
43012

> <i_f3d_flags>
0

> <s_epik_input>
W0NIM11PW0NAQEhdMVtDSDJdW0NIMl1bQ0gyXVtDQEhdMVtOSF1DKD1PKVtOSF1jMltjSF1bY0hdbm4yW0NIM10=

> <s_epik_cmdline>
J2VwaWtfcHl0aG9uJywgJy1waCcsICc3LjAnLCAnLXRuJywgJzgnLCAnLW1hJywgJzIwMCcsICctbWV0YWxfYmluZGluZycsICctaW1hZScsICc8aW5maWxlLm1hZT4nLCAnLW9tYWUnLCAnPG91dGZpbGUubWFlPic=

> <r_lp_tautomer_probability>
1

> <r_epik_Ionization_Penalty>
4.40608e-05

> <r_epik_Ionization_Penalty_Charging>
0

> <r_epik_Ionization_Penalty_Neutral>
4.40608e-05

> <r_epik_State_Penalty>
-0

> <r_epik_Charging_Adjusted_Penalty>
0

> <i_epik_Tot_Q>
0

> <i_epik_Tot_abs_Q>
0

> <r_epik_Metal_State_Penalty>
-0

> <b_epik_Metal_Only>
0

> <s_lp_Force_Field>
OPLS_2005

> <r_lp_Energy>
20.8704

> <b_lp_Chiralities_Consistent>
1

> <s_lp_Variant>
AV-unprocessed.smi:2789-1

> <Gold.Version>
5.8.1

> <Gold.Id.Protein>
6NUR|6NUR_protein|mol2

> <Gold.PLP.Fitness>
38.5121

> <Gold.PLP.PLP>
-37.1389

> <Gold.PLP.part.hbond>
-2.0000

> <Gold.PLP.part.metal>
0.0000

> <Gold.PLP.part.buried>
-5.4574

> <Gold.PLP.part.nonpolar>
-29.2772

> <Gold.PLP.part.repulsive>
0.1864

> <Gold.PLP.ligand.clash>
0.0000

> <Gold.PLP.ligand.torsion>
0.8161

> <Gold.PLP.Chemscore.Hbond>
1.0000

> <Gold.PLP.Chemscore.CHOScore>
0.0000

> <Gold.PLP.Chemscore.Metal>
0.0000

> <Gold.Chemscore.Hbonds>
donor molecule, donor type, donor heavy atom, donor atom, acceptor molecule, acceptor atom, score
      P1  H  7989  7998       L1     2  1.00

> <Gold.PLP.Chemscore.Internal.Correction>
0.0055

> <Gold.Rescore>
     Score         DG    S(hbond)    S(metal)    S(lipo)     H(rot)  DE(clash)    DE(int)     intcor
     10.40     -13.20       0.97        0.00      66.07       1.27       0.04       2.76       ----

> <Gold.Chemscore.Fitness>
10.4021

> <Gold.Chemscore.DG>
-13.2008

> <Gold.Chemscore.ZeroCoef>
-5.4800

> <Gold.Chemscore.Hbond>
0.9717

> <Gold.Chemscore.Metal>
0.0000

> <Gold.Chemscore.Lipo>
66.0650

> <Gold.Chemscore.Internal_Hbond>
0.0000

> <Gold.Chemscore.DEClash>
0.0356

> <Gold.Chemscore.DEInternal>
2.7631

> <Gold.Chemscore.Rot>
1.2712

> <Gold.Chemscore.Internal.Correction>
   9.000000E+99

> <Gold.Chemscore.Hbonds>
donor molecule, donor type, donor heavy atom, donor atom, acceptor molecule, acceptor atom, score
      P1  H  7989  7998       L1     2  0.44

> <Gold.Chemscore.Hbond.Weighted>
-3.2456

> <Gold.Chemscore.Metal.Weighted>
-0.0000

> <Gold.Chemscore.Lipo.Weighted>
-7.7296

> <Gold.Chemscore.Internal_Hbond.Weighted>
0.0000

> <Gold.Chemscore.DEClash.Weighted>
0.0356

> <Gold.Chemscore.DEInternal.Weighted>
2.7631

> <Gold.Chemscore.Rot.Weighted>
3.2544

> <Gold.Chemscore.Internal.Correction.Weighted>
   9.000000E+99

> <Gold.Protein.RotatedTorsions>
[ 6907 6896 6895 6894 ] final   31.06 input  -60.11 | X-H torsion
[ 7974 7965 7964 7962 ] final -106.99 input  175.53 | X-H torsion
[ 8008 7997 7996 7995 ] final   69.73 input   59.86 | X-H torsion
[ 10167 10162 10161 10158 ] final  -16.87 input  -65.29 | X-H torsion
[ 10718 10713 10712 10709 ] final -112.37 input   66.30 | X-H torsion
[ 10763 10752 10751 10750 ] final  119.72 input  -60.55 | X-H torsion
[ 11005 11000 10999 10996 ] final -114.80 input  -57.11 | X-H torsion

> <Gold.Protein.ActiveResidues>
 VAL166  LYS551  ARG553  GLY616  TRP617  ASP618  TYR619  PRO620  LYS621  CYS622 
 ASP623  PHE694  ASN695  SER759  ASP760  ASP761  ALA762  ILE779  LEU786  VAL792 
 PHE793  MET794  SER795  GLU796  ALA797  LYS798  CYS799  TRP800  GLU811  SER814 

> <Gold.Protein.RotatedAtoms>
  152.0548  134.9631  160.0574 H   0  0  0  0  0  0  0  0  0  0  0  0  # atno 6907 bound_to 6896
  152.1017  133.4249  159.4598 H   0  0  0  0  0  0  0  0  0  0  0  0  # atno 6908 bound_to 6896
  150.6839  134.2671  159.4616 H   0  0  0  0  0  0  0  0  0  0  0  0  # atno 6909 bound_to 6896
  145.2109  140.9096  143.3315 H   0  0  0  0  0  0  0  0  0  0  0  0  # atno 7974 bound_to 7965
  155.7281  140.3492  155.5047 H   0  0  0  0  0  0  0  0  0  0  0  0  # atno 8008 bound_to 7997
  155.9208  140.1067  157.1230 H   0  0  0  0  0  0  0  0  0  0  0  0  # atno 8009 bound_to 7997
  154.4069  140.1250  156.4663 H   0  0  0  0  0  0  0  0  0  0  0  0  # atno 8010 bound_to 7997
  140.7240  143.5072  150.9795 H   0  0  0  0  0  0  0  0  0  0  0  0  # atno 10167 bound_to 10162
  156.0701  130.5916  150.8499 H   0  0  0  0  0  0  0  0  0  0  0  0  # atno 10718 bound_to 10713
  153.5873  135.3472  155.2898 H   0  0  0  0  0  0  0  0  0  0  0  0  # atno 10763 bound_to 10752
  154.8658  135.4196  154.2554 H   0  0  0  0  0  0  0  0  0  0  0  0  # atno 10764 bound_to 10752
  153.3354  135.7047  153.6983 H   0  0  0  0  0  0  0  0  0  0  0  0  # atno 10765 bound_to 10752
  141.0528  133.9659  157.2806 H   0  0  0  0  0  0  0  0  0  0  0  0  # atno 11005 bound_to 11000
  144.9857  139.3739  143.6240 LP  0  0  0  0  0  0  0  0  0  0  0  0  # atno 17320 bound_to 7965
  146.3397  139.9017  142.8793 LP  0  0  0  0  0  0  0  0  0  0  0  0  # atno 17321 bound_to 7965
  139.8784  143.7103  152.3159 LP  0  0  0  0  0  0  0  0  0  0  0  0  # atno 17342 bound_to 10162
  139.7376  144.7567  151.0702 LP  0  0  0  0  0  0  0  0  0  0  0  0  # atno 17343 bound_to 10162
  157.5767  131.0946  150.9334 LP  0  0  0  0  0  0  0  0  0  0  0  0  # atno 17370 bound_to 10713
  156.9538  130.5430  149.5283 LP  0  0  0  0  0  0  0  0  0  0  0  0  # atno 17371 bound_to 10713
  139.9365  135.0196  156.8572 LP  0  0  0  0  0  0  0  0  0  0  0  0  # atno 17394 bound_to 11000
  140.6021  134.0162  155.7541 LP  0  0  0  0  0  0  0  0  0  0  0  0  # atno 17395 bound_to 11000

$$$$
