AV-unprocessed.smi:3158|AV-procd|sdf|12046|dock5
  -GOLD-   2272017473D 1   1.00000     0.00000
 Structure written by MMmdl.
 39 39  0  0  0  0  0  0  0  0  1 V2000
  152.7975  143.8561  158.6097 C   0  0  0  0  0  0  0  0  0  0  0  0
  152.1297  142.4805  158.7527 C   0  0  0  0  0  0  0  0  0  0  0  0
  153.0232  141.4194  159.4324 C   0  0  1  0  0  0  0  0  0  0  0  0
  153.4527  141.8340  160.8513 C   0  0  0  0  0  0  0  0  0  0  0  0
  152.4291  140.0802  159.4201 N   0  0  0  0  0  0  0  0  0  0  0  0
  152.6501  139.0968  158.5305 C   0  0  0  0  0  0  0  0  0  0  0  0
  153.4149  139.2018  157.5714 O   0  0  0  0  0  0  0  0  0  0  0  0
  151.8574  137.7964  158.7404 C   0  0  2  0  0  0  0  0  0  0  0  0
  150.3496  138.0586  158.6002 C   0  0  0  0  0  0  0  0  0  0  0  0
  152.1327  137.1556  160.0382 N   0  0  0  0  0  0  0  0  0  0  0  0
  153.5509  136.9643  160.3289 C   0  0  0  0  0  0  0  0  0  0  0  0
  154.0641  138.0991  161.2299 C   0  0  0  0  0  0  0  0  0  0  0  0
  153.9732  137.7613  162.6396 N   0  0  0  0  0  0  0  0  0  0  0  0
  153.4051  136.6446  163.2161 C   0  0  0  0  0  0  0  0  0  0  0  0
  153.5680  136.7570  164.5672 C   0  0  0  0  0  0  0  0  0  0  0  0
  154.2548  137.9935  164.7226 C   0  0  0  0  0  0  0  0  0  0  0  0
  154.4958  138.5922  163.5674 N   0  0  0  0  0  0  0  0  0  0  0  0
  152.1038  144.5785  158.1792 H   0  0  0  0  0  0  0  0  0  0  0  0
  153.6709  143.8129  157.9585 H   0  0  0  0  0  0  0  0  0  0  0  0
  153.1185  144.2403  159.5783 H   0  0  0  0  0  0  0  0  0  0  0  0
  151.2176  142.5994  159.3385 H   0  0  0  0  0  0  0  0  0  0  0  0
  151.8063  142.1333  157.7709 H   0  0  0  0  0  0  0  0  0  0  0  0
  153.9340  141.3352  158.8385 H   0  0  0  0  0  0  0  0  0  0  0  0
  154.0105  142.7705  160.8301 H   0  0  0  0  0  0  0  0  0  0  0  0
  154.0964  141.0788  161.3037 H   0  0  0  0  0  0  0  0  0  0  0  0
  152.5961  141.9796  161.5097 H   0  0  0  0  0  0  0  0  0  0  0  0
  151.7751  139.8823  160.1636 H   0  0  0  0  0  0  0  0  0  0  0  0
  152.1392  137.0928  157.9548 H   0  0  0  0  0  0  0  0  0  0  0  0
  150.1155  138.5202  157.6400 H   0  0  0  0  0  0  0  0  0  0  0  0
  149.9804  138.7189  159.3862 H   0  0  0  0  0  0  0  0  0  0  0  0
  149.7847  137.1278  158.6600 H   0  0  0  0  0  0  0  0  0  0  0  0
  151.6924  137.6541  160.7991 H   0  0  0  0  0  0  0  0  0  0  0  0
  153.6848  136.0060  160.8320 H   0  0  0  0  0  0  0  0  0  0  0  0
  154.1468  136.9352  159.4162 H   0  0  0  0  0  0  0  0  0  0  0  0
  155.0949  138.3582  160.9816 H   0  0  0  0  0  0  0  0  0  0  0  0
  153.4695  138.9978  161.0629 H   0  0  0  0  0  0  0  0  0  0  0  0
  152.9412  135.8705  162.6227 H   0  0  0  0  0  0  0  0  0  0  0  0
  153.2463  136.0619  165.3283 H   0  0  0  0  0  0  0  0  0  0  0  0
  154.5835  138.4704  165.6343 H   0  0  0  0  0  0  0  0  0  0  0  0
  1  2  1  0  0  0  0
  1 18  1  0  0  0  0
  1 19  1  0  0  0  0
  1 20  1  0  0  0  0
  2  3  1  0  0  0  0
  2 21  1  0  0  0  0
  2 22  1  0  0  0  0
  3  4  1  0  0  0  0
  3  5  1  0  0  0  0
  3 23  1  0  0  0  0
  4 24  1  0  0  0  0
  4 25  1  0  0  0  0
  4 26  1  0  0  0  0
  5  6  1  0  0  0  0
  5 27  1  0  0  0  0
  6  7  2  0  0  0  0
  6  8  1  0  0  0  0
  8  9  1  0  0  0  0
  8 10  1  0  0  0  0
  8 28  1  0  0  0  0
  9 29  1  0  0  0  0
  9 30  1  0  0  0  0
  9 31  1  0  0  0  0
 10 11  1  0  0  0  0
 10 32  1  0  0  0  0
 11 12  1  0  0  0  0
 11 33  1  0  0  0  0
 11 34  1  0  0  0  0
 12 13  1  0  0  0  0
 12 35  1  0  0  0  0
 12 36  1  0  0  0  0
 13 17  1  0  0  0  0
 13 14  1  0  0  0  0
 14 15  2  0  0  0  0
 14 37  1  0  0  0  0
 15 16  1  0  0  0  0
 15 38  1  0  0  0  0
 16 17  2  0  0  0  0
 16 39  1  0  0  0  0
M  END
> <s_m_source_file>
AV-unprocessed.smi

> <i_m_source_file_index>
3158

> <i_lp_mmshare_version>
43012

> <i_f3d_flags>
0

> <s_epik_input>
W0NIM11bQ0gyXVtDQEhdKFtDSDNdKVtOSF1DKD1PKVtDQEhdKFtDSDNdKVtOSF1bQ0gyXVtDSDJdbjFbY0hdW2NIXVtjSF1uMQ==

> <s_epik_cmdline>
J2VwaWtfcHl0aG9uJywgJy1waCcsICc3LjAnLCAnLXRuJywgJzgnLCAnLW1hJywgJzIwMCcsICctbWV0YWxfYmluZGluZycsICctaW1hZScsICc8aW5maWxlLm1hZT4nLCAnLW9tYWUnLCAnPG91dGZpbGUubWFlPic=

> <r_lp_tautomer_probability>
1

> <r_epik_Ionization_Penalty>
0.724013

> <r_epik_Ionization_Penalty_Charging>
0

> <r_epik_Ionization_Penalty_Neutral>
0.724013

> <r_epik_State_Penalty>
0.74758

> <r_epik_Charging_Adjusted_Penalty>
0.74758

> <i_epik_Tot_Q>
0

> <i_epik_Tot_abs_Q>
0

> <r_epik_Metal_State_Penalty>
0.746846

> <b_epik_Metal_Only>
0

> <s_lp_Force_Field>
OPLS_2005

> <r_lp_Energy>
6.38515

> <b_lp_Chiralities_Consistent>
1

> <s_lp_Variant>
AV-unprocessed.smi:3158-6

> <Gold.Version>
5.8.1

> <Gold.Id.Protein>
6NUR|6NUR_protein|mol2

> <Gold.PLP.Fitness>
40.2883

> <Gold.PLP.PLP>
-35.7593

> <Gold.PLP.part.hbond>
-1.8264

> <Gold.PLP.part.metal>
0.0000

> <Gold.PLP.part.buried>
-4.3559

> <Gold.PLP.part.nonpolar>
-29.9013

> <Gold.PLP.part.repulsive>
0.1291

> <Gold.PLP.ligand.clash>
0.0000

> <Gold.PLP.ligand.torsion>
0.8417

> <Gold.PLP.Chemscore.Hbond>
1.9833

> <Gold.PLP.Chemscore.CHOScore>
0.0000

> <Gold.PLP.Chemscore.Metal>
0.0000

> <Gold.Chemscore.Hbonds>
donor molecule, donor type, donor heavy atom, donor atom, acceptor molecule, acceptor atom, score
      P1  H  6896  6908       L1    10  0.73
      P1  H  7997  8009       L1     7  1.00

> <Gold.PLP.Chemscore.Internal.Correction>
0.2627

> <Gold.Rescore>
     Score         DG    S(hbond)    S(metal)    S(lipo)     H(rot)  DE(clash)    DE(int)     intcor
     13.65     -14.55       1.15        0.00      91.15       2.12       0.02       0.88       ----

> <Gold.Chemscore.Fitness>
13.6521

> <Gold.Chemscore.DG>
-14.5491

> <Gold.Chemscore.ZeroCoef>
-5.4800

> <Gold.Chemscore.Hbond>
1.1498

> <Gold.Chemscore.Metal>
0.0000

> <Gold.Chemscore.Lipo>
91.1489

> <Gold.Chemscore.Internal_Hbond>
0.0000

> <Gold.Chemscore.DEClash>
0.0174

> <Gold.Chemscore.DEInternal>
0.8795

> <Gold.Chemscore.Rot>
2.1234

> <Gold.Chemscore.Internal.Correction>
   9.000000E+99

> <Gold.Chemscore.Hbonds>
donor molecule, donor type, donor heavy atom, donor atom, acceptor molecule, acceptor atom, score
      P1  H  6896  6908       L1    10  0.06
      P1  H  7997  8009       L1     7  0.95

> <Gold.Chemscore.Hbond.Weighted>
-3.8405

> <Gold.Chemscore.Metal.Weighted>
-0.0000

> <Gold.Chemscore.Lipo.Weighted>
-10.6644

> <Gold.Chemscore.Internal_Hbond.Weighted>
0.0000

> <Gold.Chemscore.DEClash.Weighted>
0.0174

> <Gold.Chemscore.DEInternal.Weighted>
0.8795

> <Gold.Chemscore.Rot.Weighted>
5.4359

> <Gold.Chemscore.Internal.Correction.Weighted>
   9.000000E+99

> <Gold.Protein.RotatedTorsions>
[ 6907 6896 6895 6894 ] final -114.43 input  -60.11 | X-H torsion
[ 7974 7965 7964 7962 ] final  140.21 input  175.53 | X-H torsion
[ 8008 7997 7996 7995 ] final  144.09 input   59.86 | X-H torsion
[ 10167 10162 10161 10158 ] final -119.06 input  -65.29 | X-H torsion
[ 10718 10713 10712 10709 ] final  -60.63 input   66.30 | X-H torsion
[ 10763 10752 10751 10750 ] final    2.35 input  -60.55 | X-H torsion
[ 11005 11000 10999 10996 ] final  121.43 input  -57.11 | X-H torsion

> <Gold.Protein.ActiveResidues>
 VAL166  LYS551  ARG553  GLY616  TRP617  ASP618  TYR619  PRO620  LYS621  CYS622 
 ASP623  PHE694  ASN695  SER759  ASP760  ASP761  ALA762  ILE779  LEU786  VAL792 
 PHE793  MET794  SER795  GLU796  ALA797  LYS798  CYS799  TRP800  GLU811  SER814 

> <Gold.Protein.RotatedAtoms>
  150.7902  133.8802  159.3283 H   0  0  0  0  0  0  0  0  0  0  0  0  # atno 6907 bound_to 6896
  151.6642  135.0983  160.0195 H   0  0  0  0  0  0  0  0  0  0  0  0  # atno 6908 bound_to 6896
  152.3974  133.6729  159.6323 H   0  0  0  0  0  0  0  0  0  0  0  0  # atno 6909 bound_to 6896
  144.9207  139.5171  143.5664 H   0  0  0  0  0  0  0  0  0  0  0  0  # atno 7974 bound_to 7965
  156.2916  140.2245  156.4997 H   0  0  0  0  0  0  0  0  0  0  0  0  # atno 8008 bound_to 7997
  154.7700  140.0467  157.1065 H   0  0  0  0  0  0  0  0  0  0  0  0  # atno 8009 bound_to 7997
  154.9885  140.3087  155.4919 H   0  0  0  0  0  0  0  0  0  0  0  0  # atno 8010 bound_to 7997
  140.0507  143.5063  152.2083 H   0  0  0  0  0  0  0  0  0  0  0  0  # atno 10167 bound_to 10162
  156.0977  130.4190  150.0881 H   0  0  0  0  0  0  0  0  0  0  0  0  # atno 10718 bound_to 10713
  153.2967  135.6952  153.7242 H   0  0  0  0  0  0  0  0  0  0  0  0  # atno 10763 bound_to 10752
  153.6172  135.3434  155.2999 H   0  0  0  0  0  0  0  0  0  0  0  0  # atno 10764 bound_to 10752
  154.8539  135.4377  154.2065 H   0  0  0  0  0  0  0  0  0  0  0  0  # atno 10765 bound_to 10752
  139.9225  134.9639  156.7957 H   0  0  0  0  0  0  0  0  0  0  0  0  # atno 11005 bound_to 11000
  146.3203  139.8085  142.8951 LP  0  0  0  0  0  0  0  0  0  0  0  0  # atno 17320 bound_to 7965
  145.3300  141.0264  143.3451 LP  0  0  0  0  0  0  0  0  0  0  0  0  # atno 17321 bound_to 7965
  139.5955  144.7565  151.3297 LP  0  0  0  0  0  0  0  0  0  0  0  0  # atno 17342 bound_to 10162
  140.7218  143.7115  150.7766 LP  0  0  0  0  0  0  0  0  0  0  0  0  # atno 17343 bound_to 10162
  156.8875  130.9577  151.3592 LP  0  0  0  0  0  0  0  0  0  0  0  0  # atno 17370 bound_to 10713
  157.6142  130.8605  149.9000 LP  0  0  0  0  0  0  0  0  0  0  0  0  # atno 17371 bound_to 10713
  140.6431  133.9800  155.7717 LP  0  0  0  0  0  0  0  0  0  0  0  0  # atno 17394 bound_to 11000
  141.0758  134.0137  157.3460 LP  0  0  0  0  0  0  0  0  0  0  0  0  # atno 17395 bound_to 11000

$$$$
