AV-unprocessed.smi:1907|AV-procd|sdf|7731|dock8
  -GOLD-   22720 9473D 1   1.00000     0.00000
 Structure written by MMmdl.
 32 33  0  0  0  0  0  0  0  0  1 V2000
  149.8384  136.7006  155.6760 N   0  0  0  0  0  0  0  0  0  0  0  0
  151.0516  137.0881  155.2724 C   0  0  0  0  0  0  0  0  0  0  0  0
  152.0821  136.6848  155.8070 O   0  0  0  0  0  0  0  0  0  0  0  0
  151.1187  138.0726  154.1033 C   0  0  0  0  0  0  0  0  0  0  0  0
  150.3218  139.3061  154.4139 C   0  0  0  0  0  0  0  0  0  0  0  0
  149.2190  139.7710  153.7387 C   0  0  0  0  0  0  0  0  0  0  0  0
  148.6027  141.2486  154.4299 S   0  0  0  0  0  0  0  0  0  0  0  0
  149.8671  141.1611  155.6457 C   0  0  0  0  0  0  0  0  0  0  0  0
  150.0309  142.1587  156.6409 N   0  0  0  0  0  0  0  0  0  0  0  0
  150.7623  142.1354  157.7734 C   0  0  0  0  0  0  0  0  0  0  0  0
  151.4320  141.1392  158.0442 O   0  0  0  0  0  0  0  0  0  0  0  0
  150.7950  143.3542  158.7257 C   0  0  0  0  0  0  0  0  0  0  0  0
  151.2809  144.6418  158.0349 C   0  0  0  0  0  0  0  0  0  0  0  0
  152.8017  144.7143  158.2424 C   0  0  0  0  0  0  0  0  0  0  0  0
  153.1496  143.6636  159.3049 C   0  0  0  0  0  0  0  0  0  0  0  0
  151.8118  143.1694  159.8617 C   0  0  0  0  0  0  0  0  0  0  0  0
  150.6945  140.1237  155.4854 N   0  0  0  0  0  0  0  0  0  0  0  0
  149.7491  136.0462  156.4396 H   0  0  0  0  0  0  0  0  0  0  0  0
  149.0155  137.0573  155.2121 H   0  0  0  0  0  0  0  0  0  0  0  0
  152.1602  138.3242  153.8981 H   0  0  0  0  0  0  0  0  0  0  0  0
  150.7385  137.5863  153.2042 H   0  0  0  0  0  0  0  0  0  0  0  0
  148.7349  139.3351  152.8774 H   0  0  0  0  0  0  0  0  0  0  0  0
  149.5256  143.0161  156.4712 H   0  0  0  0  0  0  0  0  0  0  0  0
  149.7936  143.5380  159.1138 H   0  0  0  0  0  0  0  0  0  0  0  0
  151.0117  144.6900  156.9785 H   0  0  0  0  0  0  0  0  0  0  0  0
  150.8113  145.5021  158.5135 H   0  0  0  0  0  0  0  0  0  0  0  0
  153.3321  144.5017  157.3135 H   0  0  0  0  0  0  0  0  0  0  0  0
  153.0968  145.7139  158.5633 H   0  0  0  0  0  0  0  0  0  0  0  0
  153.6811  142.8342  158.8366 H   0  0  0  0  0  0  0  0  0  0  0  0
  153.7954  144.0632  160.0873 H   0  0  0  0  0  0  0  0  0  0  0  0
  151.5158  143.7852  160.7121 H   0  0  0  0  0  0  0  0  0  0  0  0
  151.8770  142.1406  160.2186 H   0  0  0  0  0  0  0  0  0  0  0  0
  1  2  1  0  0  0  0
  1 18  1  0  0  0  0
  1 19  1  0  0  0  0
  2  3  2  0  0  0  0
  2  4  1  0  0  0  0
  4  5  1  0  0  0  0
  4 20  1  0  0  0  0
  4 21  1  0  0  0  0
  5 17  1  0  0  0  0
  5  6  2  0  0  0  0
  6  7  1  0  0  0  0
  6 22  1  0  0  0  0
  7  8  1  0  0  0  0
  8  9  1  0  0  0  0
  8 17  2  0  0  0  0
  9 10  1  0  0  0  0
  9 23  1  0  0  0  0
 10 11  2  0  0  0  0
 10 12  1  0  0  0  0
 12 16  1  0  0  0  0
 12 13  1  0  0  0  0
 12 24  1  0  0  0  0
 13 14  1  0  0  0  0
 13 25  1  0  0  0  0
 13 26  1  0  0  0  0
 14 15  1  0  0  0  0
 14 27  1  0  0  0  0
 14 28  1  0  0  0  0
 15 16  1  0  0  0  0
 15 29  1  0  0  0  0
 15 30  1  0  0  0  0
 16 31  1  0  0  0  0
 16 32  1  0  0  0  0
M  END
> <s_m_source_file>
AV-unprocessed.smi

> <i_m_source_file_index>
1907

> <i_lp_mmshare_version>
43012

> <i_f3d_flags>
0

> <s_epik_input>
W05IMl1DKD1PKVtDSDJdYzFbY0hdc2MobjEpW05IXUMoPU8pW0NIXTJbQ0gyXVtDSDJdW0NIMl1bQ0gyXTI=

> <s_epik_cmdline>
J2VwaWtfcHl0aG9uJywgJy1waCcsICc3LjAnLCAnLXRuJywgJzgnLCAnLW1hJywgJzIwMCcsICctbWV0YWxfYmluZGluZycsICctaW1hZScsICc8aW5maWxlLm1hZT4nLCAnLW9tYWUnLCAnPG91dGZpbGUubWFlPic=

> <r_lp_tautomer_probability>
1

> <r_epik_Ionization_Penalty>
0.00017492

> <r_epik_Ionization_Penalty_Charging>
0

> <r_epik_Ionization_Penalty_Neutral>
0.00017492

> <r_epik_State_Penalty>
-0

> <r_epik_Charging_Adjusted_Penalty>
0

> <i_epik_Tot_Q>
0

> <i_epik_Tot_abs_Q>
0

> <r_epik_Metal_State_Penalty>
0.109333

> <b_epik_Metal_Only>
0

> <s_lp_Force_Field>
OPLS_2005

> <r_lp_Energy>
23.3326

> <b_lp_Chiralities_Consistent>
1

> <s_lp_Variant>
AV-unprocessed.smi:1907-1

> <Gold.Version>
5.8.1

> <Gold.Id.Protein>
6NUR|6NUR_protein|mol2

> <Gold.PLP.Fitness>
43.7862

> <Gold.PLP.PLP>
-36.1452

> <Gold.PLP.part.hbond>
-2.1877

> <Gold.PLP.part.metal>
0.0000

> <Gold.PLP.part.buried>
-1.4187

> <Gold.PLP.part.nonpolar>
-32.6269

> <Gold.PLP.part.repulsive>
0.1254

> <Gold.PLP.ligand.clash>
0.0000

> <Gold.PLP.ligand.torsion>
0.1162

> <Gold.PLP.Chemscore.Hbond>
2.0000

> <Gold.PLP.Chemscore.CHOScore>
0.6155

> <Gold.PLP.Chemscore.Metal>
0.0000

> <Gold.Chemscore.Hbonds>
donor molecule, donor type, donor heavy atom, donor atom, acceptor molecule, acceptor atom, score
      L1  H     9    23       P1  8028  1.00
      P1  H 10752 10763       L1     3  1.00
      L1  C     6    22       P1  7957  0.61

> <Gold.PLP.Chemscore.Internal.Correction>
0.0269

> <Gold.Rescore>
     Score         DG    S(hbond)    S(metal)    S(lipo)     H(rot)  DE(clash)    DE(int)     intcor
     15.64     -18.24       1.98        0.00      94.13       1.90       1.11       1.50       ----

> <Gold.Chemscore.Fitness>
15.6365

> <Gold.Chemscore.DG>
-18.2390

> <Gold.Chemscore.ZeroCoef>
-5.4800

> <Gold.Chemscore.Hbond>
1.9811

> <Gold.Chemscore.Metal>
0.0000

> <Gold.Chemscore.Lipo>
94.1320

> <Gold.Chemscore.Internal_Hbond>
0.0000

> <Gold.Chemscore.DEClash>
1.1060

> <Gold.Chemscore.DEInternal>
1.4966

> <Gold.Chemscore.Rot>
1.9028

> <Gold.Chemscore.Internal.Correction>
   9.000000E+99

> <Gold.Chemscore.Hbonds>
donor molecule, donor type, donor heavy atom, donor atom, acceptor molecule, acceptor atom, score
      L1  H     9    23       P1  8028  0.97
      P1  H 10752 10763       L1     3  0.95

> <Gold.Chemscore.Hbond.Weighted>
-6.6167

> <Gold.Chemscore.Metal.Weighted>
-0.0000

> <Gold.Chemscore.Lipo.Weighted>
-11.0134

> <Gold.Chemscore.Internal_Hbond.Weighted>
0.0000

> <Gold.Chemscore.DEClash.Weighted>
1.1060

> <Gold.Chemscore.DEInternal.Weighted>
1.4966

> <Gold.Chemscore.Rot.Weighted>
4.8711

> <Gold.Chemscore.Internal.Correction.Weighted>
   9.000000E+99

> <Gold.Protein.RotatedTorsions>
[ 6907 6896 6895 6894 ] final   27.81 input  -60.11 | X-H torsion
[ 7974 7965 7964 7962 ] final  -60.84 input  175.53 | X-H torsion
[ 8008 7997 7996 7995 ] final -147.35 input   59.86 | X-H torsion
[ 10167 10162 10161 10158 ] final  118.43 input  -65.29 | X-H torsion
[ 10718 10713 10712 10709 ] final  -69.90 input   66.30 | X-H torsion
[ 10763 10752 10751 10750 ] final   83.40 input  -60.55 | X-H torsion
[ 11005 11000 10999 10996 ] final  -29.25 input  -57.11 | X-H torsion

> <Gold.Protein.ActiveResidues>
 VAL166  LYS551  ARG553  GLY616  TRP617  ASP618  TYR619  PRO620  LYS621  CYS622 
 ASP623  PHE694  ASN695  SER759  ASP760  ASP761  ALA762  ILE779  LEU786  VAL792 
 PHE793  MET794  SER795  GLU796  ALA797  LYS798  CYS799  TRP800  GLU811  SER814 

> <Gold.Protein.RotatedAtoms>
  152.0077  134.9893  160.0566 H   0  0  0  0  0  0  0  0  0  0  0  0  # atno 6907 bound_to 6896
  152.1459  133.4487  159.4798 H   0  0  0  0  0  0  0  0  0  0  0  0  # atno 6908 bound_to 6896
  150.6870  134.2167  159.4423 H   0  0  0  0  0  0  0  0  0  0  0  0  # atno 6909 bound_to 6896
  145.8107  140.8600  143.0183 H   0  0  0  0  0  0  0  0  0  0  0  0  # atno 7974 bound_to 7965
  155.5742  140.0637  157.2799 H   0  0  0  0  0  0  0  0  0  0  0  0  # atno 8008 bound_to 7997
  154.4352  140.1863  156.0956 H   0  0  0  0  0  0  0  0  0  0  0  0  # atno 8009 bound_to 7997
  156.0354  140.3302  155.7188 H   0  0  0  0  0  0  0  0  0  0  0  0  # atno 8010 bound_to 7997
  139.6112  144.7082  151.2840 H   0  0  0  0  0  0  0  0  0  0  0  0  # atno 10167 bound_to 10162
  156.0433  130.4321  150.2215 H   0  0  0  0  0  0  0  0  0  0  0  0  # atno 10718 bound_to 10713
  153.1288  135.4692  154.9315 H   0  0  0  0  0  0  0  0  0  0  0  0  # atno 10763 bound_to 10752
  154.7645  135.3141  154.8316 H   0  0  0  0  0  0  0  0  0  0  0  0  # atno 10764 bound_to 10752
  153.8863  135.6889  153.4817 H   0  0  0  0  0  0  0  0  0  0  0  0  # atno 10765 bound_to 10752
  140.9279  133.7357  156.0894 H   0  0  0  0  0  0  0  0  0  0  0  0  # atno 11005 bound_to 11000
  144.6758  140.0391  143.7481 LP  0  0  0  0  0  0  0  0  0  0  0  0  # atno 17320 bound_to 7965
  145.9780  139.2920  143.1059 LP  0  0  0  0  0  0  0  0  0  0  0  0  # atno 17321 bound_to 7965
  140.7320  143.6835  150.7981 LP  0  0  0  0  0  0  0  0  0  0  0  0  # atno 17342 bound_to 10162
  140.0430  143.5327  152.2709 LP  0  0  0  0  0  0  0  0  0  0  0  0  # atno 17343 bound_to 10162
  157.0308  131.0007  151.3313 LP  0  0  0  0  0  0  0  0  0  0  0  0  # atno 17370 bound_to 10713
  157.5279  130.8039  149.7883 LP  0  0  0  0  0  0  0  0  0  0  0  0  # atno 17371 bound_to 10713
  140.7901  134.3627  157.5466 LP  0  0  0  0  0  0  0  0  0  0  0  0  # atno 17394 bound_to 11000
  139.8789  134.9135  156.3085 LP  0  0  0  0  0  0  0  0  0  0  0  0  # atno 17395 bound_to 11000

$$$$
