AV-unprocessed.smi:34|AV-procd|sdf|233|dock2
  -GOLD-   2262015563D 1   1.00000     0.00000
 Structure written by MMmdl.
 54 58  0  0  0  0  0  0  0  0  2 V2000
  152.6295  139.9695  157.8237 O   0  0  0  0  0  0  0  0  0  0  0  0
  151.7197  140.7936  157.7098 C   0  0  0  0  0  0  0  0  0  0  0  0
  150.6069  140.7051  156.9377 N   0  5  0  0  0  0  0  0  0  0  0  0
  150.4251  139.6405  156.1416 C   0  0  0  0  0  0  0  0  0  0  0  0
  150.7145  139.7173  154.8178 N   0  0  0  0  0  0  0  0  0  0  0  0
  150.5196  138.6602  154.0215 C   0  0  0  0  0  0  0  0  0  0  0  0
  150.0439  137.4515  154.3341 N   0  0  0  0  0  0  0  0  0  0  0  0
  149.7434  137.3594  155.6614 C   0  0  0  0  0  0  0  0  0  0  0  0
  149.9043  138.4053  156.6172 C   0  0  0  0  0  0  0  0  0  0  0  0
  149.5025  137.9874  157.8769 N   0  0  0  0  0  0  0  0  0  0  0  0
  149.1272  136.7336  157.6362 C   0  0  0  0  0  0  0  0  0  0  0  0
  149.2289  136.2837  156.3699 N   0  0  0  0  0  0  0  0  0  0  0  0
  148.8510  134.9237  155.8762 C   0  0  2  0  0  0  0  0  0  0  0  0
  147.5794  134.9861  155.2989 O   0  0  0  0  0  0  0  0  0  0  0  0
  146.7779  133.8728  155.7106 C   0  0  2  0  0  0  0  0  0  0  0  0
  145.6337  134.3564  156.6126 C   0  0  0  0  0  0  0  0  0  0  0  0
  145.0425  133.2464  157.2684 O   0  0  0  0  0  0  0  0  0  0  0  0
  143.7190  133.2423  157.5221 C   0  0  0  0  0  0  0  0  0  0  0  0
  142.9620  134.1653  157.2139 O   0  0  0  0  0  0  0  0  0  0  0  0
  143.2635  132.0028  158.2143 C   0  0  0  0  0  0  0  0  0  0  0  0
  144.2186  131.0301  158.5916 C   0  0  0  0  0  0  0  0  0  0  0  0
  143.8199  129.8497  159.2483 C   0  0  0  0  0  0  0  0  0  0  0  0
  142.4607  129.6278  159.5362 C   0  0  0  0  0  0  0  0  0  0  0  0
  141.5008  130.5881  159.1670 C   0  0  0  0  0  0  0  0  0  0  0  0
  141.8976  131.7696  158.5105 C   0  0  0  0  0  0  0  0  0  0  0  0
  147.7440  132.9504  156.4576 C   0  0  1  0  0  0  0  0  0  0  0  0
  148.3128  132.1420  155.5584 F   0  0  0  0  0  0  0  0  0  0  0  0
  148.7579  133.9282  157.0284 C   0  0  1  0  0  0  0  0  0  0  0  0
  149.9757  133.2710  157.3165 O   0  0  0  0  0  0  0  0  0  0  0  0
  151.8306  142.1031  158.4442 C   0  0  0  0  0  0  0  0  0  0  0  0
  151.2861  143.2755  157.8718 C   0  0  0  0  0  0  0  0  0  0  0  0
  151.4019  144.5152  158.5307 C   0  0  0  0  0  0  0  0  0  0  0  0
  152.0714  144.5975  159.7659 C   0  0  0  0  0  0  0  0  0  0  0  0
  152.6293  143.4397  160.3394 C   0  0  0  0  0  0  0  0  0  0  0  0
  152.5148  142.1999  159.6808 C   0  0  0  0  0  0  0  0  0  0  0  0
  150.7793  138.8035  152.9832 H   0  0  0  0  0  0  0  0  0  0  0  0
  148.7483  136.1049  158.4285 H   0  0  0  0  0  0  0  0  0  0  0  0
  149.5940  134.6607  155.1212 H   0  0  0  0  0  0  0  0  0  0  0  0
  146.3605  133.3707  154.8367 H   0  0  0  0  0  0  0  0  0  0  0  0
  146.0198  135.0425  157.3672 H   0  0  0  0  0  0  0  0  0  0  0  0
  144.8949  134.9063  156.0299 H   0  0  0  0  0  0  0  0  0  0  0  0
  145.2682  131.1787  158.3821 H   0  0  0  0  0  0  0  0  0  0  0  0
  144.5588  129.1148  159.5323 H   0  0  0  0  0  0  0  0  0  0  0  0
  142.1553  128.7230  160.0408 H   0  0  0  0  0  0  0  0  0  0  0  0
  140.4571  130.4192  159.3881 H   0  0  0  0  0  0  0  0  0  0  0  0
  141.1357  132.4872  158.2432 H   0  0  0  0  0  0  0  0  0  0  0  0
  147.2659  132.3228  157.2106 H   0  0  0  0  0  0  0  0  0  0  0  0
  148.3597  134.4210  157.9170 H   0  0  0  0  0  0  0  0  0  0  0  0
  149.9765  132.4351  156.8752 H   0  0  0  0  0  0  0  0  0  0  0  0
  150.7704  143.2298  156.9234 H   0  0  0  0  0  0  0  0  0  0  0  0
  150.9774  145.4033  158.0865 H   0  0  0  0  0  0  0  0  0  0  0  0
  152.1608  145.5479  160.2706 H   0  0  0  0  0  0  0  0  0  0  0  0
  153.1490  143.5018  161.2840 H   0  0  0  0  0  0  0  0  0  0  0  0
  152.9604  141.3255  160.1330 H   0  0  0  0  0  0  0  0  0  0  0  0
  1  2  2  0  0  0  0
  2  3  1  0  0  0  0
  2 30  1  0  0  0  0
  3  4  1  0  0  0  0
  4  9  1  0  0  0  0
  4  5  2  0  0  0  0
  5  6  1  0  0  0  0
  6  7  2  0  0  0  0
  6 36  1  0  0  0  0
  7  8  1  0  0  0  0
  8 12  1  0  0  0  0
  8  9  2  0  0  0  0
  9 10  1  0  0  0  0
 10 11  2  0  0  0  0
 11 12  1  0  0  0  0
 11 37  1  0  0  0  0
 12 13  1  0  0  0  0
 13 28  1  0  0  0  0
 13 14  1  0  0  0  0
 13 38  1  0  0  0  0
 14 15  1  0  0  0  0
 15 16  1  0  0  0  0
 15 26  1  0  0  0  0
 15 39  1  0  0  0  0
 16 17  1  0  0  0  0
 16 40  1  0  0  0  0
 16 41  1  0  0  0  0
 17 18  1  0  0  0  0
 18 19  2  0  0  0  0
 18 20  1  0  0  0  0
 20 25  1  0  0  0  0
 20 21  2  0  0  0  0
 21 22  1  0  0  0  0
 21 42  1  0  0  0  0
 22 23  2  0  0  0  0
 22 43  1  0  0  0  0
 23 24  1  0  0  0  0
 23 44  1  0  0  0  0
 24 25  2  0  0  0  0
 24 45  1  0  0  0  0
 25 46  1  0  0  0  0
 26 27  1  0  0  0  0
 26 28  1  0  0  0  0
 26 47  1  0  0  0  0
 28 29  1  0  0  0  0
 28 48  1  0  0  0  0
 29 49  1  0  0  0  0
 30 35  1  0  0  0  0
 30 31  2  0  0  0  0
 31 32  1  0  0  0  0
 31 50  1  0  0  0  0
 32 33  2  0  0  0  0
 32 51  1  0  0  0  0
 33 34  1  0  0  0  0
 33 52  1  0  0  0  0
 34 35  2  0  0  0  0
 34 53  1  0  0  0  0
 35 54  1  0  0  0  0
M  CHG  1   3  -1
M  END
> <s_m_source_file>
AV-unprocessed.smi

> <i_m_source_file_index>
34

> <i_lp_mmshare_version>
43012

> <i_f3d_flags>
0

> <s_epik_input>
W2NIXTFbY0hdW2NIXVtjSF1bY0hdYzFDKD1PKVtOSF1jKG5bY0hdbjIpYyhjMjMpbltjSF1uM1tDQEBIXTRPW0NASF0oW0NAQEhdKEYpW0NASF00W09IXSlbQ0gyXU9DKD1PKWM1W2NIXVtjSF1bY0hdW2NIXVtjSF01

> <s_epik_cmdline>
J2VwaWtfcHl0aG9uJywgJy1waCcsICc3LjAnLCAnLXRuJywgJzgnLCAnLW1hJywgJzIwMCcsICctbWV0YWxfYmluZGluZycsICctaW1hZScsICc8aW5maWxlLm1hZT4nLCAnLW9tYWUnLCAnPG91dGZpbGUubWFlPic=

> <r_lp_tautomer_probability>
1

> <r_epik_Ionization_Penalty>
4.33227

> <r_epik_Ionization_Penalty_Charging>
3.41027

> <r_epik_Ionization_Penalty_Neutral>
0.922001

> <r_epik_State_Penalty>
3.41358

> <r_epik_Charging_Adjusted_Penalty>
6.82385

> <i_epik_Tot_Q>
-1

> <i_epik_Tot_abs_Q>
1

> <r_epik_Metal_State_Penalty>
0.496292

> <b_epik_Metal_Only>
1

> <s_epik_Chemistry_Notes>
This compound has an ester and may undergo hydrolysis at high or low pH. This compound contains an acetal/aminal-like group ( X-CH(R)-Y where X, Y are N, S, or O) that may be acid/base labile, releasing an aldehyde.

> <s_lp_Force_Field>
OPLS_2005

> <r_lp_Energy>
46.7296

> <b_lp_Chiralities_Consistent>
1

> <s_lp_Variant>
AV-unprocessed.smi:34-19

> <Gold.Version>
5.8.1

> <Gold.Id.Protein>
6NUR|6NUR_protein|mol2

> <Gold.PLP.Fitness>
55.0245

> <Gold.PLP.PLP>
-43.7723

> <Gold.PLP.part.hbond>
-3.9870

> <Gold.PLP.part.metal>
0.0000

> <Gold.PLP.part.buried>
-8.9877

> <Gold.PLP.part.nonpolar>
-32.7930

> <Gold.PLP.part.repulsive>
1.1832

> <Gold.PLP.ligand.clash>
0.0000

> <Gold.PLP.ligand.torsion>
1.9899

> <Gold.PLP.Chemscore.Hbond>
4.0000

> <Gold.PLP.Chemscore.CHOScore>
0.9920

> <Gold.PLP.Chemscore.Metal>
0.0000

> <Gold.Chemscore.Hbonds>
donor molecule, donor type, donor heavy atom, donor atom, acceptor molecule, acceptor atom, score
      P1  H  6896  6909       L1    29  0.70
      P1  H  7989  7998       L1     5  0.85
      P1  H  7997  8010       L1     1  0.88
      P1  H 11000 11005       L1    19  0.83
      L1  C     6    36       P1  7957  0.96

> <Gold.PLP.Chemscore.Internal.Correction>
0.2562

> <Gold.Rescore>
     Score         DG    S(hbond)    S(metal)    S(lipo)     H(rot)  DE(clash)    DE(int)     intcor
     19.93     -23.34       3.79        0.00     103.50       2.69       1.40       2.01       ----

> <Gold.Chemscore.Fitness>
19.9340

> <Gold.Chemscore.DG>
-23.3362

> <Gold.Chemscore.ZeroCoef>
-5.4800

> <Gold.Chemscore.Hbond>
3.7858

> <Gold.Chemscore.Metal>
0.0000

> <Gold.Chemscore.Lipo>
103.4980

> <Gold.Chemscore.Internal_Hbond>
0.0000

> <Gold.Chemscore.DEClash>
1.3956

> <Gold.Chemscore.DEInternal>
2.0066

> <Gold.Chemscore.Rot>
2.6944

> <Gold.Chemscore.Internal.Correction>
   9.000000E+99

> <Gold.Chemscore.Hbonds>
donor molecule, donor type, donor heavy atom, donor atom, acceptor molecule, acceptor atom, score
      P1  H  6896  6909       L1    29  0.64
      P1  H  7989  7998       L1     5  0.14
      P1  H  7997  8010       L1     1  0.84
      P1  H 11000 11005       L1    19  0.80

> <Gold.Chemscore.Hbond.Weighted>
-12.6445

> <Gold.Chemscore.Metal.Weighted>
-0.0000

> <Gold.Chemscore.Lipo.Weighted>
-12.1093

> <Gold.Chemscore.Internal_Hbond.Weighted>
0.0000

> <Gold.Chemscore.DEClash.Weighted>
1.3956

> <Gold.Chemscore.DEInternal.Weighted>
2.0066

> <Gold.Chemscore.Rot.Weighted>
6.8975

> <Gold.Chemscore.Internal.Correction.Weighted>
   9.000000E+99

> <Gold.Protein.RotatedTorsions>
[ 6907 6896 6895 6894 ] final   -8.54 input  -60.11 | X-H torsion
[ 7974 7965 7964 7962 ] final   67.08 input  175.53 | X-H torsion
[ 8008 7997 7996 7995 ] final   46.17 input   59.86 | X-H torsion
[ 10167 10162 10161 10158 ] final  140.12 input  -65.29 | X-H torsion
[ 10718 10713 10712 10709 ] final   53.55 input   66.30 | X-H torsion
[ 10763 10752 10751 10750 ] final  -16.90 input  -60.55 | X-H torsion
[ 11005 11000 10999 10996 ] final -109.33 input  -57.11 | X-H torsion

> <Gold.Protein.ActiveResidues>
 VAL166  LYS551  ARG553  GLY616  TRP617  ASP618  TYR619  PRO620  LYS621  CYS622 
 ASP623  PHE694  ASN695  SER759  ASP760  ASP761  ALA762  ILE779  LEU786  VAL792 
 PHE793  MET794  SER795  GLU796  ALA797  LYS798  CYS799  TRP800  GLU811  SER814 

> <Gold.Protein.RotatedAtoms>
  151.4320  135.1010  159.9644 H   0  0  0  0  0  0  0  0  0  0  0  0  # atno 6907 bound_to 6896
  152.4953  133.8609  159.7260 H   0  0  0  0  0  0  0  0  0  0  0  0  # atno 6908 bound_to 6896
  150.9148  133.6894  159.2873 H   0  0  0  0  0  0  0  0  0  0  0  0  # atno 6909 bound_to 6896
  145.8190  139.3074  143.1054 H   0  0  0  0  0  0  0  0  0  0  0  0  # atno 7974 bound_to 7965
  155.3481  140.3412  155.4239 H   0  0  0  0  0  0  0  0  0  0  0  0  # atno 8008 bound_to 7997
  156.1778  140.1653  156.8365 H   0  0  0  0  0  0  0  0  0  0  0  0  # atno 8009 bound_to 7997
  154.5301  140.0747  156.8312 H   0  0  0  0  0  0  0  0  0  0  0  0  # atno 8010 bound_to 7997
  139.5058  144.6253  151.5951 H   0  0  0  0  0  0  0  0  0  0  0  0  # atno 10167 bound_to 10162
  157.5177  130.8543  149.8517 H   0  0  0  0  0  0  0  0  0  0  0  0  # atno 10718 bound_to 10713
  153.5657  135.7008  153.5527 H   0  0  0  0  0  0  0  0  0  0  0  0  # atno 10763 bound_to 10752
  153.3389  135.4026  155.1556 H   0  0  0  0  0  0  0  0  0  0  0  0  # atno 10764 bound_to 10752
  154.8641  135.3737  154.5177 H   0  0  0  0  0  0  0  0  0  0  0  0  # atno 10765 bound_to 10752
  141.0853  133.9149  157.2198 H   0  0  0  0  0  0  0  0  0  0  0  0  # atno 11005 bound_to 11000
  145.9696  140.8771  143.0169 LP  0  0  0  0  0  0  0  0  0  0  0  0  # atno 17320 bound_to 7965
  144.6749  140.1926  143.7395 LP  0  0  0  0  0  0  0  0  0  0  0  0  # atno 17321 bound_to 7965
  140.5968  143.9681  150.6360 LP  0  0  0  0  0  0  0  0  0  0  0  0  # atno 17342 bound_to 10162
  140.2880  143.3344  152.1089 LP  0  0  0  0  0  0  0  0  0  0  0  0  # atno 17343 bound_to 10162
  156.0331  130.3759  150.1632 LP  0  0  0  0  0  0  0  0  0  0  0  0  # atno 17370 bound_to 10713
  156.9820  130.9867  151.3435 LP  0  0  0  0  0  0  0  0  0  0  0  0  # atno 17371 bound_to 10713
  139.9671  135.0139  156.9415 LP  0  0  0  0  0  0  0  0  0  0  0  0  # atno 17394 bound_to 11000
  140.5376  134.0752  155.7332 LP  0  0  0  0  0  0  0  0  0  0  0  0  # atno 17395 bound_to 11000

$$$$
