AV-unprocessed.smi:2351|AV-procd|sdf|9377|dock3
  -GOLD-   2272013 03D 1   1.00000     0.00000
 Structure written by MMmdl.
 47 49  0  0  0  0  0  0  0  0  2 V2000
  144.7113  136.3307  153.4814 O   0  0  0  0  0  0  0  0  0  0  0  0
  145.8596  136.3276  153.0395 C   0  0  0  0  0  0  0  0  0  0  0  0
  146.3893  135.3822  152.2442 N   0  0  0  0  0  0  0  0  0  0  0  0
  145.7712  134.2274  151.6898 C   0  0  0  0  0  0  0  0  0  0  0  0
  144.4436  134.1890  151.1980 C   0  0  0  0  0  0  0  0  0  0  0  0
  143.9593  132.9814  150.6554 C   0  0  0  0  0  0  0  0  0  0  0  0
  144.6971  131.8544  150.5707 N   0  0  0  0  0  0  0  0  0  0  0  0
  145.9657  131.8978  151.0294 C   0  0  0  0  0  0  0  0  0  0  0  0
  146.5468  133.0529  151.5903 C   0  0  0  0  0  0  0  0  0  0  0  0
  147.8294  133.0294  152.0273 F   0  0  0  0  0  0  0  0  0  0  0  0
  146.7563  137.2864  153.3135 N   0  0  0  0  0  0  0  0  0  0  0  0
  146.5126  138.4579  154.1551 C   0  0  2  0  0  0  0  0  0  0  0  0
  147.0724  139.7481  153.5233 C   0  0  0  0  0  0  0  0  0  0  0  0
  148.6107  139.7716  153.5301 C   0  0  0  0  0  0  0  0  0  0  0  0
  149.1441  139.5954  154.9054 N   0  3  2  0  0  0  0  0  0  0  0  0
  150.6195  139.7601  154.9595 C   0  0  0  0  0  0  0  0  0  0  0  0
  151.0812  140.5917  156.1725 C   0  0  1  0  0  0  0  0  0  0  0  0
  150.7155  142.0591  156.0778 C   0  0  0  0  0  0  0  0  0  0  0  0
  150.8304  142.5105  157.5310 C   0  0  0  0  0  0  0  0  0  0  0  0
  150.5078  141.3687  158.3200 O   0  0  0  0  0  0  0  0  0  0  0  0
  150.4050  140.2154  157.4918 C   0  0  0  0  0  0  0  0  0  0  0  0
  148.6709  138.3232  155.5141 C   0  0  0  0  0  0  0  0  0  0  0  0
  147.1326  138.2572  155.5486 C   0  0  0  0  0  0  0  0  0  0  0  0
  147.3719  135.4794  152.0340 H   0  0  0  0  0  0  0  0  0  0  0  0
  143.7950  135.0506  151.2127 H   0  0  0  0  0  0  0  0  0  0  0  0
  142.9513  132.9214  150.2729 H   0  0  0  0  0  0  0  0  0  0  0  0
  146.5362  130.9847  150.9446 H   0  0  0  0  0  0  0  0  0  0  0  0
  147.6809  137.1935  152.9189 H   0  0  0  0  0  0  0  0  0  0  0  0
  145.4330  138.5635  154.2763 H   0  0  0  0  0  0  0  0  0  0  0  0
  146.7013  139.8736  152.5057 H   0  0  0  0  0  0  0  0  0  0  0  0
  146.7026  140.6080  154.0835 H   0  0  0  0  0  0  0  0  0  0  0  0
  149.0069  138.9901  152.8797 H   0  0  0  0  0  0  0  0  0  0  0  0
  148.9509  140.7241  153.1219 H   0  0  0  0  0  0  0  0  0  0  0  0
  151.0956  138.7784  154.9652 H   0  0  0  0  0  0  0  0  0  0  0  0
  150.9643  140.2582  154.0520 H   0  0  0  0  0  0  0  0  0  0  0  0
  152.1622  140.5270  156.2970 H   0  0  0  0  0  0  0  0  0  0  0  0
  151.3661  142.6216  155.4076 H   0  0  0  0  0  0  0  0  0  0  0  0
  149.6869  142.1765  155.7328 H   0  0  0  0  0  0  0  0  0  0  0  0
  151.8546  142.8090  157.7576 H   0  0  0  0  0  0  0  0  0  0  0  0
  150.1745  143.3513  157.7580 H   0  0  0  0  0  0  0  0  0  0  0  0
  149.3472  139.9971  157.3380 H   0  0  0  0  0  0  0  0  0  0  0  0
  150.8636  139.3457  157.9632 H   0  0  0  0  0  0  0  0  0  0  0  0
  149.0724  137.4785  154.9522 H   0  0  0  0  0  0  0  0  0  0  0  0
  149.0460  138.2262  156.5319 H   0  0  0  0  0  0  0  0  0  0  0  0
  146.7597  139.0319  156.2201 H   0  0  0  0  0  0  0  0  0  0  0  0
  146.8069  137.3074  155.9749 H   0  0  0  0  0  0  0  0  0  0  0  0
  148.7534  140.3484  155.4537 H   0  0  0  0  0  0  0  0  0  0  0  0
  1  2  2  0  0  0  0
  2  3  1  0  0  0  0
  2 11  1  0  0  0  0
  3  4  1  0  0  0  0
  3 24  1  0  0  0  0
  4  9  1  0  0  0  0
  4  5  2  0  0  0  0
  5  6  1  0  0  0  0
  5 25  1  0  0  0  0
  6  7  2  0  0  0  0
  6 26  1  0  0  0  0
  7  8  1  0  0  0  0
  8  9  2  0  0  0  0
  8 27  1  0  0  0  0
  9 10  1  0  0  0  0
 11 12  1  0  0  0  0
 11 28  1  0  0  0  0
 12 23  1  0  0  0  0
 12 13  1  0  0  0  0
 12 29  1  0  0  0  0
 13 14  1  0  0  0  0
 13 30  1  0  0  0  0
 13 31  1  0  0  0  0
 14 15  1  0  0  0  0
 14 32  1  0  0  0  0
 14 33  1  0  0  0  0
 15 16  1  0  0  0  0
 15 22  1  0  0  0  0
 15 47  1  0  0  0  0
 16 17  1  0  0  0  0
 16 34  1  0  0  0  0
 16 35  1  0  0  0  0
 17 21  1  0  0  0  0
 17 18  1  0  0  0  0
 17 36  1  0  0  0  0
 18 19  1  0  0  0  0
 18 37  1  0  0  0  0
 18 38  1  0  0  0  0
 19 20  1  0  0  0  0
 19 39  1  0  0  0  0
 19 40  1  0  0  0  0
 20 21  1  0  0  0  0
 21 41  1  0  0  0  0
 21 42  1  0  0  0  0
 22 23  1  0  0  0  0
 22 43  1  0  0  0  0
 22 44  1  0  0  0  0
 23 45  1  0  0  0  0
 23 46  1  0  0  0  0
M  CHG  1  15   1
M  END
> <s_m_source_file>
AV-unprocessed.smi

> <i_m_source_file_index>
2351

> <i_lp_mmshare_version>
43012

> <i_f3d_flags>
0

> <s_epik_input>
RmMxW2NIXW5bY0hdW2NIXWMxW05IXUMoPU8pW05IXVtDSF0yW0NIMl1bQ0gyXU4oW0NIMl1bQ0gyXTIpW0NIMl1bQ0BASF0zW0NIMl1bQ0gyXU9bQ0gyXTM=

> <s_epik_cmdline>
J2VwaWtfcHl0aG9uJywgJy1waCcsICc3LjAnLCAnLXRuJywgJzgnLCAnLW1hJywgJzIwMCcsICctbWV0YWxfYmluZGluZycsICctaW1hZScsICc8aW5maWxlLm1hZT4nLCAnLW9tYWUnLCAnPG91dGZpbGUubWFlPic=

> <r_epik_Ionization_Penalty>
0.0102464

> <r_epik_Ionization_Penalty_Charging>
0.00747775

> <r_epik_Ionization_Penalty_Neutral>
0.00276864

> <r_epik_State_Penalty>
0.00558817

> <r_epik_Charging_Adjusted_Penalty>
0.0130659

> <i_epik_Tot_Q>
1

> <i_epik_Tot_abs_Q>
1

> <r_epik_Metal_State_Penalty>
-0

> <b_epik_Metal_Only>
0

> <s_lp_Force_Field>
OPLS_2005

> <r_lp_Energy>
39.2901

> <b_lp_Chiralities_Consistent>
1

> <s_lp_Variant>
AV-unprocessed.smi:2351-4

> <Gold.Version>
5.8.1

> <Gold.Id.Protein>
6NUR|6NUR_protein|mol2

> <Gold.PLP.Fitness>
40.8269

> <Gold.PLP.PLP>
-31.3253

> <Gold.PLP.part.hbond>
-2.0000

> <Gold.PLP.part.metal>
0.0000

> <Gold.PLP.part.buried>
-0.2085

> <Gold.PLP.part.nonpolar>
-29.1316

> <Gold.PLP.part.repulsive>
0.3068

> <Gold.PLP.ligand.clash>
0.0000

> <Gold.PLP.ligand.torsion>
1.1275

> <Gold.PLP.Chemscore.Hbond>
2.0000

> <Gold.PLP.Chemscore.CHOScore>
1.9094

> <Gold.PLP.Chemscore.Metal>
0.0000

> <Gold.Chemscore.Hbonds>
donor molecule, donor type, donor heavy atom, donor atom, acceptor molecule, acceptor atom, score
      L1  H     3    24       P1  7948  1.00
      L1  H    11    28       P1  7948  1.00
      L1  C     6    26       P1 10186  0.93
      L1  C     8    27       P1 10747  0.91

> <Gold.PLP.Chemscore.Internal.Correction>
0.0284

> <Gold.Rescore>
     Score         DG    S(hbond)    S(metal)    S(lipo)     H(rot)  DE(clash)    DE(int)     intcor
     15.59     -18.29       1.97        0.00      85.03       1.45       1.66       1.04       ----

> <Gold.Chemscore.Fitness>
15.5943

> <Gold.Chemscore.DG>
-18.2929

> <Gold.Chemscore.ZeroCoef>
-5.4800

> <Gold.Chemscore.Hbond>
1.9677

> <Gold.Chemscore.Metal>
0.0000

> <Gold.Chemscore.Lipo>
85.0306

> <Gold.Chemscore.Internal_Hbond>
0.0000

> <Gold.Chemscore.DEClash>
1.6563

> <Gold.Chemscore.DEInternal>
1.0424

> <Gold.Chemscore.Rot>
1.4483

> <Gold.Chemscore.Internal.Correction>
   9.000000E+99

> <Gold.Chemscore.Hbonds>
donor molecule, donor type, donor heavy atom, donor atom, acceptor molecule, acceptor atom, score
      L1  H     3    24       P1  7948  1.00
      L1  H    11    28       P1  7948  0.95

> <Gold.Chemscore.Hbond.Weighted>
-6.5720

> <Gold.Chemscore.Metal.Weighted>
-0.0000

> <Gold.Chemscore.Lipo.Weighted>
-9.9486

> <Gold.Chemscore.Internal_Hbond.Weighted>
0.0000

> <Gold.Chemscore.DEClash.Weighted>
1.6563

> <Gold.Chemscore.DEInternal.Weighted>
1.0424

> <Gold.Chemscore.Rot.Weighted>
3.7077

> <Gold.Chemscore.Internal.Correction.Weighted>
   9.000000E+99

> <Gold.Protein.RotatedTorsions>
[ 6907 6896 6895 6894 ] final -136.53 input  -60.11 | X-H torsion
[ 7974 7965 7964 7962 ] final   34.37 input  175.53 | X-H torsion
[ 8008 7997 7996 7995 ] final   22.82 input   59.86 | X-H torsion
[ 10167 10162 10161 10158 ] final  -23.96 input  -65.29 | X-H torsion
[ 10718 10713 10712 10709 ] final  154.28 input   66.30 | X-H torsion
[ 10763 10752 10751 10750 ] final   19.89 input  -60.55 | X-H torsion
[ 11005 11000 10999 10996 ] final -168.31 input  -57.11 | X-H torsion

> <Gold.Protein.ActiveResidues>
 VAL166  LYS551  ARG553  GLY616  TRP617  ASP618  TYR619  PRO620  LYS621  CYS622 
 ASP623  PHE694  ASN695  SER759  ASP760  ASP761  ALA762  ILE779  LEU786  VAL792 
 PHE793  MET794  SER795  GLU796  ALA797  LYS798  CYS799  TRP800  GLU811  SER814 

> <Gold.Protein.RotatedAtoms>
  151.0113  133.5963  159.2682 H   0  0  0  0  0  0  0  0  0  0  0  0  # atno 6907 bound_to 6896
  151.3114  135.0794  159.9283 H   0  0  0  0  0  0  0  0  0  0  0  0  # atno 6908 bound_to 6896
  152.5300  133.9777  159.7846 H   0  0  0  0  0  0  0  0  0  0  0  0  # atno 6909 bound_to 6896
  146.1357  139.6278  142.9196 H   0  0  0  0  0  0  0  0  0  0  0  0  # atno 7974 bound_to 7965
  154.9716  140.3091  155.4985 H   0  0  0  0  0  0  0  0  0  0  0  0  # atno 8008 bound_to 7997
  156.2965  140.2283  156.4748 H   0  0  0  0  0  0  0  0  0  0  0  0  # atno 8009 bound_to 7997
  154.7871  140.0442  157.1161 H   0  0  0  0  0  0  0  0  0  0  0  0  # atno 8010 bound_to 7997
  140.7288  143.4396  151.0678 H   0  0  0  0  0  0  0  0  0  0  0  0  # atno 10167 bound_to 10162
  157.2336  131.0744  151.1837 H   0  0  0  0  0  0  0  0  0  0  0  0  # atno 10718 bound_to 10713
  153.1123  135.6699  153.9478 H   0  0  0  0  0  0  0  0  0  0  0  0  # atno 10763 bound_to 10752
  153.9018  135.3035  155.3450 H   0  0  0  0  0  0  0  0  0  0  0  0  # atno 10764 bound_to 10752
  154.7542  135.5020  153.9421 H   0  0  0  0  0  0  0  0  0  0  0  0  # atno 10765 bound_to 10752
  140.5434  134.5499  157.5105 H   0  0  0  0  0  0  0  0  0  0  0  0  # atno 11005 bound_to 11000
  145.5160  141.0434  143.2461 LP  0  0  0  0  0  0  0  0  0  0  0  0  # atno 17320 bound_to 7965
  144.7738  139.6676  143.7183 LP  0  0  0  0  0  0  0  0  0  0  0  0  # atno 17321 bound_to 7965
  139.8061  143.8015  152.3167 LP  0  0  0  0  0  0  0  0  0  0  0  0  # atno 17342 bound_to 10162
  139.8049  144.7359  150.9775 LP  0  0  0  0  0  0  0  0  0  0  0  0  # atno 17343 bound_to 10162
  157.3452  130.7053  149.6406 LP  0  0  0  0  0  0  0  0  0  0  0  0  # atno 17370 bound_to 10713
  155.9674  130.4268  150.4717 LP  0  0  0  0  0  0  0  0  0  0  0  0  # atno 17371 bound_to 10713
  139.9492  134.7647  156.0489 LP  0  0  0  0  0  0  0  0  0  0  0  0  # atno 17394 bound_to 11000
  141.1214  133.6612  156.3223 LP  0  0  0  0  0  0  0  0  0  0  0  0  # atno 17395 bound_to 11000

$$$$
