AV-unprocessed.smi:625|AV-procd|sdf|3103|dock2
  -GOLD-   22720 0 23D 1   1.00000     0.00000
 Structure written by MMmdl.
 49 51  0  0  0  0  0  0  0  0  1 V2000
  143.3604  145.6763  154.6086 C   0  0  0  0  0  0  0  0  0  0  0  0
  144.2008  144.4997  154.7689 N   0  0  0  0  0  0  0  0  0  0  0  0
  143.8559  143.4038  155.4675 C   0  0  0  0  0  0  0  0  0  0  0  0
  142.7718  143.3222  156.0462 O   0  0  0  0  0  0  0  0  0  0  0  0
  144.8673  142.3429  155.4610 C   0  0  0  0  0  0  0  0  0  0  0  0
  144.5793  141.0807  156.1139 C   0  0  0  0  0  0  0  0  0  0  0  0
  145.4739  140.0730  156.0920 C   0  0  0  0  0  0  0  0  0  0  0  0
  146.7671  140.2034  155.4137 C   0  0  0  0  0  0  0  0  0  0  0  0
  147.5777  139.2780  155.3714 O   0  0  0  0  0  0  0  0  0  0  0  0
  147.0094  141.4153  154.8291 N   0  0  0  0  0  0  0  0  0  0  0  0
  148.2438  141.6728  154.0712 C   0  0  0  0  0  0  0  0  0  0  0  0
  149.4774  141.2988  154.9000 C   0  0  0  0  0  0  0  0  0  0  0  0
  150.1236  140.2868  154.6282 O   0  0  0  0  0  0  0  0  0  0  0  0
  149.8002  142.1442  155.8912 N   0  0  0  0  0  0  0  0  0  0  0  0
  151.0111  142.0847  156.7070 C   0  0  2  0  0  0  0  0  0  0  0  0
  151.1676  140.6520  157.2416 C   0  0  0  0  0  0  0  0  0  0  0  0
  150.9332  143.1345  157.8458 C   0  0  1  0  0  0  0  0  0  0  0  0
  150.9246  142.5081  159.2617 C   0  0  0  0  0  0  0  0  0  0  0  0
  152.0757  143.2343  159.9800 C   0  0  2  0  0  0  0  0  0  0  0  0
  151.6871  144.7039  160.2239 C   0  0  0  0  0  0  0  0  0  0  0  0
  151.7622  145.3105  158.8112 C   0  0  0  0  0  0  0  0  0  0  0  0
  152.1467  144.0989  157.9413 C   0  0  1  0  0  0  0  0  0  0  0  0
  153.1047  143.3556  158.8644 C   0  0  0  0  0  0  0  0  0  0  0  0
  146.0690  142.4647  154.8571 C   0  0  0  0  0  0  0  0  0  0  0  0
  143.8785  146.4223  154.0062 H   0  0  0  0  0  0  0  0  0  0  0  0
  143.1248  146.1216  155.5758 H   0  0  0  0  0  0  0  0  0  0  0  0
  142.4275  145.4207  154.1046 H   0  0  0  0  0  0  0  0  0  0  0  0
  145.1014  144.5116  154.3127 H   0  0  0  0  0  0  0  0  0  0  0  0
  143.6399  140.9323  156.6270 H   0  0  0  0  0  0  0  0  0  0  0  0
  145.2327  139.1428  156.5852 H   0  0  0  0  0  0  0  0  0  0  0  0
  148.2244  141.0996  153.1423 H   0  0  0  0  0  0  0  0  0  0  0  0
  148.3326  142.7155  153.7629 H   0  0  0  0  0  0  0  0  0  0  0  0
  149.1949  142.9378  156.0443 H   0  0  0  0  0  0  0  0  0  0  0  0
  151.8849  142.3024  156.0911 H   0  0  0  0  0  0  0  0  0  0  0  0
  152.0817  140.5380  157.8237 H   0  0  0  0  0  0  0  0  0  0  0  0
  151.2141  139.9328  156.4231 H   0  0  0  0  0  0  0  0  0  0  0  0
  150.3301  140.3724  157.8820 H   0  0  0  0  0  0  0  0  0  0  0  0
  150.0243  143.7201  157.6986 H   0  0  0  0  0  0  0  0  0  0  0  0
  149.9682  142.6419  159.7684 H   0  0  0  0  0  0  0  0  0  0  0  0
  151.1317  141.4377  159.2272 H   0  0  0  0  0  0  0  0  0  0  0  0
  152.4258  142.7195  160.8749 H   0  0  0  0  0  0  0  0  0  0  0  0
  150.6953  144.8007  160.6670 H   0  0  0  0  0  0  0  0  0  0  0  0
  152.4013  145.1918  160.8886 H   0  0  0  0  0  0  0  0  0  0  0  0
  150.8230  145.7688  158.5001 H   0  0  0  0  0  0  0  0  0  0  0  0
  152.5361  146.0774  158.7668 H   0  0  0  0  0  0  0  0  0  0  0  0
  152.5782  144.3965  156.9871 H   0  0  0  0  0  0  0  0  0  0  0  0
  153.9799  143.9442  159.1451 H   0  0  0  0  0  0  0  0  0  0  0  0
  153.4336  142.3939  158.4678 H   0  0  0  0  0  0  0  0  0  0  0  0
  146.3977  143.3511  154.3333 H   0  0  0  0  0  0  0  0  0  0  0  0
  1  2  1  0  0  0  0
  1 25  1  0  0  0  0
  1 26  1  0  0  0  0
  1 27  1  0  0  0  0
  2  3  1  0  0  0  0
  2 28  1  0  0  0  0
  3  4  2  0  0  0  0
  3  5  1  0  0  0  0
  5 24  2  0  0  0  0
  5  6  1  0  0  0  0
  6  7  2  0  0  0  0
  6 29  1  0  0  0  0
  7  8  1  0  0  0  0
  7 30  1  0  0  0  0
  8  9  2  0  0  0  0
  8 10  1  0  0  0  0
 10 11  1  0  0  0  0
 10 24  1  0  0  0  0
 11 12  1  0  0  0  0
 11 31  1  0  0  0  0
 11 32  1  0  0  0  0
 12 13  2  0  0  0  0
 12 14  1  0  0  0  0
 14 15  1  0  0  0  0
 14 33  1  0  0  0  0
 15 16  1  0  0  0  0
 15 17  1  0  0  0  0
 15 34  1  0  0  0  0
 16 35  1  0  0  0  0
 16 36  1  0  0  0  0
 16 37  1  0  0  0  0
 17 22  1  0  0  0  0
 17 18  1  0  0  0  0
 17 38  1  0  0  0  0
 18 19  1  0  0  0  0
 18 39  1  0  0  0  0
 18 40  1  0  0  0  0
 19 23  1  0  0  0  0
 19 20  1  0  0  0  0
 19 41  1  0  0  0  0
 20 21  1  0  0  0  0
 20 42  1  0  0  0  0
 20 43  1  0  0  0  0
 21 22  1  0  0  0  0
 21 44  1  0  0  0  0
 21 45  1  0  0  0  0
 22 23  1  0  0  0  0
 22 46  1  0  0  0  0
 23 47  1  0  0  0  0
 23 48  1  0  0  0  0
 24 49  1  0  0  0  0
M  END
> <s_m_source_file>
AV-unprocessed.smi

> <i_m_source_file_index>
625

> <i_lp_mmshare_version>
43012

> <i_f3d_flags>
0

> <s_epik_input>
W0NIM11bTkhdQyg9TyljMVtjSF1bY0hdYyg9TyluKFtjSF0xKVtDSDJdQyg9TylbTkhdW0NASF0oW0NIM10pW0NASF0oW0NIMl1bQ0BIXTIzKVtDQEhdKFtDSDJdMylbQ0gyXVtDSDJdMg==

> <s_epik_cmdline>
J2VwaWtfcHl0aG9uJywgJy1waCcsICc3LjAnLCAnLXRuJywgJzgnLCAnLW1hJywgJzIwMCcsICctbWV0YWxfYmluZGluZycsICctaW1hZScsICc8aW5maWxlLm1hZT4nLCAnLW9tYWUnLCAnPG91dGZpbGUubWFlPic=

> <r_lp_tautomer_probability>
1

> <r_epik_Ionization_Penalty>
3.7129e-07

> <r_epik_Ionization_Penalty_Charging>
5.04114e-08

> <r_epik_Ionization_Penalty_Neutral>
3.20879e-07

> <r_epik_State_Penalty>
-0

> <r_epik_Charging_Adjusted_Penalty>
5.04114e-08

> <i_epik_Tot_Q>
0

> <i_epik_Tot_abs_Q>
0

> <r_epik_Metal_State_Penalty>
-0

> <b_epik_Metal_Only>
0

> <s_lp_Force_Field>
OPLS_2005

> <r_lp_Energy>
63.7952

> <b_lp_Chiralities_Consistent>
1

> <s_lp_Variant>
AV-unprocessed.smi:625-3

> <Gold.Version>
5.8.1

> <Gold.Id.Protein>
6NUR|6NUR_protein|mol2

> <Gold.PLP.Fitness>
49.8144

> <Gold.PLP.PLP>
-47.3126

> <Gold.PLP.part.hbond>
-2.0000

> <Gold.PLP.part.metal>
0.0000

> <Gold.PLP.part.buried>
-5.1916

> <Gold.PLP.part.nonpolar>
-41.3205

> <Gold.PLP.part.repulsive>
0.3829

> <Gold.PLP.ligand.clash>
0.0000

> <Gold.PLP.ligand.torsion>
1.7875

> <Gold.PLP.Chemscore.Hbond>
2.0000

> <Gold.PLP.Chemscore.CHOScore>
0.0000

> <Gold.PLP.Chemscore.Metal>
0.0000

> <Gold.Chemscore.Hbonds>
donor molecule, donor type, donor heavy atom, donor atom, acceptor molecule, acceptor atom, score
      L1  H    14    33       P1  8028  0.91
      P1  H  7989  7998       L1    13  1.00

> <Gold.PLP.Chemscore.Internal.Correction>
0.0769

> <Gold.Rescore>
     Score         DG    S(hbond)    S(metal)    S(lipo)     H(rot)  DE(clash)    DE(int)     intcor
     14.02     -19.75       1.39        0.00     118.94       1.67       0.10       5.63       ----

> <Gold.Chemscore.Fitness>
14.0213

> <Gold.Chemscore.DG>
-19.7490

> <Gold.Chemscore.ZeroCoef>
-5.4800

> <Gold.Chemscore.Hbond>
1.3865

> <Gold.Chemscore.Metal>
0.0000

> <Gold.Chemscore.Lipo>
118.9351

> <Gold.Chemscore.Internal_Hbond>
0.0000

> <Gold.Chemscore.DEClash>
0.0968

> <Gold.Chemscore.DEInternal>
5.6308

> <Gold.Chemscore.Rot>
1.6709

> <Gold.Chemscore.Internal.Correction>
   9.000000E+99

> <Gold.Chemscore.Hbonds>
donor molecule, donor type, donor heavy atom, donor atom, acceptor molecule, acceptor atom, score
      L1  H    14    33       P1  8028  0.90
      P1  H  7989  7998       L1    13  0.52

> <Gold.Chemscore.Hbond.Weighted>
-4.6310

> <Gold.Chemscore.Metal.Weighted>
-0.0000

> <Gold.Chemscore.Lipo.Weighted>
-13.9154

> <Gold.Chemscore.Internal_Hbond.Weighted>
0.0000

> <Gold.Chemscore.DEClash.Weighted>
0.0968

> <Gold.Chemscore.DEInternal.Weighted>
5.6308

> <Gold.Chemscore.Rot.Weighted>
4.2774

> <Gold.Chemscore.Internal.Correction.Weighted>
   9.000000E+99

> <Gold.Protein.RotatedTorsions>
[ 6907 6896 6895 6894 ] final  133.74 input  -60.11 | X-H torsion
[ 7974 7965 7964 7962 ] final   91.26 input  175.53 | X-H torsion
[ 8008 7997 7996 7995 ] final  -66.60 input   59.86 | X-H torsion
[ 10167 10162 10161 10158 ] final  -70.76 input  -65.29 | X-H torsion
[ 10718 10713 10712 10709 ] final  -92.99 input   66.30 | X-H torsion
[ 10763 10752 10751 10750 ] final  172.56 input  -60.55 | X-H torsion
[ 11005 11000 10999 10996 ] final   10.27 input  -57.11 | X-H torsion

> <Gold.Protein.ActiveResidues>
 VAL166  LYS551  ARG553  GLY616  TRP617  ASP618  TYR619  PRO620  LYS621  CYS622 
 ASP623  PHE694  ASN695  SER759  ASP760  ASP761  ALA762  ILE779  LEU786  VAL792 
 PHE793  MET794  SER795  GLU796  ALA797  LYS798  CYS799  TRP800  GLU811  SER814 

> <Gold.Protein.RotatedAtoms>
  152.3188  133.5831  159.5729 H   0  0  0  0  0  0  0  0  0  0  0  0  # atno 6907 bound_to 6896
  150.7360  134.0043  159.3657 H   0  0  0  0  0  0  0  0  0  0  0  0  # atno 6908 bound_to 6896
  151.7929  135.0731  160.0440 H   0  0  0  0  0  0  0  0  0  0  0  0  # atno 6909 bound_to 6896
  145.5080  139.2276  143.2740 H   0  0  0  0  0  0  0  0  0  0  0  0  # atno 7974 bound_to 7965
  154.4745  140.0909  156.7228 H   0  0  0  0  0  0  0  0  0  0  0  0  # atno 8008 bound_to 7997
  155.4633  140.3462  155.4297 H   0  0  0  0  0  0  0  0  0  0  0  0  # atno 8009 bound_to 7997
  156.1094  140.1443  156.9348 H   0  0  0  0  0  0  0  0  0  0  0  0  # atno 8010 bound_to 7997
  140.5327  143.2320  151.7233 H   0  0  0  0  0  0  0  0  0  0  0  0  # atno 10167 bound_to 10162
  156.0008  130.5009  150.5709 H   0  0  0  0  0  0  0  0  0  0  0  0  # atno 10718 bound_to 10713
  154.4277  135.2759  155.1933 H   0  0  0  0  0  0  0  0  0  0  0  0  # atno 10763 bound_to 10752
  154.3852  135.6078  153.5816 H   0  0  0  0  0  0  0  0  0  0  0  0  # atno 10764 bound_to 10752
  152.9835  135.5890  154.4583 H   0  0  0  0  0  0  0  0  0  0  0  0  # atno 10765 bound_to 10752
  140.5164  134.0602  155.7832 H   0  0  0  0  0  0  0  0  0  0  0  0  # atno 11005 bound_to 11000
  146.2184  140.5885  142.9028 LP  0  0  0  0  0  0  0  0  0  0  0  0  # atno 17320 bound_to 7965
  144.7743  140.5705  143.6649 LP  0  0  0  0  0  0  0  0  0  0  0  0  # atno 17321 bound_to 7965
  139.4960  144.4090  152.0101 LP  0  0  0  0  0  0  0  0  0  0  0  0  # atno 17342 bound_to 10162
  140.3193  144.3447  150.6013 LP  0  0  0  0  0  0  0  0  0  0  0  0  # atno 17343 bound_to 10162
  157.3604  131.0749  151.1641 LP  0  0  0  0  0  0  0  0  0  0  0  0  # atno 17370 bound_to 10713
  157.2427  130.6577  149.5897 LP  0  0  0  0  0  0  0  0  0  0  0  0  # atno 17371 bound_to 10713
  141.1358  133.9224  157.2437 LP  0  0  0  0  0  0  0  0  0  0  0  0  # atno 17394 bound_to 11000
  139.9630  135.0149  156.9312 LP  0  0  0  0  0  0  0  0  0  0  0  0  # atno 17395 bound_to 11000

$$$$
