AV-unprocessed.smi:1245|AV-procd|sdf|5239|dock7
  -GOLD-   22720 4343D 1   1.00000     0.00000
 Structure written by MMmdl.
 43 44  0  0  0  0  0  0  0  0  1 V2000
  149.2923  135.4217  156.5272 O   0  0  0  0  0  0  0  0  0  0  0  0
  149.2309  135.8456  155.3733 C   0  0  0  0  0  0  0  0  0  0  0  0
  150.0605  137.0614  154.9567 C   0  0  0  0  0  0  0  0  0  0  0  0
  150.5579  137.8840  156.1579 C   0  0  0  0  0  0  0  0  0  0  0  0
  151.0052  139.6091  155.6661 S   0  0  0  0  0  0  0  0  0  0  0  0
  152.4471  139.7943  155.8911 O   0  0  0  0  0  0  0  0  0  0  0  0
  150.4484  139.8682  154.3294 O   0  0  0  0  0  0  0  0  0  0  0  0
  150.0760  140.6322  156.9001 C   0  0  0  0  0  0  0  0  0  0  0  0
  150.3205  142.1339  156.6500 C   0  0  0  0  0  0  0  0  0  0  0  0
  150.9889  142.6927  157.9118 C   0  0  0  0  0  0  0  0  0  0  0  0
  151.5627  141.4778  158.6359 C   0  0  0  0  0  0  0  0  0  0  0  0
  150.5576  140.3677  158.3364 C   0  0  0  0  0  0  0  0  0  0  0  0
  148.4575  135.2979  154.4245 N   0  0  0  0  0  0  0  0  0  0  0  0
  147.5908  134.1390  154.6136 C   0  0  0  0  0  0  0  0  0  0  0  0
  147.9434  132.9695  153.6731 C   0  0  0  0  0  0  0  0  0  0  0  0
  146.9008  132.7226  152.5956 C   0  0  0  0  0  0  0  0  0  0  0  0
  146.0522  131.5962  152.6571 C   0  0  0  0  0  0  0  0  0  0  0  0
  145.0945  131.4208  151.6397 C   0  0  0  0  0  0  0  0  0  0  0  0
  145.0227  132.3731  150.6049 C   0  0  0  0  0  0  0  0  0  0  0  0
  145.9164  133.4623  150.6331 C   0  0  0  0  0  0  0  0  0  0  0  0
  146.8385  133.6397  151.6039 N   0  0  0  0  0  0  0  0  0  0  0  0
  150.9017  136.7569  154.3325 H   0  0  0  0  0  0  0  0  0  0  0  0
  149.4275  137.6895  154.3293 H   0  0  0  0  0  0  0  0  0  0  0  0
  149.7711  137.9487  156.9090 H   0  0  0  0  0  0  0  0  0  0  0  0
  151.4190  137.4134  156.6316 H   0  0  0  0  0  0  0  0  0  0  0  0
  149.0186  140.3882  156.7949 H   0  0  0  0  0  0  0  0  0  0  0  0
  150.9757  142.2815  155.7907 H   0  0  0  0  0  0  0  0  0  0  0  0
  149.3910  142.6617  156.4341 H   0  0  0  0  0  0  0  0  0  0  0  0
  151.7486  143.4417  157.6863 H   0  0  0  0  0  0  0  0  0  0  0  0
  150.2354  143.1667  158.5422 H   0  0  0  0  0  0  0  0  0  0  0  0
  152.5380  141.2234  158.2194 H   0  0  0  0  0  0  0  0  0  0  0  0
  151.6915  141.6489  159.7050 H   0  0  0  0  0  0  0  0  0  0  0  0
  149.7132  140.4570  159.0206 H   0  0  0  0  0  0  0  0  0  0  0  0
  150.9849  139.3759  158.4793 H   0  0  0  0  0  0  0  0  0  0  0  0
  148.4713  135.7109  153.5029 H   0  0  0  0  0  0  0  0  0  0  0  0
  147.7007  133.8169  155.6494 H   0  0  0  0  0  0  0  0  0  0  0  0
  146.5451  134.4251  154.4906 H   0  0  0  0  0  0  0  0  0  0  0  0
  148.9064  133.1598  153.1976 H   0  0  0  0  0  0  0  0  0  0  0  0
  148.0738  132.0566  154.2556 H   0  0  0  0  0  0  0  0  0  0  0  0
  146.1284  130.8866  153.4682 H   0  0  0  0  0  0  0  0  0  0  0  0
  144.4264  130.5722  151.6543 H   0  0  0  0  0  0  0  0  0  0  0  0
  144.3000  132.2718  149.8087 H   0  0  0  0  0  0  0  0  0  0  0  0
  145.8892  134.2119  149.8563 H   0  0  0  0  0  0  0  0  0  0  0  0
  1  2  2  0  0  0  0
  2  3  1  0  0  0  0
  2 13  1  0  0  0  0
  3  4  1  0  0  0  0
  3 22  1  0  0  0  0
  3 23  1  0  0  0  0
  4  5  1  0  0  0  0
  4 24  1  0  0  0  0
  4 25  1  0  0  0  0
  5  6  2  0  0  0  0
  5  7  2  0  0  0  0
  5  8  1  0  0  0  0
  8 12  1  0  0  0  0
  8  9  1  0  0  0  0
  8 26  1  0  0  0  0
  9 10  1  0  0  0  0
  9 27  1  0  0  0  0
  9 28  1  0  0  0  0
 10 11  1  0  0  0  0
 10 29  1  0  0  0  0
 10 30  1  0  0  0  0
 11 12  1  0  0  0  0
 11 31  1  0  0  0  0
 11 32  1  0  0  0  0
 12 33  1  0  0  0  0
 12 34  1  0  0  0  0
 13 14  1  0  0  0  0
 13 35  1  0  0  0  0
 14 15  1  0  0  0  0
 14 36  1  0  0  0  0
 14 37  1  0  0  0  0
 15 16  1  0  0  0  0
 15 38  1  0  0  0  0
 15 39  1  0  0  0  0
 16 21  1  0  0  0  0
 16 17  2  0  0  0  0
 17 18  1  0  0  0  0
 17 40  1  0  0  0  0
 18 19  2  0  0  0  0
 18 41  1  0  0  0  0
 19 20  1  0  0  0  0
 19 42  1  0  0  0  0
 20 21  2  0  0  0  0
 20 43  1  0  0  0  0
M  END
> <s_m_source_file>
AV-unprocessed.smi

> <i_m_source_file_index>
1245

> <i_lp_mmshare_version>
43012

> <i_f3d_flags>
0

> <s_epik_input>
W0NIMl0xW0NIMl1bQ0gyXVtDSDJdW0NIXTFTKD1PKSg9TylbQ0gyXVtDSDJdQyg9TylbTkhdW0NIMl1bQ0gyXWMyW2NIXVtjSF1bY0hdW2NIXW4y

> <s_epik_cmdline>
J2VwaWtfcHl0aG9uJywgJy1waCcsICc3LjAnLCAnLXRuJywgJzgnLCAnLW1hJywgJzIwMCcsICctbWV0YWxfYmluZGluZycsICctaW1hZScsICc8aW5maWxlLm1hZT4nLCAnLW9tYWUnLCAnPG91dGZpbGUubWFlPic=

> <r_epik_Ionization_Penalty>
0.0243247

> <r_epik_Ionization_Penalty_Charging>
0

> <r_epik_Ionization_Penalty_Neutral>
0.0243247

> <r_epik_State_Penalty>
0.0197389

> <r_epik_Charging_Adjusted_Penalty>
0.0197389

> <i_epik_Tot_Q>
0

> <i_epik_Tot_abs_Q>
0

> <r_epik_Metal_State_Penalty>
0.0189562

> <b_epik_Metal_Only>
0

> <s_lp_Force_Field>
OPLS_2005

> <r_lp_Energy>
12.2182

> <b_lp_Chiralities_Consistent>
1

> <s_lp_Variant>
AV-unprocessed.smi:1245-1

> <Gold.Version>
5.8.1

> <Gold.Id.Protein>
6NUR|6NUR_protein|mol2

> <Gold.PLP.Fitness>
46.8271

> <Gold.PLP.PLP>
-36.6057

> <Gold.PLP.part.hbond>
-2.9593

> <Gold.PLP.part.metal>
0.0000

> <Gold.PLP.part.buried>
-4.6487

> <Gold.PLP.part.nonpolar>
-28.6598

> <Gold.PLP.part.repulsive>
0.3769

> <Gold.PLP.ligand.clash>
0.0000

> <Gold.PLP.ligand.torsion>
1.0366

> <Gold.PLP.Chemscore.Hbond>
3.0000

> <Gold.PLP.Chemscore.CHOScore>
1.0000

> <Gold.PLP.Chemscore.Metal>
0.0000

> <Gold.Chemscore.Hbonds>
donor molecule, donor type, donor heavy atom, donor atom, acceptor molecule, acceptor atom, score
      L1  H    13    35       P1  7948  1.00
      P1  H  7989  7998       L1     7  1.00
      P1  H  7997  8010       L1     6  1.00
      L1  C    20    43       P1  7921  1.00

> <Gold.PLP.Chemscore.Internal.Correction>
0.2945

> <Gold.Rescore>
     Score         DG    S(hbond)    S(metal)    S(lipo)     H(rot)  DE(clash)    DE(int)     intcor
     18.68     -19.80       2.85        0.00      84.88       2.00       0.01       1.11       ----

> <Gold.Chemscore.Fitness>
18.6755

> <Gold.Chemscore.DG>
-19.7986

> <Gold.Chemscore.ZeroCoef>
-5.4800

> <Gold.Chemscore.Hbond>
2.8478

> <Gold.Chemscore.Metal>
0.0000

> <Gold.Chemscore.Lipo>
84.8761

> <Gold.Chemscore.Internal_Hbond>
0.0000

> <Gold.Chemscore.DEClash>
0.0108

> <Gold.Chemscore.DEInternal>
1.1123

> <Gold.Chemscore.Rot>
2.0014

> <Gold.Chemscore.Internal.Correction>
   9.000000E+99

> <Gold.Chemscore.Hbonds>
donor molecule, donor type, donor heavy atom, donor atom, acceptor molecule, acceptor atom, score
      L1  H    13    35       P1  7948  1.00
      P1  H  7989  7998       L1     7  0.60
      P1  H  7997  8010       L1     6  0.89

> <Gold.Chemscore.Hbond.Weighted>
-9.5117

> <Gold.Chemscore.Metal.Weighted>
-0.0000

> <Gold.Chemscore.Lipo.Weighted>
-9.9305

> <Gold.Chemscore.Internal_Hbond.Weighted>
0.0000

> <Gold.Chemscore.DEClash.Weighted>
0.0108

> <Gold.Chemscore.DEInternal.Weighted>
1.1123

> <Gold.Chemscore.Rot.Weighted>
5.1236

> <Gold.Chemscore.Internal.Correction.Weighted>
   9.000000E+99

> <Gold.Protein.RotatedTorsions>
[ 6907 6896 6895 6894 ] final  -44.46 input  -60.11 | X-H torsion
[ 7974 7965 7964 7962 ] final   11.32 input  175.53 | X-H torsion
[ 8008 7997 7996 7995 ] final  103.05 input   59.86 | X-H torsion
[ 10167 10162 10161 10158 ] final   46.44 input  -65.29 | X-H torsion
[ 10718 10713 10712 10709 ] final  141.02 input   66.30 | X-H torsion
[ 10763 10752 10751 10750 ] final   26.02 input  -60.55 | X-H torsion
[ 11005 11000 10999 10996 ] final  172.90 input  -57.11 | X-H torsion

> <Gold.Protein.ActiveResidues>
 VAL166  LYS551  ARG553  GLY616  TRP617  ASP618  TYR619  PRO620  LYS621  CYS622 
 ASP623  PHE694  ASN695  SER759  ASP760  ASP761  ALA762  ILE779  LEU786  VAL792 
 PHE793  MET794  SER795  GLU796  ALA797  LYS798  CYS799  TRP800  GLU811  SER814 

> <Gold.Protein.RotatedAtoms>
  150.9326  134.8740  159.7560 H   0  0  0  0  0  0  0  0  0  0  0  0  # atno 6907 bound_to 6896
  152.5045  134.4057  159.9441 H   0  0  0  0  0  0  0  0  0  0  0  0  # atno 6908 bound_to 6896
  151.4083  133.3695  159.2775 H   0  0  0  0  0  0  0  0  0  0  0  0  # atno 6909 bound_to 6896
  146.2373  139.9502  142.8471 H   0  0  0  0  0  0  0  0  0  0  0  0  # atno 7974 bound_to 7965
  156.1449  140.3171  155.8554 H   0  0  0  0  0  0  0  0  0  0  0  0  # atno 8008 bound_to 7997
  155.4083  140.0504  157.3050 H   0  0  0  0  0  0  0  0  0  0  0  0  # atno 8009 bound_to 7997
  154.5008  140.2128  155.9363 H   0  0  0  0  0  0  0  0  0  0  0  0  # atno 8010 bound_to 7997
  140.3139  144.2787  150.6194 H   0  0  0  0  0  0  0  0  0  0  0  0  # atno 10167 bound_to 10162
  157.3967  131.1011  151.0592 H   0  0  0  0  0  0  0  0  0  0  0  0  # atno 10718 bound_to 10713
  153.0651  135.6570  154.0373 H   0  0  0  0  0  0  0  0  0  0  0  0  # atno 10763 bound_to 10752
  154.0031  135.2935  155.3402 H   0  0  0  0  0  0  0  0  0  0  0  0  # atno 10764 bound_to 10752
  154.7006  135.5246  153.8589 H   0  0  0  0  0  0  0  0  0  0  0  0  # atno 10765 bound_to 10752
  140.3347  134.7327  157.4159 H   0  0  0  0  0  0  0  0  0  0  0  0  # atno 11005 bound_to 11000
  145.1868  140.9793  143.4234 LP  0  0  0  0  0  0  0  0  0  0  0  0  # atno 17320 bound_to 7965
  144.9892  139.3706  143.6223 LP  0  0  0  0  0  0  0  0  0  0  0  0  # atno 17321 bound_to 7965
  140.5543  143.2201  151.7873 LP  0  0  0  0  0  0  0  0  0  0  0  0  # atno 17342 bound_to 10162
  139.4888  144.4434  151.9738 LP  0  0  0  0  0  0  0  0  0  0  0  0  # atno 17343 bound_to 10162
  157.1606  130.6224  149.5609 LP  0  0  0  0  0  0  0  0  0  0  0  0  # atno 17370 bound_to 10713
  155.9812  130.4818  150.6816 LP  0  0  0  0  0  0  0  0  0  0  0  0  # atno 17371 bound_to 10713
  140.0831  134.5704  155.8520 LP  0  0  0  0  0  0  0  0  0  0  0  0  # atno 17394 bound_to 11000
  141.2054  133.6647  156.6180 LP  0  0  0  0  0  0  0  0  0  0  0  0  # atno 17395 bound_to 11000

$$$$
