AV-unprocessed.smi:520|AV-procd|sdf|2797|dock1
  -GOLD-   2262023273D 1   1.00000     0.00000
 Structure written by MMmdl.
 39 41  0  0  0  0  0  0  0  0  1 V2000
  153.3870  140.5635  160.3004 C   0  0  0  0  0  0  0  0  0  0  0  0
  152.6023  141.8582  160.1992 C   0  0  0  0  0  0  0  0  0  0  0  0
  152.6097  142.7630  161.2816 C   0  0  0  0  0  0  0  0  0  0  0  0
  151.8860  143.9665  161.2048 C   0  0  0  0  0  0  0  0  0  0  0  0
  151.1531  144.2692  160.0435 C   0  0  0  0  0  0  0  0  0  0  0  0
  151.1430  143.3702  158.9601 C   0  0  0  0  0  0  0  0  0  0  0  0
  151.8675  142.1521  159.0266 C   0  0  0  0  0  0  0  0  0  0  0  0
  151.9010  141.2242  158.0056 O   0  0  0  0  0  0  0  0  0  0  0  0
  151.1157  141.4645  156.8469 C   0  0  0  0  0  0  0  0  0  0  0  0
  151.6666  140.6093  155.7001 C   0  0  0  0  0  0  0  0  0  0  0  0
  150.6026  139.9136  154.9942 N   0  0  0  0  0  0  0  0  0  0  0  0
  150.5604  138.6114  154.6163 C   0  0  0  0  0  0  0  0  0  0  0  0
  151.7015  137.6776  154.9054 C   0  0  0  0  0  0  0  0  0  0  0  0
  152.2704  137.0905  153.7525 O   0  0  0  0  0  0  0  0  0  0  0  0
  149.4517  138.2336  153.9751 N   0  0  0  0  0  0  0  0  0  0  0  0
  148.7052  139.3949  153.9432 C   0  0  0  0  0  0  0  0  0  0  0  0
  147.4244  139.6495  153.4028 C   0  0  0  0  0  0  0  0  0  0  0  0
  146.8542  140.9362  153.4938 C   0  0  0  0  0  0  0  0  0  0  0  0
  147.5549  141.9846  154.1250 C   0  0  0  0  0  0  0  0  0  0  0  0
  148.8329  141.7526  154.6689 C   0  0  0  0  0  0  0  0  0  0  0  0
  149.3973  140.4664  154.5747 C   0  0  0  0  0  0  0  0  0  0  0  0
  153.9293  140.4973  161.2441 H   0  0  0  0  0  0  0  0  0  0  0  0
  154.1116  140.4945  159.4887 H   0  0  0  0  0  0  0  0  0  0  0  0
  152.7144  139.7080  160.2349 H   0  0  0  0  0  0  0  0  0  0  0  0
  153.1710  142.5373  162.1763 H   0  0  0  0  0  0  0  0  0  0  0  0
  151.8935  144.6566  162.0356 H   0  0  0  0  0  0  0  0  0  0  0  0
  150.5970  145.1931  159.9826 H   0  0  0  0  0  0  0  0  0  0  0  0
  150.5691  143.6406  158.0870 H   0  0  0  0  0  0  0  0  0  0  0  0
  150.0737  141.2032  157.0377 H   0  0  0  0  0  0  0  0  0  0  0  0
  151.1591  142.5200  156.5729 H   0  0  0  0  0  0  0  0  0  0  0  0
  152.2037  141.2370  154.9881 H   0  0  0  0  0  0  0  0  0  0  0  0
  152.3893  139.8845  156.0749 H   0  0  0  0  0  0  0  0  0  0  0  0
  152.4792  138.2248  155.4390 H   0  0  0  0  0  0  0  0  0  0  0  0
  151.3568  136.8767  155.5596 H   0  0  0  0  0  0  0  0  0  0  0  0
  151.6525  137.1645  153.0418 H   0  0  0  0  0  0  0  0  0  0  0  0
  146.8796  138.8527  152.9182 H   0  0  0  0  0  0  0  0  0  0  0  0
  145.8744  141.1195  153.0779 H   0  0  0  0  0  0  0  0  0  0  0  0
  147.1104  142.9669  154.1916 H   0  0  0  0  0  0  0  0  0  0  0  0
  149.3720  142.5531  155.1534 H   0  0  0  0  0  0  0  0  0  0  0  0
  1  2  1  0  0  0  0
  1 22  1  0  0  0  0
  1 23  1  0  0  0  0
  1 24  1  0  0  0  0
  2  7  1  0  0  0  0
  2  3  2  0  0  0  0
  3  4  1  0  0  0  0
  3 25  1  0  0  0  0
  4  5  2  0  0  0  0
  4 26  1  0  0  0  0
  5  6  1  0  0  0  0
  5 27  1  0  0  0  0
  6  7  2  0  0  0  0
  6 28  1  0  0  0  0
  7  8  1  0  0  0  0
  8  9  1  0  0  0  0
  9 10  1  0  0  0  0
  9 29  1  0  0  0  0
  9 30  1  0  0  0  0
 10 11  1  0  0  0  0
 10 31  1  0  0  0  0
 10 32  1  0  0  0  0
 11 21  1  0  0  0  0
 11 12  1  0  0  0  0
 12 13  1  0  0  0  0
 12 15  2  0  0  0  0
 13 14  1  0  0  0  0
 13 33  1  0  0  0  0
 13 34  1  0  0  0  0
 14 35  1  0  0  0  0
 15 16  1  0  0  0  0
 16 21  2  0  0  0  0
 16 17  1  0  0  0  0
 17 18  2  0  0  0  0
 17 36  1  0  0  0  0
 18 19  1  0  0  0  0
 18 37  1  0  0  0  0
 19 20  2  0  0  0  0
 19 38  1  0  0  0  0
 20 21  1  0  0  0  0
 20 39  1  0  0  0  0
M  END
> <s_m_source_file>
AV-unprocessed.smi

> <i_m_source_file_index>
520

> <i_lp_mmshare_version>
43012

> <i_f3d_flags>
0

> <s_epik_input>
W0NIM11jMVtjSF1bY0hdW2NIXVtjSF1jMU9bQ0gyXVtDSDJdbihjKG4yKVtDSDJdW09IXSljKGMyMylbY0hdW2NIXVtjSF1bY0hdMw==

> <s_epik_cmdline>
J2VwaWtfcHl0aG9uJywgJy1waCcsICc3LjAnLCAnLXRuJywgJzgnLCAnLW1hJywgJzIwMCcsICctbWV0YWxfYmluZGluZycsICctaW1hZScsICc8aW5maWxlLm1hZT4nLCAnLW9tYWUnLCAnPG91dGZpbGUubWFlPic=

> <r_lp_tautomer_probability>
1

> <r_epik_Ionization_Penalty>
0.048627

> <r_epik_Ionization_Penalty_Charging>
0

> <r_epik_Ionization_Penalty_Neutral>
0.048627

> <r_epik_State_Penalty>
0.0414172

> <r_epik_Charging_Adjusted_Penalty>
0.0414172

> <i_epik_Tot_Q>
0

> <i_epik_Tot_abs_Q>
0

> <r_epik_Metal_State_Penalty>
4.28976e-05

> <b_epik_Metal_Only>
0

> <s_lp_Force_Field>
OPLS_2005

> <r_lp_Energy>
16.3375

> <b_lp_Chiralities_Consistent>
1

> <s_lp_Variant>
AV-unprocessed.smi:520-1

> <Gold.Version>
5.8.1

> <Gold.Id.Protein>
6NUR|6NUR_protein|mol2

> <Gold.PLP.Fitness>
53.8033

> <Gold.PLP.PLP>
-49.8488

> <Gold.PLP.part.hbond>
-1.9250

> <Gold.PLP.part.metal>
0.0000

> <Gold.PLP.part.buried>
-2.3888

> <Gold.PLP.part.nonpolar>
-46.2502

> <Gold.PLP.part.repulsive>
0.8803

> <Gold.PLP.ligand.clash>
0.0000

> <Gold.PLP.ligand.torsion>
0.6022

> <Gold.PLP.Chemscore.Hbond>
1.6661

> <Gold.PLP.Chemscore.CHOScore>
0.0000

> <Gold.PLP.Chemscore.Metal>
0.0000

> <Gold.Chemscore.Hbonds>
donor molecule, donor type, donor heavy atom, donor atom, acceptor molecule, acceptor atom, score
      L1  H    14    35       P1  7949  0.67
      P1  H 10752 10764       L1    14  1.00

> <Gold.PLP.Chemscore.Internal.Correction>
0.1606

> <Gold.Rescore>
     Score         DG    S(hbond)    S(metal)    S(lipo)     H(rot)  DE(clash)    DE(int)     intcor
     19.38     -20.29       1.32        0.00     135.92       2.15       0.32       0.58       ----

> <Gold.Chemscore.Fitness>
19.3790

> <Gold.Chemscore.DG>
-20.2861

> <Gold.Chemscore.ZeroCoef>
-5.4800

> <Gold.Chemscore.Hbond>
1.3194

> <Gold.Chemscore.Metal>
0.0000

> <Gold.Chemscore.Lipo>
135.9229

> <Gold.Chemscore.Internal_Hbond>
0.0000

> <Gold.Chemscore.DEClash>
0.3241

> <Gold.Chemscore.DEInternal>
0.5830

> <Gold.Chemscore.Rot>
2.1499

> <Gold.Chemscore.Internal.Correction>
   9.000000E+99

> <Gold.Chemscore.Hbonds>
donor molecule, donor type, donor heavy atom, donor atom, acceptor molecule, acceptor atom, score
      L1  H    14    35       P1  7949  0.63
      P1  H 10752 10764       L1    14  0.84

> <Gold.Chemscore.Hbond.Weighted>
-4.4069

> <Gold.Chemscore.Metal.Weighted>
-0.0000

> <Gold.Chemscore.Lipo.Weighted>
-15.9030

> <Gold.Chemscore.Internal_Hbond.Weighted>
0.0000

> <Gold.Chemscore.DEClash.Weighted>
0.3241

> <Gold.Chemscore.DEInternal.Weighted>
0.5830

> <Gold.Chemscore.Rot.Weighted>
5.5038

> <Gold.Chemscore.Internal.Correction.Weighted>
   9.000000E+99

> <Gold.Protein.RotatedTorsions>
[ 6907 6896 6895 6894 ] final   -6.65 input  -60.11 | X-H torsion
[ 7974 7965 7964 7962 ] final   81.27 input  175.53 | X-H torsion
[ 8008 7997 7996 7995 ] final  160.19 input   59.86 | X-H torsion
[ 10167 10162 10161 10158 ] final  -56.09 input  -65.29 | X-H torsion
[ 10718 10713 10712 10709 ] final -171.55 input   66.30 | X-H torsion
[ 10763 10752 10751 10750 ] final  -96.58 input  -60.55 | X-H torsion
[ 11005 11000 10999 10996 ] final -122.10 input  -57.11 | X-H torsion

> <Gold.Protein.ActiveResidues>
 VAL166  LYS551  ARG553  GLY616  TRP617  ASP618  TYR619  PRO620  LYS621  CYS622 
 ASP623  PHE694  ASN695  SER759  ASP760  ASP761  ALA762  ILE779  LEU786  VAL792 
 PHE793  MET794  SER795  GLU796  ALA797  LYS798  CYS799  TRP800  GLU811  SER814 

> <Gold.Protein.RotatedAtoms>
  151.4621  135.1039  159.9727 H   0  0  0  0  0  0  0  0  0  0  0  0  # atno 6907 bound_to 6896
  152.4849  133.8342  159.7130 H   0  0  0  0  0  0  0  0  0  0  0  0  # atno 6908 bound_to 6896
  150.8950  133.7133  159.2921 H   0  0  0  0  0  0  0  0  0  0  0  0  # atno 6909 bound_to 6896
  145.6404  139.2424  143.2034 H   0  0  0  0  0  0  0  0  0  0  0  0  # atno 7974 bound_to 7965
  156.2189  140.1811  156.7525 H   0  0  0  0  0  0  0  0  0  0  0  0  # atno 8008 bound_to 7997
  154.5834  140.0662  156.9165 H   0  0  0  0  0  0  0  0  0  0  0  0  # atno 8009 bound_to 7997
  155.2463  140.3325  155.4289 H   0  0  0  0  0  0  0  0  0  0  0  0  # atno 8010 bound_to 7997
  140.6337  143.2472  151.5174 H   0  0  0  0  0  0  0  0  0  0  0  0  # atno 10167 bound_to 10162
  156.7425  130.9347  151.3111 H   0  0  0  0  0  0  0  0  0  0  0  0  # atno 10718 bound_to 10713
  154.7252  135.5078  153.8874 H   0  0  0  0  0  0  0  0  0  0  0  0  # atno 10763 bound_to 10752
  153.0898  135.6656  153.9885 H   0  0  0  0  0  0  0  0  0  0  0  0  # atno 10764 bound_to 10752
  153.9699  135.3039  155.3407 H   0  0  0  0  0  0  0  0  0  0  0  0  # atno 10765 bound_to 10752
  141.0020  134.0389  157.3525 H   0  0  0  0  0  0  0  0  0  0  0  0  # atno 11005 bound_to 11000
  146.1285  140.7216  142.9423 LP  0  0  0  0  0  0  0  0  0  0  0  0  # atno 17320 bound_to 7965
  144.7159  140.4209  143.7044 LP  0  0  0  0  0  0  0  0  0  0  0  0  # atno 17321 bound_to 7965
  139.5549  144.2301  152.1595 LP  0  0  0  0  0  0  0  0  0  0  0  0  # atno 17342 bound_to 10162
  140.1551  144.5078  150.6664 LP  0  0  0  0  0  0  0  0  0  0  0  0  # atno 17343 bound_to 10162
  157.6812  130.9142  150.0273 LP  0  0  0  0  0  0  0  0  0  0  0  0  # atno 17370 bound_to 10713
  156.1455  130.3642  149.9517 LP  0  0  0  0  0  0  0  0  0  0  0  0  # atno 17371 bound_to 10713
  139.9044  135.0175  156.7417 LP  0  0  0  0  0  0  0  0  0  0  0  0  # atno 17394 bound_to 11000
  140.6873  133.9421  155.7945 LP  0  0  0  0  0  0  0  0  0  0  0  0  # atno 17395 bound_to 11000

$$$$
