AV-unprocessed.smi:2217|AV-procd|sdf|8969|dock4
  -GOLD-   2272012183D 1   1.00000     0.00000
 Structure written by MMmdl.
 45 48  0  0  0  0  0  0  0  0  1 V2000
  150.3617  129.0191  154.6651 C   0  0  0  0  0  0  0  0  0  0  0  0
  150.0823  130.5034  154.5574 C   0  0  0  0  0  0  0  0  0  0  0  0
  149.1675  131.0059  153.6131 C   0  0  0  0  0  0  0  0  0  0  0  0
  148.9418  132.3949  153.5596 C   0  0  0  0  0  0  0  0  0  0  0  0
  149.6312  133.2511  154.4481 C   0  0  0  0  0  0  0  0  0  0  0  0
  149.3131  134.6343  154.3012 N   0  0  0  0  0  0  0  0  0  0  0  0
  149.2358  135.6349  155.2049 C   0  0  0  0  0  0  0  0  0  0  0  0
  149.4653  135.4361  156.3968 O   0  0  0  0  0  0  0  0  0  0  0  0
  148.9048  136.8421  154.7241 N   0  0  0  0  0  0  0  0  0  0  0  0
  148.8041  138.0708  155.5166 C   0  0  1  0  0  0  0  0  0  0  0  0
  150.1589  138.6802  155.8895 C   0  0  1  0  0  0  0  0  0  0  0  0
  151.5547  138.1804  155.9907 C   0  0  0  0  0  0  0  0  0  0  0  0
  152.2490  139.4004  155.3296 C   0  0  0  0  0  0  0  0  0  0  0  0
  151.1840  140.2152  154.7777 O   0  0  0  0  0  0  0  0  0  0  0  0
  150.1486  139.2909  154.5033 C   0  0  2  0  0  0  0  0  0  0  0  0
  148.6116  139.3799  154.6581 C   0  0  0  0  0  0  0  0  0  0  0  0
  147.7753  139.2740  153.3761 C   0  0  0  0  0  0  0  0  0  0  0  0
  147.1033  140.6247  153.1484 C   0  0  0  0  0  0  0  0  0  0  0  0
  146.8635  141.1504  154.5559 C   0  0  0  0  0  0  0  0  0  0  0  0
  148.0547  140.6335  155.3627 C   0  0  0  0  0  0  0  0  0  0  0  0
  150.5109  132.7529  155.3545 N   0  0  0  0  0  0  0  0  0  0  0  0
  150.7280  131.4222  155.4061 C   0  0  0  0  0  0  0  0  0  0  0  0
  150.0684  128.4967  153.7539 H   0  0  0  0  0  0  0  0  0  0  0  0
  149.8064  128.5921  155.5005 H   0  0  0  0  0  0  0  0  0  0  0  0
  151.4244  128.8408  154.8314 H   0  0  0  0  0  0  0  0  0  0  0  0
  148.6445  130.3420  152.9405 H   0  0  0  0  0  0  0  0  0  0  0  0
  148.2413  132.7953  152.8410 H   0  0  0  0  0  0  0  0  0  0  0  0
  149.0671  134.9054  153.3604 H   0  0  0  0  0  0  0  0  0  0  0  0
  148.7292  136.9211  153.7321 H   0  0  0  0  0  0  0  0  0  0  0  0
  148.1093  137.9986  156.3549 H   0  0  0  0  0  0  0  0  0  0  0  0
  149.9913  139.4275  156.6720 H   0  0  0  0  0  0  0  0  0  0  0  0
  151.8745  138.0193  157.0204 H   0  0  0  0  0  0  0  0  0  0  0  0
  151.7087  137.2645  155.4188 H   0  0  0  0  0  0  0  0  0  0  0  0
  152.8196  139.9856  156.0513 H   0  0  0  0  0  0  0  0  0  0  0  0
  152.9294  139.0782  154.5402 H   0  0  0  0  0  0  0  0  0  0  0  0
  150.4527  138.6059  153.7050 H   0  0  0  0  0  0  0  0  0  0  0  0
  148.3719  138.9825  152.5109 H   0  0  0  0  0  0  0  0  0  0  0  0
  147.0047  138.5111  153.4958 H   0  0  0  0  0  0  0  0  0  0  0  0
  147.7858  141.2904  152.6184 H   0  0  0  0  0  0  0  0  0  0  0  0
  146.1862  140.5479  152.5634 H   0  0  0  0  0  0  0  0  0  0  0  0
  146.7689  142.2361  154.5911 H   0  0  0  0  0  0  0  0  0  0  0  0
  145.9418  140.7223  154.9518 H   0  0  0  0  0  0  0  0  0  0  0  0
  147.7593  140.4327  156.3929 H   0  0  0  0  0  0  0  0  0  0  0  0
  148.8186  141.4106  155.4046 H   0  0  0  0  0  0  0  0  0  0  0  0
  151.4369  131.0836  156.1474 H   0  0  0  0  0  0  0  0  0  0  0  0
  1  2  1  0  0  0  0
  1 23  1  0  0  0  0
  1 24  1  0  0  0  0
  1 25  1  0  0  0  0
  2 22  1  0  0  0  0
  2  3  2  0  0  0  0
  3  4  1  0  0  0  0
  3 26  1  0  0  0  0
  4  5  2  0  0  0  0
  4 27  1  0  0  0  0
  5  6  1  0  0  0  0
  5 21  1  0  0  0  0
  6  7  1  0  0  0  0
  6 28  1  0  0  0  0
  7  8  2  0  0  0  0
  7  9  1  0  0  0  0
  9 10  1  0  0  0  0
  9 29  1  0  0  0  0
 10 16  1  0  0  0  0
 10 11  1  0  0  0  0
 10 30  1  0  0  0  0
 11 15  1  0  0  0  0
 11 12  1  0  0  0  0
 11 31  1  0  0  0  0
 12 13  1  0  0  0  0
 12 32  1  0  0  0  0
 12 33  1  0  0  0  0
 13 14  1  0  0  0  0
 13 34  1  0  0  0  0
 13 35  1  0  0  0  0
 14 15  1  0  0  0  0
 15 16  1  0  0  0  0
 15 36  1  0  0  0  0
 16 20  1  0  0  0  0
 16 17  1  0  0  0  0
 17 18  1  0  0  0  0
 17 37  1  0  0  0  0
 17 38  1  0  0  0  0
 18 19  1  0  0  0  0
 18 39  1  0  0  0  0
 18 40  1  0  0  0  0
 19 20  1  0  0  0  0
 19 41  1  0  0  0  0
 19 42  1  0  0  0  0
 20 43  1  0  0  0  0
 20 44  1  0  0  0  0
 21 22  2  0  0  0  0
 22 45  1  0  0  0  0
M  END
> <s_m_source_file>
AV-unprocessed.smi

> <i_m_source_file_index>
2217

> <i_lp_mmshare_version>
43012

> <i_f3d_flags>
0

> <s_epik_input>
W0NIM11jMVtjSF1bY0hdYyhuW2NIXTEpW05IXUMoPU8pW05IXVtDQEBIXTJbQ0BASF0oW0NIMl1bQ0gyXU8zKVtDQEhdM0MyNFtDSDJdW0NIMl1bQ0gyXVtDSDJdNA==

> <s_epik_cmdline>
J2VwaWtfcHl0aG9uJywgJy1waCcsICc3LjAnLCAnLXRuJywgJzgnLCAnLW1hJywgJzIwMCcsICctbWV0YWxfYmluZGluZycsICctaW1hZScsICc8aW5maWxlLm1hZT4nLCAnLW9tYWUnLCAnPG91dGZpbGUubWFlPic=

> <r_lp_tautomer_probability>
1

> <r_epik_Ionization_Penalty>
6.14796e-05

> <r_epik_Ionization_Penalty_Charging>
0

> <r_epik_Ionization_Penalty_Neutral>
6.14796e-05

> <r_epik_State_Penalty>
-0

> <r_epik_Charging_Adjusted_Penalty>
0

> <i_epik_Tot_Q>
0

> <i_epik_Tot_abs_Q>
0

> <r_epik_Metal_State_Penalty>
-0

> <b_epik_Metal_Only>
0

> <s_lp_Force_Field>
OPLS_2005

> <r_lp_Energy>
82.2592

> <b_lp_Chiralities_Consistent>
1

> <s_lp_Variant>
AV-unprocessed.smi:2217-2

> <Gold.Version>
5.8.1

> <Gold.Id.Protein>
6NUR|6NUR_protein|mol2

> <Gold.PLP.Fitness>
42.1057

> <Gold.PLP.PLP>
-33.9658

> <Gold.PLP.part.hbond>
-2.8278

> <Gold.PLP.part.metal>
0.0000

> <Gold.PLP.part.buried>
-3.2989

> <Gold.PLP.part.nonpolar>
-28.7255

> <Gold.PLP.part.repulsive>
0.1100

> <Gold.PLP.ligand.clash>
0.0000

> <Gold.PLP.ligand.torsion>
0.3693

> <Gold.PLP.Chemscore.Hbond>
2.8683

> <Gold.PLP.Chemscore.CHOScore>
0.0000

> <Gold.PLP.Chemscore.Metal>
0.0000

> <Gold.Chemscore.Hbonds>
donor molecule, donor type, donor heavy atom, donor atom, acceptor molecule, acceptor atom, score
      L1  H     6    28       P1  7948  0.90
      L1  H     9    29       P1  7948  0.99
      P1  H  7989  7998       L1    14  0.93

> <Gold.PLP.Chemscore.Internal.Correction>
0.2736

> <Gold.Rescore>
     Score         DG    S(hbond)    S(metal)    S(lipo)     H(rot)  DE(clash)    DE(int)     intcor
     17.52     -18.79       1.88        0.00      81.94       1.00       0.84       0.43       ----

> <Gold.Chemscore.Fitness>
17.5165

> <Gold.Chemscore.DG>
-18.7878

> <Gold.Chemscore.ZeroCoef>
-5.4800

> <Gold.Chemscore.Hbond>
1.8806

> <Gold.Chemscore.Metal>
0.0000

> <Gold.Chemscore.Lipo>
81.9376

> <Gold.Chemscore.Internal_Hbond>
0.0000

> <Gold.Chemscore.DEClash>
0.8434

> <Gold.Chemscore.DEInternal>
0.4280

> <Gold.Chemscore.Rot>
1.0000

> <Gold.Chemscore.Internal.Correction>
   9.000000E+99

> <Gold.Chemscore.Hbonds>
donor molecule, donor type, donor heavy atom, donor atom, acceptor molecule, acceptor atom, score
      L1  H     6    28       P1  7948  0.17
      L1  H     9    29       P1  7948  0.91
      P1  H  7989  7998       L1    14  0.49

> <Gold.Chemscore.Hbond.Weighted>
-6.2811

> <Gold.Chemscore.Metal.Weighted>
-0.0000

> <Gold.Chemscore.Lipo.Weighted>
-9.5867

> <Gold.Chemscore.Internal_Hbond.Weighted>
0.0000

> <Gold.Chemscore.DEClash.Weighted>
0.8434

> <Gold.Chemscore.DEInternal.Weighted>
0.4280

> <Gold.Chemscore.Rot.Weighted>
2.5600

> <Gold.Chemscore.Internal.Correction.Weighted>
   9.000000E+99

> <Gold.Protein.RotatedTorsions>
[ 6907 6896 6895 6894 ] final  -68.84 input  -60.11 | X-H torsion
[ 7974 7965 7964 7962 ] final  166.96 input  175.53 | X-H torsion
[ 8008 7997 7996 7995 ] final -139.35 input   59.86 | X-H torsion
[ 10167 10162 10161 10158 ] final   88.15 input  -65.29 | X-H torsion
[ 10718 10713 10712 10709 ] final  -16.61 input   66.30 | X-H torsion
[ 10763 10752 10751 10750 ] final  167.24 input  -60.55 | X-H torsion
[ 11005 11000 10999 10996 ] final -104.96 input  -57.11 | X-H torsion

> <Gold.Protein.ActiveResidues>
 VAL166  LYS551  ARG553  GLY616  TRP617  ASP618  TYR619  PRO620  LYS621  CYS622 
 ASP623  PHE694  ASN695  SER759  ASP760  ASP761  ALA762  ILE779  LEU786  VAL792 
 PHE793  MET794  SER795  GLU796  ALA797  LYS798  CYS799  TRP800  GLU811  SER814 

> <Gold.Protein.RotatedAtoms>
  150.7336  134.5682  159.5876 H   0  0  0  0  0  0  0  0  0  0  0  0  # atno 6907 bound_to 6896
  152.3128  134.7474  160.0341 H   0  0  0  0  0  0  0  0  0  0  0  0  # atno 6908 bound_to 6896
  151.8016  133.3335  159.3565 H   0  0  0  0  0  0  0  0  0  0  0  0  # atno 6909 bound_to 6896
  144.7442  139.8692  143.6387 H   0  0  0  0  0  0  0  0  0  0  0  0  # atno 7974 bound_to 7965
  155.4434  140.0533  157.3008 H   0  0  0  0  0  0  0  0  0  0  0  0  # atno 8008 bound_to 7997
  154.4808  140.2080  155.9725 H   0  0  0  0  0  0  0  0  0  0  0  0  # atno 8009 bound_to 7997
  156.1203  140.3189  155.8203 H   0  0  0  0  0  0  0  0  0  0  0  0  # atno 8010 bound_to 7997
  139.8702  144.6497  150.8958 H   0  0  0  0  0  0  0  0  0  0  0  0  # atno 10167 bound_to 10162
  156.5851  130.4784  149.6303 H   0  0  0  0  0  0  0  0  0  0  0  0  # atno 10718 bound_to 10713
  154.3509  135.2753  155.2372 H   0  0  0  0  0  0  0  0  0  0  0  0  # atno 10763 bound_to 10752
  154.4602  135.5909  153.6254 H   0  0  0  0  0  0  0  0  0  0  0  0  # atno 10764 bound_to 10752
  152.9850  135.6063  154.3720 H   0  0  0  0  0  0  0  0  0  0  0  0  # atno 10765 bound_to 10752
  141.1076  133.8767  157.1675 H   0  0  0  0  0  0  0  0  0  0  0  0  # atno 11005 bound_to 11000
  146.1292  139.4325  143.0179 LP  0  0  0  0  0  0  0  0  0  0  0  0  # atno 17320 bound_to 7965
  145.7188  141.0082  143.1414 LP  0  0  0  0  0  0  0  0  0  0  0  0  # atno 17321 bound_to 7965
  140.7762  143.3670  151.1719 LP  0  0  0  0  0  0  0  0  0  0  0  0  # atno 17342 bound_to 10162
  139.7291  143.9100  152.3013 LP  0  0  0  0  0  0  0  0  0  0  0  0  # atno 17343 bound_to 10162
  156.2598  130.6955  151.1720 LP  0  0  0  0  0  0  0  0  0  0  0  0  # atno 17370 bound_to 10713
  157.7317  131.0606  150.5664 LP  0  0  0  0  0  0  0  0  0  0  0  0  # atno 17371 bound_to 10713
  139.9954  135.0049  157.0070 LP  0  0  0  0  0  0  0  0  0  0  0  0  # atno 17394 bound_to 11000
  140.4861  134.1241  155.7224 LP  0  0  0  0  0  0  0  0  0  0  0  0  # atno 17395 bound_to 11000

$$$$
