AV-unprocessed.smi:1983|AV-procd|sdf|8029|dock3
  -GOLD-   2272010223D 1   1.00000     0.00000
 Structure written by MMmdl.
 49 50  0  0  0  0  0  0  0  0  1 V2000
  149.3195  133.4155  154.8228 C   0  0  0  0  0  0  0  0  0  0  0  0
  148.9577  134.6894  155.6069 C   0  0  1  0  0  0  0  0  0  0  0  0
  149.9649  134.9879  156.7306 C   0  0  0  0  0  0  0  0  0  0  0  0
  149.7966  134.0830  157.8008 O   0  0  0  0  0  0  0  0  0  0  0  0
  148.8906  135.8386  154.7082 N   0  0  0  0  0  0  0  0  0  0  0  0
  148.6233  137.0985  155.0798 C   0  0  0  0  0  0  0  0  0  0  0  0
  148.3928  137.4433  156.2391 O   0  0  0  0  0  0  0  0  0  0  0  0
  148.6312  137.9375  154.0349 N   0  0  0  0  0  0  0  0  0  0  0  0
  148.3444  139.3647  154.1163 C   0  0  0  0  0  0  0  0  0  0  0  0
  149.2597  140.0936  155.0838 C   0  0  0  0  0  0  0  0  0  0  0  0
  150.6563  139.9220  155.0292 C   0  0  0  0  0  0  0  0  0  0  0  0
  151.4638  140.6132  155.9524 C   0  0  0  0  0  0  0  0  0  0  0  0
  150.8520  141.4605  156.9064 C   0  0  0  0  0  0  0  0  0  0  0  0
  151.6455  142.1622  157.8385 N   0  0  0  0  0  0  0  0  0  0  0  0
  152.1102  141.3797  158.9798 C   0  0  0  0  0  0  0  0  0  0  0  0
  153.2078  142.1438  159.7447 C   0  0  2  0  0  0  0  0  0  0  0  0
  153.6318  141.4128  161.0229 C   0  0  0  0  0  0  0  0  0  0  0  0
  152.7192  143.4327  160.1080 O   0  0  0  0  0  0  0  0  0  0  0  0
  152.3728  144.2239  158.9741 C   0  0  2  0  0  0  0  0  0  0  0  0
  151.9545  145.6137  159.4647 C   0  0  0  0  0  0  0  0  0  0  0  0
  151.2454  143.5211  158.1953 C   0  0  0  0  0  0  0  0  0  0  0  0
  149.5067  141.6260  156.9514 N   0  0  0  0  0  0  0  0  0  0  0  0
  148.7370  140.9572  156.0672 C   0  0  0  0  0  0  0  0  0  0  0  0
  149.3569  132.5465  155.4799 H   0  0  0  0  0  0  0  0  0  0  0  0
  150.2924  133.5085  154.3395 H   0  0  0  0  0  0  0  0  0  0  0  0
  148.5823  133.2031  154.0480 H   0  0  0  0  0  0  0  0  0  0  0  0
  147.9736  134.5568  156.0612 H   0  0  0  0  0  0  0  0  0  0  0  0
  150.9909  134.9372  156.3641 H   0  0  0  0  0  0  0  0  0  0  0  0
  149.8114  135.9944  157.1219 H   0  0  0  0  0  0  0  0  0  0  0  0
  149.7540  133.2067  157.4498 H   0  0  0  0  0  0  0  0  0  0  0  0
  149.0640  135.6592  153.7302 H   0  0  0  0  0  0  0  0  0  0  0  0
  148.8341  137.5623  153.1200 H   0  0  0  0  0  0  0  0  0  0  0  0
  148.3997  139.8181  153.1249 H   0  0  0  0  0  0  0  0  0  0  0  0
  147.3152  139.4890  154.4531 H   0  0  0  0  0  0  0  0  0  0  0  0
  151.1052  139.2704  154.2939 H   0  0  0  0  0  0  0  0  0  0  0  0
  152.5366  140.4976  155.9109 H   0  0  0  0  0  0  0  0  0  0  0  0
  151.2615  141.1834  159.6366 H   0  0  0  0  0  0  0  0  0  0  0  0
  152.4993  140.4110  158.6684 H   0  0  0  0  0  0  0  0  0  0  0  0
  154.0851  142.2615  159.1059 H   0  0  0  0  0  0  0  0  0  0  0  0
  154.0209  140.4200  160.7960 H   0  0  0  0  0  0  0  0  0  0  0  0
  152.7911  141.2947  161.7074 H   0  0  0  0  0  0  0  0  0  0  0  0
  154.4131  141.9645  161.5463 H   0  0  0  0  0  0  0  0  0  0  0  0
  153.2494  144.3331  158.3328 H   0  0  0  0  0  0  0  0  0  0  0  0
  151.6925  146.2625  158.6286 H   0  0  0  0  0  0  0  0  0  0  0  0
  152.7649  146.0923  160.0150 H   0  0  0  0  0  0  0  0  0  0  0  0
  151.0904  145.5556  160.1273 H   0  0  0  0  0  0  0  0  0  0  0  0
  151.0152  144.0921  157.2947 H   0  0  0  0  0  0  0  0  0  0  0  0
  150.3376  143.4826  158.7992 H   0  0  0  0  0  0  0  0  0  0  0  0
  147.6721  141.1182  156.1467 H   0  0  0  0  0  0  0  0  0  0  0  0
  1  2  1  0  0  0  0
  1 24  1  0  0  0  0
  1 25  1  0  0  0  0
  1 26  1  0  0  0  0
  2  3  1  0  0  0  0
  2  5  1  0  0  0  0
  2 27  1  0  0  0  0
  3  4  1  0  0  0  0
  3 28  1  0  0  0  0
  3 29  1  0  0  0  0
  4 30  1  0  0  0  0
  5  6  1  0  0  0  0
  5 31  1  0  0  0  0
  6  7  2  0  0  0  0
  6  8  1  0  0  0  0
  8  9  1  0  0  0  0
  8 32  1  0  0  0  0
  9 10  1  0  0  0  0
  9 33  1  0  0  0  0
  9 34  1  0  0  0  0
 10 23  1  0  0  0  0
 10 11  2  0  0  0  0
 11 12  1  0  0  0  0
 11 35  1  0  0  0  0
 12 13  2  0  0  0  0
 12 36  1  0  0  0  0
 13 14  1  0  0  0  0
 13 22  1  0  0  0  0
 14 21  1  0  0  0  0
 14 15  1  0  0  0  0
 15 16  1  0  0  0  0
 15 37  1  0  0  0  0
 15 38  1  0  0  0  0
 16 17  1  0  0  0  0
 16 18  1  0  0  0  0
 16 39  1  0  0  0  0
 17 40  1  0  0  0  0
 17 41  1  0  0  0  0
 17 42  1  0  0  0  0
 18 19  1  0  0  0  0
 19 20  1  0  0  0  0
 19 21  1  0  0  0  0
 19 43  1  0  0  0  0
 20 44  1  0  0  0  0
 20 45  1  0  0  0  0
 20 46  1  0  0  0  0
 21 47  1  0  0  0  0
 21 48  1  0  0  0  0
 22 23  2  0  0  0  0
 23 49  1  0  0  0  0
M  END
> <s_m_source_file>
AV-unprocessed.smi

> <i_m_source_file_index>
1983

> <i_lp_mmshare_version>
43012

> <i_f3d_flags>
0

> <s_epik_input>
W09IXVtDSDJdW0NAQEhdKFtDSDNdKVtOSF1DKD1PKVtOSF1bQ0gyXWMxW2NIXVtjSF1jKG5bY0hdMSlOMltDSDJdW0NAQEhdKFtDSDNdKU9bQ0BASF0oW0NIM10pW0NIMl0y

> <s_epik_cmdline>
J2VwaWtfcHl0aG9uJywgJy1waCcsICc3LjAnLCAnLXRuJywgJzgnLCAnLW1hJywgJzIwMCcsICctbWV0YWxfYmluZGluZycsICctaW1hZScsICc8aW5maWxlLm1hZT4nLCAnLW9tYWUnLCAnPG91dGZpbGUubWFlPic=

> <r_lp_tautomer_probability>
1

> <r_epik_Ionization_Penalty>
0.00801967

> <r_epik_Ionization_Penalty_Charging>
0

> <r_epik_Ionization_Penalty_Neutral>
0.00801967

> <r_epik_State_Penalty>
0.00598289

> <r_epik_Charging_Adjusted_Penalty>
0.00598289

> <i_epik_Tot_Q>
0

> <i_epik_Tot_abs_Q>
0

> <r_epik_Metal_State_Penalty>
0.00590297

> <b_epik_Metal_Only>
0

> <s_lp_Force_Field>
OPLS_2005

> <r_lp_Energy>
11.3831

> <b_lp_Chiralities_Consistent>
1

> <s_lp_Variant>
AV-unprocessed.smi:1983-2

> <Gold.Version>
5.8.1

> <Gold.Id.Protein>
6NUR|6NUR_protein|mol2

> <Gold.PLP.Fitness>
50.1197

> <Gold.PLP.PLP>
-42.4076

> <Gold.PLP.part.hbond>
-3.0000

> <Gold.PLP.part.metal>
0.0000

> <Gold.PLP.part.buried>
-2.7403

> <Gold.PLP.part.nonpolar>
-35.8729

> <Gold.PLP.part.repulsive>
0.1669

> <Gold.PLP.ligand.clash>
0.0000

> <Gold.PLP.ligand.torsion>
0.8139

> <Gold.PLP.Chemscore.Hbond>
3.0000

> <Gold.PLP.Chemscore.CHOScore>
0.0000

> <Gold.PLP.Chemscore.Metal>
0.0000

> <Gold.Chemscore.Hbonds>
donor molecule, donor type, donor heavy atom, donor atom, acceptor molecule, acceptor atom, score
      L1  H     5    31       P1  7948  1.00
      L1  H     8    32       P1  7948  1.00
      P1  H  6896  6908       L1     4  1.00

> <Gold.PLP.Chemscore.Internal.Correction>
0.3399

> <Gold.Rescore>
     Score         DG    S(hbond)    S(metal)    S(lipo)     H(rot)  DE(clash)    DE(int)     intcor
     18.52     -20.39       2.78        0.00     105.11       2.61       0.05       1.82       ----

> <Gold.Chemscore.Fitness>
18.5160

> <Gold.Chemscore.DG>
-20.3860

> <Gold.Chemscore.ZeroCoef>
-5.4800

> <Gold.Chemscore.Hbond>
2.7811

> <Gold.Chemscore.Metal>
0.0000

> <Gold.Chemscore.Lipo>
105.1119

> <Gold.Chemscore.Internal_Hbond>
0.0000

> <Gold.Chemscore.DEClash>
0.0494

> <Gold.Chemscore.DEInternal>
1.8207

> <Gold.Chemscore.Rot>
2.6097

> <Gold.Chemscore.Internal.Correction>
   9.000000E+99

> <Gold.Chemscore.Hbonds>
donor molecule, donor type, donor heavy atom, donor atom, acceptor molecule, acceptor atom, score
      L1  H     5    31       P1  7948  0.78
      L1  H     8    32       P1  7948  0.99
      P1  H  6896  6908       L1     4  0.39

> <Gold.Chemscore.Hbond.Weighted>
-9.2889

> <Gold.Chemscore.Metal.Weighted>
-0.0000

> <Gold.Chemscore.Lipo.Weighted>
-12.2981

> <Gold.Chemscore.Internal_Hbond.Weighted>
0.0000

> <Gold.Chemscore.DEClash.Weighted>
0.0494

> <Gold.Chemscore.DEInternal.Weighted>
1.8207

> <Gold.Chemscore.Rot.Weighted>
6.6809

> <Gold.Chemscore.Internal.Correction.Weighted>
   9.000000E+99

> <Gold.Protein.RotatedTorsions>
[ 6907 6896 6895 6894 ] final  124.82 input  -60.11 | X-H torsion
[ 7974 7965 7964 7962 ] final  157.15 input  175.53 | X-H torsion
[ 8008 7997 7996 7995 ] final   76.07 input   59.86 | X-H torsion
[ 10167 10162 10161 10158 ] final -141.03 input  -65.29 | X-H torsion
[ 10718 10713 10712 10709 ] final -150.70 input   66.30 | X-H torsion
[ 10763 10752 10751 10750 ] final -112.04 input  -60.55 | X-H torsion
[ 11005 11000 10999 10996 ] final  -41.36 input  -57.11 | X-H torsion

> <Gold.Protein.ActiveResidues>
 VAL166  LYS551  ARG553  GLY616  TRP617  ASP618  TYR619  PRO620  LYS621  CYS622 
 ASP623  PHE694  ASN695  SER759  ASP760  ASP761  ALA762  ILE779  LEU786  VAL792 
 PHE793  MET794  SER795  GLU796  ALA797  LYS798  CYS799  TRP800  GLU811  SER814 

> <Gold.Protein.RotatedAtoms>
  152.4045  133.6868  159.6344 H   0  0  0  0  0  0  0  0  0  0  0  0  # atno 6907 bound_to 6896
  150.7932  133.8733  159.3273 H   0  0  0  0  0  0  0  0  0  0  0  0  # atno 6908 bound_to 6896
  151.6491  135.1005  160.0208 H   0  0  0  0  0  0  0  0  0  0  0  0  # atno 6909 bound_to 6896
  144.7920  139.7302  143.6217 H   0  0  0  0  0  0  0  0  0  0  0  0  # atno 7974 bound_to 7965
  155.8221  140.3469  155.5520 H   0  0  0  0  0  0  0  0  0  0  0  0  # atno 8008 bound_to 7997
  155.8331  140.0930  157.1800 H   0  0  0  0  0  0  0  0  0  0  0  0  # atno 8009 bound_to 7997
  154.4004  140.1408  156.3625 H   0  0  0  0  0  0  0  0  0  0  0  0  # atno 8010 bound_to 7997
  139.8224  143.7556  152.2666 H   0  0  0  0  0  0  0  0  0  0  0  0  # atno 10167 bound_to 10162
  156.4496  130.8161  151.2392 H   0  0  0  0  0  0  0  0  0  0  0  0  # atno 10718 bound_to 10713
  154.8330  135.4505  154.1132 H   0  0  0  0  0  0  0  0  0  0  0  0  # atno 10763 bound_to 10752
  153.2389  135.6914  153.7812 H   0  0  0  0  0  0  0  0  0  0  0  0  # atno 10764 bound_to 10752
  153.7167  135.3348  155.3234 H   0  0  0  0  0  0  0  0  0  0  0  0  # atno 10765 bound_to 10752
  141.0240  133.6849  156.2447 H   0  0  0  0  0  0  0  0  0  0  0  0  # atno 11005 bound_to 11000
  146.2175  139.5576  142.9640 LP  0  0  0  0  0  0  0  0  0  0  0  0  # atno 17320 bound_to 7965
  145.5770  141.0387  143.2143 LP  0  0  0  0  0  0  0  0  0  0  0  0  # atno 17321 bound_to 7965
  139.7738  144.7467  151.0186 LP  0  0  0  0  0  0  0  0  0  0  0  0  # atno 17342 bound_to 10162
  140.7812  143.4616  151.0270 LP  0  0  0  0  0  0  0  0  0  0  0  0  # atno 17343 bound_to 10162
  157.7503  131.0142  150.3455 LP  0  0  0  0  0  0  0  0  0  0  0  0  # atno 17370 bound_to 10713
  156.3831  130.3884  149.7087 LP  0  0  0  0  0  0  0  0  0  0  0  0  # atno 17371 bound_to 10713
  140.6523  134.5054  157.5578 LP  0  0  0  0  0  0  0  0  0  0  0  0  # atno 17394 bound_to 11000
  139.9164  134.8237  156.1352 LP  0  0  0  0  0  0  0  0  0  0  0  0  # atno 17395 bound_to 11000

$$$$
