AV-unprocessed.smi:2073|AV-procd|sdf|8451|dock5
  -GOLD-   2272011143D 1   1.00000     0.00000
 Structure written by MMmdl.
 27 27  0  0  0  0  0  0  0  0  2 V2000
  152.5591  142.9209  161.4744 C   0  0  0  0  0  0  0  0  0  0  0  0
  152.5276  143.5818  160.0867 C   0  0  0  0  0  0  0  0  0  0  0  0
  152.1018  145.0581  160.1759 C   0  0  0  0  0  0  0  0  0  0  0  0
  151.6141  142.7894  159.1342 C   0  0  0  0  0  0  0  0  0  0  0  0
  150.4039  142.7310  159.3621 O   0  0  0  0  0  0  0  0  0  0  0  0
  152.3098  142.2224  158.1189 N   0  5  0  0  0  0  0  0  0  0  0  0
  151.7887  141.1739  157.4633 C   0  0  0  0  0  0  0  0  0  0  0  0
  152.4461  140.5154  156.5028 N   0  0  0  0  0  0  0  0  0  0  0  0
  151.7208  139.4541  155.9531 C   0  0  0  0  0  0  0  0  0  0  0  0
  152.3327  138.6084  154.8734 C   0  0  0  0  0  0  0  0  0  0  0  0
  151.3001  137.6386  154.2929 C   0  0  0  0  0  0  0  0  0  0  0  0
  150.4324  138.1272  153.4018 N   0  0  0  0  0  0  0  0  0  0  0  0
  151.2771  136.4640  154.6547 O   0  0  0  0  0  0  0  0  0  0  0  0
  150.4708  139.3191  156.5005 C   0  0  0  0  0  0  0  0  0  0  0  0
  150.1746  140.5128  157.7317 S   0  0  0  0  0  0  0  0  0  0  0  0
  152.8812  141.8807  161.4107 H   0  0  0  0  0  0  0  0  0  0  0  0
  151.5761  142.9373  161.9470 H   0  0  0  0  0  0  0  0  0  0  0  0
  153.2538  143.4379  162.1364 H   0  0  0  0  0  0  0  0  0  0  0  0
  153.5463  143.5715  159.6928 H   0  0  0  0  0  0  0  0  0  0  0  0
  152.0541  145.5170  159.1876 H   0  0  0  0  0  0  0  0  0  0  0  0
  152.8144  145.6318  160.7684 H   0  0  0  0  0  0  0  0  0  0  0  0
  151.1223  145.1678  160.6430 H   0  0  0  0  0  0  0  0  0  0  0  0
  152.7255  139.2388  154.0746 H   0  0  0  0  0  0  0  0  0  0  0  0
  153.1787  138.0364  155.2569 H   0  0  0  0  0  0  0  0  0  0  0  0
  149.7220  137.5240  153.0112 H   0  0  0  0  0  0  0  0  0  0  0  0
  150.4759  139.1005  153.1378 H   0  0  0  0  0  0  0  0  0  0  0  0
  149.7116  138.5904  156.2588 H   0  0  0  0  0  0  0  0  0  0  0  0
  1  2  1  0  0  0  0
  1 16  1  0  0  0  0
  1 17  1  0  0  0  0
  1 18  1  0  0  0  0
  2  3  1  0  0  0  0
  2  4  1  0  0  0  0
  2 19  1  0  0  0  0
  3 20  1  0  0  0  0
  3 21  1  0  0  0  0
  3 22  1  0  0  0  0
  4  5  2  0  0  0  0
  4  6  1  0  0  0  0
  6  7  1  0  0  0  0
  7 15  1  0  0  0  0
  7  8  2  0  0  0  0
  8  9  1  0  0  0  0
  9 10  1  0  0  0  0
  9 14  2  0  0  0  0
 10 11  1  0  0  0  0
 10 23  1  0  0  0  0
 10 24  1  0  0  0  0
 11 12  1  0  0  0  0
 11 13  2  0  0  0  0
 12 25  1  0  0  0  0
 12 26  1  0  0  0  0
 14 15  1  0  0  0  0
 14 27  1  0  0  0  0
M  CHG  1   6  -1
M  END
> <s_m_source_file>
AV-unprocessed.smi

> <i_m_source_file_index>
2073

> <i_lp_mmshare_version>
43012

> <i_f3d_flags>
0

> <s_epik_input>
W0NIM11bQ0hdKFtDSDNdKUMoPU8pW05IXWMxbmMoW2NIXXMxKVtDSDJdQyg9TylbTkgyXQ==

> <s_epik_cmdline>
J2VwaWtfcHl0aG9uJywgJy1waCcsICc3LjAnLCAnLXRuJywgJzgnLCAnLW1hJywgJzIwMCcsICctbWV0YWxfYmluZGluZycsICctaW1hZScsICc8aW5maWxlLm1hZT4nLCAnLW9tYWUnLCAnPG91dGZpbGUubWFlPic=

> <r_lp_tautomer_probability>
1

> <r_epik_Ionization_Penalty>
5.4698

> <r_epik_Ionization_Penalty_Charging>
4.98646

> <r_epik_Ionization_Penalty_Neutral>
0.483343

> <r_epik_State_Penalty>
4.98633

> <r_epik_Charging_Adjusted_Penalty>
9.97279

> <i_epik_Tot_Q>
-1

> <i_epik_Tot_abs_Q>
1

> <r_epik_Metal_State_Penalty>
1.11062

> <b_epik_Metal_Only>
1

> <s_lp_Force_Field>
OPLS_2005

> <r_lp_Energy>
-0.551018

> <b_lp_Chiralities_Consistent>
1

> <s_lp_Variant>
AV-unprocessed.smi:2073-2

> <Gold.Version>
5.8.1

> <Gold.Id.Protein>
6NUR|6NUR_protein|mol2

> <Gold.PLP.Fitness>
37.7009

> <Gold.PLP.PLP>
-29.6961

> <Gold.PLP.part.hbond>
-5.7166

> <Gold.PLP.part.metal>
0.0000

> <Gold.PLP.part.buried>
0.6678

> <Gold.PLP.part.nonpolar>
-24.0935

> <Gold.PLP.part.repulsive>
0.3042

> <Gold.PLP.ligand.clash>
0.0000

> <Gold.PLP.ligand.torsion>
0.4670

> <Gold.PLP.Chemscore.Hbond>
2.9562

> <Gold.PLP.Chemscore.CHOScore>
0.0000

> <Gold.PLP.Chemscore.Metal>
0.0000

> <Gold.Chemscore.Hbonds>
donor molecule, donor type, donor heavy atom, donor atom, acceptor molecule, acceptor atom, score
      L1  H    12    25       P1  7948  1.00
      L1  H    12    26       P1  7957  0.12
      P1  H  7997  8008       L1     8  0.93
      P1  H 10752 10765       L1    13  1.00

> <Gold.PLP.Chemscore.Internal.Correction>
0.0702

> <Gold.Rescore>
     Score         DG    S(hbond)    S(metal)    S(lipo)     H(rot)  DE(clash)    DE(int)     intcor
     13.38     -16.33       2.67        0.00      58.20       1.90       0.98       1.97       ----

> <Gold.Chemscore.Fitness>
13.3842

> <Gold.Chemscore.DG>
-16.3320

> <Gold.Chemscore.ZeroCoef>
-5.4800

> <Gold.Chemscore.Hbond>
2.6677

> <Gold.Chemscore.Metal>
0.0000

> <Gold.Chemscore.Lipo>
58.1969

> <Gold.Chemscore.Internal_Hbond>
0.0000

> <Gold.Chemscore.DEClash>
0.9827

> <Gold.Chemscore.DEInternal>
1.9651

> <Gold.Chemscore.Rot>
1.9012

> <Gold.Chemscore.Internal.Correction>
   9.000000E+99

> <Gold.Chemscore.Hbonds>
donor molecule, donor type, donor heavy atom, donor atom, acceptor molecule, acceptor atom, score
      L1  H    12    25       P1  7948  0.54
      L1  H    12    26       P1  7957  0.08
      P1  H  7997  8008       L1     8  0.66
      P1  H 10752 10765       L1    13  0.92

> <Gold.Chemscore.Hbond.Weighted>
-8.9101

> <Gold.Chemscore.Metal.Weighted>
-0.0000

> <Gold.Chemscore.Lipo.Weighted>
-6.8090

> <Gold.Chemscore.Internal_Hbond.Weighted>
0.0000

> <Gold.Chemscore.DEClash.Weighted>
0.9827

> <Gold.Chemscore.DEInternal.Weighted>
1.9651

> <Gold.Chemscore.Rot.Weighted>
4.8671

> <Gold.Chemscore.Internal.Correction.Weighted>
   9.000000E+99

> <Gold.Protein.RotatedTorsions>
[ 6907 6896 6895 6894 ] final  -59.18 input  -60.11 | X-H torsion
[ 7974 7965 7964 7962 ] final  131.10 input  175.53 | X-H torsion
[ 8008 7997 7996 7995 ] final  -46.93 input   59.86 | X-H torsion
[ 10167 10162 10161 10158 ] final -111.70 input  -65.29 | X-H torsion
[ 10718 10713 10712 10709 ] final -162.00 input   66.30 | X-H torsion
[ 10763 10752 10751 10750 ] final -172.87 input  -60.55 | X-H torsion
[ 11005 11000 10999 10996 ] final -123.68 input  -57.11 | X-H torsion

> <Gold.Protein.ActiveResidues>
 VAL166  LYS551  ARG553  GLY616  TRP617  ASP618  TYR619  PRO620  LYS621  CYS622 
 ASP623  PHE694  ASN695  SER759  ASP760  ASP761  ALA762  ILE779  LEU786  VAL792 
 PHE793  MET794  SER795  GLU796  ALA797  LYS798  CYS799  TRP800  GLU811  SER814 

> <Gold.Protein.RotatedAtoms>
  150.7949  134.7002  159.6545 H   0  0  0  0  0  0  0  0  0  0  0  0  # atno 6907 bound_to 6896
  152.4060  134.6202  160.0058 H   0  0  0  0  0  0  0  0  0  0  0  0  # atno 6908 bound_to 6896
  151.6459  133.3286  159.3177 H   0  0  0  0  0  0  0  0  0  0  0  0  # atno 6909 bound_to 6896
  145.0109  139.4221  143.5245 H   0  0  0  0  0  0  0  0  0  0  0  0  # atno 7974 bound_to 7965
  154.4011  140.1359  156.4091 H   0  0  0  0  0  0  0  0  0  0  0  0  # atno 8008 bound_to 7997
  155.7751  140.3483  155.5247 H   0  0  0  0  0  0  0  0  0  0  0  0  # atno 8009 bound_to 7997
  155.8729  140.0975  157.1528 H   0  0  0  0  0  0  0  0  0  0  0  0  # atno 8010 bound_to 7997
  140.1307  143.4363  152.1629 H   0  0  0  0  0  0  0  0  0  0  0  0  # atno 10167 bound_to 10162
  156.6042  130.8823  151.2921 H   0  0  0  0  0  0  0  0  0  0  0  0  # atno 10718 bound_to 10713
  154.6144  135.2868  155.0396 H   0  0  0  0  0  0  0  0  0  0  0  0  # atno 10763 bound_to 10752
  154.1614  135.6487  153.4991 H   0  0  0  0  0  0  0  0  0  0  0  0  # atno 10764 bound_to 10752
  153.0208  135.5379  154.6910 H   0  0  0  0  0  0  0  0  0  0  0  0  # atno 10765 bound_to 10752
  140.9900  134.0552  157.3665 H   0  0  0  0  0  0  0  0  0  0  0  0  # atno 11005 bound_to 11000
  146.3469  139.9552  142.8724 LP  0  0  0  0  0  0  0  0  0  0  0  0  # atno 17320 bound_to 7965
  145.2024  140.9860  143.4148 LP  0  0  0  0  0  0  0  0  0  0  0  0  # atno 17321 bound_to 7965
  139.5521  144.7345  151.4404 LP  0  0  0  0  0  0  0  0  0  0  0  0  # atno 17342 bound_to 10162
  140.6818  143.8063  150.7132 LP  0  0  0  0  0  0  0  0  0  0  0  0  # atno 17343 bound_to 10162
  157.7271  130.9639  150.1686 LP  0  0  0  0  0  0  0  0  0  0  0  0  # atno 17370 bound_to 10713
  156.2444  130.3694  149.8302 LP  0  0  0  0  0  0  0  0  0  0  0  0  # atno 17371 bound_to 10713
  139.8988  135.0156  156.7166 LP  0  0  0  0  0  0  0  0  0  0  0  0  # atno 17394 bound_to 11000
  140.7054  133.9269  155.8050 LP  0  0  0  0  0  0  0  0  0  0  0  0  # atno 17395 bound_to 11000

$$$$
