AV-unprocessed.smi:331|AV-procd|sdf|2351|dock2
  -GOLD-   2262022263D 1   1.00000     0.00000
 Structure written by MMmdl.
 37 38  0  0  0  0  0  0  0  0  2 V2000
  151.1946  141.3256  157.7548 O   0  0  0  0  0  0  0  0  0  0  0  0
  150.5429  142.3653  157.8272 C   0  0  0  0  0  0  0  0  0  0  0  0
  149.3349  142.5217  157.2605 N   0  0  0  0  0  0  0  0  0  0  0  0
  148.6532  141.5212  156.4454 C   0  0  0  0  0  0  0  0  0  0  0  0
  149.3614  141.2672  155.0997 C   0  0  0  0  0  0  0  0  0  0  0  0
  148.5211  140.4706  154.1159 C   0  0  0  0  0  0  0  0  0  0  0  0
  147.3688  141.0385  153.5274 C   0  0  0  0  0  0  0  0  0  0  0  0
  146.6000  140.2694  152.6294 C   0  0  0  0  0  0  0  0  0  0  0  0
  147.0031  138.9507  152.3362 C   0  0  0  0  0  0  0  0  0  0  0  0
  148.1127  138.4421  152.9160 N   0  3  0  0  0  0  0  0  0  0  0  0
  148.8743  139.1452  153.7827 C   0  0  0  0  0  0  0  0  0  0  0  0
  150.9965  143.4454  158.4876 N   0  0  0  0  0  0  0  0  0  0  0  0
  152.2644  143.5959  159.2062 C   0  0  0  0  0  0  0  0  0  0  0  0
  152.6350  142.2898  159.9349 C   0  0  0  0  0  0  0  0  0  0  0  0
  153.0178  142.6924  161.3597 C   0  0  0  0  0  0  0  0  0  0  0  0
  152.1855  143.9404  161.6335 C   0  0  0  0  0  0  0  0  0  0  0  0
  152.1751  144.6827  160.2971 C   0  0  0  0  0  0  0  0  0  0  0  0
  148.8639  143.4055  157.3881 H   0  0  0  0  0  0  0  0  0  0  0  0
  148.5455  140.5891  157.0023 H   0  0  0  0  0  0  0  0  0  0  0  0
  147.6431  141.8873  156.2607 H   0  0  0  0  0  0  0  0  0  0  0  0
  149.6346  142.2187  154.6417 H   0  0  0  0  0  0  0  0  0  0  0  0
  150.2996  140.7392  155.2736 H   0  0  0  0  0  0  0  0  0  0  0  0
  147.0713  142.0493  153.7668 H   0  0  0  0  0  0  0  0  0  0  0  0
  145.7138  140.6857  152.1730 H   0  0  0  0  0  0  0  0  0  0  0  0
  146.4754  138.2926  151.6615 H   0  0  0  0  0  0  0  0  0  0  0  0
  149.7346  138.6285  154.1829 H   0  0  0  0  0  0  0  0  0  0  0  0
  150.3732  144.2388  158.5312 H   0  0  0  0  0  0  0  0  0  0  0  0
  153.0627  143.8456  158.5048 H   0  0  0  0  0  0  0  0  0  0  0  0
  151.7784  141.6150  159.9770 H   0  0  0  0  0  0  0  0  0  0  0  0
  153.4411  141.7533  159.4336 H   0  0  0  0  0  0  0  0  0  0  0  0
  152.8364  141.8980  162.0841 H   0  0  0  0  0  0  0  0  0  0  0  0
  154.0784  142.9436  161.3995 H   0  0  0  0  0  0  0  0  0  0  0  0
  151.1683  143.6516  161.9017 H   0  0  0  0  0  0  0  0  0  0  0  0
  152.5867  144.5450  162.4471 H   0  0  0  0  0  0  0  0  0  0  0  0
  153.0550  145.3242  160.2362 H   0  0  0  0  0  0  0  0  0  0  0  0
  151.3020  145.3293  160.1988 H   0  0  0  0  0  0  0  0  0  0  0  0
  148.3870  137.4857  152.6902 H   0  0  0  0  0  0  0  0  0  0  0  0
  1  2  2  0  0  0  0
  2  3  1  0  0  0  0
  2 12  1  0  0  0  0
  3  4  1  0  0  0  0
  3 18  1  0  0  0  0
  4  5  1  0  0  0  0
  4 19  1  0  0  0  0
  4 20  1  0  0  0  0
  5  6  1  0  0  0  0
  5 21  1  0  0  0  0
  5 22  1  0  0  0  0
  6 11  1  0  0  0  0
  6  7  2  0  0  0  0
  7  8  1  0  0  0  0
  7 23  1  0  0  0  0
  8  9  2  0  0  0  0
  8 24  1  0  0  0  0
  9 10  1  0  0  0  0
  9 25  1  0  0  0  0
 10 11  2  0  0  0  0
 10 37  1  0  0  0  0
 11 26  1  0  0  0  0
 12 13  1  0  0  0  0
 12 27  1  0  0  0  0
 13 17  1  0  0  0  0
 13 14  1  0  0  0  0
 13 28  1  0  0  0  0
 14 15  1  0  0  0  0
 14 29  1  0  0  0  0
 14 30  1  0  0  0  0
 15 16  1  0  0  0  0
 15 31  1  0  0  0  0
 15 32  1  0  0  0  0
 16 17  1  0  0  0  0
 16 33  1  0  0  0  0
 16 34  1  0  0  0  0
 17 35  1  0  0  0  0
 17 36  1  0  0  0  0
M  CHG  1  10   1
M  END
> <s_m_source_file>
AV-unprocessed.smi

> <i_m_source_file_index>
331

> <i_lp_mmshare_version>
43012

> <i_f3d_flags>
0

> <s_epik_input>
W0NIMl0xW0NIMl1bQ0gyXVtDSDJdW0NIXTFbTkhdQyg9TylbTkhdW0NIMl1bQ0gyXWMyW2NIXVtjSF1bY0hdbltjSF0y

> <s_epik_cmdline>
J2VwaWtfcHl0aG9uJywgJy1waCcsICc3LjAnLCAnLXRuJywgJzgnLCAnLW1hJywgJzIwMCcsICctbWV0YWxfYmluZGluZycsICctaW1hZScsICc8aW5maWxlLm1hZT4nLCAnLW9tYWUnLCAnPG91dGZpbGUubWFlPic=

> <r_epik_Ionization_Penalty>
2.21063

> <r_epik_Ionization_Penalty_Charging>
2.21057

> <r_epik_Ionization_Penalty_Neutral>
5.76468e-05

> <r_epik_State_Penalty>
2.35476

> <r_epik_Charging_Adjusted_Penalty>
4.56533

> <i_epik_Tot_Q>
1

> <i_epik_Tot_abs_Q>
1

> <r_epik_Metal_State_Penalty>
2.36886

> <b_epik_Metal_Only>
0

> <s_lp_Force_Field>
OPLS_2005

> <r_lp_Energy>
33.3407

> <b_lp_Chiralities_Consistent>
1

> <s_lp_Variant>
AV-unprocessed.smi:331-2

> <Gold.Version>
5.8.1

> <Gold.Id.Protein>
6NUR|6NUR_protein|mol2

> <Gold.PLP.Fitness>
45.3706

> <Gold.PLP.PLP>
-39.0785

> <Gold.PLP.part.hbond>
-3.0000

> <Gold.PLP.part.metal>
0.0000

> <Gold.PLP.part.buried>
1.3121

> <Gold.PLP.part.nonpolar>
-36.6938

> <Gold.PLP.part.repulsive>
0.1243

> <Gold.PLP.ligand.clash>
0.0000

> <Gold.PLP.ligand.torsion>
0.4834

> <Gold.PLP.Chemscore.Hbond>
2.4160

> <Gold.PLP.Chemscore.CHOScore>
0.0000

> <Gold.PLP.Chemscore.Metal>
0.0000

> <Gold.Chemscore.Hbonds>
donor molecule, donor type, donor heavy atom, donor atom, acceptor molecule, acceptor atom, score
      L1  H     3    18       P1  8028  0.22
      L1  H    10    37       P1  7948  2.00

> <Gold.PLP.Chemscore.Internal.Correction>
0.0109

> <Gold.Rescore>
     Score         DG    S(hbond)    S(metal)    S(lipo)     H(rot)  DE(clash)    DE(int)     intcor
     14.80     -17.21       0.98        0.00     107.03       1.59       0.60       1.80       ----

> <Gold.Chemscore.Fitness>
14.8003

> <Gold.Chemscore.DG>
-17.2063

> <Gold.Chemscore.ZeroCoef>
-5.4800

> <Gold.Chemscore.Hbond>
0.9826

> <Gold.Chemscore.Metal>
0.0000

> <Gold.Chemscore.Lipo>
107.0324

> <Gold.Chemscore.Internal_Hbond>
0.0000

> <Gold.Chemscore.DEClash>
0.6017

> <Gold.Chemscore.DEInternal>
1.8043

> <Gold.Chemscore.Rot>
1.5932

> <Gold.Chemscore.Internal.Correction>
   9.000000E+99

> <Gold.Chemscore.Hbonds>
donor molecule, donor type, donor heavy atom, donor atom, acceptor molecule, acceptor atom, score
      L1  H     3    18       P1  8028  0.07
      L1  H    10    37       P1  7948  0.98

> <Gold.Chemscore.Hbond.Weighted>
-3.2820

> <Gold.Chemscore.Metal.Weighted>
-0.0000

> <Gold.Chemscore.Lipo.Weighted>
-12.5228

> <Gold.Chemscore.Internal_Hbond.Weighted>
0.0000

> <Gold.Chemscore.DEClash.Weighted>
0.6017

> <Gold.Chemscore.DEInternal.Weighted>
1.8043

> <Gold.Chemscore.Rot.Weighted>
4.0785

> <Gold.Chemscore.Internal.Correction.Weighted>
   9.000000E+99

> <Gold.Protein.RotatedTorsions>
[ 6907 6896 6895 6894 ] final -146.79 input  -60.11 | X-H torsion
[ 7974 7965 7964 7962 ] final  121.29 input  175.53 | X-H torsion
[ 8008 7997 7996 7995 ] final  -84.80 input   59.86 | X-H torsion
[ 10167 10162 10161 10158 ] final  -57.02 input  -65.29 | X-H torsion
[ 10718 10713 10712 10709 ] final -101.60 input   66.30 | X-H torsion
[ 10763 10752 10751 10750 ] final  -39.39 input  -60.55 | X-H torsion
[ 11005 11000 10999 10996 ] final  -75.87 input  -57.11 | X-H torsion

> <Gold.Protein.ActiveResidues>
 VAL166  LYS551  ARG553  GLY616  TRP617  ASP618  TYR619  PRO620  LYS621  CYS622 
 ASP623  PHE694  ASN695  SER759  ASP760  ASP761  ALA762  ILE779  LEU786  VAL792 
 PHE793  MET794  SER795  GLU796  ALA797  LYS798  CYS799  TRP800  GLU811  SER814 

> <Gold.Protein.RotatedAtoms>
  151.1465  133.4936  159.2595 H   0  0  0  0  0  0  0  0  0  0  0  0  # atno 6907 bound_to 6896
  151.1599  135.0268  159.8715 H   0  0  0  0  0  0  0  0  0  0  0  0  # atno 6908 bound_to 6896
  152.5463  134.1340  159.8504 H   0  0  0  0  0  0  0  0  0  0  0  0  # atno 6909 bound_to 6896
  145.1210  139.3389  143.4714 H   0  0  0  0  0  0  0  0  0  0  0  0  # atno 7974 bound_to 7965
  154.6337  140.0600  156.9763 H   0  0  0  0  0  0  0  0  0  0  0  0  # atno 8008 bound_to 7997
  155.1625  140.3284  155.4390 H   0  0  0  0  0  0  0  0  0  0  0  0  # atno 8009 bound_to 7997
  156.2496  140.1928  156.6731 H   0  0  0  0  0  0  0  0  0  0  0  0  # atno 8010 bound_to 7997
  140.6283  143.2448  151.5308 H   0  0  0  0  0  0  0  0  0  0  0  0  # atno 10167 bound_to 10162
  156.0200  130.5381  150.6987 H   0  0  0  0  0  0  0  0  0  0  0  0  # atno 10718 bound_to 10713
  153.9286  135.6774  153.4746 H   0  0  0  0  0  0  0  0  0  0  0  0  # atno 10763 bound_to 10752
  153.0991  135.4836  154.8831 H   0  0  0  0  0  0  0  0  0  0  0  0  # atno 10764 bound_to 10752
  154.7440  135.3168  154.8635 H   0  0  0  0  0  0  0  0  0  0  0  0  # atno 10765 bound_to 10752
  141.1649  133.6962  156.7582 H   0  0  0  0  0  0  0  0  0  0  0  0  # atno 11005 bound_to 11000
  146.3521  140.1170  142.8601 LP  0  0  0  0  0  0  0  0  0  0  0  0  # atno 17320 bound_to 7965
  145.0740  140.9175  143.4865 LP  0  0  0  0  0  0  0  0  0  0  0  0  # atno 17321 bound_to 7965
  139.5500  144.2420  152.1513 LP  0  0  0  0  0  0  0  0  0  0  0  0  # atno 17342 bound_to 10162
  140.1657  144.4983  150.6607 LP  0  0  0  0  0  0  0  0  0  0  0  0  # atno 17343 bound_to 10162
  157.4652  131.0887  151.0702 LP  0  0  0  0  0  0  0  0  0  0  0  0  # atno 17370 bound_to 10713
  157.1179  130.6049  149.5497 LP  0  0  0  0  0  0  0  0  0  0  0  0  # atno 17371 bound_to 10713
  140.2553  134.8509  157.3707 LP  0  0  0  0  0  0  0  0  0  0  0  0  # atno 17394 bound_to 11000
  140.1663  134.4665  155.7861 LP  0  0  0  0  0  0  0  0  0  0  0  0  # atno 17395 bound_to 11000

$$$$
