AV-unprocessed.smi:268|AV-procd|sdf|2040|dock5
  -GOLD-   2262021253D 1   1.00000     0.00000
 Structure written by MMmdl.
 50 53  0  0  0  0  0  0  0  0  1 V2000
  151.5594  145.4062  159.2754 C   0  0  0  0  0  0  0  0  0  0  0  0
  150.5366  144.3772  159.7624 C   0  0  0  0  0  0  0  0  0  0  0  0
  151.1114  143.0838  159.6801 O   0  0  0  0  0  0  0  0  0  0  0  0
  151.0252  142.5280  158.3783 C   0  0  2  0  0  0  0  0  0  0  0  0
  149.6253  142.0269  157.9992 C   0  0  0  0  0  0  0  0  0  0  0  0
  150.2617  140.7207  157.4881 C   0  0  1  0  0  0  0  0  0  0  0  0
  150.5099  140.7369  156.0406 N   0  0  0  0  0  0  0  0  0  0  0  0
  149.4578  141.2820  155.1864 C   0  0  0  0  0  0  0  0  0  0  0  0
  151.1214  139.6602  155.4817 C   0  0  0  0  0  0  0  0  0  0  0  0
  152.3576  139.7861  154.9282 N   0  0  0  0  0  0  0  0  0  0  0  0
  152.9654  138.7267  154.3863 C   0  0  0  0  0  0  0  0  0  0  0  0
  152.5265  137.4700  154.2935 N   0  0  0  0  0  0  0  0  0  0  0  0
  151.2891  137.3361  154.8510 C   0  0  0  0  0  0  0  0  0  0  0  0
  150.5247  138.3683  155.4640 C   0  0  0  0  0  0  0  0  0  0  0  0
  149.3144  137.8563  155.9156 N   0  0  0  0  0  0  0  0  0  0  0  0
  149.3611  136.5936  155.5892 C   0  0  0  0  0  0  0  0  0  0  0  0
  150.5065  136.1971  154.9361 N   0  0  0  0  0  0  0  0  0  0  0  0
  150.8195  134.8599  154.4557 C   0  0  0  0  0  0  0  0  0  0  0  0
  150.9786  133.8174  155.5782 C   0  0  0  0  0  0  0  0  0  0  0  0
  152.1920  134.2091  156.4466 C   0  0  0  0  0  0  0  0  0  0  0  0
  152.4643  133.2581  157.4567 O   0  0  0  0  0  0  0  0  0  0  0  0
  149.6846  133.4773  156.3317 C   0  0  0  0  0  0  0  0  0  0  0  0
  149.8468  132.0616  156.0932 O   0  0  0  0  0  0  0  0  0  0  0  0
  150.9043  132.3445  155.1503 C   0  0  0  0  0  0  0  0  0  0  0  0
  151.5025  141.0733  158.3355 C   0  0  0  0  0  0  0  0  0  0  0  0
  151.1495  146.4152  159.3225 H   0  0  0  0  0  0  0  0  0  0  0  0
  151.8499  145.2107  158.2428 H   0  0  0  0  0  0  0  0  0  0  0  0
  152.4607  145.3817  159.8883 H   0  0  0  0  0  0  0  0  0  0  0  0
  150.2474  144.5997  160.7904 H   0  0  0  0  0  0  0  0  0  0  0  0
  149.6368  144.4276  159.1476 H   0  0  0  0  0  0  0  0  0  0  0  0
  151.4917  143.1329  157.5983 H   0  0  0  0  0  0  0  0  0  0  0  0
  148.9881  141.8621  158.8695 H   0  0  0  0  0  0  0  0  0  0  0  0
  149.1209  142.6403  157.2521 H   0  0  0  0  0  0  0  0  0  0  0  0
  149.7397  139.8281  157.8358 H   0  0  0  0  0  0  0  0  0  0  0  0
  149.8267  142.1616  154.6583 H   0  0  0  0  0  0  0  0  0  0  0  0
  148.5897  141.5820  155.7739 H   0  0  0  0  0  0  0  0  0  0  0  0
  149.1122  140.5593  154.4448 H   0  0  0  0  0  0  0  0  0  0  0  0
  153.9430  138.9133  153.9671 H   0  0  0  0  0  0  0  0  0  0  0  0
  148.5526  135.9144  155.8164 H   0  0  0  0  0  0  0  0  0  0  0  0
  150.0413  134.5523  153.7561 H   0  0  0  0  0  0  0  0  0  0  0  0
  151.7340  134.9284  153.8650 H   0  0  0  0  0  0  0  0  0  0  0  0
  153.0951  134.3016  155.8432 H   0  0  0  0  0  0  0  0  0  0  0  0
  152.0307  135.1750  156.9260 H   0  0  0  0  0  0  0  0  0  0  0  0
  152.5982  132.4161  157.0493 H   0  0  0  0  0  0  0  0  0  0  0  0
  149.6997  133.7296  157.3926 H   0  0  0  0  0  0  0  0  0  0  0  0
  148.7811  133.8643  155.8582 H   0  0  0  0  0  0  0  0  0  0  0  0
  150.5723  132.1939  154.1226 H   0  0  0  0  0  0  0  0  0  0  0  0
  151.8112  131.7734  155.3521 H   0  0  0  0  0  0  0  0  0  0  0  0
  152.4722  140.9398  157.8552 H   0  0  0  0  0  0  0  0  0  0  0  0
  151.4809  140.5948  159.3159 H   0  0  0  0  0  0  0  0  0  0  0  0
  1  2  1  0  0  0  0
  1 26  1  0  0  0  0
  1 27  1  0  0  0  0
  1 28  1  0  0  0  0
  2  3  1  0  0  0  0
  2 29  1  0  0  0  0
  2 30  1  0  0  0  0
  3  4  1  0  0  0  0
  4 25  1  0  0  0  0
  4  5  1  0  0  0  0
  4 31  1  0  0  0  0
  5  6  1  0  0  0  0
  5 32  1  0  0  0  0
  5 33  1  0  0  0  0
  6  7  1  0  0  0  0
  6 25  1  0  0  0  0
  6 34  1  0  0  0  0
  7  8  1  0  0  0  0
  7  9  1  0  0  0  0
  8 35  1  0  0  0  0
  8 36  1  0  0  0  0
  8 37  1  0  0  0  0
  9 14  1  0  0  0  0
  9 10  2  0  0  0  0
 10 11  1  0  0  0  0
 11 12  2  0  0  0  0
 11 38  1  0  0  0  0
 12 13  1  0  0  0  0
 13 17  1  0  0  0  0
 13 14  2  0  0  0  0
 14 15  1  0  0  0  0
 15 16  2  0  0  0  0
 16 17  1  0  0  0  0
 16 39  1  0  0  0  0
 17 18  1  0  0  0  0
 18 19  1  0  0  0  0
 18 40  1  0  0  0  0
 18 41  1  0  0  0  0
 19 24  1  0  0  0  0
 19 20  1  0  0  0  0
 19 22  1  0  0  0  0
 20 21  1  0  0  0  0
 20 42  1  0  0  0  0
 20 43  1  0  0  0  0
 21 44  1  0  0  0  0
 22 23  1  0  0  0  0
 22 45  1  0  0  0  0
 22 46  1  0  0  0  0
 23 24  1  0  0  0  0
 24 47  1  0  0  0  0
 24 48  1  0  0  0  0
 25 49  1  0  0  0  0
 25 50  1  0  0  0  0
M  END
> <s_m_source_file>
AV-unprocessed.smi

> <i_m_source_file_index>
268

> <i_lp_mmshare_version>
43012

> <i_f3d_flags>
0

> <s_epik_input>
W0NIM11bQ0gyXU9bQ0BASF0xW0NIMl1bQ0BIXShbQ0gyXTEpTihbQ0gzXSljKG5bY0hdbjIpYyhjMjMpbltjSF1uM1tDSDJdQzQoW0NIMl1bT0hdKVtDSDJdT1tDSDJdNA==

> <s_epik_cmdline>
J2VwaWtfcHl0aG9uJywgJy1waCcsICc3LjAnLCAnLXRuJywgJzgnLCAnLW1hJywgJzIwMCcsICctbWV0YWxfYmluZGluZycsICctaW1hZScsICc8aW5maWxlLm1hZT4nLCAnLW9tYWUnLCAnPG91dGZpbGUubWFlPic=

> <r_lp_tautomer_probability>
1

> <r_epik_Ionization_Penalty>
0.00205824

> <r_epik_Ionization_Penalty_Charging>
0

> <r_epik_Ionization_Penalty_Neutral>
0.00205824

> <r_epik_State_Penalty>
0.00125218

> <r_epik_Charging_Adjusted_Penalty>
0.00125218

> <i_epik_Tot_Q>
0

> <i_epik_Tot_abs_Q>
0

> <r_epik_Metal_State_Penalty>
-0

> <b_epik_Metal_Only>
0

> <s_lp_Force_Field>
OPLS_2005

> <r_lp_Energy>
42.2334

> <b_lp_Chiralities_Consistent>
1

> <s_lp_Variant>
AV-unprocessed.smi:268-1

> <Gold.Version>
5.8.1

> <Gold.Id.Protein>
6NUR|6NUR_protein|mol2

> <Gold.PLP.Fitness>
45.8088

> <Gold.PLP.PLP>
-39.6262

> <Gold.PLP.part.hbond>
-3.0000

> <Gold.PLP.part.metal>
0.0000

> <Gold.PLP.part.buried>
-7.8331

> <Gold.PLP.part.nonpolar>
-29.7968

> <Gold.PLP.part.repulsive>
0.2375

> <Gold.PLP.ligand.clash>
0.0000

> <Gold.PLP.ligand.torsion>
1.0699

> <Gold.PLP.Chemscore.Hbond>
2.3312

> <Gold.PLP.Chemscore.CHOScore>
0.0000

> <Gold.PLP.Chemscore.Metal>
0.0000

> <Gold.Chemscore.Hbonds>
donor molecule, donor type, donor heavy atom, donor atom, acceptor molecule, acceptor atom, score
      P1  H  6896  6907       L1    21  0.54
      P1  H  7989  7998       L1    10  0.41
      P1  H  7997  8008       L1    10  0.04
      P1  H 10752 10765       L1    12  0.64

> <Gold.PLP.Chemscore.Internal.Correction>
1.3288

> <Gold.Rescore>
     Score         DG    S(hbond)    S(metal)    S(lipo)     H(rot)  DE(clash)    DE(int)     intcor
     11.98     -13.08       1.75        0.00      83.99       3.15       0.04       1.07       ----

> <Gold.Chemscore.Fitness>
11.9757

> <Gold.Chemscore.DG>
-13.0804

> <Gold.Chemscore.ZeroCoef>
-5.4800

> <Gold.Chemscore.Hbond>
1.7510

> <Gold.Chemscore.Metal>
0.0000

> <Gold.Chemscore.Lipo>
83.9902

> <Gold.Chemscore.Internal_Hbond>
0.0000

> <Gold.Chemscore.DEClash>
0.0382

> <Gold.Chemscore.DEInternal>
1.0665

> <Gold.Chemscore.Rot>
3.1542

> <Gold.Chemscore.Internal.Correction>
   9.000000E+99

> <Gold.Chemscore.Hbonds>
donor molecule, donor type, donor heavy atom, donor atom, acceptor molecule, acceptor atom, score
      P1  H  6896  6907       L1    21  0.49
      P1  H  7989  7998       L1    10  0.02
      P1  H 10752 10765       L1    12  0.16

> <Gold.Chemscore.Hbond.Weighted>
-5.8483

> <Gold.Chemscore.Metal.Weighted>
-0.0000

> <Gold.Chemscore.Lipo.Weighted>
-9.8269

> <Gold.Chemscore.Internal_Hbond.Weighted>
0.0000

> <Gold.Chemscore.DEClash.Weighted>
0.0382

> <Gold.Chemscore.DEInternal.Weighted>
1.0665

> <Gold.Chemscore.Rot.Weighted>
8.0748

> <Gold.Chemscore.Internal.Correction.Weighted>
   9.000000E+99

> <Gold.Protein.RotatedTorsions>
[ 6907 6896 6895 6894 ] final -170.11 input  -60.11 | X-H torsion
[ 7974 7965 7964 7962 ] final  -46.22 input  175.53 | X-H torsion
[ 8008 7997 7996 7995 ] final  -35.55 input   59.86 | X-H torsion
[ 10167 10162 10161 10158 ] final  -83.84 input  -65.29 | X-H torsion
[ 10718 10713 10712 10709 ] final  111.24 input   66.30 | X-H torsion
[ 10763 10752 10751 10750 ] final  154.56 input  -60.55 | X-H torsion
[ 11005 11000 10999 10996 ] final   20.47 input  -57.11 | X-H torsion

> <Gold.Protein.ActiveResidues>
 VAL166  LYS551  ARG553  GLY616  TRP617  ASP618  TYR619  PRO620  LYS621  CYS622 
 ASP623  PHE694  ASN695  SER759  ASP760  ASP761  ALA762  ILE779  LEU786  VAL792 
 PHE793  MET794  SER795  GLU796  ALA797  LYS798  CYS799  TRP800  GLU811  SER814 

> <Gold.Protein.RotatedAtoms>
  151.5025  133.3501  159.2871 H   0  0  0  0  0  0  0  0  0  0  0  0  # atno 6907 bound_to 6896
  150.8764  134.8149  159.7203 H   0  0  0  0  0  0  0  0  0  0  0  0  # atno 6908 bound_to 6896
  152.4733  134.4917  159.9749 H   0  0  0  0  0  0  0  0  0  0  0  0  # atno 6909 bound_to 6896
  145.9741  140.7352  142.9396 H   0  0  0  0  0  0  0  0  0  0  0  0  # atno 7974 bound_to 7965
  154.4093  140.1654  156.2230 H   0  0  0  0  0  0  0  0  0  0  0  0  # atno 8008 bound_to 7997
  155.9347  140.3412  155.6255 H   0  0  0  0  0  0  0  0  0  0  0  0  # atno 8009 bound_to 7997
  155.7063  140.0751  157.2380 H   0  0  0  0  0  0  0  0  0  0  0  0  # atno 8010 bound_to 7997
  140.4189  143.2592  151.8917 H   0  0  0  0  0  0  0  0  0  0  0  0  # atno 10167 bound_to 10162
  157.6454  131.0947  150.6720 H   0  0  0  0  0  0  0  0  0  0  0  0  # atno 10718 bound_to 10713
  154.1542  135.2813  155.3127 H   0  0  0  0  0  0  0  0  0  0  0  0  # atno 10763 bound_to 10752
  154.6195  135.5472  153.7563 H   0  0  0  0  0  0  0  0  0  0  0  0  # atno 10764 bound_to 10752
  153.0212  135.6435  154.1686 H   0  0  0  0  0  0  0  0  0  0  0  0  # atno 10765 bound_to 10752
  140.4022  134.1706  155.7664 H   0  0  0  0  0  0  0  0  0  0  0  0  # atno 11005 bound_to 11000
  144.6844  140.2799  143.7294 LP  0  0  0  0  0  0  0  0  0  0  0  0  # atno 17320 bound_to 7965
  145.7863  139.1910  143.2128 LP  0  0  0  0  0  0  0  0  0  0  0  0  # atno 17321 bound_to 7965
  139.4782  144.5458  151.8459 LP  0  0  0  0  0  0  0  0  0  0  0  0  # atno 17342 bound_to 10162
  140.4556  144.1794  150.5901 LP  0  0  0  0  0  0  0  0  0  0  0  0  # atno 17343 bound_to 10162
  156.7038  130.4631  149.5566 LP  0  0  0  0  0  0  0  0  0  0  0  0  # atno 17370 bound_to 10713
  156.1777  130.6478  151.0914 LP  0  0  0  0  0  0  0  0  0  0  0  0  # atno 17371 bound_to 10713
  141.1852  133.8327  157.1112 LP  0  0  0  0  0  0  0  0  0  0  0  0  # atno 17394 bound_to 11000
  140.0328  134.9893  157.0813 LP  0  0  0  0  0  0  0  0  0  0  0  0  # atno 17395 bound_to 11000

$$$$
