AV-unprocessed.smi:1226|AV-procd|sdf|5144|dock2
  -GOLD-   22720 4213D 1   1.00000     0.00000
 Structure written by MMmdl.
 37 38  0  0  0  0  0  0  0  0  1 V2000
  152.5993  139.1013  156.2946 C   0  0  0  0  0  0  0  0  0  0  0  0
  151.4778  140.0806  156.2251 C   0  0  0  0  0  0  0  0  0  0  0  0
  150.6520  140.1848  155.1808 N   0  0  0  0  0  0  0  0  0  0  0  0
  149.6827  141.1773  155.3571 C   0  0  0  0  0  0  0  0  0  0  0  0
  148.6666  141.4275  154.2845 C   0  0  0  0  0  0  0  0  0  0  0  0
  147.2479  141.0294  154.7247 C   0  0  0  0  0  0  0  0  0  0  0  0
  146.5590  140.2618  153.6938 N   0  0  0  0  0  0  0  0  0  0  0  0
  146.9954  139.1035  153.1803 C   0  0  0  0  0  0  0  0  0  0  0  0
  148.0368  138.5444  153.5241 O   0  0  0  0  0  0  0  0  0  0  0  0
  146.1645  138.6315  152.2412 N   0  0  0  0  0  0  0  0  0  0  0  0
  146.3750  137.4050  151.4800 C   0  0  0  0  0  0  0  0  0  0  0  0
  145.7125  136.1875  152.1489 C   0  0  2  0  0  0  0  0  0  0  0  0
  145.9534  134.8538  151.4395 C   0  0  0  0  0  0  0  0  0  0  0  0
  144.7317  134.0238  151.8052 C   0  0  0  0  0  0  0  0  0  0  0  0
  143.7628  135.0321  152.4287 C   0  0  0  0  0  0  0  0  0  0  0  0
  144.3004  136.3069  152.1076 O   0  0  0  0  0  0  0  0  0  0  0  0
  149.7896  141.8300  156.5600 C   0  0  0  0  0  0  0  0  0  0  0  0
  151.1128  141.2196  157.5151 S   0  0  0  0  0  0  0  0  0  0  0  0
  152.5225  138.3719  155.4876 H   0  0  0  0  0  0  0  0  0  0  0  0
  152.5737  138.5715  157.2469 H   0  0  0  0  0  0  0  0  0  0  0  0
  153.5531  139.6213  156.2070 H   0  0  0  0  0  0  0  0  0  0  0  0
  148.6761  142.4814  154.0035 H   0  0  0  0  0  0  0  0  0  0  0  0
  148.9416  140.8769  153.3839 H   0  0  0  0  0  0  0  0  0  0  0  0
  147.2802  140.4592  155.6548 H   0  0  0  0  0  0  0  0  0  0  0  0
  146.6592  141.9240  154.9294 H   0  0  0  0  0  0  0  0  0  0  0  0
  145.6911  140.6420  153.3454 H   0  0  0  0  0  0  0  0  0  0  0  0
  145.3323  139.1619  152.0289 H   0  0  0  0  0  0  0  0  0  0  0  0
  146.0001  137.5272  150.4625 H   0  0  0  0  0  0  0  0  0  0  0  0
  147.4496  137.2423  151.3946 H   0  0  0  0  0  0  0  0  0  0  0  0
  146.0218  136.1123  153.1932 H   0  0  0  0  0  0  0  0  0  0  0  0
  145.9843  134.9993  150.3589 H   0  0  0  0  0  0  0  0  0  0  0  0
  146.8903  134.3848  151.7421 H   0  0  0  0  0  0  0  0  0  0  0  0
  144.3049  133.5568  150.9168 H   0  0  0  0  0  0  0  0  0  0  0  0
  144.9774  133.2327  152.5145 H   0  0  0  0  0  0  0  0  0  0  0  0
  142.7455  134.9258  152.0511 H   0  0  0  0  0  0  0  0  0  0  0  0
  143.7369  134.9181  153.5134 H   0  0  0  0  0  0  0  0  0  0  0  0
  149.1721  142.6296  156.9417 H   0  0  0  0  0  0  0  0  0  0  0  0
  1  2  1  0  0  0  0
  1 19  1  0  0  0  0
  1 20  1  0  0  0  0
  1 21  1  0  0  0  0
  2 18  1  0  0  0  0
  2  3  2  0  0  0  0
  3  4  1  0  0  0  0
  4  5  1  0  0  0  0
  4 17  2  0  0  0  0
  5  6  1  0  0  0  0
  5 22  1  0  0  0  0
  5 23  1  0  0  0  0
  6  7  1  0  0  0  0
  6 24  1  0  0  0  0
  6 25  1  0  0  0  0
  7  8  1  0  0  0  0
  7 26  1  0  0  0  0
  8  9  2  0  0  0  0
  8 10  1  0  0  0  0
 10 11  1  0  0  0  0
 10 27  1  0  0  0  0
 11 12  1  0  0  0  0
 11 28  1  0  0  0  0
 11 29  1  0  0  0  0
 12 16  1  0  0  0  0
 12 13  1  0  0  0  0
 12 30  1  0  0  0  0
 13 14  1  0  0  0  0
 13 31  1  0  0  0  0
 13 32  1  0  0  0  0
 14 15  1  0  0  0  0
 14 33  1  0  0  0  0
 14 34  1  0  0  0  0
 15 16  1  0  0  0  0
 15 35  1  0  0  0  0
 15 36  1  0  0  0  0
 17 18  1  0  0  0  0
 17 37  1  0  0  0  0
M  END
> <s_m_source_file>
AV-unprocessed.smi

> <i_m_source_file_index>
1226

> <i_lp_mmshare_version>
43012

> <i_f3d_flags>
0

> <s_epik_input>
W0NIM11jMW5jKFtjSF1zMSlbQ0gyXVtDSDJdW05IXUMoPU8pW05IXVtDSDJdW0NAQEhdMltDSDJdW0NIMl1bQ0gyXU8y

> <s_epik_cmdline>
J2VwaWtfcHl0aG9uJywgJy1waCcsICc3LjAnLCAnLXRuJywgJzgnLCAnLW1hJywgJzIwMCcsICctbWV0YWxfYmluZGluZycsICctaW1hZScsICc8aW5maWxlLm1hZT4nLCAnLW9tYWUnLCAnPG91dGZpbGUubWFlPic=

> <r_epik_Ionization_Penalty>
0.00199722

> <r_epik_Ionization_Penalty_Charging>
0

> <r_epik_Ionization_Penalty_Neutral>
0.00199722

> <r_epik_State_Penalty>
0.00132705

> <r_epik_Charging_Adjusted_Penalty>
0.00132705

> <i_epik_Tot_Q>
0

> <i_epik_Tot_abs_Q>
0

> <r_epik_Metal_State_Penalty>
-0

> <b_epik_Metal_Only>
0

> <s_lp_Force_Field>
OPLS_2005

> <r_lp_Energy>
9.02747

> <b_lp_Chiralities_Consistent>
1

> <s_lp_Variant>
AV-unprocessed.smi:1226-1

> <Gold.Version>
5.8.1

> <Gold.Id.Protein>
6NUR|6NUR_protein|mol2

> <Gold.PLP.Fitness>
43.8137

> <Gold.PLP.PLP>
-33.3108

> <Gold.PLP.part.hbond>
-4.0000

> <Gold.PLP.part.metal>
0.0000

> <Gold.PLP.part.buried>
-0.5503

> <Gold.PLP.part.nonpolar>
-31.8414

> <Gold.PLP.part.repulsive>
3.2586

> <Gold.PLP.ligand.clash>
0.0000

> <Gold.PLP.ligand.torsion>
0.5861

> <Gold.PLP.Chemscore.Hbond>
2.9357

> <Gold.PLP.Chemscore.CHOScore>
0.9430

> <Gold.PLP.Chemscore.Metal>
0.0000

> <Gold.Chemscore.Hbonds>
donor molecule, donor type, donor heavy atom, donor atom, acceptor molecule, acceptor atom, score
      L1  H     7    26       P1 10175  0.60
      L1  H    10    27       P1 10175  0.73
      P1  H  7989  7998       L1     3  0.93
      L1  C    17    37       P1  8028  0.82

> <Gold.PLP.Chemscore.Internal.Correction>
0.0389

> <Gold.Rescore>
     Score         DG    S(hbond)    S(metal)    S(lipo)     H(rot)  DE(clash)    DE(int)     intcor
     12.72     -16.84       2.26        0.00      70.72       1.75       2.08       2.04       ----

> <Gold.Chemscore.Fitness>
12.7196

> <Gold.Chemscore.DG>
-16.8353

> <Gold.Chemscore.ZeroCoef>
-5.4800

> <Gold.Chemscore.Hbond>
2.2630

> <Gold.Chemscore.Metal>
0.0000

> <Gold.Chemscore.Lipo>
70.7155

> <Gold.Chemscore.Internal_Hbond>
0.0000

> <Gold.Chemscore.DEClash>
2.0755

> <Gold.Chemscore.DEInternal>
2.0402

> <Gold.Chemscore.Rot>
1.7487

> <Gold.Chemscore.Internal.Correction>
   9.000000E+99

> <Gold.Chemscore.Hbonds>
donor molecule, donor type, donor heavy atom, donor atom, acceptor molecule, acceptor atom, score
      L1  H     7    26       P1 10175  0.52
      L1  H    10    27       P1 10175  0.71
      P1  H  7989  7998       L1     3  0.22

> <Gold.Chemscore.Hbond.Weighted>
-7.5584

> <Gold.Chemscore.Metal.Weighted>
-0.0000

> <Gold.Chemscore.Lipo.Weighted>
-8.2737

> <Gold.Chemscore.Internal_Hbond.Weighted>
0.0000

> <Gold.Chemscore.DEClash.Weighted>
2.0755

> <Gold.Chemscore.DEInternal.Weighted>
2.0402

> <Gold.Chemscore.Rot.Weighted>
4.4768

> <Gold.Chemscore.Internal.Correction.Weighted>
   9.000000E+99

> <Gold.Protein.RotatedTorsions>
[ 6907 6896 6895 6894 ] final   -6.93 input  -60.11 | X-H torsion
[ 7974 7965 7964 7962 ] final  -16.81 input  175.53 | X-H torsion
[ 8008 7997 7996 7995 ] final  -59.56 input   59.86 | X-H torsion
[ 10167 10162 10161 10158 ] final  -93.30 input  -65.29 | X-H torsion
[ 10718 10713 10712 10709 ] final -132.01 input   66.30 | X-H torsion
[ 10763 10752 10751 10750 ] final -122.90 input  -60.55 | X-H torsion
[ 11005 11000 10999 10996 ] final  171.14 input  -57.11 | X-H torsion

> <Gold.Protein.ActiveResidues>
 VAL166  LYS551  ARG553  GLY616  TRP617  ASP618  TYR619  PRO620  LYS621  CYS622 
 ASP623  PHE694  ASN695  SER759  ASP760  ASP761  ALA762  ILE779  LEU786  VAL792 
 PHE793  MET794  SER795  GLU796  ALA797  LYS798  CYS799  TRP800  GLU811  SER814 

> <Gold.Protein.RotatedAtoms>
  151.4576  135.1035  159.9715 H   0  0  0  0  0  0  0  0  0  0  0  0  # atno 6907 bound_to 6896
  152.4865  133.8382  159.7149 H   0  0  0  0  0  0  0  0  0  0  0  0  # atno 6908 bound_to 6896
  150.8979  133.7097  159.2914 H   0  0  0  0  0  0  0  0  0  0  0  0  # atno 6909 bound_to 6896
  146.1970  140.3689  142.8437 H   0  0  0  0  0  0  0  0  0  0  0  0  # atno 7974 bound_to 7965
  154.4358  140.1059  156.6134 H   0  0  0  0  0  0  0  0  0  0  0  0  # atno 8008 bound_to 7997
  155.5784  140.3490  155.4515 H   0  0  0  0  0  0  0  0  0  0  0  0  # atno 8009 bound_to 7997
  156.0337  140.1266  157.0220 H   0  0  0  0  0  0  0  0  0  0  0  0  # atno 8010 bound_to 7997
  140.3260  143.3021  151.9994 H   0  0  0  0  0  0  0  0  0  0  0  0  # atno 10167 bound_to 10162
  156.2302  130.7033  151.0850 H   0  0  0  0  0  0  0  0  0  0  0  0  # atno 10718 bound_to 10713
  154.8698  135.4117  154.2857 H   0  0  0  0  0  0  0  0  0  0  0  0  # atno 10763 bound_to 10752
  153.3742  135.7009  153.6620 H   0  0  0  0  0  0  0  0  0  0  0  0  # atno 10764 bound_to 10752
  153.5469  135.3636  155.2714 H   0  0  0  0  0  0  0  0  0  0  0  0  # atno 10765 bound_to 10752
  140.3159  134.7478  157.4027 H   0  0  0  0  0  0  0  0  0  0  0  0  # atno 11005 bound_to 11000
  144.8602  140.7129  143.6112 LP  0  0  0  0  0  0  0  0  0  0  0  0  # atno 17320 bound_to 7965
  145.3609  139.1682  143.4384 LP  0  0  0  0  0  0  0  0  0  0  0  0  # atno 17321 bound_to 7965
  139.4865  144.6273  151.7140 LP  0  0  0  0  0  0  0  0  0  0  0  0  # atno 17342 bound_to 10162
  140.5440  144.0533  150.6099 LP  0  0  0  0  0  0  0  0  0  0  0  0  # atno 17343 bound_to 10162
  157.7129  131.0725  150.6434 LP  0  0  0  0  0  0  0  0  0  0  0  0  # atno 17370 bound_to 10713
  156.6501  130.4483  149.5722 LP  0  0  0  0  0  0  0  0  0  0  0  0  # atno 17371 bound_to 10713
  140.0984  134.5506  155.8376 LP  0  0  0  0  0  0  0  0  0  0  0  0  # atno 17394 bound_to 11000
  141.2098  133.6687  156.6462 LP  0  0  0  0  0  0  0  0  0  0  0  0  # atno 17395 bound_to 11000

$$$$
