AV-unprocessed.smi:265|AV-procd|sdf|2023|dock6
  -GOLD-   2262021223D 1   1.00000     0.00000
 Structure written by MMmdl.
 52 56  0  0  0  0  0  0  0  0  1 V2000
  146.5166  129.2230  152.0438 C   0  0  0  0  0  0  0  0  0  0  0  0
  145.6439  130.4585  152.3156 C   0  0  2  0  0  0  0  0  0  0  0  0
  145.0825  130.8697  151.0714 O   0  0  0  0  0  0  0  0  0  0  0  0
  144.9075  132.2752  151.0881 C   0  0  0  0  0  0  0  0  0  0  0  0
  146.1695  132.7516  151.7904 C   0  0  0  0  0  0  0  0  0  0  0  0
  146.3644  131.7117  152.8901 C   0  0  1  0  0  0  0  0  0  0  0  0
  145.6356  132.1423  154.0281 O   0  0  0  0  0  0  0  0  0  0  0  0
  147.8451  131.5218  153.3138 C   0  0  0  0  0  0  0  0  0  0  0  0
  148.3854  132.6453  154.0658 N   0  0  0  0  0  0  0  0  0  0  0  0
  148.2304  133.9811  153.7699 C   0  0  0  0  0  0  0  0  0  0  0  0
  148.8133  134.8062  154.5962 N   0  0  0  0  0  0  0  0  0  0  0  0
  149.4030  133.9779  155.5440 C   0  0  0  0  0  0  0  0  0  0  0  0
  150.1868  134.2080  156.7100 C   0  0  0  0  0  0  0  0  0  0  0  0
  150.5056  135.4538  157.1437 N   0  0  0  0  0  0  0  0  0  0  0  0
  149.8336  135.9464  158.3459 C   0  0  0  0  0  0  0  0  0  0  0  0
  150.5730  137.1641  158.9209 C   0  0  0  0  0  0  0  0  0  0  0  0
  150.7679  138.2639  157.8648 C   0  0  2  0  0  0  0  0  0  0  0  0
  149.5148  138.8400  157.5199 O   0  0  0  0  0  0  0  0  0  0  0  0
  149.6212  139.9905  156.6800 C   0  0  0  0  0  0  0  0  0  0  0  0
  150.5403  139.7474  155.4686 C   0  0  0  0  0  0  0  0  0  0  0  0
  150.5051  140.5143  154.5091 O   0  0  0  0  0  0  0  0  0  0  0  0
  151.3941  138.7123  155.5196 N   0  0  0  0  0  0  0  0  0  0  0  0
  151.3969  137.7006  156.5713 C   0  0  2  0  0  0  0  0  0  0  0  0
  150.6522  136.4429  156.0778 C   0  0  0  0  0  0  0  0  0  0  0  0
  150.6154  133.1167  157.3996 N   0  0  0  0  0  0  0  0  0  0  0  0
  150.2927  131.8874  156.9875 C   0  0  0  0  0  0  0  0  0  0  0  0
  149.5665  131.5268  155.9278 N   0  0  0  0  0  0  0  0  0  0  0  0
  149.1429  132.6150  155.2241 C   0  0  0  0  0  0  0  0  0  0  0  0
  151.4073  139.0415  158.2878 H   0  0  0  0  0  0  0  0  0  0  0  0
  152.4343  137.4319  156.7754 H   0  0  0  0  0  0  0  0  0  0  0  0
  146.9641  128.8399  152.9609 H   0  0  0  0  0  0  0  0  0  0  0  0
  147.3179  129.4458  151.3390 H   0  0  0  0  0  0  0  0  0  0  0  0
  145.9188  128.4192  151.6136 H   0  0  0  0  0  0  0  0  0  0  0  0
  144.8201  130.1607  152.9671 H   0  0  0  0  0  0  0  0  0  0  0  0
  144.8048  132.6806  150.0814 H   0  0  0  0  0  0  0  0  0  0  0  0
  144.0146  132.5317  151.6604 H   0  0  0  0  0  0  0  0  0  0  0  0
  146.9962  132.7065  151.0806 H   0  0  0  0  0  0  0  0  0  0  0  0
  146.1000  133.7772  152.1559 H   0  0  0  0  0  0  0  0  0  0  0  0
  144.7232  131.9368  153.8932 H   0  0  0  0  0  0  0  0  0  0  0  0
  147.9494  130.6272  153.9289 H   0  0  0  0  0  0  0  0  0  0  0  0
  148.4778  131.3704  152.4386 H   0  0  0  0  0  0  0  0  0  0  0  0
  147.6729  134.3264  152.9111 H   0  0  0  0  0  0  0  0  0  0  0  0
  148.8056  136.2167  158.1001 H   0  0  0  0  0  0  0  0  0  0  0  0
  149.7889  135.1610  159.1016 H   0  0  0  0  0  0  0  0  0  0  0  0
  150.0331  137.5599  159.7815 H   0  0  0  0  0  0  0  0  0  0  0  0
  151.5491  136.8460  159.2893 H   0  0  0  0  0  0  0  0  0  0  0  0
  148.6255  140.2738  156.3378 H   0  0  0  0  0  0  0  0  0  0  0  0
  150.0145  140.8270  157.2589 H   0  0  0  0  0  0  0  0  0  0  0  0
  152.0243  138.5745  154.7429 H   0  0  0  0  0  0  0  0  0  0  0  0
  151.1787  136.0263  155.2194 H   0  0  0  0  0  0  0  0  0  0  0  0
  149.6552  136.7132  155.7258 H   0  0  0  0  0  0  0  0  0  0  0  0
  150.6700  131.0767  157.5933 H   0  0  0  0  0  0  0  0  0  0  0  0
  1  2  1  0  0  0  0
  1 31  1  0  0  0  0
  1 32  1  0  0  0  0
  1 33  1  0  0  0  0
  2  6  1  0  0  0  0
  2  3  1  0  0  0  0
  2 34  1  0  0  0  0
  3  4  1  0  0  0  0
  4  5  1  0  0  0  0
  4 35  1  0  0  0  0
  4 36  1  0  0  0  0
  5  6  1  0  0  0  0
  5 37  1  0  0  0  0
  5 38  1  0  0  0  0
  6  7  1  0  0  0  0
  6  8  1  0  0  0  0
  7 39  1  0  0  0  0
  8  9  1  0  0  0  0
  8 40  1  0  0  0  0
  8 41  1  0  0  0  0
  9 28  1  0  0  0  0
  9 10  1  0  0  0  0
 10 11  2  0  0  0  0
 10 42  1  0  0  0  0
 11 12  1  0  0  0  0
 12 28  2  0  0  0  0
 12 13  1  0  0  0  0
 13 14  1  0  0  0  0
 13 25  2  0  0  0  0
 14 24  1  0  0  0  0
 14 15  1  0  0  0  0
 15 16  1  0  0  0  0
 15 43  1  0  0  0  0
 15 44  1  0  0  0  0
 16 17  1  0  0  0  0
 16 45  1  0  0  0  0
 16 46  1  0  0  0  0
 17 29  1  0  0  0  0
 17 23  1  0  0  0  0
 17 18  1  0  0  0  0
 18 19  1  0  0  0  0
 19 20  1  0  0  0  0
 19 47  1  0  0  0  0
 19 48  1  0  0  0  0
 20 21  2  0  0  0  0
 20 22  1  0  0  0  0
 22 23  1  0  0  0  0
 22 49  1  0  0  0  0
 23 30  1  0  0  0  0
 23 24  1  0  0  0  0
 24 50  1  0  0  0  0
 24 51  1  0  0  0  0
 25 26  1  0  0  0  0
 26 27  2  0  0  0  0
 26 52  1  0  0  0  0
 27 28  1  0  0  0  0
M  END
> <s_m_source_file>
AV-unprocessed.smi

> <i_m_source_file_index>
265

> <i_lp_mmshare_version>
43012

> <i_f3d_flags>
0

> <s_epik_input>
W0NIMl0xW0NIMl1PW0NAQEhdKFtDSDNdKVtDQEBdMShbT0hdKVtDSDJdbihbY0hdbjIpYyhjMjMpbltjSF1uYzNOKFtDSDJdW0NIMl00KVtDSDJdW0NAQEhdKFtDQEhdNDUpW05IXUMoPU8pW0NIMl1PNQ==

> <s_epik_cmdline>
J2VwaWtfcHl0aG9uJywgJy1waCcsICc3LjAnLCAnLXRuJywgJzgnLCAnLW1hJywgJzIwMCcsICctbWV0YWxfYmluZGluZycsICctaW1hZScsICc8aW5maWxlLm1hZT4nLCAnLW9tYWUnLCAnPG91dGZpbGUubWFlPic=

> <r_lp_tautomer_probability>
1

> <r_epik_Ionization_Penalty>
0.00221504

> <r_epik_Ionization_Penalty_Charging>
0

> <r_epik_Ionization_Penalty_Neutral>
0.00221504

> <r_epik_State_Penalty>
-0

> <r_epik_Charging_Adjusted_Penalty>
0

> <i_epik_Tot_Q>
0

> <i_epik_Tot_abs_Q>
0

> <r_epik_Metal_State_Penalty>
-0

> <b_epik_Metal_Only>
0

> <s_lp_Force_Field>
OPLS_2005

> <r_lp_Energy>
44.3548

> <b_lp_Chiralities_Consistent>
1

> <s_lp_Variant>
AV-unprocessed.smi:265-9

> <Gold.Version>
5.8.1

> <Gold.Id.Protein>
6NUR|6NUR_protein|mol2

> <Gold.PLP.Fitness>
37.4072

> <Gold.PLP.PLP>
-29.9990

> <Gold.PLP.part.hbond>
-3.0533

> <Gold.PLP.part.metal>
0.0000

> <Gold.PLP.part.buried>
-2.6069

> <Gold.PLP.part.nonpolar>
-26.4713

> <Gold.PLP.part.repulsive>
0.9723

> <Gold.PLP.ligand.clash>
0.0000

> <Gold.PLP.ligand.torsion>
0.7950

> <Gold.PLP.Chemscore.Hbond>
2.3121

> <Gold.PLP.Chemscore.CHOScore>
0.5683

> <Gold.PLP.Chemscore.Metal>
0.0000

> <Gold.Chemscore.Hbonds>
donor molecule, donor type, donor heavy atom, donor atom, acceptor molecule, acceptor atom, score
      L1  H     7    39       P1 10957  0.27
      P1  H  6896  6908       L1    25  1.00
      P1  H  7989  7998       L1    21  0.99
      L1  C    10    42       P1  7948  0.56

> <Gold.PLP.Chemscore.Internal.Correction>
0.3570

> <Gold.Rescore>
     Score         DG    S(hbond)    S(metal)    S(lipo)     H(rot)  DE(clash)    DE(int)     intcor
     11.54     -13.72       1.87        0.00      66.26       2.25       0.09       2.10       ----

> <Gold.Chemscore.Fitness>
11.5382

> <Gold.Chemscore.DG>
-13.7230

> <Gold.Chemscore.ZeroCoef>
-5.4800

> <Gold.Chemscore.Hbond>
1.8679

> <Gold.Chemscore.Metal>
0.0000

> <Gold.Chemscore.Lipo>
66.2586

> <Gold.Chemscore.Internal_Hbond>
0.0000

> <Gold.Chemscore.DEClash>
0.0859

> <Gold.Chemscore.DEInternal>
2.0989

> <Gold.Chemscore.Rot>
2.2453

> <Gold.Chemscore.Internal.Correction>
   9.000000E+99

> <Gold.Chemscore.Hbonds>
donor molecule, donor type, donor heavy atom, donor atom, acceptor molecule, acceptor atom, score
      L1  H     7    39       P1 10957  0.02
      P1  H  6896  6908       L1    25  0.85
      P1  H  7989  7998       L1    21  0.90

> <Gold.Chemscore.Hbond.Weighted>
-6.2386

> <Gold.Chemscore.Metal.Weighted>
-0.0000

> <Gold.Chemscore.Lipo.Weighted>
-7.7523

> <Gold.Chemscore.Internal_Hbond.Weighted>
0.0000

> <Gold.Chemscore.DEClash.Weighted>
0.0859

> <Gold.Chemscore.DEInternal.Weighted>
2.0989

> <Gold.Chemscore.Rot.Weighted>
5.7479

> <Gold.Chemscore.Internal.Correction.Weighted>
   9.000000E+99

> <Gold.Protein.RotatedTorsions>
[ 6907 6896 6895 6894 ] final   91.04 input  -60.11 | X-H torsion
[ 7974 7965 7964 7962 ] final  -35.82 input  175.53 | X-H torsion
[ 8008 7997 7996 7995 ] final  110.52 input   59.86 | X-H torsion
[ 10167 10162 10161 10158 ] final -156.76 input  -65.29 | X-H torsion
[ 10718 10713 10712 10709 ] final  121.00 input   66.30 | X-H torsion
[ 10763 10752 10751 10750 ] final  146.37 input  -60.55 | X-H torsion
[ 11005 11000 10999 10996 ] final  138.12 input  -57.11 | X-H torsion

> <Gold.Protein.ActiveResidues>
 VAL166  LYS551  ARG553  GLY616  TRP617  ASP618  TYR619  PRO620  LYS621  CYS622 
 ASP623  PHE694  ASN695  SER759  ASP760  ASP761  ALA762  ILE779  LEU786  VAL792 
 PHE793  MET794  SER795  GLU796  ALA797  LYS798  CYS799  TRP800  GLU811  SER814 

> <Gold.Protein.RotatedAtoms>
  152.5448  134.1719  159.8599 H   0  0  0  0  0  0  0  0  0  0  0  0  # atno 6907 bound_to 6896
  151.1728  133.4766  159.2601 H   0  0  0  0  0  0  0  0  0  0  0  0  # atno 6908 bound_to 6896
  151.1257  135.0115  159.8614 H   0  0  0  0  0  0  0  0  0  0  0  0  # atno 6909 bound_to 6896
  146.0714  140.6205  142.8951 H   0  0  0  0  0  0  0  0  0  0  0  0  # atno 7974 bound_to 7965
  156.2058  140.3037  155.9624 H   0  0  0  0  0  0  0  0  0  0  0  0  # atno 8008 bound_to 7997
  155.2844  140.0439  157.3035 H   0  0  0  0  0  0  0  0  0  0  0  0  # atno 8009 bound_to 7997
  154.5632  140.2326  155.8313 H   0  0  0  0  0  0  0  0  0  0  0  0  # atno 8010 bound_to 7997
  139.6825  143.9557  152.2344 H   0  0  0  0  0  0  0  0  0  0  0  0  # atno 10167 bound_to 10162
  157.5850  131.1071  150.8113 H   0  0  0  0  0  0  0  0  0  0  0  0  # atno 10718 bound_to 10713
  154.0208  135.2906  155.3381 H   0  0  0  0  0  0  0  0  0  0  0  0  # atno 10763 bound_to 10752
  154.7047  135.5174  153.8581 H   0  0  0  0  0  0  0  0  0  0  0  0  # atno 10764 bound_to 10752
  153.0682  135.6638  154.0430 H   0  0  0  0  0  0  0  0  0  0  0  0  # atno 10765 bound_to 10752
  140.0161  134.9417  157.0380 H   0  0  0  0  0  0  0  0  0  0  0  0  # atno 11005 bound_to 11000
  144.7234  140.4447  143.6991 LP  0  0  0  0  0  0  0  0  0  0  0  0  # atno 17320 bound_to 7965
  145.6385  139.1546  143.2929 LP  0  0  0  0  0  0  0  0  0  0  0  0  # atno 17321 bound_to 7965
  139.9351  144.6717  150.8323 LP  0  0  0  0  0  0  0  0  0  0  0  0  # atno 17342 bound_to 10162
  140.7657  143.3282  151.2469 LP  0  0  0  0  0  0  0  0  0  0  0  0  # atno 17343 bound_to 10162
  156.8550  130.5093  149.5308 LP  0  0  0  0  0  0  0  0  0  0  0  0  # atno 17370 bound_to 10713
  156.0898  130.5887  150.9712 LP  0  0  0  0  0  0  0  0  0  0  0  0  # atno 17371 bound_to 10713
  140.4468  134.1624  155.7178 LP  0  0  0  0  0  0  0  0  0  0  0  0  # atno 17394 bound_to 11000
  141.1744  133.8544  157.1469 LP  0  0  0  0  0  0  0  0  0  0  0  0  # atno 17395 bound_to 11000

$$$$
