AV-unprocessed.smi:36|AV-procd|sdf|298|dock1
  -GOLD-   2262016 93D 1   1.00000     0.00000
 Structure written by MMmdl.
 63 66  0  0  0  0  0  0  0  0  2 V2000
  145.9513  132.7316  150.0467 C   0  0  0  0  0  0  0  0  0  0  0  0
  144.9627  132.5916  151.2162 C   0  0  0  0  0  0  0  0  0  0  0  0
  143.5719  132.2104  150.6824 C   0  0  0  0  0  0  0  0  0  0  0  0
  145.4557  131.5107  152.1930 C   0  0  0  0  0  0  0  0  0  0  0  0
  144.8376  134.2556  152.1463 Si  0  0  0  0  0  0  0  0  0  0  0  0
  144.2527  135.6421  150.9847 C   0  0  0  0  0  0  0  0  0  0  0  0
  143.6680  134.1265  153.6377 C   0  0  0  0  0  0  0  0  0  0  0  0
  146.3813  134.6430  152.7185 O   0  0  0  0  0  0  0  0  0  0  0  0
  147.3925  133.6880  152.9628 C   0  0  0  0  0  0  0  0  0  0  0  0
  148.5592  134.3834  153.6782 C   0  0  1  0  0  0  0  0  0  0  0  0
  148.1563  134.8965  154.9474 O   0  0  0  0  0  0  0  0  0  0  0  0
  149.2113  134.8222  155.8593 C   0  0  2  0  0  0  0  0  0  0  0  0
  149.4865  136.1902  156.3949 N   0  0  0  0  0  0  0  0  0  0  0  0
  149.5135  136.5716  157.6873 C   0  0  0  0  0  0  0  0  0  0  0  0
  149.7893  137.8480  157.9462 N   0  0  0  0  0  0  0  0  0  0  0  0
  149.9556  138.3633  156.6691 C   0  0  0  0  0  0  0  0  0  0  0  0
  150.2790  139.6655  156.1968 C   0  0  0  0  0  0  0  0  0  0  0  0
  150.4960  140.7041  157.0187 N   0  5  0  0  0  0  0  0  0  0  0  0
  151.7156  140.8680  157.5912 C   0  0  0  0  0  0  0  0  0  0  0  0
  152.7073  140.1438  157.4793 O   0  0  0  0  0  0  0  0  0  0  0  0
  151.8318  142.1360  158.3941 C   0  0  0  0  0  0  0  0  0  0  0  0
  151.0670  143.2679  158.0294 C   0  0  0  0  0  0  0  0  0  0  0  0
  151.1798  144.4720  158.7515 C   0  0  0  0  0  0  0  0  0  0  0  0
  152.0668  144.5605  159.8407 C   0  0  0  0  0  0  0  0  0  0  0  0
  152.8434  143.4448  160.2051 C   0  0  0  0  0  0  0  0  0  0  0  0
  152.7307  142.2399  159.4839 C   0  0  0  0  0  0  0  0  0  0  0  0
  150.3492  139.8312  154.8512 N   0  0  0  0  0  0  0  0  0  0  0  0
  150.1387  138.7958  154.0303 C   0  0  0  0  0  0  0  0  0  0  0  0
  149.8478  137.5277  154.3353 N   0  0  0  0  0  0  0  0  0  0  0  0
  149.7613  137.3494  155.6858 C   0  0  0  0  0  0  0  0  0  0  0  0
  150.4305  134.2640  155.1196 C   0  0  0  0  0  0  0  0  0  0  0  0
  149.7811  133.5061  153.9799 C   0  0  1  0  0  0  0  0  0  0  0  0
  149.4152  132.1996  154.3843 O   0  0  0  0  0  0  0  0  0  0  0  0
  146.0492  131.7948  149.4971 H   0  0  0  0  0  0  0  0  0  0  0  0
  146.9450  133.0118  150.3971 H   0  0  0  0  0  0  0  0  0  0  0  0
  145.6240  133.4941  149.3393 H   0  0  0  0  0  0  0  0  0  0  0  0
  143.1963  132.9561  149.9812 H   0  0  0  0  0  0  0  0  0  0  0  0
  142.8471  132.1260  151.4929 H   0  0  0  0  0  0  0  0  0  0  0  0
  143.5960  131.2529  150.1611 H   0  0  0  0  0  0  0  0  0  0  0  0
  145.5212  130.5364  151.7075 H   0  0  0  0  0  0  0  0  0  0  0  0
  144.7820  131.4095  153.0448 H   0  0  0  0  0  0  0  0  0  0  0  0
  146.4449  131.7488  152.5841 H   0  0  0  0  0  0  0  0  0  0  0  0
  143.2736  135.4215  150.5600 H   0  0  0  0  0  0  0  0  0  0  0  0
  144.9436  135.7865  150.1543 H   0  0  0  0  0  0  0  0  0  0  0  0
  144.1697  136.5955  151.5057 H   0  0  0  0  0  0  0  0  0  0  0  0
  142.6560  133.8616  153.3324 H   0  0  0  0  0  0  0  0  0  0  0  0
  143.6063  135.0704  154.1791 H   0  0  0  0  0  0  0  0  0  0  0  0
  144.0036  133.3693  154.3454 H   0  0  0  0  0  0  0  0  0  0  0  0
  147.0081  132.8564  153.5538 H   0  0  0  0  0  0  0  0  0  0  0  0
  147.7207  133.2857  152.0042 H   0  0  0  0  0  0  0  0  0  0  0  0
  148.8950  135.2257  153.0720 H   0  0  0  0  0  0  0  0  0  0  0  0
  148.9168  134.2236  156.7223 H   0  0  0  0  0  0  0  0  0  0  0  0
  149.3263  135.8700  158.4866 H   0  0  0  0  0  0  0  0  0  0  0  0
  150.3830  143.2172  157.1947 H   0  0  0  0  0  0  0  0  0  0  0  0
  150.5862  145.3285  158.4676 H   0  0  0  0  0  0  0  0  0  0  0  0
  152.1540  145.4842  160.3933 H   0  0  0  0  0  0  0  0  0  0  0  0
  153.5293  143.5132  161.0365 H   0  0  0  0  0  0  0  0  0  0  0  0
  153.3435  141.3982  159.7738 H   0  0  0  0  0  0  0  0  0  0  0  0
  150.2174  139.0146  152.9757 H   0  0  0  0  0  0  0  0  0  0  0  0
  151.0359  135.0812  154.7252 H   0  0  0  0  0  0  0  0  0  0  0  0
  151.0513  133.6523  155.7752 H   0  0  0  0  0  0  0  0  0  0  0  0
  150.4435  133.4265  153.1175 H   0  0  0  0  0  0  0  0  0  0  0  0
  149.4324  132.1635  155.3284 H   0  0  0  0  0  0  0  0  0  0  0  0
  1  2  1  0  0  0  0
  1 34  1  0  0  0  0
  1 35  1  0  0  0  0
  1 36  1  0  0  0  0
  2  3  1  0  0  0  0
  2  4  1  0  0  0  0
  2  5  1  0  0  0  0
  3 37  1  0  0  0  0
  3 38  1  0  0  0  0
  3 39  1  0  0  0  0
  4 40  1  0  0  0  0
  4 41  1  0  0  0  0
  4 42  1  0  0  0  0
  5  6  1  0  0  0  0
  5  7  1  0  0  0  0
  5  8  1  0  0  0  0
  6 43  1  0  0  0  0
  6 44  1  0  0  0  0
  6 45  1  0  0  0  0
  7 46  1  0  0  0  0
  7 47  1  0  0  0  0
  7 48  1  0  0  0  0
  8  9  1  0  0  0  0
  9 10  1  0  0  0  0
  9 49  1  0  0  0  0
  9 50  1  0  0  0  0
 10 32  1  0  0  0  0
 10 11  1  0  0  0  0
 10 51  1  0  0  0  0
 11 12  1  0  0  0  0
 12 13  1  0  0  0  0
 12 31  1  0  0  0  0
 12 52  1  0  0  0  0
 13 30  1  0  0  0  0
 13 14  1  0  0  0  0
 14 15  2  0  0  0  0
 14 53  1  0  0  0  0
 15 16  1  0  0  0  0
 16 30  2  0  0  0  0
 16 17  1  0  0  0  0
 17 18  1  0  0  0  0
 17 27  2  0  0  0  0
 18 19  1  0  0  0  0
 19 20  2  0  0  0  0
 19 21  1  0  0  0  0
 21 26  1  0  0  0  0
 21 22  2  0  0  0  0
 22 23  1  0  0  0  0
 22 54  1  0  0  0  0
 23 24  2  0  0  0  0
 23 55  1  0  0  0  0
 24 25  1  0  0  0  0
 24 56  1  0  0  0  0
 25 26  2  0  0  0  0
 25 57  1  0  0  0  0
 26 58  1  0  0  0  0
 27 28  1  0  0  0  0
 28 29  2  0  0  0  0
 28 59  1  0  0  0  0
 29 30  1  0  0  0  0
 31 32  1  0  0  0  0
 31 60  1  0  0  0  0
 31 61  1  0  0  0  0
 32 33  1  0  0  0  0
 32 62  1  0  0  0  0
 33 63  1  0  0  0  0
M  CHG  1  18  -1
M  END
> <s_m_source_file>
AV-unprocessed.smi

> <i_m_source_file_index>
36

> <i_lp_mmshare_version>
43012

> <i_f3d_flags>
0

> <s_epik_input>
W0NIM11DKFtDSDNdKShbQ0gzXSlbU2ldKFtDSDNdKShbQ0gzXSlPW0NIMl1bQ0BASF0xT1tDQEhdKFtDSDJdW0NASF0xW09IXSluKFtjSF1uMiljKGMyMyluW2NIXW5jM1tOSF1DKD1PKWM0W2NIXVtjSF1bY0hdW2NIXVtjSF00

> <s_epik_cmdline>
J2VwaWtfcHl0aG9uJywgJy1waCcsICc3LjAnLCAnLXRuJywgJzgnLCAnLW1hJywgJzIwMCcsICctbWV0YWxfYmluZGluZycsICctaW1hZScsICc8aW5maWxlLm1hZT4nLCAnLW9tYWUnLCAnPG91dGZpbGUubWFlPic=

> <r_lp_tautomer_probability>
1

> <r_epik_Ionization_Penalty>
4.75685

> <r_epik_Ionization_Penalty_Charging>
3.55822

> <r_epik_Ionization_Penalty_Neutral>
1.19863

> <r_epik_State_Penalty>
3.564

> <r_epik_Charging_Adjusted_Penalty>
7.12222

> <i_epik_Tot_Q>
-1

> <i_epik_Tot_abs_Q>
1

> <r_epik_Metal_State_Penalty>
0.523258

> <b_epik_Metal_Only>
1

> <s_epik_Chemistry_Notes>
This compound contains an acetal/aminal-like group ( X-CH(R)-Y where X, Y are N, S, or O) that may be acid/base labile, releasing an aldehyde.

> <s_lp_Force_Field>
OPLS_2005

> <r_lp_Energy>
38.0647

> <b_lp_Chiralities_Consistent>
1

> <s_lp_Variant>
AV-unprocessed.smi:36-20

> <Gold.Version>
5.8.1

> <Gold.Id.Protein>
6NUR|6NUR_protein|mol2

> <Gold.PLP.Fitness>
56.2121

> <Gold.PLP.PLP>
-51.0257

> <Gold.PLP.part.hbond>
-2.0000

> <Gold.PLP.part.metal>
0.0000

> <Gold.PLP.part.buried>
-4.9664

> <Gold.PLP.part.nonpolar>
-46.8293

> <Gold.PLP.part.repulsive>
2.5013

> <Gold.PLP.ligand.clash>
0.0000

> <Gold.PLP.ligand.torsion>
1.9083

> <Gold.PLP.Chemscore.Hbond>
2.0000

> <Gold.PLP.Chemscore.CHOScore>
0.9484

> <Gold.PLP.Chemscore.Metal>
0.0000

> <Gold.Chemscore.Hbonds>
donor molecule, donor type, donor heavy atom, donor atom, acceptor molecule, acceptor atom, score
      P1  H  7989  7998       L1    27  0.56
      P1  H  7997  8010       L1    20  1.00
      L1  C    28    59       P1  7957  1.00

> <Gold.PLP.Chemscore.Internal.Correction>
0.1578

> <Gold.Rescore>
     Score         DG    S(hbond)    S(metal)    S(lipo)     H(rot)  DE(clash)    DE(int)     intcor
     16.96     -19.83       1.70        0.00     132.54       2.67       0.34       2.53       ----

> <Gold.Chemscore.Fitness>
16.9562

> <Gold.Chemscore.DG>
-19.8287

> <Gold.Chemscore.ZeroCoef>
-5.4800

> <Gold.Chemscore.Hbond>
1.6997

> <Gold.Chemscore.Metal>
0.0000

> <Gold.Chemscore.Lipo>
132.5424

> <Gold.Chemscore.Internal_Hbond>
0.0000

> <Gold.Chemscore.DEClash>
0.3431

> <Gold.Chemscore.DEInternal>
2.5294

> <Gold.Chemscore.Rot>
2.6702

> <Gold.Chemscore.Internal.Correction>
   9.000000E+99

> <Gold.Chemscore.Hbonds>
donor molecule, donor type, donor heavy atom, donor atom, acceptor molecule, acceptor atom, score
      P1  H  7989  7998       L1    27  0.07
      P1  H  7997  8010       L1    20  0.96

> <Gold.Chemscore.Hbond.Weighted>
-5.6770

> <Gold.Chemscore.Metal.Weighted>
-0.0000

> <Gold.Chemscore.Lipo.Weighted>
-15.5075

> <Gold.Chemscore.Internal_Hbond.Weighted>
0.0000

> <Gold.Chemscore.DEClash.Weighted>
0.3431

> <Gold.Chemscore.DEInternal.Weighted>
2.5294

> <Gold.Chemscore.Rot.Weighted>
6.8358

> <Gold.Chemscore.Internal.Correction.Weighted>
   9.000000E+99

> <Gold.Protein.RotatedTorsions>
[ 6907 6896 6895 6894 ] final -132.29 input  -60.11 | X-H torsion
[ 7974 7965 7964 7962 ] final   42.35 input  175.53 | X-H torsion
[ 8008 7997 7996 7995 ] final   50.01 input   59.86 | X-H torsion
[ 10167 10162 10161 10158 ] final  -62.34 input  -65.29 | X-H torsion
[ 10718 10713 10712 10709 ] final -141.82 input   66.30 | X-H torsion
[ 10763 10752 10751 10750 ] final  -80.32 input  -60.55 | X-H torsion
[ 11005 11000 10999 10996 ] final -101.79 input  -57.11 | X-H torsion

> <Gold.Protein.ActiveResidues>
 VAL166  LYS551  ARG553  GLY616  TRP617  ASP618  TYR619  PRO620  LYS621  CYS622 
 ASP623  PHE694  ASN695  SER759  ASP760  ASP761  ALA762  ILE779  LEU786  VAL792 
 PHE793  MET794  SER795  GLU796  ALA797  LYS798  CYS799  TRP800  GLU811  SER814 

> <Gold.Protein.RotatedAtoms>
  150.9607  133.6449  159.2754 H   0  0  0  0  0  0  0  0  0  0  0  0  # atno 6907 bound_to 6896
  151.3772  135.0932  159.9494 H   0  0  0  0  0  0  0  0  0  0  0  0  # atno 6908 bound_to 6896
  152.5146  133.9148  159.7560 H   0  0  0  0  0  0  0  0  0  0  0  0  # atno 6909 bound_to 6896
  146.0747  139.5310  142.9575 H   0  0  0  0  0  0  0  0  0  0  0  0  # atno 7974 bound_to 7965
  155.4118  140.3442  155.4264 H   0  0  0  0  0  0  0  0  0  0  0  0  # atno 8008 bound_to 7997
  156.1444  140.1552  156.8901 H   0  0  0  0  0  0  0  0  0  0  0  0  # atno 8009 bound_to 7997
  154.4998  140.0818  156.7755 H   0  0  0  0  0  0  0  0  0  0  0  0  # atno 8010 bound_to 7997
  140.5946  143.2348  151.6065 H   0  0  0  0  0  0  0  0  0  0  0  0  # atno 10167 bound_to 10162
  156.3385  130.7624  151.1756 H   0  0  0  0  0  0  0  0  0  0  0  0  # atno 10718 bound_to 10713
  154.5497  135.5665  153.6911 H   0  0  0  0  0  0  0  0  0  0  0  0  # atno 10763 bound_to 10752
  152.9986  135.6248  154.2390 H   0  0  0  0  0  0  0  0  0  0  0  0  # atno 10764 bound_to 10752
  154.2325  135.2865  155.2864 H   0  0  0  0  0  0  0  0  0  0  0  0  # atno 10765 bound_to 10752
  141.1216  133.8506  157.1277 H   0  0  0  0  0  0  0  0  0  0  0  0  # atno 11005 bound_to 11000
  145.6327  141.0301  143.1854 LP  0  0  0  0  0  0  0  0  0  0  0  0  # atno 17320 bound_to 7965
  144.7254  139.7893  143.7367 LP  0  0  0  0  0  0  0  0  0  0  0  0  # atno 17321 bound_to 7965
  139.5249  144.3089  152.1010 LP  0  0  0  0  0  0  0  0  0  0  0  0  # atno 17342 bound_to 10162
  140.2259  144.4418  150.6321 LP  0  0  0  0  0  0  0  0  0  0  0  0  # atno 17343 bound_to 10162
  157.7443  131.0461  150.4877 LP  0  0  0  0  0  0  0  0  0  0  0  0  # atno 17370 bound_to 10713
  156.5054  130.4127  149.6330 LP  0  0  0  0  0  0  0  0  0  0  0  0  # atno 17371 bound_to 10713
  140.0178  134.9959  157.0530 LP  0  0  0  0  0  0  0  0  0  0  0  0  # atno 17394 bound_to 11000
  140.4490  134.1602  155.7180 LP  0  0  0  0  0  0  0  0  0  0  0  0  # atno 17395 bound_to 11000

$$$$
