AV-unprocessed.smi:3094|AV-procd|sdf|11790|dock4
  -GOLD-   2272017163D 1   1.00000     0.00000
 Structure written by MMmdl.
 29 30  0  0  0  0  0  0  0  0  1 V2000
  150.2506  141.7463  158.1275 C   0  0  0  0  0  0  0  0  0  0  0  0
  150.9180  142.1093  156.7923 C   0  0  2  0  0  0  0  0  0  0  0  0
  151.7186  143.4210  156.8995 C   0  0  0  0  0  0  0  0  0  0  0  0
  152.0584  143.7476  158.2723 N   0  0  0  0  0  0  0  0  0  0  0  0
  151.6898  144.8851  158.9784 C   0  0  0  0  0  0  0  0  0  0  0  0
  152.2329  144.7595  160.2371 C   0  0  0  0  0  0  0  0  0  0  0  0
  152.9380  143.5616  160.3261 N   0  0  0  0  0  0  0  0  0  0  0  0
  152.7917  143.0183  159.1246 C   0  0  0  0  0  0  0  0  0  0  0  0
  149.9049  142.2243  155.7446 N   0  0  0  0  0  0  0  0  0  0  0  0
  149.7214  141.3558  154.7384 C   0  0  0  0  0  0  0  0  0  0  0  0
  150.3920  140.3315  154.6028 O   0  0  0  0  0  0  0  0  0  0  0  0
  148.6304  141.7460  153.7960 C   0  0  0  0  0  0  0  0  0  0  0  0
  147.2616  142.0260  154.3820 C   0  0  0  0  0  0  0  0  0  0  0  0
  147.4955  140.7634  153.5909 C   0  0  0  0  0  0  0  0  0  0  0  0
  150.9922  141.6393  158.9196 H   0  0  0  0  0  0  0  0  0  0  0  0
  149.7114  140.8012  158.0554 H   0  0  0  0  0  0  0  0  0  0  0  0
  149.5401  142.5130  158.4383 H   0  0  0  0  0  0  0  0  0  0  0  0
  151.6159  141.3099  156.5356 H   0  0  0  0  0  0  0  0  0  0  0  0
  152.6357  143.3640  156.3109 H   0  0  0  0  0  0  0  0  0  0  0  0
  151.1373  144.2496  156.4934 H   0  0  0  0  0  0  0  0  0  0  0  0
  151.0857  145.6659  158.5402 H   0  0  0  0  0  0  0  0  0  0  0  0
  152.1710  145.4342  161.0782 H   0  0  0  0  0  0  0  0  0  0  0  0
  153.2244  142.0647  158.8595 H   0  0  0  0  0  0  0  0  0  0  0  0
  149.3074  143.0374  155.7781 H   0  0  0  0  0  0  0  0  0  0  0  0
  148.9233  142.3402  152.9315 H   0  0  0  0  0  0  0  0  0  0  0  0
  147.1247  141.9245  155.4573 H   0  0  0  0  0  0  0  0  0  0  0  0
  146.6798  142.8197  153.9181 H   0  0  0  0  0  0  0  0  0  0  0  0
  147.0724  140.7008  152.5905 H   0  0  0  0  0  0  0  0  0  0  0  0
  147.5137  139.8242  154.1413 H   0  0  0  0  0  0  0  0  0  0  0  0
  1  2  1  0  0  0  0
  1 15  1  0  0  0  0
  1 16  1  0  0  0  0
  1 17  1  0  0  0  0
  2  3  1  0  0  0  0
  2  9  1  0  0  0  0
  2 18  1  0  0  0  0
  3  4  1  0  0  0  0
  3 19  1  0  0  0  0
  3 20  1  0  0  0  0
  4  8  1  0  0  0  0
  4  5  1  0  0  0  0
  5  6  2  0  0  0  0
  5 21  1  0  0  0  0
  6  7  1  0  0  0  0
  6 22  1  0  0  0  0
  7  8  2  0  0  0  0
  8 23  1  0  0  0  0
  9 10  1  0  0  0  0
  9 24  1  0  0  0  0
 10 11  2  0  0  0  0
 10 12  1  0  0  0  0
 12 14  1  0  0  0  0
 12 13  1  0  0  0  0
 12 25  1  0  0  0  0
 13 14  1  0  0  0  0
 13 26  1  0  0  0  0
 13 27  1  0  0  0  0
 14 28  1  0  0  0  0
 14 29  1  0  0  0  0
M  END
> <s_m_source_file>
AV-unprocessed.smi

> <i_m_source_file_index>
3094

> <i_lp_mmshare_version>
43012

> <i_f3d_flags>
0

> <s_epik_input>
W0NIMl0xW0NIMl1bQ0hdMUMoPU8pW05IXVtDQEhdKFtDSDNdKVtDSDJdbjJbY0hdW2NIXW5bY0hdMg==

> <s_epik_cmdline>
J2VwaWtfcHl0aG9uJywgJy1waCcsICc3LjAnLCAnLXRuJywgJzgnLCAnLW1hJywgJzIwMCcsICctbWV0YWxfYmluZGluZycsICctaW1hZScsICc8aW5maWxlLm1hZT4nLCAnLW9tYWUnLCAnPG91dGZpbGUubWFlPic=

> <r_lp_tautomer_probability>
1

> <r_epik_Ionization_Penalty>
0.642614

> <r_epik_Ionization_Penalty_Charging>
0.642614

> <r_epik_Ionization_Penalty_Neutral>
4.09963e-08

> <r_epik_State_Penalty>
0.660429

> <r_epik_Charging_Adjusted_Penalty>
1.30304

> <i_epik_Tot_Q>
0

> <i_epik_Tot_abs_Q>
0

> <r_epik_Metal_State_Penalty>
0.31224

> <b_epik_Metal_Only>
0

> <s_lp_Force_Field>
OPLS_2005

> <r_lp_Energy>
8.14958

> <b_lp_Chiralities_Consistent>
1

> <s_lp_Variant>
AV-unprocessed.smi:3094-3

> <Gold.Version>
5.8.1

> <Gold.Id.Protein>
6NUR|6NUR_protein|mol2

> <Gold.PLP.Fitness>
40.3340

> <Gold.PLP.PLP>
-35.5818

> <Gold.PLP.part.hbond>
-2.0000

> <Gold.PLP.part.metal>
0.0000

> <Gold.PLP.part.buried>
-2.1307

> <Gold.PLP.part.nonpolar>
-31.7015

> <Gold.PLP.part.repulsive>
0.2692

> <Gold.PLP.ligand.clash>
0.0000

> <Gold.PLP.ligand.torsion>
0.6692

> <Gold.PLP.Chemscore.Hbond>
1.9920

> <Gold.PLP.Chemscore.CHOScore>
0.0000

> <Gold.PLP.Chemscore.Metal>
0.0000

> <Gold.Chemscore.Hbonds>
donor molecule, donor type, donor heavy atom, donor atom, acceptor molecule, acceptor atom, score
      L1  H     9    24       P1  8028  1.00
      P1  H  7989  7998       L1    11  1.00

> <Gold.PLP.Chemscore.Internal.Correction>
0.1145

> <Gold.Rescore>
     Score         DG    S(hbond)    S(metal)    S(lipo)     H(rot)  DE(clash)    DE(int)     intcor
     12.08     -14.08       1.49        0.00      71.16       1.83       1.67       0.33       ----

> <Gold.Chemscore.Fitness>
12.0764

> <Gold.Chemscore.DG>
-14.0820

> <Gold.Chemscore.ZeroCoef>
-5.4800

> <Gold.Chemscore.Hbond>
1.4888

> <Gold.Chemscore.Metal>
0.0000

> <Gold.Chemscore.Lipo>
71.1637

> <Gold.Chemscore.Internal_Hbond>
0.0000

> <Gold.Chemscore.DEClash>
1.6730

> <Gold.Chemscore.DEInternal>
0.3326

> <Gold.Chemscore.Rot>
1.8347

> <Gold.Chemscore.Internal.Correction>
   9.000000E+99

> <Gold.Chemscore.Hbonds>
donor molecule, donor type, donor heavy atom, donor atom, acceptor molecule, acceptor atom, score
      L1  H     9    24       P1  8028  0.99
      P1  H  7989  7998       L1    11  0.29

> <Gold.Chemscore.Hbond.Weighted>
-4.9728

> <Gold.Chemscore.Metal.Weighted>
-0.0000

> <Gold.Chemscore.Lipo.Weighted>
-8.3262

> <Gold.Chemscore.Internal_Hbond.Weighted>
0.0000

> <Gold.Chemscore.DEClash.Weighted>
1.6730

> <Gold.Chemscore.DEInternal.Weighted>
0.3326

> <Gold.Chemscore.Rot.Weighted>
4.6969

> <Gold.Chemscore.Internal.Correction.Weighted>
   9.000000E+99

> <Gold.Protein.RotatedTorsions>
[ 6907 6896 6895 6894 ] final    6.84 input  -60.11 | X-H torsion
[ 7974 7965 7964 7962 ] final  -99.48 input  175.53 | X-H torsion
[ 8008 7997 7996 7995 ] final    3.16 input   59.86 | X-H torsion
[ 10167 10162 10161 10158 ] final  178.16 input  -65.29 | X-H torsion
[ 10718 10713 10712 10709 ] final -126.09 input   66.30 | X-H torsion
[ 10763 10752 10751 10750 ] final   29.65 input  -60.55 | X-H torsion
[ 11005 11000 10999 10996 ] final   15.17 input  -57.11 | X-H torsion

> <Gold.Protein.ActiveResidues>
 VAL166  LYS551  ARG553  GLY616  TRP617  ASP618  TYR619  PRO620  LYS621  CYS622 
 ASP623  PHE694  ASN695  SER759  ASP760  ASP761  ALA762  ILE779  LEU786  VAL792 
 PHE793  MET794  SER795  GLU796  ALA797  LYS798  CYS799  TRP800  GLU811  SER814 

> <Gold.Protein.RotatedAtoms>
  151.6802  135.0963  160.0214 H   0  0  0  0  0  0  0  0  0  0  0  0  # atno 6907 bound_to 6896
  152.3840  133.6581  159.6192 H   0  0  0  0  0  0  0  0  0  0  0  0  # atno 6908 bound_to 6896
  150.7770  133.8983  159.3375 H   0  0  0  0  0  0  0  0  0  0  0  0  # atno 6909 bound_to 6896
  145.3070  140.9391  143.2791 H   0  0  0  0  0  0  0  0  0  0  0  0  # atno 7974 bound_to 7965
  154.7003  140.2671  155.6726 H   0  0  0  0  0  0  0  0  0  0  0  0  # atno 8008 bound_to 7997
  156.2762  140.2773  156.1535 H   0  0  0  0  0  0  0  0  0  0  0  0  # atno 8009 bound_to 7997
  155.0774  140.0372  157.2618 H   0  0  0  0  0  0  0  0  0  0  0  0  # atno 8010 bound_to 7997
  139.5283  144.2712  152.0626 H   0  0  0  0  0  0  0  0  0  0  0  0  # atno 10167 bound_to 10162
  156.1734  130.6683  151.0210 H   0  0  0  0  0  0  0  0  0  0  0  0  # atno 10718 bound_to 10713
  153.0418  135.6484  154.0923 H   0  0  0  0  0  0  0  0  0  0  0  0  # atno 10763 bound_to 10752
  154.0628  135.2886  155.3323 H   0  0  0  0  0  0  0  0  0  0  0  0  # atno 10764 bound_to 10752
  154.6646  135.5379  153.8126 H   0  0  0  0  0  0  0  0  0  0  0  0  # atno 10765 bound_to 10752
  140.4613  134.1124  155.7717 H   0  0  0  0  0  0  0  0  0  0  0  0  # atno 11005 bound_to 11000
  144.9046  139.4605  143.6616 LP  0  0  0  0  0  0  0  0  0  0  0  0  # atno 17320 bound_to 7965
  146.3131  139.7820  142.9004 LP  0  0  0  0  0  0  0  0  0  0  0  0  # atno 17321 bound_to 7965
  140.2172  144.4503  150.6358 LP  0  0  0  0  0  0  0  0  0  0  0  0  # atno 17342 bound_to 10162
  140.6442  143.2210  151.6222 LP  0  0  0  0  0  0  0  0  0  0  0  0  # atno 17343 bound_to 10162
  157.6818  131.0836  150.7348 LP  0  0  0  0  0  0  0  0  0  0  0  0  # atno 17370 bound_to 10713
  156.7407  130.4738  149.5478 LP  0  0  0  0  0  0  0  0  0  0  0  0  # atno 17371 bound_to 10713
  141.1620  133.8775  157.1822 LP  0  0  0  0  0  0  0  0  0  0  0  0  # atno 17394 bound_to 11000
  139.9943  135.0052  157.0047 LP  0  0  0  0  0  0  0  0  0  0  0  0  # atno 17395 bound_to 11000

$$$$
