AV-unprocessed.smi:2840|AV-procd|sdf|10931|dock5
  -GOLD-   2272015373D 1   1.00000     0.00000
 Structure written by MMmdl.
 36 37  0  0  0  0  0  0  0  0  1 V2000
  151.6625  145.3003  158.0467 C   0  0  0  0  0  0  0  0  0  0  0  0
  151.5926  144.0110  158.8843 C   0  0  2  0  0  0  0  0  0  0  0  0
  152.6812  144.0214  159.9768 C   0  0  0  0  0  0  0  0  0  0  0  0
  152.6385  142.7534  160.8422 C   0  0  0  0  0  0  0  0  0  0  0  0
  152.7660  141.4930  159.9766 C   0  0  0  0  0  0  0  0  0  0  0  0
  151.6769  141.4580  158.8951 C   0  0  0  0  0  0  0  0  0  0  0  0
  151.6979  142.7272  158.0203 C   0  0  1  0  0  0  0  0  0  0  0  0
  150.5968  142.6516  157.0607 N   0  0  0  0  0  0  0  0  0  0  0  0
  150.2207  141.5611  156.3756 C   0  0  0  0  0  0  0  0  0  0  0  0
  150.7808  140.4685  156.4694 O   0  0  0  0  0  0  0  0  0  0  0  0
  149.1654  141.8283  155.5866 N   0  0  0  0  0  0  0  0  0  0  0  0
  148.4873  140.9516  154.6983 C   0  0  0  0  0  0  0  0  0  0  0  0
  147.5400  141.5724  153.8530 C   0  0  0  0  0  0  0  0  0  0  0  0
  146.8161  140.7908  152.9320 C   0  0  0  0  0  0  0  0  0  0  0  0
  147.0577  139.4064  152.8801 C   0  0  0  0  0  0  0  0  0  0  0  0
  148.0182  138.8678  153.7561 C   0  0  0  0  0  0  0  0  0  0  0  0
  148.7135  139.6153  154.6392 N   0  0  0  0  0  0  0  0  0  0  0  0
  152.5925  145.3515  157.4794 H   0  0  0  0  0  0  0  0  0  0  0  0
  151.6127  146.1844  158.6829 H   0  0  0  0  0  0  0  0  0  0  0  0
  150.8368  145.3678  157.3388 H   0  0  0  0  0  0  0  0  0  0  0  0
  150.6240  144.0012  159.3870 H   0  0  0  0  0  0  0  0  0  0  0  0
  153.6654  144.1103  159.5145 H   0  0  0  0  0  0  0  0  0  0  0  0
  152.5614  144.8983  160.6141 H   0  0  0  0  0  0  0  0  0  0  0  0
  153.4401  142.7796  161.5808 H   0  0  0  0  0  0  0  0  0  0  0  0
  151.7025  142.7221  161.4014 H   0  0  0  0  0  0  0  0  0  0  0  0
  153.7503  141.4676  159.5074 H   0  0  0  0  0  0  0  0  0  0  0  0
  152.6975  140.6030  160.6027 H   0  0  0  0  0  0  0  0  0  0  0  0
  151.8116  140.5733  158.2714 H   0  0  0  0  0  0  0  0  0  0  0  0
  150.7012  141.3523  159.3718 H   0  0  0  0  0  0  0  0  0  0  0  0
  152.6537  142.7475  157.4928 H   0  0  0  0  0  0  0  0  0  0  0  0
  150.0755  143.5028  156.9108 H   0  0  0  0  0  0  0  0  0  0  0  0
  148.8068  142.7708  155.6228 H   0  0  0  0  0  0  0  0  0  0  0  0
  147.3666  142.6376  153.9064 H   0  0  0  0  0  0  0  0  0  0  0  0
  146.0887  141.2468  152.2770 H   0  0  0  0  0  0  0  0  0  0  0  0
  146.5223  138.7743  152.1871 H   0  0  0  0  0  0  0  0  0  0  0  0
  148.2349  137.8098  153.7473 H   0  0  0  0  0  0  0  0  0  0  0  0
  1  2  1  0  0  0  0
  1 18  1  0  0  0  0
  1 19  1  0  0  0  0
  1 20  1  0  0  0  0
  2  7  1  0  0  0  0
  2  3  1  0  0  0  0
  2 21  1  0  0  0  0
  3  4  1  0  0  0  0
  3 22  1  0  0  0  0
  3 23  1  0  0  0  0
  4  5  1  0  0  0  0
  4 24  1  0  0  0  0
  4 25  1  0  0  0  0
  5  6  1  0  0  0  0
  5 26  1  0  0  0  0
  5 27  1  0  0  0  0
  6  7  1  0  0  0  0
  6 28  1  0  0  0  0
  6 29  1  0  0  0  0
  7  8  1  0  0  0  0
  7 30  1  0  0  0  0
  8  9  1  0  0  0  0
  8 31  1  0  0  0  0
  9 10  2  0  0  0  0
  9 11  1  0  0  0  0
 11 12  1  0  0  0  0
 11 32  1  0  0  0  0
 12 17  1  0  0  0  0
 12 13  2  0  0  0  0
 13 14  1  0  0  0  0
 13 33  1  0  0  0  0
 14 15  2  0  0  0  0
 14 34  1  0  0  0  0
 15 16  1  0  0  0  0
 15 35  1  0  0  0  0
 16 17  2  0  0  0  0
 16 36  1  0  0  0  0
M  END
> <s_m_source_file>
AV-unprocessed.smi

> <i_m_source_file_index>
2840

> <i_lp_mmshare_version>
43012

> <i_f3d_flags>
0

> <s_epik_input>
W0NIM11bQ0BASF0xW0NIMl1bQ0gyXVtDSDJdW0NIMl1bQ0BIXTFbTkhdQyg9TylbTkhdYzJbY0hdW2NIXVtjSF1bY0hdbjI=

> <s_epik_cmdline>
J2VwaWtfcHl0aG9uJywgJy1waCcsICc3LjAnLCAnLXRuJywgJzgnLCAnLW1hJywgJzIwMCcsICctbWV0YWxfYmluZGluZycsICctaW1hZScsICc8aW5maWxlLm1hZT4nLCAnLW9tYWUnLCAnPG91dGZpbGUubWFlPic=

> <r_lp_tautomer_probability>
1

> <r_epik_Ionization_Penalty>
5.29956e-05

> <r_epik_Ionization_Penalty_Charging>
0

> <r_epik_Ionization_Penalty_Neutral>
5.29956e-05

> <r_epik_State_Penalty>
-0

> <r_epik_Charging_Adjusted_Penalty>
0

> <i_epik_Tot_Q>
0

> <i_epik_Tot_abs_Q>
0

> <r_epik_Metal_State_Penalty>
-0

> <b_epik_Metal_Only>
0

> <s_lp_Force_Field>
OPLS_2005

> <r_lp_Energy>
13.2298

> <b_lp_Chiralities_Consistent>
1

> <s_lp_Variant>
AV-unprocessed.smi:2840-1

> <Gold.Version>
5.8.1

> <Gold.Id.Protein>
6NUR|6NUR_protein|mol2

> <Gold.PLP.Fitness>
43.1555

> <Gold.PLP.PLP>
-35.1440

> <Gold.PLP.part.hbond>
-2.0000

> <Gold.PLP.part.metal>
0.0000

> <Gold.PLP.part.buried>
-3.6614

> <Gold.PLP.part.nonpolar>
-29.4314

> <Gold.PLP.part.repulsive>
0.2735

> <Gold.PLP.ligand.clash>
0.0000

> <Gold.PLP.ligand.torsion>
0.2393

> <Gold.PLP.Chemscore.Hbond>
1.8288

> <Gold.PLP.Chemscore.CHOScore>
1.0000

> <Gold.PLP.Chemscore.Metal>
0.0000

> <Gold.Chemscore.Hbonds>
donor molecule, donor type, donor heavy atom, donor atom, acceptor molecule, acceptor atom, score
      L1  H     8    31       P1  8028  0.81
      L1  H    11    32       P1  8028  1.00
      L1  C    16    36       P1  7948  0.94

> <Gold.PLP.Chemscore.Internal.Correction>
0.0038

> <Gold.Rescore>
     Score         DG    S(hbond)    S(metal)    S(lipo)     H(rot)  DE(clash)    DE(int)     intcor
     17.09     -21.95       1.93        0.00     107.68       1.00       1.88       2.98       ----

> <Gold.Chemscore.Fitness>
17.0945

> <Gold.Chemscore.DG>
-21.9514

> <Gold.Chemscore.ZeroCoef>
-5.4800

> <Gold.Chemscore.Hbond>
1.9261

> <Gold.Chemscore.Metal>
0.0000

> <Gold.Chemscore.Lipo>
107.6775

> <Gold.Chemscore.Internal_Hbond>
0.0000

> <Gold.Chemscore.DEClash>
1.8764

> <Gold.Chemscore.DEInternal>
2.9805

> <Gold.Chemscore.Rot>
1.0000

> <Gold.Chemscore.Internal.Correction>
   9.000000E+99

> <Gold.Chemscore.Hbonds>
donor molecule, donor type, donor heavy atom, donor atom, acceptor molecule, acceptor atom, score
      L1  H     8    31       P1  8028  0.77
      L1  H    11    32       P1  8028  0.98

> <Gold.Chemscore.Hbond.Weighted>
-6.4331

> <Gold.Chemscore.Metal.Weighted>
-0.0000

> <Gold.Chemscore.Lipo.Weighted>
-12.5983

> <Gold.Chemscore.Internal_Hbond.Weighted>
0.0000

> <Gold.Chemscore.DEClash.Weighted>
1.8764

> <Gold.Chemscore.DEInternal.Weighted>
2.9805

> <Gold.Chemscore.Rot.Weighted>
2.5600

> <Gold.Chemscore.Internal.Correction.Weighted>
   9.000000E+99

> <Gold.Protein.RotatedTorsions>
[ 6907 6896 6895 6894 ] final  124.12 input  -60.11 | X-H torsion
[ 7974 7965 7964 7962 ] final  106.63 input  175.53 | X-H torsion
[ 8008 7997 7996 7995 ] final  -88.81 input   59.86 | X-H torsion
[ 10167 10162 10161 10158 ] final   50.05 input  -65.29 | X-H torsion
[ 10718 10713 10712 10709 ] final  -78.35 input   66.30 | X-H torsion
[ 10763 10752 10751 10750 ] final   76.06 input  -60.55 | X-H torsion
[ 11005 11000 10999 10996 ] final  108.78 input  -57.11 | X-H torsion

> <Gold.Protein.ActiveResidues>
 VAL166  LYS551  ARG553  GLY616  TRP617  ASP618  TYR619  PRO620  LYS621  CYS622 
 ASP623  PHE694  ASN695  SER759  ASP760  ASP761  ALA762  ILE779  LEU786  VAL792 
 PHE793  MET794  SER795  GLU796  ALA797  LYS798  CYS799  TRP800  GLU811  SER814 

> <Gold.Protein.RotatedAtoms>
  152.4105  133.6956  159.6393 H   0  0  0  0  0  0  0  0  0  0  0  0  # atno 6907 bound_to 6896
  150.7986  133.8632  159.3246 H   0  0  0  0  0  0  0  0  0  0  0  0  # atno 6908 bound_to 6896
  151.6376  135.1018  160.0186 H   0  0  0  0  0  0  0  0  0  0  0  0  # atno 6909 bound_to 6896
  145.3041  139.2560  143.3798 H   0  0  0  0  0  0  0  0  0  0  0  0  # atno 7974 bound_to 7965
  154.6792  140.0549  157.0248 H   0  0  0  0  0  0  0  0  0  0  0  0  # atno 8008 bound_to 7997
  155.0976  140.3225  155.4537 H   0  0  0  0  0  0  0  0  0  0  0  0  # atno 8009 bound_to 7997
  156.2687  140.2037  156.6103 H   0  0  0  0  0  0  0  0  0  0  0  0  # atno 8010 bound_to 7997
  140.2765  144.3206  150.6276 H   0  0  0  0  0  0  0  0  0  0  0  0  # atno 10167 bound_to 10162
  156.0120  130.4516  150.3484 H   0  0  0  0  0  0  0  0  0  0  0  0  # atno 10718 bound_to 10713
  153.0699  135.4965  154.8281 H   0  0  0  0  0  0  0  0  0  0  0  0  # atno 10763 bound_to 10752
  154.7007  135.3001  154.9347 H   0  0  0  0  0  0  0  0  0  0  0  0  # atno 10764 bound_to 10752
  154.0072  135.6759  153.4816 H   0  0  0  0  0  0  0  0  0  0  0  0  # atno 10765 bound_to 10752
  139.8850  134.9440  156.6025 H   0  0  0  0  0  0  0  0  0  0  0  0  # atno 11005 bound_to 11000
  146.3141  140.3562  142.8660 LP  0  0  0  0  0  0  0  0  0  0  0  0  # atno 17320 bound_to 7965
  144.9069  140.7711  143.5831 LP  0  0  0  0  0  0  0  0  0  0  0  0  # atno 17321 bound_to 7965
  140.5847  143.2170  151.7364 LP  0  0  0  0  0  0  0  0  0  0  0  0  # atno 17342 bound_to 10162
  139.4974  144.4028  152.0163 LP  0  0  0  0  0  0  0  0  0  0  0  0  # atno 17343 bound_to 10162
  157.1577  131.0337  151.2855 LP  0  0  0  0  0  0  0  0  0  0  0  0  # atno 17370 bound_to 10713
  157.4338  130.7505  149.7012 LP  0  0  0  0  0  0  0  0  0  0  0  0  # atno 17371 bound_to 10713
  140.7872  133.8611  155.8616 LP  0  0  0  0  0  0  0  0  0  0  0  0  # atno 17394 bound_to 11000
  140.9708  134.1533  157.4577 LP  0  0  0  0  0  0  0  0  0  0  0  0  # atno 17395 bound_to 11000

$$$$
