AV-unprocessed.smi:138|AV-procd|sdf|1180|dock1
  -GOLD-   2262018333D 1   1.00000     0.00000
 Structure written by MMmdl.
 52 55  0  0  0  0  0  0  0  0  1 V2000
  149.2486  141.3333  155.8270 C   0  0  0  0  0  0  0  0  0  0  0  0
  149.7405  140.3278  156.8184 C   0  0  0  0  0  0  0  0  0  0  0  0
  149.1655  139.1637  157.2343 C   0  0  0  0  0  0  0  0  0  0  0  0
  150.0212  138.5521  158.1922 C   0  0  0  0  0  0  0  0  0  0  0  0
  149.8070  137.2867  158.9398 C   0  0  0  0  0  0  0  0  0  0  0  0
  150.6149  136.8388  159.7548 O   0  0  0  0  0  0  0  0  0  0  0  0
  148.4862  136.5512  158.6449 C   0  0  0  0  0  0  0  0  0  0  0  0
  148.0801  135.6527  159.7191 N   0  0  0  0  0  0  0  0  0  0  0  0
  147.5389  136.2294  160.8953 C   0  0  0  0  0  0  0  0  0  0  0  0
  147.4007  137.4470  161.0254 O   0  0  0  0  0  0  0  0  0  0  0  0
  147.1814  135.2671  161.9310 C   0  0  0  0  0  0  0  0  0  0  0  0
  146.6681  135.7022  163.0944 F   0  0  0  0  0  0  0  0  0  0  0  0
  147.3612  133.9420  161.7435 C   0  0  0  0  0  0  0  0  0  0  0  0
  147.8778  133.4023  160.5793 N   0  0  0  0  0  0  0  0  0  0  0  0
  148.0835  131.9051  160.4972 C   0  0  1  0  0  0  0  0  0  0  0  0
  148.8855  131.3240  161.6713 C   0  0  0  0  0  0  0  0  0  0  0  0
  148.2211  129.9748  161.8406 C   0  0  0  0  0  0  0  0  0  0  0  0
  146.7688  130.2912  161.5003 C   0  0  0  0  0  0  0  0  0  0  0  0
  146.8375  131.2706  160.4669 O   0  0  0  0  0  0  0  0  0  0  0  0
  148.2862  134.2637  159.5335 C   0  0  0  0  0  0  0  0  0  0  0  0
  148.8114  133.8232  158.5095 O   0  0  0  0  0  0  0  0  0  0  0  0
  151.1269  139.3606  158.3305 C   0  0  0  0  0  0  0  0  0  0  0  0
  152.3576  139.2046  159.1813 C   0  0  0  0  0  0  0  0  0  0  0  0
  150.9441  140.4679  157.4986 N   0  0  0  0  0  0  0  0  0  0  0  0
  151.8586  141.5948  157.3406 C   0  0  0  0  0  0  0  0  0  0  0  0
  151.5805  142.6994  158.3083 C   0  0  0  0  0  0  0  0  0  0  0  0
  152.2415  143.1707  159.4091 C   0  0  0  0  0  0  0  0  0  0  0  0
  151.4625  144.2475  159.9154 C   0  0  0  0  0  0  0  0  0  0  0  0
  150.3837  144.3546  159.0849 C   0  0  0  0  0  0  0  0  0  0  0  0
  150.4412  143.4186  158.0991 O   0  0  0  0  0  0  0  0  0  0  0  0
  148.3309  140.9889  155.3494 H   0  0  0  0  0  0  0  0  0  0  0  0
  149.9857  141.5045  155.0426 H   0  0  0  0  0  0  0  0  0  0  0  0
  149.0333  142.2867  156.3101 H   0  0  0  0  0  0  0  0  0  0  0  0
  148.2135  138.7918  156.8850 H   0  0  0  0  0  0  0  0  0  0  0  0
  147.6756  137.2601  158.4703 H   0  0  0  0  0  0  0  0  0  0  0  0
  148.5600  135.9665  157.7265 H   0  0  0  0  0  0  0  0  0  0  0  0
  147.0824  133.2777  162.5485 H   0  0  0  0  0  0  0  0  0  0  0  0
  148.5771  131.7202  159.5423 H   0  0  0  0  0  0  0  0  0  0  0  0
  149.9460  131.2603  161.4265 H   0  0  0  0  0  0  0  0  0  0  0  0
  148.7709  131.9237  162.5733 H   0  0  0  0  0  0  0  0  0  0  0  0
  148.6280  129.2647  161.1195 H   0  0  0  0  0  0  0  0  0  0  0  0
  148.3446  129.5576  162.8402 H   0  0  0  0  0  0  0  0  0  0  0  0
  146.2139  129.4106  161.1766 H   0  0  0  0  0  0  0  0  0  0  0  0
  146.2559  130.7113  162.3657 H   0  0  0  0  0  0  0  0  0  0  0  0
  152.6841  138.1657  159.2136 H   0  0  0  0  0  0  0  0  0  0  0  0
  152.1626  139.5294  160.2034 H   0  0  0  0  0  0  0  0  0  0  0  0
  153.2065  139.7709  158.8035 H   0  0  0  0  0  0  0  0  0  0  0  0
  152.8809  141.2394  157.4709 H   0  0  0  0  0  0  0  0  0  0  0  0
  151.8179  141.9649  156.3169 H   0  0  0  0  0  0  0  0  0  0  0  0
  153.1704  142.7852  159.8028 H   0  0  0  0  0  0  0  0  0  0  0  0
  151.6651  144.8650  160.7780 H   0  0  0  0  0  0  0  0  0  0  0  0
  149.5238  145.0071  159.0519 H   0  0  0  0  0  0  0  0  0  0  0  0
  1  2  1  0  0  0  0
  1 31  1  0  0  0  0
  1 32  1  0  0  0  0
  1 33  1  0  0  0  0
  2 24  1  0  0  0  0
  2  3  2  0  0  0  0
  3  4  1  0  0  0  0
  3 34  1  0  0  0  0
  4  5  1  0  0  0  0
  4 22  2  0  0  0  0
  5  6  2  0  0  0  0
  5  7  1  0  0  0  0
  7  8  1  0  0  0  0
  7 35  1  0  0  0  0
  7 36  1  0  0  0  0
  8 20  1  0  0  0  0
  8  9  1  0  0  0  0
  9 10  2  0  0  0  0
  9 11  1  0  0  0  0
 11 12  1  0  0  0  0
 11 13  2  0  0  0  0
 13 14  1  0  0  0  0
 13 37  1  0  0  0  0
 14 15  1  0  0  0  0
 14 20  1  0  0  0  0
 15 19  1  0  0  0  0
 15 16  1  0  0  0  0
 15 38  1  0  0  0  0
 16 17  1  0  0  0  0
 16 39  1  0  0  0  0
 16 40  1  0  0  0  0
 17 18  1  0  0  0  0
 17 41  1  0  0  0  0
 17 42  1  0  0  0  0
 18 19  1  0  0  0  0
 18 43  1  0  0  0  0
 18 44  1  0  0  0  0
 20 21  2  0  0  0  0
 22 23  1  0  0  0  0
 22 24  1  0  0  0  0
 23 45  1  0  0  0  0
 23 46  1  0  0  0  0
 23 47  1  0  0  0  0
 24 25  1  0  0  0  0
 25 26  1  0  0  0  0
 25 48  1  0  0  0  0
 25 49  1  0  0  0  0
 26 30  1  0  0  0  0
 26 27  2  0  0  0  0
 27 28  1  0  0  0  0
 27 50  1  0  0  0  0
 28 29  2  0  0  0  0
 28 51  1  0  0  0  0
 29 30  1  0  0  0  0
 29 52  1  0  0  0  0
M  END
> <s_m_source_file>
AV-unprocessed.smi

> <i_m_source_file_index>
138

> <i_lp_mmshare_version>
43012

> <i_f3d_flags>
0

> <s_epik_input>
bzFbY0hdW2NIXVtjSF1jMVtDSDJdbjJjKFtDSDNdKWMoW2NIXWMyW0NIM10pQyg9TylbQ0gyXW4zYyg9TyljKEYpW2NIXW4oYzM9TylbQ0BASF00W0NIMl1bQ0gyXVtDSDJdTzQ=

> <s_epik_cmdline>
J2VwaWtfcHl0aG9uJywgJy1waCcsICc3LjAnLCAnLXRuJywgJzgnLCAnLW1hJywgJzIwMCcsICctbWV0YWxfYmluZGluZycsICctaW1hZScsICc8aW5maWxlLm1hZT4nLCAnLW9tYWUnLCAnPG91dGZpbGUubWFlPic=

> <r_lp_tautomer_probability>
1

> <r_epik_Ionization_Penalty>
5.03107e-09

> <r_epik_Ionization_Penalty_Charging>
5.01743e-09

> <r_epik_Ionization_Penalty_Neutral>
1.36377e-11

> <r_epik_State_Penalty>
-0

> <r_epik_Charging_Adjusted_Penalty>
5.01743e-09

> <i_epik_Tot_Q>
0

> <i_epik_Tot_abs_Q>
0

> <r_epik_Metal_State_Penalty>
-0

> <b_epik_Metal_Only>
0

> <s_epik_Chemistry_Notes>
This compound contains an acetal/aminal-like group ( X-CH(R)-Y where X, Y are N, S, or O) that may be acid/base labile, releasing an aldehyde.

> <s_lp_Force_Field>
OPLS_2005

> <r_lp_Energy>
34.2081

> <b_lp_Chiralities_Consistent>
1

> <s_lp_Variant>
AV-unprocessed.smi:138-2

> <Gold.Version>
5.8.1

> <Gold.Id.Protein>
6NUR|6NUR_protein|mol2

> <Gold.PLP.Fitness>
57.1728

> <Gold.PLP.PLP>
-45.5537

> <Gold.PLP.part.hbond>
-3.8317

> <Gold.PLP.part.metal>
0.0000

> <Gold.PLP.part.buried>
-6.0856

> <Gold.PLP.part.nonpolar>
-35.3685

> <Gold.PLP.part.repulsive>
0.2430

> <Gold.PLP.ligand.clash>
0.0000

> <Gold.PLP.ligand.torsion>
1.0924

> <Gold.PLP.Chemscore.Hbond>
3.5189

> <Gold.PLP.Chemscore.CHOScore>
0.9962

> <Gold.PLP.Chemscore.Metal>
0.0000

> <Gold.Chemscore.Hbonds>
donor molecule, donor type, donor heavy atom, donor atom, acceptor molecule, acceptor atom, score
      P1  H  6896  6908       L1    21  0.65
      P1  H  6896  6909       L1     6  0.98
      P1  H  6931  6943       L1    10  0.72
      P1  H  6934  6947       L1    10  1.00
      L1  C    29    52       P1  8029  0.87

> <Gold.PLP.Chemscore.Internal.Correction>
0.2584

> <Gold.Rescore>
     Score         DG    S(hbond)    S(metal)    S(lipo)     H(rot)  DE(clash)    DE(int)     intcor
     19.34     -21.61       2.73        0.00     103.71       2.00       0.17       2.11       ----

> <Gold.Chemscore.Fitness>
19.3366

> <Gold.Chemscore.DG>
-21.6134

> <Gold.Chemscore.ZeroCoef>
-5.4800

> <Gold.Chemscore.Hbond>
2.7270

> <Gold.Chemscore.Metal>
0.0000

> <Gold.Chemscore.Lipo>
103.7125

> <Gold.Chemscore.Internal_Hbond>
0.0000

> <Gold.Chemscore.DEClash>
0.1693

> <Gold.Chemscore.DEInternal>
2.1075

> <Gold.Chemscore.Rot>
1.9958

> <Gold.Chemscore.Internal.Correction>
   9.000000E+99

> <Gold.Chemscore.Hbonds>
donor molecule, donor type, donor heavy atom, donor atom, acceptor molecule, acceptor atom, score
      P1  H  6896  6908       L1    21  0.09
      P1  H  6896  6909       L1     6  0.93
      P1  H  6931  6943       L1    10  0.53
      P1  H  6934  6947       L1    10  0.94

> <Gold.Chemscore.Hbond.Weighted>
-9.1083

> <Gold.Chemscore.Metal.Weighted>
-0.0000

> <Gold.Chemscore.Lipo.Weighted>
-12.1344

> <Gold.Chemscore.Internal_Hbond.Weighted>
0.0000

> <Gold.Chemscore.DEClash.Weighted>
0.1693

> <Gold.Chemscore.DEInternal.Weighted>
2.1075

> <Gold.Chemscore.Rot.Weighted>
5.1092

> <Gold.Chemscore.Internal.Correction.Weighted>
   9.000000E+99

> <Gold.Protein.RotatedTorsions>
[ 6907 6896 6895 6894 ] final  119.44 input  -60.11 | X-H torsion
[ 7974 7965 7964 7962 ] final   36.04 input  175.53 | X-H torsion
[ 8008 7997 7996 7995 ] final  -56.15 input   59.86 | X-H torsion
[ 10167 10162 10161 10158 ] final  -36.21 input  -65.29 | X-H torsion
[ 10718 10713 10712 10709 ] final  -59.11 input   66.30 | X-H torsion
[ 10763 10752 10751 10750 ] final   79.07 input  -60.55 | X-H torsion
[ 11005 11000 10999 10996 ] final  158.36 input  -57.11 | X-H torsion

> <Gold.Protein.ActiveResidues>
 VAL166  LYS551  ARG553  GLY616  TRP617  ASP618  TYR619  PRO620  LYS621  CYS622 
 ASP623  PHE694  ASN695  SER759  ASP760  ASP761  ALA762  ILE779  LEU786  VAL792 
 PHE793  MET794  SER795  GLU796  ALA797  LYS798  CYS799  TRP800  GLU811  SER814 

> <Gold.Protein.RotatedAtoms>
  152.4471  133.7558  159.6718 H   0  0  0  0  0  0  0  0  0  0  0  0  # atno 6907 bound_to 6896
  150.8374  133.7981  159.3080 H   0  0  0  0  0  0  0  0  0  0  0  0  # atno 6908 bound_to 6896
  151.5616  135.1068  160.0026 H   0  0  0  0  0  0  0  0  0  0  0  0  # atno 6909 bound_to 6896
  146.1240  139.6067  142.9271 H   0  0  0  0  0  0  0  0  0  0  0  0  # atno 7974 bound_to 7965
  154.4220  140.1136  156.5591 H   0  0  0  0  0  0  0  0  0  0  0  0  # atno 8008 bound_to 7997
  155.6330  140.3496  155.4670 H   0  0  0  0  0  0  0  0  0  0  0  0  # atno 8009 bound_to 7997
  155.9933  140.1184  157.0607 H   0  0  0  0  0  0  0  0  0  0  0  0  # atno 8010 bound_to 7997
  140.7148  143.3424  151.2328 H   0  0  0  0  0  0  0  0  0  0  0  0  # atno 10167 bound_to 10162
  156.1085  130.4177  150.0670 H   0  0  0  0  0  0  0  0  0  0  0  0  # atno 10718 bound_to 10713
  153.0924  135.4853  154.8714 H   0  0  0  0  0  0  0  0  0  0  0  0  # atno 10763 bound_to 10752
  154.7284  135.3055  154.8934 H   0  0  0  0  0  0  0  0  0  0  0  0  # atno 10764 bound_to 10752
  153.9577  135.6816  153.4798 H   0  0  0  0  0  0  0  0  0  0  0  0  # atno 10765 bound_to 10752
  140.1858  134.8443  157.2855 H   0  0  0  0  0  0  0  0  0  0  0  0  # atno 11005 bound_to 11000
  145.5405  141.0421  143.2333 LP  0  0  0  0  0  0  0  0  0  0  0  0  # atno 17320 bound_to 7965
  144.7624  139.6925  143.7229 LP  0  0  0  0  0  0  0  0  0  0  0  0  # atno 17321 bound_to 7965
  139.6935  143.9652  152.2871 LP  0  0  0  0  0  0  0  0  0  0  0  0  # atno 17342 bound_to 10162
  139.9321  144.6735  150.8352 LP  0  0  0  0  0  0  0  0  0  0  0  0  # atno 17343 bound_to 10162
  156.8640  130.9501  151.3615 LP  0  0  0  0  0  0  0  0  0  0  0  0  # atno 17370 bound_to 10713
  157.6264  130.8695  149.9197 LP  0  0  0  0  0  0  0  0  0  0  0  0  # atno 17371 bound_to 10713
  140.2216  134.4017  155.7563 LP  0  0  0  0  0  0  0  0  0  0  0  0  # atno 17394 bound_to 11000
  141.2225  133.7168  156.8499 LP  0  0  0  0  0  0  0  0  0  0  0  0  # atno 17395 bound_to 11000

$$$$
