AV-unprocessed.smi:72|AV-procd|sdf|664|dock7
  -GOLD-   2262016563D 1   1.00000     0.00000
 Structure written by MMmdl.
 29 30  0  0  0  0  0  0  0  0  1 V2000
  152.8517  138.0635  158.9671 N   0  0  0  0  0  0  0  0  0  0  0  0
  152.0446  138.4180  158.0318 C   0  0  0  0  0  0  0  0  0  0  0  0
  150.6473  138.3000  158.0796 N   0  0  0  0  0  0  0  0  0  0  0  0
  149.9532  138.6999  157.0591 C   0  0  0  0  0  0  0  0  0  0  0  0
  150.5767  139.2623  155.8693 N   0  0  0  0  0  0  0  0  0  0  0  0
  149.7657  139.7327  154.6762 C   0  0  1  0  0  0  0  0  0  0  0  0
  148.4868  139.1627  154.7201 O   0  0  0  0  0  0  0  0  0  0  0  0
  147.5165  140.1796  154.9406 C   0  0  2  0  0  0  0  0  0  0  0  0
  146.1266  139.7207  154.4640 C   0  0  0  0  0  0  0  0  0  0  0  0
  146.0967  139.4676  153.0745 O   0  0  0  0  0  0  0  0  0  0  0  0
  148.1187  141.4113  154.2638 C   0  0  1  0  0  0  0  0  0  0  0  0
  147.5386  142.6266  154.6999 O   0  0  0  0  0  0  0  0  0  0  0  0
  149.5965  141.2730  154.6192 C   0  0  1  0  0  0  0  0  0  0  0  0
  149.9202  141.9247  155.8389 O   0  0  0  0  0  0  0  0  0  0  0  0
  151.9847  139.3966  155.8101 C   0  0  0  0  0  0  0  0  0  0  0  0
  152.5596  139.8855  154.8378 O   0  0  0  0  0  0  0  0  0  0  0  0
  152.6597  138.9607  156.8957 N   0  0  0  0  0  0  0  0  0  0  0  0
  150.2681  139.3260  153.7970 H   0  0  0  0  0  0  0  0  0  0  0  0
  147.4720  140.3511  156.0175 H   0  0  0  0  0  0  0  0  0  0  0  0
  148.0150  141.3397  153.1808 H   0  0  0  0  0  0  0  0  0  0  0  0
  150.2345  141.6814  153.8349 H   0  0  0  0  0  0  0  0  0  0  0  0
  153.8075  138.2481  158.7000 H   0  0  0  0  0  0  0  0  0  0  0  0
  148.8654  138.6401  157.0342 H   0  0  0  0  0  0  0  0  0  0  0  0
  145.8117  138.8287  155.0060 H   0  0  0  0  0  0  0  0  0  0  0  0
  145.3917  140.4976  154.6761 H   0  0  0  0  0  0  0  0  0  0  0  0
  145.2176  139.6154  152.7606 H   0  0  0  0  0  0  0  0  0  0  0  0
  148.1533  143.0647  155.2681 H   0  0  0  0  0  0  0  0  0  0  0  0
  149.6296  142.8220  155.7851 H   0  0  0  0  0  0  0  0  0  0  0  0
  153.6658  139.0407  156.8807 H   0  0  0  0  0  0  0  0  0  0  0  0
  1  2  2  0  0  0  0
  1 22  1  0  0  0  0
  2 17  1  0  0  0  0
  2  3  1  0  0  0  0
  3  4  2  0  0  0  0
  4  5  1  0  0  0  0
  4 23  1  0  0  0  0
  5  6  1  0  0  0  0
  5 15  1  0  0  0  0
  6 18  1  0  0  0  0
  6 13  1  0  0  0  0
  6  7  1  0  0  0  0
  7  8  1  0  0  0  0
  8 19  1  0  0  0  0
  8  9  1  0  0  0  0
  8 11  1  0  0  0  0
  9 10  1  0  0  0  0
  9 24  1  0  0  0  0
  9 25  1  0  0  0  0
 10 26  1  0  0  0  0
 11 20  1  0  0  0  0
 11 12  1  0  0  0  0
 11 13  1  0  0  0  0
 12 27  1  0  0  0  0
 13 21  1  0  0  0  0
 13 14  1  0  0  0  0
 14 28  1  0  0  0  0
 15 16  2  0  0  0  0
 15 17  1  0  0  0  0
 17 29  1  0  0  0  0
M  END
> <s_m_source_file>
AV-unprocessed.smi

> <i_m_source_file_index>
72

> <i_lp_mmshare_version>
43012

> <i_f3d_flags>
0

> <s_epik_input>
W05IMl1jMW5bY0hdbihjKD1PKW4xKVtDQEBIXTJPW0NASF0oW0NIMl1bT0hdKVtDQEBIXShbT0hdKVtDQEhdMltPSF0=

> <s_epik_cmdline>
J2VwaWtfcHl0aG9uJywgJy1waCcsICc3LjAnLCAnLXRuJywgJzgnLCAnLW1hJywgJzIwMCcsICctbWV0YWxfYmluZGluZycsICctaW1hZScsICc8aW5maWxlLm1hZT4nLCAnLW9tYWUnLCAnPG91dGZpbGUubWFlPic=

> <r_lp_tautomer_probability>
7.17554e-07

> <r_epik_Ionization_Penalty>
0.0066451

> <r_epik_Ionization_Penalty_Charging>
0.00663793

> <r_epik_Ionization_Penalty_Neutral>
7.17052e-06

> <r_epik_State_Penalty>
0.419231

> <r_epik_Charging_Adjusted_Penalty>
0.425868

> <i_epik_Tot_Q>
0

> <i_epik_Tot_abs_Q>
0

> <r_epik_Metal_State_Penalty>
1.44144

> <b_epik_Metal_Only>
0

> <s_epik_Chemistry_Notes>
This compound contains an acetal/aminal-like group ( X-CH(R)-Y where X, Y are N, S, or O) that may be acid/base labile, releasing an aldehyde.

> <s_lp_Force_Field>
OPLS_2005

> <r_lp_Energy>
49.4302

> <b_lp_Chiralities_Consistent>
1

> <s_lp_Variant>
AV-unprocessed.smi:72-2

> <Gold.Version>
5.8.1

> <Gold.Id.Protein>
6NUR|6NUR_protein|mol2

> <Gold.PLP.Fitness>
33.3046

> <Gold.PLP.PLP>
-20.7495

> <Gold.PLP.part.hbond>
-4.9487

> <Gold.PLP.part.metal>
0.0000

> <Gold.PLP.part.buried>
-2.3402

> <Gold.PLP.part.nonpolar>
-13.6771

> <Gold.PLP.part.repulsive>
0.6265

> <Gold.PLP.ligand.clash>
0.0000

> <Gold.PLP.ligand.torsion>
0.5038

> <Gold.PLP.Chemscore.Hbond>
4.5048

> <Gold.PLP.Chemscore.CHOScore>
0.0000

> <Gold.PLP.Chemscore.Metal>
0.0000

> <Gold.Chemscore.Hbonds>
donor molecule, donor type, donor heavy atom, donor atom, acceptor molecule, acceptor atom, score
      L1  H    10    26       P1 10175  1.00
      L1  H    12    27       P1  8028  0.83
      L1  H    14    28       P1  8028  0.98
      P1  H  7989  7998       L1    16  0.54
      P1  H  7997  8009       L1    16  0.46

> <Gold.PLP.Chemscore.Internal.Correction>
0.0484

> <Gold.Rescore>
     Score         DG    S(hbond)    S(metal)    S(lipo)     H(rot)  DE(clash)    DE(int)     intcor
     10.32     -11.04       4.00        0.00      22.31       4.06       0.11       0.61       ----

> <Gold.Chemscore.Fitness>
10.3158

> <Gold.Chemscore.DG>
-11.0426

> <Gold.Chemscore.ZeroCoef>
-5.4800

> <Gold.Chemscore.Hbond>
3.9957

> <Gold.Chemscore.Metal>
0.0000

> <Gold.Chemscore.Lipo>
22.3133

> <Gold.Chemscore.Internal_Hbond>
0.0000

> <Gold.Chemscore.DEClash>
0.1140

> <Gold.Chemscore.DEInternal>
0.6128

> <Gold.Chemscore.Rot>
4.0600

> <Gold.Chemscore.Internal.Correction>
   9.000000E+99

> <Gold.Chemscore.Hbonds>
donor molecule, donor type, donor heavy atom, donor atom, acceptor molecule, acceptor atom, score
      L1  H    10    26       P1 10175  0.99
      L1  H    12    27       P1  8028  0.77
      L1  H    14    28       P1  8028  0.91
      P1  H  7989  7998       L1    16  0.56
      P1  H  7997  8009       L1    16  0.06

> <Gold.Chemscore.Hbond.Weighted>
-13.3455

> <Gold.Chemscore.Metal.Weighted>
-0.0000

> <Gold.Chemscore.Lipo.Weighted>
-2.6107

> <Gold.Chemscore.Internal_Hbond.Weighted>
0.0000

> <Gold.Chemscore.DEClash.Weighted>
0.1140

> <Gold.Chemscore.DEInternal.Weighted>
0.6128

> <Gold.Chemscore.Rot.Weighted>
10.3936

> <Gold.Chemscore.Internal.Correction.Weighted>
   9.000000E+99

> <Gold.Protein.RotatedTorsions>
[ 6907 6896 6895 6894 ] final -115.02 input  -60.11 | X-H torsion
[ 7974 7965 7964 7962 ] final  -63.05 input  175.53 | X-H torsion
[ 8008 7997 7996 7995 ] final -134.80 input   59.86 | X-H torsion
[ 10167 10162 10161 10158 ] final   62.32 input  -65.29 | X-H torsion
[ 10718 10713 10712 10709 ] final  176.24 input   66.30 | X-H torsion
[ 10763 10752 10751 10750 ] final  168.58 input  -60.55 | X-H torsion
[ 11005 11000 10999 10996 ] final  113.03 input  -57.11 | X-H torsion

> <Gold.Protein.ActiveResidues>
 VAL166  LYS551  ARG553  GLY616  TRP617  ASP618  TYR619  PRO620  LYS621  CYS622 
 ASP623  PHE694  ASN695  SER759  ASP760  ASP761  ALA762  ILE779  LEU786  VAL792 
 PHE793  MET794  SER795  GLU796  ALA797  LYS798  CYS799  TRP800  GLU811  SER814 

> <Gold.Protein.RotatedAtoms>
  150.7946  133.8718  159.3260 H   0  0  0  0  0  0  0  0  0  0  0  0  # atno 6907 bound_to 6896
  151.6546  135.0995  160.0177 H   0  0  0  0  0  0  0  0  0  0  0  0  # atno 6908 bound_to 6896
  152.4026  133.6801  159.6364 H   0  0  0  0  0  0  0  0  0  0  0  0  # atno 6909 bound_to 6896
  145.7839  140.8747  143.0316 H   0  0  0  0  0  0  0  0  0  0  0  0  # atno 7974 bound_to 7965
  155.3681  140.0486  157.3046 H   0  0  0  0  0  0  0  0  0  0  0  0  # atno 8008 bound_to 7997
  154.5144  140.2203  155.9058 H   0  0  0  0  0  0  0  0  0  0  0  0  # atno 8009 bound_to 7997
  156.1619  140.3114  155.8828 H   0  0  0  0  0  0  0  0  0  0  0  0  # atno 8010 bound_to 7997
  140.1452  144.4516  150.6789 H   0  0  0  0  0  0  0  0  0  0  0  0  # atno 10167 bound_to 10162
  156.9230  130.9946  151.3001 H   0  0  0  0  0  0  0  0  0  0  0  0  # atno 10718 bound_to 10713
  154.3707  135.2753  155.2268 H   0  0  0  0  0  0  0  0  0  0  0  0  # atno 10763 bound_to 10752
  154.4416  135.5953  153.6137 H   0  0  0  0  0  0  0  0  0  0  0  0  # atno 10764 bound_to 10752
  152.9838  135.6020  154.3938 H   0  0  0  0  0  0  0  0  0  0  0  0  # atno 10765 bound_to 10752
  139.8942  134.9542  156.6676 H   0  0  0  0  0  0  0  0  0  0  0  0  # atno 11005 bound_to 11000
  144.6792  140.0027  143.7484 LP  0  0  0  0  0  0  0  0  0  0  0  0  # atno 17320 bound_to 7965
  146.0046  139.3119  143.0907 LP  0  0  0  0  0  0  0  0  0  0  0  0  # atno 17321 bound_to 7965
  140.6736  143.2296  151.5563 LP  0  0  0  0  0  0  0  0  0  0  0  0  # atno 17342 bound_to 10162
  139.5453  144.2539  152.1429 LP  0  0  0  0  0  0  0  0  0  0  0  0  # atno 17343 bound_to 10162
  157.5896  130.8434  149.8639 LP  0  0  0  0  0  0  0  0  0  0  0  0  # atno 17370 bound_to 10713
  156.0482  130.3723  150.1265 LP  0  0  0  0  0  0  0  0  0  0  0  0  # atno 17371 bound_to 10713
  140.7398  133.8987  155.8270 LP  0  0  0  0  0  0  0  0  0  0  0  0  # atno 17394 bound_to 11000
  141.0086  134.1051  157.4244 LP  0  0  0  0  0  0  0  0  0  0  0  0  # atno 17395 bound_to 11000

$$$$
