AV-unprocessed.smi:581|AV-procd|sdf|2993|dock9
  -GOLD-   2262023503D 1   1.00000     0.00000
 Structure written by MMmdl.
 35 36  0  0  0  0  0  0  0  0  2 V2000
  153.0473  137.6934  158.0229 C   0  0  0  0  0  0  0  0  0  0  0  0
  152.3570  138.8922  157.3989 C   0  0  0  0  0  0  0  0  0  0  0  0
  152.3401  140.0171  158.1466 N   0  0  0  0  0  0  0  0  0  0  0  0
  151.7343  141.0985  157.6426 C   0  0  0  0  0  0  0  0  0  0  0  0
  151.7178  142.2579  158.4292 N   0  0  0  0  0  0  0  0  0  0  0  0
  152.2115  142.2753  159.8081 C   0  0  0  0  0  0  0  0  0  0  0  0
  152.8418  143.6375  160.1430 C   0  0  0  0  0  0  0  0  0  0  0  0
  151.9067  144.6783  159.8872 O   0  0  0  0  0  0  0  0  0  0  0  0
  151.5322  144.7206  158.5158 C   0  0  0  0  0  0  0  0  0  0  0  0
  150.8526  143.3990  158.1205 C   0  0  0  0  0  0  0  0  0  0  0  0
  151.1394  141.1520  156.4444 N   0  0  0  0  0  0  0  0  0  0  0  0
  151.1444  140.0411  155.6774 C   0  0  0  0  0  0  0  0  0  0  0  0
  150.5291  140.1021  154.4608 O   0  0  0  0  0  0  0  0  0  0  0  0
  151.7606  138.8459  156.1159 C   0  0  0  0  0  0  0  0  0  0  0  0
  151.7640  137.5855  155.2582 C   0  0  0  0  0  0  0  0  0  0  0  0
  150.6747  136.5854  155.6956 C   0  0  0  0  0  0  0  0  0  0  0  0
  151.1014  135.7013  156.8750 C   0  0  0  0  0  0  0  0  0  0  0  0
  150.3427  135.7021  157.8687 O   0  0  0  0  0  0  0  0  0  0  0  0
  152.1652  135.0482  156.7847 O   0  5  0  0  0  0  0  0  0  0  0  0
  150.3038  139.2491  154.1239 H   0  0  0  0  0  0  0  0  0  0  0  0
  152.3900  136.8240  158.0140 H   0  0  0  0  0  0  0  0  0  0  0  0
  153.3276  137.8898  159.0585 H   0  0  0  0  0  0  0  0  0  0  0  0
  153.9540  137.4482  157.4697 H   0  0  0  0  0  0  0  0  0  0  0  0
  152.9572  141.5015  159.9879 H   0  0  0  0  0  0  0  0  0  0  0  0
  151.3769  142.0727  160.4801 H   0  0  0  0  0  0  0  0  0  0  0  0
  153.1278  143.6689  161.1944 H   0  0  0  0  0  0  0  0  0  0  0  0
  153.7511  143.7979  159.5616 H   0  0  0  0  0  0  0  0  0  0  0  0
  150.8470  145.5543  158.3615 H   0  0  0  0  0  0  0  0  0  0  0  0
  152.4082  144.9089  157.8925 H   0  0  0  0  0  0  0  0  0  0  0  0
  149.9167  143.2824  158.6678 H   0  0  0  0  0  0  0  0  0  0  0  0
  150.5936  143.4499  157.0635 H   0  0  0  0  0  0  0  0  0  0  0  0
  152.7485  137.1196  155.2988 H   0  0  0  0  0  0  0  0  0  0  0  0
  151.6184  137.8652  154.2141 H   0  0  0  0  0  0  0  0  0  0  0  0
  149.7687  137.1209  155.9806 H   0  0  0  0  0  0  0  0  0  0  0  0
  150.4078  135.9390  154.8585 H   0  0  0  0  0  0  0  0  0  0  0  0
  1 21  1  0  0  0  0
  1 22  1  0  0  0  0
  1 23  1  0  0  0  0
  1  2  1  0  0  0  0
  2 14  2  0  0  0  0
  2  3  1  0  0  0  0
  3  4  2  0  0  0  0
  4  5  1  0  0  0  0
  4 11  1  0  0  0  0
  5 10  1  0  0  0  0
  5  6  1  0  0  0  0
  6  7  1  0  0  0  0
  6 24  1  0  0  0  0
  6 25  1  0  0  0  0
  7  8  1  0  0  0  0
  7 26  1  0  0  0  0
  7 27  1  0  0  0  0
  8  9  1  0  0  0  0
  9 10  1  0  0  0  0
  9 28  1  0  0  0  0
  9 29  1  0  0  0  0
 10 30  1  0  0  0  0
 10 31  1  0  0  0  0
 11 12  2  0  0  0  0
 12 13  1  0  0  0  0
 12 14  1  0  0  0  0
 13 20  1  0  0  0  0
 14 15  1  0  0  0  0
 15 16  1  0  0  0  0
 15 32  1  0  0  0  0
 15 33  1  0  0  0  0
 16 17  1  0  0  0  0
 16 34  1  0  0  0  0
 16 35  1  0  0  0  0
 17 18  2  0  0  0  0
 17 19  1  0  0  0  0
M  CHG  1  19  -1
M  END
> <s_m_source_file>
AV-unprocessed.smi

> <i_m_source_file_index>
581

> <i_lp_mmshare_version>
43012

> <i_f3d_flags>
0

> <s_epik_input>
W0NIMl0xW0NIMl1PW0NIMl1bQ0gyXU4xYyhuYzJbQ0gzXSlbbkhdYyg9TyljMltDSDJdW0NIMl1DKD1PKVtPSF0=

> <s_epik_cmdline>
J2VwaWtfcHl0aG9uJywgJy1waCcsICc3LjAnLCAnLXRuJywgJzgnLCAnLW1hJywgJzIwMCcsICctbWV0YWxfYmluZGluZycsICctaW1hZScsICc8aW5maWxlLm1hZT4nLCAnLW9tYWUnLCAnPG91dGZpbGUubWFlPic=

> <r_lp_tautomer_probability>
0.0131408

> <r_epik_Ionization_Penalty>
9.14148

> <r_epik_Ionization_Penalty_Charging>
0.00124504

> <r_epik_Ionization_Penalty_Neutral>
9.14023

> <r_epik_State_Penalty>
2.72329

> <r_epik_Charging_Adjusted_Penalty>
2.72453

> <i_epik_Tot_Q>
-1

> <i_epik_Tot_abs_Q>
1

> <r_epik_Metal_State_Penalty>
2.96989

> <b_epik_Metal_Only>
0

> <s_lp_Force_Field>
OPLS_2005

> <r_lp_Energy>
10.3836

> <b_lp_Chiralities_Consistent>
1

> <s_lp_Variant>
AV-unprocessed.smi:581-3

> <Gold.Version>
5.8.1

> <Gold.Id.Protein>
6NUR|6NUR_protein|mol2

> <Gold.PLP.Fitness>
44.8419

> <Gold.PLP.PLP>
-32.4394

> <Gold.PLP.part.hbond>
-3.1117

> <Gold.PLP.part.metal>
0.0000

> <Gold.PLP.part.buried>
-6.6371

> <Gold.PLP.part.nonpolar>
-24.1578

> <Gold.PLP.part.repulsive>
0.0932

> <Gold.PLP.ligand.clash>
0.0000

> <Gold.PLP.ligand.torsion>
0.4846

> <Gold.PLP.Chemscore.Hbond>
4.4274

> <Gold.PLP.Chemscore.CHOScore>
0.0000

> <Gold.PLP.Chemscore.Metal>
0.0000

> <Gold.Chemscore.Hbonds>
donor molecule, donor type, donor heavy atom, donor atom, acceptor molecule, acceptor atom, score
      P1  H  6896  6909       L1    18  1.41
      P1  H  7989  7998       L1    13  1.00
      P1  H 10752 10765       L1    19  2.00

> <Gold.PLP.Chemscore.Internal.Correction>
0.0894

> <Gold.Rescore>
     Score         DG    S(hbond)    S(metal)    S(lipo)     H(rot)  DE(clash)    DE(int)     intcor
     14.79     -15.37       2.39        0.00      70.35       2.48       0.00       0.58       ----

> <Gold.Chemscore.Fitness>
14.7904

> <Gold.Chemscore.DG>
-15.3656

> <Gold.Chemscore.ZeroCoef>
-5.4800

> <Gold.Chemscore.Hbond>
2.3942

> <Gold.Chemscore.Metal>
0.0000

> <Gold.Chemscore.Lipo>
70.3509

> <Gold.Chemscore.Internal_Hbond>
0.0000

> <Gold.Chemscore.DEClash>
0.0000

> <Gold.Chemscore.DEInternal>
0.5752

> <Gold.Chemscore.Rot>
2.4774

> <Gold.Chemscore.Internal.Correction>
   9.000000E+99

> <Gold.Chemscore.Hbonds>
donor molecule, donor type, donor heavy atom, donor atom, acceptor molecule, acceptor atom, score
      P1  H  6896  6909       L1    18  0.65
      P1  H  7989  7998       L1    13  0.37
      P1  H 10752 10765       L1    19  0.91

> <Gold.Chemscore.Hbond.Weighted>
-7.9966

> <Gold.Chemscore.Metal.Weighted>
-0.0000

> <Gold.Chemscore.Lipo.Weighted>
-8.2311

> <Gold.Chemscore.Internal_Hbond.Weighted>
0.0000

> <Gold.Chemscore.DEClash.Weighted>
0.0000

> <Gold.Chemscore.DEInternal.Weighted>
0.5752

> <Gold.Chemscore.Rot.Weighted>
6.3420

> <Gold.Chemscore.Internal.Correction.Weighted>
   9.000000E+99

> <Gold.Protein.RotatedTorsions>
[ 6907 6896 6895 6894 ] final   53.68 input  -60.11 | X-H torsion
[ 7974 7965 7964 7962 ] final -112.32 input  175.53 | X-H torsion
[ 8008 7997 7996 7995 ] final   45.63 input   59.86 | X-H torsion
[ 10167 10162 10161 10158 ] final -132.06 input  -65.29 | X-H torsion
[ 10718 10713 10712 10709 ] final   12.49 input   66.30 | X-H torsion
[ 10763 10752 10751 10750 ] final -138.51 input  -60.55 | X-H torsion
[ 11005 11000 10999 10996 ] final   -6.79 input  -57.11 | X-H torsion

> <Gold.Protein.ActiveResidues>
 VAL166  LYS551  ARG553  GLY616  TRP617  ASP618  TYR619  PRO620  LYS621  CYS622 
 ASP623  PHE694  ASN695  SER759  ASP760  ASP761  ALA762  ILE779  LEU786  VAL792 
 PHE793  MET794  SER795  GLU796  ALA797  LYS798  CYS799  TRP800  GLU811  SER814 

> <Gold.Protein.RotatedAtoms>
  152.3362  134.7195  160.0276 H   0  0  0  0  0  0  0  0  0  0  0  0  # atno 6907 bound_to 6896
  151.7595  133.3327  159.3422 H   0  0  0  0  0  0  0  0  0  0  0  0  # atno 6908 bound_to 6896
  150.7452  134.6051  159.6101 H   0  0  0  0  0  0  0  0  0  0  0  0  # atno 6909 bound_to 6896
  145.1454  140.8800  143.3677 H   0  0  0  0  0  0  0  0  0  0  0  0  # atno 7974 bound_to 7965
  155.3390  140.3407  155.4239 H   0  0  0  0  0  0  0  0  0  0  0  0  # atno 8008 bound_to 7997
  156.1823  140.1668  156.8287 H   0  0  0  0  0  0  0  0  0  0  0  0  # atno 8009 bound_to 7997
  154.5347  140.0737  156.8389 H   0  0  0  0  0  0  0  0  0  0  0  0  # atno 8010 bound_to 7997
  139.9124  143.6478  152.2572 H   0  0  0  0  0  0  0  0  0  0  0  0  # atno 10167 bound_to 10162
  157.0110  130.6117  149.5708 H   0  0  0  0  0  0  0  0  0  0  0  0  # atno 10718 bound_to 10713
  154.8635  135.3610  154.5397 H   0  0  0  0  0  0  0  0  0  0  0  0  # atno 10763 bound_to 10752
  153.6019  135.7012  153.5385 H   0  0  0  0  0  0  0  0  0  0  0  0  # atno 10764 bound_to 10752
  153.3283  135.4131  155.1435 H   0  0  0  0  0  0  0  0  0  0  0  0  # atno 10765 bound_to 10752
  140.7058  133.8951  155.8715 H   0  0  0  0  0  0  0  0  0  0  0  0  # atno 11005 bound_to 11000
  145.0488  139.3199  143.5939 LP  0  0  0  0  0  0  0  0  0  0  0  0  # atno 17320 bound_to 7965
  146.3500  139.9888  142.8688 LP  0  0  0  0  0  0  0  0  0  0  0  0  # atno 17321 bound_to 7965
  139.6931  144.7644  151.1404 LP  0  0  0  0  0  0  0  0  0  0  0  0  # atno 17342 bound_to 10162
  140.7682  143.5561  150.9150 LP  0  0  0  0  0  0  0  0  0  0  0  0  # atno 17343 bound_to 10162
  156.0136  130.5229  150.8066 LP  0  0  0  0  0  0  0  0  0  0  0  0  # atno 17370 bound_to 10713
  157.5321  131.0937  150.9942 LP  0  0  0  0  0  0  0  0  0  0  0  0  # atno 17371 bound_to 10713
  141.0126  134.1000  157.4205 LP  0  0  0  0  0  0  0  0  0  0  0  0  # atno 17394 bound_to 11000
  139.8884  135.0098  156.6621 LP  0  0  0  0  0  0  0  0  0  0  0  0  # atno 17395 bound_to 11000

$$$$
