AV-unprocessed.smi:102|AV-procd|sdf|948|dock8
  -GOLD-   2262017473D 1   1.00000     0.00000
 Structure written by MMmdl.
 44 45  0  0  0  0  0  0  0  0  1 V2000
  151.8220  141.5397  158.8283 C   0  0  0  0  0  0  0  0  0  0  0  0
  150.8021  140.7490  158.0187 C   0  0  0  0  0  0  0  0  0  0  0  0
  150.0716  141.2999  157.1949 O   0  0  0  0  0  0  0  0  0  0  0  0
  150.8105  139.4400  158.3128 O   0  0  0  0  0  0  0  0  0  0  0  0
  149.8833  138.5762  157.6775 C   0  0  0  0  0  0  0  0  0  0  0  0
  150.0152  137.1595  158.2690 C   0  0  1  0  0  0  0  0  0  0  0  0
  149.2940  137.0933  159.4947 O   0  0  0  0  0  0  0  0  0  0  0  0
  147.9545  136.8024  159.2314 C   0  0  2  0  0  0  0  0  0  0  0  0
  147.4140  135.9416  160.3510 N   0  0  0  0  0  0  0  0  0  0  0  0
  148.0413  134.7466  160.6778 C   0  0  0  0  0  0  0  0  0  0  0  0
  147.5883  133.9147  161.6454 C   0  0  0  0  0  0  0  0  0  0  0  0
  148.2546  132.7776  161.9078 F   0  0  0  0  0  0  0  0  0  0  0  0
  146.3821  134.2385  162.4011 C   0  0  0  0  0  0  0  0  0  0  0  0
  145.8985  133.5538  163.3004 O   0  0  0  0  0  0  0  0  0  0  0  0
  145.7688  135.4355  162.0212 N   0  0  0  0  0  0  0  0  0  0  0  0
  146.2211  136.2983  161.0213 C   0  0  0  0  0  0  0  0  0  0  0  0
  145.5815  137.3146  160.7580 O   0  0  0  0  0  0  0  0  0  0  0  0
  147.8762  136.1194  157.8520 C   0  0  1  0  0  0  0  0  0  0  0  0
  147.0954  136.9349  156.9818 O   0  0  0  0  0  0  0  0  0  0  0  0
  146.8072  136.5233  155.7345 C   0  0  0  0  0  0  0  0  0  0  0  0
  146.1344  137.6105  154.9078 C   0  0  0  0  0  0  0  0  0  0  0  0
  147.0466  135.4121  155.2625 O   0  0  0  0  0  0  0  0  0  0  0  0
  149.3456  136.0592  157.4341 C   0  0  1  0  0  0  0  0  0  0  0  0
  149.5294  136.1922  156.0279 O   0  0  0  0  0  0  0  0  0  0  0  0
  150.7645  136.1850  155.4994 C   0  0  0  0  0  0  0  0  0  0  0  0
  150.7904  136.7386  154.0811 C   0  0  0  0  0  0  0  0  0  0  0  0
  151.7899  135.7960  156.0581 O   0  0  0  0  0  0  0  0  0  0  0  0
  144.9224  135.6948  162.5069 H   0  0  0  0  0  0  0  0  0  0  0  0
  152.4636  140.8737  159.4060 H   0  0  0  0  0  0  0  0  0  0  0  0
  151.3136  142.2142  159.5174 H   0  0  0  0  0  0  0  0  0  0  0  0
  152.4514  142.1334  158.1653 H   0  0  0  0  0  0  0  0  0  0  0  0
  148.8680  138.9589  157.7865 H   0  0  0  0  0  0  0  0  0  0  0  0
  150.1100  138.5572  156.6109 H   0  0  0  0  0  0  0  0  0  0  0  0
  151.0675  136.9251  158.4327 H   0  0  0  0  0  0  0  0  0  0  0  0
  147.3857  137.7332  159.2659 H   0  0  0  0  0  0  0  0  0  0  0  0
  148.9365  134.4550  160.1473 H   0  0  0  0  0  0  0  0  0  0  0  0
  147.4497  135.1205  157.9498 H   0  0  0  0  0  0  0  0  0  0  0  0
  145.2888  138.0329  155.4509 H   0  0  0  0  0  0  0  0  0  0  0  0
  145.7700  137.2042  153.9638 H   0  0  0  0  0  0  0  0  0  0  0  0
  146.8419  138.4105  154.6892 H   0  0  0  0  0  0  0  0  0  0  0  0
  149.7381  135.0951  157.7593 H   0  0  0  0  0  0  0  0  0  0  0  0
  149.9474  136.3539  153.5066 H   0  0  0  0  0  0  0  0  0  0  0  0
  151.7129  136.4527  153.5752 H   0  0  0  0  0  0  0  0  0  0  0  0
  150.7289  137.8268  154.1010 H   0  0  0  0  0  0  0  0  0  0  0  0
  1  2  1  0  0  0  0
  1 29  1  0  0  0  0
  1 30  1  0  0  0  0
  1 31  1  0  0  0  0
  2  3  2  0  0  0  0
  2  4  1  0  0  0  0
  4  5  1  0  0  0  0
  5  6  1  0  0  0  0
  5 32  1  0  0  0  0
  5 33  1  0  0  0  0
  6 23  1  0  0  0  0
  6  7  1  0  0  0  0
  6 34  1  0  0  0  0
  7  8  1  0  0  0  0
  8  9  1  0  0  0  0
  8 18  1  0  0  0  0
  8 35  1  0  0  0  0
  9 16  1  0  0  0  0
  9 10  1  0  0  0  0
 10 11  2  0  0  0  0
 10 36  1  0  0  0  0
 11 12  1  0  0  0  0
 11 13  1  0  0  0  0
 13 14  2  0  0  0  0
 13 15  1  0  0  0  0
 15 28  1  0  0  0  0
 15 16  1  0  0  0  0
 16 17  2  0  0  0  0
 18 19  1  0  0  0  0
 18 23  1  0  0  0  0
 18 37  1  0  0  0  0
 19 20  1  0  0  0  0
 20 21  1  0  0  0  0
 20 22  2  0  0  0  0
 21 38  1  0  0  0  0
 21 39  1  0  0  0  0
 21 40  1  0  0  0  0
 23 24  1  0  0  0  0
 23 41  1  0  0  0  0
 24 25  1  0  0  0  0
 25 26  1  0  0  0  0
 25 27  2  0  0  0  0
 26 42  1  0  0  0  0
 26 43  1  0  0  0  0
 26 44  1  0  0  0  0
M  END
> <s_m_source_file>
AV-unprocessed.smi

> <i_m_source_file_index>
102

> <i_lp_mmshare_version>
43012

> <i_f3d_flags>
0

> <s_epik_input>
W0NIM11DKD1PKU9bQ0gyXVtDQEBIXTFPW0NASF0oW0NAQEhdKE9DKD1PKVtDSDNdKVtDQEhdMU9DKD1PKVtDSDNdKW4yW2NIXWMoRiljKD1PKVtuSF1jMj1P

> <s_epik_cmdline>
J2VwaWtfcHl0aG9uJywgJy1waCcsICc3LjAnLCAnLXRuJywgJzgnLCAnLW1hJywgJzIwMCcsICctbWV0YWxfYmluZGluZycsICctaW1hZScsICc8aW5maWxlLm1hZT4nLCAnLW9tYWUnLCAnPG91dGZpbGUubWFlPic=

> <r_lp_tautomer_probability>
0.999537

> <r_epik_Ionization_Penalty>
0.058267

> <r_epik_Ionization_Penalty_Charging>
0.058267

> <r_epik_Ionization_Penalty_Neutral>
6.57791e-16

> <r_epik_State_Penalty>
0.0503774

> <r_epik_Charging_Adjusted_Penalty>
0.108644

> <i_epik_Tot_Q>
0

> <i_epik_Tot_abs_Q>
0

> <r_epik_Metal_State_Penalty>
2.6644

> <b_epik_Metal_Only>
0

> <s_epik_Chemistry_Notes>
This compound has an ester and may undergo hydrolysis at high or low pH. This compound contains an acetal/aminal-like group ( X-CH(R)-Y where X, Y are N, S, or O) that may be acid/base labile, releasing an aldehyde.

> <s_lp_Force_Field>
OPLS_2005

> <r_lp_Energy>
11.7279

> <b_lp_Chiralities_Consistent>
1

> <s_lp_Variant>
AV-unprocessed.smi:102-4

> <Gold.Version>
5.8.1

> <Gold.Id.Protein>
6NUR|6NUR_protein|mol2

> <Gold.PLP.Fitness>
38.7544

> <Gold.PLP.PLP>
-33.7508

> <Gold.PLP.part.hbond>
-3.7629

> <Gold.PLP.part.metal>
0.0000

> <Gold.PLP.part.buried>
-6.1361

> <Gold.PLP.part.nonpolar>
-24.2084

> <Gold.PLP.part.repulsive>
0.1915

> <Gold.PLP.ligand.clash>
0.0000

> <Gold.PLP.ligand.torsion>
0.5675

> <Gold.PLP.Chemscore.Hbond>
2.0042

> <Gold.PLP.Chemscore.CHOScore>
0.0000

> <Gold.PLP.Chemscore.Metal>
0.0000

> <Gold.Chemscore.Hbonds>
donor molecule, donor type, donor heavy atom, donor atom, acceptor molecule, acceptor atom, score
      P1  H  6934  6947       L1    17  0.26
      P1  H 10752 10765       L1    27  1.00

> <Gold.PLP.Chemscore.Internal.Correction>
0.1261

> <Gold.Rescore>
     Score         DG    S(hbond)    S(metal)    S(lipo)     H(rot)  DE(clash)    DE(int)     intcor
      5.79      -6.67       1.99        0.00      42.09       4.05       0.03       0.85       ----

> <Gold.Chemscore.Fitness>
5.7898

> <Gold.Chemscore.DG>
-6.6671

> <Gold.Chemscore.ZeroCoef>
-5.4800

> <Gold.Chemscore.Hbond>
1.9867

> <Gold.Chemscore.Metal>
0.0000

> <Gold.Chemscore.Lipo>
42.0920

> <Gold.Chemscore.Internal_Hbond>
0.0000

> <Gold.Chemscore.DEClash>
0.0310

> <Gold.Chemscore.DEInternal>
0.8463

> <Gold.Chemscore.Rot>
4.0520

> <Gold.Chemscore.Internal.Correction>
   9.000000E+99

> <Gold.Chemscore.Hbonds>
donor molecule, donor type, donor heavy atom, donor atom, acceptor molecule, acceptor atom, score
      P1  H  6934  6947       L1    17  0.12
      P1  H 10752 10765       L1    27  0.91

> <Gold.Chemscore.Hbond.Weighted>
-6.6355

> <Gold.Chemscore.Metal.Weighted>
-0.0000

> <Gold.Chemscore.Lipo.Weighted>
-4.9248

> <Gold.Chemscore.Internal_Hbond.Weighted>
0.0000

> <Gold.Chemscore.DEClash.Weighted>
0.0310

> <Gold.Chemscore.DEInternal.Weighted>
0.8463

> <Gold.Chemscore.Rot.Weighted>
10.3732

> <Gold.Chemscore.Internal.Correction.Weighted>
   9.000000E+99

> <Gold.Protein.RotatedTorsions>
[ 6907 6896 6895 6894 ] final  -55.20 input  -60.11 | X-H torsion
[ 7974 7965 7964 7962 ] final   81.21 input  175.53 | X-H torsion
[ 8008 7997 7996 7995 ] final -109.23 input   59.86 | X-H torsion
[ 10167 10162 10161 10158 ] final -103.07 input  -65.29 | X-H torsion
[ 10718 10713 10712 10709 ] final    7.57 input   66.30 | X-H torsion
[ 10763 10752 10751 10750 ] final -153.49 input  -60.55 | X-H torsion
[ 11005 11000 10999 10996 ] final   28.08 input  -57.11 | X-H torsion

> <Gold.Protein.ActiveResidues>
 VAL166  LYS551  ARG553  GLY616  TRP617  ASP618  TYR619  PRO620  LYS621  CYS622 
 ASP623  PHE694  ASN695  SER759  ASP760  ASP761  ALA762  ILE779  LEU786  VAL792 
 PHE793  MET794  SER795  GLU796  ALA797  LYS798  CYS799  TRP800  GLU811  SER814 

> <Gold.Protein.RotatedAtoms>
  150.8272  134.7508  159.6822 H   0  0  0  0  0  0  0  0  0  0  0  0  # atno 6907 bound_to 6896
  152.4381  134.5642  159.9912 H   0  0  0  0  0  0  0  0  0  0  0  0  # atno 6908 bound_to 6896
  151.5812  133.3340  159.3044 H   0  0  0  0  0  0  0  0  0  0  0  0  # atno 6909 bound_to 6896
  145.6411  139.2426  143.2030 H   0  0  0  0  0  0  0  0  0  0  0  0  # atno 7974 bound_to 7965
  154.9562  140.0400  157.2168 H   0  0  0  0  0  0  0  0  0  0  0  0  # atno 8008 bound_to 7997
  154.7932  140.2839  155.5954 H   0  0  0  0  0  0  0  0  0  0  0  0  # atno 8009 bound_to 7997
  156.2952  140.2569  156.2783 H   0  0  0  0  0  0  0  0  0  0  0  0  # atno 8010 bound_to 7997
  140.2240  143.3655  152.0945 H   0  0  0  0  0  0  0  0  0  0  0  0  # atno 10167 bound_to 10162
  156.9389  130.5854  149.5652 H   0  0  0  0  0  0  0  0  0  0  0  0  # atno 10718 bound_to 10713
  154.7924  135.3211  154.7746 H   0  0  0  0  0  0  0  0  0  0  0  0  # atno 10763 bound_to 10752
  153.8432  135.6869  153.4805 H   0  0  0  0  0  0  0  0  0  0  0  0  # atno 10764 bound_to 10752
  153.1600  135.4664  154.9699 H   0  0  0  0  0  0  0  0  0  0  0  0  # atno 10765 bound_to 10752
  140.3194  134.2560  155.7720 H   0  0  0  0  0  0  0  0  0  0  0  0  # atno 11005 bound_to 11000
  146.1280  140.7223  142.9426 LP  0  0  0  0  0  0  0  0  0  0  0  0  # atno 17320 bound_to 7965
  144.7157  140.4200  143.7046 LP  0  0  0  0  0  0  0  0  0  0  0  0  # atno 17321 bound_to 7965
  139.5134  144.6932  151.5703 LP  0  0  0  0  0  0  0  0  0  0  0  0  # atno 17342 bound_to 10162
  140.6234  143.9214  150.6545 LP  0  0  0  0  0  0  0  0  0  0  0  0  # atno 17343 bound_to 10162
  156.0413  130.5495  150.8778 LP  0  0  0  0  0  0  0  0  0  0  0  0  # atno 17370 bound_to 10713
  157.5798  131.0946  150.9289 LP  0  0  0  0  0  0  0  0  0  0  0  0  # atno 17371 bound_to 10713
  141.2090  133.7761  157.0024 LP  0  0  0  0  0  0  0  0  0  0  0  0  # atno 17394 bound_to 11000
  140.0955  134.9567  157.1843 LP  0  0  0  0  0  0  0  0  0  0  0  0  # atno 17395 bound_to 11000

$$$$
