AV-unprocessed.smi:763|AV-procd|sdf|3640|dock1
  -GOLD-   22720 1 43D 1   1.00000     0.00000
 Structure written by MMmdl.
 43 44  0  0  0  0  0  0  0  0  2 V2000
  150.5951  144.6005  159.1082 C   0  0  0  0  0  0  0  0  0  0  0  0
  151.4740  143.9905  158.1761 O   0  0  0  0  0  0  0  0  0  0  0  0
  152.7546  143.6786  158.7079 C   0  0  0  0  0  0  0  0  0  0  0  0
  152.6859  142.5620  159.7598 C   0  0  0  0  0  0  0  0  0  0  0  0
  152.6846  141.3090  159.0832 O   0  0  0  0  0  0  0  0  0  0  0  0
  153.3191  140.2294  159.6706 C   0  0  0  0  0  0  0  0  0  0  0  0
  153.7804  140.3762  160.9389 N   0  0  0  0  0  0  0  0  0  0  0  0
  154.3981  139.3322  161.5240 C   0  0  0  0  0  0  0  0  0  0  0  0
  154.5854  138.0969  160.8828 C   0  0  0  0  0  0  0  0  0  0  0  0
  154.1050  137.9495  159.5692 C   0  0  0  0  0  0  0  0  0  0  0  0
  153.4527  139.0301  158.9254 C   0  0  0  0  0  0  0  0  0  0  0  0
  152.9708  138.9546  157.6727 N   0  5  0  0  0  0  0  0  0  0  0  0
  152.8952  137.6283  156.7486 S   0  0  0  0  0  0  0  0  0  0  0  0
  154.2269  137.0363  156.5490 O   0  0  0  0  0  0  0  0  0  0  0  0
  151.8362  136.7162  157.2052 O   0  0  0  0  0  0  0  0  0  0  0  0
  152.3619  138.3720  155.1144 C   0  0  2  0  0  0  0  0  0  0  0  0
  152.0424  139.8826  155.2362 C   0  0  0  0  0  0  0  0  0  0  0  0
  150.6819  140.1943  155.8967 C   0  0  0  0  0  0  0  0  0  0  0  0
  149.5311  139.3844  155.2759 C   0  0  0  0  0  0  0  0  0  0  0  0
  149.8507  137.8814  155.2150 C   0  0  0  0  0  0  0  0  0  0  0  0
  151.1630  137.6508  154.4484 C   0  0  2  0  0  0  0  0  0  0  0  0
  151.3932  136.2714  154.2515 O   0  0  0  0  0  0  0  0  0  0  0  0
  149.6224  144.7549  158.6414 H   0  0  0  0  0  0  0  0  0  0  0  0
  150.9622  145.5735  159.4347 H   0  0  0  0  0  0  0  0  0  0  0  0
  150.4475  143.9685  159.9850 H   0  0  0  0  0  0  0  0  0  0  0  0
  153.4602  143.4296  157.9137 H   0  0  0  0  0  0  0  0  0  0  0  0
  153.1323  144.5842  159.1831 H   0  0  0  0  0  0  0  0  0  0  0  0
  153.5511  142.6301  160.4210 H   0  0  0  0  0  0  0  0  0  0  0  0
  151.7842  142.6620  160.3652 H   0  0  0  0  0  0  0  0  0  0  0  0
  154.7528  139.4860  162.5323 H   0  0  0  0  0  0  0  0  0  0  0  0
  155.0851  137.2816  161.3842 H   0  0  0  0  0  0  0  0  0  0  0  0
  154.2464  137.0023  159.0705 H   0  0  0  0  0  0  0  0  0  0  0  0
  153.2218  138.2571  154.4534 H   0  0  0  0  0  0  0  0  0  0  0  0
  152.8404  140.3961  155.7727 H   0  0  0  0  0  0  0  0  0  0  0  0
  152.0389  140.3112  154.2334 H   0  0  0  0  0  0  0  0  0  0  0  0
  150.7207  140.0109  156.9682 H   0  0  0  0  0  0  0  0  0  0  0  0
  150.4694  141.2591  155.7980 H   0  0  0  0  0  0  0  0  0  0  0  0
  148.6138  139.5483  155.8422 H   0  0  0  0  0  0  0  0  0  0  0  0
  149.3384  139.7508  154.2669 H   0  0  0  0  0  0  0  0  0  0  0  0
  149.9147  137.4672  156.2214 H   0  0  0  0  0  0  0  0  0  0  0  0
  149.0318  137.3591  154.7188 H   0  0  0  0  0  0  0  0  0  0  0  0
  151.0381  138.0665  153.4476 H   0  0  0  0  0  0  0  0  0  0  0  0
  151.2788  136.0785  153.3321 H   0  0  0  0  0  0  0  0  0  0  0  0
  1  2  1  0  0  0  0
  1 23  1  0  0  0  0
  1 24  1  0  0  0  0
  1 25  1  0  0  0  0
  2  3  1  0  0  0  0
  3  4  1  0  0  0  0
  3 26  1  0  0  0  0
  3 27  1  0  0  0  0
  4  5  1  0  0  0  0
  4 28  1  0  0  0  0
  4 29  1  0  0  0  0
  5  6  1  0  0  0  0
  6 11  1  0  0  0  0
  6  7  2  0  0  0  0
  7  8  1  0  0  0  0
  8  9  2  0  0  0  0
  8 30  1  0  0  0  0
  9 10  1  0  0  0  0
  9 31  1  0  0  0  0
 10 11  2  0  0  0  0
 10 32  1  0  0  0  0
 11 12  1  0  0  0  0
 12 13  1  0  0  0  0
 13 14  2  0  0  0  0
 13 15  2  0  0  0  0
 13 16  1  0  0  0  0
 16 21  1  0  0  0  0
 16 17  1  0  0  0  0
 16 33  1  0  0  0  0
 17 18  1  0  0  0  0
 17 34  1  0  0  0  0
 17 35  1  0  0  0  0
 18 19  1  0  0  0  0
 18 36  1  0  0  0  0
 18 37  1  0  0  0  0
 19 20  1  0  0  0  0
 19 38  1  0  0  0  0
 19 39  1  0  0  0  0
 20 21  1  0  0  0  0
 20 40  1  0  0  0  0
 20 41  1  0  0  0  0
 21 22  1  0  0  0  0
 21 42  1  0  0  0  0
 22 43  1  0  0  0  0
M  CHG  1  12  -1
M  END
> <s_m_source_file>
AV-unprocessed.smi

> <i_m_source_file_index>
763

> <i_lp_mmshare_version>
43012

> <i_f3d_flags>
0

> <s_epik_input>
W0NIM11PW0NIMl1bQ0gyXU9jMW5bY0hdW2NIXVtjSF1jMVtOSF1TKD1PKSg9TylbQ0BASF0yW0NIMl1bQ0gyXVtDSDJdW0NIMl1bQ0BIXTJbT0hd

> <s_epik_cmdline>
J2VwaWtfcHl0aG9uJywgJy1waCcsICc3LjAnLCAnLXRuJywgJzgnLCAnLW1hJywgJzIwMCcsICctbWV0YWxfYmluZGluZycsICctaW1hZScsICc8aW5maWxlLm1hZT4nLCAnLW9tYWUnLCAnPG91dGZpbGUubWFlPic=

> <r_epik_Ionization_Penalty>
0.985866

> <r_epik_Ionization_Penalty_Charging>
0.984689

> <r_epik_Ionization_Penalty_Neutral>
0.00117669

> <r_epik_State_Penalty>
1.03185

> <r_epik_Charging_Adjusted_Penalty>
2.01654

> <i_epik_Tot_Q>
-1

> <i_epik_Tot_abs_Q>
1

> <r_epik_Metal_State_Penalty>
0.379327

> <b_epik_Metal_Only>
0

> <s_lp_Force_Field>
OPLS_2005

> <r_lp_Energy>
11.7701

> <b_lp_Chiralities_Consistent>
1

> <s_lp_Variant>
AV-unprocessed.smi:763-7

> <Gold.Version>
5.8.1

> <Gold.Id.Protein>
6NUR|6NUR_protein|mol2

> <Gold.PLP.Fitness>
49.0568

> <Gold.PLP.PLP>
-38.2179

> <Gold.PLP.part.hbond>
-4.2529

> <Gold.PLP.part.metal>
0.0000

> <Gold.PLP.part.buried>
-3.3649

> <Gold.PLP.part.nonpolar>
-30.1183

> <Gold.PLP.part.repulsive>
0.0996

> <Gold.PLP.ligand.clash>
0.0000

> <Gold.PLP.ligand.torsion>
1.2856

> <Gold.PLP.Chemscore.Hbond>
4.0543

> <Gold.PLP.Chemscore.CHOScore>
0.0000

> <Gold.PLP.Chemscore.Metal>
0.0000

> <Gold.Chemscore.Hbonds>
donor molecule, donor type, donor heavy atom, donor atom, acceptor molecule, acceptor atom, score
      L1  H    22    43       P1  7949  1.00
      P1  H  7997  8009       L1    12  1.76
      P1  H 10752 10764       L1    22  1.00
      P1  H 10752 10765       L1    14  0.19

> <Gold.PLP.Chemscore.Internal.Correction>
1.2470

> <Gold.Rescore>
     Score         DG    S(hbond)    S(metal)    S(lipo)     H(rot)  DE(clash)    DE(int)     intcor
     13.16     -15.85       1.67        0.00      92.32       2.35       0.11       2.58       ----

> <Gold.Chemscore.Fitness>
13.1595

> <Gold.Chemscore.DG>
-15.8489

> <Gold.Chemscore.ZeroCoef>
-5.4800

> <Gold.Chemscore.Hbond>
1.6723

> <Gold.Chemscore.Metal>
0.0000

> <Gold.Chemscore.Lipo>
92.3202

> <Gold.Chemscore.Internal_Hbond>
0.0000

> <Gold.Chemscore.DEClash>
0.1103

> <Gold.Chemscore.DEInternal>
2.5792

> <Gold.Chemscore.Rot>
2.3509

> <Gold.Chemscore.Internal.Correction>
   9.000000E+99

> <Gold.Chemscore.Hbonds>
donor molecule, donor type, donor heavy atom, donor atom, acceptor molecule, acceptor atom, score
      L1  H    22    43       P1  7949  0.55
      P1  H  7997  8009       L1    12  0.06
      P1  H 10752 10764       L1    22  0.38
      P1  H 10752 10765       L1    14  0.18

> <Gold.Chemscore.Hbond.Weighted>
-5.5856

> <Gold.Chemscore.Metal.Weighted>
-0.0000

> <Gold.Chemscore.Lipo.Weighted>
-10.8015

> <Gold.Chemscore.Internal_Hbond.Weighted>
0.0000

> <Gold.Chemscore.DEClash.Weighted>
0.1103

> <Gold.Chemscore.DEInternal.Weighted>
2.5792

> <Gold.Chemscore.Rot.Weighted>
6.0182

> <Gold.Chemscore.Internal.Correction.Weighted>
   9.000000E+99

> <Gold.Protein.RotatedTorsions>
[ 6907 6896 6895 6894 ] final  -59.21 input  -60.11 | X-H torsion
[ 7974 7965 7964 7962 ] final  165.90 input  175.53 | X-H torsion
[ 8008 7997 7996 7995 ] final  174.64 input   59.86 | X-H torsion
[ 10167 10162 10161 10158 ] final -165.48 input  -65.29 | X-H torsion
[ 10718 10713 10712 10709 ] final -161.87 input   66.30 | X-H torsion
[ 10763 10752 10751 10750 ] final  -57.27 input  -60.55 | X-H torsion
[ 11005 11000 10999 10996 ] final  115.71 input  -57.11 | X-H torsion

> <Gold.Protein.ActiveResidues>
 VAL166  LYS551  ARG553  GLY616  TRP617  ASP618  TYR619  PRO620  LYS621  CYS622 
 ASP623  PHE694  ASN695  SER759  ASP760  ASP761  ALA762  ILE779  LEU786  VAL792 
 PHE793  MET794  SER795  GLU796  ALA797  LYS798  CYS799  TRP800  GLU811  SER814 

> <Gold.Protein.RotatedAtoms>
  150.7948  134.6999  159.6543 H   0  0  0  0  0  0  0  0  0  0  0  0  # atno 6907 bound_to 6896
  152.4058  134.6205  160.0059 H   0  0  0  0  0  0  0  0  0  0  0  0  # atno 6908 bound_to 6896
  151.6463  133.3286  159.3178 H   0  0  0  0  0  0  0  0  0  0  0  0  # atno 6909 bound_to 6896
  144.7484  139.8538  143.6374 H   0  0  0  0  0  0  0  0  0  0  0  0  # atno 7974 bound_to 7965
  156.0954  140.1429  156.9538 H   0  0  0  0  0  0  0  0  0  0  0  0  # atno 8008 bound_to 7997
  154.4668  140.0923  156.7087 H   0  0  0  0  0  0  0  0  0  0  0  0  # atno 8009 bound_to 7997
  155.4850  140.3446  155.4348 H   0  0  0  0  0  0  0  0  0  0  0  0  # atno 8010 bound_to 7997
  139.6179  144.0683  152.1905 H   0  0  0  0  0  0  0  0  0  0  0  0  # atno 10167 bound_to 10162
  156.6023  130.8816  151.2917 H   0  0  0  0  0  0  0  0  0  0  0  0  # atno 10718 bound_to 10713
  154.2198  135.6379  153.5141 H   0  0  0  0  0  0  0  0  0  0  0  0  # atno 10763 bound_to 10752
  152.9971  135.5494  154.6126 H   0  0  0  0  0  0  0  0  0  0  0  0  # atno 10764 bound_to 10752
  154.5583  135.2907  155.0917 H   0  0  0  0  0  0  0  0  0  0  0  0  # atno 10765 bound_to 10752
  139.9018  134.9588  156.7087 H   0  0  0  0  0  0  0  0  0  0  0  0  # atno 11005 bound_to 11000
  146.1397  139.4451  143.0116 LP  0  0  0  0  0  0  0  0  0  0  0  0  # atno 17320 bound_to 7965
  145.7037  141.0128  143.1490 LP  0  0  0  0  0  0  0  0  0  0  0  0  # atno 17321 bound_to 7965
  140.0317  144.6075  150.7482 LP  0  0  0  0  0  0  0  0  0  0  0  0  # atno 17342 bound_to 10162
  140.7363  143.2751  151.3766 LP  0  0  0  0  0  0  0  0  0  0  0  0  # atno 17343 bound_to 10162
  157.7276  130.9645  150.1706 LP  0  0  0  0  0  0  0  0  0  0  0  0  # atno 17370 bound_to 10713
  156.2458  130.3695  149.8286 LP  0  0  0  0  0  0  0  0  0  0  0  0  # atno 17371 bound_to 10713
  140.7092  133.9238  155.8074 LP  0  0  0  0  0  0  0  0  0  0  0  0  # atno 17394 bound_to 11000
  141.0313  134.0752  157.4011 LP  0  0  0  0  0  0  0  0  0  0  0  0  # atno 17395 bound_to 11000

$$$$
