AV-unprocessed.smi:213|AV-procd|sdf|1635|dock1
  -GOLD-   2262019593D 1   1.00000     0.00000
 Structure written by MMmdl.
 59 62  0  0  0  0  0  0  0  0  2 V2000
  151.5979  140.1747  156.0362 C   0  0  0  0  0  0  0  0  0  0  0  0
  151.3225  140.0865  157.5460 C   0  0  2  0  0  0  0  0  0  0  0  0
  152.5324  140.5894  158.3701 C   0  0  0  0  0  0  0  0  0  0  0  0
  152.1821  141.6941  159.2985 N   0  3  0  0  0  0  0  0  0  0  0  0
  153.0928  141.7881  160.4622 C   0  0  0  0  0  0  0  0  0  0  0  0
  152.6101  142.8877  161.4236 C   0  0  0  0  0  0  0  0  0  0  0  0
  152.5235  144.1267  160.7301 O   0  0  0  0  0  0  0  0  0  0  0  0
  151.5938  144.0733  159.6548 C   0  0  0  0  0  0  0  0  0  0  0  0
  152.0465  143.0146  158.6362 C   0  0  0  0  0  0  0  0  0  0  0  0
  150.8955  138.7345  157.9370 N   0  0  0  0  0  0  0  0  0  0  0  0
  151.8063  137.8816  158.7002 C   0  0  0  0  0  0  0  0  0  0  0  0
  149.5648  138.5557  158.1501 C   0  0  0  0  0  0  0  0  0  0  0  0
  148.6942  139.5371  157.7892 N   0  0  0  0  0  0  0  0  0  0  0  0
  147.3789  139.3679  157.9508 C   0  0  0  0  0  0  0  0  0  0  0  0
  146.7291  138.3111  158.4406 N   0  0  0  0  0  0  0  0  0  0  0  0
  147.5951  137.3267  158.8141 C   0  0  0  0  0  0  0  0  0  0  0  0
  149.0141  137.3659  158.7063 C   0  0  0  0  0  0  0  0  0  0  0  0
  149.5562  136.1823  159.1937 N   0  0  0  0  0  0  0  0  0  0  0  0
  148.5187  135.4829  159.5646 C   0  0  0  0  0  0  0  0  0  0  0  0
  147.3018  136.0958  159.3735 N   0  0  0  0  0  0  0  0  0  0  0  0
  145.9968  135.5501  159.7027 C   0  0  0  0  0  0  0  0  0  0  0  0
  145.9026  135.1148  161.1806 C   0  0  1  0  0  0  0  0  0  0  0  0
  146.3831  136.1375  162.0306 O   0  0  0  0  0  0  0  0  0  0  0  0
  144.4848  134.7148  161.6399 C   0  0  2  0  0  0  0  0  0  0  0  0
  143.5566  135.8965  161.9274 C   0  0  0  0  0  0  0  0  0  0  0  0
  142.5414  135.3273  162.9072 C   0  0  0  0  0  0  0  0  0  0  0  0
  143.1638  134.0069  163.3695 C   0  0  0  0  0  0  0  0  0  0  0  0
  144.4997  134.0382  162.8880 O   0  0  0  0  0  0  0  0  0  0  0  0
  151.7972  141.2046  155.7390 H   0  0  0  0  0  0  0  0  0  0  0  0
  150.7378  139.8301  155.4610 H   0  0  0  0  0  0  0  0  0  0  0  0
  152.4614  139.5792  155.7404 H   0  0  0  0  0  0  0  0  0  0  0  0
  150.5037  140.7797  157.7261 H   0  0  0  0  0  0  0  0  0  0  0  0
  152.9342  139.7529  158.9439 H   0  0  0  0  0  0  0  0  0  0  0  0
  153.3376  140.9145  157.7094 H   0  0  0  0  0  0  0  0  0  0  0  0
  153.1245  140.8325  160.9869 H   0  0  0  0  0  0  0  0  0  0  0  0
  154.1064  142.0028  160.1199 H   0  0  0  0  0  0  0  0  0  0  0  0
  151.6406  142.6304  161.8537 H   0  0  0  0  0  0  0  0  0  0  0  0
  153.3091  142.9948  162.2534 H   0  0  0  0  0  0  0  0  0  0  0  0
  150.5943  143.8497  160.0313 H   0  0  0  0  0  0  0  0  0  0  0  0
  151.5428  145.0535  159.1809 H   0  0  0  0  0  0  0  0  0  0  0  0
  153.0012  143.3041  158.1943 H   0  0  0  0  0  0  0  0  0  0  0  0
  151.3209  142.9652  157.8251 H   0  0  0  0  0  0  0  0  0  0  0  0
  151.4516  136.8501  158.7128 H   0  0  0  0  0  0  0  0  0  0  0  0
  151.8925  138.2265  159.7309 H   0  0  0  0  0  0  0  0  0  0  0  0
  152.8027  137.8740  158.2606 H   0  0  0  0  0  0  0  0  0  0  0  0
  146.7579  140.1949  157.6390 H   0  0  0  0  0  0  0  0  0  0  0  0
  148.6125  134.4962  159.9949 H   0  0  0  0  0  0  0  0  0  0  0  0
  145.2378  136.2983  159.4711 H   0  0  0  0  0  0  0  0  0  0  0  0
  145.8097  134.7044  159.0410 H   0  0  0  0  0  0  0  0  0  0  0  0
  146.5621  134.2607  161.3394 H   0  0  0  0  0  0  0  0  0  0  0  0
  145.6921  136.7685  162.1625 H   0  0  0  0  0  0  0  0  0  0  0  0
  144.0103  134.0748  160.8927 H   0  0  0  0  0  0  0  0  0  0  0  0
  144.1019  136.7102  162.4059 H   0  0  0  0  0  0  0  0  0  0  0  0
  143.0944  136.2935  161.0231 H   0  0  0  0  0  0  0  0  0  0  0  0
  142.3833  136.0107  163.7419 H   0  0  0  0  0  0  0  0  0  0  0  0
  141.5765  135.1517  162.4302 H   0  0  0  0  0  0  0  0  0  0  0  0
  143.1389  133.8879  164.4529 H   0  0  0  0  0  0  0  0  0  0  0  0
  142.6414  133.1600  162.9224 H   0  0  0  0  0  0  0  0  0  0  0  0
  151.2740  141.4633  159.6771 H   0  0  0  0  0  0  0  0  0  0  0  0
  1  2  1  0  0  0  0
  1 29  1  0  0  0  0
  1 30  1  0  0  0  0
  1 31  1  0  0  0  0
  2  3  1  0  0  0  0
  2 10  1  0  0  0  0
  2 32  1  0  0  0  0
  3  4  1  0  0  0  0
  3 33  1  0  0  0  0
  3 34  1  0  0  0  0
  4  9  1  0  0  0  0
  4  5  1  0  0  0  0
  4 59  1  0  0  0  0
  5  6  1  0  0  0  0
  5 35  1  0  0  0  0
  5 36  1  0  0  0  0
  6  7  1  0  0  0  0
  6 37  1  0  0  0  0
  6 38  1  0  0  0  0
  7  8  1  0  0  0  0
  8  9  1  0  0  0  0
  8 39  1  0  0  0  0
  8 40  1  0  0  0  0
  9 41  1  0  0  0  0
  9 42  1  0  0  0  0
 10 11  1  0  0  0  0
 10 12  1  0  0  0  0
 11 43  1  0  0  0  0
 11 44  1  0  0  0  0
 11 45  1  0  0  0  0
 12 17  1  0  0  0  0
 12 13  2  0  0  0  0
 13 14  1  0  0  0  0
 14 15  2  0  0  0  0
 14 46  1  0  0  0  0
 15 16  1  0  0  0  0
 16 20  1  0  0  0  0
 16 17  2  0  0  0  0
 17 18  1  0  0  0  0
 18 19  2  0  0  0  0
 19 20  1  0  0  0  0
 19 47  1  0  0  0  0
 20 21  1  0  0  0  0
 21 22  1  0  0  0  0
 21 48  1  0  0  0  0
 21 49  1  0  0  0  0
 22 23  1  0  0  0  0
 22 24  1  0  0  0  0
 22 50  1  0  0  0  0
 23 51  1  0  0  0  0
 24 28  1  0  0  0  0
 24 25  1  0  0  0  0
 24 52  1  0  0  0  0
 25 26  1  0  0  0  0
 25 53  1  0  0  0  0
 25 54  1  0  0  0  0
 26 27  1  0  0  0  0
 26 55  1  0  0  0  0
 26 56  1  0  0  0  0
 27 28  1  0  0  0  0
 27 57  1  0  0  0  0
 27 58  1  0  0  0  0
M  CHG  1   4   1
M  END
> <s_m_source_file>
AV-unprocessed.smi

> <i_m_source_file_index>
213

> <i_lp_mmshare_version>
43012

> <i_f3d_flags>
0

> <s_epik_input>
W0NIMl0xW0NIMl1PW0NIMl1bQ0gyXU4xW0NIMl1bQ0BASF0oW0NIM10pTihbQ0gzXSljKG5bY0hdbjIpYyhjMjMpbltjSF1uM1tDSDJdW0NASF0oW09IXSlbQ0BASF00W0NIMl1bQ0gyXVtDSDJdTzQ=

> <s_epik_cmdline>
J2VwaWtfcHl0aG9uJywgJy1waCcsICc3LjAnLCAnLXRuJywgJzgnLCAnLW1hJywgJzIwMCcsICctbWV0YWxfYmluZGluZycsICctaW1hZScsICc8aW5maWxlLm1hZT4nLCAnLW9tYWUnLCAnPG91dGZpbGUubWFlPic=

> <r_lp_tautomer_probability>
1

> <r_epik_Ionization_Penalty>
0.399679

> <r_epik_Ionization_Penalty_Charging>
0.399433

> <r_epik_Ionization_Penalty_Neutral>
0.000246213

> <r_epik_State_Penalty>
0.286032

> <r_epik_Charging_Adjusted_Penalty>
0.685465

> <i_epik_Tot_Q>
1

> <i_epik_Tot_abs_Q>
1

> <r_epik_Metal_State_Penalty>
0.286072

> <b_epik_Metal_Only>
0

> <s_lp_Force_Field>
OPLS_2005

> <r_lp_Energy>
46.8913

> <b_lp_Chiralities_Consistent>
1

> <s_lp_Variant>
AV-unprocessed.smi:213-3

> <Gold.Version>
5.8.1

> <Gold.Id.Protein>
6NUR|6NUR_protein|mol2

> <Gold.PLP.Fitness>
41.4216

> <Gold.PLP.PLP>
-40.5248

> <Gold.PLP.part.hbond>
-1.0132

> <Gold.PLP.part.metal>
0.0000

> <Gold.PLP.part.buried>
-8.2142

> <Gold.PLP.part.nonpolar>
-31.9828

> <Gold.PLP.part.repulsive>
0.2616

> <Gold.PLP.ligand.clash>
0.0000

> <Gold.PLP.ligand.torsion>
1.6920

> <Gold.PLP.Chemscore.Hbond>
1.0000

> <Gold.PLP.Chemscore.CHOScore>
0.0000

> <Gold.PLP.Chemscore.Metal>
0.0000

> <Gold.Chemscore.Hbonds>
donor molecule, donor type, donor heavy atom, donor atom, acceptor molecule, acceptor atom, score
      P1  H  6896  6908       L1    18  0.85

> <Gold.PLP.Chemscore.Internal.Correction>
1.2809

> <Gold.Rescore>
     Score         DG    S(hbond)    S(metal)    S(lipo)     H(rot)  DE(clash)    DE(int)     intcor
      8.85     -11.72       0.59        0.00      98.39       2.83       0.01       2.86       ----

> <Gold.Chemscore.Fitness>
8.8486

> <Gold.Chemscore.DG>
-11.7202

> <Gold.Chemscore.ZeroCoef>
-5.4800

> <Gold.Chemscore.Hbond>
0.5873

> <Gold.Chemscore.Metal>
0.0000

> <Gold.Chemscore.Lipo>
98.3900

> <Gold.Chemscore.Internal_Hbond>
0.0000

> <Gold.Chemscore.DEClash>
0.0069

> <Gold.Chemscore.DEInternal>
2.8647

> <Gold.Chemscore.Rot>
2.8254

> <Gold.Chemscore.Internal.Correction>
   9.000000E+99

> <Gold.Chemscore.Hbonds>
donor molecule, donor type, donor heavy atom, donor atom, acceptor molecule, acceptor atom, score
      P1  H  6896  6908       L1    18  0.15

> <Gold.Chemscore.Hbond.Weighted>
-1.9615

> <Gold.Chemscore.Metal.Weighted>
-0.0000

> <Gold.Chemscore.Lipo.Weighted>
-11.5116

> <Gold.Chemscore.Internal_Hbond.Weighted>
0.0000

> <Gold.Chemscore.DEClash.Weighted>
0.0069

> <Gold.Chemscore.DEInternal.Weighted>
2.8647

> <Gold.Chemscore.Rot.Weighted>
7.2330

> <Gold.Chemscore.Internal.Correction.Weighted>
   9.000000E+99

> <Gold.Protein.RotatedTorsions>
[ 6907 6896 6895 6894 ] final -164.19 input  -60.11 | X-H torsion
[ 7974 7965 7964 7962 ] final -155.50 input  175.53 | X-H torsion
[ 8008 7997 7996 7995 ] final  -62.54 input   59.86 | X-H torsion
[ 10167 10162 10161 10158 ] final    0.25 input  -65.29 | X-H torsion
[ 10718 10713 10712 10709 ] final   97.66 input   66.30 | X-H torsion
[ 10763 10752 10751 10750 ] final  170.90 input  -60.55 | X-H torsion
[ 11005 11000 10999 10996 ] final -125.62 input  -57.11 | X-H torsion

> <Gold.Protein.ActiveResidues>
 VAL166  LYS551  ARG553  GLY616  TRP617  ASP618  TYR619  PRO620  LYS621  CYS622 
 ASP623  PHE694  ASN695  SER759  ASP760  ASP761  ALA762  ILE779  LEU786  VAL792 
 PHE793  MET794  SER795  GLU796  ALA797  LYS798  CYS799  TRP800  GLU811  SER814 

> <Gold.Protein.RotatedAtoms>
  151.4079  133.3736  159.2740 H   0  0  0  0  0  0  0  0  0  0  0  0  # atno 6907 bound_to 6896
  150.9385  134.8797  159.7607 H   0  0  0  0  0  0  0  0  0  0  0  0  # atno 6908 bound_to 6896
  152.5060  134.4028  159.9474 H   0  0  0  0  0  0  0  0  0  0  0  0  # atno 6909 bound_to 6896
  144.7637  140.4240  143.5958 H   0  0  0  0  0  0  0  0  0  0  0  0  # atno 7974 bound_to 7965
  154.4505  140.0994  156.6602 H   0  0  0  0  0  0  0  0  0  0  0  0  # atno 8008 bound_to 7997
  155.5301  140.3481  155.4406 H   0  0  0  0  0  0  0  0  0  0  0  0  # atno 8009 bound_to 7997
  156.0670  140.1340  156.9863 H   0  0  0  0  0  0  0  0  0  0  0  0  # atno 8010 bound_to 7997
  140.6737  143.6977  150.7977 H   0  0  0  0  0  0  0  0  0  0  0  0  # atno 10167 bound_to 10162
  157.6909  131.0616  150.4678 H   0  0  0  0  0  0  0  0  0  0  0  0  # atno 10718 bound_to 10713
  154.4042  135.2755  155.2078 H   0  0  0  0  0  0  0  0  0  0  0  0  # atno 10763 bound_to 10752
  154.4091  135.6026  153.5945 H   0  0  0  0  0  0  0  0  0  0  0  0  # atno 10764 bound_to 10752
  152.9831  135.5945  154.4314 H   0  0  0  0  0  0  0  0  0  0  0  0  # atno 10765 bound_to 10752
  140.9747  134.0757  157.3831 H   0  0  0  0  0  0  0  0  0  0  0  0  # atno 11005 bound_to 11000
  145.6538  139.1569  143.2847 LP  0  0  0  0  0  0  0  0  0  0  0  0  # atno 17320 bound_to 7965
  146.1725  140.6624  142.9227 LP  0  0  0  0  0  0  0  0  0  0  0  0  # atno 17321 bound_to 7965
  140.0666  143.5102  152.2601 LP  0  0  0  0  0  0  0  0  0  0  0  0  # atno 17342 bound_to 10162
  139.6018  144.7585  151.3154 LP  0  0  0  0  0  0  0  0  0  0  0  0  # atno 17343 bound_to 10162
  156.5018  130.4119  149.6349 LP  0  0  0  0  0  0  0  0  0  0  0  0  # atno 17370 bound_to 10713
  156.3321  130.7337  151.2268 LP  0  0  0  0  0  0  0  0  0  0  0  0  # atno 17371 bound_to 10713
  139.8926  135.0125  156.6853 LP  0  0  0  0  0  0  0  0  0  0  0  0  # atno 17394 bound_to 11000
  140.7277  133.9086  155.8189 LP  0  0  0  0  0  0  0  0  0  0  0  0  # atno 17395 bound_to 11000

$$$$
