AV-unprocessed.smi:2633|AV-procd|sdf|10253|dock2
  -GOLD-   2272014263D 1   1.00000     0.00000
 Structure written by MMmdl.
 36 38  0  0  0  0  0  0  0  0  2 V2000
  153.2198  139.4641  154.7200 O   0  0  0  0  0  0  0  0  0  0  0  0
  151.8832  139.1474  155.0391 C   0  0  0  0  0  0  0  0  0  0  0  0
  151.6167  139.4704  156.5156 C   0  0  0  0  0  0  0  0  0  0  0  0
  151.2423  140.8777  156.7062 N   0  0  0  0  0  0  0  0  0  0  0  0
  150.3565  141.6585  156.0224 C   0  0  0  0  0  0  0  0  0  0  0  0
  149.5071  141.2457  154.8604 C   0  0  0  0  0  0  0  0  0  0  0  0
  148.0642  141.6969  154.9967 C   0  0  0  0  0  0  0  0  0  0  0  0
  147.3858  141.5292  156.2225 C   0  0  0  0  0  0  0  0  0  0  0  0
  146.0511  141.9585  156.3564 C   0  0  0  0  0  0  0  0  0  0  0  0
  145.3900  142.5556  155.2655 C   0  0  0  0  0  0  0  0  0  0  0  0
  146.0639  142.7234  154.0404 C   0  0  0  0  0  0  0  0  0  0  0  0
  147.3989  142.2949  153.9055 C   0  0  0  0  0  0  0  0  0  0  0  0
  150.3871  142.8957  156.5975 N   0  3  0  0  0  0  0  0  0  0  0  0
  151.2837  142.9007  157.6660 C   0  0  0  0  0  0  0  0  0  0  0  0
  151.6427  143.9132  158.5504 C   0  0  0  0  0  0  0  0  0  0  0  0
  152.5919  143.5817  159.5394 C   0  0  0  0  0  0  0  0  0  0  0  0
  153.1455  142.2874  159.6216 C   0  0  0  0  0  0  0  0  0  0  0  0
  152.7742  141.2694  158.7184 C   0  0  0  0  0  0  0  0  0  0  0  0
  151.8357  141.6060  157.7434 C   0  0  0  0  0  0  0  0  0  0  0  0
  153.6694  138.6685  154.4778 H   0  0  0  0  0  0  0  0  0  0  0  0
  151.2165  139.7198  154.3931 H   0  0  0  0  0  0  0  0  0  0  0  0
  151.7111  138.0905  154.8346 H   0  0  0  0  0  0  0  0  0  0  0  0
  150.8283  138.8372  156.9238 H   0  0  0  0  0  0  0  0  0  0  0  0
  152.5064  139.2763  157.1154 H   0  0  0  0  0  0  0  0  0  0  0  0
  149.9412  141.6492  153.9449 H   0  0  0  0  0  0  0  0  0  0  0  0
  149.5241  140.1598  154.7622 H   0  0  0  0  0  0  0  0  0  0  0  0
  147.8890  141.0744  157.0635 H   0  0  0  0  0  0  0  0  0  0  0  0
  145.5346  141.8302  157.2965 H   0  0  0  0  0  0  0  0  0  0  0  0
  144.3664  142.8849  155.3684 H   0  0  0  0  0  0  0  0  0  0  0  0
  145.5573  143.1819  153.2040 H   0  0  0  0  0  0  0  0  0  0  0  0
  147.9096  142.4292  152.9630 H   0  0  0  0  0  0  0  0  0  0  0  0
  151.2184  144.9047  158.4906 H   0  0  0  0  0  0  0  0  0  0  0  0
  152.9005  144.3351  160.2497 H   0  0  0  0  0  0  0  0  0  0  0  0
  153.8697  142.0701  160.3934 H   0  0  0  0  0  0  0  0  0  0  0  0
  153.2023  140.2806  158.7914 H   0  0  0  0  0  0  0  0  0  0  0  0
  149.8235  143.6754  156.2834 H   0  0  0  0  0  0  0  0  0  0  0  0
  1  2  1  0  0  0  0
  1 20  1  0  0  0  0
  2  3  1  0  0  0  0
  2 21  1  0  0  0  0
  2 22  1  0  0  0  0
  3  4  1  0  0  0  0
  3 23  1  0  0  0  0
  3 24  1  0  0  0  0
  4 19  1  0  0  0  0
  4  5  1  0  0  0  0
  5  6  1  0  0  0  0
  5 13  2  0  0  0  0
  6  7  1  0  0  0  0
  6 25  1  0  0  0  0
  6 26  1  0  0  0  0
  7 12  1  0  0  0  0
  7  8  2  0  0  0  0
  8  9  1  0  0  0  0
  8 27  1  0  0  0  0
  9 10  2  0  0  0  0
  9 28  1  0  0  0  0
 10 11  1  0  0  0  0
 10 29  1  0  0  0  0
 11 12  2  0  0  0  0
 11 30  1  0  0  0  0
 12 31  1  0  0  0  0
 13 14  1  0  0  0  0
 13 36  1  0  0  0  0
 14 19  2  0  0  0  0
 14 15  1  0  0  0  0
 15 16  2  0  0  0  0
 15 32  1  0  0  0  0
 16 17  1  0  0  0  0
 16 33  1  0  0  0  0
 17 18  2  0  0  0  0
 17 34  1  0  0  0  0
 18 19  1  0  0  0  0
 18 35  1  0  0  0  0
M  CHG  1  13   1
M  END
> <s_m_source_file>
AV-unprocessed.smi

> <i_m_source_file_index>
2633

> <i_lp_mmshare_version>
43012

> <i_f3d_flags>
0

> <s_epik_input>
W2NIXTFbY0hdW2NIXVtjSF1jKGMxMiluKFtDSDJdW0NIMl1bT0hdKWMobjIpW0NIMl1jM1tjSF1bY0hdW2NIXVtjSF1bY0hdMw==

> <s_epik_cmdline>
J2VwaWtfcHl0aG9uJywgJy1waCcsICc3LjAnLCAnLXRuJywgJzgnLCAnLW1hJywgJzIwMCcsICctbWV0YWxfYmluZGluZycsICctaW1hZScsICc8aW5maWxlLm1hZT4nLCAnLW9tYWUnLCAnPG91dGZpbGUubWFlPic=

> <r_epik_Ionization_Penalty>
1.35779

> <r_epik_Ionization_Penalty_Charging>
1.35779

> <r_epik_Ionization_Penalty_Neutral>
5.76693e-08

> <r_epik_State_Penalty>
1.43641

> <r_epik_Charging_Adjusted_Penalty>
2.79419

> <i_epik_Tot_Q>
1

> <i_epik_Tot_abs_Q>
1

> <r_epik_Metal_State_Penalty>
5.47429

> <b_epik_Metal_Only>
0

> <s_lp_Force_Field>
OPLS_2005

> <r_lp_Energy>
16.7782

> <b_lp_Chiralities_Consistent>
1

> <s_lp_Variant>
AV-unprocessed.smi:2633-2

> <Gold.Version>
5.8.1

> <Gold.Id.Protein>
6NUR|6NUR_protein|mol2

> <Gold.PLP.Fitness>
54.2824

> <Gold.PLP.PLP>
-46.5666

> <Gold.PLP.part.hbond>
-3.0000

> <Gold.PLP.part.metal>
0.0000

> <Gold.PLP.part.buried>
-5.2391

> <Gold.PLP.part.nonpolar>
-37.8646

> <Gold.PLP.part.repulsive>
0.0621

> <Gold.PLP.ligand.clash>
0.0000

> <Gold.PLP.ligand.torsion>
0.6520

> <Gold.PLP.Chemscore.Hbond>
3.0000

> <Gold.PLP.Chemscore.CHOScore>
0.0000

> <Gold.PLP.Chemscore.Metal>
0.0000

> <Gold.Chemscore.Hbonds>
donor molecule, donor type, donor heavy atom, donor atom, acceptor molecule, acceptor atom, score
      L1  H    13    36       P1  8028  2.00
      P1  H  7997  8010       L1     1  1.00

> <Gold.PLP.Chemscore.Internal.Correction>
0.0199

> <Gold.Rescore>
     Score         DG    S(hbond)    S(metal)    S(lipo)     H(rot)  DE(clash)    DE(int)     intcor
     19.54     -20.30       1.89        0.00     116.79       2.02       0.01       0.74       ----

> <Gold.Chemscore.Fitness>
19.5396

> <Gold.Chemscore.DG>
-20.2984

> <Gold.Chemscore.ZeroCoef>
-5.4800

> <Gold.Chemscore.Hbond>
1.8945

> <Gold.Chemscore.Metal>
0.0000

> <Gold.Chemscore.Lipo>
116.7887

> <Gold.Chemscore.Internal_Hbond>
0.0000

> <Gold.Chemscore.DEClash>
0.0139

> <Gold.Chemscore.DEInternal>
0.7448

> <Gold.Chemscore.Rot>
2.0209

> <Gold.Chemscore.Internal.Correction>
   9.000000E+99

> <Gold.Chemscore.Hbonds>
donor molecule, donor type, donor heavy atom, donor atom, acceptor molecule, acceptor atom, score
      L1  H    13    36       P1  8028  0.93
      P1  H  7997  8010       L1     1  0.26

> <Gold.Chemscore.Hbond.Weighted>
-6.3276

> <Gold.Chemscore.Metal.Weighted>
-0.0000

> <Gold.Chemscore.Lipo.Weighted>
-13.6643

> <Gold.Chemscore.Internal_Hbond.Weighted>
0.0000

> <Gold.Chemscore.DEClash.Weighted>
0.0139

> <Gold.Chemscore.DEInternal.Weighted>
0.7448

> <Gold.Chemscore.Rot.Weighted>
5.1735

> <Gold.Chemscore.Internal.Correction.Weighted>
   9.000000E+99

> <Gold.Protein.RotatedTorsions>
[ 6907 6896 6895 6894 ] final   34.38 input  -60.11 | X-H torsion
[ 7974 7965 7964 7962 ] final -171.61 input  175.53 | X-H torsion
[ 8008 7997 7996 7995 ] final  105.35 input   59.86 | X-H torsion
[ 10167 10162 10161 10158 ] final  -46.52 input  -65.29 | X-H torsion
[ 10718 10713 10712 10709 ] final  101.62 input   66.30 | X-H torsion
[ 10763 10752 10751 10750 ] final   49.14 input  -60.55 | X-H torsion
[ 11005 11000 10999 10996 ] final -130.28 input  -57.11 | X-H torsion

> <Gold.Protein.ActiveResidues>
 VAL166  LYS551  ARG553  GLY616  TRP617  ASP618  TYR619  PRO620  LYS621  CYS622 
 ASP623  PHE694  ASN695  SER759  ASP760  ASP761  ALA762  ILE779  LEU786  VAL792 
 PHE793  MET794  SER795  GLU796  ALA797  LYS798  CYS799  TRP800  GLU811  SER814 

> <Gold.Protein.RotatedAtoms>
  152.1015  134.9338  160.0569 H   0  0  0  0  0  0  0  0  0  0  0  0  # atno 6907 bound_to 6896
  152.0550  133.4031  159.4402 H   0  0  0  0  0  0  0  0  0  0  0  0  # atno 6908 bound_to 6896
  150.6839  134.3185  159.4820 H   0  0  0  0  0  0  0  0  0  0  0  0  # atno 6909 bound_to 6896
  144.7155  140.1896  143.6350 H   0  0  0  0  0  0  0  0  0  0  0  0  # atno 7974 bound_to 7965
  156.1652  140.3132  155.8876 H   0  0  0  0  0  0  0  0  0  0  0  0  # atno 8008 bound_to 7997
  155.3701  140.0481  157.3062 H   0  0  0  0  0  0  0  0  0  0  0  0  # atno 8009 bound_to 7997
  154.5185  140.2190  155.9031 H   0  0  0  0  0  0  0  0  0  0  0  0  # atno 8010 bound_to 7997
  140.6814  143.2827  151.3794 H   0  0  0  0  0  0  0  0  0  0  0  0  # atno 10167 bound_to 10162
  157.6824  131.0731  150.5280 H   0  0  0  0  0  0  0  0  0  0  0  0  # atno 10718 bound_to 10713
  152.9788  135.5921  154.4041 H   0  0  0  0  0  0  0  0  0  0  0  0  # atno 10763 bound_to 10752
  154.3683  135.2767  155.2283 H   0  0  0  0  0  0  0  0  0  0  0  0  # atno 10764 bound_to 10752
  154.4249  135.6050  153.6087 H   0  0  0  0  0  0  0  0  0  0  0  0  # atno 10765 bound_to 10752
  140.9359  134.1258  157.4194 H   0  0  0  0  0  0  0  0  0  0  0  0  # atno 11005 bound_to 11000
  145.8781  139.2308  143.1621 LP  0  0  0  0  0  0  0  0  0  0  0  0  # atno 17320 bound_to 7965
  146.0021  140.8511  143.0013 LP  0  0  0  0  0  0  0  0  0  0  0  0  # atno 17321 bound_to 7965
  139.6139  144.1042  152.2326 LP  0  0  0  0  0  0  0  0  0  0  0  0  # atno 17342 bound_to 10162
  140.0465  144.5967  150.7370 LP  0  0  0  0  0  0  0  0  0  0  0  0  # atno 17343 bound_to 10162
  156.5591  130.4251  149.6071 LP  0  0  0  0  0  0  0  0  0  0  0  0  # atno 17370 bound_to 10713
  156.2836  130.7085  151.1915 LP  0  0  0  0  0  0  0  0  0  0  0  0  # atno 17371 bound_to 10713
  139.8808  135.0020  156.6104 LP  0  0  0  0  0  0  0  0  0  0  0  0  # atno 17394 bound_to 11000
  140.7800  133.8668  155.8560 LP  0  0  0  0  0  0  0  0  0  0  0  0  # atno 17395 bound_to 11000

$$$$
