AV-unprocessed.smi:1824|AV-procd|sdf|7410|dock5
  -GOLD-   22720 9 83D 1   1.00000     0.00000
 Structure written by MMmdl.
 45 47  0  0  0  0  0  0  0  0  2 V2000
  151.6664  145.1956  159.2321 C   0  0  0  0  0  0  0  0  0  0  0  0
  151.9874  143.8519  158.5691 C   0  0  2  0  0  0  0  0  0  0  0  0
  150.7292  143.1640  158.0060 C   0  0  0  0  0  0  0  0  0  0  0  0
  151.0284  141.8520  157.4439 N   0  0  0  0  0  0  0  0  0  0  0  0
  149.8218  141.2268  156.9006 C   0  0  0  0  0  0  0  0  0  0  0  0
  149.6237  141.3905  155.3811 C   0  0  1  0  0  0  0  0  0  0  0  0
  150.5694  140.5727  154.7231 O   0  0  0  0  0  0  0  0  0  0  0  0
  148.2069  140.9889  154.9232 C   0  0  0  0  0  0  0  0  0  0  0  0
  147.1521  141.5844  155.7525 N   0  0  0  0  0  0  0  0  0  0  0  0
  146.8106  141.3420  157.0473 C   0  0  0  0  0  0  0  0  0  0  0  0
  145.7618  142.1557  157.3534 N   0  3  0  0  0  0  0  0  0  0  0  0
  145.4320  142.9316  156.2392 C   0  0  0  0  0  0  0  0  0  0  0  0
  144.4481  143.8980  156.0574 C   0  0  0  0  0  0  0  0  0  0  0  0
  144.3817  144.5063  154.7863 C   0  0  0  0  0  0  0  0  0  0  0  0
  143.4427  145.4542  154.5558 F   0  0  0  0  0  0  0  0  0  0  0  0
  145.2733  144.1473  153.7527 C   0  0  0  0  0  0  0  0  0  0  0  0
  145.1760  144.7566  152.5475 F   0  0  0  0  0  0  0  0  0  0  0  0
  146.2664  143.1652  153.9487 C   0  0  0  0  0  0  0  0  0  0  0  0
  146.3235  142.5702  155.2080 C   0  0  0  0  0  0  0  0  0  0  0  0
  151.6763  141.0372  158.4691 C   0  0  0  0  0  0  0  0  0  0  0  0
  152.9372  141.7191  159.0332 C   0  0  2  0  0  0  0  0  0  0  0  0
  153.5786  140.9075  160.1636 C   0  0  0  0  0  0  0  0  0  0  0  0
  152.5849  143.0014  159.5441 O   0  0  0  0  0  0  0  0  0  0  0  0
  151.2167  145.8874  158.5192 H   0  0  0  0  0  0  0  0  0  0  0  0
  152.5707  145.6625  159.6229 H   0  0  0  0  0  0  0  0  0  0  0  0
  150.9704  145.0703  160.0621 H   0  0  0  0  0  0  0  0  0  0  0  0
  152.7028  144.0215  157.7624 H   0  0  0  0  0  0  0  0  0  0  0  0
  149.9849  143.0641  158.7978 H   0  0  0  0  0  0  0  0  0  0  0  0
  150.2848  143.8003  157.2398 H   0  0  0  0  0  0  0  0  0  0  0  0
  149.8223  140.1650  157.1532 H   0  0  0  0  0  0  0  0  0  0  0  0
  148.9479  141.6496  157.3987 H   0  0  0  0  0  0  0  0  0  0  0  0
  149.8376  142.4161  155.0827 H   0  0  0  0  0  0  0  0  0  0  0  0
  150.8646  139.9097  155.3280 H   0  0  0  0  0  0  0  0  0  0  0  0
  148.0353  141.3038  153.8928 H   0  0  0  0  0  0  0  0  0  0  0  0
  148.0797  139.9058  154.9388 H   0  0  0  0  0  0  0  0  0  0  0  0
  147.2842  140.6317  157.7102 H   0  0  0  0  0  0  0  0  0  0  0  0
  143.7642  144.1767  156.8453 H   0  0  0  0  0  0  0  0  0  0  0  0
  146.9443  142.8971  153.1520 H   0  0  0  0  0  0  0  0  0  0  0  0
  150.9741  140.8391  159.2806 H   0  0  0  0  0  0  0  0  0  0  0  0
  151.9623  140.0692  158.0601 H   0  0  0  0  0  0  0  0  0  0  0  0
  153.6706  141.8462  158.2347 H   0  0  0  0  0  0  0  0  0  0  0  0
  153.8768  139.9183  159.8158 H   0  0  0  0  0  0  0  0  0  0  0  0
  152.8871  140.7759  160.9962 H   0  0  0  0  0  0  0  0  0  0  0  0
  154.4687  141.4076  160.5456 H   0  0  0  0  0  0  0  0  0  0  0  0
  145.3080  142.1784  158.2580 H   0  0  0  0  0  0  0  0  0  0  0  0
  1  2  1  0  0  0  0
  1 24  1  0  0  0  0
  1 25  1  0  0  0  0
  1 26  1  0  0  0  0
  2 23  1  0  0  0  0
  2  3  1  0  0  0  0
  2 27  1  0  0  0  0
  3  4  1  0  0  0  0
  3 28  1  0  0  0  0
  3 29  1  0  0  0  0
  4  5  1  0  0  0  0
  4 20  1  0  0  0  0
  5  6  1  0  0  0  0
  5 30  1  0  0  0  0
  5 31  1  0  0  0  0
  6  7  1  0  0  0  0
  6  8  1  0  0  0  0
  6 32  1  0  0  0  0
  7 33  1  0  0  0  0
  8  9  1  0  0  0  0
  8 34  1  0  0  0  0
  8 35  1  0  0  0  0
  9 19  1  0  0  0  0
  9 10  1  0  0  0  0
 10 11  2  0  0  0  0
 10 36  1  0  0  0  0
 11 12  1  0  0  0  0
 11 45  1  0  0  0  0
 12 19  2  0  0  0  0
 12 13  1  0  0  0  0
 13 14  2  0  0  0  0
 13 37  1  0  0  0  0
 14 15  1  0  0  0  0
 14 16  1  0  0  0  0
 16 17  1  0  0  0  0
 16 18  2  0  0  0  0
 18 19  1  0  0  0  0
 18 38  1  0  0  0  0
 20 21  1  0  0  0  0
 20 39  1  0  0  0  0
 20 40  1  0  0  0  0
 21 22  1  0  0  0  0
 21 23  1  0  0  0  0
 21 41  1  0  0  0  0
 22 42  1  0  0  0  0
 22 43  1  0  0  0  0
 22 44  1  0  0  0  0
M  CHG  1  11   1
M  END
> <s_m_source_file>
AV-unprocessed.smi

> <i_m_source_file_index>
1824

> <i_lp_mmshare_version>
43012

> <i_f3d_flags>
0

> <s_epik_input>
W0NIM11bQ0BASF0xW0NIMl1OKFtDSDJdW0NASF0oTzEpW0NIM10pW0NIMl1bQ0BIXShbT0hdKVtDSDJdbihbY0hdbjIpYyhjMjMpW2NIXWMoRiljKEYpW2NIXTM=

> <s_epik_cmdline>
J2VwaWtfcHl0aG9uJywgJy1waCcsICc3LjAnLCAnLXRuJywgJzgnLCAnLW1hJywgJzIwMCcsICctbWV0YWxfYmluZGluZycsICctaW1hZScsICc8aW5maWxlLm1hZT4nLCAnLW9tYWUnLCAnPG91dGZpbGUubWFlPic=

> <r_epik_Ionization_Penalty>
2.58709

> <r_epik_Ionization_Penalty_Charging>
2.37273

> <r_epik_Ionization_Penalty_Neutral>
0.214359

> <r_epik_State_Penalty>
2.71799

> <r_epik_Charging_Adjusted_Penalty>
5.09071

> <i_epik_Tot_Q>
1

> <i_epik_Tot_abs_Q>
1

> <r_epik_Metal_State_Penalty>
6.80217

> <b_epik_Metal_Only>
0

> <s_lp_Force_Field>
OPLS_2005

> <r_lp_Energy>
28.8683

> <b_lp_Chiralities_Consistent>
1

> <s_lp_Variant>
AV-unprocessed.smi:1824-18

> <Gold.Version>
5.8.1

> <Gold.Id.Protein>
6NUR|6NUR_protein|mol2

> <Gold.PLP.Fitness>
51.3398

> <Gold.PLP.PLP>
-49.8500

> <Gold.PLP.part.hbond>
-1.0000

> <Gold.PLP.part.metal>
0.0000

> <Gold.PLP.part.buried>
-8.0538

> <Gold.PLP.part.nonpolar>
-40.3002

> <Gold.PLP.part.repulsive>
0.0668

> <Gold.PLP.ligand.clash>
0.0000

> <Gold.PLP.ligand.torsion>
0.7585

> <Gold.PLP.Chemscore.Hbond>
1.0000

> <Gold.PLP.Chemscore.CHOScore>
0.0000

> <Gold.PLP.Chemscore.Metal>
0.0000

> <Gold.Chemscore.Hbonds>
donor molecule, donor type, donor heavy atom, donor atom, acceptor molecule, acceptor atom, score
      P1  H  7989  7998       L1     7  0.98

> <Gold.PLP.Chemscore.Internal.Correction>
0.0068

> <Gold.Rescore>
     Score         DG    S(hbond)    S(metal)    S(lipo)     H(rot)  DE(clash)    DE(int)     intcor
     14.07     -15.88       0.95        0.00     112.67       2.32       0.32       1.49       ----

> <Gold.Chemscore.Fitness>
14.0677

> <Gold.Chemscore.DG>
-15.8839

> <Gold.Chemscore.ZeroCoef>
-5.4800

> <Gold.Chemscore.Hbond>
0.9471

> <Gold.Chemscore.Metal>
0.0000

> <Gold.Chemscore.Lipo>
112.6678

> <Gold.Chemscore.Internal_Hbond>
0.0000

> <Gold.Chemscore.DEClash>
0.3234

> <Gold.Chemscore.DEInternal>
1.4928

> <Gold.Chemscore.Rot>
2.3210

> <Gold.Chemscore.Internal.Correction>
   9.000000E+99

> <Gold.Chemscore.Hbonds>
donor molecule, donor type, donor heavy atom, donor atom, acceptor molecule, acceptor atom, score
      P1  H  7989  7998       L1     7  0.82

> <Gold.Chemscore.Hbond.Weighted>
-3.1634

> <Gold.Chemscore.Metal.Weighted>
-0.0000

> <Gold.Chemscore.Lipo.Weighted>
-13.1821

> <Gold.Chemscore.Internal_Hbond.Weighted>
0.0000

> <Gold.Chemscore.DEClash.Weighted>
0.3234

> <Gold.Chemscore.DEInternal.Weighted>
1.4928

> <Gold.Chemscore.Rot.Weighted>
5.9416

> <Gold.Chemscore.Internal.Correction.Weighted>
   9.000000E+99

> <Gold.Protein.RotatedTorsions>
[ 6907 6896 6895 6894 ] final  -50.41 input  -60.11 | X-H torsion
[ 7974 7965 7964 7962 ] final  109.68 input  175.53 | X-H torsion
[ 8008 7997 7996 7995 ] final  -77.00 input   59.86 | X-H torsion
[ 10167 10162 10161 10158 ] final  -71.73 input  -65.29 | X-H torsion
[ 10718 10713 10712 10709 ] final -114.88 input   66.30 | X-H torsion
[ 10763 10752 10751 10750 ] final  169.39 input  -60.55 | X-H torsion
[ 11005 11000 10999 10996 ] final  154.29 input  -57.11 | X-H torsion

> <Gold.Protein.ActiveResidues>
 VAL166  LYS551  ARG553  GLY616  TRP617  ASP618  TYR619  PRO620  LYS621  CYS622 
 ASP623  PHE694  ASN695  SER759  ASP760  ASP761  ALA762  ILE779  LEU786  VAL792 
 PHE793  MET794  SER795  GLU796  ALA797  LYS798  CYS799  TRP800  GLU811  SER814 

> <Gold.Protein.RotatedAtoms>
  150.8709  134.8083  159.7153 H   0  0  0  0  0  0  0  0  0  0  0  0  # atno 6907 bound_to 6896
  152.4714  134.4948  159.9716 H   0  0  0  0  0  0  0  0  0  0  0  0  # atno 6908 bound_to 6896
  151.5036  133.3461  159.2908 H   0  0  0  0  0  0  0  0  0  0  0  0  # atno 6909 bound_to 6896
  145.2647  139.2689  143.3998 H   0  0  0  0  0  0  0  0  0  0  0  0  # atno 7974 bound_to 7965
  154.5556  140.0717  156.8738 H   0  0  0  0  0  0  0  0  0  0  0  0  # atno 8008 bound_to 7997
  155.2908  140.3378  155.4234 H   0  0  0  0  0  0  0  0  0  0  0  0  # atno 8009 bound_to 7997
  156.1999  140.1718  156.7906 H   0  0  0  0  0  0  0  0  0  0  0  0  # atno 8010 bound_to 7997
  140.5250  143.2327  151.7364 H   0  0  0  0  0  0  0  0  0  0  0  0  # atno 10167 bound_to 10162
  156.0859  130.6051  150.8833 H   0  0  0  0  0  0  0  0  0  0  0  0  # atno 10718 bound_to 10713
  154.3825  135.2753  155.2203 H   0  0  0  0  0  0  0  0  0  0  0  0  # atno 10763 bound_to 10752
  154.4304  135.5979  153.6068 H   0  0  0  0  0  0  0  0  0  0  0  0  # atno 10764 bound_to 10752
  152.9834  135.5994  154.4069 H   0  0  0  0  0  0  0  0  0  0  0  0  # atno 10765 bound_to 10752
  140.1476  134.8697  157.2412 H   0  0  0  0  0  0  0  0  0  0  0  0  # atno 11005 bound_to 11000
  146.3265  140.3073  142.8624 LP  0  0  0  0  0  0  0  0  0  0  0  0  # atno 17320 bound_to 7965
  144.9387  140.8055  143.5644 LP  0  0  0  0  0  0  0  0  0  0  0  0  # atno 17321 bound_to 7965
  139.4935  144.4199  151.9989 LP  0  0  0  0  0  0  0  0  0  0  0  0  # atno 17342 bound_to 10162
  140.3298  144.3330  150.5990 LP  0  0  0  0  0  0  0  0  0  0  0  0  # atno 17343 bound_to 10162
  157.5993  131.0942  150.8988 LP  0  0  0  0  0  0  0  0  0  0  0  0  # atno 17370 bound_to 10713
  156.9148  130.5294  149.5280 LP  0  0  0  0  0  0  0  0  0  0  0  0  # atno 17371 bound_to 10713
  140.2645  134.3532  155.7395 LP  0  0  0  0  0  0  0  0  0  0  0  0  # atno 17394 bound_to 11000
  141.2194  133.7388  156.9130 LP  0  0  0  0  0  0  0  0  0  0  0  0  # atno 17395 bound_to 11000

$$$$
