AV-unprocessed.smi:2526|AV-procd|sdf|9941|dock9
  -GOLD-   2272013583D 1   1.00000     0.00000
 Structure written by MMmdl.
 28 29  0  0  0  0  0  0  0  0  1 V2000
  152.3208  138.6653  155.3507 C   0  0  0  0  0  0  0  0  0  0  0  0
  151.7067  139.9182  155.7347 N   0  0  0  0  0  0  0  0  0  0  0  0
  151.9255  140.6694  156.8687 C   0  0  0  0  0  0  0  0  0  0  0  0
  151.1143  141.7691  156.8004 C   0  0  0  0  0  0  0  0  0  0  0  0
  150.9631  142.9113  157.7779 C   0  0  1  0  0  0  0  0  0  0  0  0
  151.0882  142.4318  159.1583 N   0  0  0  0  0  0  0  0  0  0  0  0
  151.6943  143.0556  160.1843 C   0  0  0  0  0  0  0  0  0  0  0  0
  151.6952  142.5761  161.3157 O   0  0  0  0  0  0  0  0  0  0  0  0
  152.4272  144.3798  159.9259 C   0  0  0  0  0  0  0  0  0  0  0  0
  152.0022  145.0630  158.6180 C   0  0  0  0  0  0  0  0  0  0  0  0
  151.9659  144.0489  157.4691 C   0  0  2  0  0  0  0  0  0  0  0  0
  151.6233  144.7248  156.2306 N   0  0  0  0  0  0  0  0  0  0  0  0
  150.4318  141.5910  155.5621 C   0  0  0  0  0  0  0  0  0  0  0  0
  150.7850  140.4840  154.9298 N   0  0  0  0  0  0  0  0  0  0  0  0
  153.2611  138.5320  155.8868 H   0  0  0  0  0  0  0  0  0  0  0  0
  152.5225  138.6588  154.2789 H   0  0  0  0  0  0  0  0  0  0  0  0
  151.6516  137.8400  155.5950 H   0  0  0  0  0  0  0  0  0  0  0  0
  152.6342  140.3631  157.6243 H   0  0  0  0  0  0  0  0  0  0  0  0
  149.9532  143.3189  157.7089 H   0  0  0  0  0  0  0  0  0  0  0  0
  150.6349  141.5529  159.3626 H   0  0  0  0  0  0  0  0  0  0  0  0
  152.2699  145.0545  160.7681 H   0  0  0  0  0  0  0  0  0  0  0  0
  153.4957  144.1644  159.8934 H   0  0  0  0  0  0  0  0  0  0  0  0
  151.0210  145.5233  158.7457 H   0  0  0  0  0  0  0  0  0  0  0  0
  152.6975  145.8716  158.3893 H   0  0  0  0  0  0  0  0  0  0  0  0
  152.9647  143.6260  157.3516 H   0  0  0  0  0  0  0  0  0  0  0  0
  150.7153  144.4155  155.9145 H   0  0  0  0  0  0  0  0  0  0  0  0
  151.5451  145.7179  156.3972 H   0  0  0  0  0  0  0  0  0  0  0  0
  149.6912  142.2323  155.1075 H   0  0  0  0  0  0  0  0  0  0  0  0
  1  2  1  0  0  0  0
  1 15  1  0  0  0  0
  1 16  1  0  0  0  0
  1 17  1  0  0  0  0
  2 14  1  0  0  0  0
  2  3  1  0  0  0  0
  3  4  2  0  0  0  0
  3 18  1  0  0  0  0
  4  5  1  0  0  0  0
  4 13  1  0  0  0  0
  5 11  1  0  0  0  0
  5  6  1  0  0  0  0
  5 19  1  0  0  0  0
  6  7  1  0  0  0  0
  6 20  1  0  0  0  0
  7  8  2  0  0  0  0
  7  9  1  0  0  0  0
  9 10  1  0  0  0  0
  9 21  1  0  0  0  0
  9 22  1  0  0  0  0
 10 11  1  0  0  0  0
 10 23  1  0  0  0  0
 10 24  1  0  0  0  0
 11 12  1  0  0  0  0
 11 25  1  0  0  0  0
 12 26  1  0  0  0  0
 12 27  1  0  0  0  0
 13 14  2  0  0  0  0
 13 28  1  0  0  0  0
M  END
> <s_m_source_file>
AV-unprocessed.smi

> <i_m_source_file_index>
2526

> <i_lp_mmshare_version>
43012

> <i_f3d_flags>
0

> <s_epik_input>
W0NIM11uMVtjSF1jKFtjSF1uMSlbQ0BASF0yW05IXUMoPU8pW0NIMl1bQ0gyXVtDQEhdMltOSDJd

> <s_epik_cmdline>
J2VwaWtfcHl0aG9uJywgJy1waCcsICc3LjAnLCAnLXRuJywgJzgnLCAnLW1hJywgJzIwMCcsICctbWV0YWxfYmluZGluZycsICctaW1hZScsICc8aW5maWxlLm1hZT4nLCAnLW9tYWUnLCAnPG91dGZpbGUubWFlPic=

> <r_lp_tautomer_probability>
1

> <r_epik_Ionization_Penalty>
2.50279

> <r_epik_Ionization_Penalty_Charging>
0

> <r_epik_Ionization_Penalty_Neutral>
2.50279

> <r_epik_State_Penalty>
2.66754

> <r_epik_Charging_Adjusted_Penalty>
2.66754

> <i_epik_Tot_Q>
0

> <i_epik_Tot_abs_Q>
0

> <r_epik_Metal_State_Penalty>
2.66721

> <b_epik_Metal_Only>
0

> <s_lp_Force_Field>
OPLS_2005

> <r_lp_Energy>
8.34042

> <b_lp_Chiralities_Consistent>
1

> <s_lp_Variant>
AV-unprocessed.smi:2526-8

> <Gold.Version>
5.8.1

> <Gold.Id.Protein>
6NUR|6NUR_protein|mol2

> <Gold.PLP.Fitness>
38.9042

> <Gold.PLP.PLP>
-29.8358

> <Gold.PLP.part.hbond>
-3.0000

> <Gold.PLP.part.metal>
0.0000

> <Gold.PLP.part.buried>
-1.0281

> <Gold.PLP.part.nonpolar>
-25.4575

> <Gold.PLP.part.repulsive>
0.3079

> <Gold.PLP.ligand.clash>
0.0000

> <Gold.PLP.ligand.torsion>
0.7156

> <Gold.PLP.Chemscore.Hbond>
2.4959

> <Gold.PLP.Chemscore.CHOScore>
0.9953

> <Gold.PLP.Chemscore.Metal>
0.0000

> <Gold.Chemscore.Hbonds>
donor molecule, donor type, donor heavy atom, donor atom, acceptor molecule, acceptor atom, score
      L1  H    12    26       P1  8028  0.98
      P1  H  6933  6945       L1     8  0.48
      P1  H  7989  7998       L1    14  1.00
      L1  C    13    28       P1  8028  0.66

> <Gold.PLP.Chemscore.Internal.Correction>
0.0260

> <Gold.Rescore>
     Score         DG    S(hbond)    S(metal)    S(lipo)     H(rot)  DE(clash)    DE(int)     intcor
     16.80     -19.44       2.25        0.00      76.83       1.00       2.01       0.63       ----

> <Gold.Chemscore.Fitness>
16.7995

> <Gold.Chemscore.DG>
-19.4385

> <Gold.Chemscore.ZeroCoef>
-5.4800

> <Gold.Chemscore.Hbond>
2.2544

> <Gold.Chemscore.Metal>
0.0000

> <Gold.Chemscore.Lipo>
76.8270

> <Gold.Chemscore.Internal_Hbond>
0.0000

> <Gold.Chemscore.DEClash>
2.0109

> <Gold.Chemscore.DEInternal>
0.6282

> <Gold.Chemscore.Rot>
1.0000

> <Gold.Chemscore.Internal.Correction>
   9.000000E+99

> <Gold.Chemscore.Hbonds>
donor molecule, donor type, donor heavy atom, donor atom, acceptor molecule, acceptor atom, score
      L1  H    12    26       P1  8028  0.93
      P1  H  6933  6945       L1     8  0.45
      P1  H  7989  7998       L1    14  0.34

> <Gold.Chemscore.Hbond.Weighted>
-7.5297

> <Gold.Chemscore.Metal.Weighted>
-0.0000

> <Gold.Chemscore.Lipo.Weighted>
-8.9888

> <Gold.Chemscore.Internal_Hbond.Weighted>
0.0000

> <Gold.Chemscore.DEClash.Weighted>
2.0109

> <Gold.Chemscore.DEInternal.Weighted>
0.6282

> <Gold.Chemscore.Rot.Weighted>
2.5600

> <Gold.Chemscore.Internal.Correction.Weighted>
   9.000000E+99

> <Gold.Protein.RotatedTorsions>
[ 6907 6896 6895 6894 ] final  -97.96 input  -60.11 | X-H torsion
[ 7974 7965 7964 7962 ] final   72.15 input  175.53 | X-H torsion
[ 8008 7997 7996 7995 ] final  155.14 input   59.86 | X-H torsion
[ 10167 10162 10161 10158 ] final  142.77 input  -65.29 | X-H torsion
[ 10718 10713 10712 10709 ] final -110.73 input   66.30 | X-H torsion
[ 10763 10752 10751 10750 ] final  -95.45 input  -60.55 | X-H torsion
[ 11005 11000 10999 10996 ] final  -88.61 input  -57.11 | X-H torsion

> <Gold.Protein.ActiveResidues>
 VAL166  LYS551  ARG553  GLY616  TRP617  ASP618  TYR619  PRO620  LYS621  CYS622 
 ASP623  PHE694  ASN695  SER759  ASP760  ASP761  ALA762  ILE779  LEU786  VAL792 
 PHE793  MET794  SER795  GLU796  ALA797  LYS798  CYS799  TRP800  GLU811  SER814 

> <Gold.Protein.RotatedAtoms>
  150.7032  134.1268  159.4054 H   0  0  0  0  0  0  0  0  0  0  0  0  # atno 6907 bound_to 6896
  151.9254  135.0277  160.0534 H   0  0  0  0  0  0  0  0  0  0  0  0  # atno 6908 bound_to 6896
  152.2220  133.4956  159.5205 H   0  0  0  0  0  0  0  0  0  0  0  0  # atno 6909 bound_to 6896
  145.7569  139.2784  143.1398 H   0  0  0  0  0  0  0  0  0  0  0  0  # atno 7974 bound_to 7965
  156.2494  140.1947  156.6754 H   0  0  0  0  0  0  0  0  0  0  0  0  # atno 8008 bound_to 7997
  154.6361  140.0589  156.9816 H   0  0  0  0  0  0  0  0  0  0  0  0  # atno 8009 bound_to 7997
  155.1635  140.3262  155.4409 H   0  0  0  0  0  0  0  0  0  0  0  0  # atno 8010 bound_to 7997
  139.4986  144.6085  151.6325 H   0  0  0  0  0  0  0  0  0  0  0  0  # atno 10167 bound_to 10162
  156.0607  130.5830  150.8277 H   0  0  0  0  0  0  0  0  0  0  0  0  # atno 10718 bound_to 10713
  154.7149  135.5120  153.8723 H   0  0  0  0  0  0  0  0  0  0  0  0  # atno 10763 bound_to 10752
  153.0812  135.6632  154.0050 H   0  0  0  0  0  0  0  0  0  0  0  0  # atno 10764 bound_to 10752
  153.9885  135.3022  155.3393 H   0  0  0  0  0  0  0  0  0  0  0  0  # atno 10765 bound_to 10752
  141.1599  133.7580  156.9475 H   0  0  0  0  0  0  0  0  0  0  0  0  # atno 11005 bound_to 11000
  146.0302  140.8265  142.9880 LP  0  0  0  0  0  0  0  0  0  0  0  0  # atno 17320 bound_to 7965
  144.6838  140.2757  143.7299 LP  0  0  0  0  0  0  0  0  0  0  0  0  # atno 17321 bound_to 7965
  140.5753  144.0039  150.6238 LP  0  0  0  0  0  0  0  0  0  0  0  0  # atno 17342 bound_to 10162
  140.3170  143.3161  152.0822 LP  0  0  0  0  0  0  0  0  0  0  0  0  # atno 17343 bound_to 10162
  157.5613  131.0946  150.9554 LP  0  0  0  0  0  0  0  0  0  0  0  0  # atno 17370 bound_to 10713
  156.9791  130.5520  149.5295 LP  0  0  0  0  0  0  0  0  0  0  0  0  # atno 17371 bound_to 10713
  140.1279  134.9375  157.2296 LP  0  0  0  0  0  0  0  0  0  0  0  0  # atno 17394 bound_to 11000
  140.2989  134.3154  155.7295 LP  0  0  0  0  0  0  0  0  0  0  0  0  # atno 17395 bound_to 11000

$$$$
