AV-unprocessed.smi:301|AV-procd|sdf|2271|dock10
  -GOLD-   2262022163D 1   1.00000     0.00000
 Structure written by MMmdl.
 32 33  0  0  0  0  0  0  0  0  1 V2000
  144.3682  139.6712  155.7752 C   0  0  0  0  0  0  0  0  0  0  0  0
  145.6763  139.7380  155.0643 C   0  0  0  0  0  0  0  0  0  0  0  0
  146.4980  140.7886  155.1285 N   0  0  0  0  0  0  0  0  0  0  0  0
  147.6583  140.6144  154.3665 C   0  0  0  0  0  0  0  0  0  0  0  0
  148.6953  141.7010  154.3202 C   0  0  0  0  0  0  0  0  0  0  0  0
  149.8976  141.3644  155.2103 C   0  0  0  0  0  0  0  0  0  0  0  0
  150.6032  140.3831  154.9715 O   0  0  0  0  0  0  0  0  0  0  0  0
  150.1246  142.1967  156.2382 N   0  0  0  0  0  0  0  0  0  0  0  0
  151.2015  142.0521  157.2109 C   0  0  0  0  0  0  0  0  0  0  0  0
  151.1664  143.1742  158.2613 C   0  0  1  0  0  0  0  0  0  0  0  0
  152.2014  143.0070  159.3728 C   0  0  0  0  0  0  0  0  0  0  0  0
  152.3917  144.4352  159.8287 C   0  0  0  0  0  0  0  0  0  0  0  0
  152.3315  145.1911  158.5053 C   0  0  0  0  0  0  0  0  0  0  0  0
  151.4688  144.4329  157.6611 O   0  0  0  0  0  0  0  0  0  0  0  0
  147.7064  139.3994  153.7278 C   0  0  0  0  0  0  0  0  0  0  0  0
  146.2892  138.4384  154.0495 S   0  0  0  0  0  0  0  0  0  0  0  0
  144.3341  140.4020  156.5839 H   0  0  0  0  0  0  0  0  0  0  0  0
  144.2219  138.6771  156.1980 H   0  0  0  0  0  0  0  0  0  0  0  0
  143.5559  139.8803  155.0790 H   0  0  0  0  0  0  0  0  0  0  0  0
  149.0532  141.8528  153.3013 H   0  0  0  0  0  0  0  0  0  0  0  0
  148.2569  142.6487  154.6369 H   0  0  0  0  0  0  0  0  0  0  0  0
  149.4984  142.9787  156.3652 H   0  0  0  0  0  0  0  0  0  0  0  0
  151.1351  141.0772  157.6966 H   0  0  0  0  0  0  0  0  0  0  0  0
  152.1523  142.0673  156.6774 H   0  0  0  0  0  0  0  0  0  0  0  0
  150.1755  143.2468  158.7130 H   0  0  0  0  0  0  0  0  0  0  0  0
  151.8658  142.3436  160.1703 H   0  0  0  0  0  0  0  0  0  0  0  0
  153.1383  142.6159  158.9736 H   0  0  0  0  0  0  0  0  0  0  0  0
  151.5642  144.7360  160.4728 H   0  0  0  0  0  0  0  0  0  0  0  0
  153.3245  144.5943  160.3704 H   0  0  0  0  0  0  0  0  0  0  0  0
  151.9746  146.2141  158.6262 H   0  0  0  0  0  0  0  0  0  0  0  0
  153.3189  145.2294  158.0435 H   0  0  0  0  0  0  0  0  0  0  0  0
  148.4846  139.0161  153.0844 H   0  0  0  0  0  0  0  0  0  0  0  0
  1  2  1  0  0  0  0
  1 17  1  0  0  0  0
  1 18  1  0  0  0  0
  1 19  1  0  0  0  0
  2 16  1  0  0  0  0
  2  3  2  0  0  0  0
  3  4  1  0  0  0  0
  4  5  1  0  0  0  0
  4 15  2  0  0  0  0
  5  6  1  0  0  0  0
  5 20  1  0  0  0  0
  5 21  1  0  0  0  0
  6  7  2  0  0  0  0
  6  8  1  0  0  0  0
  8  9  1  0  0  0  0
  8 22  1  0  0  0  0
  9 10  1  0  0  0  0
  9 23  1  0  0  0  0
  9 24  1  0  0  0  0
 10 14  1  0  0  0  0
 10 11  1  0  0  0  0
 10 25  1  0  0  0  0
 11 12  1  0  0  0  0
 11 26  1  0  0  0  0
 11 27  1  0  0  0  0
 12 13  1  0  0  0  0
 12 28  1  0  0  0  0
 12 29  1  0  0  0  0
 13 14  1  0  0  0  0
 13 30  1  0  0  0  0
 13 31  1  0  0  0  0
 15 16  1  0  0  0  0
 15 32  1  0  0  0  0
M  END
> <s_m_source_file>
AV-unprocessed.smi

> <i_m_source_file_index>
301

> <i_lp_mmshare_version>
43012

> <i_f3d_flags>
0

> <s_epik_input>
W0NIM11jMW5jKFtjSF1zMSlbQ0gyXUMoPU8pW05IXVtDSDJdW0NAQEhdMltDSDJdW0NIMl1bQ0gyXU8y

> <s_epik_cmdline>
J2VwaWtfcHl0aG9uJywgJy1waCcsICc3LjAnLCAnLXRuJywgJzgnLCAnLW1hJywgJzIwMCcsICctbWV0YWxfYmluZGluZycsICctaW1hZScsICc8aW5maWxlLm1hZT4nLCAnLW9tYWUnLCAnPG91dGZpbGUubWFlPic=

> <r_lp_tautomer_probability>
1

> <r_epik_Ionization_Penalty>
6.06873e-05

> <r_epik_Ionization_Penalty_Charging>
0

> <r_epik_Ionization_Penalty_Neutral>
6.06873e-05

> <r_epik_State_Penalty>
-0

> <r_epik_Charging_Adjusted_Penalty>
0

> <i_epik_Tot_Q>
0

> <i_epik_Tot_abs_Q>
0

> <r_epik_Metal_State_Penalty>
-0

> <b_epik_Metal_Only>
0

> <s_lp_Force_Field>
OPLS_2005

> <r_lp_Energy>
16.0562

> <b_lp_Chiralities_Consistent>
1

> <s_lp_Variant>
AV-unprocessed.smi:301-2

> <Gold.Version>
5.8.1

> <Gold.Id.Protein>
6NUR|6NUR_protein|mol2

> <Gold.PLP.Fitness>
38.4528

> <Gold.PLP.PLP>
-30.4090

> <Gold.PLP.part.hbond>
-2.0000

> <Gold.PLP.part.metal>
0.0000

> <Gold.PLP.part.buried>
-3.5916

> <Gold.PLP.part.nonpolar>
-24.7515

> <Gold.PLP.part.repulsive>
0.3800

> <Gold.PLP.ligand.clash>
0.0000

> <Gold.PLP.ligand.torsion>
0.2530

> <Gold.PLP.Chemscore.Hbond>
1.8480

> <Gold.PLP.Chemscore.CHOScore>
1.0000

> <Gold.PLP.Chemscore.Metal>
0.0000

> <Gold.Chemscore.Hbonds>
donor molecule, donor type, donor heavy atom, donor atom, acceptor molecule, acceptor atom, score
      L1  H     8    22       P1  8028  0.93
      P1  H  7989  7998       L1     7  1.00
      L1  C    15    32       P1  7957  1.00

> <Gold.PLP.Chemscore.Internal.Correction>
0.0058

> <Gold.Rescore>
     Score         DG    S(hbond)    S(metal)    S(lipo)     H(rot)  DE(clash)    DE(int)     intcor
     15.81     -16.13       1.52        0.00      80.77       1.51       0.12       0.20       ----

> <Gold.Chemscore.Fitness>
15.8114

> <Gold.Chemscore.DG>
-16.1258

> <Gold.Chemscore.ZeroCoef>
-5.4800

> <Gold.Chemscore.Hbond>
1.5159

> <Gold.Chemscore.Metal>
0.0000

> <Gold.Chemscore.Lipo>
80.7667

> <Gold.Chemscore.Internal_Hbond>
0.0000

> <Gold.Chemscore.DEClash>
0.1152

> <Gold.Chemscore.DEInternal>
0.1992

> <Gold.Chemscore.Rot>
1.5106

> <Gold.Chemscore.Internal.Correction>
   9.000000E+99

> <Gold.Chemscore.Hbonds>
donor molecule, donor type, donor heavy atom, donor atom, acceptor molecule, acceptor atom, score
      L1  H     8    22       P1  8028  0.88
      P1  H  7989  7998       L1     7  0.49

> <Gold.Chemscore.Hbond.Weighted>
-5.0632

> <Gold.Chemscore.Metal.Weighted>
-0.0000

> <Gold.Chemscore.Lipo.Weighted>
-9.4497

> <Gold.Chemscore.Internal_Hbond.Weighted>
0.0000

> <Gold.Chemscore.DEClash.Weighted>
0.1152

> <Gold.Chemscore.DEInternal.Weighted>
0.1992

> <Gold.Chemscore.Rot.Weighted>
3.8670

> <Gold.Chemscore.Internal.Correction.Weighted>
   9.000000E+99

> <Gold.Protein.RotatedTorsions>
[ 6907 6896 6895 6894 ] final  125.77 input  -60.11 | X-H torsion
[ 7974 7965 7964 7962 ] final -105.10 input  175.53 | X-H torsion
[ 8008 7997 7996 7995 ] final    5.29 input   59.86 | X-H torsion
[ 10167 10162 10161 10158 ] final   97.57 input  -65.29 | X-H torsion
[ 10718 10713 10712 10709 ] final -122.20 input   66.30 | X-H torsion
[ 10763 10752 10751 10750 ] final  137.28 input  -60.55 | X-H torsion
[ 11005 11000 10999 10996 ] final   97.04 input  -57.11 | X-H torsion

> <Gold.Protein.ActiveResidues>
 VAL166  LYS551  ARG553  GLY616  TRP617  ASP618  TYR619  PRO620  LYS621  CYS622 
 ASP623  PHE694  ASN695  SER759  ASP760  ASP761  ALA762  ILE779  LEU786  VAL792 
 PHE793  MET794  SER795  GLU796  ALA797  LYS798  CYS799  TRP800  GLU811  SER814 

> <Gold.Protein.RotatedAtoms>
  152.3962  133.6751  159.6278 H   0  0  0  0  0  0  0  0  0  0  0  0  # atno 6907 bound_to 6896
  150.7861  133.8869  159.3311 H   0  0  0  0  0  0  0  0  0  0  0  0  # atno 6908 bound_to 6896
  151.6645  135.0986  160.0237 H   0  0  0  0  0  0  0  0  0  0  0  0  # atno 6909 bound_to 6896
  145.2347  140.9183  143.3184 H   0  0  0  0  0  0  0  0  0  0  0  0  # atno 7974 bound_to 7965
  154.7265  140.2722  155.6494 H   0  0  0  0  0  0  0  0  0  0  0  0  # atno 8008 bound_to 7997
  156.2838  140.2724  156.1877 H   0  0  0  0  0  0  0  0  0  0  0  0  # atno 8009 bound_to 7997
  155.0438  140.0371  157.2509 H   0  0  0  0  0  0  0  0  0  0  0  0  # atno 8010 bound_to 7997
  139.7788  144.6896  151.0051 H   0  0  0  0  0  0  0  0  0  0  0  0  # atno 10167 bound_to 10162
  156.1399  130.6458  150.9754 H   0  0  0  0  0  0  0  0  0  0  0  0  # atno 10718 bound_to 10713
  153.8705  135.3056  155.3442 H   0  0  0  0  0  0  0  0  0  0  0  0  # atno 10763 bound_to 10752
  154.7808  135.4837  153.9843 H   0  0  0  0  0  0  0  0  0  0  0  0  # atno 10764 bound_to 10752
  153.1409  135.6824  153.9125 H   0  0  0  0  0  0  0  0  0  0  0  0  # atno 10765 bound_to 10752
  139.8778  134.8981  156.4248 H   0  0  0  0  0  0  0  0  0  0  0  0  # atno 11005 bound_to 11000
  144.9644  139.3946  143.6340 LP  0  0  0  0  0  0  0  0  0  0  0  0  # atno 17320 bound_to 7965
  146.3344  139.8712  142.8839 LP  0  0  0  0  0  0  0  0  0  0  0  0  # atno 17321 bound_to 7965
  140.7817  143.4506  151.0419 LP  0  0  0  0  0  0  0  0  0  0  0  0  # atno 17342 bound_to 10162
  139.8187  143.7850  152.3176 LP  0  0  0  0  0  0  0  0  0  0  0  0  # atno 17343 bound_to 10162
  157.6566  131.0888  150.7933 LP  0  0  0  0  0  0  0  0  0  0  0  0  # atno 17370 bound_to 10713
  156.8010  130.4921  149.5370 LP  0  0  0  0  0  0  0  0  0  0  0  0  # atno 17371 bound_to 10713
  140.9108  133.7713  155.9789 LP  0  0  0  0  0  0  0  0  0  0  0  0  # atno 17394 bound_to 11000
  140.8548  134.2911  157.5260 LP  0  0  0  0  0  0  0  0  0  0  0  0  # atno 17395 bound_to 11000

$$$$
