AV-unprocessed.smi:1046|AV-procd|sdf|4558|dock4
  -GOLD-   22720 2593D 1   1.00000     0.00000
 Structure written by MMmdl.
 54 56  0  0  0  0  0  0  0  0  3 V2000
  152.7248  143.5617  161.0799 C   0  0  0  0  0  0  0  0  0  0  0  0
  152.2992  142.7262  159.8845 C   0  0  0  0  0  0  0  0  0  0  0  0
  151.3918  143.2875  158.9581 C   0  0  0  0  0  0  0  0  0  0  0  0
  151.0192  142.4979  157.8767 C   0  0  0  0  0  0  0  0  0  0  0  0
  150.1548  142.7567  156.8111 N   0  3  0  0  0  0  0  0  0  0  0  0
  150.1049  141.6701  155.9920 C   0  0  0  0  0  0  0  0  0  0  0  0
  150.9239  140.7199  156.5192 N   0  0  0  0  0  0  0  0  0  0  0  0
  151.2336  139.3703  156.0245 C   0  0  0  0  0  0  0  0  0  0  0  0
  150.3129  138.9263  154.8688 C   0  0  2  0  0  0  0  0  0  0  0  0
  150.5481  139.7370  153.7359 O   0  0  0  0  0  0  0  0  0  0  0  0
  148.8176  139.0487  155.2231 C   0  0  0  0  0  0  0  0  0  0  0  0
  147.8982  139.0816  154.0796 N   0  0  0  0  0  0  0  0  0  0  0  0
  146.6179  138.4339  154.3643 C   0  0  0  0  0  0  0  0  0  0  0  0
  145.7225  139.2464  155.3221 C   0  0  0  0  0  0  0  0  0  0  0  0
  145.4774  140.6057  154.7747 N   0  3  0  0  0  0  0  0  0  0  0  0
  144.5585  141.4024  155.6268 C   0  0  0  0  0  0  0  0  0  0  0  0
  143.2834  140.6311  156.0085 C   0  0  0  0  0  0  0  0  0  0  0  0
  142.4737  140.4375  154.8678 O   0  0  0  0  0  0  0  0  0  0  0  0
  146.7637  141.2909  154.4779 C   0  0  0  0  0  0  0  0  0  0  0  0
  147.6321  140.4203  153.5463 C   0  0  0  0  0  0  0  0  0  0  0  0
  151.5177  141.1929  157.6960 C   0  0  0  0  0  0  0  0  0  0  0  0
  152.4137  140.6254  158.5996 C   0  0  0  0  0  0  0  0  0  0  0  0
  152.8043  141.4121  159.7067 C   0  0  0  0  0  0  0  0  0  0  0  0
  153.7795  140.8179  160.7088 C   0  0  0  0  0  0  0  0  0  0  0  0
  152.2046  144.5198  161.1025 H   0  0  0  0  0  0  0  0  0  0  0  0
  153.7956  143.7637  161.0428 H   0  0  0  0  0  0  0  0  0  0  0  0
  152.5017  143.0414  162.0116 H   0  0  0  0  0  0  0  0  0  0  0  0
  151.0038  144.2875  159.0864 H   0  0  0  0  0  0  0  0  0  0  0  0
  149.5218  141.5799  155.0867 H   0  0  0  0  0  0  0  0  0  0  0  0
  152.2708  139.3877  155.6879 H   0  0  0  0  0  0  0  0  0  0  0  0
  151.1975  138.6642  156.8544 H   0  0  0  0  0  0  0  0  0  0  0  0
  150.5540  137.9042  154.5782 H   0  0  0  0  0  0  0  0  0  0  0  0
  149.9776  139.4507  153.0390 H   0  0  0  0  0  0  0  0  0  0  0  0
  148.5577  138.1996  155.8574 H   0  0  0  0  0  0  0  0  0  0  0  0
  148.6713  139.9310  155.8455 H   0  0  0  0  0  0  0  0  0  0  0  0
  146.0820  138.2802  153.4267 H   0  0  0  0  0  0  0  0  0  0  0  0
  146.7890  137.4373  154.7732 H   0  0  0  0  0  0  0  0  0  0  0  0
  144.7714  138.7276  155.4484 H   0  0  0  0  0  0  0  0  0  0  0  0
  146.1743  139.3187  156.3123 H   0  0  0  0  0  0  0  0  0  0  0  0
  145.0702  141.6947  156.5452 H   0  0  0  0  0  0  0  0  0  0  0  0
  144.3009  142.3301  155.1137 H   0  0  0  0  0  0  0  0  0  0  0  0
  143.5520  139.6514  156.4045 H   0  0  0  0  0  0  0  0  0  0  0  0
  142.7115  141.1369  156.7858 H   0  0  0  0  0  0  0  0  0  0  0  0
  143.0282  140.4257  154.1017 H   0  0  0  0  0  0  0  0  0  0  0  0
  146.5757  142.2457  153.9888 H   0  0  0  0  0  0  0  0  0  0  0  0
  147.2916  141.5150  155.4055 H   0  0  0  0  0  0  0  0  0  0  0  0
  148.5642  140.9350  153.3173 H   0  0  0  0  0  0  0  0  0  0  0  0
  147.1185  140.3192  152.5893 H   0  0  0  0  0  0  0  0  0  0  0  0
  152.7950  139.6233  158.4695 H   0  0  0  0  0  0  0  0  0  0  0  0
  154.1161  139.8280  160.3994 H   0  0  0  0  0  0  0  0  0  0  0  0
  153.3089  140.7199  161.6874 H   0  0  0  0  0  0  0  0  0  0  0  0
  154.6613  141.4512  160.8100 H   0  0  0  0  0  0  0  0  0  0  0  0
  145.0024  140.4719  153.8930 H   0  0  0  0  0  0  0  0  0  0  0  0
  149.6367  143.6114  156.6515 H   0  0  0  0  0  0  0  0  0  0  0  0
  1  2  1  0  0  0  0
  1 25  1  0  0  0  0
  1 26  1  0  0  0  0
  1 27  1  0  0  0  0
  2 23  1  0  0  0  0
  2  3  2  0  0  0  0
  3  4  1  0  0  0  0
  3 28  1  0  0  0  0
  4 21  2  0  0  0  0
  4  5  1  0  0  0  0
  5  6  2  0  0  0  0
  5 54  1  0  0  0  0
  6  7  1  0  0  0  0
  6 29  1  0  0  0  0
  7  8  1  0  0  0  0
  7 21  1  0  0  0  0
  8  9  1  0  0  0  0
  8 30  1  0  0  0  0
  8 31  1  0  0  0  0
  9 10  1  0  0  0  0
  9 11  1  0  0  0  0
  9 32  1  0  0  0  0
 10 33  1  0  0  0  0
 11 12  1  0  0  0  0
 11 34  1  0  0  0  0
 11 35  1  0  0  0  0
 12 20  1  0  0  0  0
 12 13  1  0  0  0  0
 13 14  1  0  0  0  0
 13 36  1  0  0  0  0
 13 37  1  0  0  0  0
 14 15  1  0  0  0  0
 14 38  1  0  0  0  0
 14 39  1  0  0  0  0
 15 16  1  0  0  0  0
 15 19  1  0  0  0  0
 15 53  1  0  0  0  0
 16 17  1  0  0  0  0
 16 40  1  0  0  0  0
 16 41  1  0  0  0  0
 17 18  1  0  0  0  0
 17 42  1  0  0  0  0
 17 43  1  0  0  0  0
 18 44  1  0  0  0  0
 19 20  1  0  0  0  0
 19 45  1  0  0  0  0
 19 46  1  0  0  0  0
 20 47  1  0  0  0  0
 20 48  1  0  0  0  0
 21 22  1  0  0  0  0
 22 23  2  0  0  0  0
 22 49  1  0  0  0  0
 23 24  1  0  0  0  0
 24 50  1  0  0  0  0
 24 51  1  0  0  0  0
 24 52  1  0  0  0  0
M  CHG  1   5   1
M  CHG  1  15   1
M  END
> <s_m_source_file>
AV-unprocessed.smi

> <i_m_source_file_index>
1046

> <i_lp_mmshare_version>
43012

> <i_f3d_flags>
0

> <s_epik_input>
W0NIM11jKFtjSF0xKWMoW0NIM10pW2NIXWMoYzEyKW4oW2NIXW4yKVtDSDJdW0NASF0oW09IXSlbQ0gyXU4zW0NIMl1bQ0gyXU4oW0NIMl1bQ0gyXTMpW0NIMl1bQ0gyXVtPSF0=

> <s_epik_cmdline>
J2VwaWtfcHl0aG9uJywgJy1waCcsICc3LjAnLCAnLXRuJywgJzgnLCAnLW1hJywgJzIwMCcsICctbWV0YWxfYmluZGluZycsICctaW1hZScsICc8aW5maWxlLm1hZT4nLCAnLW9tYWUnLCAnPG91dGZpbGUubWFlPic=

> <r_epik_Ionization_Penalty>
1.37806

> <r_epik_Ionization_Penalty_Charging>
1.32954

> <r_epik_Ionization_Penalty_Neutral>
0.0485178

> <r_epik_State_Penalty>
2.26587

> <r_epik_Charging_Adjusted_Penalty>
3.59541

> <i_epik_Tot_Q>
2

> <i_epik_Tot_abs_Q>
2

> <r_epik_Metal_State_Penalty>
6.27317

> <b_epik_Metal_Only>
0

> <s_lp_Force_Field>
OPLS_2005

> <r_lp_Energy>
41.5641

> <b_lp_Chiralities_Consistent>
1

> <s_lp_Variant>
AV-unprocessed.smi:1046-11

> <Gold.Version>
5.8.1

> <Gold.Id.Protein>
6NUR|6NUR_protein|mol2

> <Gold.PLP.Fitness>
59.4392

> <Gold.PLP.PLP>
-41.1679

> <Gold.PLP.part.hbond>
-5.5988

> <Gold.PLP.part.metal>
0.0000

> <Gold.PLP.part.buried>
-2.3569

> <Gold.PLP.part.nonpolar>
-33.2955

> <Gold.PLP.part.repulsive>
0.1939

> <Gold.PLP.ligand.clash>
0.0000

> <Gold.PLP.ligand.torsion>
0.7620

> <Gold.PLP.Chemscore.Hbond>
6.5840

> <Gold.PLP.Chemscore.CHOScore>
0.0000

> <Gold.PLP.Chemscore.Metal>
0.0000

> <Gold.Chemscore.Hbonds>
donor molecule, donor type, donor heavy atom, donor atom, acceptor molecule, acceptor atom, score
      L1  H     5    54       P1  8028  2.00
      L1  H    10    33       P1  7957  0.70
      L1  H    15    53       P1 10175  2.00
      L1  H    18    44       P1 10175  1.00
      P1  H  7989  7998       L1    10  0.98

> <Gold.PLP.Chemscore.Internal.Correction>
0.0433

> <Gold.Rescore>
     Score         DG    S(hbond)    S(metal)    S(lipo)     H(rot)  DE(clash)    DE(int)     intcor
     21.97     -24.65       4.45        0.00     108.77       3.29       0.56       2.12       ----

> <Gold.Chemscore.Fitness>
21.9695

> <Gold.Chemscore.DG>
-24.6479

> <Gold.Chemscore.ZeroCoef>
-5.4800

> <Gold.Chemscore.Hbond>
4.4501

> <Gold.Chemscore.Metal>
0.0000

> <Gold.Chemscore.Lipo>
108.7691

> <Gold.Chemscore.Internal_Hbond>
0.0000

> <Gold.Chemscore.DEClash>
0.5586

> <Gold.Chemscore.DEInternal>
2.1198

> <Gold.Chemscore.Rot>
3.2896

> <Gold.Chemscore.Internal.Correction>
   9.000000E+99

> <Gold.Chemscore.Hbonds>
donor molecule, donor type, donor heavy atom, donor atom, acceptor molecule, acceptor atom, score
      L1  H     5    54       P1  8028  0.97
      L1  H    10    33       P1  7957  0.67
      L1  H    15    53       P1 10175  0.99
      L1  H    18    44       P1 10175  0.98
      P1  H  7989  7998       L1    10  0.88

> <Gold.Chemscore.Hbond.Weighted>
-14.8634

> <Gold.Chemscore.Metal.Weighted>
-0.0000

> <Gold.Chemscore.Lipo.Weighted>
-12.7260

> <Gold.Chemscore.Internal_Hbond.Weighted>
0.0000

> <Gold.Chemscore.DEClash.Weighted>
0.5586

> <Gold.Chemscore.DEInternal.Weighted>
2.1198

> <Gold.Chemscore.Rot.Weighted>
8.4215

> <Gold.Chemscore.Internal.Correction.Weighted>
   9.000000E+99

> <Gold.Protein.RotatedTorsions>
[ 6907 6896 6895 6894 ] final -160.47 input  -60.11 | X-H torsion
[ 7974 7965 7964 7962 ] final  -26.32 input  175.53 | X-H torsion
[ 8008 7997 7996 7995 ] final  121.67 input   59.86 | X-H torsion
[ 10167 10162 10161 10158 ] final -119.59 input  -65.29 | X-H torsion
[ 10718 10713 10712 10709 ] final  135.72 input   66.30 | X-H torsion
[ 10763 10752 10751 10750 ] final   12.22 input  -60.55 | X-H torsion
[ 11005 11000 10999 10996 ] final   -9.75 input  -57.11 | X-H torsion

> <Gold.Protein.ActiveResidues>
 VAL166  LYS551  ARG553  GLY616  TRP617  ASP618  TYR619  PRO620  LYS621  CYS622 
 ASP623  PHE694  ASN695  SER759  ASP760  ASP761  ALA762  ILE779  LEU786  VAL792 
 PHE793  MET794  SER795  GLU796  ALA797  LYS798  CYS799  TRP800  GLU811  SER814 

> <Gold.Protein.RotatedAtoms>
  151.3496  133.3930  159.2678 H   0  0  0  0  0  0  0  0  0  0  0  0  # atno 6907 bound_to 6896
  150.9812  134.9167  159.7855 H   0  0  0  0  0  0  0  0  0  0  0  0  # atno 6908 bound_to 6896
  152.5217  134.3460  159.9286 H   0  0  0  0  0  0  0  0  0  0  0  0  # atno 6909 bound_to 6896
  146.1433  140.5004  142.8642 H   0  0  0  0  0  0  0  0  0  0  0  0  # atno 7974 bound_to 7965
  156.2696  140.2803  156.1345 H   0  0  0  0  0  0  0  0  0  0  0  0  # atno 8008 bound_to 7997
  155.1019  140.0390  157.2717 H   0  0  0  0  0  0  0  0  0  0  0  0  # atno 8009 bound_to 7997
  154.6809  140.2608  155.6916 H   0  0  0  0  0  0  0  0  0  0  0  0  # atno 8010 bound_to 7997
  140.0450  143.5116  152.2111 H   0  0  0  0  0  0  0  0  0  0  0  0  # atno 10167 bound_to 10162
  157.4541  131.1068  150.9998 H   0  0  0  0  0  0  0  0  0  0  0  0  # atno 10718 bound_to 10713
  153.1844  135.6833  153.8434 H   0  0  0  0  0  0  0  0  0  0  0  0  # atno 10763 bound_to 10752
  153.7755  135.3190  155.3359 H   0  0  0  0  0  0  0  0  0  0  0  0  # atno 10764 bound_to 10752
  154.8080  135.4736  154.0537 H   0  0  0  0  0  0  0  0  0  0  0  0  # atno 10765 bound_to 10752
  140.7375  133.8698  155.8941 H   0  0  0  0  0  0  0  0  0  0  0  0  # atno 11005 bound_to 11000
  144.7817  140.5855  143.6601 LP  0  0  0  0  0  0  0  0  0  0  0  0  # atno 17320 bound_to 7965
  145.4995  139.1484  143.3665 LP  0  0  0  0  0  0  0  0  0  0  0  0  # atno 17321 bound_to 7965
  139.5989  144.7576  151.3218 LP  0  0  0  0  0  0  0  0  0  0  0  0  # atno 17342 bound_to 10162
  140.7243  143.7048  150.7816 LP  0  0  0  0  0  0  0  0  0  0  0  0  # atno 17343 bound_to 10162
  157.0818  130.5906  149.5422 LP  0  0  0  0  0  0  0  0  0  0  0  0  # atno 17370 bound_to 10713
  156.0000  130.5077  150.7626 LP  0  0  0  0  0  0  0  0  0  0  0  0  # atno 17371 bound_to 10713
  140.9866  134.1334  157.4446 LP  0  0  0  0  0  0  0  0  0  0  0  0  # atno 17394 bound_to 11000
  139.8813  135.0027  156.6145 LP  0  0  0  0  0  0  0  0  0  0  0  0  # atno 17395 bound_to 11000

$$$$
