AV-unprocessed.smi:912|AV-procd|sdf|4147|dock3
  -GOLD-   22720 2 53D 1   1.00000     0.00000
 Structure written by MMmdl.
 26 26  0  0  0  0  0  0  0  0  3 V2000
  146.3247  136.0655  153.6793 C   0  0  0  0  0  0  0  0  0  0  0  0
  147.4436  137.0191  153.8589 N   0  3  0  0  0  0  0  0  0  0  0  0
  147.1510  138.4758  153.7084 C   0  0  2  0  0  0  0  0  0  0  0  0
  145.9691  138.8880  154.6207 C   0  0  0  0  0  0  0  0  0  0  0  0
  146.8253  138.7396  152.2065 C   0  0  0  0  0  0  0  0  0  0  0  0
  146.5558  140.0362  151.9316 N   0  5  0  0  0  0  0  0  0  0  0  0
  146.8343  137.8098  151.4010 O   0  0  0  0  0  0  0  0  0  0  0  0
  148.3850  139.2919  154.1561 C   0  0  0  0  0  0  0  0  0  0  0  0
  148.3421  140.7025  154.2944 C   0  0  0  0  0  0  0  0  0  0  0  0
  149.4903  141.3881  154.7368 C   0  0  0  0  0  0  0  0  0  0  0  0
  150.6450  140.7704  155.0589 N   0  0  0  0  0  0  0  0  0  0  0  0
  150.6858  139.4271  154.9535 C   0  0  0  0  0  0  0  0  0  0  0  0
  149.5946  138.6481  154.5199 C   0  0  0  0  0  0  0  0  0  0  0  0
  146.7106  135.0472  153.7165 H   0  0  0  0  0  0  0  0  0  0  0  0
  145.8286  136.1967  152.7175 H   0  0  0  0  0  0  0  0  0  0  0  0
  145.5847  136.1646  154.4731 H   0  0  0  0  0  0  0  0  0  0  0  0
  147.8300  136.8749  154.7798 H   0  0  0  0  0  0  0  0  0  0  0  0
  145.8029  139.9659  154.5875 H   0  0  0  0  0  0  0  0  0  0  0  0
  146.1634  138.6244  155.6609 H   0  0  0  0  0  0  0  0  0  0  0  0
  145.0306  138.4143  154.3311 H   0  0  0  0  0  0  0  0  0  0  0  0
  145.6611  140.4368  152.2369 H   0  0  0  0  0  0  0  0  0  0  0  0
  147.4476  141.2654  154.0714 H   0  0  0  0  0  0  0  0  0  0  0  0
  149.4768  142.4627  154.8427 H   0  0  0  0  0  0  0  0  0  0  0  0
  151.6167  138.9543  155.2304 H   0  0  0  0  0  0  0  0  0  0  0  0
  149.7030  137.5749  154.4803 H   0  0  0  0  0  0  0  0  0  0  0  0
  148.1541  136.7983  153.1751 H   0  0  0  0  0  0  0  0  0  0  0  0
  1  2  1  0  0  0  0
  1 14  1  0  0  0  0
  1 15  1  0  0  0  0
  1 16  1  0  0  0  0
  2  3  1  0  0  0  0
  2 17  1  0  0  0  0
  2 26  1  0  0  0  0
  3  4  1  0  0  0  0
  3  5  1  0  0  0  0
  3  8  1  0  0  0  0
  4 18  1  0  0  0  0
  4 19  1  0  0  0  0
  4 20  1  0  0  0  0
  5  6  1  0  0  0  0
  5  7  2  0  0  0  0
  6 21  1  0  0  0  0
  8 13  1  0  0  0  0
  8  9  2  0  0  0  0
  9 10  1  0  0  0  0
  9 22  1  0  0  0  0
 10 11  2  0  0  0  0
 10 23  1  0  0  0  0
 11 12  1  0  0  0  0
 12 13  2  0  0  0  0
 12 24  1  0  0  0  0
 13 25  1  0  0  0  0
M  CHG  1   2   1
M  CHG  1   6  -1
M  END
> <s_m_source_file>
AV-unprocessed.smi

> <i_m_source_file_index>
912

> <i_lp_mmshare_version>
43012

> <i_f3d_flags>
0

> <s_epik_input>
W0NIM11bTkhdW0NAQF0oW0NIM10pKEMoPU8pW05IMl0pYzFbY0hdW2NIXW5bY0hdW2NIXTE=

> <s_epik_cmdline>
J2VwaWtfcHl0aG9uJywgJy1waCcsICc3LjAnLCAnLXRuJywgJzgnLCAnLW1hJywgJzIwMCcsICctbWV0YWxfYmluZGluZycsICctaW1hZScsICc8aW5maWxlLm1hZT4nLCAnLW9tYWUnLCAnPG91dGZpbGUubWFlPic=

> <r_epik_Ionization_Penalty>
6.88213

> <r_epik_Ionization_Penalty_Charging>
6.88153

> <r_epik_Ionization_Penalty_Neutral>
0.000601258

> <r_epik_State_Penalty>
7.02604

> <r_epik_Charging_Adjusted_Penalty>
13.9076

> <i_epik_Tot_Q>
0

> <i_epik_Tot_abs_Q>
2

> <r_epik_Metal_State_Penalty>
3.10652

> <b_epik_Metal_Only>
1

> <s_lp_Force_Field>
OPLS_2005

> <r_lp_Energy>
7.66147

> <b_lp_Chiralities_Consistent>
1

> <s_lp_Variant>
AV-unprocessed.smi:912-8

> <Gold.Version>
5.8.1

> <Gold.Id.Protein>
6NUR|6NUR_protein|mol2

> <Gold.PLP.Fitness>
37.6244

> <Gold.PLP.PLP>
-21.3746

> <Gold.PLP.part.hbond>
-4.6379

> <Gold.PLP.part.metal>
0.0000

> <Gold.PLP.part.buried>
-2.7930

> <Gold.PLP.part.nonpolar>
-17.5831

> <Gold.PLP.part.repulsive>
2.3721

> <Gold.PLP.ligand.clash>
0.0000

> <Gold.PLP.ligand.torsion>
0.2133

> <Gold.PLP.Chemscore.Hbond>
4.7320

> <Gold.PLP.Chemscore.CHOScore>
0.8155

> <Gold.PLP.Chemscore.Metal>
0.0000

> <Gold.Chemscore.Hbonds>
donor molecule, donor type, donor heavy atom, donor atom, acceptor molecule, acceptor atom, score
      L1  H     2    26       P1  7948  2.00
      L1  H     6    21       P1 10175  1.00
      P1  H  7954  7966       L1     7  1.00
      P1  H  7989  7998       L1    11  0.39
      L1  C    10    23       P1  8028  1.00

> <Gold.PLP.Chemscore.Internal.Correction>
0.0341

> <Gold.Rescore>
     Score         DG    S(hbond)    S(metal)    S(lipo)     H(rot)  DE(clash)    DE(int)     intcor
     13.00     -15.13       2.87        0.00      40.11       1.80       1.42       0.71       ----

> <Gold.Chemscore.Fitness>
12.9998

> <Gold.Chemscore.DG>
-15.1273

> <Gold.Chemscore.ZeroCoef>
-5.4800

> <Gold.Chemscore.Hbond>
2.8658

> <Gold.Chemscore.Metal>
0.0000

> <Gold.Chemscore.Lipo>
40.1096

> <Gold.Chemscore.Internal_Hbond>
0.0000

> <Gold.Chemscore.DEClash>
1.4190

> <Gold.Chemscore.DEInternal>
0.7085

> <Gold.Chemscore.Rot>
1.8037

> <Gold.Chemscore.Internal.Correction>
   9.000000E+99

> <Gold.Chemscore.Hbonds>
donor molecule, donor type, donor heavy atom, donor atom, acceptor molecule, acceptor atom, score
      L1  H     2    26       P1  7948  0.99
      L1  H     6    21       P1 10175  0.33
      P1  H  7954  7966       L1     7  0.91
      P1  H  7989  7998       L1    11  0.01

> <Gold.Chemscore.Hbond.Weighted>
-9.5719

> <Gold.Chemscore.Metal.Weighted>
-0.0000

> <Gold.Chemscore.Lipo.Weighted>
-4.6928

> <Gold.Chemscore.Internal_Hbond.Weighted>
0.0000

> <Gold.Chemscore.DEClash.Weighted>
1.4190

> <Gold.Chemscore.DEInternal.Weighted>
0.7085

> <Gold.Chemscore.Rot.Weighted>
4.6174

> <Gold.Chemscore.Internal.Correction.Weighted>
   9.000000E+99

> <Gold.Protein.RotatedTorsions>
[ 6907 6896 6895 6894 ] final   39.25 input  -60.11 | X-H torsion
[ 7974 7965 7964 7962 ] final   -8.02 input  175.53 | X-H torsion
[ 8008 7997 7996 7995 ] final    2.48 input   59.86 | X-H torsion
[ 10167 10162 10161 10158 ] final  140.38 input  -65.29 | X-H torsion
[ 10718 10713 10712 10709 ] final -100.69 input   66.30 | X-H torsion
[ 10763 10752 10751 10750 ] final  -18.02 input  -60.55 | X-H torsion
[ 11005 11000 10999 10996 ] final  -90.48 input  -57.11 | X-H torsion

> <Gold.Protein.ActiveResidues>
 VAL166  LYS551  ARG553  GLY616  TRP617  ASP618  TYR619  PRO620  LYS621  CYS622 
 ASP623  PHE694  ASN695  SER759  ASP760  ASP761  ALA762  ILE779  LEU786  VAL792 
 PHE793  MET794  SER795  GLU796  ALA797  LYS798  CYS799  TRP800  GLU811  SER814 

> <Gold.Protein.RotatedAtoms>
  152.1671  134.8865  160.0537 H   0  0  0  0  0  0  0  0  0  0  0  0  # atno 6907 bound_to 6896
  151.9839  133.3762  159.4126 H   0  0  0  0  0  0  0  0  0  0  0  0  # atno 6908 bound_to 6896
  150.6896  134.3932  159.5129 H   0  0  0  0  0  0  0  0  0  0  0  0  # atno 6909 bound_to 6896
  146.2292  140.2406  142.8343 H   0  0  0  0  0  0  0  0  0  0  0  0  # atno 7974 bound_to 7965
  154.6921  140.2655  155.6802 H   0  0  0  0  0  0  0  0  0  0  0  0  # atno 8008 bound_to 7997
  156.2736  140.2789  156.1426 H   0  0  0  0  0  0  0  0  0  0  0  0  # atno 8009 bound_to 7997
  155.0882  140.0373  157.2650 H   0  0  0  0  0  0  0  0  0  0  0  0  # atno 8010 bound_to 7997
  139.5050  144.6237  151.5988 H   0  0  0  0  0  0  0  0  0  0  0  0  # atno 10167 bound_to 10162
  156.0171  130.5339  150.6854 H   0  0  0  0  0  0  0  0  0  0  0  0  # atno 10718 bound_to 10713
  153.5829  135.7004  153.5456 H   0  0  0  0  0  0  0  0  0  0  0  0  # atno 10763 bound_to 10752
  153.3245  135.4064  155.1444 H   0  0  0  0  0  0  0  0  0  0  0  0  # atno 10764 bound_to 10752
  154.8614  135.3704  154.5357 H   0  0  0  0  0  0  0  0  0  0  0  0  # atno 10765 bound_to 10752
  141.1565  133.7695  156.9744 H   0  0  0  0  0  0  0  0  0  0  0  0  # atno 11005 bound_to 11000
  144.9488  140.8156  143.5585 LP  0  0  0  0  0  0  0  0  0  0  0  0  # atno 17320 bound_to 7965
  145.2364  139.2092  143.5016 LP  0  0  0  0  0  0  0  0  0  0  0  0  # atno 17321 bound_to 7965
  140.5948  143.9716  150.6347 LP  0  0  0  0  0  0  0  0  0  0  0  0  # atno 17342 bound_to 10162
  140.2908  143.3325  152.1064 LP  0  0  0  0  0  0  0  0  0  0  0  0  # atno 17343 bound_to 10162
  157.4548  131.0876  151.0808 LP  0  0  0  0  0  0  0  0  0  0  0  0  # atno 17370 bound_to 10713
  157.1314  130.6104  149.5530 LP  0  0  0  0  0  0  0  0  0  0  0  0  # atno 17371 bound_to 10713
  140.1108  134.9478  157.2062 LP  0  0  0  0  0  0  0  0  0  0  0  0  # atno 17394 bound_to 11000
  140.3197  134.2930  155.7249 LP  0  0  0  0  0  0  0  0  0  0  0  0  # atno 17395 bound_to 11000

$$$$
