AV-unprocessed.smi:34|AV-procd|sdf|222|dock7
  -GOLD-   2262015543D 1   1.00000     0.00000
 Structure written by MMmdl.
 55 59  0  0  0  0  0  0  0  0  1 V2000
  153.4566  139.7847  158.2394 O   0  0  0  0  0  0  0  0  0  0  0  0
  152.5818  140.6110  157.9780 C   0  0  0  0  0  0  0  0  0  0  0  0
  151.5940  140.3870  156.9382 N   0  0  0  0  0  0  0  0  0  0  0  0
  151.5173  139.3497  156.0728 C   0  0  0  0  0  0  0  0  0  0  0  0
  151.7270  139.4977  154.7379 N   0  0  0  0  0  0  0  0  0  0  0  0
  151.6350  138.4437  153.9209 C   0  0  0  0  0  0  0  0  0  0  0  0
  151.3463  137.1757  154.2237 N   0  0  0  0  0  0  0  0  0  0  0  0
  151.1292  137.0235  155.5617 C   0  0  0  0  0  0  0  0  0  0  0  0
  151.1903  138.0512  156.5423 C   0  0  0  0  0  0  0  0  0  0  0  0
  150.9065  137.5217  157.7945 N   0  0  0  0  0  0  0  0  0  0  0  0
  150.6975  136.2532  157.5623 C   0  0  0  0  0  0  0  0  0  0  0  0
  150.8075  135.8698  156.2413 N   0  0  0  0  0  0  0  0  0  0  0  0
  150.6488  134.5132  155.6221 C   0  0  1  0  0  0  0  0  0  0  0  0
  150.3221  133.6027  156.6292 O   0  0  0  0  0  0  0  0  0  0  0  0
  148.9210  133.3633  156.6030 C   0  0  2  0  0  0  0  0  0  0  0  0
  148.5706  132.0701  157.3469 C   0  0  0  0  0  0  0  0  0  0  0  0
  147.7782  132.3966  158.4765 O   0  0  0  0  0  0  0  0  0  0  0  0
  148.2348  133.2709  159.3931 C   0  0  0  0  0  0  0  0  0  0  0  0
  149.2953  133.8885  159.2779 O   0  0  0  0  0  0  0  0  0  0  0  0
  147.3222  133.4117  160.5644 C   0  0  0  0  0  0  0  0  0  0  0  0
  147.7091  134.2325  161.6495 C   0  0  0  0  0  0  0  0  0  0  0  0
  146.8692  134.3834  162.7700 C   0  0  0  0  0  0  0  0  0  0  0  0
  145.6321  133.7148  162.8194 C   0  0  0  0  0  0  0  0  0  0  0  0
  145.2352  132.8957  161.7464 C   0  0  0  0  0  0  0  0  0  0  0  0
  146.0736  132.7441  160.6244 C   0  0  0  0  0  0  0  0  0  0  0  0
  148.6258  133.3409  155.1049 C   0  0  2  0  0  0  0  0  0  0  0  0
  149.0148  132.1820  154.5688 F   0  0  0  0  0  0  0  0  0  0  0  0
  149.5066  134.4642  154.5766 C   0  0  1  0  0  0  0  0  0  0  0  0
  148.7540  135.6600  154.4609 O   0  0  0  0  0  0  0  0  0  0  0  0
  152.4139  141.8657  158.7836 C   0  0  0  0  0  0  0  0  0  0  0  0
  151.6249  142.9262  158.2845 C   0  0  0  0  0  0  0  0  0  0  0  0
  151.4528  144.1029  159.0395 C   0  0  0  0  0  0  0  0  0  0  0  0
  152.0598  144.2246  160.3038 C   0  0  0  0  0  0  0  0  0  0  0  0
  152.8357  143.1672  160.8147 C   0  0  0  0  0  0  0  0  0  0  0  0
  153.0105  141.9907  160.0597 C   0  0  0  0  0  0  0  0  0  0  0  0
  150.8719  141.0877  156.8553 H   0  0  0  0  0  0  0  0  0  0  0  0
  151.8192  138.6458  152.8759 H   0  0  0  0  0  0  0  0  0  0  0  0
  150.4616  135.5639  158.3596 H   0  0  0  0  0  0  0  0  0  0  0  0
  151.6324  134.2833  155.2104 H   0  0  0  0  0  0  0  0  0  0  0  0
  148.3940  134.2064  157.0529 H   0  0  0  0  0  0  0  0  0  0  0  0
  147.9999  131.4084  156.6939 H   0  0  0  0  0  0  0  0  0  0  0  0
  149.4758  131.5406  157.6483 H   0  0  0  0  0  0  0  0  0  0  0  0
  148.6545  134.7559  161.6346 H   0  0  0  0  0  0  0  0  0  0  0  0
  147.1755  135.0128  163.5926 H   0  0  0  0  0  0  0  0  0  0  0  0
  144.9884  133.8299  163.6790 H   0  0  0  0  0  0  0  0  0  0  0  0
  144.2859  132.3817  161.7832 H   0  0  0  0  0  0  0  0  0  0  0  0
  145.7382  132.1079  159.8184 H   0  0  0  0  0  0  0  0  0  0  0  0
  147.5670  133.4632  154.8722 H   0  0  0  0  0  0  0  0  0  0  0  0
  149.9204  134.2219  153.5970 H   0  0  0  0  0  0  0  0  0  0  0  0
  148.7679  135.9339  153.5560 H   0  0  0  0  0  0  0  0  0  0  0  0
  151.1516  142.8475  157.3161 H   0  0  0  0  0  0  0  0  0  0  0  0
  150.8539  144.9120  158.6485 H   0  0  0  0  0  0  0  0  0  0  0  0
  151.9269  145.1269  160.8826 H   0  0  0  0  0  0  0  0  0  0  0  0
  153.2957  143.2570  161.7877 H   0  0  0  0  0  0  0  0  0  0  0  0
  153.6025  141.1873  160.4736 H   0  0  0  0  0  0  0  0  0  0  0  0
  1  2  2  0  0  0  0
  2  3  1  0  0  0  0
  2 30  1  0  0  0  0
  3  4  1  0  0  0  0
  3 36  1  0  0  0  0
  4  9  1  0  0  0  0
  4  5  2  0  0  0  0
  5  6  1  0  0  0  0
  6  7  2  0  0  0  0
  6 37  1  0  0  0  0
  7  8  1  0  0  0  0
  8 12  1  0  0  0  0
  8  9  2  0  0  0  0
  9 10  1  0  0  0  0
 10 11  2  0  0  0  0
 11 12  1  0  0  0  0
 11 38  1  0  0  0  0
 12 13  1  0  0  0  0
 13 28  1  0  0  0  0
 13 14  1  0  0  0  0
 13 39  1  0  0  0  0
 14 15  1  0  0  0  0
 15 16  1  0  0  0  0
 15 26  1  0  0  0  0
 15 40  1  0  0  0  0
 16 17  1  0  0  0  0
 16 41  1  0  0  0  0
 16 42  1  0  0  0  0
 17 18  1  0  0  0  0
 18 19  2  0  0  0  0
 18 20  1  0  0  0  0
 20 25  1  0  0  0  0
 20 21  2  0  0  0  0
 21 22  1  0  0  0  0
 21 43  1  0  0  0  0
 22 23  2  0  0  0  0
 22 44  1  0  0  0  0
 23 24  1  0  0  0  0
 23 45  1  0  0  0  0
 24 25  2  0  0  0  0
 24 46  1  0  0  0  0
 25 47  1  0  0  0  0
 26 27  1  0  0  0  0
 26 28  1  0  0  0  0
 26 48  1  0  0  0  0
 28 29  1  0  0  0  0
 28 49  1  0  0  0  0
 29 50  1  0  0  0  0
 30 35  1  0  0  0  0
 30 31  2  0  0  0  0
 31 32  1  0  0  0  0
 31 51  1  0  0  0  0
 32 33  2  0  0  0  0
 32 52  1  0  0  0  0
 33 34  1  0  0  0  0
 33 53  1  0  0  0  0
 34 35  2  0  0  0  0
 34 54  1  0  0  0  0
 35 55  1  0  0  0  0
M  END
> <s_m_source_file>
AV-unprocessed.smi

> <i_m_source_file_index>
34

> <i_lp_mmshare_version>
43012

> <i_f3d_flags>
0

> <s_epik_input>
W2NIXTFbY0hdW2NIXVtjSF1bY0hdYzFDKD1PKVtOSF1jKG5bY0hdbjIpYyhjMjMpbltjSF1uM1tDQEBIXTRPW0NASF0oW0NAQEhdKEYpW0NASF00W09IXSlbQ0gyXU9DKD1PKWM1W2NIXVtjSF1bY0hdW2NIXVtjSF01

> <s_epik_cmdline>
J2VwaWtfcHl0aG9uJywgJy1waCcsICc3LjAnLCAnLXRuJywgJzgnLCAnLW1hJywgJzIwMCcsICctbWV0YWxfYmluZGluZycsICctaW1hZScsICc8aW5maWxlLm1hZT4nLCAnLW9tYWUnLCAnPG91dGZpbGUubWFlPic=

> <r_lp_tautomer_probability>
1

> <r_epik_Ionization_Penalty>
0.00257489

> <r_epik_Ionization_Penalty_Charging>
0

> <r_epik_Ionization_Penalty_Neutral>
0.00257489

> <r_epik_State_Penalty>
0.00519398

> <r_epik_Charging_Adjusted_Penalty>
0.00519398

> <i_epik_Tot_Q>
0

> <i_epik_Tot_abs_Q>
0

> <r_epik_Metal_State_Penalty>
0.335891

> <b_epik_Metal_Only>
0

> <s_epik_Chemistry_Notes>
This compound has an ester and may undergo hydrolysis at high or low pH. This compound contains an acetal/aminal-like group ( X-CH(R)-Y where X, Y are N, S, or O) that may be acid/base labile, releasing an aldehyde.

> <s_lp_Force_Field>
OPLS_2005

> <r_lp_Energy>
48.7075

> <b_lp_Chiralities_Consistent>
1

> <s_lp_Variant>
AV-unprocessed.smi:34-8

> <Gold.Version>
5.8.1

> <Gold.Id.Protein>
6NUR|6NUR_protein|mol2

> <Gold.PLP.Fitness>
61.7241

> <Gold.PLP.PLP>
-51.4819

> <Gold.PLP.part.hbond>
-4.9766

> <Gold.PLP.part.metal>
0.0000

> <Gold.PLP.part.buried>
-4.9735

> <Gold.PLP.part.nonpolar>
-43.4629

> <Gold.PLP.part.repulsive>
0.6273

> <Gold.PLP.ligand.clash>
1.5982

> <Gold.PLP.ligand.torsion>
1.5451

> <Gold.PLP.Chemscore.Hbond>
4.8209

> <Gold.PLP.Chemscore.CHOScore>
0.0000

> <Gold.PLP.Chemscore.Metal>
0.0000

> <Gold.Chemscore.Hbonds>
donor molecule, donor type, donor heavy atom, donor atom, acceptor molecule, acceptor atom, score
      L1  H    29    50       P1  7948  1.00
      P1  H  6896  6907       L1    19  0.58
      P1  H  7989  7998       L1     5  1.00
      P1  H  7997  8009       L1     1  1.00
      P1  H 10752 10765       L1     7  0.43

> <Gold.PLP.Chemscore.Internal.Correction>
0.4682

> <Gold.Rescore>
     Score         DG    S(hbond)    S(metal)    S(lipo)     H(rot)  DE(clash)    DE(int)     intcor
     17.10     -22.06       3.35        0.00     105.60       2.72       0.84       4.12       ----

> <Gold.Chemscore.Fitness>
17.1035

> <Gold.Chemscore.DG>
-22.0635

> <Gold.Chemscore.ZeroCoef>
-5.4800

> <Gold.Chemscore.Hbond>
3.3519

> <Gold.Chemscore.Metal>
0.0000

> <Gold.Chemscore.Lipo>
105.6002

> <Gold.Chemscore.Internal_Hbond>
0.0000

> <Gold.Chemscore.DEClash>
0.8418

> <Gold.Chemscore.DEInternal>
4.1183

> <Gold.Chemscore.Rot>
2.7215

> <Gold.Chemscore.Internal.Correction>
   9.000000E+99

> <Gold.Chemscore.Hbonds>
donor molecule, donor type, donor heavy atom, donor atom, acceptor molecule, acceptor atom, score
      L1  H    29    50       P1  7948  0.99
      P1  H  6896  6907       L1    19  0.54
      P1  H  7989  7998       L1     5  0.25
      P1  H  7997  8009       L1     1  0.67
      P1  H 10752 10765       L1     7  0.05

> <Gold.Chemscore.Hbond.Weighted>
-11.1954

> <Gold.Chemscore.Metal.Weighted>
-0.0000

> <Gold.Chemscore.Lipo.Weighted>
-12.3552

> <Gold.Chemscore.Internal_Hbond.Weighted>
0.0000

> <Gold.Chemscore.DEClash.Weighted>
0.8418

> <Gold.Chemscore.DEInternal.Weighted>
4.1183

> <Gold.Chemscore.Rot.Weighted>
6.9670

> <Gold.Chemscore.Internal.Correction.Weighted>
   9.000000E+99

> <Gold.Protein.RotatedTorsions>
[ 6907 6896 6895 6894 ] final  -99.25 input  -60.11 | X-H torsion
[ 7974 7965 7964 7962 ] final  -24.07 input  175.53 | X-H torsion
[ 8008 7997 7996 7995 ] final  137.68 input   59.86 | X-H torsion
[ 10167 10162 10161 10158 ] final -175.88 input  -65.29 | X-H torsion
[ 10718 10713 10712 10709 ] final   77.10 input   66.30 | X-H torsion
[ 10763 10752 10751 10750 ] final  152.69 input  -60.55 | X-H torsion
[ 11005 11000 10999 10996 ] final  -77.32 input  -57.11 | X-H torsion

> <Gold.Protein.ActiveResidues>
 VAL166  LYS551  ARG553  GLY616  TRP617  ASP618  TYR619  PRO620  LYS621  CYS622 
 ASP623  PHE694  ASN695  SER759  ASP760  ASP761  ALA762  ILE779  LEU786  VAL792 
 PHE793  MET794  SER795  GLU796  ALA797  LYS798  CYS799  TRP800  GLU811  SER814 

> <Gold.Protein.RotatedAtoms>
  150.7074  134.1069  159.3985 H   0  0  0  0  0  0  0  0  0  0  0  0  # atno 6907 bound_to 6896
  151.9055  135.0358  160.0519 H   0  0  0  0  0  0  0  0  0  0  0  0  # atno 6908 bound_to 6896
  152.2379  133.5075  159.5289 H   0  0  0  0  0  0  0  0  0  0  0  0  # atno 6909 bound_to 6896
  146.1577  140.4702  142.8584 H   0  0  0  0  0  0  0  0  0  0  0  0  # atno 7974 bound_to 7965
  156.3001  140.2413  156.3949 H   0  0  0  0  0  0  0  0  0  0  0  0  # atno 8008 bound_to 7997
  154.8580  140.0421  157.1667 H   0  0  0  0  0  0  0  0  0  0  0  0  # atno 8009 bound_to 7997
  154.8927  140.2965  155.5365 H   0  0  0  0  0  0  0  0  0  0  0  0  # atno 8010 bound_to 7997
  139.5558  144.1993  152.1156 H   0  0  0  0  0  0  0  0  0  0  0  0  # atno 10167 bound_to 10162
  157.6698  130.9805  150.1592 H   0  0  0  0  0  0  0  0  0  0  0  0  # atno 10718 bound_to 10713
  154.1241  135.2831  155.3201 H   0  0  0  0  0  0  0  0  0  0  0  0  # atno 10763 bound_to 10752
  154.6402  135.5405  153.7784 H   0  0  0  0  0  0  0  0  0  0  0  0  # atno 10764 bound_to 10752
  153.0303  135.6484  154.1394 H   0  0  0  0  0  0  0  0  0  0  0  0  # atno 10765 bound_to 10752
  141.1659  133.7018  156.7802 H   0  0  0  0  0  0  0  0  0  0  0  0  # atno 11005 bound_to 11000
  144.7985  140.6169  143.6494 LP  0  0  0  0  0  0  0  0  0  0  0  0  # atno 17320 bound_to 7965
  145.4667  139.1507  143.3837 LP  0  0  0  0  0  0  0  0  0  0  0  0  # atno 17321 bound_to 7965
  140.1497  144.5126  150.6694 LP  0  0  0  0  0  0  0  0  0  0  0  0  # atno 17342 bound_to 10162
  140.6830  143.2336  151.5334 LP  0  0  0  0  0  0  0  0  0  0  0  0  # atno 17343 bound_to 10162
  156.2373  130.3687  149.8377 LP  0  0  0  0  0  0  0  0  0  0  0  0  # atno 17370 bound_to 10713
  156.6187  130.8617  151.3470 LP  0  0  0  0  0  0  0  0  0  0  0  0  # atno 17371 bound_to 10713
  140.2400  134.8621  157.3563 LP  0  0  0  0  0  0  0  0  0  0  0  0  # atno 17394 bound_to 11000
  140.1806  134.4495  155.7775 LP  0  0  0  0  0  0  0  0  0  0  0  0  # atno 17395 bound_to 11000

$$$$
