AV-unprocessed.smi:1926|AV-procd|sdf|7794|dock4
  -GOLD-   22720 9533D 1   1.00000     0.00000
 Structure written by MMmdl.
 35 36  0  0  0  0  0  0  0  0  1 V2000
  151.5772  138.2626  154.6836 C   0  0  0  0  0  0  0  0  0  0  0  0
  150.2445  138.2078  154.1865 O   0  0  0  0  0  0  0  0  0  0  0  0
  149.4736  139.3540  154.2350 C   0  0  0  0  0  0  0  0  0  0  0  0
  150.0267  140.4797  154.7523 N   0  0  0  0  0  0  0  0  0  0  0  0
  149.2789  141.6008  154.7977 C   0  0  0  0  0  0  0  0  0  0  0  0
  147.9536  141.6609  154.3310 C   0  0  0  0  0  0  0  0  0  0  0  0
  147.3774  140.4950  153.7940 C   0  0  0  0  0  0  0  0  0  0  0  0
  148.1465  139.3057  153.7459 C   0  0  0  0  0  0  0  0  0  0  0  0
  147.6809  138.0658  153.2220 N   0  0  0  0  0  0  0  0  0  0  0  0
  146.4298  137.5798  153.1469 C   0  0  0  0  0  0  0  0  0  0  0  0
  145.4112  138.1523  153.5318 O   0  0  0  0  0  0  0  0  0  0  0  0
  146.4228  136.3577  152.5964 N   0  0  0  0  0  0  0  0  0  0  0  0
  145.2322  135.5429  152.3765 C   0  0  0  0  0  0  0  0  0  0  0  0
  145.3313  134.7033  151.0882 C   0  0  2  0  0  0  0  0  0  0  0  0
  144.1387  133.8070  150.8179 C   0  0  0  0  0  0  0  0  0  0  0  0
  144.7200  132.8078  149.8228 C   0  0  0  0  0  0  0  0  0  0  0  0
  146.0950  132.6706  150.1697 O   0  0  0  0  0  0  0  0  0  0  0  0
  146.4702  133.6841  151.0985 C   0  0  0  0  0  0  0  0  0  0  0  0
  152.0447  137.2849  154.5687 H   0  0  0  0  0  0  0  0  0  0  0  0
  151.5977  138.5164  155.7443 H   0  0  0  0  0  0  0  0  0  0  0  0
  152.1802  138.9840  154.1304 H   0  0  0  0  0  0  0  0  0  0  0  0
  149.7525  142.4766  155.2158 H   0  0  0  0  0  0  0  0  0  0  0  0
  147.3917  142.5818  154.3813 H   0  0  0  0  0  0  0  0  0  0  0  0
  146.3652  140.5492  153.4279 H   0  0  0  0  0  0  0  0  0  0  0  0
  148.4080  137.4506  152.8868 H   0  0  0  0  0  0  0  0  0  0  0  0
  147.3052  135.9597  152.3098 H   0  0  0  0  0  0  0  0  0  0  0  0
  145.0631  134.8947  153.2379 H   0  0  0  0  0  0  0  0  0  0  0  0
  144.3731  136.2121  152.3225 H   0  0  0  0  0  0  0  0  0  0  0  0
  145.4710  135.3624  150.2296 H   0  0  0  0  0  0  0  0  0  0  0  0
  143.8330  133.2930  151.7303 H   0  0  0  0  0  0  0  0  0  0  0  0
  143.2767  134.3452  150.4222 H   0  0  0  0  0  0  0  0  0  0  0  0
  144.2038  131.8479  149.8457 H   0  0  0  0  0  0  0  0  0  0  0  0
  144.6568  133.2023  148.8080 H   0  0  0  0  0  0  0  0  0  0  0  0
  147.4301  134.1295  150.8357 H   0  0  0  0  0  0  0  0  0  0  0  0
  146.5703  133.2245  152.0827 H   0  0  0  0  0  0  0  0  0  0  0  0
  1  2  1  0  0  0  0
  1 19  1  0  0  0  0
  1 20  1  0  0  0  0
  1 21  1  0  0  0  0
  2  3  1  0  0  0  0
  3  8  1  0  0  0  0
  3  4  2  0  0  0  0
  4  5  1  0  0  0  0
  5  6  2  0  0  0  0
  5 22  1  0  0  0  0
  6  7  1  0  0  0  0
  6 23  1  0  0  0  0
  7  8  2  0  0  0  0
  7 24  1  0  0  0  0
  8  9  1  0  0  0  0
  9 10  1  0  0  0  0
  9 25  1  0  0  0  0
 10 11  2  0  0  0  0
 10 12  1  0  0  0  0
 12 13  1  0  0  0  0
 12 26  1  0  0  0  0
 13 14  1  0  0  0  0
 13 27  1  0  0  0  0
 13 28  1  0  0  0  0
 14 18  1  0  0  0  0
 14 15  1  0  0  0  0
 14 29  1  0  0  0  0
 15 16  1  0  0  0  0
 15 30  1  0  0  0  0
 15 31  1  0  0  0  0
 16 17  1  0  0  0  0
 16 32  1  0  0  0  0
 16 33  1  0  0  0  0
 17 18  1  0  0  0  0
 18 34  1  0  0  0  0
 18 35  1  0  0  0  0
M  END
> <s_m_source_file>
AV-unprocessed.smi

> <i_m_source_file_index>
1926

> <i_lp_mmshare_version>
43012

> <i_f3d_flags>
0

> <s_epik_input>
W0NIM11PYzFuW2NIXVtjSF1bY0hdYzFbTkhdQyg9TylbTkhdW0NIMl1bQ0BASF0yW0NIMl1bQ0gyXU9bQ0gyXTI=

> <s_epik_cmdline>
J2VwaWtfcHl0aG9uJywgJy1waCcsICc3LjAnLCAnLXRuJywgJzgnLCAnLW1hJywgJzIwMCcsICctbWV0YWxfYmluZGluZycsICctaW1hZScsICc8aW5maWxlLm1hZT4nLCAnLW9tYWUnLCAnPG91dGZpbGUubWFlPic=

> <r_lp_tautomer_probability>
1

> <r_epik_Ionization_Penalty>
9.48928e-05

> <r_epik_Ionization_Penalty_Charging>
0

> <r_epik_Ionization_Penalty_Neutral>
9.48928e-05

> <r_epik_State_Penalty>
-0

> <r_epik_Charging_Adjusted_Penalty>
0

> <i_epik_Tot_Q>
0

> <i_epik_Tot_abs_Q>
0

> <r_epik_Metal_State_Penalty>
-0

> <b_epik_Metal_Only>
0

> <s_lp_Force_Field>
OPLS_2005

> <r_lp_Energy>
20.748

> <b_lp_Chiralities_Consistent>
1

> <s_lp_Variant>
AV-unprocessed.smi:1926-1

> <Gold.Version>
5.8.1

> <Gold.Id.Protein>
6NUR|6NUR_protein|mol2

> <Gold.PLP.Fitness>
41.9515

> <Gold.PLP.PLP>
-30.9518

> <Gold.PLP.part.hbond>
-3.0000

> <Gold.PLP.part.metal>
0.0000

> <Gold.PLP.part.buried>
-2.1212

> <Gold.PLP.part.nonpolar>
-26.2629

> <Gold.PLP.part.repulsive>
1.1342

> <Gold.PLP.ligand.clash>
0.0000

> <Gold.PLP.ligand.torsion>
0.3348

> <Gold.PLP.Chemscore.Hbond>
2.8880

> <Gold.PLP.Chemscore.CHOScore>
1.0000

> <Gold.PLP.Chemscore.Metal>
0.0000

> <Gold.Chemscore.Hbonds>
donor molecule, donor type, donor heavy atom, donor atom, acceptor molecule, acceptor atom, score
      L1  H     9    25       P1  7948  1.00
      L1  H    12    26       P1  7948  0.98
      P1  H  7989  7998       L1     4  0.84
      L1  C     5    22       P1  8028  1.00

> <Gold.PLP.Chemscore.Internal.Correction>
0.0054

> <Gold.Rescore>
     Score         DG    S(hbond)    S(metal)    S(lipo)     H(rot)  DE(clash)    DE(int)     intcor
     15.84     -17.23       2.36        0.00      65.80       1.50       0.33       1.06       ----

> <Gold.Chemscore.Fitness>
15.8368

> <Gold.Chemscore.DG>
-17.2266

> <Gold.Chemscore.ZeroCoef>
-5.4800

> <Gold.Chemscore.Hbond>
2.3593

> <Gold.Chemscore.Metal>
0.0000

> <Gold.Chemscore.Lipo>
65.8042

> <Gold.Chemscore.Internal_Hbond>
0.0000

> <Gold.Chemscore.DEClash>
0.3300

> <Gold.Chemscore.DEInternal>
1.0599

> <Gold.Chemscore.Rot>
1.4971

> <Gold.Chemscore.Internal.Correction>
   9.000000E+99

> <Gold.Chemscore.Hbonds>
donor molecule, donor type, donor heavy atom, donor atom, acceptor molecule, acceptor atom, score
      L1  H     9    25       P1  7948  0.96
      L1  H    12    26       P1  7948  0.92
      P1  H  7989  7998       L1     4  0.19

> <Gold.Chemscore.Hbond.Weighted>
-7.8801

> <Gold.Chemscore.Metal.Weighted>
-0.0000

> <Gold.Chemscore.Lipo.Weighted>
-7.6991

> <Gold.Chemscore.Internal_Hbond.Weighted>
0.0000

> <Gold.Chemscore.DEClash.Weighted>
0.3300

> <Gold.Chemscore.DEInternal.Weighted>
1.0599

> <Gold.Chemscore.Rot.Weighted>
3.8326

> <Gold.Chemscore.Internal.Correction.Weighted>
   9.000000E+99

> <Gold.Protein.RotatedTorsions>
[ 6907 6896 6895 6894 ] final  150.98 input  -60.11 | X-H torsion
[ 7974 7965 7964 7962 ] final -140.23 input  175.53 | X-H torsion
[ 8008 7997 7996 7995 ] final   47.36 input   59.86 | X-H torsion
[ 10167 10162 10161 10158 ] final  -19.07 input  -65.29 | X-H torsion
[ 10718 10713 10712 10709 ] final  -90.02 input   66.30 | X-H torsion
[ 10763 10752 10751 10750 ] final   73.07 input  -60.55 | X-H torsion
[ 11005 11000 10999 10996 ] final  161.65 input  -57.11 | X-H torsion

> <Gold.Protein.ActiveResidues>
 VAL166  LYS551  ARG553  GLY616  TRP617  ASP618  TYR619  PRO620  LYS621  CYS622 
 ASP623  PHE694  ASN695  SER759  ASP760  ASP761  ALA762  ILE779  LEU786  VAL792 
 PHE793  MET794  SER795  GLU796  ALA797  LYS798  CYS799  TRP800  GLU811  SER814 

> <Gold.Protein.RotatedAtoms>
  152.1070  133.4280  159.4612 H   0  0  0  0  0  0  0  0  0  0  0  0  # atno 6907 bound_to 6896
  150.6866  134.2693  159.4591 H   0  0  0  0  0  0  0  0  0  0  0  0  # atno 6908 bound_to 6896
  152.0559  134.9624  160.0625 H   0  0  0  0  0  0  0  0  0  0  0  0  # atno 6909 bound_to 6896
  144.8613  140.6224  143.5326 H   0  0  0  0  0  0  0  0  0  0  0  0  # atno 7974 bound_to 7965
  155.3678  140.3422  155.4242 H   0  0  0  0  0  0  0  0  0  0  0  0  # atno 8008 bound_to 7997
  156.1679  140.1622  156.8533 H   0  0  0  0  0  0  0  0  0  0  0  0  # atno 8009 bound_to 7997
  154.5203  140.0768  156.8142 H   0  0  0  0  0  0  0  0  0  0  0  0  # atno 8010 bound_to 7997
  140.7265  143.4854  151.0062 H   0  0  0  0  0  0  0  0  0  0  0  0  # atno 10167 bound_to 10162
  155.9986  130.4894  150.5260 H   0  0  0  0  0  0  0  0  0  0  0  0  # atno 10718 bound_to 10713
  153.0498  135.5076  154.7839 H   0  0  0  0  0  0  0  0  0  0  0  0  # atno 10763 bound_to 10752
  154.6710  135.2953  154.9744 H   0  0  0  0  0  0  0  0  0  0  0  0  # atno 10764 bound_to 10752
  154.0562  135.6697  153.4859 H   0  0  0  0  0  0  0  0  0  0  0  0  # atno 10765 bound_to 10752
  140.2179  134.8218  157.3189 H   0  0  0  0  0  0  0  0  0  0  0  0  # atno 11005 bound_to 11000
  145.4306  139.1549  143.4024 LP  0  0  0  0  0  0  0  0  0  0  0  0  # atno 17320 bound_to 7965
  146.2863  140.4422  142.8757 LP  0  0  0  0  0  0  0  0  0  0  0  0  # atno 17321 bound_to 7965
  139.8555  143.7382  152.3176 LP  0  0  0  0  0  0  0  0  0  0  0  0  # atno 17342 bound_to 10162
  139.7579  144.7515  151.0408 LP  0  0  0  0  0  0  0  0  0  0  0  0  # atno 17343 bound_to 10162
  157.3215  131.0682  151.1928 LP  0  0  0  0  0  0  0  0  0  0  0  0  # atno 17370 bound_to 10713
  157.2840  130.6764  149.6080 LP  0  0  0  0  0  0  0  0  0  0  0  0  # atno 17371 bound_to 10713
  140.1881  134.4406  155.7732 LP  0  0  0  0  0  0  0  0  0  0  0  0  # atno 17394 bound_to 11000
  141.2224  133.7014  156.7981 LP  0  0  0  0  0  0  0  0  0  0  0  0  # atno 17395 bound_to 11000

$$$$
