AV-unprocessed.smi:72|AV-procd|sdf|734|dock4
  -GOLD-   2262017 63D 1   1.00000     0.00000
 Structure written by MMmdl.
 28 29  0  0  0  0  0  0  0  0  2 V2000
  154.2365  137.8221  155.5078 N   0  0  0  0  0  0  0  0  0  0  0  0
  153.0991  138.3161  155.2788 C   0  0  0  0  0  0  0  0  0  0  0  0
  152.2150  137.6848  154.3229 N   0  0  0  0  0  0  0  0  0  0  0  0
  151.0605  138.2379  154.1097 C   0  0  0  0  0  0  0  0  0  0  0  0
  150.6580  139.4607  154.7910 N   0  0  0  0  0  0  0  0  0  0  0  0
  149.3041  140.0938  154.5403 C   0  0  1  0  0  0  0  0  0  0  0  0
  148.7332  139.5280  153.4030 O   0  0  0  0  0  0  0  0  0  0  0  0
  147.3236  139.6410  153.5124 C   0  0  1  0  0  0  0  0  0  0  0  0
  146.6399  138.6546  152.5530 C   0  0  0  0  0  0  0  0  0  0  0  0
  147.4107  138.5020  151.3802 O   0  0  0  0  0  0  0  0  0  0  0  0
  147.0756  139.3260  154.9929 C   0  0  2  0  0  0  0  0  0  0  0  0
  145.8958  139.9679  155.4352 O   0  0  0  0  0  0  0  0  0  0  0  0
  148.3024  139.8993  155.7010 C   0  0  1  0  0  0  0  0  0  0  0  0
  148.7470  139.0155  156.7146 O   0  0  0  0  0  0  0  0  0  0  0  0
  151.5328  140.0428  155.7456 C   0  0  0  0  0  0  0  0  0  0  0  0
  151.1523  141.0497  156.3433 O   0  0  0  0  0  0  0  0  0  0  0  0
  152.7424  139.4561  155.9660 N   0  5  0  0  0  0  0  0  0  0  0  0
  149.4907  141.1458  154.3178 H   0  0  0  0  0  0  0  0  0  0  0  0
  147.0325  140.6714  153.2957 H   0  0  0  0  0  0  0  0  0  0  0  0
  147.0050  138.2470  155.1435 H   0  0  0  0  0  0  0  0  0  0  0  0
  148.1065  140.8797  156.1377 H   0  0  0  0  0  0  0  0  0  0  0  0
  154.7601  138.3472  156.1928 H   0  0  0  0  0  0  0  0  0  0  0  0
  150.3244  137.8238  153.4197 H   0  0  0  0  0  0  0  0  0  0  0  0
  146.4739  137.6880  153.0298 H   0  0  0  0  0  0  0  0  0  0  0  0
  145.6648  139.0393  152.2530 H   0  0  0  0  0  0  0  0  0  0  0  0
  148.2070  139.0014  151.4769 H   0  0  0  0  0  0  0  0  0  0  0  0
  145.1791  139.6862  154.8874 H   0  0  0  0  0  0  0  0  0  0  0  0
  148.1051  138.3278  156.8125 H   0  0  0  0  0  0  0  0  0  0  0  0
  1  2  2  0  0  0  0
  1 22  1  0  0  0  0
  2 17  1  0  0  0  0
  2  3  1  0  0  0  0
  3  4  2  0  0  0  0
  4  5  1  0  0  0  0
  4 23  1  0  0  0  0
  5  6  1  0  0  0  0
  5 15  1  0  0  0  0
  6 18  1  0  0  0  0
  6 13  1  0  0  0  0
  6  7  1  0  0  0  0
  7  8  1  0  0  0  0
  8 19  1  0  0  0  0
  8  9  1  0  0  0  0
  8 11  1  0  0  0  0
  9 10  1  0  0  0  0
  9 24  1  0  0  0  0
  9 25  1  0  0  0  0
 10 26  1  0  0  0  0
 11 20  1  0  0  0  0
 11 12  1  0  0  0  0
 11 13  1  0  0  0  0
 12 27  1  0  0  0  0
 13 21  1  0  0  0  0
 13 14  1  0  0  0  0
 14 28  1  0  0  0  0
 15 16  2  0  0  0  0
 15 17  1  0  0  0  0
M  CHG  1  17  -1
M  END
> <s_m_source_file>
AV-unprocessed.smi

> <i_m_source_file_index>
72

> <i_lp_mmshare_version>
43012

> <i_f3d_flags>
0

> <s_epik_input>
W05IMl1jMW5bY0hdbihjKD1PKW4xKVtDQEBIXTJPW0NASF0oW0NIMl1bT0hdKVtDQEBIXShbT0hdKVtDQEhdMltPSF0=

> <s_epik_cmdline>
J2VwaWtfcHl0aG9uJywgJy1waCcsICc3LjAnLCAnLXRuJywgJzgnLCAnLW1hJywgJzIwMCcsICctbWV0YWxfYmluZGluZycsICctaW1hZScsICc8aW5maWxlLm1hZT4nLCAnLW9tYWUnLCAnPG91dGZpbGUubWFlPic=

> <r_lp_tautomer_probability>
7.17554e-07

> <r_epik_Ionization_Penalty>
12.8705

> <r_epik_Ionization_Penalty_Charging>
5.64144

> <r_epik_Ionization_Penalty_Neutral>
7.22905

> <r_epik_State_Penalty>
3.30104

> <r_epik_Charging_Adjusted_Penalty>
8.94249

> <i_epik_Tot_Q>
-1

> <i_epik_Tot_abs_Q>
1

> <r_epik_Metal_State_Penalty>
0.529074

> <b_epik_Metal_Only>
1

> <s_epik_Chemistry_Notes>
This compound contains an acetal/aminal-like group ( X-CH(R)-Y where X, Y are N, S, or O) that may be acid/base labile, releasing an aldehyde.

> <s_lp_Force_Field>
OPLS_2005

> <r_lp_Energy>
37.9918

> <b_lp_Chiralities_Consistent>
1

> <s_lp_Variant>
AV-unprocessed.smi:72-72

> <Gold.Version>
5.8.1

> <Gold.Id.Protein>
6NUR|6NUR_protein|mol2

> <Gold.PLP.Fitness>
39.1147

> <Gold.PLP.PLP>
-25.6976

> <Gold.PLP.part.hbond>
-6.9314

> <Gold.PLP.part.metal>
0.0000

> <Gold.PLP.part.buried>
-4.1877

> <Gold.PLP.part.nonpolar>
-18.4345

> <Gold.PLP.part.repulsive>
4.6680

> <Gold.PLP.ligand.clash>
0.0000

> <Gold.PLP.ligand.torsion>
0.6421

> <Gold.PLP.Chemscore.Hbond>
3.7890

> <Gold.PLP.Chemscore.CHOScore>
1.0503

> <Gold.PLP.Chemscore.Metal>
0.0000

> <Gold.Chemscore.Hbonds>
donor molecule, donor type, donor heavy atom, donor atom, acceptor molecule, acceptor atom, score
      L1  H    10    26       P1  7957  1.00
      P1  H  7954  7966       L1    10  0.20
      P1  H  7997  8009       L1    17  2.00
      P1  H 10752 10765       L1     3  0.57
      L1  C     4    23       P1  7948  0.85
      L1  C     4    23       P1  7949  0.11

> <Gold.PLP.Chemscore.Internal.Correction>
0.1833

> <Gold.Rescore>
     Score         DG    S(hbond)    S(metal)    S(lipo)     H(rot)  DE(clash)    DE(int)     intcor
      2.51      -4.54       2.21        0.00      17.13       4.04       1.31       0.72       ----

> <Gold.Chemscore.Fitness>
2.5111

> <Gold.Chemscore.DG>
-4.5370

> <Gold.Chemscore.ZeroCoef>
-5.4800

> <Gold.Chemscore.Hbond>
2.2142

> <Gold.Chemscore.Metal>
0.0000

> <Gold.Chemscore.Lipo>
17.1329

> <Gold.Chemscore.Internal_Hbond>
0.0000

> <Gold.Chemscore.DEClash>
1.3068

> <Gold.Chemscore.DEInternal>
0.7190

> <Gold.Chemscore.Rot>
4.0403

> <Gold.Chemscore.Internal.Correction>
   9.000000E+99

> <Gold.Chemscore.Hbonds>
donor molecule, donor type, donor heavy atom, donor atom, acceptor molecule, acceptor atom, score
      L1  H    10    26       P1  7957  0.70
      P1  H  7997  8009       L1    17  0.30
      P1  H 10752 10765       L1     3  0.20

> <Gold.Chemscore.Hbond.Weighted>
-7.3955

> <Gold.Chemscore.Metal.Weighted>
-0.0000

> <Gold.Chemscore.Lipo.Weighted>
-2.0045

> <Gold.Chemscore.Internal_Hbond.Weighted>
0.0000

> <Gold.Chemscore.DEClash.Weighted>
1.3068

> <Gold.Chemscore.DEInternal.Weighted>
0.7190

> <Gold.Chemscore.Rot.Weighted>
10.3431

> <Gold.Chemscore.Internal.Correction.Weighted>
   9.000000E+99

> <Gold.Protein.RotatedTorsions>
[ 6907 6896 6895 6894 ] final -141.30 input  -60.11 | X-H torsion
[ 7974 7965 7964 7962 ] final  107.65 input  175.53 | X-H torsion
[ 8008 7997 7996 7995 ] final -165.80 input   59.86 | X-H torsion
[ 10167 10162 10161 10158 ] final  -38.11 input  -65.29 | X-H torsion
[ 10718 10713 10712 10709 ] final  102.40 input   66.30 | X-H torsion
[ 10763 10752 10751 10750 ] final  158.26 input  -60.55 | X-H torsion
[ 11005 11000 10999 10996 ] final -121.68 input  -57.11 | X-H torsion

> <Gold.Protein.ActiveResidues>
 VAL166  LYS551  ARG553  GLY616  TRP617  ASP618  TYR619  PRO620  LYS621  CYS622 
 ASP623  PHE694  ASN695  SER759  ASP760  ASP761  ALA762  ILE779  LEU786  VAL792 
 PHE793  MET794  SER795  GLU796  ALA797  LYS798  CYS799  TRP800  GLU811  SER814 

> <Gold.Protein.RotatedAtoms>
  151.0720  133.5458  159.2626 H   0  0  0  0  0  0  0  0  0  0  0  0  # atno 6907 bound_to 6896
  151.2394  135.0583  159.9029 H   0  0  0  0  0  0  0  0  0  0  0  0  # atno 6908 bound_to 6896
  152.5413  134.0497  159.8158 H   0  0  0  0  0  0  0  0  0  0  0  0  # atno 6909 bound_to 6896
  145.2909  139.2600  143.3865 H   0  0  0  0  0  0  0  0  0  0  0  0  # atno 7974 bound_to 7965
  155.8548  140.0969  157.1651 H   0  0  0  0  0  0  0  0  0  0  0  0  # atno 8008 bound_to 7997
  154.3987  140.1376  156.3951 H   0  0  0  0  0  0  0  0  0  0  0  0  # atno 8009 bound_to 7997
  155.7921  140.3455  155.5358 H   0  0  0  0  0  0  0  0  0  0  0  0  # atno 8010 bound_to 7997
  140.7101  143.3298  151.2595 H   0  0  0  0  0  0  0  0  0  0  0  0  # atno 10167 bound_to 10162
  157.6803  131.0752  150.5398 H   0  0  0  0  0  0  0  0  0  0  0  0  # atno 10718 bound_to 10713
  154.2133  135.2785  155.2950 H   0  0  0  0  0  0  0  0  0  0  0  0  # atno 10763 bound_to 10752
  154.5761  135.5604  153.7144 H   0  0  0  0  0  0  0  0  0  0  0  0  # atno 10764 bound_to 10752
  153.0059  135.6333  154.2272 H   0  0  0  0  0  0  0  0  0  0  0  0  # atno 10765 bound_to 10752
  141.0052  134.0345  157.3486 H   0  0  0  0  0  0  0  0  0  0  0  0  # atno 11005 bound_to 11000
  146.3185  140.3400  142.8647 LP  0  0  0  0  0  0  0  0  0  0  0  0  # atno 17320 bound_to 7965
  144.9173  140.7827  143.5770 LP  0  0  0  0  0  0  0  0  0  0  0  0  # atno 17321 bound_to 7965
  139.6777  143.9909  152.2790 LP  0  0  0  0  0  0  0  0  0  0  0  0  # atno 17342 bound_to 10162
  139.9528  144.6609  150.8155 LP  0  0  0  0  0  0  0  0  0  0  0  0  # atno 17343 bound_to 10162
  156.5706  130.4279  149.6021 LP  0  0  0  0  0  0  0  0  0  0  0  0  # atno 17370 bound_to 10713
  156.2744  130.7035  151.1842 LP  0  0  0  0  0  0  0  0  0  0  0  0  # atno 17371 bound_to 10713
  139.9059  135.0179  156.7484 LP  0  0  0  0  0  0  0  0  0  0  0  0  # atno 17394 bound_to 11000
  140.6825  133.9462  155.7918 LP  0  0  0  0  0  0  0  0  0  0  0  0  # atno 17395 bound_to 11000

$$$$
