AV-unprocessed.smi:3245|AV-procd|sdf|12404|dock1
  -GOLD-   2272018283D 1   1.00000     0.00000
 Structure written by MMmdl.
 35 36  0  0  0  0  0  0  0  0  1 V2000
  152.2115  138.9223  158.7155 C   0  0  0  0  0  0  0  0  0  0  0  0
  151.9469  140.4038  158.3979 C   0  0  2  0  0  0  0  0  0  0  0  0
  152.7547  141.3654  159.3011 C   0  0  0  0  0  0  0  0  0  0  0  0
  152.3865  142.7567  159.1146 N   0  0  0  0  0  0  0  0  0  0  0  0
  152.7381  143.8480  159.8814 C   0  0  0  0  0  0  0  0  0  0  0  0
  152.1507  144.9451  159.3193 C   0  0  0  0  0  0  0  0  0  0  0  0
  151.4477  144.4163  158.2009 C   0  0  0  0  0  0  0  0  0  0  0  0
  151.5898  143.1060  158.0816 N   0  0  0  0  0  0  0  0  0  0  0  0
  150.5200  140.6413  158.5733 N   0  0  0  0  0  0  0  0  0  0  0  0
  149.7636  140.3415  157.3653 C   0  0  0  0  0  0  0  0  0  0  0  0
  149.2962  141.6461  156.6959 C   0  0  0  0  0  0  0  0  0  0  0  0
  148.6901  141.4001  155.3819 N   0  0  0  0  0  0  0  0  0  0  0  0
  147.4549  141.7849  155.0332 C   0  0  0  0  0  0  0  0  0  0  0  0
  146.6278  142.3744  155.7280 O   0  0  0  0  0  0  0  0  0  0  0  0
  147.2140  141.3785  153.5957 C   0  0  0  0  0  0  0  0  0  0  0  0
  148.4885  140.7558  153.3108 N   0  0  0  0  0  0  0  0  0  0  0  0
  149.3179  140.7865  154.3618 C   0  0  0  0  0  0  0  0  0  0  0  0
  150.4602  140.3300  154.3756 O   0  0  0  0  0  0  0  0  0  0  0  0
  153.2533  138.6560  158.5361 H   0  0  0  0  0  0  0  0  0  0  0  0
  151.6026  138.2703  158.0881 H   0  0  0  0  0  0  0  0  0  0  0  0
  151.9837  138.6911  159.7568 H   0  0  0  0  0  0  0  0  0  0  0  0
  152.2106  140.5711  157.3524 H   0  0  0  0  0  0  0  0  0  0  0  0
  152.6204  141.1243  160.3556 H   0  0  0  0  0  0  0  0  0  0  0  0
  153.8218  141.2655  159.0964 H   0  0  0  0  0  0  0  0  0  0  0  0
  153.3720  143.7538  160.7509 H   0  0  0  0  0  0  0  0  0  0  0  0
  152.2128  145.9690  159.6566 H   0  0  0  0  0  0  0  0  0  0  0  0
  150.8422  144.9418  157.4770 H   0  0  0  0  0  0  0  0  0  0  0  0
  150.1702  140.0668  159.3269 H   0  0  0  0  0  0  0  0  0  0  0  0
  150.3530  139.7517  156.6640 H   0  0  0  0  0  0  0  0  0  0  0  0
  148.8966  139.7383  157.6376 H   0  0  0  0  0  0  0  0  0  0  0  0
  148.5581  142.1312  157.3364 H   0  0  0  0  0  0  0  0  0  0  0  0
  150.1235  142.3539  156.6203 H   0  0  0  0  0  0  0  0  0  0  0  0
  146.3905  140.6692  153.5089 H   0  0  0  0  0  0  0  0  0  0  0  0
  147.0370  142.2443  152.9570 H   0  0  0  0  0  0  0  0  0  0  0  0
  148.7160  140.3524  152.4135 H   0  0  0  0  0  0  0  0  0  0  0  0
  1  2  1  0  0  0  0
  1 19  1  0  0  0  0
  1 20  1  0  0  0  0
  1 21  1  0  0  0  0
  2  3  1  0  0  0  0
  2  9  1  0  0  0  0
  2 22  1  0  0  0  0
  3  4  1  0  0  0  0
  3 23  1  0  0  0  0
  3 24  1  0  0  0  0
  4  8  1  0  0  0  0
  4  5  1  0  0  0  0
  5  6  2  0  0  0  0
  5 25  1  0  0  0  0
  6  7  1  0  0  0  0
  6 26  1  0  0  0  0
  7  8  2  0  0  0  0
  7 27  1  0  0  0  0
  9 10  1  0  0  0  0
  9 28  1  0  0  0  0
 10 11  1  0  0  0  0
 10 29  1  0  0  0  0
 10 30  1  0  0  0  0
 11 12  1  0  0  0  0
 11 31  1  0  0  0  0
 11 32  1  0  0  0  0
 12 17  1  0  0  0  0
 12 13  1  0  0  0  0
 13 14  2  0  0  0  0
 13 15  1  0  0  0  0
 15 16  1  0  0  0  0
 15 33  1  0  0  0  0
 15 34  1  0  0  0  0
 16 17  1  0  0  0  0
 16 35  1  0  0  0  0
 17 18  2  0  0  0  0
M  END
> <s_m_source_file>
AV-unprocessed.smi

> <i_m_source_file_index>
3245

> <i_lp_mmshare_version>
43012

> <i_f3d_flags>
0

> <s_epik_input>
bjFbY0hdW2NIXVtjSF1uMVtDSDJdW0NAQEhdKFtDSDNdKVtOSF1bQ0gyXVtDSDJdTjJDKD1PKVtDSDJdW05IXUMyPU8=

> <s_epik_cmdline>
J2VwaWtfcHl0aG9uJywgJy1waCcsICc3LjAnLCAnLXRuJywgJzgnLCAnLW1hJywgJzIwMCcsICctbWV0YWxfYmluZGluZycsICctaW1hZScsICc8aW5maWxlLm1hZT4nLCAnLW9tYWUnLCAnPG91dGZpbGUubWFlPic=

> <r_lp_tautomer_probability>
1

> <r_epik_Ionization_Penalty>
2.14948

> <r_epik_Ionization_Penalty_Charging>
0

> <r_epik_Ionization_Penalty_Neutral>
2.14948

> <r_epik_State_Penalty>
2.28912

> <r_epik_Charging_Adjusted_Penalty>
2.28912

> <i_epik_Tot_Q>
0

> <i_epik_Tot_abs_Q>
0

> <r_epik_Metal_State_Penalty>
2.36471

> <b_epik_Metal_Only>
0

> <s_lp_Force_Field>
OPLS_2005

> <r_lp_Energy>
24.3933

> <b_lp_Chiralities_Consistent>
1

> <s_lp_Variant>
AV-unprocessed.smi:3245-3

> <Gold.Version>
5.8.1

> <Gold.Id.Protein>
6NUR|6NUR_protein|mol2

> <Gold.PLP.Fitness>
45.3405

> <Gold.PLP.PLP>
-37.9207

> <Gold.PLP.part.hbond>
-2.0000

> <Gold.PLP.part.metal>
0.0000

> <Gold.PLP.part.buried>
-6.6044

> <Gold.PLP.part.nonpolar>
-30.7880

> <Gold.PLP.part.repulsive>
0.4904

> <Gold.PLP.ligand.clash>
0.0000

> <Gold.PLP.ligand.torsion>
0.8323

> <Gold.PLP.Chemscore.Hbond>
1.9920

> <Gold.PLP.Chemscore.CHOScore>
1.0000

> <Gold.PLP.Chemscore.Metal>
0.0000

> <Gold.Chemscore.Hbonds>
donor molecule, donor type, donor heavy atom, donor atom, acceptor molecule, acceptor atom, score
      L1  H    16    35       P1  7957  1.00
      P1  H  7989  7998       L1    18  1.00
      L1  C     7    27       P1  8028  0.74

> <Gold.PLP.Chemscore.Internal.Correction>
0.1084

> <Gold.Rescore>
     Score         DG    S(hbond)    S(metal)    S(lipo)     H(rot)  DE(clash)    DE(int)     intcor
     13.11     -13.96       1.91        0.00      76.28       2.66       0.05       0.79       ----

> <Gold.Chemscore.Fitness>
13.1138

> <Gold.Chemscore.DG>
-13.9605

> <Gold.Chemscore.ZeroCoef>
-5.4800

> <Gold.Chemscore.Hbond>
1.9064

> <Gold.Chemscore.Metal>
0.0000

> <Gold.Chemscore.Lipo>
76.2812

> <Gold.Chemscore.Internal_Hbond>
0.0000

> <Gold.Chemscore.DEClash>
0.0541

> <Gold.Chemscore.DEInternal>
0.7926

> <Gold.Chemscore.Rot>
2.6609

> <Gold.Chemscore.Internal.Correction>
   9.000000E+99

> <Gold.Chemscore.Hbonds>
donor molecule, donor type, donor heavy atom, donor atom, acceptor molecule, acceptor atom, score
      L1  H    16    35       P1  7957  0.95
      P1  H  7989  7998       L1    18  0.93

> <Gold.Chemscore.Hbond.Weighted>
-6.3675

> <Gold.Chemscore.Metal.Weighted>
-0.0000

> <Gold.Chemscore.Lipo.Weighted>
-8.9249

> <Gold.Chemscore.Internal_Hbond.Weighted>
0.0000

> <Gold.Chemscore.DEClash.Weighted>
0.0541

> <Gold.Chemscore.DEInternal.Weighted>
0.7926

> <Gold.Chemscore.Rot.Weighted>
6.8118

> <Gold.Chemscore.Internal.Correction.Weighted>
   9.000000E+99

> <Gold.Protein.RotatedTorsions>
[ 6907 6896 6895 6894 ] final  -11.77 input  -60.11 | X-H torsion
[ 7974 7965 7964 7962 ] final  -34.86 input  175.53 | X-H torsion
[ 8008 7997 7996 7995 ] final   95.93 input   59.86 | X-H torsion
[ 10167 10162 10161 10158 ] final  -24.90 input  -65.29 | X-H torsion
[ 10718 10713 10712 10709 ] final   74.33 input   66.30 | X-H torsion
[ 10763 10752 10751 10750 ] final  106.71 input  -60.55 | X-H torsion
[ 11005 11000 10999 10996 ] final    9.49 input  -57.11 | X-H torsion

> <Gold.Protein.ActiveResidues>
 VAL166  LYS551  ARG553  GLY616  TRP617  ASP618  TYR619  PRO620  LYS621  CYS622 
 ASP623  PHE694  ASN695  SER759  ASP760  ASP761  ALA762  ILE779  LEU786  VAL792 
 PHE793  MET794  SER795  GLU796  ALA797  LYS798  CYS799  TRP800  GLU811  SER814 

> <Gold.Protein.RotatedAtoms>
  151.3810  135.0939  159.9495 H   0  0  0  0  0  0  0  0  0  0  0  0  # atno 6907 bound_to 6896
  152.5108  133.9072  159.7480 H   0  0  0  0  0  0  0  0  0  0  0  0  # atno 6908 bound_to 6896
  150.9506  133.6499  159.2801 H   0  0  0  0  0  0  0  0  0  0  0  0  # atno 6909 bound_to 6896
  146.0795  140.6089  142.8915 H   0  0  0  0  0  0  0  0  0  0  0  0  # atno 7974 bound_to 7965
  156.0742  140.3279  155.7613 H   0  0  0  0  0  0  0  0  0  0  0  0  # atno 8008 bound_to 7997
  155.5256  140.0589  157.2916 H   0  0  0  0  0  0  0  0  0  0  0  0  # atno 8009 bound_to 7997
  154.4546  140.1936  156.0433 H   0  0  0  0  0  0  0  0  0  0  0  0  # atno 8010 bound_to 7997
  140.7287  143.4312  151.0799 H   0  0  0  0  0  0  0  0  0  0  0  0  # atno 10167 bound_to 10162
  157.6587  130.9672  150.1196 H   0  0  0  0  0  0  0  0  0  0  0  0  # atno 10718 bound_to 10713
  153.3967  135.3868  155.1960 H   0  0  0  0  0  0  0  0  0  0  0  0  # atno 10763 bound_to 10752
  154.8725  135.3761  154.4669 H   0  0  0  0  0  0  0  0  0  0  0  0  # atno 10764 bound_to 10752
  153.5162  135.7087  153.5817 H   0  0  0  0  0  0  0  0  0  0  0  0  # atno 10765 bound_to 10752
  140.5251  134.0521  155.7856 H   0  0  0  0  0  0  0  0  0  0  0  0  # atno 11005 bound_to 11000
  144.7283  140.4595  143.6956 LP  0  0  0  0  0  0  0  0  0  0  0  0  # atno 17320 bound_to 7965
  145.6245  139.1528  143.3004 LP  0  0  0  0  0  0  0  0  0  0  0  0  # atno 17321 bound_to 7965
  139.7969  143.8139  152.3158 LP  0  0  0  0  0  0  0  0  0  0  0  0  # atno 17342 bound_to 10162
  139.8142  144.7323  150.9657 LP  0  0  0  0  0  0  0  0  0  0  0  0  # atno 17343 bound_to 10162
  156.2071  130.3664  149.8716 LP  0  0  0  0  0  0  0  0  0  0  0  0  # atno 17370 bound_to 10713
  156.6605  130.8780  151.3546 LP  0  0  0  0  0  0  0  0  0  0  0  0  # atno 17371 bound_to 10713
  141.1312  133.9298  157.2530 LP  0  0  0  0  0  0  0  0  0  0  0  0  # atno 17394 bound_to 11000
  139.9584  135.0160  156.9193 LP  0  0  0  0  0  0  0  0  0  0  0  0  # atno 17395 bound_to 11000

$$$$
