AV-unprocessed.smi:3112|AV-procd|sdf|11843|dock3
  -GOLD-   2272017223D 1   1.00000     0.00000
 Structure written by MMmdl.
 37 37  0  0  0  0  0  0  0  0  2 V2000
  144.6408  135.5139  151.2844 C   0  0  0  0  0  0  0  0  0  0  0  0
  144.9871  136.7141  152.1763 C   0  0  0  0  0  0  0  0  0  0  0  0
  146.3438  137.3584  151.8381 C   0  0  1  0  0  0  0  0  0  0  0  0
  146.3206  137.7933  150.4923 O   0  0  0  0  0  0  0  0  0  0  0  0
  146.6418  138.5733  152.7321 C   0  0  0  0  0  0  0  0  0  0  0  0
  148.0969  138.7984  152.8603 N   0  3  0  0  0  0  0  0  0  0  0  0
  148.5519  139.2163  154.2053 C   0  0  1  0  0  0  0  0  0  0  0  0
  149.6458  138.2418  154.6789 C   0  0  0  0  0  0  0  0  0  0  0  0
  149.0209  140.6961  154.1842 C   0  0  1  0  0  0  0  0  0  0  0  0
  147.8546  141.7013  154.1877 C   0  0  0  0  0  0  0  0  0  0  0  0
  149.9288  140.9932  155.2852 N   0  0  0  0  0  0  0  0  0  0  0  0
  149.7086  141.7780  156.4001 C   0  0  0  0  0  0  0  0  0  0  0  0
  150.8483  141.7502  157.1513 C   0  0  0  0  0  0  0  0  0  0  0  0
  151.7223  140.9095  156.4076 C   0  0  0  0  0  0  0  0  0  0  0  0
  151.1689  140.4570  155.2941 N   0  0  0  0  0  0  0  0  0  0  0  0
  143.6871  135.0762  151.5799 H   0  0  0  0  0  0  0  0  0  0  0  0
  145.4004  134.7351  151.3584 H   0  0  0  0  0  0  0  0  0  0  0  0
  144.5582  135.8048  150.2370 H   0  0  0  0  0  0  0  0  0  0  0  0
  144.1931  137.4593  152.1117 H   0  0  0  0  0  0  0  0  0  0  0  0
  144.9999  136.3755  153.2130 H   0  0  0  0  0  0  0  0  0  0  0  0
  147.1345  136.6161  151.9551 H   0  0  0  0  0  0  0  0  0  0  0  0
  145.4196  137.8601  150.2127 H   0  0  0  0  0  0  0  0  0  0  0  0
  146.1543  139.4646  152.3347 H   0  0  0  0  0  0  0  0  0  0  0  0
  146.2344  138.4076  153.7304 H   0  0  0  0  0  0  0  0  0  0  0  0
  148.5662  137.9371  152.6200 H   0  0  0  0  0  0  0  0  0  0  0  0
  147.7214  139.1250  154.9078 H   0  0  0  0  0  0  0  0  0  0  0  0
  149.9498  138.4388  155.7072 H   0  0  0  0  0  0  0  0  0  0  0  0
  150.5347  138.3087  154.0508 H   0  0  0  0  0  0  0  0  0  0  0  0
  149.2918  137.2108  154.6439 H   0  0  0  0  0  0  0  0  0  0  0  0
  149.5772  140.8535  153.2578 H   0  0  0  0  0  0  0  0  0  0  0  0
  147.2389  141.6033  153.2937 H   0  0  0  0  0  0  0  0  0  0  0  0
  148.2239  142.7272  154.2100 H   0  0  0  0  0  0  0  0  0  0  0  0
  147.2084  141.5621  155.0549 H   0  0  0  0  0  0  0  0  0  0  0  0
  148.7698  142.2861  156.5643 H   0  0  0  0  0  0  0  0  0  0  0  0
  151.0306  142.2536  158.0893 H   0  0  0  0  0  0  0  0  0  0  0  0
  152.7347  140.6158  156.6423 H   0  0  0  0  0  0  0  0  0  0  0  0
  148.3719  139.5074  152.1949 H   0  0  0  0  0  0  0  0  0  0  0  0
  1  2  1  0  0  0  0
  1 16  1  0  0  0  0
  1 17  1  0  0  0  0
  1 18  1  0  0  0  0
  2  3  1  0  0  0  0
  2 19  1  0  0  0  0
  2 20  1  0  0  0  0
  3  4  1  0  0  0  0
  3  5  1  0  0  0  0
  3 21  1  0  0  0  0
  4 22  1  0  0  0  0
  5  6  1  0  0  0  0
  5 23  1  0  0  0  0
  5 24  1  0  0  0  0
  6  7  1  0  0  0  0
  6 25  1  0  0  0  0
  6 37  1  0  0  0  0
  7  8  1  0  0  0  0
  7  9  1  0  0  0  0
  7 26  1  0  0  0  0
  8 27  1  0  0  0  0
  8 28  1  0  0  0  0
  8 29  1  0  0  0  0
  9 10  1  0  0  0  0
  9 11  1  0  0  0  0
  9 30  1  0  0  0  0
 10 31  1  0  0  0  0
 10 32  1  0  0  0  0
 10 33  1  0  0  0  0
 11 15  1  0  0  0  0
 11 12  1  0  0  0  0
 12 13  2  0  0  0  0
 12 34  1  0  0  0  0
 13 14  1  0  0  0  0
 13 35  1  0  0  0  0
 14 15  2  0  0  0  0
 14 36  1  0  0  0  0
M  CHG  1   6   1
M  END
> <s_m_source_file>
AV-unprocessed.smi

> <i_m_source_file_index>
3112

> <i_lp_mmshare_version>
43012

> <i_f3d_flags>
0

> <s_epik_input>
W0NIM11bQ0gyXVtDQEhdKFtPSF0pW0NIMl1bTkhdW0NASF0oW0NIM10pW0NASF0oW0NIM10pbjFbY0hdW2NIXVtjSF1uMQ==

> <s_epik_cmdline>
J2VwaWtfcHl0aG9uJywgJy1waCcsICc3LjAnLCAnLXRuJywgJzgnLCAnLW1hJywgJzIwMCcsICctbWV0YWxfYmluZGluZycsICctaW1hZScsICc8aW5maWxlLm1hZT4nLCAnLW9tYWUnLCAnPG91dGZpbGUubWFlPic=

> <r_lp_tautomer_probability>
1

> <r_epik_Ionization_Penalty>
0.0154842

> <r_epik_Ionization_Penalty_Charging>
0.0154724

> <r_epik_Ionization_Penalty_Neutral>
1.17979e-05

> <r_epik_State_Penalty>
0.0121607

> <r_epik_Charging_Adjusted_Penalty>
0.0276331

> <i_epik_Tot_Q>
1

> <i_epik_Tot_abs_Q>
1

> <r_epik_Metal_State_Penalty>
0.0121863

> <b_epik_Metal_Only>
0

> <s_lp_Force_Field>
OPLS_2005

> <r_lp_Energy>
13.9739

> <b_lp_Chiralities_Consistent>
1

> <s_lp_Variant>
AV-unprocessed.smi:3112-8

> <Gold.Version>
5.8.1

> <Gold.Id.Protein>
6NUR|6NUR_protein|mol2

> <Gold.PLP.Fitness>
46.8480

> <Gold.PLP.PLP>
-31.7337

> <Gold.PLP.part.hbond>
-5.0592

> <Gold.PLP.part.metal>
0.0000

> <Gold.PLP.part.buried>
0.6312

> <Gold.PLP.part.nonpolar>
-26.4678

> <Gold.PLP.part.repulsive>
0.0942

> <Gold.PLP.ligand.clash>
0.0000

> <Gold.PLP.ligand.torsion>
1.9845

> <Gold.PLP.Chemscore.Hbond>
5.5408

> <Gold.PLP.Chemscore.CHOScore>
0.7439

> <Gold.PLP.Chemscore.Metal>
0.0000

> <Gold.Chemscore.Hbonds>
donor molecule, donor type, donor heavy atom, donor atom, acceptor molecule, acceptor atom, score
      L1  H     4    22       P1 10171  1.00
      L1  H     6    25       P1  7948  2.00
      L1  H     6    37       P1  7957  0.91
      P1  H  7954  7966       L1     4  0.90
      P1  H  7989  7998       L1    15  0.86
      L1  C    12    34       P1  8028  0.52

> <Gold.PLP.Chemscore.Internal.Correction>
0.2291

> <Gold.Rescore>
     Score         DG    S(hbond)    S(metal)    S(lipo)     H(rot)  DE(clash)    DE(int)     intcor
     16.21     -19.78       3.93        0.00      62.62       2.41       0.29       3.29       ----

> <Gold.Chemscore.Fitness>
16.2072

> <Gold.Chemscore.DG>
-19.7827

> <Gold.Chemscore.ZeroCoef>
-5.4800

> <Gold.Chemscore.Hbond>
3.9349

> <Gold.Chemscore.Metal>
0.0000

> <Gold.Chemscore.Lipo>
62.6230

> <Gold.Chemscore.Internal_Hbond>
0.0000

> <Gold.Chemscore.DEClash>
0.2866

> <Gold.Chemscore.DEInternal>
3.2889

> <Gold.Chemscore.Rot>
2.4089

> <Gold.Chemscore.Internal.Correction>
   9.000000E+99

> <Gold.Chemscore.Hbonds>
donor molecule, donor type, donor heavy atom, donor atom, acceptor molecule, acceptor atom, score
      L1  H     4    22       P1 10171  0.99
      L1  H     6    25       P1  7948  1.00
      L1  H     6    37       P1  7957  0.88
      P1  H  7954  7966       L1     4  0.57
      P1  H  7989  7998       L1    15  0.16

> <Gold.Chemscore.Hbond.Weighted>
-13.1425

> <Gold.Chemscore.Metal.Weighted>
-0.0000

> <Gold.Chemscore.Lipo.Weighted>
-7.3269

> <Gold.Chemscore.Internal_Hbond.Weighted>
0.0000

> <Gold.Chemscore.DEClash.Weighted>
0.2866

> <Gold.Chemscore.DEInternal.Weighted>
3.2889

> <Gold.Chemscore.Rot.Weighted>
6.1667

> <Gold.Chemscore.Internal.Correction.Weighted>
   9.000000E+99

> <Gold.Protein.RotatedTorsions>
[ 6907 6896 6895 6894 ] final -129.36 input  -60.11 | X-H torsion
[ 7974 7965 7964 7962 ] final   67.48 input  175.53 | X-H torsion
[ 8008 7997 7996 7995 ] final  -92.68 input   59.86 | X-H torsion
[ 10167 10162 10161 10158 ] final -158.40 input  -65.29 | X-H torsion
[ 10718 10713 10712 10709 ] final  -88.31 input   66.30 | X-H torsion
[ 10763 10752 10751 10750 ] final  164.43 input  -60.55 | X-H torsion
[ 11005 11000 10999 10996 ] final  -72.92 input  -57.11 | X-H torsion

> <Gold.Protein.ActiveResidues>
 VAL166  LYS551  ARG553  GLY616  TRP617  ASP618  TYR619  PRO620  LYS621  CYS622 
 ASP623  PHE694  ASN695  SER759  ASP760  ASP761  ALA762  ILE779  LEU786  VAL792 
 PHE793  MET794  SER795  GLU796  ALA797  LYS798  CYS799  TRP800  GLU811  SER814 

> <Gold.Protein.RotatedAtoms>
  150.9278  133.6803  159.2817 H   0  0  0  0  0  0  0  0  0  0  0  0  # atno 6907 bound_to 6896
  151.4235  135.0999  159.9630 H   0  0  0  0  0  0  0  0  0  0  0  0  # atno 6908 bound_to 6896
  152.5011  133.8725  159.7360 H   0  0  0  0  0  0  0  0  0  0  0  0  # atno 6909 bound_to 6896
  145.8141  139.3048  143.1082 H   0  0  0  0  0  0  0  0  0  0  0  0  # atno 7974 bound_to 7965
  154.7261  140.0506  157.0684 H   0  0  0  0  0  0  0  0  0  0  0  0  # atno 8008 bound_to 7997
  155.0362  140.3163  155.4721 H   0  0  0  0  0  0  0  0  0  0  0  0  # atno 8009 bound_to 7997
  156.2829  140.2141  156.5485 H   0  0  0  0  0  0  0  0  0  0  0  0  # atno 8010 bound_to 7997
  139.6695  143.9770  152.2275 H   0  0  0  0  0  0  0  0  0  0  0  0  # atno 10167 bound_to 10162
  155.9984  130.4831  150.5000 H   0  0  0  0  0  0  0  0  0  0  0  0  # atno 10718 bound_to 10713
  154.3088  135.2757  155.2576 H   0  0  0  0  0  0  0  0  0  0  0  0  # atno 10763 bound_to 10752
  154.4980  135.5816  153.6513 H   0  0  0  0  0  0  0  0  0  0  0  0  # atno 10764 bound_to 10752
  152.9890  135.6151  154.3264 H   0  0  0  0  0  0  0  0  0  0  0  0  # atno 10765 bound_to 10752
  141.1615  133.6862  156.7132 H   0  0  0  0  0  0  0  0  0  0  0  0  # atno 11005 bound_to 11000
  145.9746  140.8733  143.0145 LP  0  0  0  0  0  0  0  0  0  0  0  0  # atno 17320 bound_to 7965
  144.6754  140.1993  143.7388 LP  0  0  0  0  0  0  0  0  0  0  0  0  # atno 17321 bound_to 7965
  139.9531  144.6607  150.8152 LP  0  0  0  0  0  0  0  0  0  0  0  0  # atno 17342 bound_to 10162
  140.7612  143.3170  151.2711 LP  0  0  0  0  0  0  0  0  0  0  0  0  # atno 17343 bound_to 10162
  157.2986  131.0640  151.2084 LP  0  0  0  0  0  0  0  0  0  0  0  0  # atno 17370 bound_to 10713
  157.3072  130.6872  149.6196 LP  0  0  0  0  0  0  0  0  0  0  0  0  # atno 17371 bound_to 10713
  140.2871  134.8270  157.3984 LP  0  0  0  0  0  0  0  0  0  0  0  0  # atno 17394 bound_to 11000
  140.1380  134.5009  155.8053 LP  0  0  0  0  0  0  0  0  0  0  0  0  # atno 17395 bound_to 11000

$$$$
