AV-unprocessed.smi:72|AV-procd|sdf|747|dock6
  -GOLD-   2262017 83D 1   1.00000     0.00000
 Structure written by MMmdl.
 29 30  0  0  0  0  0  0  0  0  1 V2000
  149.7650  134.2855  156.2713 N   0  0  0  0  0  0  0  0  0  0  0  0
  149.9985  135.6071  155.9536 C   0  0  0  0  0  0  0  0  0  0  0  0
  149.1294  136.5485  156.5224 N   0  0  0  0  0  0  0  0  0  0  0  0
  149.3505  137.7915  156.2323 C   0  0  0  0  0  0  0  0  0  0  0  0
  150.4544  138.1798  155.3725 N   0  0  0  0  0  0  0  0  0  0  0  0
  150.7090  139.6263  155.0141 C   0  0  2  0  0  0  0  0  0  0  0  0
  151.2016  140.2974  156.1356 O   0  0  0  0  0  0  0  0  0  0  0  0
  150.6156  141.5910  156.2078 C   0  0  2  0  0  0  0  0  0  0  0  0
  150.7023  142.1671  157.6323 C   0  0  0  0  0  0  0  0  0  0  0  0
  150.3092  143.5229  157.6336 O   0  0  0  0  0  0  0  0  0  0  0  0
  149.1960  141.3611  155.6709 C   0  0  2  0  0  0  0  0  0  0  0  0
  148.3403  140.8567  156.6803 O   0  0  0  0  0  0  0  0  0  0  0  0
  149.4035  140.3168  154.5805 C   0  0  1  0  0  0  0  0  0  0  0  0
  149.5551  140.9500  153.3261 O   0  0  0  0  0  0  0  0  0  0  0  0
  151.2795  137.1704  154.8063 C   0  0  0  0  0  0  0  0  0  0  0  0
  152.1915  137.4744  154.0372 O   0  0  0  0  0  0  0  0  0  0  0  0
  151.0007  135.8437  155.1562 N   0  0  0  0  0  0  0  0  0  0  0  0
  151.4850  139.6243  154.2466 H   0  0  0  0  0  0  0  0  0  0  0  0
  151.1392  142.2446  155.5068 H   0  0  0  0  0  0  0  0  0  0  0  0
  148.7542  142.2828  155.2897 H   0  0  0  0  0  0  0  0  0  0  0  0
  148.5761  139.6079  154.5168 H   0  0  0  0  0  0  0  0  0  0  0  0
  150.3241  133.5219  155.9198 H   0  0  0  0  0  0  0  0  0  0  0  0
  149.0169  133.9832  156.8783 H   0  0  0  0  0  0  0  0  0  0  0  0
  148.7322  138.6094  156.6043 H   0  0  0  0  0  0  0  0  0  0  0  0
  150.0214  141.6324  158.2953 H   0  0  0  0  0  0  0  0  0  0  0  0
  151.7072  142.0639  158.0433 H   0  0  0  0  0  0  0  0  0  0  0  0
  149.7303  143.6694  156.9013 H   0  0  0  0  0  0  0  0  0  0  0  0
  148.6526  141.1611  157.5186 H   0  0  0  0  0  0  0  0  0  0  0  0
  149.3454  140.3253  152.6484 H   0  0  0  0  0  0  0  0  0  0  0  0
  1  2  1  0  0  0  0
  1 22  1  0  0  0  0
  1 23  1  0  0  0  0
  2 17  2  0  0  0  0
  2  3  1  0  0  0  0
  3  4  2  0  0  0  0
  4  5  1  0  0  0  0
  4 24  1  0  0  0  0
  5  6  1  0  0  0  0
  5 15  1  0  0  0  0
  6 18  1  0  0  0  0
  6 13  1  0  0  0  0
  6  7  1  0  0  0  0
  7  8  1  0  0  0  0
  8 19  1  0  0  0  0
  8  9  1  0  0  0  0
  8 11  1  0  0  0  0
  9 10  1  0  0  0  0
  9 25  1  0  0  0  0
  9 26  1  0  0  0  0
 10 27  1  0  0  0  0
 11 20  1  0  0  0  0
 11 12  1  0  0  0  0
 11 13  1  0  0  0  0
 12 28  1  0  0  0  0
 13 21  1  0  0  0  0
 13 14  1  0  0  0  0
 14 29  1  0  0  0  0
 15 16  2  0  0  0  0
 15 17  1  0  0  0  0
M  END
> <s_m_source_file>
AV-unprocessed.smi

> <i_m_source_file_index>
72

> <i_lp_mmshare_version>
43012

> <i_f3d_flags>
0

> <s_epik_input>
W05IMl1jMW5bY0hdbihjKD1PKW4xKVtDQEBIXTJPW0NASF0oW0NIMl1bT0hdKVtDQEBIXShbT0hdKVtDQEhdMltPSF0=

> <s_epik_cmdline>
J2VwaWtfcHl0aG9uJywgJy1waCcsICc3LjAnLCAnLXRuJywgJzgnLCAnLW1hJywgJzIwMCcsICctbWV0YWxfYmluZGluZycsICctaW1hZScsICc8aW5maWxlLm1hZT4nLCAnLW9tYWUnLCAnPG91dGZpbGUubWFlPic=

> <r_lp_tautomer_probability>
4.77166e-05

> <r_epik_Ionization_Penalty>
1.3546

> <r_epik_Ionization_Penalty_Charging>
1.46833e-10

> <r_epik_Ionization_Penalty_Neutral>
1.3546

> <r_epik_State_Penalty>
3.51908

> <r_epik_Charging_Adjusted_Penalty>
3.51908

> <i_epik_Tot_Q>
0

> <i_epik_Tot_abs_Q>
0

> <r_epik_Metal_State_Penalty>
3.44088

> <b_epik_Metal_Only>
1

> <s_epik_Chemistry_Notes>
This compound contains an acetal/aminal-like group ( X-CH(R)-Y where X, Y are N, S, or O) that may be acid/base labile, releasing an aldehyde.

> <s_lp_Force_Field>
OPLS_2005

> <r_lp_Energy>
27.1219

> <b_lp_Chiralities_Consistent>
1

> <s_lp_Variant>
AV-unprocessed.smi:72-85

> <Gold.Version>
5.8.1

> <Gold.Id.Protein>
6NUR|6NUR_protein|mol2

> <Gold.PLP.Fitness>
34.6161

> <Gold.PLP.PLP>
-23.9729

> <Gold.PLP.part.hbond>
-5.3762

> <Gold.PLP.part.metal>
0.0000

> <Gold.PLP.part.buried>
-4.2321

> <Gold.PLP.part.nonpolar>
-15.9729

> <Gold.PLP.part.repulsive>
0.4702

> <Gold.PLP.ligand.clash>
0.0000

> <Gold.PLP.ligand.torsion>
0.2840

> <Gold.PLP.Chemscore.Hbond>
3.7332

> <Gold.PLP.Chemscore.CHOScore>
0.0000

> <Gold.PLP.Chemscore.Metal>
0.0000

> <Gold.Chemscore.Hbonds>
donor molecule, donor type, donor heavy atom, donor atom, acceptor molecule, acceptor atom, score
      L1  H    10    27       P1  8028  1.00
      L1  H    14    29       P1  7957  0.82
      P1  H  7989  7998       L1    14  0.14
      P1  H  8011  8017       L1    14  1.00
      P1  H 10752 10764       L1    16  0.78

> <Gold.PLP.Chemscore.Internal.Correction>
0.0117

> <Gold.Rescore>
     Score         DG    S(hbond)    S(metal)    S(lipo)     H(rot)  DE(clash)    DE(int)     intcor
      7.77      -8.14       2.86        0.00      29.84       4.06       0.07       0.30       ----

> <Gold.Chemscore.Fitness>
7.7668

> <Gold.Chemscore.DG>
-8.1437

> <Gold.Chemscore.ZeroCoef>
-5.4800

> <Gold.Chemscore.Hbond>
2.8641

> <Gold.Chemscore.Metal>
0.0000

> <Gold.Chemscore.Lipo>
29.8395

> <Gold.Chemscore.Internal_Hbond>
0.0000

> <Gold.Chemscore.DEClash>
0.0733

> <Gold.Chemscore.DEInternal>
0.3036

> <Gold.Chemscore.Rot>
4.0600

> <Gold.Chemscore.Internal.Correction>
   9.000000E+99

> <Gold.Chemscore.Hbonds>
donor molecule, donor type, donor heavy atom, donor atom, acceptor molecule, acceptor atom, score
      L1  H    10    27       P1  8028  0.95
      L1  H    14    29       P1  7957  0.76
      P1  H  7989  7998       L1    14  0.01
      P1  H  8011  8017       L1    14  0.25
      P1  H 10752 10764       L1    16  0.17

> <Gold.Chemscore.Hbond.Weighted>
-9.5661

> <Gold.Chemscore.Metal.Weighted>
-0.0000

> <Gold.Chemscore.Lipo.Weighted>
-3.4912

> <Gold.Chemscore.Internal_Hbond.Weighted>
0.0000

> <Gold.Chemscore.DEClash.Weighted>
0.0733

> <Gold.Chemscore.DEInternal.Weighted>
0.3036

> <Gold.Chemscore.Rot.Weighted>
10.3936

> <Gold.Chemscore.Internal.Correction.Weighted>
   9.000000E+99

> <Gold.Protein.RotatedTorsions>
[ 6907 6896 6895 6894 ] final   30.43 input  -60.11 | X-H torsion
[ 7974 7965 7964 7962 ] final  165.43 input  175.53 | X-H torsion
[ 8008 7997 7996 7995 ] final  130.72 input   59.86 | X-H torsion
[ 10167 10162 10161 10158 ] final -120.59 input  -65.29 | X-H torsion
[ 10718 10713 10712 10709 ] final  -68.95 input   66.30 | X-H torsion
[ 10763 10752 10751 10750 ] final -100.80 input  -60.55 | X-H torsion
[ 11005 11000 10999 10996 ] final -132.55 input  -57.11 | X-H torsion

> <Gold.Protein.ActiveResidues>
 VAL166  LYS551  ARG553  GLY616  TRP617  ASP618  TYR619  PRO620  LYS621  CYS622 
 ASP623  PHE694  ASN695  SER759  ASP760  ASP761  ALA762  ILE779  LEU786  VAL792 
 PHE793  MET794  SER795  GLU796  ALA797  LYS798  CYS799  TRP800  GLU811  SER814 

> <Gold.Protein.RotatedAtoms>
  152.0458  134.9684  160.0574 H   0  0  0  0  0  0  0  0  0  0  0  0  # atno 6907 bound_to 6896
  152.1104  133.4293  159.4636 H   0  0  0  0  0  0  0  0  0  0  0  0  # atno 6908 bound_to 6896
  150.6843  134.2574  159.4578 H   0  0  0  0  0  0  0  0  0  0  0  0  # atno 6909 bound_to 6896
  144.7503  139.8470  143.6368 H   0  0  0  0  0  0  0  0  0  0  0  0  # atno 7974 bound_to 7965
  156.2959  140.2589  156.2809 H   0  0  0  0  0  0  0  0  0  0  0  0  # atno 8008 bound_to 7997
  154.9603  140.0392  157.2205 H   0  0  0  0  0  0  0  0  0  0  0  0  # atno 8009 bound_to 7997
  154.7953  140.2819  155.5966 H   0  0  0  0  0  0  0  0  0  0  0  0  # atno 8010 bound_to 7997
  140.0342  143.5217  152.2161 H   0  0  0  0  0  0  0  0  0  0  0  0  # atno 10167 bound_to 10162
  156.0479  130.4304  150.2076 H   0  0  0  0  0  0  0  0  0  0  0  0  # atno 10718 bound_to 10713
  154.7608  135.4921  153.9460 H   0  0  0  0  0  0  0  0  0  0  0  0  # atno 10763 bound_to 10752
  153.1249  135.6740  153.9281 H   0  0  0  0  0  0  0  0  0  0  0  0  # atno 10764 bound_to 10752
  153.9002  135.3110  155.3427 H   0  0  0  0  0  0  0  0  0  0  0  0  # atno 10765 bound_to 10752
  140.9160  134.1506  157.4352 H   0  0  0  0  0  0  0  0  0  0  0  0  # atno 11005 bound_to 11000
  146.1443  139.4508  143.0089 LP  0  0  0  0  0  0  0  0  0  0  0  0  # atno 17320 bound_to 7965
  145.6970  141.0147  143.1525 LP  0  0  0  0  0  0  0  0  0  0  0  0  # atno 17321 bound_to 7965
  139.6056  144.7595  151.3070 LP  0  0  0  0  0  0  0  0  0  0  0  0  # atno 17342 bound_to 10162
  140.7288  143.6924  150.7911 LP  0  0  0  0  0  0  0  0  0  0  0  0  # atno 17343 bound_to 10162
  157.0163  130.9966  151.3352 LP  0  0  0  0  0  0  0  0  0  0  0  0  # atno 17370 bound_to 10713
  157.5375  130.8098  149.7989 LP  0  0  0  0  0  0  0  0  0  0  0  0  # atno 17371 bound_to 10713
  139.8766  134.9954  156.5740 LP  0  0  0  0  0  0  0  0  0  0  0  0  # atno 17394 bound_to 11000
  140.8049  133.8475  155.8759 LP  0  0  0  0  0  0  0  0  0  0  0  0  # atno 17395 bound_to 11000

$$$$
