AV-unprocessed.smi:907|AV-procd|sdf|4107|dock5
  -GOLD-   22720 2 03D 1   1.00000     0.00000
 Structure written by MMmdl.
 53 56  0  0  0  0  0  0  0  0  2 V2000
  152.4776  139.5766  156.2969 O   0  0  0  0  0  0  0  0  0  0  0  0
  151.4697  139.7968  155.6245 C   0  0  0  0  0  0  0  0  0  0  0  0
  150.7351  140.9095  155.7828 N   0  0  0  0  0  0  0  0  0  0  0  0
  151.0348  141.9740  156.7308 C   0  0  0  0  0  0  0  0  0  0  0  0
  150.9015  141.4653  158.1732 C   0  0  0  0  0  0  0  0  0  0  0  0
  151.3417  142.4997  159.1919 C   0  0  0  0  0  0  0  0  0  0  0  0
  152.4300  142.2443  160.0534 C   0  0  0  0  0  0  0  0  0  0  0  0
  152.8022  143.2397  160.9774 C   0  0  0  0  0  0  0  0  0  0  0  0
  152.0771  144.4464  161.0032 C   0  0  0  0  0  0  0  0  0  0  0  0
  151.0068  144.6045  160.0999 C   0  0  0  0  0  0  0  0  0  0  0  0
  150.6409  143.6559  159.2107 N   0  0  0  0  0  0  0  0  0  0  0  0
  150.9937  138.9293  154.6959 N   0  0  0  0  0  0  0  0  0  0  0  0
  151.6659  137.7213  154.2038 C   0  0  0  0  0  0  0  0  0  0  0  0
  150.9781  136.4792  154.8017 C   0  0  0  0  0  0  0  0  0  0  0  0
  149.5093  136.4586  154.5310 N   0  3  0  0  0  0  0  0  0  0  0  0
  148.7845  135.3065  155.1515 C   0  0  1  0  0  0  0  0  0  0  0  0
  147.4394  135.0140  154.4341 C   0  0  0  0  0  0  0  0  0  0  0  0
  147.5304  133.5197  154.0841 C   0  0  2  0  0  0  0  0  0  0  0  0
  147.4486  132.6826  155.3713 C   0  0  0  0  0  0  0  0  0  0  0  0
  148.8157  132.9455  156.0257 C   0  0  0  0  0  0  0  0  0  0  0  0
  149.4893  133.9238  155.0425 C   0  0  1  0  0  0  0  0  0  0  0  0
  148.9986  133.3877  153.7025 C   0  0  0  0  0  0  0  0  0  0  0  0
  148.8590  137.7617  154.8647 C   0  0  0  0  0  0  0  0  0  0  0  0
  149.6025  138.9564  154.2435 C   0  0  0  0  0  0  0  0  0  0  0  0
  149.9104  141.0230  155.2120 H   0  0  0  0  0  0  0  0  0  0  0  0
  152.0484  142.3363  156.5523 H   0  0  0  0  0  0  0  0  0  0  0  0
  150.3568  142.8133  156.5667 H   0  0  0  0  0  0  0  0  0  0  0  0
  149.8663  141.1872  158.3776 H   0  0  0  0  0  0  0  0  0  0  0  0
  151.4939  140.5589  158.3057 H   0  0  0  0  0  0  0  0  0  0  0  0
  152.9689  141.3094  160.0078 H   0  0  0  0  0  0  0  0  0  0  0  0
  153.6291  143.0803  161.6536 H   0  0  0  0  0  0  0  0  0  0  0  0
  152.3346  145.2320  161.6979 H   0  0  0  0  0  0  0  0  0  0  0  0
  150.4295  145.5170  160.0910 H   0  0  0  0  0  0  0  0  0  0  0  0
  151.5952  137.6953  153.1153 H   0  0  0  0  0  0  0  0  0  0  0  0
  152.7337  137.6885  154.4209 H   0  0  0  0  0  0  0  0  0  0  0  0
  151.4619  135.6078  154.3658 H   0  0  0  0  0  0  0  0  0  0  0  0
  151.1485  136.4424  155.8789 H   0  0  0  0  0  0  0  0  0  0  0  0
  148.6156  135.5455  156.2030 H   0  0  0  0  0  0  0  0  0  0  0  0
  146.5765  135.2422  155.0607 H   0  0  0  0  0  0  0  0  0  0  0  0
  147.3365  135.5852  153.5106 H   0  0  0  0  0  0  0  0  0  0  0  0
  146.8244  133.2078  153.3139 H   0  0  0  0  0  0  0  0  0  0  0  0
  146.6154  132.9830  156.0079 H   0  0  0  0  0  0  0  0  0  0  0  0
  147.3308  131.6227  155.1418 H   0  0  0  0  0  0  0  0  0  0  0  0
  148.7249  133.3577  157.0311 H   0  0  0  0  0  0  0  0  0  0  0  0
  149.3858  132.0183  156.0992 H   0  0  0  0  0  0  0  0  0  0  0  0
  150.5692  133.9185  155.1703 H   0  0  0  0  0  0  0  0  0  0  0  0
  149.3040  132.3576  153.5101 H   0  0  0  0  0  0  0  0  0  0  0  0
  149.2860  134.0111  152.8540 H   0  0  0  0  0  0  0  0  0  0  0  0
  147.8249  137.7769  154.5225 H   0  0  0  0  0  0  0  0  0  0  0  0
  148.8283  137.8800  155.9493 H   0  0  0  0  0  0  0  0  0  0  0  0
  149.0944  139.8871  154.5007 H   0  0  0  0  0  0  0  0  0  0  0  0
  149.5711  138.8955  153.1547 H   0  0  0  0  0  0  0  0  0  0  0  0
  149.4183  136.3465  153.5312 H   0  0  0  0  0  0  0  0  0  0  0  0
  1  2  2  0  0  0  0
  2  3  1  0  0  0  0
  2 12  1  0  0  0  0
  3  4  1  0  0  0  0
  3 25  1  0  0  0  0
  4  5  1  0  0  0  0
  4 26  1  0  0  0  0
  4 27  1  0  0  0  0
  5  6  1  0  0  0  0
  5 28  1  0  0  0  0
  5 29  1  0  0  0  0
  6 11  1  0  0  0  0
  6  7  2  0  0  0  0
  7  8  1  0  0  0  0
  7 30  1  0  0  0  0
  8  9  2  0  0  0  0
  8 31  1  0  0  0  0
  9 10  1  0  0  0  0
  9 32  1  0  0  0  0
 10 11  2  0  0  0  0
 10 33  1  0  0  0  0
 12 24  1  0  0  0  0
 12 13  1  0  0  0  0
 13 14  1  0  0  0  0
 13 34  1  0  0  0  0
 13 35  1  0  0  0  0
 14 15  1  0  0  0  0
 14 36  1  0  0  0  0
 14 37  1  0  0  0  0
 15 16  1  0  0  0  0
 15 23  1  0  0  0  0
 15 53  1  0  0  0  0
 16 21  1  0  0  0  0
 16 17  1  0  0  0  0
 16 38  1  0  0  0  0
 17 18  1  0  0  0  0
 17 39  1  0  0  0  0
 17 40  1  0  0  0  0
 18 22  1  0  0  0  0
 18 19  1  0  0  0  0
 18 41  1  0  0  0  0
 19 20  1  0  0  0  0
 19 42  1  0  0  0  0
 19 43  1  0  0  0  0
 20 21  1  0  0  0  0
 20 44  1  0  0  0  0
 20 45  1  0  0  0  0
 21 22  1  0  0  0  0
 21 46  1  0  0  0  0
 22 47  1  0  0  0  0
 22 48  1  0  0  0  0
 23 24  1  0  0  0  0
 23 49  1  0  0  0  0
 23 50  1  0  0  0  0
 24 51  1  0  0  0  0
 24 52  1  0  0  0  0
M  CHG  1  15   1
M  END
> <s_m_source_file>
AV-unprocessed.smi

> <i_m_source_file_index>
907

> <i_lp_mmshare_version>
43012

> <i_f3d_flags>
0

> <s_epik_input>
W0NIMl0xW0NIMl1bQ0BASF0oW0NIMl0yKVtDQEBIXShbQ0gyXVtDQEhdMTIpTihbQ0gyXVtDSDJdMylbQ0gyXVtDSDJdTjNDKD1PKVtOSF1bQ0gyXVtDSDJdYzRbY0hdW2NIXVtjSF1bY0hdbjQ=

> <s_epik_cmdline>
J2VwaWtfcHl0aG9uJywgJy1waCcsICc3LjAnLCAnLXRuJywgJzgnLCAnLW1hJywgJzIwMCcsICctbWV0YWxfYmluZGluZycsICctaW1hZScsICc8aW5maWxlLm1hZT4nLCAnLW9tYWUnLCAnPG91dGZpbGUubWFlPic=

> <r_epik_Ionization_Penalty>
0.0419258

> <r_epik_Ionization_Penalty_Charging>
0.00262064

> <r_epik_Ionization_Penalty_Neutral>
0.0393052

> <r_epik_State_Penalty>
0.0329887

> <r_epik_Charging_Adjusted_Penalty>
0.0356093

> <i_epik_Tot_Q>
1

> <i_epik_Tot_abs_Q>
1

> <r_epik_Metal_State_Penalty>
0.0309172

> <b_epik_Metal_Only>
0

> <s_lp_Force_Field>
OPLS_2005

> <r_lp_Energy>
96.5641

> <b_lp_Chiralities_Consistent>
1

> <s_lp_Variant>
AV-unprocessed.smi:907-2

> <Gold.Version>
5.8.1

> <Gold.Id.Protein>
6NUR|6NUR_protein|mol2

> <Gold.PLP.Fitness>
52.6759

> <Gold.PLP.PLP>
-44.9732

> <Gold.PLP.part.hbond>
-2.0000

> <Gold.PLP.part.metal>
0.0000

> <Gold.PLP.part.buried>
-3.8765

> <Gold.PLP.part.nonpolar>
-39.6612

> <Gold.PLP.part.repulsive>
0.2578

> <Gold.PLP.ligand.clash>
0.6321

> <Gold.PLP.ligand.torsion>
0.3796

> <Gold.PLP.Chemscore.Hbond>
3.0000

> <Gold.PLP.Chemscore.CHOScore>
0.0000

> <Gold.PLP.Chemscore.Metal>
0.0000

> <Gold.Chemscore.Hbonds>
donor molecule, donor type, donor heavy atom, donor atom, acceptor molecule, acceptor atom, score
      L1  H    15    53       P1  7948  2.00
      P1  H  7997  8010       L1     1  1.00

> <Gold.PLP.Chemscore.Internal.Correction>
0.0940

> <Gold.Rescore>
     Score         DG    S(hbond)    S(metal)    S(lipo)     H(rot)  DE(clash)    DE(int)     intcor
     21.87     -22.49       1.90        0.00     121.22       1.37       0.19       0.43       ----

> <Gold.Chemscore.Fitness>
21.8723

> <Gold.Chemscore.DG>
-22.4914

> <Gold.Chemscore.ZeroCoef>
-5.4800

> <Gold.Chemscore.Hbond>
1.8994

> <Gold.Chemscore.Metal>
0.0000

> <Gold.Chemscore.Lipo>
121.2194

> <Gold.Chemscore.Internal_Hbond>
0.0000

> <Gold.Chemscore.DEClash>
0.1940

> <Gold.Chemscore.DEInternal>
0.4250

> <Gold.Chemscore.Rot>
1.3731

> <Gold.Chemscore.Internal.Correction>
   9.000000E+99

> <Gold.Chemscore.Hbonds>
donor molecule, donor type, donor heavy atom, donor atom, acceptor molecule, acceptor atom, score
      L1  H    15    53       P1  7948  0.74
      P1  H  7997  8010       L1     1  0.98

> <Gold.Chemscore.Hbond.Weighted>
-6.3439

> <Gold.Chemscore.Metal.Weighted>
-0.0000

> <Gold.Chemscore.Lipo.Weighted>
-14.1827

> <Gold.Chemscore.Internal_Hbond.Weighted>
0.0000

> <Gold.Chemscore.DEClash.Weighted>
0.1940

> <Gold.Chemscore.DEInternal.Weighted>
0.4250

> <Gold.Chemscore.Rot.Weighted>
3.5152

> <Gold.Chemscore.Internal.Correction.Weighted>
   9.000000E+99

> <Gold.Protein.RotatedTorsions>
[ 6907 6896 6895 6894 ] final   35.57 input  -60.11 | X-H torsion
[ 7974 7965 7964 7962 ] final  -89.53 input  175.53 | X-H torsion
[ 8008 7997 7996 7995 ] final   86.71 input   59.86 | X-H torsion
[ 10167 10162 10161 10158 ] final   -2.60 input  -65.29 | X-H torsion
[ 10718 10713 10712 10709 ] final -139.07 input   66.30 | X-H torsion
[ 10763 10752 10751 10750 ] final  178.94 input  -60.55 | X-H torsion
[ 11005 11000 10999 10996 ] final  130.97 input  -57.11 | X-H torsion

> <Gold.Protein.ActiveResidues>
 VAL166  LYS551  ARG553  GLY616  TRP617  ASP618  TYR619  PRO620  LYS621  CYS622 
 ASP623  PHE694  ASN695  SER759  ASP760  ASP761  ALA762  ILE779  LEU786  VAL792 
 PHE793  MET794  SER795  GLU796  ALA797  LYS798  CYS799  TRP800  GLU811  SER814 

> <Gold.Protein.RotatedAtoms>
  152.1180  134.9226  160.0563 H   0  0  0  0  0  0  0  0  0  0  0  0  # atno 6907 bound_to 6896
  152.0379  133.3960  159.4332 H   0  0  0  0  0  0  0  0  0  0  0  0  # atno 6908 bound_to 6896
  150.6847  134.3369  159.4895 H   0  0  0  0  0  0  0  0  0  0  0  0  # atno 6909 bound_to 6896
  145.4386  140.9558  143.2088 H   0  0  0  0  0  0  0  0  0  0  0  0  # atno 7974 bound_to 7965
  155.9662  140.3389  155.6535 H   0  0  0  0  0  0  0  0  0  0  0  0  # atno 8008 bound_to 7997
  155.6734  140.0729  157.2530 H   0  0  0  0  0  0  0  0  0  0  0  0  # atno 8009 bound_to 7997
  154.4155  140.1687  156.1891 H   0  0  0  0  0  0  0  0  0  0  0  0  # atno 8010 bound_to 7997
  140.6857  143.6637  150.8244 H   0  0  0  0  0  0  0  0  0  0  0  0  # atno 10167 bound_to 10162
  156.3065  130.7458  151.1523 H   0  0  0  0  0  0  0  0  0  0  0  0  # atno 10718 bound_to 10713
  154.5142  135.2790  155.1317 H   0  0  0  0  0  0  0  0  0  0  0  0  # atno 10763 bound_to 10752
  154.2900  135.6269  153.5385 H   0  0  0  0  0  0  0  0  0  0  0  0  # atno 10764 bound_to 10752
  152.9924  135.5671  154.5615 H   0  0  0  0  0  0  0  0  0  0  0  0  # atno 10765 bound_to 10752
  139.9703  134.9579  156.9371 H   0  0  0  0  0  0  0  0  0  0  0  0  # atno 11005 bound_to 11000
  144.8136  139.5917  143.7018 LP  0  0  0  0  0  0  0  0  0  0  0  0  # atno 17320 bound_to 7965
  146.2568  139.6321  142.9389 LP  0  0  0  0  0  0  0  0  0  0  0  0  # atno 17321 bound_to 7965
  140.0344  143.5410  152.2746 LP  0  0  0  0  0  0  0  0  0  0  0  0  # atno 17342 bound_to 10162
  139.6215  144.7630  151.2731 LP  0  0  0  0  0  0  0  0  0  0  0  0  # atno 17343 bound_to 10162
  157.7381  131.0545  150.5317 LP  0  0  0  0  0  0  0  0  0  0  0  0  # atno 17370 bound_to 10713
  156.5451  130.4217  149.6135 LP  0  0  0  0  0  0  0  0  0  0  0  0  # atno 17371 bound_to 10713
  140.5308  134.0816  155.7315 LP  0  0  0  0  0  0  0  0  0  0  0  0  # atno 17394 bound_to 11000
  141.1383  133.9183  157.2385 LP  0  0  0  0  0  0  0  0  0  0  0  0  # atno 17395 bound_to 11000

$$$$
