AV-unprocessed.smi:1263|AV-procd|sdf|5310|dock3
  -GOLD-   22720 4433D 1   1.00000     0.00000
 Structure written by MMmdl.
 44 46  0  0  0  0  0  0  0  0  2 V2000
  145.9077  143.5382  154.0761 C   0  0  0  0  0  0  0  0  0  0  0  0
  146.0356  142.1618  153.7368 O   0  0  0  0  0  0  0  0  0  0  0  0
  147.2134  141.5111  154.0517 C   0  0  0  0  0  0  0  0  0  0  0  0
  148.2222  142.2329  154.6017 N   0  0  0  0  0  0  0  0  0  0  0  0
  149.3744  141.6004  154.9041 C   0  0  0  0  0  0  0  0  0  0  0  0
  149.5846  140.2291  154.6705 C   0  0  0  0  0  0  0  0  0  0  0  0
  148.5399  139.4781  154.1009 C   0  0  0  0  0  0  0  0  0  0  0  0
  147.3182  140.1243  153.7922 C   0  0  0  0  0  0  0  0  0  0  0  0
  146.2073  139.4648  153.1973 N   0  0  0  0  0  0  0  0  0  0  0  0
  146.0784  138.1663  152.8769 C   0  0  0  0  0  0  0  0  0  0  0  0
  146.9291  137.2970  153.0658 O   0  0  0  0  0  0  0  0  0  0  0  0
  144.8789  137.9181  152.3313 N   0  0  0  0  0  0  0  0  0  0  0  0
  144.4087  136.6050  151.8992 C   0  0  2  0  0  0  0  0  0  0  0  0
  144.0259  135.7277  153.1065 C   0  0  0  0  0  0  0  0  0  0  0  0
  143.6242  134.3129  152.6569 C   0  0  0  0  0  0  0  0  0  0  0  0
  144.7081  133.6754  151.8688 N   0  3  1  0  0  0  0  0  0  0  0  0
  144.3911  132.2739  151.5179 C   0  0  0  0  0  0  0  0  0  0  0  0
  145.2097  131.7358  150.3673 C   0  0  0  0  0  0  0  0  0  0  0  0
  143.7614  132.1160  150.1534 C   0  0  0  0  0  0  0  0  0  0  0  0
  145.0695  134.4821  150.6767 C   0  0  0  0  0  0  0  0  0  0  0  0
  145.5033  135.9016  151.0798 C   0  0  0  0  0  0  0  0  0  0  0  0
  144.9289  143.8983  153.7595 H   0  0  0  0  0  0  0  0  0  0  0  0
  146.6615  144.1451  153.5725 H   0  0  0  0  0  0  0  0  0  0  0  0
  145.9841  143.6927  155.1533 H   0  0  0  0  0  0  0  0  0  0  0  0
  150.1549  142.2071  155.3386 H   0  0  0  0  0  0  0  0  0  0  0  0
  150.5276  139.7645  154.9174 H   0  0  0  0  0  0  0  0  0  0  0  0
  148.7017  138.4308  153.8996 H   0  0  0  0  0  0  0  0  0  0  0  0
  145.3884  140.0401  153.0637 H   0  0  0  0  0  0  0  0  0  0  0  0
  144.2402  138.6920  152.2194 H   0  0  0  0  0  0  0  0  0  0  0  0
  143.5326  136.7352  151.2606 H   0  0  0  0  0  0  0  0  0  0  0  0
  144.8652  135.6634  153.8007 H   0  0  0  0  0  0  0  0  0  0  0  0
  143.2024  136.1811  153.6595 H   0  0  0  0  0  0  0  0  0  0  0  0
  143.4014  133.7028  153.5329 H   0  0  0  0  0  0  0  0  0  0  0  0
  142.7124  134.3531  152.0588 H   0  0  0  0  0  0  0  0  0  0  0  0
  144.0980  131.6233  152.3403 H   0  0  0  0  0  0  0  0  0  0  0  0
  145.9676  132.3809  149.9262 H   0  0  0  0  0  0  0  0  0  0  0  0
  145.4506  130.6748  150.3751 H   0  0  0  0  0  0  0  0  0  0  0  0
  143.0483  131.3049  150.0198 H   0  0  0  0  0  0  0  0  0  0  0  0
  143.5588  133.0133  149.5714 H   0  0  0  0  0  0  0  0  0  0  0  0
  145.8816  133.9936  150.1370 H   0  0  0  0  0  0  0  0  0  0  0  0
  144.2191  134.5279  149.9944 H   0  0  0  0  0  0  0  0  0  0  0  0
  145.7347  136.4830  150.1863 H   0  0  0  0  0  0  0  0  0  0  0  0
  146.4255  135.8464  151.6605 H   0  0  0  0  0  0  0  0  0  0  0  0
  145.5245  133.6480  152.4626 H   0  0  0  0  0  0  0  0  0  0  0  0
  1  2  1  0  0  0  0
  1 22  1  0  0  0  0
  1 23  1  0  0  0  0
  1 24  1  0  0  0  0
  2  3  1  0  0  0  0
  3  8  1  0  0  0  0
  3  4  2  0  0  0  0
  4  5  1  0  0  0  0
  5  6  2  0  0  0  0
  5 25  1  0  0  0  0
  6  7  1  0  0  0  0
  6 26  1  0  0  0  0
  7  8  2  0  0  0  0
  7 27  1  0  0  0  0
  8  9  1  0  0  0  0
  9 10  1  0  0  0  0
  9 28  1  0  0  0  0
 10 11  2  0  0  0  0
 10 12  1  0  0  0  0
 12 13  1  0  0  0  0
 12 29  1  0  0  0  0
 13 21  1  0  0  0  0
 13 14  1  0  0  0  0
 13 30  1  0  0  0  0
 14 15  1  0  0  0  0
 14 31  1  0  0  0  0
 14 32  1  0  0  0  0
 15 16  1  0  0  0  0
 15 33  1  0  0  0  0
 15 34  1  0  0  0  0
 16 17  1  0  0  0  0
 16 20  1  0  0  0  0
 16 44  1  0  0  0  0
 17 19  1  0  0  0  0
 17 18  1  0  0  0  0
 17 35  1  0  0  0  0
 18 19  1  0  0  0  0
 18 36  1  0  0  0  0
 18 37  1  0  0  0  0
 19 38  1  0  0  0  0
 19 39  1  0  0  0  0
 20 21  1  0  0  0  0
 20 40  1  0  0  0  0
 20 41  1  0  0  0  0
 21 42  1  0  0  0  0
 21 43  1  0  0  0  0
M  CHG  1  16   1
M  END
> <s_m_source_file>
AV-unprocessed.smi

> <i_m_source_file_index>
1263

> <i_lp_mmshare_version>
43012

> <i_f3d_flags>
0

> <s_epik_input>
W0NIM11PYzFuW2NIXVtjSF1bY0hdYzFbTkhdQyg9TylbTkhdW0NIXTJbQ0gyXVtDSDJdTihbQ0gyXVtDSDJdMilbQ0hdM1tDSDJdW0NIMl0z

> <s_epik_cmdline>
J2VwaWtfcHl0aG9uJywgJy1waCcsICc3LjAnLCAnLXRuJywgJzgnLCAnLW1hJywgJzIwMCcsICctbWV0YWxfYmluZGluZycsICctaW1hZScsICc8aW5maWxlLm1hZT4nLCAnLW9tYWUnLCAnPG91dGZpbGUubWFlPic=

> <r_lp_tautomer_probability>
1

> <r_epik_Ionization_Penalty>
0.115628

> <r_epik_Ionization_Penalty_Charging>
0.115549

> <r_epik_Ionization_Penalty_Neutral>
7.89431e-05

> <r_epik_State_Penalty>
0.105184

> <r_epik_Charging_Adjusted_Penalty>
0.220733

> <i_epik_Tot_Q>
1

> <i_epik_Tot_abs_Q>
1

> <r_epik_Metal_State_Penalty>
0.105186

> <b_epik_Metal_Only>
0

> <s_lp_Force_Field>
OPLS_2005

> <r_lp_Energy>
28.8205

> <b_lp_Chiralities_Consistent>
1

> <s_lp_Variant>
AV-unprocessed.smi:1263-1

> <Gold.Version>
5.8.1

> <Gold.Id.Protein>
6NUR|6NUR_protein|mol2

> <Gold.PLP.Fitness>
40.0789

> <Gold.PLP.PLP>
-34.0654

> <Gold.PLP.part.hbond>
-3.0887

> <Gold.PLP.part.metal>
0.0000

> <Gold.PLP.part.buried>
-4.9807

> <Gold.PLP.part.nonpolar>
-33.6336

> <Gold.PLP.part.repulsive>
6.4372

> <Gold.PLP.ligand.clash>
0.0000

> <Gold.PLP.ligand.torsion>
0.8199

> <Gold.PLP.Chemscore.Hbond>
2.0000

> <Gold.PLP.Chemscore.CHOScore>
0.1293

> <Gold.PLP.Chemscore.Metal>
0.0000

> <Gold.Chemscore.Hbonds>
donor molecule, donor type, donor heavy atom, donor atom, acceptor molecule, acceptor atom, score
      L1  H     9    28       P1 10175  1.00
      L1  H    12    29       P1 10175  1.00
      L1  C     5    25       P1  8028  0.11

> <Gold.PLP.Chemscore.Internal.Correction>
1.2653

> <Gold.Rescore>
     Score         DG    S(hbond)    S(metal)    S(lipo)     H(rot)  DE(clash)    DE(int)     intcor
     12.48     -18.36       1.95        0.00      85.70       1.43       2.44       3.44       ----

> <Gold.Chemscore.Fitness>
12.4814

> <Gold.Chemscore.DG>
-18.3638

> <Gold.Chemscore.ZeroCoef>
-5.4800

> <Gold.Chemscore.Hbond>
1.9528

> <Gold.Chemscore.Metal>
0.0000

> <Gold.Chemscore.Lipo>
85.7004

> <Gold.Chemscore.Internal_Hbond>
0.0000

> <Gold.Chemscore.DEClash>
2.4398

> <Gold.Chemscore.DEInternal>
3.4426

> <Gold.Chemscore.Rot>
1.4318

> <Gold.Chemscore.Internal.Correction>
   9.000000E+99

> <Gold.Chemscore.Hbonds>
donor molecule, donor type, donor heavy atom, donor atom, acceptor molecule, acceptor atom, score
      L1  H     9    28       P1 10175  0.99
      L1  H    12    29       P1 10175  0.98

> <Gold.Chemscore.Hbond.Weighted>
-6.5222

> <Gold.Chemscore.Metal.Weighted>
-0.0000

> <Gold.Chemscore.Lipo.Weighted>
-10.0269

> <Gold.Chemscore.Internal_Hbond.Weighted>
0.0000

> <Gold.Chemscore.DEClash.Weighted>
2.4398

> <Gold.Chemscore.DEInternal.Weighted>
3.4426

> <Gold.Chemscore.Rot.Weighted>
3.6653

> <Gold.Chemscore.Internal.Correction.Weighted>
   9.000000E+99

> <Gold.Protein.RotatedTorsions>
[ 6907 6896 6895 6894 ] final -138.18 input  -60.11 | X-H torsion
[ 7974 7965 7964 7962 ] final -171.00 input  175.53 | X-H torsion
[ 8008 7997 7996 7995 ] final  123.63 input   59.86 | X-H torsion
[ 10167 10162 10161 10158 ] final   23.84 input  -65.29 | X-H torsion
[ 10718 10713 10712 10709 ] final   62.33 input   66.30 | X-H torsion
[ 10763 10752 10751 10750 ] final -166.36 input  -60.55 | X-H torsion
[ 11005 11000 10999 10996 ] final  -41.83 input  -57.11 | X-H torsion

> <Gold.Protein.ActiveResidues>
 VAL166  LYS551  ARG553  GLY616  TRP617  ASP618  TYR619  PRO620  LYS621  CYS622 
 ASP623  PHE694  ASN695  SER759  ASP760  ASP761  ALA762  ILE779  LEU786  VAL792 
 PHE793  MET794  SER795  GLU796  ALA797  LYS798  CYS799  TRP800  GLU811  SER814 

> <Gold.Protein.RotatedAtoms>
  151.0317  133.5784  159.2659 H   0  0  0  0  0  0  0  0  0  0  0  0  # atno 6907 bound_to 6896
  151.2863  135.0728  159.9198 H   0  0  0  0  0  0  0  0  0  0  0  0  # atno 6908 bound_to 6896
  152.5346  134.0023  159.7954 H   0  0  0  0  0  0  0  0  0  0  0  0  # atno 6909 bound_to 6896
  144.7162  140.1988  143.6340 H   0  0  0  0  0  0  0  0  0  0  0  0  # atno 7974 bound_to 7965
  156.2773  140.2758  156.1658 H   0  0  0  0  0  0  0  0  0  0  0  0  # atno 8008 bound_to 7997
  155.0706  140.0387  157.2625 H   0  0  0  0  0  0  0  0  0  0  0  0  # atno 8009 bound_to 7997
  154.7043  140.2655  155.6695 H   0  0  0  0  0  0  0  0  0  0  0  0  # atno 8010 bound_to 7997
  140.5237  143.9960  150.6429 H   0  0  0  0  0  0  0  0  0  0  0  0  # atno 10167 bound_to 10162
  157.5893  130.9044  149.9574 H   0  0  0  0  0  0  0  0  0  0  0  0  # atno 10718 bound_to 10713
  154.6841  135.2959  154.9572 H   0  0  0  0  0  0  0  0  0  0  0  0  # atno 10763 bound_to 10752
  154.0557  135.6638  153.4809 H   0  0  0  0  0  0  0  0  0  0  0  0  # atno 10764 bound_to 10752
  153.0567  135.5140  154.7899 H   0  0  0  0  0  0  0  0  0  0  0  0  # atno 10765 bound_to 10752
  141.0273  133.6835  156.2511 H   0  0  0  0  0  0  0  0  0  0  0  0  # atno 11005 bound_to 11000
  145.8699  139.2266  143.1667 LP  0  0  0  0  0  0  0  0  0  0  0  0  # atno 17320 bound_to 7965
  146.0094  140.8449  142.9978 LP  0  0  0  0  0  0  0  0  0  0  0  0  # atno 17321 bound_to 7965
  140.3315  143.3074  152.0682 LP  0  0  0  0  0  0  0  0  0  0  0  0  # atno 17342 bound_to 10162
  139.4931  144.6505  151.6685 LP  0  0  0  0  0  0  0  0  0  0  0  0  # atno 17343 bound_to 10162
  156.0946  130.3660  150.0331 LP  0  0  0  0  0  0  0  0  0  0  0  0  # atno 17370 bound_to 10713
  156.8457  130.9441  151.3629 LP  0  0  0  0  0  0  0  0  0  0  0  0  # atno 17371 bound_to 10713
  140.6468  134.5109  157.5574 LP  0  0  0  0  0  0  0  0  0  0  0  0  # atno 17394 bound_to 11000
  139.9184  134.8198  156.1289 LP  0  0  0  0  0  0  0  0  0  0  0  0  # atno 17395 bound_to 11000

$$$$
