AV-unprocessed.smi:1791|AV-procd|sdf|7221|dock10
  -GOLD-   22720 8463D 1   1.00000     0.00000
 Structure written by MMmdl.
 38 39  0  0  0  0  0  0  0  0  1 V2000
  141.5916  134.6583  153.2886 C   0  0  0  0  0  0  0  0  0  0  0  0
  142.6624  134.4773  152.3683 O   0  0  0  0  0  0  0  0  0  0  0  0
  143.6688  135.4207  152.3410 C   0  0  0  0  0  0  0  0  0  0  0  0
  144.7725  135.2052  151.4919 C   0  0  0  0  0  0  0  0  0  0  0  0
  145.8037  136.1634  151.4578 C   0  0  0  0  0  0  0  0  0  0  0  0
  145.7003  137.3086  152.2830 C   0  0  0  0  0  0  0  0  0  0  0  0
  146.6592  138.3562  152.3206 N   0  0  0  0  0  0  0  0  0  0  0  0
  146.8566  139.2755  153.2806 C   0  0  0  0  0  0  0  0  0  0  0  0
  146.1785  139.3948  154.3008 O   0  0  0  0  0  0  0  0  0  0  0  0
  147.8861  140.0776  152.9729 N   0  0  0  0  0  0  0  0  0  0  0  0
  148.3807  141.1902  153.7824 C   0  0  1  0  0  0  0  0  0  0  0  0
  147.1797  141.9565  154.3554 C   0  0  0  0  0  0  0  0  0  0  0  0
  149.3125  140.6689  154.8946 C   0  0  1  0  0  0  0  0  0  0  0  0
  150.3702  139.6641  154.4361 C   0  0  0  0  0  0  0  0  0  0  0  0
  151.4499  139.7822  155.4991 C   0  0  0  0  0  0  0  0  0  0  0  0
  151.1652  141.1298  156.1698 C   0  0  0  0  0  0  0  0  0  0  0  0
  150.1167  141.7178  155.4109 O   0  0  0  0  0  0  0  0  0  0  0  0
  144.5486  137.4368  153.0864 C   0  0  0  0  0  0  0  0  0  0  0  0
  143.5578  136.5213  153.1254 N   0  0  0  0  0  0  0  0  0  0  0  0
  140.8808  133.8393  153.1804 H   0  0  0  0  0  0  0  0  0  0  0  0
  141.0541  135.5887  153.0998 H   0  0  0  0  0  0  0  0  0  0  0  0
  141.9480  134.6532  154.3198 H   0  0  0  0  0  0  0  0  0  0  0  0
  144.8252  134.3221  150.8722 H   0  0  0  0  0  0  0  0  0  0  0  0
  146.6386  136.0089  150.7922 H   0  0  0  0  0  0  0  0  0  0  0  0
  147.2376  138.4426  151.4979 H   0  0  0  0  0  0  0  0  0  0  0  0
  148.3732  139.9039  152.1060 H   0  0  0  0  0  0  0  0  0  0  0  0
  148.9452  141.8846  153.1575 H   0  0  0  0  0  0  0  0  0  0  0  0
  147.5054  142.8218  154.9333 H   0  0  0  0  0  0  0  0  0  0  0  0
  146.5802  141.3251  155.0120 H   0  0  0  0  0  0  0  0  0  0  0  0
  146.5303  142.3212  153.5591 H   0  0  0  0  0  0  0  0  0  0  0  0
  148.7271  140.2407  155.7110 H   0  0  0  0  0  0  0  0  0  0  0  0
  149.9799  138.6507  154.3387 H   0  0  0  0  0  0  0  0  0  0  0  0
  150.7766  139.9628  153.4687 H   0  0  0  0  0  0  0  0  0  0  0  0
  151.3751  138.9737  156.2273 H   0  0  0  0  0  0  0  0  0  0  0  0
  152.4463  139.7455  155.0575 H   0  0  0  0  0  0  0  0  0  0  0  0
  150.8273  140.9830  157.1964 H   0  0  0  0  0  0  0  0  0  0  0  0
  152.0401  141.7798  156.1898 H   0  0  0  0  0  0  0  0  0  0  0  0
  144.4171  138.3000  153.7225 H   0  0  0  0  0  0  0  0  0  0  0  0
  1  2  1  0  0  0  0
  1 20  1  0  0  0  0
  1 21  1  0  0  0  0
  1 22  1  0  0  0  0
  2  3  1  0  0  0  0
  3 19  1  0  0  0  0
  3  4  2  0  0  0  0
  4  5  1  0  0  0  0
  4 23  1  0  0  0  0
  5  6  2  0  0  0  0
  5 24  1  0  0  0  0
  6  7  1  0  0  0  0
  6 18  1  0  0  0  0
  7  8  1  0  0  0  0
  7 25  1  0  0  0  0
  8  9  2  0  0  0  0
  8 10  1  0  0  0  0
 10 11  1  0  0  0  0
 10 26  1  0  0  0  0
 11 12  1  0  0  0  0
 11 13  1  0  0  0  0
 11 27  1  0  0  0  0
 12 28  1  0  0  0  0
 12 29  1  0  0  0  0
 12 30  1  0  0  0  0
 13 17  1  0  0  0  0
 13 14  1  0  0  0  0
 13 31  1  0  0  0  0
 14 15  1  0  0  0  0
 14 32  1  0  0  0  0
 14 33  1  0  0  0  0
 15 16  1  0  0  0  0
 15 34  1  0  0  0  0
 15 35  1  0  0  0  0
 16 17  1  0  0  0  0
 16 36  1  0  0  0  0
 16 37  1  0  0  0  0
 18 19  2  0  0  0  0
 18 38  1  0  0  0  0
M  END
> <s_m_source_file>
AV-unprocessed.smi

> <i_m_source_file_index>
1791

> <i_lp_mmshare_version>
43012

> <i_f3d_flags>
0

> <s_epik_input>
W0NIM11PYzFbY0hdW2NIXWMoW2NIXW4xKVtOSF1DKD1PKVtOSF1bQ0BIXShbQ0gzXSlbQ0BASF0yW0NIMl1bQ0gyXVtDSDJdTzI=

> <s_epik_cmdline>
J2VwaWtfcHl0aG9uJywgJy1waCcsICc3LjAnLCAnLXRuJywgJzgnLCAnLW1hJywgJzIwMCcsICctbWV0YWxfYmluZGluZycsICctaW1hZScsICc8aW5maWxlLm1hZT4nLCAnLW9tYWUnLCAnPG91dGZpbGUubWFlPic=

> <r_lp_tautomer_probability>
1

> <r_epik_Ionization_Penalty>
9.18737e-05

> <r_epik_Ionization_Penalty_Charging>
0

> <r_epik_Ionization_Penalty_Neutral>
9.18737e-05

> <r_epik_State_Penalty>
-0

> <r_epik_Charging_Adjusted_Penalty>
0

> <i_epik_Tot_Q>
0

> <i_epik_Tot_abs_Q>
0

> <r_epik_Metal_State_Penalty>
-0

> <b_epik_Metal_Only>
0

> <s_lp_Force_Field>
OPLS_2005

> <r_lp_Energy>
20.4699

> <b_lp_Chiralities_Consistent>
1

> <s_lp_Variant>
AV-unprocessed.smi:1791-4

> <Gold.Version>
5.8.1

> <Gold.Id.Protein>
6NUR|6NUR_protein|mol2

> <Gold.PLP.Fitness>
38.1777

> <Gold.PLP.PLP>
-34.2521

> <Gold.PLP.part.hbond>
-1.8326

> <Gold.PLP.part.metal>
0.0000

> <Gold.PLP.part.buried>
-1.1378

> <Gold.PLP.part.nonpolar>
-31.4912

> <Gold.PLP.part.repulsive>
0.7528

> <Gold.PLP.ligand.clash>
0.0000

> <Gold.PLP.ligand.torsion>
0.6231

> <Gold.PLP.Chemscore.Hbond>
1.0000

> <Gold.PLP.Chemscore.CHOScore>
0.7165

> <Gold.PLP.Chemscore.Metal>
0.0000

> <Gold.Chemscore.Hbonds>
donor molecule, donor type, donor heavy atom, donor atom, acceptor molecule, acceptor atom, score
      L1  H    10    26       P1  7957  1.00
      L1  C    18    38       P1 10175  0.57

> <Gold.PLP.Chemscore.Internal.Correction>
0.0222

> <Gold.Rescore>
     Score         DG    S(hbond)    S(metal)    S(lipo)     H(rot)  DE(clash)    DE(int)     intcor
     10.08     -13.18       0.99        0.00      69.85       1.47       0.04       3.06       ----

> <Gold.Chemscore.Fitness>
10.0824

> <Gold.Chemscore.DG>
-13.1840

> <Gold.Chemscore.ZeroCoef>
-5.4800

> <Gold.Chemscore.Hbond>
0.9860

> <Gold.Chemscore.Metal>
0.0000

> <Gold.Chemscore.Lipo>
69.8456

> <Gold.Chemscore.Internal_Hbond>
0.0000

> <Gold.Chemscore.DEClash>
0.0430

> <Gold.Chemscore.DEInternal>
3.0586

> <Gold.Chemscore.Rot>
1.4693

> <Gold.Chemscore.Internal.Correction>
   9.000000E+99

> <Gold.Chemscore.Hbonds>
donor molecule, donor type, donor heavy atom, donor atom, acceptor molecule, acceptor atom, score
      L1  H    10    26       P1  7957  0.92

> <Gold.Chemscore.Hbond.Weighted>
-3.2933

> <Gold.Chemscore.Metal.Weighted>
-0.0000

> <Gold.Chemscore.Lipo.Weighted>
-8.1719

> <Gold.Chemscore.Internal_Hbond.Weighted>
0.0000

> <Gold.Chemscore.DEClash.Weighted>
0.0430

> <Gold.Chemscore.DEInternal.Weighted>
3.0586

> <Gold.Chemscore.Rot.Weighted>
3.7613

> <Gold.Chemscore.Internal.Correction.Weighted>
   9.000000E+99

> <Gold.Protein.RotatedTorsions>
[ 6907 6896 6895 6894 ] final  -11.18 input  -60.11 | X-H torsion
[ 7974 7965 7964 7962 ] final  145.29 input  175.53 | X-H torsion
[ 8008 7997 7996 7995 ] final -173.89 input   59.86 | X-H torsion
[ 10167 10162 10161 10158 ] final   64.74 input  -65.29 | X-H torsion
[ 10718 10713 10712 10709 ] final   -1.66 input   66.30 | X-H torsion
[ 10763 10752 10751 10750 ] final  105.66 input  -60.55 | X-H torsion
[ 11005 11000 10999 10996 ] final   31.71 input  -57.11 | X-H torsion

> <Gold.Protein.ActiveResidues>
 VAL166  LYS551  ARG553  GLY616  TRP617  ASP618  TYR619  PRO620  LYS621  CYS622 
 ASP623  PHE694  ASN695  SER759  ASP760  ASP761  ALA762  ILE779  LEU786  VAL792 
 PHE793  MET794  SER795  GLU796  ALA797  LYS798  CYS799  TRP800  GLU811  SER814 

> <Gold.Protein.RotatedAtoms>
  151.3902  135.0955  159.9523 H   0  0  0  0  0  0  0  0  0  0  0  0  # atno 6907 bound_to 6896
  152.5082  133.8987  159.7440 H   0  0  0  0  0  0  0  0  0  0  0  0  # atno 6908 bound_to 6896
  150.9439  133.6570  159.2814 H   0  0  0  0  0  0  0  0  0  0  0  0  # atno 6909 bound_to 6896
  144.8765  139.5765  143.5863 H   0  0  0  0  0  0  0  0  0  0  0  0  # atno 7974 bound_to 7965
  155.9631  140.1148  157.0878 H   0  0  0  0  0  0  0  0  0  0  0  0  # atno 8008 bound_to 7997
  154.4137  140.1178  156.5273 H   0  0  0  0  0  0  0  0  0  0  0  0  # atno 8009 bound_to 7997
  155.6694  140.3473  155.4815 H   0  0  0  0  0  0  0  0  0  0  0  0  # atno 8010 bound_to 7997
  140.1188  144.4750  150.6933 H   0  0  0  0  0  0  0  0  0  0  0  0  # atno 10167 bound_to 10162
  156.8024  130.5397  149.5720 H   0  0  0  0  0  0  0  0  0  0  0  0  # atno 10718 bound_to 10713
  153.3823  135.3903  155.1865 H   0  0  0  0  0  0  0  0  0  0  0  0  # atno 10763 bound_to 10752
  154.8709  135.3728  154.4841 H   0  0  0  0  0  0  0  0  0  0  0  0  # atno 10764 bound_to 10752
  153.5319  135.7085  153.5740 H   0  0  0  0  0  0  0  0  0  0  0  0  # atno 10765 bound_to 10752
  140.2810  134.2973  155.7801 H   0  0  0  0  0  0  0  0  0  0  0  0  # atno 11005 bound_to 11000
  146.2966  139.7296  142.9122 LP  0  0  0  0  0  0  0  0  0  0  0  0  # atno 17320 bound_to 7965
  145.4033  141.0388  143.3058 LP  0  0  0  0  0  0  0  0  0  0  0  0  # atno 17321 bound_to 7965
  140.6884  143.2362  151.5199 LP  0  0  0  0  0  0  0  0  0  0  0  0  # atno 17342 bound_to 10162
  139.5579  144.2228  152.1644 LP  0  0  0  0  0  0  0  0  0  0  0  0  # atno 17343 bound_to 10162
  156.1093  130.6028  151.0022 LP  0  0  0  0  0  0  0  0  0  0  0  0  # atno 17370 bound_to 10713
  157.6547  131.0891  150.7973 LP  0  0  0  0  0  0  0  0  0  0  0  0  # atno 17371 bound_to 10713
  141.2162  133.7525  156.9480 LP  0  0  0  0  0  0  0  0  0  0  0  0  # atno 17394 bound_to 11000
  140.1283  134.9372  157.2302 LP  0  0  0  0  0  0  0  0  0  0  0  0  # atno 17395 bound_to 11000

$$$$
