AV-unprocessed.smi:1540|AV-procd|sdf|6199|dock1
  -GOLD-   22720 6363D 1   1.00000     0.00000
 Structure written by MMmdl.
 33 33  0  0  0  0  0  0  0  0  1 V2000
  147.1224  136.1727  160.8234 C   0  0  0  0  0  0  0  0  0  0  0  0
  148.2636  136.0378  160.1313 C   0  0  0  0  0  0  0  0  0  0  0  0
  148.3453  135.9324  158.6246 C   0  0  0  0  0  0  0  0  0  0  0  0
  149.6921  135.7197  158.2186 O   0  0  0  0  0  0  0  0  0  0  0  0
  150.1808  136.6101  157.2180 C   0  0  1  0  0  0  0  0  0  0  0  0
  149.1776  136.5961  156.0547 C   0  0  0  0  0  0  0  0  0  0  0  0
  150.3544  138.0251  157.7949 C   0  0  0  0  0  0  0  0  0  0  0  0
  150.2815  138.1972  159.0114 O   0  0  0  0  0  0  0  0  0  0  0  0
  150.6154  138.9886  156.8894 N   0  0  0  0  0  0  0  0  0  0  0  0
  150.8224  140.3643  157.0841 C   0  0  0  0  0  0  0  0  0  0  0  0
  151.2388  140.9310  158.2467 C   0  0  0  0  0  0  0  0  0  0  0  0
  151.4187  142.3669  158.3838 C   0  0  0  0  0  0  0  0  0  0  0  0
  151.9624  142.9819  159.6641 C   0  0  0  0  0  0  0  0  0  0  0  0
  152.1836  142.0509  160.5932 F   0  0  0  0  0  0  0  0  0  0  0  0
  153.1151  143.6012  159.4144 F   0  0  0  0  0  0  0  0  0  0  0  0
  151.1105  143.8775  160.1634 F   0  0  0  0  0  0  0  0  0  0  0  0
  151.1577  143.1112  157.2933 C   0  0  0  0  0  0  0  0  0  0  0  0
  150.7079  142.5385  156.1014 N   0  0  0  0  0  0  0  0  0  0  0  0
  150.5198  141.2122  155.9193 C   0  0  0  0  0  0  0  0  0  0  0  0
  150.1214  140.7841  154.8365 O   0  0  0  0  0  0  0  0  0  0  0  0
  150.5173  143.1662  155.3337 H   0  0  0  0  0  0  0  0  0  0  0  0
  146.1647  136.2146  160.3252 H   0  0  0  0  0  0  0  0  0  0  0  0
  147.1322  136.2425  161.9012 H   0  0  0  0  0  0  0  0  0  0  0  0
  149.2027  135.9988  160.6637 H   0  0  0  0  0  0  0  0  0  0  0  0
  147.6988  135.1230  158.2824 H   0  0  0  0  0  0  0  0  0  0  0  0
  147.9661  136.8608  158.1956 H   0  0  0  0  0  0  0  0  0  0  0  0
  151.1385  136.2423  156.8442 H   0  0  0  0  0  0  0  0  0  0  0  0
  149.4795  137.2816  155.2619 H   0  0  0  0  0  0  0  0  0  0  0  0
  148.1774  136.8813  156.3833 H   0  0  0  0  0  0  0  0  0  0  0  0
  149.1074  135.5996  155.6183 H   0  0  0  0  0  0  0  0  0  0  0  0
  150.7207  138.6813  155.9331 H   0  0  0  0  0  0  0  0  0  0  0  0
  151.4290  140.3301  159.1207 H   0  0  0  0  0  0  0  0  0  0  0  0
  151.2754  144.1839  157.2461 H   0  0  0  0  0  0  0  0  0  0  0  0
  1  2  2  0  0  0  0
  1 22  1  0  0  0  0
  1 23  1  0  0  0  0
  2  3  1  0  0  0  0
  2 24  1  0  0  0  0
  3  4  1  0  0  0  0
  3 25  1  0  0  0  0
  3 26  1  0  0  0  0
  4  5  1  0  0  0  0
  5  6  1  0  0  0  0
  5  7  1  0  0  0  0
  5 27  1  0  0  0  0
  6 28  1  0  0  0  0
  6 29  1  0  0  0  0
  6 30  1  0  0  0  0
  7  8  2  0  0  0  0
  7  9  1  0  0  0  0
  9 10  1  0  0  0  0
  9 31  1  0  0  0  0
 10 19  1  0  0  0  0
 10 11  2  0  0  0  0
 11 12  1  0  0  0  0
 11 32  1  0  0  0  0
 12 13  1  0  0  0  0
 12 17  2  0  0  0  0
 13 14  1  0  0  0  0
 13 15  1  0  0  0  0
 13 16  1  0  0  0  0
 17 18  1  0  0  0  0
 17 33  1  0  0  0  0
 18 21  1  0  0  0  0
 18 19  1  0  0  0  0
 19 20  2  0  0  0  0
M  END
> <s_m_source_file>
AV-unprocessed.smi

> <i_m_source_file_index>
1540

> <i_lp_mmshare_version>
43012

> <i_f3d_flags>
0

> <s_epik_input>
W0NIMl09W0NIXVtDSDJdT1tDQEhdKFtDSDNdKUMoPU8pW05IXWMxW2NIXWMoQyhGKShGKUYpW2NIXVtuSF1jMT1P

> <s_epik_cmdline>
J2VwaWtfcHl0aG9uJywgJy1waCcsICc3LjAnLCAnLXRuJywgJzgnLCAnLW1hJywgJzIwMCcsICctbWV0YWxfYmluZGluZycsICctaW1hZScsICc8aW5maWxlLm1hZT4nLCAnLW9tYWUnLCAnPG91dGZpbGUubWFlPic=

> <r_lp_tautomer_probability>
0.999

> <r_epik_Ionization_Penalty>
0.0086731

> <r_epik_Ionization_Penalty_Charging>
0.00867296

> <r_epik_Ionization_Penalty_Neutral>
1.3954e-07

> <r_epik_State_Penalty>
0.00654787

> <r_epik_Charging_Adjusted_Penalty>
0.0152208

> <i_epik_Tot_Q>
0

> <i_epik_Tot_abs_Q>
0

> <r_epik_Metal_State_Penalty>
0.320056

> <b_epik_Metal_Only>
0

> <s_lp_Force_Field>
OPLS_2005

> <r_lp_Energy>
18.3286

> <b_lp_Chiralities_Consistent>
1

> <s_lp_Variant>
AV-unprocessed.smi:1540-2

> <Gold.Version>
5.8.1

> <Gold.Id.Protein>
6NUR|6NUR_protein|mol2

> <Gold.PLP.Fitness>
39.8450

> <Gold.PLP.PLP>
-35.6496

> <Gold.PLP.part.hbond>
-3.8003

> <Gold.PLP.part.metal>
0.0000

> <Gold.PLP.part.buried>
-4.3396

> <Gold.PLP.part.nonpolar>
-26.7800

> <Gold.PLP.part.repulsive>
0.2311

> <Gold.PLP.ligand.clash>
0.0000

> <Gold.PLP.ligand.torsion>
0.7464

> <Gold.PLP.Chemscore.Hbond>
1.7987

> <Gold.PLP.Chemscore.CHOScore>
0.0264

> <Gold.PLP.Chemscore.Metal>
0.0000

> <Gold.Chemscore.Hbonds>
donor molecule, donor type, donor heavy atom, donor atom, acceptor molecule, acceptor atom, score
      L1  H    18    21       P1  8028  0.14
      P1  H  6896  6907       L1     4  0.98
      P1  H  7989  7998       L1    20  0.80
      L1  C    17    33       P1  8028  0.04

> <Gold.PLP.Chemscore.Internal.Correction>
0.2128

> <Gold.Rescore>
     Score         DG    S(hbond)    S(metal)    S(lipo)     H(rot)  DE(clash)    DE(int)     intcor
     11.69     -14.39       1.77        0.00      65.11       1.81       0.04       2.66       ----

> <Gold.Chemscore.Fitness>
11.6886

> <Gold.Chemscore.DG>
-14.3913

> <Gold.Chemscore.ZeroCoef>
-5.4800

> <Gold.Chemscore.Hbond>
1.7734

> <Gold.Chemscore.Metal>
0.0000

> <Gold.Chemscore.Lipo>
65.1087

> <Gold.Chemscore.Internal_Hbond>
0.0000

> <Gold.Chemscore.DEClash>
0.0426

> <Gold.Chemscore.DEInternal>
2.6601

> <Gold.Chemscore.Rot>
1.8084

> <Gold.Chemscore.Internal.Correction>
   9.000000E+99

> <Gold.Chemscore.Hbonds>
donor molecule, donor type, donor heavy atom, donor atom, acceptor molecule, acceptor atom, score
      L1  H    18    21       P1  8028  0.15
      P1  H  6896  6907       L1     4  0.74
      P1  H  7989  7998       L1    20  0.53

> <Gold.Chemscore.Hbond.Weighted>
-5.9231

> <Gold.Chemscore.Metal.Weighted>
-0.0000

> <Gold.Chemscore.Lipo.Weighted>
-7.6177

> <Gold.Chemscore.Internal_Hbond.Weighted>
0.0000

> <Gold.Chemscore.DEClash.Weighted>
0.0426

> <Gold.Chemscore.DEInternal.Weighted>
2.6601

> <Gold.Chemscore.Rot.Weighted>
4.6296

> <Gold.Chemscore.Internal.Correction.Weighted>
   9.000000E+99

> <Gold.Protein.RotatedTorsions>
[ 6907 6896 6895 6894 ] final  -52.18 input  -60.11 | X-H torsion
[ 7974 7965 7964 7962 ] final -168.15 input  175.53 | X-H torsion
[ 8008 7997 7996 7995 ] final -119.78 input   59.86 | X-H torsion
[ 10167 10162 10161 10158 ] final  149.05 input  -65.29 | X-H torsion
[ 10718 10713 10712 10709 ] final  -46.05 input   66.30 | X-H torsion
[ 10763 10752 10751 10750 ] final  -93.42 input  -60.55 | X-H torsion
[ 11005 11000 10999 10996 ] final   38.93 input  -57.11 | X-H torsion

> <Gold.Protein.ActiveResidues>
 VAL166  LYS551  ARG553  GLY616  TRP617  ASP618  TYR619  PRO620  LYS621  CYS622 
 ASP623  PHE694  ASN695  SER759  ASP760  ASP761  ALA762  ILE779  LEU786  VAL792 
 PHE793  MET794  SER795  GLU796  ALA797  LYS798  CYS799  TRP800  GLU811  SER814 

> <Gold.Protein.RotatedAtoms>
  150.8542  134.7876  159.7032 H   0  0  0  0  0  0  0  0  0  0  0  0  # atno 6907 bound_to 6896
  152.4598  134.5206  159.9791 H   0  0  0  0  0  0  0  0  0  0  0  0  # atno 6908 bound_to 6896
  151.5321  133.3409  159.2956 H   0  0  0  0  0  0  0  0  0  0  0  0  # atno 6909 bound_to 6896
  144.7209  140.2413  143.6291 H   0  0  0  0  0  0  0  0  0  0  0  0  # atno 7974 bound_to 7965
  155.1212  140.0398  157.2750 H   0  0  0  0  0  0  0  0  0  0  0  0  # atno 8008 bound_to 7997
  154.6612  140.2591  155.7081 H   0  0  0  0  0  0  0  0  0  0  0  0  # atno 8009 bound_to 7997
  156.2620  140.2816  156.1085 H   0  0  0  0  0  0  0  0  0  0  0  0  # atno 8010 bound_to 7997
  139.4866  144.5632  151.7193 H   0  0  0  0  0  0  0  0  0  0  0  0  # atno 10167 bound_to 10162
  156.2222  130.4167  149.8978 H   0  0  0  0  0  0  0  0  0  0  0  0  # atno 10718 bound_to 10713
  154.6957  135.5195  153.8455 H   0  0  0  0  0  0  0  0  0  0  0  0  # atno 10763 bound_to 10752
  153.0665  135.6587  154.0352 H   0  0  0  0  0  0  0  0  0  0  0  0  # atno 10764 bound_to 10752
  154.0219  135.2993  155.3359 H   0  0  0  0  0  0  0  0  0  0  0  0  # atno 10765 bound_to 10752
  140.2078  134.3792  155.8064 H   0  0  0  0  0  0  0  0  0  0  0  0  # atno 11005 bound_to 11000
  145.8317  139.2089  143.1879 LP  0  0  0  0  0  0  0  0  0  0  0  0  # atno 17320 bound_to 7965
  146.0425  140.8151  142.9821 LP  0  0  0  0  0  0  0  0  0  0  0  0  # atno 17321 bound_to 7965
  140.5205  144.0886  150.6021 LP  0  0  0  0  0  0  0  0  0  0  0  0  # atno 17342 bound_to 10162
  140.3842  143.2786  152.0135 LP  0  0  0  0  0  0  0  0  0  0  0  0  # atno 17343 bound_to 10162
  156.6621  130.8786  151.3549 LP  0  0  0  0  0  0  0  0  0  0  0  0  # atno 17370 bound_to 10713
  157.7093  130.9421  150.1035 LP  0  0  0  0  0  0  0  0  0  0  0  0  # atno 17371 bound_to 10713
  141.2227  133.7127  156.8366 LP  0  0  0  0  0  0  0  0  0  0  0  0  # atno 17394 bound_to 11000
  140.1984  134.8915  157.3141 LP  0  0  0  0  0  0  0  0  0  0  0  0  # atno 17395 bound_to 11000

$$$$
