AV-unprocessed.smi:2137|AV-procd|sdf|8706|dock6
  -GOLD-   2272011463D 1   1.00000     0.00000
 Structure written by MMmdl.
 50 51  0  0  0  0  0  0  0  0  2 V2000
  144.5637  133.1626  149.8606 C   0  0  0  0  0  0  0  0  0  0  0  0
  145.6339  132.2806  150.5185 C   0  0  2  0  0  0  0  0  0  0  0  0
  145.0000  131.1225  151.3071 C   0  0  0  0  0  0  0  0  0  0  0  0
  146.0897  130.2753  151.9756 C   0  0  0  0  0  0  0  0  0  0  0  0
  147.0062  131.1465  152.8494 C   0  0  0  0  0  0  0  0  0  0  0  0
  147.6069  132.2524  152.0596 N   0  3  2  0  0  0  0  0  0  0  0  0
  148.6006  133.0270  152.8449 C   0  0  0  0  0  0  0  0  0  0  0  0
  147.9400  133.9205  153.9123 C   0  0  0  0  0  0  0  0  0  0  0  0
  148.9536  134.6063  154.8458 C   0  0  0  0  0  0  0  0  0  0  0  0
  149.2597  135.9695  154.4269 N   0  0  0  0  0  0  0  0  0  0  0  0
  149.2156  137.0519  155.2190 C   0  0  0  0  0  0  0  0  0  0  0  0
  148.9191  137.0060  156.4124 O   0  0  0  0  0  0  0  0  0  0  0  0
  149.5623  138.3941  154.5675 C   0  0  0  0  0  0  0  0  0  0  0  0
  149.3923  139.5132  155.5025 N   0  0  0  0  0  0  0  0  0  0  0  0
  148.1537  139.7358  156.0768 C   0  0  0  0  0  0  0  0  0  0  0  0
  147.9025  140.7429  156.9412 C   0  0  0  0  0  0  0  0  0  0  0  0
  148.9529  141.6782  157.3233 C   0  0  0  0  0  0  0  0  0  0  0  0
  148.7796  142.6056  158.1153 O   0  0  0  0  0  0  0  0  0  0  0  0
  150.2061  141.4367  156.7153 N   0  0  0  0  0  0  0  0  0  0  0  0
  151.2824  142.3389  157.0694 C   0  0  0  0  0  0  0  0  0  0  0  0
  150.4672  140.3730  155.8201 C   0  0  0  0  0  0  0  0  0  0  0  0
  151.5814  140.1853  155.3255 O   0  0  0  0  0  0  0  0  0  0  0  0
  146.5610  133.1059  151.4336 C   0  0  0  0  0  0  0  0  0  0  0  0
  143.9145  133.6221  150.6066 H   0  0  0  0  0  0  0  0  0  0  0  0
  143.9355  132.5801  149.1863 H   0  0  0  0  0  0  0  0  0  0  0  0
  145.0184  133.9635  149.2767 H   0  0  0  0  0  0  0  0  0  0  0  0
  146.2425  131.8528  149.7202 H   0  0  0  0  0  0  0  0  0  0  0  0
  144.3226  131.5152  152.0670 H   0  0  0  0  0  0  0  0  0  0  0  0
  144.3981  130.4979  150.6458 H   0  0  0  0  0  0  0  0  0  0  0  0
  145.6327  129.4913  152.5804 H   0  0  0  0  0  0  0  0  0  0  0  0
  146.6825  129.7705  151.2114 H   0  0  0  0  0  0  0  0  0  0  0  0
  146.4460  131.5596  153.6900 H   0  0  0  0  0  0  0  0  0  0  0  0
  147.7949  130.5211  153.2698 H   0  0  0  0  0  0  0  0  0  0  0  0
  149.3261  132.3461  153.2927 H   0  0  0  0  0  0  0  0  0  0  0  0
  149.1630  133.6748  152.1709 H   0  0  0  0  0  0  0  0  0  0  0  0
  147.3486  134.6911  153.4164 H   0  0  0  0  0  0  0  0  0  0  0  0
  147.2386  133.3444  154.5151 H   0  0  0  0  0  0  0  0  0  0  0  0
  148.5576  134.6441  155.8610 H   0  0  0  0  0  0  0  0  0  0  0  0
  149.8724  134.0197  154.8985 H   0  0  0  0  0  0  0  0  0  0  0  0
  149.5016  136.1070  153.4557 H   0  0  0  0  0  0  0  0  0  0  0  0
  150.5965  138.3620  154.2206 H   0  0  0  0  0  0  0  0  0  0  0  0
  148.9609  138.5315  153.6672 H   0  0  0  0  0  0  0  0  0  0  0  0
  147.3417  139.0703  155.8216 H   0  0  0  0  0  0  0  0  0  0  0  0
  146.9113  140.8585  157.3550 H   0  0  0  0  0  0  0  0  0  0  0  0
  152.1418  142.2035  156.4131 H   0  0  0  0  0  0  0  0  0  0  0  0
  151.5505  142.1230  158.1048 H   0  0  0  0  0  0  0  0  0  0  0  0
  150.9139  143.3602  156.9567 H   0  0  0  0  0  0  0  0  0  0  0  0
  147.0260  133.8955  150.8443 H   0  0  0  0  0  0  0  0  0  0  0  0
  145.9794  133.5991  152.2146 H   0  0  0  0  0  0  0  0  0  0  0  0
  148.1177  131.8131  151.3072 H   0  0  0  0  0  0  0  0  0  0  0  0
  1  2  1  0  0  0  0
  1 24  1  0  0  0  0
  1 25  1  0  0  0  0
  1 26  1  0  0  0  0
  2 23  1  0  0  0  0
  2  3  1  0  0  0  0
  2 27  1  0  0  0  0
  3  4  1  0  0  0  0
  3 28  1  0  0  0  0
  3 29  1  0  0  0  0
  4  5  1  0  0  0  0
  4 30  1  0  0  0  0
  4 31  1  0  0  0  0
  5  6  1  0  0  0  0
  5 32  1  0  0  0  0
  5 33  1  0  0  0  0
  6  7  1  0  0  0  0
  6 23  1  0  0  0  0
  6 50  1  0  0  0  0
  7  8  1  0  0  0  0
  7 34  1  0  0  0  0
  7 35  1  0  0  0  0
  8  9  1  0  0  0  0
  8 36  1  0  0  0  0
  8 37  1  0  0  0  0
  9 10  1  0  0  0  0
  9 38  1  0  0  0  0
  9 39  1  0  0  0  0
 10 11  1  0  0  0  0
 10 40  1  0  0  0  0
 11 12  2  0  0  0  0
 11 13  1  0  0  0  0
 13 14  1  0  0  0  0
 13 41  1  0  0  0  0
 13 42  1  0  0  0  0
 14 21  1  0  0  0  0
 14 15  1  0  0  0  0
 15 16  2  0  0  0  0
 15 43  1  0  0  0  0
 16 17  1  0  0  0  0
 16 44  1  0  0  0  0
 17 18  2  0  0  0  0
 17 19  1  0  0  0  0
 19 20  1  0  0  0  0
 19 21  1  0  0  0  0
 20 45  1  0  0  0  0
 20 46  1  0  0  0  0
 20 47  1  0  0  0  0
 21 22  2  0  0  0  0
 23 48  1  0  0  0  0
 23 49  1  0  0  0  0
M  CHG  1   6   1
M  END
> <s_m_source_file>
AV-unprocessed.smi

> <i_m_source_file_index>
2137

> <i_lp_mmshare_version>
43012

> <i_f3d_flags>
0

> <s_epik_input>
W0NIM11bQ0BASF0xW0NIMl1bQ0gyXVtDSDJdTihbQ0gyXTEpW0NIMl1bQ0gyXVtDSDJdW05IXUMoPU8pW0NIMl1uMltjSF1bY0hdYyg9TyluKFtDSDNdKWMyPU8=

> <s_epik_cmdline>
J2VwaWtfcHl0aG9uJywgJy1waCcsICc3LjAnLCAnLXRuJywgJzgnLCAnLW1hJywgJzIwMCcsICctbWV0YWxfYmluZGluZycsICctaW1hZScsICc8aW5maWxlLm1hZT4nLCAnLW9tYWUnLCAnPG91dGZpbGUubWFlPic=

> <r_lp_tautomer_probability>
1

> <r_epik_Ionization_Penalty>
0.000384839

> <r_epik_Ionization_Penalty_Charging>
0.000384812

> <r_epik_Ionization_Penalty_Neutral>
2.6907e-08

> <r_epik_State_Penalty>
0.000235226

> <r_epik_Charging_Adjusted_Penalty>
0.000620038

> <i_epik_Tot_Q>
1

> <i_epik_Tot_abs_Q>
1

> <r_epik_Metal_State_Penalty>
-0

> <b_epik_Metal_Only>
0

> <s_lp_Force_Field>
OPLS_2005

> <r_lp_Energy>
29.3938

> <b_lp_Chiralities_Consistent>
1

> <s_lp_Variant>
AV-unprocessed.smi:2137-1

> <Gold.Version>
5.8.1

> <Gold.Id.Protein>
6NUR|6NUR_protein|mol2

> <Gold.PLP.Fitness>
45.7311

> <Gold.PLP.PLP>
-37.4364

> <Gold.PLP.part.hbond>
-3.0000

> <Gold.PLP.part.metal>
0.0000

> <Gold.PLP.part.buried>
-6.5649

> <Gold.PLP.part.nonpolar>
-28.2478

> <Gold.PLP.part.repulsive>
0.3001

> <Gold.PLP.ligand.clash>
0.0000

> <Gold.PLP.ligand.torsion>
0.3694

> <Gold.PLP.Chemscore.Hbond>
2.9920

> <Gold.PLP.Chemscore.CHOScore>
0.0000

> <Gold.PLP.Chemscore.Metal>
0.0000

> <Gold.Chemscore.Hbonds>
donor molecule, donor type, donor heavy atom, donor atom, acceptor molecule, acceptor atom, score
      L1  H     6    50       P1 10747  1.00
      L1  H    10    40       P1  7948  0.98
      P1  H  7989  7998       L1    22  0.94

> <Gold.PLP.Chemscore.Internal.Correction>
0.0574

> <Gold.Rescore>
     Score         DG    S(hbond)    S(metal)    S(lipo)     H(rot)  DE(clash)    DE(int)     intcor
     16.11     -17.86       2.50        0.00      84.30       2.27       0.03       1.73       ----

> <Gold.Chemscore.Fitness>
16.1064

> <Gold.Chemscore.DG>
-17.8576

> <Gold.Chemscore.ZeroCoef>
-5.4800

> <Gold.Chemscore.Hbond>
2.4964

> <Gold.Chemscore.Metal>
0.0000

> <Gold.Chemscore.Lipo>
84.3001

> <Gold.Chemscore.Internal_Hbond>
0.0000

> <Gold.Chemscore.DEClash>
0.0258

> <Gold.Chemscore.DEInternal>
1.7254

> <Gold.Chemscore.Rot>
2.2748

> <Gold.Chemscore.Internal.Correction>
   9.000000E+99

> <Gold.Chemscore.Hbonds>
donor molecule, donor type, donor heavy atom, donor atom, acceptor molecule, acceptor atom, score
      L1  H     6    50       P1 10747  1.00
      L1  H    10    40       P1  7948  0.42
      P1  H  7989  7998       L1    22  0.71

> <Gold.Chemscore.Hbond.Weighted>
-8.3378

> <Gold.Chemscore.Metal.Weighted>
-0.0000

> <Gold.Chemscore.Lipo.Weighted>
-9.8631

> <Gold.Chemscore.Internal_Hbond.Weighted>
0.0000

> <Gold.Chemscore.DEClash.Weighted>
0.0258

> <Gold.Chemscore.DEInternal.Weighted>
1.7254

> <Gold.Chemscore.Rot.Weighted>
5.8234

> <Gold.Chemscore.Internal.Correction.Weighted>
   9.000000E+99

> <Gold.Protein.RotatedTorsions>
[ 6907 6896 6895 6894 ] final  129.04 input  -60.11 | X-H torsion
[ 7974 7965 7964 7962 ] final  118.21 input  175.53 | X-H torsion
[ 8008 7997 7996 7995 ] final    0.92 input   59.86 | X-H torsion
[ 10167 10162 10161 10158 ] final   98.73 input  -65.29 | X-H torsion
[ 10718 10713 10712 10709 ] final   50.04 input   66.30 | X-H torsion
[ 10763 10752 10751 10750 ] final  -28.73 input  -60.55 | X-H torsion
[ 11005 11000 10999 10996 ] final  -72.68 input  -57.11 | X-H torsion

> <Gold.Protein.ActiveResidues>
 VAL166  LYS551  ARG553  GLY616  TRP617  ASP618  TYR619  PRO620  LYS621  CYS622 
 ASP623  PHE694  ASN695  SER759  ASP760  ASP761  ALA762  ILE779  LEU786  VAL792 
 PHE793  MET794  SER795  GLU796  ALA797  LYS798  CYS799  TRP800  GLU811  SER814 

> <Gold.Protein.RotatedAtoms>
  152.3662  133.6360  159.6051 H   0  0  0  0  0  0  0  0  0  0  0  0  # atno 6907 bound_to 6896
  150.7636  133.9344  159.3445 H   0  0  0  0  0  0  0  0  0  0  0  0  # atno 6908 bound_to 6896
  151.7174  135.0902  160.0329 H   0  0  0  0  0  0  0  0  0  0  0  0  # atno 6909 bound_to 6896
  145.1580  139.3171  143.4532 H   0  0  0  0  0  0  0  0  0  0  0  0  # atno 7974 bound_to 7965
  154.6737  140.2617  155.6980 H   0  0  0  0  0  0  0  0  0  0  0  0  # atno 8008 bound_to 7997
  156.2669  140.2824  156.1178 H   0  0  0  0  0  0  0  0  0  0  0  0  # atno 8009 bound_to 7997
  155.1131  140.0376  157.2719 H   0  0  0  0  0  0  0  0  0  0  0  0  # atno 8010 bound_to 7997
  139.7682  144.6931  151.0194 H   0  0  0  0  0  0  0  0  0  0  0  0  # atno 10167 bound_to 10162
  157.4846  130.8337  149.8132 H   0  0  0  0  0  0  0  0  0  0  0  0  # atno 10718 bound_to 10713
  153.7531  135.6924  153.4941 H   0  0  0  0  0  0  0  0  0  0  0  0  # atno 10763 bound_to 10752
  153.1990  135.4443  155.0242 H   0  0  0  0  0  0  0  0  0  0  0  0  # atno 10764 bound_to 10752
  154.8180  135.3408  154.7050 H   0  0  0  0  0  0  0  0  0  0  0  0  # atno 10765 bound_to 10752
  141.1612  133.6854  156.7096 H   0  0  0  0  0  0  0  0  0  0  0  0  # atno 11005 bound_to 11000
  146.3486  140.1680  142.8590 LP  0  0  0  0  0  0  0  0  0  0  0  0  # atno 17320 bound_to 7965
  145.0361  140.8909  143.5080 LP  0  0  0  0  0  0  0  0  0  0  0  0  # atno 17321 bound_to 7965
  140.7812  143.4619  151.0266 LP  0  0  0  0  0  0  0  0  0  0  0  0  # atno 17342 bound_to 10162
  139.8303  143.7700  152.3179 LP  0  0  0  0  0  0  0  0  0  0  0  0  # atno 17343 bound_to 10162
  156.0140  130.3821  150.2171 LP  0  0  0  0  0  0  0  0  0  0  0  0  # atno 17370 bound_to 10713
  157.0359  131.0021  151.3298 LP  0  0  0  0  0  0  0  0  0  0  0  0  # atno 17371 bound_to 10713
  140.2897  134.8250  157.4006 LP  0  0  0  0  0  0  0  0  0  0  0  0  # atno 17394 bound_to 11000
  140.1357  134.5036  155.8070 LP  0  0  0  0  0  0  0  0  0  0  0  0  # atno 17395 bound_to 11000

$$$$
