AV-unprocessed.smi:3314|AV-procd|sdf|12735|dock1
  -GOLD-   2272019 83D 1   1.00000     0.00000
 Structure written by MMmdl.
 37 38  0  0  0  0  0  0  0  0  1 V2000
  151.8595  145.5181  159.7633 C   0  0  0  0  0  0  0  0  0  0  0  0
  152.1185  144.0525  159.4838 C   0  0  0  0  0  0  0  0  0  0  0  0
  153.0001  143.3076  160.2904 C   0  0  0  0  0  0  0  0  0  0  0  0
  153.1966  141.9479  159.9800 C   0  0  0  0  0  0  0  0  0  0  0  0
  154.1297  141.0866  160.8045 C   0  0  0  0  0  0  0  0  0  0  0  0
  152.5798  141.3307  158.9499 N   0  0  0  0  0  0  0  0  0  0  0  0
  151.7283  142.0376  158.1664 C   0  0  0  0  0  0  0  0  0  0  0  0
  151.0302  141.4821  157.0618 N   0  0  0  0  0  0  0  0  0  0  0  0
  151.4274  140.5015  156.2281 C   0  0  0  0  0  0  0  0  0  0  0  0
  152.5005  139.9038  156.3207 O   0  0  0  0  0  0  0  0  0  0  0  0
  150.4295  140.1238  155.1239 C   0  0  2  0  0  0  0  0  0  0  0  0
  149.2784  141.1454  154.9747 C   0  0  0  0  0  0  0  0  0  0  0  0
  148.3096  140.7291  153.9682 N   0  0  0  0  0  0  0  0  0  0  0  0
  147.2264  141.6916  153.8362 C   0  0  0  0  0  0  0  0  0  0  0  0
  147.8107  139.3985  154.2878 C   0  0  0  0  0  0  0  0  0  0  0  0
  148.9571  138.3840  154.4330 C   0  0  0  0  0  0  0  0  0  0  0  0
  149.8757  138.8408  155.4209 O   0  0  0  0  0  0  0  0  0  0  0  0
  151.4764  143.4070  158.4076 C   0  0  0  0  0  0  0  0  0  0  0  0
  152.4401  145.8682  160.6172 H   0  0  0  0  0  0  0  0  0  0  0  0
  150.8035  145.6798  159.9801 H   0  0  0  0  0  0  0  0  0  0  0  0
  152.1297  146.1218  158.8967 H   0  0  0  0  0  0  0  0  0  0  0  0
  153.5115  143.7657  161.1245 H   0  0  0  0  0  0  0  0  0  0  0  0
  154.6143  141.6672  161.5900 H   0  0  0  0  0  0  0  0  0  0  0  0
  154.9061  140.6552  160.1722 H   0  0  0  0  0  0  0  0  0  0  0  0
  153.5767  140.2727  161.2740 H   0  0  0  0  0  0  0  0  0  0  0  0
  150.1205  141.8790  156.8772 H   0  0  0  0  0  0  0  0  0  0  0  0
  150.9850  140.0603  154.1866 H   0  0  0  0  0  0  0  0  0  0  0  0
  148.7776  141.2753  155.9358 H   0  0  0  0  0  0  0  0  0  0  0  0
  149.6867  142.1197  154.7019 H   0  0  0  0  0  0  0  0  0  0  0  0
  146.5299  141.3854  153.0550 H   0  0  0  0  0  0  0  0  0  0  0  0
  147.6142  142.6749  153.5677 H   0  0  0  0  0  0  0  0  0  0  0  0
  146.6694  141.7897  154.7689 H   0  0  0  0  0  0  0  0  0  0  0  0
  147.2382  139.4307  155.2161 H   0  0  0  0  0  0  0  0  0  0  0  0
  147.1250  139.0631  153.5091 H   0  0  0  0  0  0  0  0  0  0  0  0
  148.5673  137.4108  154.7312 H   0  0  0  0  0  0  0  0  0  0  0  0
  149.4742  138.2457  153.4823 H   0  0  0  0  0  0  0  0  0  0  0  0
  150.7957  143.9590  157.7755 H   0  0  0  0  0  0  0  0  0  0  0  0
  1  2  1  0  0  0  0
  1 19  1  0  0  0  0
  1 20  1  0  0  0  0
  1 21  1  0  0  0  0
  2 18  1  0  0  0  0
  2  3  2  0  0  0  0
  3  4  1  0  0  0  0
  3 22  1  0  0  0  0
  4  5  1  0  0  0  0
  4  6  2  0  0  0  0
  5 23  1  0  0  0  0
  5 24  1  0  0  0  0
  5 25  1  0  0  0  0
  6  7  1  0  0  0  0
  7  8  1  0  0  0  0
  7 18  2  0  0  0  0
  8  9  1  0  0  0  0
  8 26  1  0  0  0  0
  9 10  2  0  0  0  0
  9 11  1  0  0  0  0
 11 17  1  0  0  0  0
 11 12  1  0  0  0  0
 11 27  1  0  0  0  0
 12 13  1  0  0  0  0
 12 28  1  0  0  0  0
 12 29  1  0  0  0  0
 13 14  1  0  0  0  0
 13 15  1  0  0  0  0
 14 30  1  0  0  0  0
 14 31  1  0  0  0  0
 14 32  1  0  0  0  0
 15 16  1  0  0  0  0
 15 33  1  0  0  0  0
 15 34  1  0  0  0  0
 16 17  1  0  0  0  0
 16 35  1  0  0  0  0
 16 36  1  0  0  0  0
 18 37  1  0  0  0  0
M  END
> <s_m_source_file>
AV-unprocessed.smi

> <i_m_source_file_index>
3314

> <i_lp_mmshare_version>
43012

> <i_f3d_flags>
0

> <s_epik_input>
W0NIM11jMVtjSF1jKFtDSDNdKW5jKFtjSF0xKVtOSF1DKD1PKVtDQEBIXTJbQ0gyXU4oW0NIM10pW0NIMl1bQ0gyXU8y

> <s_epik_cmdline>
J2VwaWtfcHl0aG9uJywgJy1waCcsICc3LjAnLCAnLXRuJywgJzgnLCAnLW1hJywgJzIwMCcsICctbWV0YWxfYmluZGluZycsICctaW1hZScsICc8aW5maWxlLm1hZT4nLCAnLW9tYWUnLCAnPG91dGZpbGUubWFlPic=

> <r_epik_Ionization_Penalty>
0.55509

> <r_epik_Ionization_Penalty_Charging>
0

> <r_epik_Ionization_Penalty_Neutral>
0.55509

> <r_epik_State_Penalty>
0.632277

> <r_epik_Charging_Adjusted_Penalty>
0.632277

> <i_epik_Tot_Q>
0

> <i_epik_Tot_abs_Q>
0

> <r_epik_Metal_State_Penalty>
0.606221

> <b_epik_Metal_Only>
0

> <s_lp_Force_Field>
OPLS_2005

> <r_lp_Energy>
21.0201

> <b_lp_Chiralities_Consistent>
1

> <s_lp_Variant>
AV-unprocessed.smi:3314-5

> <Gold.Version>
5.8.1

> <Gold.Id.Protein>
6NUR|6NUR_protein|mol2

> <Gold.PLP.Fitness>
42.0512

> <Gold.PLP.PLP>
-40.1132

> <Gold.PLP.part.hbond>
-1.0000

> <Gold.PLP.part.metal>
0.0000

> <Gold.PLP.part.buried>
-4.9688

> <Gold.PLP.part.nonpolar>
-34.4631

> <Gold.PLP.part.repulsive>
0.2883

> <Gold.PLP.ligand.clash>
0.1614

> <Gold.PLP.ligand.torsion>
0.4518

> <Gold.PLP.Chemscore.Hbond>
1.0000

> <Gold.PLP.Chemscore.CHOScore>
0.0000

> <Gold.PLP.Chemscore.Metal>
0.0000

> <Gold.Chemscore.Hbonds>
donor molecule, donor type, donor heavy atom, donor atom, acceptor molecule, acceptor atom, score
      P1  H  7997  8009       L1    10  1.00

> <Gold.PLP.Chemscore.Internal.Correction>
0.0030

> <Gold.Rescore>
     Score         DG    S(hbond)    S(metal)    S(lipo)     H(rot)  DE(clash)    DE(int)     intcor
     16.59     -18.02       1.00        0.00     100.52       1.00       0.03       1.39       ----

> <Gold.Chemscore.Fitness>
16.5886

> <Gold.Chemscore.DG>
-18.0155

> <Gold.Chemscore.ZeroCoef>
-5.4800

> <Gold.Chemscore.Hbond>
0.9983

> <Gold.Chemscore.Metal>
0.0000

> <Gold.Chemscore.Lipo>
100.5233

> <Gold.Chemscore.Internal_Hbond>
0.0000

> <Gold.Chemscore.DEClash>
0.0339

> <Gold.Chemscore.DEInternal>
1.3930

> <Gold.Chemscore.Rot>
1.0000

> <Gold.Chemscore.Internal.Correction>
   9.000000E+99

> <Gold.Chemscore.Hbonds>
donor molecule, donor type, donor heavy atom, donor atom, acceptor molecule, acceptor atom, score
      P1  H  7997  8009       L1    10  1.00

> <Gold.Chemscore.Hbond.Weighted>
-3.3342

> <Gold.Chemscore.Metal.Weighted>
-0.0000

> <Gold.Chemscore.Lipo.Weighted>
-11.7612

> <Gold.Chemscore.Internal_Hbond.Weighted>
0.0000

> <Gold.Chemscore.DEClash.Weighted>
0.0339

> <Gold.Chemscore.DEInternal.Weighted>
1.3930

> <Gold.Chemscore.Rot.Weighted>
2.5600

> <Gold.Chemscore.Internal.Correction.Weighted>
   9.000000E+99

> <Gold.Protein.RotatedTorsions>
[ 6907 6896 6895 6894 ] final   95.30 input  -60.11 | X-H torsion
[ 7974 7965 7964 7962 ] final   92.46 input  175.53 | X-H torsion
[ 8008 7997 7996 7995 ] final -163.97 input   59.86 | X-H torsion
[ 10167 10162 10161 10158 ] final  -92.61 input  -65.29 | X-H torsion
[ 10718 10713 10712 10709 ] final   55.77 input   66.30 | X-H torsion
[ 10763 10752 10751 10750 ] final  -72.48 input  -60.55 | X-H torsion
[ 11005 11000 10999 10996 ] final  -17.72 input  -57.11 | X-H torsion

> <Gold.Protein.ActiveResidues>
 VAL166  LYS551  ARG553  GLY616  TRP617  ASP618  TYR619  PRO620  LYS621  CYS622 
 ASP623  PHE694  ASN695  SER759  ASP760  ASP761  ALA762  ILE779  LEU786  VAL792 
 PHE793  MET794  SER795  GLU796  ALA797  LYS798  CYS799  TRP800  GLU811  SER814 

> <Gold.Protein.RotatedAtoms>
  152.5444  134.1061  159.8338 H   0  0  0  0  0  0  0  0  0  0  0  0  # atno 6907 bound_to 6896
  151.1133  133.5149  159.2612 H   0  0  0  0  0  0  0  0  0  0  0  0  # atno 6908 bound_to 6896
  151.1859  135.0391  159.8867 H   0  0  0  0  0  0  0  0  0  0  0  0  # atno 6909 bound_to 6896
  145.4920  139.2276  143.2824 H   0  0  0  0  0  0  0  0  0  0  0  0  # atno 7974 bound_to 7965
  155.8289  140.0931  157.1804 H   0  0  0  0  0  0  0  0  0  0  0  0  # atno 8008 bound_to 7997
  154.3979  140.1422  156.3651 H   0  0  0  0  0  0  0  0  0  0  0  0  # atno 8009 bound_to 7997
  155.8187  140.3447  155.5503 H   0  0  0  0  0  0  0  0  0  0  0  0  # atno 8010 bound_to 7997
  140.3331  143.2984  151.9920 H   0  0  0  0  0  0  0  0  0  0  0  0  # atno 10167 bound_to 10162
  157.5373  130.8672  149.8772 H   0  0  0  0  0  0  0  0  0  0  0  0  # atno 10718 bound_to 10713
  154.4462  135.5928  153.6162 H   0  0  0  0  0  0  0  0  0  0  0  0  # atno 10763 bound_to 10752
  152.9809  135.6010  154.3661 H   0  0  0  0  0  0  0  0  0  0  0  0  # atno 10764 bound_to 10752
  154.3517  135.2841  155.2347 H   0  0  0  0  0  0  0  0  0  0  0  0  # atno 10765 bound_to 10752
  140.8196  133.8078  155.9646 H   0  0  0  0  0  0  0  0  0  0  0  0  # atno 11005 bound_to 11000
  146.2278  140.5715  142.8989 LP  0  0  0  0  0  0  0  0  0  0  0  0  # atno 17320 bound_to 7965
  144.7828  140.5876  143.6594 LP  0  0  0  0  0  0  0  0  0  0  0  0  # atno 17321 bound_to 7965
  139.4853  144.6219  151.7239 LP  0  0  0  0  0  0  0  0  0  0  0  0  # atno 17342 bound_to 10162
  140.5379  144.0626  150.6077 LP  0  0  0  0  0  0  0  0  0  0  0  0  # atno 17343 bound_to 10162
  156.0469  130.3726  150.1296 LP  0  0  0  0  0  0  0  0  0  0  0  0  # atno 17370 bound_to 10713
  156.9477  130.9765  151.3504 LP  0  0  0  0  0  0  0  0  0  0  0  0  # atno 17371 bound_to 10713
  140.9113  134.2257  157.4984 LP  0  0  0  0  0  0  0  0  0  0  0  0  # atno 17394 bound_to 11000
  139.8709  134.9751  156.4871 LP  0  0  0  0  0  0  0  0  0  0  0  0  # atno 17395 bound_to 11000

$$$$
