AV-unprocessed.smi:1466|AV-procd|sdf|5954|dock6
  -GOLD-   22720 6 43D 1   1.00000     0.00000
 Structure written by MMmdl.
 48 49  0  0  0  0  0  0  0  0  1 V2000
  151.0435  142.4618  156.3605 C   0  0  0  0  0  0  0  0  0  0  0  0
  151.4146  141.1766  156.9395 N   0  0  0  0  0  0  0  0  0  0  0  0
  152.2518  141.1311  158.1341 C   0  0  0  0  0  0  0  0  0  0  0  0
  150.9380  139.9743  156.3684 C   0  0  0  0  0  0  0  0  0  0  0  0
  150.7639  138.8030  157.1466 C   0  0  0  0  0  0  0  0  0  0  0  0
  150.2858  137.6292  156.5324 C   0  0  0  0  0  0  0  0  0  0  0  0
  149.9971  137.6474  155.1485 C   0  0  0  0  0  0  0  0  0  0  0  0
  149.4910  136.5400  154.4154 N   0  0  0  0  0  0  0  0  0  0  0  0
  148.9297  135.4098  154.8781 C   0  0  0  0  0  0  0  0  0  0  0  0
  148.7817  135.1204  156.0651 O   0  0  0  0  0  0  0  0  0  0  0  0
  148.5600  134.6073  153.8699 N   0  0  0  0  0  0  0  0  0  0  0  0
  147.9331  133.3004  154.0273 C   0  0  0  0  0  0  0  0  0  0  0  0
  146.4042  133.3844  153.8638 C   0  0  0  0  0  0  0  0  0  0  0  0
  146.0200  133.4892  152.4513 N   0  0  0  0  0  0  0  0  0  0  0  0
  146.7103  132.5787  151.5241 C   0  0  0  0  0  0  0  0  0  0  0  0
  145.8060  131.4569  150.9636 C   0  0  0  0  0  0  0  0  0  0  0  0
  144.3110  131.8006  150.8101 C   0  0  0  0  0  0  0  0  0  0  0  0
  144.0150  133.1000  150.0323 C   0  0  0  0  0  0  0  0  0  0  0  0
  144.7112  134.3858  150.5398 C   0  0  0  0  0  0  0  0  0  0  0  0
  145.0743  134.3663  152.0337 C   0  0  0  0  0  0  0  0  0  0  0  0
  144.4965  135.1428  152.7947 O   0  0  0  0  0  0  0  0  0  0  0  0
  150.1891  138.8610  154.4603 C   0  0  0  0  0  0  0  0  0  0  0  0
  150.6476  139.9870  155.0445 N   0  0  0  0  0  0  0  0  0  0  0  0
  149.9604  142.5868  156.3669 H   0  0  0  0  0  0  0  0  0  0  0  0
  151.3983  142.5363  155.3320 H   0  0  0  0  0  0  0  0  0  0  0  0
  151.4765  143.2901  156.9214 H   0  0  0  0  0  0  0  0  0  0  0  0
  151.7197  140.6534  158.9573 H   0  0  0  0  0  0  0  0  0  0  0  0
  152.5383  142.1315  158.4580 H   0  0  0  0  0  0  0  0  0  0  0  0
  153.1661  140.5695  157.9392 H   0  0  0  0  0  0  0  0  0  0  0  0
  150.9821  138.7807  158.2033 H   0  0  0  0  0  0  0  0  0  0  0  0
  150.1383  136.7497  157.1388 H   0  0  0  0  0  0  0  0  0  0  0  0
  149.6136  136.5947  153.4147 H   0  0  0  0  0  0  0  0  0  0  0  0
  148.7232  134.9232  152.9250 H   0  0  0  0  0  0  0  0  0  0  0  0
  148.3636  132.5914  153.3180 H   0  0  0  0  0  0  0  0  0  0  0  0
  148.1789  132.9300  155.0228 H   0  0  0  0  0  0  0  0  0  0  0  0
  145.9335  132.5109  154.3172 H   0  0  0  0  0  0  0  0  0  0  0  0
  146.0114  134.2386  154.4186 H   0  0  0  0  0  0  0  0  0  0  0  0
  147.1295  133.1582  150.7015 H   0  0  0  0  0  0  0  0  0  0  0  0
  147.5847  132.1302  151.9974 H   0  0  0  0  0  0  0  0  0  0  0  0
  146.2066  131.1293  150.0037 H   0  0  0  0  0  0  0  0  0  0  0  0
  145.8799  130.5912  151.6226 H   0  0  0  0  0  0  0  0  0  0  0  0
  143.8100  130.9705  150.3112 H   0  0  0  0  0  0  0  0  0  0  0  0
  143.8496  131.8552  151.7973 H   0  0  0  0  0  0  0  0  0  0  0  0
  144.2810  132.9533  148.9850 H   0  0  0  0  0  0  0  0  0  0  0  0
  142.9363  133.2609  150.0386 H   0  0  0  0  0  0  0  0  0  0  0  0
  145.6142  134.5758  149.9600 H   0  0  0  0  0  0  0  0  0  0  0  0
  144.0677  135.2434  150.3393 H   0  0  0  0  0  0  0  0  0  0  0  0
  149.9713  138.9330  153.4047 H   0  0  0  0  0  0  0  0  0  0  0  0
  1  2  1  0  0  0  0
  1 24  1  0  0  0  0
  1 25  1  0  0  0  0
  1 26  1  0  0  0  0
  2  3  1  0  0  0  0
  2  4  1  0  0  0  0
  3 27  1  0  0  0  0
  3 28  1  0  0  0  0
  3 29  1  0  0  0  0
  4 23  1  0  0  0  0
  4  5  2  0  0  0  0
  5  6  1  0  0  0  0
  5 30  1  0  0  0  0
  6  7  2  0  0  0  0
  6 31  1  0  0  0  0
  7  8  1  0  0  0  0
  7 22  1  0  0  0  0
  8  9  1  0  0  0  0
  8 32  1  0  0  0  0
  9 10  2  0  0  0  0
  9 11  1  0  0  0  0
 11 12  1  0  0  0  0
 11 33  1  0  0  0  0
 12 13  1  0  0  0  0
 12 34  1  0  0  0  0
 12 35  1  0  0  0  0
 13 14  1  0  0  0  0
 13 36  1  0  0  0  0
 13 37  1  0  0  0  0
 14 20  1  0  0  0  0
 14 15  1  0  0  0  0
 15 16  1  0  0  0  0
 15 38  1  0  0  0  0
 15 39  1  0  0  0  0
 16 17  1  0  0  0  0
 16 40  1  0  0  0  0
 16 41  1  0  0  0  0
 17 18  1  0  0  0  0
 17 42  1  0  0  0  0
 17 43  1  0  0  0  0
 18 19  1  0  0  0  0
 18 44  1  0  0  0  0
 18 45  1  0  0  0  0
 19 20  1  0  0  0  0
 19 46  1  0  0  0  0
 19 47  1  0  0  0  0
 20 21  2  0  0  0  0
 22 23  2  0  0  0  0
 22 48  1  0  0  0  0
M  END
> <s_m_source_file>
AV-unprocessed.smi

> <i_m_source_file_index>
1466

> <i_lp_mmshare_version>
43012

> <i_f3d_flags>
0

> <s_epik_input>
W0NIM11OKFtDSDNdKWMxW2NIXVtjSF1jKFtjSF1uMSlbTkhdQyg9TylbTkhdW0NIMl1bQ0gyXU4yW0NIMl1bQ0gyXVtDSDJdW0NIMl1bQ0gyXUMyPU8=

> <s_epik_cmdline>
J2VwaWtfcHl0aG9uJywgJy1waCcsICc3LjAnLCAnLXRuJywgJzgnLCAnLW1hJywgJzIwMCcsICctbWV0YWxfYmluZGluZycsICctaW1hZScsICc8aW5maWxlLm1hZT4nLCAnLW9tYWUnLCAnPG91dGZpbGUubWFlPic=

> <r_lp_tautomer_probability>
1

> <r_epik_Ionization_Penalty>
0.597116

> <r_epik_Ionization_Penalty_Charging>
0

> <r_epik_Ionization_Penalty_Neutral>
0.597116

> <r_epik_State_Penalty>
0.610079

> <r_epik_Charging_Adjusted_Penalty>
0.610079

> <i_epik_Tot_Q>
0

> <i_epik_Tot_abs_Q>
0

> <r_epik_Metal_State_Penalty>
0.299962

> <b_epik_Metal_Only>
0

> <s_lp_Force_Field>
OPLS_2005

> <r_lp_Energy>
26.5805

> <b_lp_Chiralities_Consistent>
1

> <s_lp_Variant>
AV-unprocessed.smi:1466-2

> <Gold.Version>
5.8.1

> <Gold.Id.Protein>
6NUR|6NUR_protein|mol2

> <Gold.PLP.Fitness>
43.4212

> <Gold.PLP.PLP>
-33.1959

> <Gold.PLP.part.hbond>
-3.0000

> <Gold.PLP.part.metal>
0.0000

> <Gold.PLP.part.buried>
-1.8794

> <Gold.PLP.part.nonpolar>
-26.5585

> <Gold.PLP.part.repulsive>
0.1829

> <Gold.PLP.ligand.clash>
0.0000

> <Gold.PLP.ligand.torsion>
0.7885

> <Gold.PLP.Chemscore.Hbond>
2.9270

> <Gold.PLP.Chemscore.CHOScore>
1.0000

> <Gold.PLP.Chemscore.Metal>
0.0000

> <Gold.Chemscore.Hbonds>
donor molecule, donor type, donor heavy atom, donor atom, acceptor molecule, acceptor atom, score
      L1  H     8    32       P1  7948  0.96
      L1  H    11    33       P1  7948  0.99
      P1  H  7989  7998       L1    23  0.99
      L1  C    22    48       P1  7957  1.00

> <Gold.PLP.Chemscore.Internal.Correction>
0.0214

> <Gold.Rescore>
     Score         DG    S(hbond)    S(metal)    S(lipo)     H(rot)  DE(clash)    DE(int)     intcor
     15.01     -17.33       1.76        0.00      83.48       1.48       0.56       1.76       ----

> <Gold.Chemscore.Fitness>
15.0129

> <Gold.Chemscore.DG>
-17.3289

> <Gold.Chemscore.ZeroCoef>
-5.4800

> <Gold.Chemscore.Hbond>
1.7584

> <Gold.Chemscore.Metal>
0.0000

> <Gold.Chemscore.Lipo>
83.4802

> <Gold.Chemscore.Internal_Hbond>
0.0000

> <Gold.Chemscore.DEClash>
0.5609

> <Gold.Chemscore.DEInternal>
1.7552

> <Gold.Chemscore.Rot>
1.4810

> <Gold.Chemscore.Internal.Correction>
   9.000000E+99

> <Gold.Chemscore.Hbonds>
donor molecule, donor type, donor heavy atom, donor atom, acceptor molecule, acceptor atom, score
      L1  H     8    32       P1  7948  0.51
      L1  H    11    33       P1  7948  0.28
      P1  H  7989  7998       L1    23  0.28

> <Gold.Chemscore.Hbond.Weighted>
-5.8730

> <Gold.Chemscore.Metal.Weighted>
-0.0000

> <Gold.Chemscore.Lipo.Weighted>
-9.7672

> <Gold.Chemscore.Internal_Hbond.Weighted>
0.0000

> <Gold.Chemscore.DEClash.Weighted>
0.5609

> <Gold.Chemscore.DEInternal.Weighted>
1.7552

> <Gold.Chemscore.Rot.Weighted>
3.7912

> <Gold.Chemscore.Internal.Correction.Weighted>
   9.000000E+99

> <Gold.Protein.RotatedTorsions>
[ 6907 6896 6895 6894 ] final   93.32 input  -60.11 | X-H torsion
[ 7974 7965 7964 7962 ] final -143.87 input  175.53 | X-H torsion
[ 8008 7997 7996 7995 ] final -155.84 input   59.86 | X-H torsion
[ 10167 10162 10161 10158 ] final  107.18 input  -65.29 | X-H torsion
[ 10718 10713 10712 10709 ] final   85.74 input   66.30 | X-H torsion
[ 10763 10752 10751 10750 ] final  -44.04 input  -60.55 | X-H torsion
[ 11005 11000 10999 10996 ] final  174.32 input  -57.11 | X-H torsion

> <Gold.Protein.ActiveResidues>
 VAL166  LYS551  ARG553  GLY616  TRP617  ASP618  TYR619  PRO620  LYS621  CYS622 
 ASP623  PHE694  ASN695  SER759  ASP760  ASP761  ALA762  ILE779  LEU786  VAL792 
 PHE793  MET794  SER795  GLU796  ALA797  LYS798  CYS799  TRP800  GLU811  SER814 

> <Gold.Protein.RotatedAtoms>
  152.5452  134.1365  159.8460 H   0  0  0  0  0  0  0  0  0  0  0  0  # atno 6907 bound_to 6896
  151.1405  133.4967  159.2604 H   0  0  0  0  0  0  0  0  0  0  0  0  # atno 6908 bound_to 6896
  151.1578  135.0269  159.8751 H   0  0  0  0  0  0  0  0  0  0  0  0  # atno 6909 bound_to 6896
  144.8338  140.5781  143.5497 H   0  0  0  0  0  0  0  0  0  0  0  0  # atno 7974 bound_to 7965
  155.7080  140.0775  157.2383 H   0  0  0  0  0  0  0  0  0  0  0  0  # atno 8008 bound_to 7997
  154.4063  140.1635  156.2318 H   0  0  0  0  0  0  0  0  0  0  0  0  # atno 8009 bound_to 7997
  155.9308  140.3391  155.6251 H   0  0  0  0  0  0  0  0  0  0  0  0  # atno 8010 bound_to 7997
  139.6948  144.7103  151.1285 H   0  0  0  0  0  0  0  0  0  0  0  0  # atno 10167 bound_to 10162
  157.6919  131.0187  150.2868 H   0  0  0  0  0  0  0  0  0  0  0  0  # atno 10718 bound_to 10713
  154.0055  135.6688  153.4762 H   0  0  0  0  0  0  0  0  0  0  0  0  # atno 10763 bound_to 10752
  153.0644  135.5009  154.8162 H   0  0  0  0  0  0  0  0  0  0  0  0  # atno 10764 bound_to 10752
  154.7027  135.3082  154.9280 H   0  0  0  0  0  0  0  0  0  0  0  0  # atno 10765 bound_to 10752
  140.3500  134.7203  157.4261 H   0  0  0  0  0  0  0  0  0  0  0  0  # atno 11005 bound_to 11000
  145.4838  139.1493  143.3747 LP  0  0  0  0  0  0  0  0  0  0  0  0  # atno 17320 bound_to 7965
  146.2639  140.4974  142.8842 LP  0  0  0  0  0  0  0  0  0  0  0  0  # atno 17321 bound_to 7965
  140.7693  143.5507  150.9208 LP  0  0  0  0  0  0  0  0  0  0  0  0  # atno 17342 bound_to 10162
  139.9186  143.6633  152.3101 LP  0  0  0  0  0  0  0  0  0  0  0  0  # atno 17343 bound_to 10162
  156.3406  130.3815  149.7412 LP  0  0  0  0  0  0  0  0  0  0  0  0  # atno 17370 bound_to 10713
  156.4923  130.8090  151.3099 LP  0  0  0  0  0  0  0  0  0  0  0  0  # atno 17371 bound_to 10713
  140.0710  134.5862  155.8641 LP  0  0  0  0  0  0  0  0  0  0  0  0  # atno 17394 bound_to 11000
  141.2014  133.6619  156.5952 LP  0  0  0  0  0  0  0  0  0  0  0  0  # atno 17395 bound_to 11000

$$$$
