AV-unprocessed.smi:21|AV-procd|sdf|157|dock1
  -GOLD-   2262015383D 1   1.00000     0.00000
 Structure written by MMmdl.
 61 64  0  0  0  0  0  0  0  0  1 V2000
  154.8159  140.7060  160.7689 C   0  0  0  0  0  0  0  0  0  0  0  0
  153.7959  141.6703  160.9746 O   0  0  0  0  0  0  0  0  0  0  0  0
  153.4474  142.3860  159.7973 C   0  0  1  0  0  0  0  0  0  0  0  0
  152.9150  141.4547  158.6945 C   0  0  0  0  0  0  0  0  0  0  0  0
  151.6022  142.1107  158.2531 C   0  0  1  0  0  0  0  0  0  0  0  0
  150.6283  141.1241  157.5751 C   0  0  0  0  0  0  0  0  0  0  0  0
  150.6334  141.2277  156.1161 N   0  0  0  0  0  0  0  0  0  0  0  0
  149.5042  141.9015  155.4796 C   0  0  0  0  0  0  0  0  0  0  0  0
  151.1597  140.1579  155.4658 C   0  0  0  0  0  0  0  0  0  0  0  0
  152.3903  140.2535  154.8942 N   0  0  0  0  0  0  0  0  0  0  0  0
  152.9138  139.2134  154.2395 C   0  0  0  0  0  0  0  0  0  0  0  0
  152.3914  138.0016  154.0450 N   0  0  0  0  0  0  0  0  0  0  0  0
  151.1622  137.8923  154.6250 C   0  0  0  0  0  0  0  0  0  0  0  0
  150.4775  138.9141  155.3425 C   0  0  0  0  0  0  0  0  0  0  0  0
  149.2505  138.4364  155.7843 N   0  0  0  0  0  0  0  0  0  0  0  0
  149.2072  137.2089  155.3459 C   0  0  0  0  0  0  0  0  0  0  0  0
  150.3221  136.7908  154.6543 N   0  0  0  0  0  0  0  0  0  0  0  0
  150.5433  135.4781  154.0631 C   0  0  0  0  0  0  0  0  0  0  0  0
  150.7523  134.3346  155.0942 C   0  0  1  0  0  0  0  0  0  0  0  0
  149.5686  134.2164  156.0830 C   0  0  0  0  0  0  0  0  0  0  0  0
  150.0111  133.7594  157.3438 O   0  0  0  0  0  0  0  0  0  0  0  0
  151.0618  132.9734  154.4165 C   0  0  2  0  0  0  0  0  0  0  0  0
  149.9486  132.4238  153.5394 C   0  0  0  0  0  0  0  0  0  0  0  0
  150.3080  130.9449  153.4307 C   0  0  0  0  0  0  0  0  0  0  0  0
  151.0024  130.6222  154.6302 O   0  0  0  0  0  0  0  0  0  0  0  0
  151.2273  131.8027  155.3917 C   0  0  0  0  0  0  0  0  0  0  0  0
  151.0926  142.7247  159.4675 N   0  0  0  0  0  0  0  0  0  0  0  0
  150.0370  143.7019  159.2366 C   0  0  0  0  0  0  0  0  0  0  0  0
  152.2640  143.3192  160.0875 C   0  0  0  0  0  0  0  0  0  0  0  0
  154.2931  142.9791  159.4449 H   0  0  0  0  0  0  0  0  0  0  0  0
  151.8492  142.9082  157.5510 H   0  0  0  0  0  0  0  0  0  0  0  0
  155.0432  140.2101  161.7123 H   0  0  0  0  0  0  0  0  0  0  0  0
  155.7326  141.1735  160.4075 H   0  0  0  0  0  0  0  0  0  0  0  0
  154.5091  139.9405  160.0557 H   0  0  0  0  0  0  0  0  0  0  0  0
  153.6187  141.3313  157.8708 H   0  0  0  0  0  0  0  0  0  0  0  0
  152.7120  140.4690  159.1128 H   0  0  0  0  0  0  0  0  0  0  0  0
  150.8536  140.1090  157.9034 H   0  0  0  0  0  0  0  0  0  0  0  0
  149.6097  141.3228  157.9085 H   0  0  0  0  0  0  0  0  0  0  0  0
  149.6691  142.0137  154.4073 H   0  0  0  0  0  0  0  0  0  0  0  0
  149.3632  142.9001  155.8912 H   0  0  0  0  0  0  0  0  0  0  0  0
  148.5828  141.3384  155.6313 H   0  0  0  0  0  0  0  0  0  0  0  0
  153.8909  139.3755  153.8087 H   0  0  0  0  0  0  0  0  0  0  0  0
  148.3541  136.5723  155.5243 H   0  0  0  0  0  0  0  0  0  0  0  0
  149.6998  135.2538  153.4102 H   0  0  0  0  0  0  0  0  0  0  0  0
  151.4079  135.5453  153.4017 H   0  0  0  0  0  0  0  0  0  0  0  0
  151.6320  134.6007  155.6825 H   0  0  0  0  0  0  0  0  0  0  0  0
  149.0483  135.1673  156.1983 H   0  0  0  0  0  0  0  0  0  0  0  0
  148.8316  133.4964  155.7292 H   0  0  0  0  0  0  0  0  0  0  0  0
  149.2713  133.4019  157.8108 H   0  0  0  0  0  0  0  0  0  0  0  0
  151.9617  133.0572  153.8058 H   0  0  0  0  0  0  0  0  0  0  0  0
  148.9826  132.5363  154.0347 H   0  0  0  0  0  0  0  0  0  0  0  0
  149.8882  132.9046  152.5627 H   0  0  0  0  0  0  0  0  0  0  0  0
  149.4284  130.3146  153.2983 H   0  0  0  0  0  0  0  0  0  0  0  0
  150.9776  130.7751  152.5868 H   0  0  0  0  0  0  0  0  0  0  0  0
  152.2070  131.7756  155.8671 H   0  0  0  0  0  0  0  0  0  0  0  0
  150.4750  131.8490  156.1803 H   0  0  0  0  0  0  0  0  0  0  0  0
  149.7358  144.1690  160.1747 H   0  0  0  0  0  0  0  0  0  0  0  0
  149.1537  143.2305  158.8067 H   0  0  0  0  0  0  0  0  0  0  0  0
  150.3678  144.4885  158.5570 H   0  0  0  0  0  0  0  0  0  0  0  0
  152.1091  143.4822  161.1546 H   0  0  0  0  0  0  0  0  0  0  0  0
  152.4689  144.2917  159.6369 H   0  0  0  0  0  0  0  0  0  0  0  0
  1  2  1  0  0  0  0
  1 32  1  0  0  0  0
  1 33  1  0  0  0  0
  1 34  1  0  0  0  0
  2  3  1  0  0  0  0
  3 30  1  0  0  0  0
  3 29  1  0  0  0  0
  3  4  1  0  0  0  0
  4  5  1  0  0  0  0
  4 35  1  0  0  0  0
  4 36  1  0  0  0  0
  5 31  1  0  0  0  0
  5  6  1  0  0  0  0
  5 27  1  0  0  0  0
  6  7  1  0  0  0  0
  6 37  1  0  0  0  0
  6 38  1  0  0  0  0
  7  8  1  0  0  0  0
  7  9  1  0  0  0  0
  8 39  1  0  0  0  0
  8 40  1  0  0  0  0
  8 41  1  0  0  0  0
  9 14  1  0  0  0  0
  9 10  2  0  0  0  0
 10 11  1  0  0  0  0
 11 12  2  0  0  0  0
 11 42  1  0  0  0  0
 12 13  1  0  0  0  0
 13 17  1  0  0  0  0
 13 14  2  0  0  0  0
 14 15  1  0  0  0  0
 15 16  2  0  0  0  0
 16 17  1  0  0  0  0
 16 43  1  0  0  0  0
 17 18  1  0  0  0  0
 18 19  1  0  0  0  0
 18 44  1  0  0  0  0
 18 45  1  0  0  0  0
 19 20  1  0  0  0  0
 19 22  1  0  0  0  0
 19 46  1  0  0  0  0
 20 21  1  0  0  0  0
 20 47  1  0  0  0  0
 20 48  1  0  0  0  0
 21 49  1  0  0  0  0
 22 26  1  0  0  0  0
 22 23  1  0  0  0  0
 22 50  1  0  0  0  0
 23 24  1  0  0  0  0
 23 51  1  0  0  0  0
 23 52  1  0  0  0  0
 24 25  1  0  0  0  0
 24 53  1  0  0  0  0
 24 54  1  0  0  0  0
 25 26  1  0  0  0  0
 26 55  1  0  0  0  0
 26 56  1  0  0  0  0
 27 28  1  0  0  0  0
 27 29  1  0  0  0  0
 28 57  1  0  0  0  0
 28 58  1  0  0  0  0
 28 59  1  0  0  0  0
 29 60  1  0  0  0  0
 29 61  1  0  0  0  0
M  END
> <s_m_source_file>
AV-unprocessed.smi

> <i_m_source_file_index>
21

> <i_lp_mmshare_version>
43012

> <i_f3d_flags>
0

> <s_epik_input>
W0NIM11PW0NASF0xW0NIMl1bQ0BIXShOKFtDSDNdKVtDSDJdMSlbQ0gyXU4oW0NIM10pYyhuW2NIXW4yKWMoYzIzKW5bY0hdbjNbQ0gyXVtDQEhdKFtDSDJdW09IXSlbQ0BASF00W0NIMl1bQ0gyXU9bQ0gyXTQ=

> <s_epik_cmdline>
J2VwaWtfcHl0aG9uJywgJy1waCcsICc3LjAnLCAnLXRuJywgJzgnLCAnLW1hJywgJzIwMCcsICctbWV0YWxfYmluZGluZycsICctaW1hZScsICc8aW5maWxlLm1hZT4nLCAnLW9tYWUnLCAnPG91dGZpbGUubWFlPic=

> <r_lp_tautomer_probability>
1

> <r_epik_Ionization_Penalty>
2.17574

> <r_epik_Ionization_Penalty_Charging>
0

> <r_epik_Ionization_Penalty_Neutral>
2.17574

> <r_epik_State_Penalty>
2.31336

> <r_epik_Charging_Adjusted_Penalty>
2.31336

> <i_epik_Tot_Q>
0

> <i_epik_Tot_abs_Q>
0

> <r_epik_Metal_State_Penalty>
2.31025

> <b_epik_Metal_Only>
0

> <s_lp_Force_Field>
OPLS_2005

> <r_lp_Energy>
71.0879

> <b_lp_Chiralities_Consistent>
1

> <s_lp_Variant>
AV-unprocessed.smi:21-37

> <Gold.Version>
5.8.1

> <Gold.Id.Protein>
6NUR|6NUR_protein|mol2

> <Gold.PLP.Fitness>
54.6573

> <Gold.PLP.PLP>
-50.6654

> <Gold.PLP.part.hbond>
-4.0758

> <Gold.PLP.part.metal>
0.0000

> <Gold.PLP.part.buried>
-7.5926

> <Gold.PLP.part.nonpolar>
-39.4303

> <Gold.PLP.part.repulsive>
0.1797

> <Gold.PLP.ligand.clash>
0.0000

> <Gold.PLP.ligand.torsion>
1.9635

> <Gold.PLP.Chemscore.Hbond>
2.1489

> <Gold.PLP.Chemscore.CHOScore>
0.0000

> <Gold.PLP.Chemscore.Metal>
0.0000

> <Gold.Chemscore.Hbonds>
donor molecule, donor type, donor heavy atom, donor atom, acceptor molecule, acceptor atom, score
      P1  H  6896  6908       L1    21  0.03
      P1  H  7989  7998       L1    10  0.18
      P1  H  7997  8010       L1    10  0.04
      P1  H 10752 10765       L1    12  0.01

> <Gold.PLP.Chemscore.Internal.Correction>
1.4725

> <Gold.Rescore>
     Score         DG    S(hbond)    S(metal)    S(lipo)     H(rot)  DE(clash)    DE(int)     intcor
     13.42     -15.52       1.89        0.00     103.03       3.26       0.18       1.93       ----

> <Gold.Chemscore.Fitness>
13.4198

> <Gold.Chemscore.DG>
-15.5221

> <Gold.Chemscore.ZeroCoef>
-5.4800

> <Gold.Chemscore.Hbond>
1.8944

> <Gold.Chemscore.Metal>
0.0000

> <Gold.Chemscore.Lipo>
103.0296

> <Gold.Chemscore.Internal_Hbond>
0.0000

> <Gold.Chemscore.DEClash>
0.1771

> <Gold.Chemscore.DEInternal>
1.9253

> <Gold.Chemscore.Rot>
3.2576

> <Gold.Chemscore.Internal.Correction>
   9.000000E+99

> <Gold.Chemscore.Hbond.Weighted>
-6.3272

> <Gold.Chemscore.Metal.Weighted>
-0.0000

> <Gold.Chemscore.Lipo.Weighted>
-12.0545

> <Gold.Chemscore.Internal_Hbond.Weighted>
0.0000

> <Gold.Chemscore.DEClash.Weighted>
0.1771

> <Gold.Chemscore.DEInternal.Weighted>
1.9253

> <Gold.Chemscore.Rot.Weighted>
8.3395

> <Gold.Chemscore.Internal.Correction.Weighted>
   9.000000E+99

> <Gold.Protein.RotatedTorsions>
[ 6907 6896 6895 6894 ] final  139.41 input  -60.11 | X-H torsion
[ 7974 7965 7964 7962 ] final  -15.62 input  175.53 | X-H torsion
[ 8008 7997 7996 7995 ] final   81.59 input   59.86 | X-H torsion
[ 10167 10162 10161 10158 ] final   92.00 input  -65.29 | X-H torsion
[ 10718 10713 10712 10709 ] final   10.93 input   66.30 | X-H torsion
[ 10763 10752 10751 10750 ] final  166.59 input  -60.55 | X-H torsion
[ 11005 11000 10999 10996 ] final   -3.57 input  -57.11 | X-H torsion

> <Gold.Protein.ActiveResidues>
 VAL166  LYS551  ARG553  GLY616  TRP617  ASP618  TYR619  PRO620  LYS621  CYS622 
 ASP623  PHE694  ASN695  SER759  ASP760  ASP761  ALA762  ILE779  LEU786  VAL792 
 PHE793  MET794  SER795  GLU796  ALA797  LYS798  CYS799  TRP800  GLU811  SER814 

> <Gold.Protein.RotatedAtoms>
  152.2552  133.5249  159.5348 H   0  0  0  0  0  0  0  0  0  0  0  0  # atno 6907 bound_to 6896
  150.7106  134.0905  159.3939 H   0  0  0  0  0  0  0  0  0  0  0  0  # atno 6908 bound_to 6896
  151.8824  135.0448  160.0541 H   0  0  0  0  0  0  0  0  0  0  0  0  # atno 6909 bound_to 6896
  146.2024  140.3519  142.8419 H   0  0  0  0  0  0  0  0  0  0  0  0  # atno 7974 bound_to 7965
  155.8991  140.3434  155.6013 H   0  0  0  0  0  0  0  0  0  0  0  0  # atno 8008 bound_to 7997
  155.7521  140.0821  157.2215 H   0  0  0  0  0  0  0  0  0  0  0  0  # atno 8009 bound_to 7997
  154.4041  140.1551  156.2723 H   0  0  0  0  0  0  0  0  0  0  0  0  # atno 8010 bound_to 7997
  139.8319  144.6683  150.9389 H   0  0  0  0  0  0  0  0  0  0  0  0  # atno 10167 bound_to 10162
  156.9882  130.6032  149.5683 H   0  0  0  0  0  0  0  0  0  0  0  0  # atno 10718 bound_to 10713
  154.3412  135.2754  155.2421 H   0  0  0  0  0  0  0  0  0  0  0  0  # atno 10763 bound_to 10752
  154.4691  135.5887  153.6312 H   0  0  0  0  0  0  0  0  0  0  0  0  # atno 10764 bound_to 10752
  152.9857  135.6084  154.3614 H   0  0  0  0  0  0  0  0  0  0  0  0  # atno 10765 bound_to 10752
  140.6707  133.9239  155.8493 H   0  0  0  0  0  0  0  0  0  0  0  0  # atno 11005 bound_to 11000
  144.8713  140.7277  143.6045 LP  0  0  0  0  0  0  0  0  0  0  0  0  # atno 17320 bound_to 7965
  145.3438  139.1725  143.4471 LP  0  0  0  0  0  0  0  0  0  0  0  0  # atno 17321 bound_to 7965
  140.7806  143.3993  151.1176 LP  0  0  0  0  0  0  0  0  0  0  0  0  # atno 17342 bound_to 10162
  139.7646  143.8585  152.3108 LP  0  0  0  0  0  0  0  0  0  0  0  0  # atno 17343 bound_to 10162
  156.0217  130.5312  150.8295 LP  0  0  0  0  0  0  0  0  0  0  0  0  # atno 17370 bound_to 10713
  157.5478  131.0943  150.9739 LP  0  0  0  0  0  0  0  0  0  0  0  0  # atno 17371 bound_to 10713
  141.0394  134.0643  157.3920 LP  0  0  0  0  0  0  0  0  0  0  0  0  # atno 17394 bound_to 11000
  139.8982  135.0154  156.7139 LP  0  0  0  0  0  0  0  0  0  0  0  0  # atno 17395 bound_to 11000

$$$$
