AV-unprocessed.smi:152|AV-procd|sdf|1249|dock9
  -GOLD-   2262018473D 1   1.00000     0.00000
 Structure written by MMmdl.
 58 61  0  0  0  0  0  0  0  0  2 V2000
  141.9264  135.0123  153.1562 C   0  0  0  0  0  0  0  0  0  0  0  0
  143.4486  135.0000  152.9626 C   0  0  0  0  0  0  0  0  0  0  0  0
  143.9677  133.6324  152.7157 N   0  3  1  0  0  0  0  0  0  0  0  0
  143.4814  133.0072  151.4596 C   0  0  0  0  0  0  0  0  0  0  0  0
  144.7140  132.5031  150.7040 C   0  0  0  0  0  0  0  0  0  0  0  0
  145.7763  132.3762  151.7857 C   0  0  0  0  0  0  0  0  0  0  0  0
  145.4464  133.5350  152.7297 C   0  0  2  0  0  0  0  0  0  0  0  0
  145.9921  133.3265  154.1601 C   0  0  0  0  0  0  0  0  0  0  0  0
  147.4468  133.4422  154.2557 N   0  0  0  0  0  0  0  0  0  0  0  0
  148.2366  132.4576  153.5290 C   0  0  0  0  0  0  0  0  0  0  0  0
  147.9972  133.7539  155.4538 C   0  0  0  0  0  0  0  0  0  0  0  0
  148.9886  132.9432  155.9014 N   0  0  0  0  0  0  0  0  0  0  0  0
  149.5852  133.1928  157.0705 C   0  0  0  0  0  0  0  0  0  0  0  0
  149.3450  134.1797  157.9353 N   0  0  0  0  0  0  0  0  0  0  0  0
  148.3366  134.9876  157.4998 C   0  0  0  0  0  0  0  0  0  0  0  0
  147.6135  134.8507  156.2806 C   0  0  0  0  0  0  0  0  0  0  0  0
  146.6630  135.8611  156.1835 N   0  0  0  0  0  0  0  0  0  0  0  0
  146.8184  136.5554  157.2770 C   0  0  0  0  0  0  0  0  0  0  0  0
  147.7973  136.0964  158.1283 N   0  0  0  0  0  0  0  0  0  0  0  0
  148.1772  136.6742  159.4083 C   0  0  0  0  0  0  0  0  0  0  0  0
  147.4108  136.0877  160.6205 C   0  0  0  0  0  0  0  0  0  0  0  0
  147.6348  136.9403  161.7296 O   0  0  0  0  0  0  0  0  0  0  0  0
  145.8967  136.0563  160.3301 C   0  0  0  0  0  0  0  0  0  0  0  0
  145.1081  135.3266  161.4319 C   0  0  0  0  0  0  0  0  0  0  0  0
  145.6276  134.0148  161.6120 O   0  0  0  0  0  0  0  0  0  0  0  0
  146.9787  134.0152  162.0564 C   0  0  0  0  0  0  0  0  0  0  0  0
  147.8857  134.6671  160.9974 C   0  0  0  0  0  0  0  0  0  0  0  0
  141.5755  136.0207  153.3769 H   0  0  0  0  0  0  0  0  0  0  0  0
  141.6299  134.3699  153.9859 H   0  0  0  0  0  0  0  0  0  0  0  0
  141.4012  134.6716  152.2638 H   0  0  0  0  0  0  0  0  0  0  0  0
  143.7371  135.6621  152.1448 H   0  0  0  0  0  0  0  0  0  0  0  0
  143.9116  135.4009  153.8646 H   0  0  0  0  0  0  0  0  0  0  0  0
  142.8272  132.1758  151.7238 H   0  0  0  0  0  0  0  0  0  0  0  0
  142.9046  133.6944  150.8390 H   0  0  0  0  0  0  0  0  0  0  0  0
  144.5329  131.5666  150.1754 H   0  0  0  0  0  0  0  0  0  0  0  0
  145.0267  133.2469  149.9697 H   0  0  0  0  0  0  0  0  0  0  0  0
  145.6649  131.4205  152.2999 H   0  0  0  0  0  0  0  0  0  0  0  0
  146.7911  132.4292  151.3896 H   0  0  0  0  0  0  0  0  0  0  0  0
  145.8406  134.4520  152.2892 H   0  0  0  0  0  0  0  0  0  0  0  0
  145.5310  134.0253  154.8573 H   0  0  0  0  0  0  0  0  0  0  0  0
  145.7029  132.3343  154.5082 H   0  0  0  0  0  0  0  0  0  0  0  0
  148.3224  131.5333  154.1021 H   0  0  0  0  0  0  0  0  0  0  0  0
  149.2411  132.8327  153.3293 H   0  0  0  0  0  0  0  0  0  0  0  0
  147.7750  132.2213  152.5701 H   0  0  0  0  0  0  0  0  0  0  0  0
  150.3658  132.5026  157.3550 H   0  0  0  0  0  0  0  0  0  0  0  0
  146.2137  137.4231  157.4988 H   0  0  0  0  0  0  0  0  0  0  0  0
  149.2524  136.5433  159.5390 H   0  0  0  0  0  0  0  0  0  0  0  0
  148.0090  137.7504  159.3493 H   0  0  0  0  0  0  0  0  0  0  0  0
  146.8977  136.8709  162.3169 H   0  0  0  0  0  0  0  0  0  0  0  0
  145.5102  137.0681  160.1999 H   0  0  0  0  0  0  0  0  0  0  0  0
  145.7222  135.5399  159.3854 H   0  0  0  0  0  0  0  0  0  0  0  0
  145.1419  135.8775  162.3730 H   0  0  0  0  0  0  0  0  0  0  0  0
  144.0578  135.2515  161.1498 H   0  0  0  0  0  0  0  0  0  0  0  0
  147.0575  134.5325  163.0138 H   0  0  0  0  0  0  0  0  0  0  0  0
  147.2906  132.9851  162.2299 H   0  0  0  0  0  0  0  0  0  0  0  0
  147.8843  134.0397  160.1052 H   0  0  0  0  0  0  0  0  0  0  0  0
  148.9144  134.6836  161.3598 H   0  0  0  0  0  0  0  0  0  0  0  0
  143.6404  133.0460  153.4701 H   0  0  0  0  0  0  0  0  0  0  0  0
  1  2  1  0  0  0  0
  1 28  1  0  0  0  0
  1 29  1  0  0  0  0
  1 30  1  0  0  0  0
  2  3  1  0  0  0  0
  2 31  1  0  0  0  0
  2 32  1  0  0  0  0
  3  7  1  0  0  0  0
  3  4  1  0  0  0  0
  3 58  1  0  0  0  0
  4  5  1  0  0  0  0
  4 33  1  0  0  0  0
  4 34  1  0  0  0  0
  5  6  1  0  0  0  0
  5 35  1  0  0  0  0
  5 36  1  0  0  0  0
  6  7  1  0  0  0  0
  6 37  1  0  0  0  0
  6 38  1  0  0  0  0
  7  8  1  0  0  0  0
  7 39  1  0  0  0  0
  8  9  1  0  0  0  0
  8 40  1  0  0  0  0
  8 41  1  0  0  0  0
  9 10  1  0  0  0  0
  9 11  1  0  0  0  0
 10 42  1  0  0  0  0
 10 43  1  0  0  0  0
 10 44  1  0  0  0  0
 11 16  1  0  0  0  0
 11 12  2  0  0  0  0
 12 13  1  0  0  0  0
 13 14  2  0  0  0  0
 13 45  1  0  0  0  0
 14 15  1  0  0  0  0
 15 19  1  0  0  0  0
 15 16  2  0  0  0  0
 16 17  1  0  0  0  0
 17 18  2  0  0  0  0
 18 19  1  0  0  0  0
 18 46  1  0  0  0  0
 19 20  1  0  0  0  0
 20 21  1  0  0  0  0
 20 47  1  0  0  0  0
 20 48  1  0  0  0  0
 21 27  1  0  0  0  0
 21 22  1  0  0  0  0
 21 23  1  0  0  0  0
 22 49  1  0  0  0  0
 23 24  1  0  0  0  0
 23 50  1  0  0  0  0
 23 51  1  0  0  0  0
 24 25  1  0  0  0  0
 24 52  1  0  0  0  0
 24 53  1  0  0  0  0
 25 26  1  0  0  0  0
 26 27  1  0  0  0  0
 26 54  1  0  0  0  0
 26 55  1  0  0  0  0
 27 56  1  0  0  0  0
 27 57  1  0  0  0  0
M  CHG  1   3   1
M  END
> <s_m_source_file>
AV-unprocessed.smi

> <i_m_source_file_index>
152

> <i_lp_mmshare_version>
43012

> <i_f3d_flags>
0

> <s_epik_input>
W0NIM11bQ0gyXU4xW0NIMl1bQ0gyXVtDSDJdW0NASF0xW0NIMl1OKFtDSDNdKWMobltjSF1uMiljKGMyMyluW2NIXW4zW0NIMl1DNChbT0hdKVtDSDJdW0NIMl1PW0NIMl1bQ0gyXTQ=

> <s_epik_cmdline>
J2VwaWtfcHl0aG9uJywgJy1waCcsICc3LjAnLCAnLXRuJywgJzgnLCAnLW1hJywgJzIwMCcsICctbWV0YWxfYmluZGluZycsICctaW1hZScsICc8aW5maWxlLm1hZT4nLCAnLW9tYWUnLCAnPG91dGZpbGUubWFlPic=

> <r_lp_tautomer_probability>
1

> <r_epik_Ionization_Penalty>
0.00152183

> <r_epik_Ionization_Penalty_Charging>
0.00112577

> <r_epik_Ionization_Penalty_Neutral>
0.000396066

> <r_epik_State_Penalty>
-0

> <r_epik_Charging_Adjusted_Penalty>
0.00112577

> <i_epik_Tot_Q>
1

> <i_epik_Tot_abs_Q>
1

> <r_epik_Metal_State_Penalty>
-0

> <b_epik_Metal_Only>
0

> <s_lp_Force_Field>
OPLS_2005

> <r_lp_Energy>
45.0855

> <b_lp_Chiralities_Consistent>
1

> <s_lp_Variant>
AV-unprocessed.smi:152-4

> <Gold.Version>
5.8.1

> <Gold.Id.Protein>
6NUR|6NUR_protein|mol2

> <Gold.PLP.Fitness>
46.4921

> <Gold.PLP.PLP>
-33.4149

> <Gold.PLP.part.hbond>
-4.0000

> <Gold.PLP.part.metal>
0.0000

> <Gold.PLP.part.buried>
-6.4928

> <Gold.PLP.part.nonpolar>
-23.3432

> <Gold.PLP.part.repulsive>
0.0707

> <Gold.PLP.ligand.clash>
0.0000

> <Gold.PLP.ligand.torsion>
0.9222

> <Gold.PLP.Chemscore.Hbond>
4.7280

> <Gold.PLP.Chemscore.CHOScore>
0.0000

> <Gold.PLP.Chemscore.Metal>
0.0000

> <Gold.Chemscore.Hbonds>
donor molecule, donor type, donor heavy atom, donor atom, acceptor molecule, acceptor atom, score
      L1  H     3    58       P1 10957  1.79
      P1  H  6896  6908       L1    14  1.00
      P1  H  6931  6943       L1    22  1.00
      P1  H  6934  6947       L1    22  0.27

> <Gold.PLP.Chemscore.Internal.Correction>
0.7378

> <Gold.Rescore>
     Score         DG    S(hbond)    S(metal)    S(lipo)     H(rot)  DE(clash)    DE(int)     intcor
     16.13     -17.65       3.11        0.00      75.13       2.73       0.26       1.26       ----

> <Gold.Chemscore.Fitness>
16.1254

> <Gold.Chemscore.DG>
-17.6523

> <Gold.Chemscore.ZeroCoef>
-5.4800

> <Gold.Chemscore.Hbond>
3.1089

> <Gold.Chemscore.Metal>
0.0000

> <Gold.Chemscore.Lipo>
75.1265

> <Gold.Chemscore.Internal_Hbond>
0.0000

> <Gold.Chemscore.DEClash>
0.2639

> <Gold.Chemscore.DEInternal>
1.2630

> <Gold.Chemscore.Rot>
2.7348

> <Gold.Chemscore.Internal.Correction>
   9.000000E+99

> <Gold.Chemscore.Hbonds>
donor molecule, donor type, donor heavy atom, donor atom, acceptor molecule, acceptor atom, score
      L1  H     3    58       P1 10957  0.77
      P1  H  6896  6908       L1    14  0.74
      P1  H  6931  6943       L1    22  0.98
      P1  H  6934  6947       L1    22  0.02

> <Gold.Chemscore.Hbond.Weighted>
-10.3836

> <Gold.Chemscore.Metal.Weighted>
-0.0000

> <Gold.Chemscore.Lipo.Weighted>
-8.7898

> <Gold.Chemscore.Internal_Hbond.Weighted>
0.0000

> <Gold.Chemscore.DEClash.Weighted>
0.2639

> <Gold.Chemscore.DEInternal.Weighted>
1.2630

> <Gold.Chemscore.Rot.Weighted>
7.0010

> <Gold.Chemscore.Internal.Correction.Weighted>
   9.000000E+99

> <Gold.Protein.RotatedTorsions>
[ 6907 6896 6895 6894 ] final  143.02 input  -60.11 | X-H torsion
[ 7974 7965 7964 7962 ] final  152.37 input  175.53 | X-H torsion
[ 8008 7997 7996 7995 ] final -120.35 input   59.86 | X-H torsion
[ 10167 10162 10161 10158 ] final  112.66 input  -65.29 | X-H torsion
[ 10718 10713 10712 10709 ] final  155.95 input   66.30 | X-H torsion
[ 10763 10752 10751 10750 ] final  -56.38 input  -60.55 | X-H torsion
[ 11005 11000 10999 10996 ] final  102.19 input  -57.11 | X-H torsion

> <Gold.Protein.ActiveResidues>
 VAL166  LYS551  ARG553  GLY616  TRP617  ASP618  TYR619  PRO620  LYS621  CYS622 
 ASP623  PHE694  ASN695  SER759  ASP760  ASP761  ALA762  ILE779  LEU786  VAL792 
 PHE793  MET794  SER795  GLU796  ALA797  LYS798  CYS799  TRP800  GLU811  SER814 

> <Gold.Protein.RotatedAtoms>
  152.2115  133.4915  159.5112 H   0  0  0  0  0  0  0  0  0  0  0  0  # atno 6907 bound_to 6896
  150.6991  134.1461  159.4132 H   0  0  0  0  0  0  0  0  0  0  0  0  # atno 6908 bound_to 6896
  151.9380  135.0226  160.0584 H   0  0  0  0  0  0  0  0  0  0  0  0  # atno 6909 bound_to 6896
  144.8227  139.6660  143.6093 H   0  0  0  0  0  0  0  0  0  0  0  0  # atno 7974 bound_to 7965
  155.1304  140.0400  157.2773 H   0  0  0  0  0  0  0  0  0  0  0  0  # atno 8008 bound_to 7997
  154.6547  140.2577  155.7148 H   0  0  0  0  0  0  0  0  0  0  0  0  # atno 8009 bound_to 7997
  156.2593  140.2829  156.0995 H   0  0  0  0  0  0  0  0  0  0  0  0  # atno 8010 bound_to 7997
  139.6519  144.7128  151.2032 H   0  0  0  0  0  0  0  0  0  0  0  0  # atno 10167 bound_to 10162
  157.2115  131.0698  151.1966 H   0  0  0  0  0  0  0  0  0  0  0  0  # atno 10718 bound_to 10713
  154.2057  135.6403  153.5100 H   0  0  0  0  0  0  0  0  0  0  0  0  # atno 10763 bound_to 10752
  153.0001  135.5462  154.6268 H   0  0  0  0  0  0  0  0  0  0  0  0  # atno 10764 bound_to 10752
  154.5692  135.2915  155.0817 H   0  0  0  0  0  0  0  0  0  0  0  0  # atno 10765 bound_to 10752
  139.8776  134.9214  156.5021 H   0  0  0  0  0  0  0  0  0  0  0  0  # atno 11005 bound_to 11000
  146.2532  139.6246  142.9412 LP  0  0  0  0  0  0  0  0  0  0  0  0  # atno 17320 bound_to 7965
  145.5069  141.0436  143.2509 LP  0  0  0  0  0  0  0  0  0  0  0  0  # atno 17321 bound_to 7965
  140.7541  143.6136  150.8581 LP  0  0  0  0  0  0  0  0  0  0  0  0  # atno 17342 bound_to 10162
  139.9785  143.5977  152.2950 LP  0  0  0  0  0  0  0  0  0  0  0  0  # atno 17343 bound_to 10162
  157.3667  130.7160  149.6537 LP  0  0  0  0  0  0  0  0  0  0  0  0  # atno 17370 bound_to 10713
  155.9690  130.4210  150.4450 LP  0  0  0  0  0  0  0  0  0  0  0  0  # atno 17371 bound_to 10713
  140.8582  133.8080  155.9237 LP  0  0  0  0  0  0  0  0  0  0  0  0  # atno 17394 bound_to 11000
  140.9076  134.2300  157.5005 LP  0  0  0  0  0  0  0  0  0  0  0  0  # atno 17395 bound_to 11000

$$$$
