AV-unprocessed.smi:290|AV-procd|sdf|2217|dock6
  -GOLD-   2262022 53D 1   1.00000     0.00000
 Structure written by MMmdl.
 59 62  0  0  0  0  0  0  0  0  2 V2000
  152.5258  142.8176  161.0622 C   0  0  0  0  0  0  0  0  0  0  0  0
  152.6789  143.0413  159.5489 C   0  0  2  0  0  0  0  0  0  0  0  0
  152.8364  144.4231  159.2603 O   0  0  0  0  0  0  0  0  0  0  0  0
  152.5783  144.5888  157.8783 C   0  0  0  0  0  0  0  0  0  0  0  0
  151.3331  143.7367  157.6651 C   0  0  0  0  0  0  0  0  0  0  0  0
  151.5105  142.5702  158.6422 C   0  0  2  0  0  0  0  0  0  0  0  0
  150.3042  142.4204  159.3734 O   0  0  0  0  0  0  0  0  0  0  0  0
  151.8034  141.2365  157.9114 C   0  0  0  0  0  0  0  0  0  0  0  0
  150.6936  140.7667  157.0955 N   0  0  0  0  0  0  0  0  0  0  0  0
  150.3292  141.2332  155.8528 C   0  0  0  0  0  0  0  0  0  0  0  0
  149.2876  140.6526  155.3232 N   0  0  0  0  0  0  0  0  0  0  0  0
  148.9045  139.7107  156.2709 C   0  0  0  0  0  0  0  0  0  0  0  0
  147.8632  138.7419  156.3525 C   0  0  0  0  0  0  0  0  0  0  0  0
  146.9244  138.5214  155.4059 N   0  0  0  0  0  0  0  0  0  0  0  0
  145.7296  137.8307  155.8885 C   0  0  0  0  0  0  0  0  0  0  0  0
  145.2587  136.9270  154.7443 C   0  0  0  0  0  0  0  0  0  0  0  0
  146.5774  136.6400  154.0208 C   0  0  1  0  0  0  0  0  0  0  0  0
  146.5146  136.0059  152.6668 N   0  3  1  0  0  0  0  0  0  0  0  0
  146.2322  134.5518  152.7596 C   0  0  0  0  0  0  0  0  0  0  0  0
  145.6420  136.6927  151.6729 C   0  0  0  0  0  0  0  0  0  0  0  0
  145.2942  135.8068  150.4627 C   0  0  0  0  0  0  0  0  0  0  0  0
  145.3243  136.5697  149.2752 O   0  0  0  0  0  0  0  0  0  0  0  0
  147.3405  137.9750  154.1149 C   0  0  1  0  0  0  0  0  0  0  0  0
  147.0466  139.0028  153.0092 C   0  0  0  0  0  0  0  0  0  0  0  0
  147.8196  137.9470  157.4493 N   0  0  0  0  0  0  0  0  0  0  0  0
  148.7208  138.1014  158.4240 C   0  0  0  0  0  0  0  0  0  0  0  0
  149.7335  138.9677  158.4943 N   0  0  0  0  0  0  0  0  0  0  0  0
  149.7895  139.7591  157.3850 C   0  0  0  0  0  0  0  0  0  0  0  0
  147.1295  135.9571  154.6690 H   0  0  0  0  0  0  0  0  0  0  0  0
  148.4124  137.7778  154.0913 H   0  0  0  0  0  0  0  0  0  0  0  0
  152.3880  141.7609  161.2926 H   0  0  0  0  0  0  0  0  0  0  0  0
  151.6740  143.3664  161.4649 H   0  0  0  0  0  0  0  0  0  0  0  0
  153.4149  143.1576  161.5934 H   0  0  0  0  0  0  0  0  0  0  0  0
  153.6033  142.5635  159.2225 H   0  0  0  0  0  0  0  0  0  0  0  0
  152.4228  145.6362  157.6186 H   0  0  0  0  0  0  0  0  0  0  0  0
  153.4193  144.2081  157.2962 H   0  0  0  0  0  0  0  0  0  0  0  0
  150.4547  144.3326  157.9199 H   0  0  0  0  0  0  0  0  0  0  0  0
  151.2213  143.4226  156.6267 H   0  0  0  0  0  0  0  0  0  0  0  0
  149.6145  142.1886  158.7706 H   0  0  0  0  0  0  0  0  0  0  0  0
  152.6794  141.3383  157.2692 H   0  0  0  0  0  0  0  0  0  0  0  0
  152.0483  140.4594  158.6366 H   0  0  0  0  0  0  0  0  0  0  0  0
  150.8612  142.0280  155.3503 H   0  0  0  0  0  0  0  0  0  0  0  0
  145.9709  137.2270  156.7653 H   0  0  0  0  0  0  0  0  0  0  0  0
  144.9578  138.5445  156.1784 H   0  0  0  0  0  0  0  0  0  0  0  0
  144.7591  136.0250  155.0985 H   0  0  0  0  0  0  0  0  0  0  0  0
  144.5568  137.4835  154.1242 H   0  0  0  0  0  0  0  0  0  0  0  0
  145.2353  134.3752  153.1651 H   0  0  0  0  0  0  0  0  0  0  0  0
  146.9554  134.0565  153.4082 H   0  0  0  0  0  0  0  0  0  0  0  0
  146.2978  134.0604  151.7904 H   0  0  0  0  0  0  0  0  0  0  0  0
  144.7278  137.0278  152.1650 H   0  0  0  0  0  0  0  0  0  0  0  0
  146.1254  137.5886  151.2888 H   0  0  0  0  0  0  0  0  0  0  0  0
  145.9586  134.9493  150.3670 H   0  0  0  0  0  0  0  0  0  0  0  0
  144.2870  135.4064  150.5818 H   0  0  0  0  0  0  0  0  0  0  0  0
  145.4750  135.9872  148.5456 H   0  0  0  0  0  0  0  0  0  0  0  0
  147.3310  138.6269  152.0272 H   0  0  0  0  0  0  0  0  0  0  0  0
  147.6152  139.9177  153.1778 H   0  0  0  0  0  0  0  0  0  0  0  0
  145.9929  139.2801  152.9806 H   0  0  0  0  0  0  0  0  0  0  0  0
  148.6150  137.4360  159.2685 H   0  0  0  0  0  0  0  0  0  0  0  0
  147.4536  136.0758  152.3008 H   0  0  0  0  0  0  0  0  0  0  0  0
  1  2  1  0  0  0  0
  1 31  1  0  0  0  0
  1 32  1  0  0  0  0
  1 33  1  0  0  0  0
  2  6  1  0  0  0  0
  2  3  1  0  0  0  0
  2 34  1  0  0  0  0
  3  4  1  0  0  0  0
  4  5  1  0  0  0  0
  4 35  1  0  0  0  0
  4 36  1  0  0  0  0
  5  6  1  0  0  0  0
  5 37  1  0  0  0  0
  5 38  1  0  0  0  0
  6  7  1  0  0  0  0
  6  8  1  0  0  0  0
  7 39  1  0  0  0  0
  8  9  1  0  0  0  0
  8 40  1  0  0  0  0
  8 41  1  0  0  0  0
  9 28  1  0  0  0  0
  9 10  1  0  0  0  0
 10 11  2  0  0  0  0
 10 42  1  0  0  0  0
 11 12  1  0  0  0  0
 12 28  2  0  0  0  0
 12 13  1  0  0  0  0
 13 14  1  0  0  0  0
 13 25  2  0  0  0  0
 14 23  1  0  0  0  0
 14 15  1  0  0  0  0
 15 16  1  0  0  0  0
 15 43  1  0  0  0  0
 15 44  1  0  0  0  0
 16 17  1  0  0  0  0
 16 45  1  0  0  0  0
 16 46  1  0  0  0  0
 17 29  1  0  0  0  0
 17 18  1  0  0  0  0
 17 23  1  0  0  0  0
 18 19  1  0  0  0  0
 18 20  1  0  0  0  0
 18 59  1  0  0  0  0
 19 47  1  0  0  0  0
 19 48  1  0  0  0  0
 19 49  1  0  0  0  0
 20 21  1  0  0  0  0
 20 50  1  0  0  0  0
 20 51  1  0  0  0  0
 21 22  1  0  0  0  0
 21 52  1  0  0  0  0
 21 53  1  0  0  0  0
 22 54  1  0  0  0  0
 23 30  1  0  0  0  0
 23 24  1  0  0  0  0
 24 55  1  0  0  0  0
 24 56  1  0  0  0  0
 24 57  1  0  0  0  0
 25 26  1  0  0  0  0
 26 27  2  0  0  0  0
 26 58  1  0  0  0  0
 27 28  1  0  0  0  0
M  CHG  1  18   1
M  END
> <s_m_source_file>
AV-unprocessed.smi

> <i_m_source_file_index>
290

> <i_lp_mmshare_version>
43012

> <i_f3d_flags>
0

> <s_epik_input>
W0NIMl0xW0NIMl1PW0NAQEhdKFtDSDNdKVtDQEBdMShbT0hdKVtDSDJdbihbY0hdbjIpYyhjMjMpbltjSF1uYzNONFtDSDJdW0NIMl1bQ0BIXShbQ0BIXTRbQ0gzXSlOKFtDSDNdKVtDSDJdW0NIMl1bT0hd

> <s_epik_cmdline>
J2VwaWtfcHl0aG9uJywgJy1waCcsICc3LjAnLCAnLXRuJywgJzgnLCAnLW1hJywgJzIwMCcsICctbWV0YWxfYmluZGluZycsICctaW1hZScsICc8aW5maWxlLm1hZT4nLCAnLW9tYWUnLCAnPG91dGZpbGUubWFlPic=

> <r_lp_tautomer_probability>
1

> <r_epik_Ionization_Penalty>
0.0036983

> <r_epik_Ionization_Penalty_Charging>
0.0032725

> <r_epik_Ionization_Penalty_Neutral>
0.000425798

> <r_epik_State_Penalty>
-0

> <r_epik_Charging_Adjusted_Penalty>
0.0032725

> <i_epik_Tot_Q>
1

> <i_epik_Tot_abs_Q>
1

> <r_epik_Metal_State_Penalty>
-0

> <b_epik_Metal_Only>
0

> <s_lp_Force_Field>
OPLS_2005

> <r_lp_Energy>
65.9865

> <b_lp_Chiralities_Consistent>
1

> <s_lp_Variant>
AV-unprocessed.smi:290-3

> <Gold.Version>
5.8.1

> <Gold.Id.Protein>
6NUR|6NUR_protein|mol2

> <Gold.PLP.Fitness>
46.6627

> <Gold.PLP.PLP>
-39.9326

> <Gold.PLP.part.hbond>
-3.9792

> <Gold.PLP.part.metal>
0.0000

> <Gold.PLP.part.buried>
-4.0987

> <Gold.PLP.part.nonpolar>
-32.3491

> <Gold.PLP.part.repulsive>
0.1100

> <Gold.PLP.ligand.clash>
0.0000

> <Gold.PLP.ligand.torsion>
1.3257

> <Gold.PLP.Chemscore.Hbond>
3.0000

> <Gold.PLP.Chemscore.CHOScore>
0.0000

> <Gold.PLP.Chemscore.Metal>
0.0000

> <Gold.Chemscore.Hbonds>
donor molecule, donor type, donor heavy atom, donor atom, acceptor molecule, acceptor atom, score
      L1  H    18    59       P1  7948  2.00
      L1  H    22    54       P1  7921  1.00

> <Gold.PLP.Chemscore.Internal.Correction>
0.3816

> <Gold.Rescore>
     Score         DG    S(hbond)    S(metal)    S(lipo)     H(rot)  DE(clash)    DE(int)     intcor
     11.98     -14.33       1.99        0.00      98.98       3.67       0.09       2.26       ----

> <Gold.Chemscore.Fitness>
11.9750

> <Gold.Chemscore.DG>
-14.3271

> <Gold.Chemscore.ZeroCoef>
-5.4800

> <Gold.Chemscore.Hbond>
1.9913

> <Gold.Chemscore.Metal>
0.0000

> <Gold.Chemscore.Lipo>
98.9809

> <Gold.Chemscore.Internal_Hbond>
0.0000

> <Gold.Chemscore.DEClash>
0.0882

> <Gold.Chemscore.DEInternal>
2.2639

> <Gold.Chemscore.Rot>
3.6658

> <Gold.Chemscore.Internal.Correction>
   9.000000E+99

> <Gold.Chemscore.Hbonds>
donor molecule, donor type, donor heavy atom, donor atom, acceptor molecule, acceptor atom, score
      L1  H    18    59       P1  7948  0.96
      L1  H    22    54       P1  7921  0.98

> <Gold.Chemscore.Hbond.Weighted>
-6.6508

> <Gold.Chemscore.Metal.Weighted>
-0.0000

> <Gold.Chemscore.Lipo.Weighted>
-11.5808

> <Gold.Chemscore.Internal_Hbond.Weighted>
0.0000

> <Gold.Chemscore.DEClash.Weighted>
0.0882

> <Gold.Chemscore.DEInternal.Weighted>
2.2639

> <Gold.Chemscore.Rot.Weighted>
9.3844

> <Gold.Chemscore.Internal.Correction.Weighted>
   9.000000E+99

> <Gold.Protein.RotatedTorsions>
[ 6907 6896 6895 6894 ] final -103.45 input  -60.11 | X-H torsion
[ 7974 7965 7964 7962 ] final -112.74 input  175.53 | X-H torsion
[ 8008 7997 7996 7995 ] final   72.49 input   59.86 | X-H torsion
[ 10167 10162 10161 10158 ] final   58.44 input  -65.29 | X-H torsion
[ 10718 10713 10712 10709 ] final  136.33 input   66.30 | X-H torsion
[ 10763 10752 10751 10750 ] final  112.33 input  -60.55 | X-H torsion
[ 11005 11000 10999 10996 ] final -120.85 input  -57.11 | X-H torsion

> <Gold.Protein.ActiveResidues>
 VAL166  LYS551  ARG553  GLY616  TRP617  ASP618  TYR619  PRO620  LYS621  CYS622 
 ASP623  PHE694  ASN695  SER759  ASP760  ASP761  ALA762  ILE779  LEU786  VAL792 
 PHE793  MET794  SER795  GLU796  ALA797  LYS798  CYS799  TRP800  GLU811  SER814 

> <Gold.Protein.RotatedAtoms>
  150.7241  134.0427  159.3770 H   0  0  0  0  0  0  0  0  0  0  0  0  # atno 6907 bound_to 6896
  151.8401  135.0591  160.0456 H   0  0  0  0  0  0  0  0  0  0  0  0  # atno 6908 bound_to 6896
  152.2869  133.5488  159.5569 H   0  0  0  0  0  0  0  0  0  0  0  0  # atno 6909 bound_to 6896
  145.1404  140.8774  143.3705 H   0  0  0  0  0  0  0  0  0  0  0  0  # atno 7974 bound_to 7965
  155.7696  140.3484  155.5240 H   0  0  0  0  0  0  0  0  0  0  0  0  # atno 8008 bound_to 7997
  155.8834  140.1006  157.1490 H   0  0  0  0  0  0  0  0  0  0  0  0  # atno 8009 bound_to 7997
  154.4027  140.1318  156.4213 H   0  0  0  0  0  0  0  0  0  0  0  0  # atno 8010 bound_to 7997
  140.1872  144.4122  150.6587 H   0  0  0  0  0  0  0  0  0  0  0  0  # atno 10167 bound_to 10162
  157.4478  131.1063  151.0069 H   0  0  0  0  0  0  0  0  0  0  0  0  # atno 10718 bound_to 10713
  153.4763  135.3689  155.2418 H   0  0  0  0  0  0  0  0  0  0  0  0  # atno 10763 bound_to 10752
  154.8756  135.3943  154.3753 H   0  0  0  0  0  0  0  0  0  0  0  0  # atno 10764 bound_to 10752
  153.4349  135.7083  153.6271 H   0  0  0  0  0  0  0  0  0  0  0  0  # atno 10765 bound_to 10752
  141.0113  134.0260  157.3410 H   0  0  0  0  0  0  0  0  0  0  0  0  # atno 11005 bound_to 11000
  145.0539  139.3159  143.5915 LP  0  0  0  0  0  0  0  0  0  0  0  0  # atno 17320 bound_to 7965
  146.3505  139.9956  142.8681 LP  0  0  0  0  0  0  0  0  0  0  0  0  # atno 17321 bound_to 7965
  140.6480  143.2218  151.6142 LP  0  0  0  0  0  0  0  0  0  0  0  0  # atno 17342 bound_to 10162
  139.5271  144.3027  152.1060 LP  0  0  0  0  0  0  0  0  0  0  0  0  # atno 17343 bound_to 10162
  157.0910  130.5942  149.5439 LP  0  0  0  0  0  0  0  0  0  0  0  0  # atno 17370 bound_to 10713
  155.9974  130.5046  150.7534 LP  0  0  0  0  0  0  0  0  0  0  0  0  # atno 17371 bound_to 10713
  139.9091  135.0186  156.7617 LP  0  0  0  0  0  0  0  0  0  0  0  0  # atno 17394 bound_to 11000
  140.6728  133.9544  155.7866 LP  0  0  0  0  0  0  0  0  0  0  0  0  # atno 17395 bound_to 11000

$$$$
