AV-unprocessed.smi:2228|AV-procd|sdf|9023|dock1
  -GOLD-   2272012223D 1   1.00000     0.00000
 Structure written by MMmdl.
 40 41  0  0  0  0  0  0  0  0  1 V2000
  150.9968  137.7784  154.4044 C   0  0  0  0  0  0  0  0  0  0  0  0
  150.4949  138.9496  153.7805 O   0  0  0  0  0  0  0  0  0  0  0  0
  149.3920  139.5335  154.4605 C   0  0  2  0  0  0  0  0  0  0  0  0
  148.1119  138.7862  154.0727 C   0  0  0  0  0  0  0  0  0  0  0  0
  147.0082  139.8312  154.1883 C   0  0  0  0  0  0  0  0  0  0  0  0
  147.6641  141.1084  153.6672 C   0  0  0  0  0  0  0  0  0  0  0  0
  149.1469  141.0110  154.0692 C   0  0  1  0  0  0  0  0  0  0  0  0
  149.4163  141.8971  155.2007 N   0  0  0  0  0  0  0  0  0  0  0  0
  150.3971  141.7440  156.1020 C   0  0  0  0  0  0  0  0  0  0  0  0
  151.2084  140.8183  156.0771 O   0  0  0  0  0  0  0  0  0  0  0  0
  150.3668  142.7262  157.0202 N   0  0  0  0  0  0  0  0  0  0  0  0
  151.2208  142.9077  158.1406 C   0  0  0  0  0  0  0  0  0  0  0  0
  151.1089  144.1615  158.7827 C   0  0  0  0  0  0  0  0  0  0  0  0
  151.9101  144.4397  159.9086 C   0  0  0  0  0  0  0  0  0  0  0  0
  151.8024  145.7749  160.6148 C   0  0  0  0  0  0  0  0  0  0  0  0
  152.8050  143.4521  160.3625 C   0  0  0  0  0  0  0  0  0  0  0  0
  152.8558  142.2297  159.6644 C   0  0  0  0  0  0  0  0  0  0  0  0
  153.7924  141.1223  160.0995 C   0  0  0  0  0  0  0  0  0  0  0  0
  152.0874  141.9644  158.5864 N   0  0  0  0  0  0  0  0  0  0  0  0
  151.8071  137.3654  153.8039 H   0  0  0  0  0  0  0  0  0  0  0  0
  150.2240  137.0141  154.4941 H   0  0  0  0  0  0  0  0  0  0  0  0
  151.3951  137.9903  155.3963 H   0  0  0  0  0  0  0  0  0  0  0  0
  149.5228  139.4342  155.5402 H   0  0  0  0  0  0  0  0  0  0  0  0
  148.1765  138.4487  153.0370 H   0  0  0  0  0  0  0  0  0  0  0  0
  147.9320  137.9096  154.6955 H   0  0  0  0  0  0  0  0  0  0  0  0
  146.1115  139.5607  153.6300 H   0  0  0  0  0  0  0  0  0  0  0  0
  146.7275  139.9587  155.2345 H   0  0  0  0  0  0  0  0  0  0  0  0
  147.5887  141.1296  152.5791 H   0  0  0  0  0  0  0  0  0  0  0  0
  147.1707  142.0078  154.0384 H   0  0  0  0  0  0  0  0  0  0  0  0
  149.7552  141.2794  153.2036 H   0  0  0  0  0  0  0  0  0  0  0  0
  148.8007  142.6904  155.3045 H   0  0  0  0  0  0  0  0  0  0  0  0
  149.6435  143.4211  156.9097 H   0  0  0  0  0  0  0  0  0  0  0  0
  150.4141  144.9048  158.4185 H   0  0  0  0  0  0  0  0  0  0  0  0
  152.5407  145.8632  161.4123 H   0  0  0  0  0  0  0  0  0  0  0  0
  150.8108  145.8900  161.0532 H   0  0  0  0  0  0  0  0  0  0  0  0
  151.9642  146.5906  159.9096 H   0  0  0  0  0  0  0  0  0  0  0  0
  153.4349  143.6257  161.2230 H   0  0  0  0  0  0  0  0  0  0  0  0
  154.4518  141.4539  160.9019 H   0  0  0  0  0  0  0  0  0  0  0  0
  154.4125  140.7973  159.2635 H   0  0  0  0  0  0  0  0  0  0  0  0
  153.2221  140.2653  160.4588 H   0  0  0  0  0  0  0  0  0  0  0  0
  1  2  1  0  0  0  0
  1 20  1  0  0  0  0
  1 21  1  0  0  0  0
  1 22  1  0  0  0  0
  2  3  1  0  0  0  0
  3  7  1  0  0  0  0
  3  4  1  0  0  0  0
  3 23  1  0  0  0  0
  4  5  1  0  0  0  0
  4 24  1  0  0  0  0
  4 25  1  0  0  0  0
  5  6  1  0  0  0  0
  5 26  1  0  0  0  0
  5 27  1  0  0  0  0
  6  7  1  0  0  0  0
  6 28  1  0  0  0  0
  6 29  1  0  0  0  0
  7  8  1  0  0  0  0
  7 30  1  0  0  0  0
  8  9  1  0  0  0  0
  8 31  1  0  0  0  0
  9 10  2  0  0  0  0
  9 11  1  0  0  0  0
 11 12  1  0  0  0  0
 11 32  1  0  0  0  0
 12 19  1  0  0  0  0
 12 13  2  0  0  0  0
 13 14  1  0  0  0  0
 13 33  1  0  0  0  0
 14 15  1  0  0  0  0
 14 16  2  0  0  0  0
 15 34  1  0  0  0  0
 15 35  1  0  0  0  0
 15 36  1  0  0  0  0
 16 17  1  0  0  0  0
 16 37  1  0  0  0  0
 17 18  1  0  0  0  0
 17 19  2  0  0  0  0
 18 38  1  0  0  0  0
 18 39  1  0  0  0  0
 18 40  1  0  0  0  0
M  END
> <s_m_source_file>
AV-unprocessed.smi

> <i_m_source_file_index>
2228

> <i_lp_mmshare_version>
43012

> <i_f3d_flags>
0

> <s_epik_input>
W0NIM11PW0NAQEhdMVtDSDJdW0NIMl1bQ0gyXVtDQEhdMVtOSF1DKD1PKVtOSF1jMltjSF1jKFtDSDNdKVtjSF1jKG4yKVtDSDNd

> <s_epik_cmdline>
J2VwaWtfcHl0aG9uJywgJy1waCcsICc3LjAnLCAnLXRuJywgJzgnLCAnLW1hJywgJzIwMCcsICctbWV0YWxfYmluZGluZycsICctaW1hZScsICc8aW5maWxlLm1hZT4nLCAnLW9tYWUnLCAnPG91dGZpbGUubWFlPic=

> <r_lp_tautomer_probability>
1

> <r_epik_Ionization_Penalty>
0.000275391

> <r_epik_Ionization_Penalty_Charging>
0

> <r_epik_Ionization_Penalty_Neutral>
0.000275391

> <r_epik_State_Penalty>
-0

> <r_epik_Charging_Adjusted_Penalty>
0

> <i_epik_Tot_Q>
0

> <i_epik_Tot_abs_Q>
0

> <r_epik_Metal_State_Penalty>
-0

> <b_epik_Metal_Only>
0

> <s_lp_Force_Field>
OPLS_2005

> <r_lp_Energy>
20.5825

> <b_lp_Chiralities_Consistent>
1

> <s_lp_Variant>
AV-unprocessed.smi:2228-1

> <Gold.Version>
5.8.1

> <Gold.Id.Protein>
6NUR|6NUR_protein|mol2

> <Gold.PLP.Fitness>
46.8030

> <Gold.PLP.PLP>
-41.5155

> <Gold.PLP.part.hbond>
-2.4017

> <Gold.PLP.part.metal>
0.0000

> <Gold.PLP.part.buried>
-2.7083

> <Gold.PLP.part.nonpolar>
-37.2813

> <Gold.PLP.part.repulsive>
1.4034

> <Gold.PLP.ligand.clash>
0.0000

> <Gold.PLP.ligand.torsion>
0.5558

> <Gold.PLP.Chemscore.Hbond>
2.1298

> <Gold.PLP.Chemscore.CHOScore>
0.0000

> <Gold.PLP.Chemscore.Metal>
0.0000

> <Gold.Chemscore.Hbonds>
donor molecule, donor type, donor heavy atom, donor atom, acceptor molecule, acceptor atom, score
      L1  H     8    31       P1  8028  0.77
      L1  H    11    32       P1  8028  0.88
      P1  H  7989  7998       L1     2  0.42

> <Gold.PLP.Chemscore.Internal.Correction>
0.0097

> <Gold.Rescore>
     Score         DG    S(hbond)    S(metal)    S(lipo)     H(rot)  DE(clash)    DE(int)     intcor
     16.42     -21.58       1.96        0.00     108.28       1.21       1.31       3.85       ----

> <Gold.Chemscore.Fitness>
16.4153

> <Gold.Chemscore.DG>
-21.5824

> <Gold.Chemscore.ZeroCoef>
-5.4800

> <Gold.Chemscore.Hbond>
1.9569

> <Gold.Chemscore.Metal>
0.0000

> <Gold.Chemscore.Lipo>
108.2826

> <Gold.Chemscore.Internal_Hbond>
0.0000

> <Gold.Chemscore.DEClash>
1.3122

> <Gold.Chemscore.DEInternal>
3.8549

> <Gold.Chemscore.Rot>
1.2119

> <Gold.Chemscore.Internal.Correction>
   9.000000E+99

> <Gold.Chemscore.Hbonds>
donor molecule, donor type, donor heavy atom, donor atom, acceptor molecule, acceptor atom, score
      L1  H     8    31       P1  8028  0.73
      L1  H    11    32       P1  8028  0.85
      P1  H  7989  7998       L1     2  0.07

> <Gold.Chemscore.Hbond.Weighted>
-6.5359

> <Gold.Chemscore.Metal.Weighted>
-0.0000

> <Gold.Chemscore.Lipo.Weighted>
-12.6691

> <Gold.Chemscore.Internal_Hbond.Weighted>
0.0000

> <Gold.Chemscore.DEClash.Weighted>
1.3122

> <Gold.Chemscore.DEInternal.Weighted>
3.8549

> <Gold.Chemscore.Rot.Weighted>
3.1026

> <Gold.Chemscore.Internal.Correction.Weighted>
   9.000000E+99

> <Gold.Protein.RotatedTorsions>
[ 6907 6896 6895 6894 ] final   63.26 input  -60.11 | X-H torsion
[ 7974 7965 7964 7962 ] final -134.70 input  175.53 | X-H torsion
[ 8008 7997 7996 7995 ] final  -56.16 input   59.86 | X-H torsion
[ 10167 10162 10161 10158 ] final   22.71 input  -65.29 | X-H torsion
[ 10718 10713 10712 10709 ] final  -50.51 input   66.30 | X-H torsion
[ 10763 10752 10751 10750 ] final  166.10 input  -60.55 | X-H torsion
[ 11005 11000 10999 10996 ] final -115.82 input  -57.11 | X-H torsion

> <Gold.Protein.ActiveResidues>
 VAL166  LYS551  ARG553  GLY616  TRP617  ASP618  TYR619  PRO620  LYS621  CYS622 
 ASP623  PHE694  ASN695  SER759  ASP760  ASP761  ALA762  ILE779  LEU786  VAL792 
 PHE793  MET794  SER795  GLU796  ALA797  LYS798  CYS799  TRP800  GLU811  SER814 

> <Gold.Protein.RotatedAtoms>
  152.4239  134.5905  159.9972 H   0  0  0  0  0  0  0  0  0  0  0  0  # atno 6907 bound_to 6896
  151.6047  133.3347  159.3062 H   0  0  0  0  0  0  0  0  0  0  0  0  # atno 6908 bound_to 6896
  150.8128  134.7330  159.6768 H   0  0  0  0  0  0  0  0  0  0  0  0  # atno 6909 bound_to 6896
  144.9079  140.6857  143.5043 H   0  0  0  0  0  0  0  0  0  0  0  0  # atno 7974 bound_to 7965
  154.4220  140.1136  156.5593 H   0  0  0  0  0  0  0  0  0  0  0  0  # atno 8008 bound_to 7997
  155.6328  140.3496  155.4669 H   0  0  0  0  0  0  0  0  0  0  0  0  # atno 8009 bound_to 7997
  155.9934  140.1184  157.0606 H   0  0  0  0  0  0  0  0  0  0  0  0  # atno 8010 bound_to 7997
  140.5327  143.9814  150.6474 H   0  0  0  0  0  0  0  0  0  0  0  0  # atno 10167 bound_to 10162
  156.1794  130.4150  149.9529 H   0  0  0  0  0  0  0  0  0  0  0  0  # atno 10718 bound_to 10713
  154.3340  135.2754  155.2457 H   0  0  0  0  0  0  0  0  0  0  0  0  # atno 10763 bound_to 10752
  154.4757  135.5871  153.6357 H   0  0  0  0  0  0  0  0  0  0  0  0  # atno 10764 bound_to 10752
  152.9864  135.6099  154.3535 H   0  0  0  0  0  0  0  0  0  0  0  0  # atno 10765 bound_to 10752
  141.0463  133.9758  157.2912 H   0  0  0  0  0  0  0  0  0  0  0  0  # atno 11005 bound_to 11000
  145.3503  139.1708  143.4438 LP  0  0  0  0  0  0  0  0  0  0  0  0  # atno 17320 bound_to 7965
  146.3143  140.3555  142.8660 LP  0  0  0  0  0  0  0  0  0  0  0  0  # atno 17321 bound_to 7965
  140.3193  143.3147  152.0800 LP  0  0  0  0  0  0  0  0  0  0  0  0  # atno 17342 bound_to 10162
  139.4960  144.6584  151.6519 LP  0  0  0  0  0  0  0  0  0  0  0  0  # atno 17343 bound_to 10162
  156.7304  130.9041  151.3625 LP  0  0  0  0  0  0  0  0  0  0  0  0  # atno 17370 bound_to 10713
  157.6858  130.9184  150.0382 LP  0  0  0  0  0  0  0  0  0  0  0  0  # atno 17371 bound_to 10713
  139.9314  135.0199  156.8413 LP  0  0  0  0  0  0  0  0  0  0  0  0  # atno 17394 bound_to 11000
  140.6141  134.0055  155.7589 LP  0  0  0  0  0  0  0  0  0  0  0  0  # atno 17395 bound_to 11000

$$$$
