AV-unprocessed.smi:1113|AV-procd|sdf|4798|dock6
  -GOLD-   22720 3343D 1   1.00000     0.00000
 Structure written by MMmdl.
 40 41  0  0  0  0  0  0  0  0  1 V2000
  145.4362  135.6594  150.8013 C   0  0  0  0  0  0  0  0  0  0  0  0
  145.2154  136.7058  151.9012 C   0  0  2  0  0  0  0  0  0  0  0  0
  143.8292  136.9742  151.9599 O   0  0  0  0  0  0  0  0  0  0  0  0
  145.9667  138.0183  151.6053 C   0  0  0  0  0  0  0  0  0  0  0  0
  147.2486  138.0755  152.3000 N   0  0  0  0  0  0  0  0  0  0  0  0
  147.6036  139.0156  153.1868 C   0  0  0  0  0  0  0  0  0  0  0  0
  146.8668  139.9414  153.5261 O   0  0  0  0  0  0  0  0  0  0  0  0
  148.8592  138.8199  153.6236 N   0  0  0  0  0  0  0  0  0  0  0  0
  149.5996  139.5869  154.5631 C   0  0  0  0  0  0  0  0  0  0  0  0
  150.9500  139.3402  154.9072 C   0  0  0  0  0  0  0  0  0  0  0  0
  151.5800  140.1874  155.8388 C   0  0  0  0  0  0  0  0  0  0  0  0
  150.8463  141.2567  156.3921 C   0  0  0  0  0  0  0  0  0  0  0  0
  151.4714  142.1031  157.3186 N   0  0  0  0  0  0  0  0  0  0  0  0
  150.5935  143.1456  157.8360 C   0  0  0  0  0  0  0  0  0  0  0  0
  151.3877  144.0992  158.7455 C   0  0  0  0  0  0  0  0  0  0  0  0
  152.0183  143.3550  159.7842 O   0  0  0  0  0  0  0  0  0  0  0  0
  152.9312  142.3887  159.2707 C   0  0  0  0  0  0  0  0  0  0  0  0
  152.1758  141.3901  158.3769 C   0  0  0  0  0  0  0  0  0  0  0  0
  149.5579  141.5056  156.0587 N   0  0  0  0  0  0  0  0  0  0  0  0
  148.9601  140.6902  155.1645 C   0  0  0  0  0  0  0  0  0  0  0  0
  146.4911  135.3952  150.7212 H   0  0  0  0  0  0  0  0  0  0  0  0
  145.1112  136.0283  149.8278 H   0  0  0  0  0  0  0  0  0  0  0  0
  144.8840  134.7431  151.0130 H   0  0  0  0  0  0  0  0  0  0  0  0
  145.5353  136.2846  152.8553 H   0  0  0  0  0  0  0  0  0  0  0  0
  143.6062  137.5587  151.2519 H   0  0  0  0  0  0  0  0  0  0  0  0
  146.1451  138.1136  150.5326 H   0  0  0  0  0  0  0  0  0  0  0  0
  145.3647  138.8830  151.8878 H   0  0  0  0  0  0  0  0  0  0  0  0
  147.9202  137.3569  152.0724 H   0  0  0  0  0  0  0  0  0  0  0  0
  149.3668  138.0640  153.1875 H   0  0  0  0  0  0  0  0  0  0  0  0
  151.5174  138.5345  154.4681 H   0  0  0  0  0  0  0  0  0  0  0  0
  152.6099  140.0200  156.1183 H   0  0  0  0  0  0  0  0  0  0  0  0
  150.1496  143.6999  157.0082 H   0  0  0  0  0  0  0  0  0  0  0  0
  149.7752  142.6943  158.3988 H   0  0  0  0  0  0  0  0  0  0  0  0
  152.1360  144.6498  158.1728 H   0  0  0  0  0  0  0  0  0  0  0  0
  150.7208  144.8373  159.1910 H   0  0  0  0  0  0  0  0  0  0  0  0
  153.7272  142.8852  158.7133 H   0  0  0  0  0  0  0  0  0  0  0  0
  153.4028  141.8668  160.1032 H   0  0  0  0  0  0  0  0  0  0  0  0
  151.4645  140.8214  158.9777 H   0  0  0  0  0  0  0  0  0  0  0  0
  152.8741  140.6755  157.9395 H   0  0  0  0  0  0  0  0  0  0  0  0
  147.9336  140.9265  154.9250 H   0  0  0  0  0  0  0  0  0  0  0  0
  1  2  1  0  0  0  0
  1 21  1  0  0  0  0
  1 22  1  0  0  0  0
  1 23  1  0  0  0  0
  2  3  1  0  0  0  0
  2  4  1  0  0  0  0
  2 24  1  0  0  0  0
  3 25  1  0  0  0  0
  4  5  1  0  0  0  0
  4 26  1  0  0  0  0
  4 27  1  0  0  0  0
  5  6  1  0  0  0  0
  5 28  1  0  0  0  0
  6  7  2  0  0  0  0
  6  8  1  0  0  0  0
  8  9  1  0  0  0  0
  8 29  1  0  0  0  0
  9 20  1  0  0  0  0
  9 10  2  0  0  0  0
 10 11  1  0  0  0  0
 10 30  1  0  0  0  0
 11 12  2  0  0  0  0
 11 31  1  0  0  0  0
 12 13  1  0  0  0  0
 12 19  1  0  0  0  0
 13 18  1  0  0  0  0
 13 14  1  0  0  0  0
 14 15  1  0  0  0  0
 14 32  1  0  0  0  0
 14 33  1  0  0  0  0
 15 16  1  0  0  0  0
 15 34  1  0  0  0  0
 15 35  1  0  0  0  0
 16 17  1  0  0  0  0
 17 18  1  0  0  0  0
 17 36  1  0  0  0  0
 17 37  1  0  0  0  0
 18 38  1  0  0  0  0
 18 39  1  0  0  0  0
 19 20  2  0  0  0  0
 20 40  1  0  0  0  0
M  END
> <s_m_source_file>
AV-unprocessed.smi

> <i_m_source_file_index>
1113

> <i_lp_mmshare_version>
43012

> <i_f3d_flags>
0

> <s_epik_input>
W0NIM11bQ0BIXShbT0hdKVtDSDJdW05IXUMoPU8pW05IXWMxW2NIXVtjSF1jKG5bY0hdMSlOMltDSDJdW0NIMl1PW0NIMl1bQ0gyXTI=

> <s_epik_cmdline>
J2VwaWtfcHl0aG9uJywgJy1waCcsICc3LjAnLCAnLXRuJywgJzgnLCAnLW1hJywgJzIwMCcsICctbWV0YWxfYmluZGluZycsICctaW1hZScsICc8aW5maWxlLm1hZT4nLCAnLW9tYWUnLCAnPG91dGZpbGUubWFlPic=

> <r_lp_tautomer_probability>
1

> <r_epik_Ionization_Penalty>
0.00204837

> <r_epik_Ionization_Penalty_Charging>
0

> <r_epik_Ionization_Penalty_Neutral>
0.00204837

> <r_epik_State_Penalty>
0.00137592

> <r_epik_Charging_Adjusted_Penalty>
0.00137592

> <i_epik_Tot_Q>
0

> <i_epik_Tot_abs_Q>
0

> <r_epik_Metal_State_Penalty>
-0

> <b_epik_Metal_Only>
0

> <s_lp_Force_Field>
OPLS_2005

> <r_lp_Energy>
20.5006

> <b_lp_Chiralities_Consistent>
1

> <s_lp_Variant>
AV-unprocessed.smi:1113-1

> <Gold.Version>
5.8.1

> <Gold.Id.Protein>
6NUR|6NUR_protein|mol2

> <Gold.PLP.Fitness>
41.7943

> <Gold.PLP.PLP>
-35.9726

> <Gold.PLP.part.hbond>
-3.9558

> <Gold.PLP.part.metal>
0.0000

> <Gold.PLP.part.buried>
0.3487

> <Gold.PLP.part.nonpolar>
-33.5731

> <Gold.PLP.part.repulsive>
0.4546

> <Gold.PLP.ligand.clash>
0.0000

> <Gold.PLP.ligand.torsion>
0.6218

> <Gold.PLP.Chemscore.Hbond>
2.3163

> <Gold.PLP.Chemscore.CHOScore>
0.0000

> <Gold.PLP.Chemscore.Metal>
0.0000

> <Gold.Chemscore.Hbonds>
donor molecule, donor type, donor heavy atom, donor atom, acceptor molecule, acceptor atom, score
      L1  H     3    25       P1 10171  1.00
      L1  H     5    28       P1  7948  0.98
      L1  H     8    29       P1  7948  0.33

> <Gold.PLP.Chemscore.Internal.Correction>
0.1165

> <Gold.Rescore>
     Score         DG    S(hbond)    S(metal)    S(lipo)     H(rot)  DE(clash)    DE(int)     intcor
     14.89     -17.69       2.26        0.00      85.30       2.08       0.75       2.05       ----

> <Gold.Chemscore.Fitness>
14.8917

> <Gold.Chemscore.DG>
-17.6936

> <Gold.Chemscore.ZeroCoef>
-5.4800

> <Gold.Chemscore.Hbond>
2.2628

> <Gold.Chemscore.Metal>
0.0000

> <Gold.Chemscore.Lipo>
85.3031

> <Gold.Chemscore.Internal_Hbond>
0.0000

> <Gold.Chemscore.DEClash>
0.7485

> <Gold.Chemscore.DEInternal>
2.0534

> <Gold.Chemscore.Rot>
2.0799

> <Gold.Chemscore.Internal.Correction>
   9.000000E+99

> <Gold.Chemscore.Hbonds>
donor molecule, donor type, donor heavy atom, donor atom, acceptor molecule, acceptor atom, score
      L1  H     3    25       P1 10171  0.98
      L1  H     5    28       P1  7948  0.91
      L1  H     8    29       P1  7948  0.32

> <Gold.Chemscore.Hbond.Weighted>
-7.5578

> <Gold.Chemscore.Metal.Weighted>
-0.0000

> <Gold.Chemscore.Lipo.Weighted>
-9.9805

> <Gold.Chemscore.Internal_Hbond.Weighted>
0.0000

> <Gold.Chemscore.DEClash.Weighted>
0.7485

> <Gold.Chemscore.DEInternal.Weighted>
2.0534

> <Gold.Chemscore.Rot.Weighted>
5.3246

> <Gold.Chemscore.Internal.Correction.Weighted>
   9.000000E+99

> <Gold.Protein.RotatedTorsions>
[ 6907 6896 6895 6894 ] final  -49.09 input  -60.11 | X-H torsion
[ 7974 7965 7964 7962 ] final  -98.80 input  175.53 | X-H torsion
[ 8008 7997 7996 7995 ] final   36.53 input   59.86 | X-H torsion
[ 10167 10162 10161 10158 ] final -135.00 input  -65.29 | X-H torsion
[ 10718 10713 10712 10709 ] final  -23.08 input   66.30 | X-H torsion
[ 10763 10752 10751 10750 ] final  142.29 input  -60.55 | X-H torsion
[ 11005 11000 10999 10996 ] final  -33.08 input  -57.11 | X-H torsion

> <Gold.Protein.ActiveResidues>
 VAL166  LYS551  ARG553  GLY616  TRP617  ASP618  TYR619  PRO620  LYS621  CYS622 
 ASP623  PHE694  ASN695  SER759  ASP760  ASP761  ALA762  ILE779  LEU786  VAL792 
 PHE793  MET794  SER795  GLU796  ALA797  LYS798  CYS799  TRP800  GLU811  SER814 

> <Gold.Protein.RotatedAtoms>
  150.8840  134.8235  159.7245 H   0  0  0  0  0  0  0  0  0  0  0  0  # atno 6907 bound_to 6896
  152.4796  134.4751  159.9658 H   0  0  0  0  0  0  0  0  0  0  0  0  # atno 6908 bound_to 6896
  151.4822  133.3505  159.2875 H   0  0  0  0  0  0  0  0  0  0  0  0  # atno 6909 bound_to 6896
  145.3158  140.9411  143.2743 H   0  0  0  0  0  0  0  0  0  0  0  0  # atno 7974 bound_to 7965
  155.1888  140.3306  155.4362 H   0  0  0  0  0  0  0  0  0  0  0  0  # atno 8008 bound_to 7997
  156.2450  140.1914  156.6932 H   0  0  0  0  0  0  0  0  0  0  0  0  # atno 8009 bound_to 7997
  154.6220  140.0594  156.9612 H   0  0  0  0  0  0  0  0  0  0  0  0  # atno 8010 bound_to 7997
  139.8823  143.6824  152.2625 H   0  0  0  0  0  0  0  0  0  0  0  0  # atno 10167 bound_to 10162
  156.4959  130.4577  149.6729 H   0  0  0  0  0  0  0  0  0  0  0  0  # atno 10718 bound_to 10713
  153.9534  135.2967  155.3437 H   0  0  0  0  0  0  0  0  0  0  0  0  # atno 10763 bound_to 10752
  154.7414  135.5023  153.9132 H   0  0  0  0  0  0  0  0  0  0  0  0  # atno 10764 bound_to 10752
  153.0983  135.6727  153.9830 H   0  0  0  0  0  0  0  0  0  0  0  0  # atno 10765 bound_to 10752
  140.9605  133.7167  156.1362 H   0  0  0  0  0  0  0  0  0  0  0  0  # atno 11005 bound_to 11000
  144.8979  139.4688  143.6647 LP  0  0  0  0  0  0  0  0  0  0  0  0  # atno 17320 bound_to 7965
  146.3101  139.7715  142.9026 LP  0  0  0  0  0  0  0  0  0  0  0  0  # atno 17321 bound_to 7965
  139.7185  144.7607  151.0994 LP  0  0  0  0  0  0  0  0  0  0  0  0  # atno 17342 bound_to 10162
  140.7742  143.5238  150.9504 LP  0  0  0  0  0  0  0  0  0  0  0  0  # atno 17343 bound_to 10162
  156.3380  130.7367  151.2308 LP  0  0  0  0  0  0  0  0  0  0  0  0  # atno 17370 bound_to 10713
  157.7468  131.0411  150.4631 LP  0  0  0  0  0  0  0  0  0  0  0  0  # atno 17371 bound_to 10713
  140.7474  134.4083  157.5546 LP  0  0  0  0  0  0  0  0  0  0  0  0  # atno 17394 bound_to 11000
  139.8876  134.8877  156.2517 LP  0  0  0  0  0  0  0  0  0  0  0  0  # atno 17395 bound_to 11000

$$$$
