AV-unprocessed.smi:1005|AV-procd|sdf|4384|dock9
  -GOLD-   22720 2313D 1   1.00000     0.00000
 Structure written by MMmdl.
 58 60  0  0  0  0  0  0  0  0  4 V2000
  152.5865  142.5450  160.9912 C   0  0  0  0  0  0  0  0  0  0  0  0
  152.2046  141.9372  159.6521 C   0  0  0  0  0  0  0  0  0  0  0  0
  151.3160  142.6503  158.8164 C   0  0  0  0  0  0  0  0  0  0  0  0
  150.9823  142.0663  157.6001 C   0  0  0  0  0  0  0  0  0  0  0  0
  150.1446  142.5077  156.5740 N   0  3  0  0  0  0  0  0  0  0  0  0
  150.1285  141.5865  155.5717 C   0  0  0  0  0  0  0  0  0  0  0  0
  150.9403  140.5592  155.9438 N   0  0  0  0  0  0  0  0  0  0  0  0
  151.2731  139.3193  155.2259 C   0  0  0  0  0  0  0  0  0  0  0  0
  150.0360  138.4514  154.9191 C   0  0  2  0  0  0  0  0  0  0  0  0
  150.4261  137.3146  154.1730 O   0  0  0  0  0  0  0  0  0  0  0  0
  148.9788  139.2315  154.1115 C   0  0  0  0  0  0  0  0  0  0  0  0
  147.9706  138.3464  153.4726 N   0  3  2  0  0  0  0  0  0  0  0  0
  147.0754  139.0815  152.5489 C   0  0  0  0  0  0  0  0  0  0  0  0
  146.1032  138.1104  151.8606 C   0  0  0  0  0  0  0  0  0  0  0  0
  145.3643  137.4000  152.8470 O   0  0  0  0  0  0  0  0  0  0  0  0
  146.1999  136.6115  153.6887 C   0  0  2  0  0  0  0  0  0  0  0  0
  145.2947  135.8345  154.6633 C   0  0  0  0  0  0  0  0  0  0  0  0
  144.4442  134.8267  153.9789 N   0  3  0  0  0  0  0  0  0  0  0  0
  143.4157  135.4256  153.0969 C   0  0  0  0  0  0  0  0  0  0  0  0
  145.2487  133.8136  153.2605 C   0  0  0  0  0  0  0  0  0  0  0  0
  147.1718  137.5480  154.4356 C   0  0  0  0  0  0  0  0  0  0  0  0
  151.4999  140.8182  157.2017 C   0  0  0  0  0  0  0  0  0  0  0  0
  152.3794  140.1041  158.0124 C   0  0  0  0  0  0  0  0  0  0  0  0
  152.7307  140.6809  159.2539 C   0  0  0  0  0  0  0  0  0  0  0  0
  153.6867  139.9231  160.1595 C   0  0  0  0  0  0  0  0  0  0  0  0
  152.0635  143.4855  161.1666 H   0  0  0  0  0  0  0  0  0  0  0  0
  153.6572  142.7465  161.0276 H   0  0  0  0  0  0  0  0  0  0  0  0
  152.3331  141.8675  161.8070 H   0  0  0  0  0  0  0  0  0  0  0  0
  150.9124  143.6078  159.1121 H   0  0  0  0  0  0  0  0  0  0  0  0
  149.5716  141.6594  154.6484 H   0  0  0  0  0  0  0  0  0  0  0  0
  151.7585  139.6120  154.2940 H   0  0  0  0  0  0  0  0  0  0  0  0
  152.0192  138.7635  155.7945 H   0  0  0  0  0  0  0  0  0  0  0  0
  149.6159  138.1086  155.8641 H   0  0  0  0  0  0  0  0  0  0  0  0
  149.8435  137.2266  153.4335 H   0  0  0  0  0  0  0  0  0  0  0  0
  148.4704  139.9589  154.7463 H   0  0  0  0  0  0  0  0  0  0  0  0
  149.4927  139.8079  153.3402 H   0  0  0  0  0  0  0  0  0  0  0  0
  146.5191  139.8394  153.1031 H   0  0  0  0  0  0  0  0  0  0  0  0
  147.6652  139.6036  151.7945 H   0  0  0  0  0  0  0  0  0  0  0  0
  145.4082  138.6606  151.2258 H   0  0  0  0  0  0  0  0  0  0  0  0
  146.6394  137.4122  151.2156 H   0  0  0  0  0  0  0  0  0  0  0  0
  146.7802  135.9166  153.0809 H   0  0  0  0  0  0  0  0  0  0  0  0
  145.8909  135.3405  155.4321 H   0  0  0  0  0  0  0  0  0  0  0  0
  144.6601  136.5531  155.1846 H   0  0  0  0  0  0  0  0  0  0  0  0
  143.8771  136.0029  152.2947 H   0  0  0  0  0  0  0  0  0  0  0  0
  142.7458  136.0834  153.6490 H   0  0  0  0  0  0  0  0  0  0  0  0
  142.8009  134.6477  152.6428 H   0  0  0  0  0  0  0  0  0  0  0  0
  145.8295  134.2716  152.4587 H   0  0  0  0  0  0  0  0  0  0  0  0
  144.6058  133.0488  152.8232 H   0  0  0  0  0  0  0  0  0  0  0  0
  145.9383  133.3117  153.9402 H   0  0  0  0  0  0  0  0  0  0  0  0
  147.8275  136.9512  155.0683 H   0  0  0  0  0  0  0  0  0  0  0  0
  146.6181  138.2198  155.0938 H   0  0  0  0  0  0  0  0  0  0  0  0
  152.7785  139.1457  157.7149 H   0  0  0  0  0  0  0  0  0  0  0  0
  154.0491  139.0110  159.6848 H   0  0  0  0  0  0  0  0  0  0  0  0
  153.1899  139.6415  161.0881 H   0  0  0  0  0  0  0  0  0  0  0  0
  154.5543  140.5369  160.4025 H   0  0  0  0  0  0  0  0  0  0  0  0
  143.9532  134.3238  154.7047 H   0  0  0  0  0  0  0  0  0  0  0  0
  148.4910  137.6947  152.9018 H   0  0  0  0  0  0  0  0  0  0  0  0
  149.6231  143.3750  156.5554 H   0  0  0  0  0  0  0  0  0  0  0  0
  1  2  1  0  0  0  0
  1 26  1  0  0  0  0
  1 27  1  0  0  0  0
  1 28  1  0  0  0  0
  2 24  1  0  0  0  0
  2  3  2  0  0  0  0
  3  4  1  0  0  0  0
  3 29  1  0  0  0  0
  4 22  2  0  0  0  0
  4  5  1  0  0  0  0
  5  6  2  0  0  0  0
  5 58  1  0  0  0  0
  6  7  1  0  0  0  0
  6 30  1  0  0  0  0
  7  8  1  0  0  0  0
  7 22  1  0  0  0  0
  8  9  1  0  0  0  0
  8 31  1  0  0  0  0
  8 32  1  0  0  0  0
  9 10  1  0  0  0  0
  9 11  1  0  0  0  0
  9 33  1  0  0  0  0
 10 34  1  0  0  0  0
 11 12  1  0  0  0  0
 11 35  1  0  0  0  0
 11 36  1  0  0  0  0
 12 21  1  0  0  0  0
 12 13  1  0  0  0  0
 12 57  1  0  0  0  0
 13 14  1  0  0  0  0
 13 37  1  0  0  0  0
 13 38  1  0  0  0  0
 14 15  1  0  0  0  0
 14 39  1  0  0  0  0
 14 40  1  0  0  0  0
 15 16  1  0  0  0  0
 16 17  1  0  0  0  0
 16 21  1  0  0  0  0
 16 41  1  0  0  0  0
 17 18  1  0  0  0  0
 17 42  1  0  0  0  0
 17 43  1  0  0  0  0
 18 19  1  0  0  0  0
 18 20  1  0  0  0  0
 18 56  1  0  0  0  0
 19 44  1  0  0  0  0
 19 45  1  0  0  0  0
 19 46  1  0  0  0  0
 20 47  1  0  0  0  0
 20 48  1  0  0  0  0
 20 49  1  0  0  0  0
 21 50  1  0  0  0  0
 21 51  1  0  0  0  0
 22 23  1  0  0  0  0
 23 24  2  0  0  0  0
 23 52  1  0  0  0  0
 24 25  1  0  0  0  0
 25 53  1  0  0  0  0
 25 54  1  0  0  0  0
 25 55  1  0  0  0  0
M  CHG  1   5   1
M  CHG  1  12   1
M  CHG  1  18   1
M  END
> <s_m_source_file>
AV-unprocessed.smi

> <i_m_source_file_index>
1005

> <i_lp_mmshare_version>
43012

> <i_f3d_flags>
0

> <s_epik_input>
W0NIM11jKFtjSF0xKWMoW0NIM10pW2NIXWMoYzEyKW4oW2NIXW4yKVtDSDJdW0NASF0oW09IXSlbQ0gyXU4zW0NIMl1bQ0gyXU9bQ0BIXShbQ0gyXTMpW0NIMl1OKFtDSDNdKVtDSDNd

> <s_epik_cmdline>
J2VwaWtfcHl0aG9uJywgJy1waCcsICc3LjAnLCAnLXRuJywgJzgnLCAnLW1hJywgJzIwMCcsICctbWV0YWxfYmluZGluZycsICctaW1hZScsICc8aW5maWxlLm1hZT4nLCAnLW9tYWUnLCAnPG91dGZpbGUubWFlPic=

> <r_epik_Ionization_Penalty>
2.30802

> <r_epik_Ionization_Penalty_Charging>
2.30798

> <r_epik_Ionization_Penalty_Neutral>
3.4851e-05

> <r_epik_State_Penalty>
2.52618

> <r_epik_Charging_Adjusted_Penalty>
4.83416

> <i_epik_Tot_Q>
3

> <i_epik_Tot_abs_Q>
3

> <r_epik_Metal_State_Penalty>
6.53149

> <b_epik_Metal_Only>
0

> <s_lp_Force_Field>
OPLS_2005

> <r_lp_Energy>
42.4593

> <b_lp_Chiralities_Consistent>
1

> <s_lp_Variant>
AV-unprocessed.smi:1005-23

> <Gold.Version>
5.8.1

> <Gold.Id.Protein>
6NUR|6NUR_protein|mol2

> <Gold.PLP.Fitness>
58.4117

> <Gold.PLP.PLP>
-43.6477

> <Gold.PLP.part.hbond>
-4.2357

> <Gold.PLP.part.metal>
0.0000

> <Gold.PLP.part.buried>
-1.5067

> <Gold.PLP.part.nonpolar>
-38.1258

> <Gold.PLP.part.repulsive>
0.2954

> <Gold.PLP.ligand.clash>
0.0013

> <Gold.PLP.ligand.torsion>
0.1893

> <Gold.PLP.Chemscore.Hbond>
5.0000

> <Gold.PLP.Chemscore.CHOScore>
0.0000

> <Gold.PLP.Chemscore.Metal>
0.0000

> <Gold.Chemscore.Hbonds>
donor molecule, donor type, donor heavy atom, donor atom, acceptor molecule, acceptor atom, score
      L1  H     5    58       P1  8028  2.00
      L1  H    10    34       P1  7948  1.00
      L1  H    12    57       P1  7948  2.00

> <Gold.PLP.Chemscore.Internal.Correction>
0.1438

> <Gold.Rescore>
     Score         DG    S(hbond)    S(metal)    S(lipo)     H(rot)  DE(clash)    DE(int)     intcor
     17.78     -20.29       2.57        0.00     109.10       2.56       0.00       2.50       ----

> <Gold.Chemscore.Fitness>
17.7811

> <Gold.Chemscore.DG>
-20.2869

> <Gold.Chemscore.ZeroCoef>
-5.4800

> <Gold.Chemscore.Hbond>
2.5710

> <Gold.Chemscore.Metal>
0.0000

> <Gold.Chemscore.Lipo>
109.1007

> <Gold.Chemscore.Internal_Hbond>
0.0000

> <Gold.Chemscore.DEClash>
0.0044

> <Gold.Chemscore.DEInternal>
2.5015

> <Gold.Chemscore.Rot>
2.5566

> <Gold.Chemscore.Internal.Correction>
   9.000000E+99

> <Gold.Chemscore.Hbonds>
donor molecule, donor type, donor heavy atom, donor atom, acceptor molecule, acceptor atom, score
      L1  H     5    58       P1  8028  0.95
      L1  H    10    34       P1  7948  0.46
      L1  H    12    57       P1  7948  1.00

> <Gold.Chemscore.Hbond.Weighted>
-8.5871

> <Gold.Chemscore.Metal.Weighted>
-0.0000

> <Gold.Chemscore.Lipo.Weighted>
-12.7648

> <Gold.Chemscore.Internal_Hbond.Weighted>
0.0000

> <Gold.Chemscore.DEClash.Weighted>
0.0044

> <Gold.Chemscore.DEInternal.Weighted>
2.5015

> <Gold.Chemscore.Rot.Weighted>
6.5450

> <Gold.Chemscore.Internal.Correction.Weighted>
   9.000000E+99

> <Gold.Protein.RotatedTorsions>
[ 6907 6896 6895 6894 ] final  105.08 input  -60.11 | X-H torsion
[ 7974 7965 7964 7962 ] final -131.13 input  175.53 | X-H torsion
[ 8008 7997 7996 7995 ] final   43.63 input   59.86 | X-H torsion
[ 10167 10162 10161 10158 ] final  -32.20 input  -65.29 | X-H torsion
[ 10718 10713 10712 10709 ] final -131.33 input   66.30 | X-H torsion
[ 10763 10752 10751 10750 ] final  111.15 input  -60.55 | X-H torsion
[ 11005 11000 10999 10996 ] final  167.81 input  -57.11 | X-H torsion

> <Gold.Protein.ActiveResidues>
 VAL166  LYS551  ARG553  GLY616  TRP617  ASP618  TYR619  PRO620  LYS621  CYS622 
 ASP623  PHE694  ASN695  SER759  ASP760  ASP761  ALA762  ILE779  LEU786  VAL792 
 PHE793  MET794  SER795  GLU796  ALA797  LYS798  CYS799  TRP800  GLU811  SER814 

> <Gold.Protein.RotatedAtoms>
  152.5243  133.9581  159.7703 H   0  0  0  0  0  0  0  0  0  0  0  0  # atno 6907 bound_to 6896
  150.9877  133.6172  159.2720 H   0  0  0  0  0  0  0  0  0  0  0  0  # atno 6908 bound_to 6896
  151.3327  135.0851  159.9397 H   0  0  0  0  0  0  0  0  0  0  0  0  # atno 6909 bound_to 6896
  144.9409  140.7237  143.4847 H   0  0  0  0  0  0  0  0  0  0  0  0  # atno 7974 bound_to 7965
  155.3059  140.3388  155.4245 H   0  0  0  0  0  0  0  0  0  0  0  0  # atno 8008 bound_to 7997
  156.1979  140.1721  156.7999 H   0  0  0  0  0  0  0  0  0  0  0  0  # atno 8009 bound_to 7997
  154.5521  140.0703  156.8669 H   0  0  0  0  0  0  0  0  0  0  0  0  # atno 8010 bound_to 7997
  140.7225  143.3713  151.1773 H   0  0  0  0  0  0  0  0  0  0  0  0  # atno 10167 bound_to 10162
  156.2233  130.6992  151.0780 H   0  0  0  0  0  0  0  0  0  0  0  0  # atno 10718 bound_to 10713
  153.4591  135.3726  155.2328 H   0  0  0  0  0  0  0  0  0  0  0  0  # atno 10763 bound_to 10752
  154.8757  135.3904  154.3946 H   0  0  0  0  0  0  0  0  0  0  0  0  # atno 10764 bound_to 10752
  153.4517  135.7085  153.6169 H   0  0  0  0  0  0  0  0  0  0  0  0  # atno 10765 bound_to 10752
  140.2806  134.7753  157.3755 H   0  0  0  0  0  0  0  0  0  0  0  0  # atno 11005 bound_to 11000
  145.2993  139.1856  143.4698 LP  0  0  0  0  0  0  0  0  0  0  0  0  # atno 17320 bound_to 7965
  146.3285  140.2982  142.8619 LP  0  0  0  0  0  0  0  0  0  0  0  0  # atno 17321 bound_to 7965
  139.7284  143.9111  152.3011 LP  0  0  0  0  0  0  0  0  0  0  0  0  # atno 17342 bound_to 10162
  139.8892  144.6975  150.8790 LP  0  0  0  0  0  0  0  0  0  0  0  0  # atno 17343 bound_to 10162
  157.7098  131.0739  150.6540 LP  0  0  0  0  0  0  0  0  0  0  0  0  # atno 17370 bound_to 10713
  156.6604  130.4510  149.5689 LP  0  0  0  0  0  0  0  0  0  0  0  0  # atno 17371 bound_to 10713
  140.1287  134.5124  155.8124 LP  0  0  0  0  0  0  0  0  0  0  0  0  # atno 17394 bound_to 11000
  141.2163  133.6782  156.6999 LP  0  0  0  0  0  0  0  0  0  0  0  0  # atno 17395 bound_to 11000

$$$$
