AV-unprocessed.smi:2139|AV-procd|sdf|8712|dock4
  -GOLD-   2272011473D 1   1.00000     0.00000
 Structure written by MMmdl.
 40 41  0  0  0  0  0  0  0  0  1 V2000
  152.5574  142.6450  159.9018 C   0  0  0  0  0  0  0  0  0  0  0  0
  151.3770  142.3710  158.9586 C   0  0  0  0  0  0  0  0  0  0  0  0
  151.3919  143.2327  157.6819 C   0  0  2  0  0  0  0  0  0  0  0  0
  151.1856  144.7220  158.0008 C   0  0  0  0  0  0  0  0  0  0  0  0
  150.3618  142.7767  156.7520 N   0  0  0  0  0  0  0  0  0  0  0  0
  150.1545  141.5015  156.3857 C   0  0  0  0  0  0  0  0  0  0  0  0
  150.8245  140.5560  156.8022 O   0  0  0  0  0  0  0  0  0  0  0  0
  149.0582  141.2998  155.3725 C   0  0  0  0  0  0  0  0  0  0  0  0
  148.1999  142.3787  155.0571 C   0  0  0  0  0  0  0  0  0  0  0  0
  147.1454  142.1852  154.1476 C   0  0  0  0  0  0  0  0  0  0  0  0
  146.9783  140.9080  153.5861 C   0  0  0  0  0  0  0  0  0  0  0  0
  147.7833  139.8660  153.8743 N   0  0  0  0  0  0  0  0  0  0  0  0
  148.8069  140.0420  154.7470 C   0  0  0  0  0  0  0  0  0  0  0  0
  149.6404  138.9274  154.9712 N   0  0  0  0  0  0  0  0  0  0  0  0
  151.0010  139.0945  154.4753 C   0  0  0  0  0  0  0  0  0  0  0  0
  151.8974  137.9725  155.0252 C   0  0  0  0  0  0  0  0  0  0  0  0
  151.3434  136.7053  154.6810 O   0  0  0  0  0  0  0  0  0  0  0  0
  150.0414  136.5210  155.2310 C   0  0  0  0  0  0  0  0  0  0  0  0
  149.0924  137.6044  154.6901 C   0  0  0  0  0  0  0  0  0  0  0  0
  152.4717  142.0488  160.8104 H   0  0  0  0  0  0  0  0  0  0  0  0
  152.5905  143.6944  160.1958 H   0  0  0  0  0  0  0  0  0  0  0  0
  153.5109  142.3968  159.4350 H   0  0  0  0  0  0  0  0  0  0  0  0
  151.3670  141.3134  158.6919 H   0  0  0  0  0  0  0  0  0  0  0  0
  150.4492  142.5545  159.5018 H   0  0  0  0  0  0  0  0  0  0  0  0
  152.3722  143.1175  157.2153 H   0  0  0  0  0  0  0  0  0  0  0  0
  151.9586  145.0884  158.6768 H   0  0  0  0  0  0  0  0  0  0  0  0
  150.2191  144.8965  158.4745 H   0  0  0  0  0  0  0  0  0  0  0  0
  151.2276  145.3300  157.0962 H   0  0  0  0  0  0  0  0  0  0  0  0
  149.7705  143.4871  156.3456 H   0  0  0  0  0  0  0  0  0  0  0  0
  148.3352  143.3491  155.5132 H   0  0  0  0  0  0  0  0  0  0  0  0
  146.4766  142.9939  153.8927 H   0  0  0  0  0  0  0  0  0  0  0  0
  146.1782  140.7178  152.8862 H   0  0  0  0  0  0  0  0  0  0  0  0
  150.9894  139.0636  153.3850 H   0  0  0  0  0  0  0  0  0  0  0  0
  151.4048  140.0658  154.7615 H   0  0  0  0  0  0  0  0  0  0  0  0
  152.8989  138.0504  154.6028 H   0  0  0  0  0  0  0  0  0  0  0  0
  152.0004  138.0553  156.1087 H   0  0  0  0  0  0  0  0  0  0  0  0
  149.6766  135.5310  154.9573 H   0  0  0  0  0  0  0  0  0  0  0  0
  150.0882  136.5541  156.3207 H   0  0  0  0  0  0  0  0  0  0  0  0
  148.1086  137.5042  155.1501 H   0  0  0  0  0  0  0  0  0  0  0  0
  148.9652  137.4789  153.6140 H   0  0  0  0  0  0  0  0  0  0  0  0
  1  2  1  0  0  0  0
  1 20  1  0  0  0  0
  1 21  1  0  0  0  0
  1 22  1  0  0  0  0
  2  3  1  0  0  0  0
  2 23  1  0  0  0  0
  2 24  1  0  0  0  0
  3  4  1  0  0  0  0
  3  5  1  0  0  0  0
  3 25  1  0  0  0  0
  4 26  1  0  0  0  0
  4 27  1  0  0  0  0
  4 28  1  0  0  0  0
  5  6  1  0  0  0  0
  5 29  1  0  0  0  0
  6  7  2  0  0  0  0
  6  8  1  0  0  0  0
  8 13  1  0  0  0  0
  8  9  2  0  0  0  0
  9 10  1  0  0  0  0
  9 30  1  0  0  0  0
 10 11  2  0  0  0  0
 10 31  1  0  0  0  0
 11 12  1  0  0  0  0
 11 32  1  0  0  0  0
 12 13  2  0  0  0  0
 13 14  1  0  0  0  0
 14 19  1  0  0  0  0
 14 15  1  0  0  0  0
 15 16  1  0  0  0  0
 15 33  1  0  0  0  0
 15 34  1  0  0  0  0
 16 17  1  0  0  0  0
 16 35  1  0  0  0  0
 16 36  1  0  0  0  0
 17 18  1  0  0  0  0
 18 19  1  0  0  0  0
 18 37  1  0  0  0  0
 18 38  1  0  0  0  0
 19 39  1  0  0  0  0
 19 40  1  0  0  0  0
M  END
> <s_m_source_file>
AV-unprocessed.smi

> <i_m_source_file_index>
2139

> <i_lp_mmshare_version>
43012

> <i_f3d_flags>
0

> <s_epik_input>
W0NIM11bQ0gyXVtDQEhdKFtDSDNdKVtOSF1DKD1PKWMxW2NIXVtjSF1bY0hdbmMxTjJbQ0gyXVtDSDJdT1tDSDJdW0NIMl0y

> <s_epik_cmdline>
J2VwaWtfcHl0aG9uJywgJy1waCcsICc3LjAnLCAnLXRuJywgJzgnLCAnLW1hJywgJzIwMCcsICctbWV0YWxfYmluZGluZycsICctaW1hZScsICc8aW5maWxlLm1hZT4nLCAnLW9tYWUnLCAnPG91dGZpbGUubWFlPic=

> <r_lp_tautomer_probability>
1

> <r_epik_Ionization_Penalty>
1.73125e-05

> <r_epik_Ionization_Penalty_Charging>
0

> <r_epik_Ionization_Penalty_Neutral>
1.73125e-05

> <r_epik_State_Penalty>
-0

> <r_epik_Charging_Adjusted_Penalty>
0

> <i_epik_Tot_Q>
0

> <i_epik_Tot_abs_Q>
0

> <r_epik_Metal_State_Penalty>
-0

> <b_epik_Metal_Only>
0

> <s_lp_Force_Field>
OPLS_2005

> <r_lp_Energy>
24.9987

> <b_lp_Chiralities_Consistent>
1

> <s_lp_Variant>
AV-unprocessed.smi:2139-1

> <Gold.Version>
5.8.1

> <Gold.Id.Protein>
6NUR|6NUR_protein|mol2

> <Gold.PLP.Fitness>
40.6231

> <Gold.PLP.PLP>
-32.5114

> <Gold.PLP.part.hbond>
-2.0000

> <Gold.PLP.part.metal>
0.0000

> <Gold.PLP.part.buried>
-0.6985

> <Gold.PLP.part.nonpolar>
-31.0581

> <Gold.PLP.part.repulsive>
0.4816

> <Gold.PLP.ligand.clash>
0.0000

> <Gold.PLP.ligand.torsion>
0.4956

> <Gold.PLP.Chemscore.Hbond>
2.0000

> <Gold.PLP.Chemscore.CHOScore>
0.9468

> <Gold.PLP.Chemscore.Metal>
0.0000

> <Gold.Chemscore.Hbonds>
donor molecule, donor type, donor heavy atom, donor atom, acceptor molecule, acceptor atom, score
      L1  H     5    29       P1  8028  1.00
      P1  H 10752 10763       L1    17  1.00
      L1  C    11    32       P1 10175  1.00

> <Gold.PLP.Chemscore.Internal.Correction>
0.2625

> <Gold.Rescore>
     Score         DG    S(hbond)    S(metal)    S(lipo)     H(rot)  DE(clash)    DE(int)     intcor
     13.83     -19.90       1.94        0.00      96.34       1.30       1.62       4.45       ----

> <Gold.Chemscore.Fitness>
13.8327

> <Gold.Chemscore.DG>
-19.8992

> <Gold.Chemscore.ZeroCoef>
-5.4800

> <Gold.Chemscore.Hbond>
1.9419

> <Gold.Chemscore.Metal>
0.0000

> <Gold.Chemscore.Lipo>
96.3397

> <Gold.Chemscore.Internal_Hbond>
0.0000

> <Gold.Chemscore.DEClash>
1.6178

> <Gold.Chemscore.DEInternal>
4.4487

> <Gold.Chemscore.Rot>
1.3041

> <Gold.Chemscore.Internal.Correction>
   9.000000E+99

> <Gold.Chemscore.Hbonds>
donor molecule, donor type, donor heavy atom, donor atom, acceptor molecule, acceptor atom, score
      L1  H     5    29       P1  8028  1.00
      P1  H 10752 10763       L1    17  0.35

> <Gold.Chemscore.Hbond.Weighted>
-6.4860

> <Gold.Chemscore.Metal.Weighted>
-0.0000

> <Gold.Chemscore.Lipo.Weighted>
-11.2717

> <Gold.Chemscore.Internal_Hbond.Weighted>
0.0000

> <Gold.Chemscore.DEClash.Weighted>
1.6178

> <Gold.Chemscore.DEInternal.Weighted>
4.4487

> <Gold.Chemscore.Rot.Weighted>
3.3385

> <Gold.Chemscore.Internal.Correction.Weighted>
   9.000000E+99

> <Gold.Protein.RotatedTorsions>
[ 6907 6896 6895 6894 ] final   47.28 input  -60.11 | X-H torsion
[ 7974 7965 7964 7962 ] final    0.82 input  175.53 | X-H torsion
[ 8008 7997 7996 7995 ] final  168.01 input   59.86 | X-H torsion
[ 10167 10162 10161 10158 ] final  108.39 input  -65.29 | X-H torsion
[ 10718 10713 10712 10709 ] final   53.84 input   66.30 | X-H torsion
[ 10763 10752 10751 10750 ] final   48.86 input  -60.55 | X-H torsion
[ 11005 11000 10999 10996 ] final   25.32 input  -57.11 | X-H torsion

> <Gold.Protein.ActiveResidues>
 VAL166  LYS551  ARG553  GLY616  TRP617  ASP618  TYR619  PRO620  LYS621  CYS622 
 ASP623  PHE694  ASN695  SER759  ASP760  ASP761  ALA762  ILE779  LEU786  VAL792 
 PHE793  MET794  SER795  GLU796  ALA797  LYS798  CYS799  TRP800  GLU811  SER814 

> <Gold.Protein.RotatedAtoms>
  152.2662  134.7981  160.0421 H   0  0  0  0  0  0  0  0  0  0  0  0  # atno 6907 bound_to 6896
  151.8610  133.3452  159.3712 H   0  0  0  0  0  0  0  0  0  0  0  0  # atno 6908 bound_to 6896
  150.7135  134.5133  159.5662 H   0  0  0  0  0  0  0  0  0  0  0  0  # atno 6909 bound_to 6896
  146.2437  140.1080  142.8345 H   0  0  0  0  0  0  0  0  0  0  0  0  # atno 7974 bound_to 7965
  156.1584  140.1602  156.8653 H   0  0  0  0  0  0  0  0  0  0  0  0  # atno 8008 bound_to 7997
  154.5137  140.0795  156.8075 H   0  0  0  0  0  0  0  0  0  0  0  0  # atno 8009 bound_to 7997
  155.3757  140.3402  155.4247 H   0  0  0  0  0  0  0  0  0  0  0  0  # atno 8010 bound_to 7997
  139.6850  144.7114  151.1449 H   0  0  0  0  0  0  0  0  0  0  0  0  # atno 10167 bound_to 10162
  157.5203  130.8561  149.8550 H   0  0  0  0  0  0  0  0  0  0  0  0  # atno 10718 bound_to 10713
  152.9789  135.5930  154.3995 H   0  0  0  0  0  0  0  0  0  0  0  0  # atno 10763 bound_to 10752
  154.3642  135.2767  155.2305 H   0  0  0  0  0  0  0  0  0  0  0  0  # atno 10764 bound_to 10752
  154.4288  135.6041  153.6111 H   0  0  0  0  0  0  0  0  0  0  0  0  # atno 10765 bound_to 10752
  140.3491  134.2249  155.7682 H   0  0  0  0  0  0  0  0  0  0  0  0  # atno 11005 bound_to 11000
  145.0512  140.9019  143.4994 LP  0  0  0  0  0  0  0  0  0  0  0  0  # atno 17320 bound_to 7965
  145.1178  139.2714  143.5604 LP  0  0  0  0  0  0  0  0  0  0  0  0  # atno 17321 bound_to 7965
  140.7664  143.5643  150.9064 LP  0  0  0  0  0  0  0  0  0  0  0  0  # atno 17342 bound_to 10162
  139.9317  143.6485  152.3074 LP  0  0  0  0  0  0  0  0  0  0  0  0  # atno 17343 bound_to 10162
  156.0349  130.3754  150.1587 LP  0  0  0  0  0  0  0  0  0  0  0  0  # atno 17370 bound_to 10713
  156.9775  130.9854  151.3445 LP  0  0  0  0  0  0  0  0  0  0  0  0  # atno 17371 bound_to 10713
  141.2017  133.7956  157.0427 LP  0  0  0  0  0  0  0  0  0  0  0  0  # atno 17394 bound_to 11000
  140.0718  134.9698  157.1479 LP  0  0  0  0  0  0  0  0  0  0  0  0  # atno 17395 bound_to 11000

$$$$
