AV-unprocessed.smi:1868|AV-procd|sdf|7591|dock4
  -GOLD-   22720 9303D 1   1.00000     0.00000
 Structure written by MMmdl.
 48 50  0  0  0  0  0  0  0  0  3 V2000
  149.2241  141.3902  154.3229 C   0  0  0  0  0  0  0  0  0  0  0  0
  150.0268  141.4171  155.5802 C   0  0  0  0  0  0  0  0  0  0  0  0
  150.0000  142.3967  156.5275 N   0  3  0  0  0  0  0  0  0  0  0  0
  150.8860  142.0815  157.5590 C   0  0  0  0  0  0  0  0  0  0  0  0
  151.2040  142.7642  158.7290 C   0  0  0  0  0  0  0  0  0  0  0  0
  152.1584  142.1606  159.5742 C   0  0  0  0  0  0  0  0  0  0  0  0
  152.7576  140.9277  159.2432 C   0  0  0  0  0  0  0  0  0  0  0  0
  152.4282  140.2454  158.0534 C   0  0  0  0  0  0  0  0  0  0  0  0
  151.4822  140.8483  157.2248 C   0  0  0  0  0  0  0  0  0  0  0  0
  150.9204  140.4746  155.9989 N   0  0  0  0  0  0  0  0  0  0  0  0
  151.3467  139.2166  155.3664 C   0  0  0  0  0  0  0  0  0  0  0  0
  150.1655  138.3321  154.9198 C   0  0  1  0  0  0  0  0  0  0  0  0
  150.0217  138.4189  153.5154 O   0  0  0  0  0  0  0  0  0  0  0  0
  150.3857  136.8554  155.3037 C   0  0  0  0  0  0  0  0  0  0  0  0
  149.3960  135.9457  154.6709 N   0  3  2  0  0  0  0  0  0  0  0  0
  148.0064  136.1565  155.1565 C   0  0  0  0  0  0  0  0  0  0  0  0
  147.0059  135.2891  154.3718 C   0  0  0  0  0  0  0  0  0  0  0  0
  147.3726  133.7942  154.4117 C   0  0  2  0  0  0  0  0  0  0  0  0
  147.0725  133.1425  155.7728 C   0  0  0  0  0  0  0  0  0  0  0  0
  148.8381  133.6143  153.9759 C   0  0  0  0  0  0  0  0  0  0  0  0
  149.7979  134.5193  154.7691 C   0  0  0  0  0  0  0  0  0  0  0  0
  148.5759  142.2649  154.2625 H   0  0  0  0  0  0  0  0  0  0  0  0
  148.6021  140.4955  154.2915 H   0  0  0  0  0  0  0  0  0  0  0  0
  149.8840  141.3877  153.4553 H   0  0  0  0  0  0  0  0  0  0  0  0
  150.7478  143.7094  158.9848 H   0  0  0  0  0  0  0  0  0  0  0  0
  152.4373  142.6543  160.4941 H   0  0  0  0  0  0  0  0  0  0  0  0
  153.4860  140.4974  159.9155 H   0  0  0  0  0  0  0  0  0  0  0  0
  152.8945  139.3027  157.8084 H   0  0  0  0  0  0  0  0  0  0  0  0
  151.9733  139.4720  154.5109 H   0  0  0  0  0  0  0  0  0  0  0  0
  151.9904  138.6828  156.0666 H   0  0  0  0  0  0  0  0  0  0  0  0
  149.2520  138.7118  155.3757 H   0  0  0  0  0  0  0  0  0  0  0  0
  149.4964  137.6900  153.2213 H   0  0  0  0  0  0  0  0  0  0  0  0
  151.3952  136.5702  155.0022 H   0  0  0  0  0  0  0  0  0  0  0  0
  150.3478  136.7299  156.3869 H   0  0  0  0  0  0  0  0  0  0  0  0
  147.9517  135.9305  156.2222 H   0  0  0  0  0  0  0  0  0  0  0  0
  147.7212  137.2019  155.0474 H   0  0  0  0  0  0  0  0  0  0  0  0
  145.9964  135.4410  154.7556 H   0  0  0  0  0  0  0  0  0  0  0  0
  146.9870  135.6245  153.3339 H   0  0  0  0  0  0  0  0  0  0  0  0
  146.7463  133.2820  153.6797 H   0  0  0  0  0  0  0  0  0  0  0  0
  147.6543  133.5870  156.5798 H   0  0  0  0  0  0  0  0  0  0  0  0
  147.2990  132.0760  155.7529 H   0  0  0  0  0  0  0  0  0  0  0  0
  146.0183  133.2463  156.0311 H   0  0  0  0  0  0  0  0  0  0  0  0
  149.1375  132.5705  154.0767 H   0  0  0  0  0  0  0  0  0  0  0  0
  148.9261  133.8518  152.9146 H   0  0  0  0  0  0  0  0  0  0  0  0
  150.8063  134.3949  154.3721 H   0  0  0  0  0  0  0  0  0  0  0  0
  149.8343  134.2188  155.8172 H   0  0  0  0  0  0  0  0  0  0  0  0
  149.4027  136.1684  153.6853 H   0  0  0  0  0  0  0  0  0  0  0  0
  149.4184  143.2230  156.4687 H   0  0  0  0  0  0  0  0  0  0  0  0
  1  2  1  0  0  0  0
  1 22  1  0  0  0  0
  1 23  1  0  0  0  0
  1 24  1  0  0  0  0
  2 10  1  0  0  0  0
  2  3  2  0  0  0  0
  3  4  1  0  0  0  0
  3 48  1  0  0  0  0
  4  9  2  0  0  0  0
  4  5  1  0  0  0  0
  5  6  2  0  0  0  0
  5 25  1  0  0  0  0
  6  7  1  0  0  0  0
  6 26  1  0  0  0  0
  7  8  2  0  0  0  0
  7 27  1  0  0  0  0
  8  9  1  0  0  0  0
  8 28  1  0  0  0  0
  9 10  1  0  0  0  0
 10 11  1  0  0  0  0
 11 12  1  0  0  0  0
 11 29  1  0  0  0  0
 11 30  1  0  0  0  0
 12 13  1  0  0  0  0
 12 14  1  0  0  0  0
 12 31  1  0  0  0  0
 13 32  1  0  0  0  0
 14 15  1  0  0  0  0
 14 33  1  0  0  0  0
 14 34  1  0  0  0  0
 15 21  1  0  0  0  0
 15 16  1  0  0  0  0
 15 47  1  0  0  0  0
 16 17  1  0  0  0  0
 16 35  1  0  0  0  0
 16 36  1  0  0  0  0
 17 18  1  0  0  0  0
 17 37  1  0  0  0  0
 17 38  1  0  0  0  0
 18 19  1  0  0  0  0
 18 20  1  0  0  0  0
 18 39  1  0  0  0  0
 19 40  1  0  0  0  0
 19 41  1  0  0  0  0
 19 42  1  0  0  0  0
 20 21  1  0  0  0  0
 20 43  1  0  0  0  0
 20 44  1  0  0  0  0
 21 45  1  0  0  0  0
 21 46  1  0  0  0  0
M  CHG  1   3   1
M  CHG  1  15   1
M  END
> <s_m_source_file>
AV-unprocessed.smi

> <i_m_source_file_index>
1868

> <i_lp_mmshare_version>
43012

> <i_f3d_flags>
0

> <s_epik_input>
W2NIXTFbY0hdW2NIXVtjSF1jKGMxMiluKGMobjIpW0NIM10pW0NIMl1bQ0BIXShbT0hdKVtDSDJdTjNbQ0gyXVtDSDJdW0NIXShbQ0gzXSlbQ0gyXVtDSDJdMw==

> <s_epik_cmdline>
J2VwaWtfcHl0aG9uJywgJy1waCcsICc3LjAnLCAnLXRuJywgJzgnLCAnLW1hJywgJzIwMCcsICctbWV0YWxfYmluZGluZycsICctaW1hZScsICc8aW5maWxlLm1hZT4nLCAnLW9tYWUnLCAnPG91dGZpbGUubWFlPic=

> <r_epik_Ionization_Penalty>
1.10901

> <r_epik_Ionization_Penalty_Charging>
1.10901

> <r_epik_Ionization_Penalty_Neutral>
6.90208e-07

> <r_epik_State_Penalty>
1.18788

> <r_epik_Charging_Adjusted_Penalty>
2.29689

> <i_epik_Tot_Q>
2

> <i_epik_Tot_abs_Q>
2

> <r_epik_Metal_State_Penalty>
5.19353

> <b_epik_Metal_Only>
0

> <s_lp_Force_Field>
OPLS_2005

> <r_lp_Energy>
31.454

> <b_lp_Chiralities_Consistent>
1

> <s_lp_Variant>
AV-unprocessed.smi:1868-8

> <Gold.Version>
5.8.1

> <Gold.Id.Protein>
6NUR|6NUR_protein|mol2

> <Gold.PLP.Fitness>
52.6858

> <Gold.PLP.PLP>
-39.3522

> <Gold.PLP.part.hbond>
-4.0000

> <Gold.PLP.part.metal>
0.0000

> <Gold.PLP.part.buried>
-2.4912

> <Gold.PLP.part.nonpolar>
-31.6294

> <Gold.PLP.part.repulsive>
0.0898

> <Gold.PLP.ligand.clash>
0.0000

> <Gold.PLP.ligand.torsion>
0.8512

> <Gold.PLP.Chemscore.Hbond>
5.0000

> <Gold.PLP.Chemscore.CHOScore>
0.0000

> <Gold.PLP.Chemscore.Metal>
0.0000

> <Gold.Chemscore.Hbonds>
donor molecule, donor type, donor heavy atom, donor atom, acceptor molecule, acceptor atom, score
      L1  H     3    48       P1  8028  2.00
      L1  H    13    32       P1  7948  0.99
      L1  H    15    47       P1  7948  2.00

> <Gold.PLP.Chemscore.Internal.Correction>
0.0359

> <Gold.Rescore>
     Score         DG    S(hbond)    S(metal)    S(lipo)     H(rot)  DE(clash)    DE(int)     intcor
     19.36     -20.34       2.76        0.00      91.76       1.99       0.13       0.85       ----

> <Gold.Chemscore.Fitness>
19.3642

> <Gold.Chemscore.DG>
-20.3428

> <Gold.Chemscore.ZeroCoef>
-5.4800

> <Gold.Chemscore.Hbond>
2.7579

> <Gold.Chemscore.Metal>
0.0000

> <Gold.Chemscore.Lipo>
91.7636

> <Gold.Chemscore.Internal_Hbond>
0.0000

> <Gold.Chemscore.DEClash>
0.1325

> <Gold.Chemscore.DEInternal>
0.8461

> <Gold.Chemscore.Rot>
1.9863

> <Gold.Chemscore.Internal.Correction>
   9.000000E+99

> <Gold.Chemscore.Hbonds>
donor molecule, donor type, donor heavy atom, donor atom, acceptor molecule, acceptor atom, score
      L1  H     3    48       P1  8028  0.96
      L1  H    13    32       P1  7948  0.81
      L1  H    15    47       P1  7948  0.70

> <Gold.Chemscore.Hbond.Weighted>
-9.2115

> <Gold.Chemscore.Metal.Weighted>
-0.0000

> <Gold.Chemscore.Lipo.Weighted>
-10.7363

> <Gold.Chemscore.Internal_Hbond.Weighted>
0.0000

> <Gold.Chemscore.DEClash.Weighted>
0.1325

> <Gold.Chemscore.DEInternal.Weighted>
0.8461

> <Gold.Chemscore.Rot.Weighted>
5.0850

> <Gold.Chemscore.Internal.Correction.Weighted>
   9.000000E+99

> <Gold.Protein.RotatedTorsions>
[ 6907 6896 6895 6894 ] final   87.40 input  -60.11 | X-H torsion
[ 7974 7965 7964 7962 ] final   61.08 input  175.53 | X-H torsion
[ 8008 7997 7996 7995 ] final  -71.18 input   59.86 | X-H torsion
[ 10167 10162 10161 10158 ] final  -21.52 input  -65.29 | X-H torsion
[ 10718 10713 10712 10709 ] final  166.65 input   66.30 | X-H torsion
[ 10763 10752 10751 10750 ] final -110.76 input  -60.55 | X-H torsion
[ 11005 11000 10999 10996 ] final  -91.41 input  -57.11 | X-H torsion

> <Gold.Protein.ActiveResidues>
 VAL166  LYS551  ARG553  GLY616  TRP617  ASP618  TYR619  PRO620  LYS621  CYS622 
 ASP623  PHE694  ASN695  SER759  ASP760  ASP761  ALA762  ILE779  LEU786  VAL792 
 PHE793  MET794  SER795  GLU796  ALA797  LYS798  CYS799  TRP800  GLU811  SER814 

> <Gold.Protein.RotatedAtoms>
  152.5410  134.2282  159.8814 H   0  0  0  0  0  0  0  0  0  0  0  0  # atno 6907 bound_to 6896
  151.2255  133.4472  159.2609 H   0  0  0  0  0  0  0  0  0  0  0  0  # atno 6908 bound_to 6896
  151.0764  134.9844  159.8390 H   0  0  0  0  0  0  0  0  0  0  0  0  # atno 6909 bound_to 6896
  145.8888  139.3496  143.0662 H   0  0  0  0  0  0  0  0  0  0  0  0  # atno 7974 bound_to 7965
  154.5068  140.0820  156.7911 H   0  0  0  0  0  0  0  0  0  0  0  0  # atno 8008 bound_to 7997
  155.3875  140.3431  155.4231 H   0  0  0  0  0  0  0  0  0  0  0  0  # atno 8009 bound_to 7997
  156.1525  140.1563  156.8733 H   0  0  0  0  0  0  0  0  0  0  0  0  # atno 8010 bound_to 7997
  140.7282  143.4620  151.0367 H   0  0  0  0  0  0  0  0  0  0  0  0  # atno 10167 bound_to 10162
  157.0628  131.0344  151.2640 H   0  0  0  0  0  0  0  0  0  0  0  0  # atno 10718 bound_to 10713
  154.8265  135.4552  154.0935 H   0  0  0  0  0  0  0  0  0  0  0  0  # atno 10763 bound_to 10752
  153.2245  135.6898  153.7968 H   0  0  0  0  0  0  0  0  0  0  0  0  # atno 10764 bound_to 10752
  153.7373  135.3318  155.3274 H   0  0  0  0  0  0  0  0  0  0  0  0  # atno 10765 bound_to 10752
  141.1545  133.7754  156.9875 H   0  0  0  0  0  0  0  0  0  0  0  0  # atno 11005 bound_to 11000
  145.8934  140.9289  143.0540 LP  0  0  0  0  0  0  0  0  0  0  0  0  # atno 17320 bound_to 7965
  144.6729  140.0936  143.7464 LP  0  0  0  0  0  0  0  0  0  0  0  0  # atno 17321 bound_to 7965
  139.8305  143.7697  152.3179 LP  0  0  0  0  0  0  0  0  0  0  0  0  # atno 17342 bound_to 10162
  139.7811  144.7444  151.0086 LP  0  0  0  0  0  0  0  0  0  0  0  0  # atno 17343 bound_to 10162
  157.4941  130.7840  149.7537 LP  0  0  0  0  0  0  0  0  0  0  0  0  # atno 17370 bound_to 10713
  155.9973  130.3900  150.2744 LP  0  0  0  0  0  0  0  0  0  0  0  0  # atno 17371 bound_to 10713
  140.1025  134.9527  157.1944 LP  0  0  0  0  0  0  0  0  0  0  0  0  # atno 17394 bound_to 11000
  140.3300  134.2820  155.7230 LP  0  0  0  0  0  0  0  0  0  0  0  0  # atno 17395 bound_to 11000

$$$$
