AV-unprocessed.smi:1661|AV-procd|sdf|6655|dock2
  -GOLD-   22720 7363D 1   1.00000     0.00000
 Structure written by MMmdl.
 37 38  0  0  0  0  0  0  0  0  3 V2000
  143.7340  132.1620  150.0857 C   0  0  0  0  0  0  0  0  0  0  0  0
  144.7827  132.5748  151.1280 C   0  0  2  0  0  0  0  0  0  0  0  0
  146.0070  133.2360  150.4733 C   0  0  0  0  0  0  0  0  0  0  0  0
  147.0653  133.6158  151.5229 C   0  0  0  0  0  0  0  0  0  0  0  0
  147.4825  132.4334  152.3201 N   0  3  1  0  0  0  0  0  0  0  0  0
  148.5975  132.7486  153.2480 C   0  0  0  0  0  0  0  0  0  0  0  0
  148.2246  133.8434  154.2595 C   0  0  0  0  0  0  0  0  0  0  0  0
  149.2840  134.8387  154.3425 N   0  0  0  0  0  0  0  0  0  0  0  0
  150.1439  134.9629  155.3616 C   0  0  0  0  0  0  0  0  0  0  0  0
  150.0703  134.1943  156.3229 O   0  0  0  0  0  0  0  0  0  0  0  0
  151.0338  135.9679  155.2018 N   0  5  0  0  0  0  0  0  0  0  0  0
  150.6054  137.1984  154.8746 C   0  0  0  0  0  0  0  0  0  0  0  0
  151.4345  138.1468  154.4095 N   0  0  0  0  0  0  0  0  0  0  0  0
  150.7927  139.3474  154.1371 N   0  0  0  0  0  0  0  0  0  0  0  0
  149.4905  139.2755  154.4124 C   0  0  0  0  0  0  0  0  0  0  0  0
  148.9309  137.7368  155.0333 S   0  0  0  0  0  0  0  0  0  0  0  0
  146.3202  131.7951  152.9938 C   0  0  0  0  0  0  0  0  0  0  0  0
  145.2475  131.3774  151.9738 C   0  0  0  0  0  0  0  0  0  0  0  0
  144.1369  131.4311  149.3837 H   0  0  0  0  0  0  0  0  0  0  0  0
  143.3928  133.0231  149.5104 H   0  0  0  0  0  0  0  0  0  0  0  0
  142.8598  131.7183  150.5631 H   0  0  0  0  0  0  0  0  0  0  0  0
  144.3184  133.3029  151.7950 H   0  0  0  0  0  0  0  0  0  0  0  0
  146.4481  132.5576  149.7413 H   0  0  0  0  0  0  0  0  0  0  0  0
  145.7010  134.1267  149.9230 H   0  0  0  0  0  0  0  0  0  0  0  0
  147.9308  134.0429  151.0150 H   0  0  0  0  0  0  0  0  0  0  0  0
  146.6761  134.3870  152.1898 H   0  0  0  0  0  0  0  0  0  0  0  0
  148.8625  131.8508  153.8086 H   0  0  0  0  0  0  0  0  0  0  0  0
  149.4850  133.0301  152.6790 H   0  0  0  0  0  0  0  0  0  0  0  0
  147.3007  134.3456  153.9729 H   0  0  0  0  0  0  0  0  0  0  0  0
  148.0639  133.4045  155.2455 H   0  0  0  0  0  0  0  0  0  0  0  0
  149.3748  135.4871  153.5741 H   0  0  0  0  0  0  0  0  0  0  0  0
  148.8565  140.1346  154.2525 H   0  0  0  0  0  0  0  0  0  0  0  0
  146.6379  130.9123  153.5473 H   0  0  0  0  0  0  0  0  0  0  0  0
  145.8950  132.4871  153.7224 H   0  0  0  0  0  0  0  0  0  0  0  0
  144.3974  130.9374  152.4963 H   0  0  0  0  0  0  0  0  0  0  0  0
  145.6479  130.5972  151.3245 H   0  0  0  0  0  0  0  0  0  0  0  0
  147.8461  131.7625  151.6583 H   0  0  0  0  0  0  0  0  0  0  0  0
  1  2  1  0  0  0  0
  1 19  1  0  0  0  0
  1 20  1  0  0  0  0
  1 21  1  0  0  0  0
  2 18  1  0  0  0  0
  2  3  1  0  0  0  0
  2 22  1  0  0  0  0
  3  4  1  0  0  0  0
  3 23  1  0  0  0  0
  3 24  1  0  0  0  0
  4  5  1  0  0  0  0
  4 25  1  0  0  0  0
  4 26  1  0  0  0  0
  5  6  1  0  0  0  0
  5 17  1  0  0  0  0
  5 37  1  0  0  0  0
  6  7  1  0  0  0  0
  6 27  1  0  0  0  0
  6 28  1  0  0  0  0
  7  8  1  0  0  0  0
  7 29  1  0  0  0  0
  7 30  1  0  0  0  0
  8  9  1  0  0  0  0
  8 31  1  0  0  0  0
  9 10  2  0  0  0  0
  9 11  1  0  0  0  0
 11 12  1  0  0  0  0
 12 16  1  0  0  0  0
 12 13  2  0  0  0  0
 13 14  1  0  0  0  0
 14 15  2  0  0  0  0
 15 16  1  0  0  0  0
 15 32  1  0  0  0  0
 17 18  1  0  0  0  0
 17 33  1  0  0  0  0
 17 34  1  0  0  0  0
 18 35  1  0  0  0  0
 18 36  1  0  0  0  0
M  CHG  1   5   1
M  CHG  1  11  -1
M  END
> <s_m_source_file>
AV-unprocessed.smi

> <i_m_source_file_index>
1661

> <i_lp_mmshare_version>
43012

> <i_f3d_flags>
0

> <s_epik_input>
W0NIM11bQ0hdMVtDSDJdW0NIMl1OKFtDSDJdW0NIMl0xKVtDSDJdW0NIMl1bTkhdQyg9TylbTkhdYzJubltjSF1zMg==

> <s_epik_cmdline>
J2VwaWtfcHl0aG9uJywgJy1waCcsICc3LjAnLCAnLXRuJywgJzgnLCAnLW1hJywgJzIwMCcsICctbWV0YWxfYmluZGluZycsICctaW1hZScsICc8aW5maWxlLm1hZT4nLCAnLW9tYWUnLCAnPG91dGZpbGUubWFlPic=

> <r_lp_tautomer_probability>
1

> <r_epik_Ionization_Penalty>
3.04466

> <r_epik_Ionization_Penalty_Charging>
3.01305

> <r_epik_Ionization_Penalty_Neutral>
0.0316037

> <r_epik_State_Penalty>
3.00821

> <r_epik_Charging_Adjusted_Penalty>
6.02127

> <i_epik_Tot_Q>
0

> <i_epik_Tot_abs_Q>
2

> <r_epik_Metal_State_Penalty>
0.454395

> <b_epik_Metal_Only>
1

> <s_lp_Force_Field>
OPLS_2005

> <r_lp_Energy>
9.82396

> <b_lp_Chiralities_Consistent>
1

> <s_lp_Variant>
AV-unprocessed.smi:1661-3

> <Gold.Version>
5.8.1

> <Gold.Id.Protein>
6NUR|6NUR_protein|mol2

> <Gold.PLP.Fitness>
44.4598

> <Gold.PLP.PLP>
-31.2623

> <Gold.PLP.part.hbond>
-4.0000

> <Gold.PLP.part.metal>
0.0000

> <Gold.PLP.part.buried>
-4.9991

> <Gold.PLP.part.nonpolar>
-22.6145

> <Gold.PLP.part.repulsive>
0.5183

> <Gold.PLP.ligand.clash>
0.0000

> <Gold.PLP.ligand.torsion>
0.9272

> <Gold.PLP.Chemscore.Hbond>
5.0000

> <Gold.PLP.Chemscore.CHOScore>
0.0000

> <Gold.PLP.Chemscore.Metal>
0.0000

> <Gold.Chemscore.Hbonds>
donor molecule, donor type, donor heavy atom, donor atom, acceptor molecule, acceptor atom, score
      L1  H     5    37       P1 10747  1.00
      L1  H     8    31       P1  7948  1.00
      P1  H  7989  7998       L1    14  1.00
      P1  H 10752 10763       L1    11  2.00

> <Gold.PLP.Chemscore.Internal.Correction>
0.0520

> <Gold.Rescore>
     Score         DG    S(hbond)    S(metal)    S(lipo)     H(rot)  DE(clash)    DE(int)     intcor
     18.56     -19.60       3.24        0.00      64.87       1.68       0.01       1.02       ----

> <Gold.Chemscore.Fitness>
18.5646

> <Gold.Chemscore.DG>
-19.5995

> <Gold.Chemscore.ZeroCoef>
-5.4800

> <Gold.Chemscore.Hbond>
3.2410

> <Gold.Chemscore.Metal>
0.0000

> <Gold.Chemscore.Lipo>
64.8684

> <Gold.Chemscore.Internal_Hbond>
0.0000

> <Gold.Chemscore.DEClash>
0.0126

> <Gold.Chemscore.DEInternal>
1.0223

> <Gold.Chemscore.Rot>
1.6777

> <Gold.Chemscore.Internal.Correction>
   9.000000E+99

> <Gold.Chemscore.Hbonds>
donor molecule, donor type, donor heavy atom, donor atom, acceptor molecule, acceptor atom, score
      L1  H     5    37       P1 10747  0.96
      L1  H     8    31       P1  7948  0.30
      P1  H  7989  7998       L1    14  0.99
      P1  H 10752 10763       L1    11  0.85

> <Gold.Chemscore.Hbond.Weighted>
-10.8248

> <Gold.Chemscore.Metal.Weighted>
-0.0000

> <Gold.Chemscore.Lipo.Weighted>
-7.5896

> <Gold.Chemscore.Internal_Hbond.Weighted>
0.0000

> <Gold.Chemscore.DEClash.Weighted>
0.0126

> <Gold.Chemscore.DEInternal.Weighted>
1.0223

> <Gold.Chemscore.Rot.Weighted>
4.2950

> <Gold.Chemscore.Internal.Correction.Weighted>
   9.000000E+99

> <Gold.Protein.RotatedTorsions>
[ 6907 6896 6895 6894 ] final  -96.12 input  -60.11 | X-H torsion
[ 7974 7965 7964 7962 ] final   59.80 input  175.53 | X-H torsion
[ 8008 7997 7996 7995 ] final   90.91 input   59.86 | X-H torsion
[ 10167 10162 10161 10158 ] final   22.12 input  -65.29 | X-H torsion
[ 10718 10713 10712 10709 ] final  -12.52 input   66.30 | X-H torsion
[ 10763 10752 10751 10750 ] final   68.87 input  -60.55 | X-H torsion
[ 11005 11000 10999 10996 ] final  -61.20 input  -57.11 | X-H torsion

> <Gold.Protein.ActiveResidues>
 VAL166  LYS551  ARG553  GLY616  TRP617  ASP618  TYR619  PRO620  LYS621  CYS622 
 ASP623  PHE694  ASN695  SER759  ASP760  ASP761  ALA762  ILE779  LEU786  VAL792 
 PHE793  MET794  SER795  GLU796  ALA797  LYS798  CYS799  TRP800  GLU811  SER814 

> <Gold.Protein.RotatedAtoms>
  150.6981  134.1551  159.4154 H   0  0  0  0  0  0  0  0  0  0  0  0  # atno 6907 bound_to 6896
  151.9533  135.0156  160.0552 H   0  0  0  0  0  0  0  0  0  0  0  0  # atno 6908 bound_to 6896
  152.1991  133.4793  159.5086 H   0  0  0  0  0  0  0  0  0  0  0  0  # atno 6909 bound_to 6896
  145.9031  139.3596  143.0580 H   0  0  0  0  0  0  0  0  0  0  0  0  # atno 7974 bound_to 7965
  156.0176  140.3344  155.7005 H   0  0  0  0  0  0  0  0  0  0  0  0  # atno 8008 bound_to 7997
  155.6069  140.0661  157.2735 H   0  0  0  0  0  0  0  0  0  0  0  0  # atno 8009 bound_to 7997
  154.4304  140.1800  156.1219 H   0  0  0  0  0  0  0  0  0  0  0  0  # atno 8010 bound_to 7997
  140.5374  143.9737  150.6499 H   0  0  0  0  0  0  0  0  0  0  0  0  # atno 10167 bound_to 10162
  156.6435  130.4934  149.6086 H   0  0  0  0  0  0  0  0  0  0  0  0  # atno 10718 bound_to 10713
  153.0257  135.5231  154.7201 H   0  0  0  0  0  0  0  0  0  0  0  0  # atno 10763 bound_to 10752
  154.6258  135.2894  155.0275 H   0  0  0  0  0  0  0  0  0  0  0  0  # atno 10764 bound_to 10752
  154.1245  135.6602  153.4962 H   0  0  0  0  0  0  0  0  0  0  0  0  # atno 10765 bound_to 10752
  141.1316  133.6628  156.5339 H   0  0  0  0  0  0  0  0  0  0  0  0  # atno 11005 bound_to 11000
  145.8766  140.9388  143.0623 LP  0  0  0  0  0  0  0  0  0  0  0  0  # atno 17320 bound_to 7965
  144.6737  140.0725  143.7472 LP  0  0  0  0  0  0  0  0  0  0  0  0  # atno 17321 bound_to 7965
  140.3128  143.3187  152.0862 LP  0  0  0  0  0  0  0  0  0  0  0  0  # atno 17342 bound_to 10162
  139.4976  144.6625  151.6432 LP  0  0  0  0  0  0  0  0  0  0  0  0  # atno 17343 bound_to 10162
  156.2140  130.6696  151.1299 LP  0  0  0  0  0  0  0  0  0  0  0  0  # atno 17370 bound_to 10713
  157.7163  131.0707  150.6312 LP  0  0  0  0  0  0  0  0  0  0  0  0  # atno 17371 bound_to 10713
  140.4193  134.7201  157.4881 LP  0  0  0  0  0  0  0  0  0  0  0  0  # atno 17394 bound_to 11000
  140.0371  134.6321  155.9029 LP  0  0  0  0  0  0  0  0  0  0  0  0  # atno 17395 bound_to 11000

$$$$
