AV-unprocessed.smi:1326|AV-procd|sdf|5474|dock3
  -GOLD-   22720 5 43D 1   1.00000     0.00000
 Structure written by MMmdl.
 39 39  0  0  0  0  0  0  0  0  1 V2000
  150.9931  142.7459  157.6648 C   0  0  0  0  0  0  0  0  0  0  0  0
  150.8849  141.5893  156.6936 C   0  0  0  0  0  0  0  0  0  0  0  0
  149.8783  141.4011  155.9051 N   0  0  0  0  0  0  0  0  0  0  0  0
  149.8892  140.2907  155.0493 C   0  0  0  0  0  0  0  0  0  0  0  0
  148.6712  140.1476  154.1523 C   0  0  0  0  0  0  0  0  0  0  0  0
  150.9343  139.4112  155.0326 C   0  0  0  0  0  0  0  0  0  0  0  0
  150.9847  138.1809  154.1262 C   0  0  0  0  0  0  0  0  0  0  0  0
  150.9924  136.8207  154.8307 C   0  0  0  0  0  0  0  0  0  0  0  0
  151.8226  136.5915  155.7096 O   0  0  0  0  0  0  0  0  0  0  0  0
  150.0769  135.9238  154.4359 N   0  0  0  0  0  0  0  0  0  0  0  0
  149.9384  134.5838  154.9869 C   0  0  0  0  0  0  0  0  0  0  0  0
  148.6112  133.9538  154.5341 C   0  0  0  0  0  0  0  0  0  0  0  0
  148.7622  132.8984  153.4195 C   0  0  0  0  0  0  0  0  0  0  0  0
  147.4379  132.6203  152.6879 C   0  0  0  0  0  0  0  0  0  0  0  0
  149.3448  131.5932  153.9829 C   0  0  0  0  0  0  0  0  0  0  0  0
  152.0786  139.6368  155.9368 C   0  0  0  0  0  0  0  0  0  0  0  0
  153.0660  138.9067  156.0048 O   0  0  0  0  0  0  0  0  0  0  0  0
  151.9823  140.7310  156.7245 N   0  0  0  0  0  0  0  0  0  0  0  0
  152.7411  140.9280  157.3608 H   0  0  0  0  0  0  0  0  0  0  0  0
  151.9221  142.7078  158.2354 H   0  0  0  0  0  0  0  0  0  0  0  0
  150.1600  142.7245  158.3680 H   0  0  0  0  0  0  0  0  0  0  0  0
  150.9627  143.6927  157.1250 H   0  0  0  0  0  0  0  0  0  0  0  0
  148.9554  140.2578  153.1056 H   0  0  0  0  0  0  0  0  0  0  0  0
  147.9228  140.9089  154.3762 H   0  0  0  0  0  0  0  0  0  0  0  0
  148.2009  139.1737  154.2832 H   0  0  0  0  0  0  0  0  0  0  0  0
  150.1354  138.1899  153.4440 H   0  0  0  0  0  0  0  0  0  0  0  0
  151.8585  138.2480  153.4761 H   0  0  0  0  0  0  0  0  0  0  0  0
  149.4325  136.1892  153.7052 H   0  0  0  0  0  0  0  0  0  0  0  0
  150.7831  133.9765  154.6599 H   0  0  0  0  0  0  0  0  0  0  0  0
  149.9787  134.6385  156.0757 H   0  0  0  0  0  0  0  0  0  0  0  0
  148.1420  133.4854  155.4007 H   0  0  0  0  0  0  0  0  0  0  0  0
  147.9250  134.7367  154.2075 H   0  0  0  0  0  0  0  0  0  0  0  0
  149.4754  133.2800  152.6877 H   0  0  0  0  0  0  0  0  0  0  0  0
  146.6663  132.2803  153.3795 H   0  0  0  0  0  0  0  0  0  0  0  0
  147.5654  131.8477  151.9291 H   0  0  0  0  0  0  0  0  0  0  0  0
  147.0636  133.5082  152.1791 H   0  0  0  0  0  0  0  0  0  0  0  0
  148.6826  131.1539  154.7300 H   0  0  0  0  0  0  0  0  0  0  0  0
  150.3126  131.7641  154.4554 H   0  0  0  0  0  0  0  0  0  0  0  0
  149.4929  130.8548  153.1944 H   0  0  0  0  0  0  0  0  0  0  0  0
  1  2  1  0  0  0  0
  1 20  1  0  0  0  0
  1 21  1  0  0  0  0
  1 22  1  0  0  0  0
  2 18  1  0  0  0  0
  2  3  2  0  0  0  0
  3  4  1  0  0  0  0
  4  5  1  0  0  0  0
  4  6  2  0  0  0  0
  5 23  1  0  0  0  0
  5 24  1  0  0  0  0
  5 25  1  0  0  0  0
  6  7  1  0  0  0  0
  6 16  1  0  0  0  0
  7  8  1  0  0  0  0
  7 26  1  0  0  0  0
  7 27  1  0  0  0  0
  8  9  2  0  0  0  0
  8 10  1  0  0  0  0
 10 11  1  0  0  0  0
 10 28  1  0  0  0  0
 11 12  1  0  0  0  0
 11 29  1  0  0  0  0
 11 30  1  0  0  0  0
 12 13  1  0  0  0  0
 12 31  1  0  0  0  0
 12 32  1  0  0  0  0
 13 14  1  0  0  0  0
 13 15  1  0  0  0  0
 13 33  1  0  0  0  0
 14 34  1  0  0  0  0
 14 35  1  0  0  0  0
 14 36  1  0  0  0  0
 15 37  1  0  0  0  0
 15 38  1  0  0  0  0
 15 39  1  0  0  0  0
 16 17  2  0  0  0  0
 16 18  1  0  0  0  0
 18 19  1  0  0  0  0
M  END
> <s_m_source_file>
AV-unprocessed.smi

> <i_m_source_file_index>
1326

> <i_lp_mmshare_version>
43012

> <i_f3d_flags>
0

> <s_epik_input>
W0NIM11jMW5jKFtDSDNdKWMoYyg9TylbbkhdMSlbQ0gyXUMoPU8pW05IXVtDSDJdW0NIMl1bQ0hdKFtDSDNdKVtDSDNd

> <s_epik_cmdline>
J2VwaWtfcHl0aG9uJywgJy1waCcsICc3LjAnLCAnLXRuJywgJzgnLCAnLW1hJywgJzIwMCcsICctbWV0YWxfYmluZGluZycsICctaW1hZScsICc8aW5maWxlLm1hZT4nLCAnLW9tYWUnLCAnPG91dGZpbGUubWFlPic=

> <r_lp_tautomer_probability>
0.839158

> <r_epik_Ionization_Penalty>
0.000369141

> <r_epik_Ionization_Penalty_Charging>
0.00033405

> <r_epik_Ionization_Penalty_Neutral>
3.5091e-05

> <r_epik_State_Penalty>
0.09125

> <r_epik_Charging_Adjusted_Penalty>
0.0915841

> <i_epik_Tot_Q>
0

> <i_epik_Tot_abs_Q>
0

> <r_epik_Metal_State_Penalty>
0.250923

> <b_epik_Metal_Only>
0

> <s_lp_Force_Field>
OPLS_2005

> <r_lp_Energy>
6.99246

> <b_lp_Chiralities_Consistent>
1

> <s_lp_Variant>
AV-unprocessed.smi:1326-1

> <Gold.Version>
5.8.1

> <Gold.Id.Protein>
6NUR|6NUR_protein|mol2

> <Gold.PLP.Fitness>
43.4740

> <Gold.PLP.PLP>
-35.6143

> <Gold.PLP.part.hbond>
-3.7829

> <Gold.PLP.part.metal>
0.0000

> <Gold.PLP.part.buried>
-0.4973

> <Gold.PLP.part.nonpolar>
-31.5481

> <Gold.PLP.part.repulsive>
0.3359

> <Gold.PLP.ligand.clash>
0.0000

> <Gold.PLP.ligand.torsion>
0.5801

> <Gold.PLP.Chemscore.Hbond>
2.9920

> <Gold.PLP.Chemscore.CHOScore>
0.0000

> <Gold.PLP.Chemscore.Metal>
0.0000

> <Gold.Chemscore.Hbonds>
donor molecule, donor type, donor heavy atom, donor atom, acceptor molecule, acceptor atom, score
      L1  H    10    28       P1  7948  0.98
      P1  H  7997  8010       L1    17  1.00
      P1  H 10752 10763       L1     9  1.00

> <Gold.PLP.Chemscore.Internal.Correction>
0.0438

> <Gold.Rescore>
     Score         DG    S(hbond)    S(metal)    S(lipo)     H(rot)  DE(clash)    DE(int)     intcor
     14.52     -16.49       2.56        0.00      62.52       1.89       0.02       1.96       ----

> <Gold.Chemscore.Fitness>
14.5165

> <Gold.Chemscore.DG>
-16.4918

> <Gold.Chemscore.ZeroCoef>
-5.4800

> <Gold.Chemscore.Hbond>
2.5565

> <Gold.Chemscore.Metal>
0.0000

> <Gold.Chemscore.Lipo>
62.5248

> <Gold.Chemscore.Internal_Hbond>
0.0000

> <Gold.Chemscore.DEClash>
0.0167

> <Gold.Chemscore.DEInternal>
1.9586

> <Gold.Chemscore.Rot>
1.8916

> <Gold.Chemscore.Internal.Correction>
   9.000000E+99

> <Gold.Chemscore.Hbonds>
donor molecule, donor type, donor heavy atom, donor atom, acceptor molecule, acceptor atom, score
      L1  H    10    28       P1  7948  0.65
      P1  H  7997  8010       L1    17  0.29
      P1  H 10752 10763       L1     9  0.40

> <Gold.Chemscore.Hbond.Weighted>
-8.5388

> <Gold.Chemscore.Metal.Weighted>
-0.0000

> <Gold.Chemscore.Lipo.Weighted>
-7.3154

> <Gold.Chemscore.Internal_Hbond.Weighted>
0.0000

> <Gold.Chemscore.DEClash.Weighted>
0.0167

> <Gold.Chemscore.DEInternal.Weighted>
1.9586

> <Gold.Chemscore.Rot.Weighted>
4.8424

> <Gold.Chemscore.Internal.Correction.Weighted>
   9.000000E+99

> <Gold.Protein.RotatedTorsions>
[ 6907 6896 6895 6894 ] final  -23.61 input  -60.11 | X-H torsion
[ 7974 7965 7964 7962 ] final -119.59 input  175.53 | X-H torsion
[ 8008 7997 7996 7995 ] final   90.45 input   59.86 | X-H torsion
[ 10167 10162 10161 10158 ] final -153.59 input  -65.29 | X-H torsion
[ 10718 10713 10712 10709 ] final -118.18 input   66.30 | X-H torsion
[ 10763 10752 10751 10750 ] final   76.15 input  -60.55 | X-H torsion
[ 11005 11000 10999 10996 ] final -176.40 input  -57.11 | X-H torsion

> <Gold.Protein.ActiveResidues>
 VAL166  LYS551  ARG553  GLY616  TRP617  ASP618  TYR619  PRO620  LYS621  CYS622 
 ASP623  PHE694  ASN695  SER759  ASP760  ASP761  ALA762  ILE779  LEU786  VAL792 
 PHE793  MET794  SER795  GLU796  ALA797  LYS798  CYS799  TRP800  GLU811  SER814 

> <Gold.Protein.RotatedAtoms>
  151.2015  135.0444  159.8873 H   0  0  0  0  0  0  0  0  0  0  0  0  # atno 6907 bound_to 6896
  152.5432  134.0845  159.8260 H   0  0  0  0  0  0  0  0  0  0  0  0  # atno 6908 bound_to 6896
  151.0986  133.5213  159.2643 H   0  0  0  0  0  0  0  0  0  0  0  0  # atno 6909 bound_to 6896
  145.0608  140.8289  143.4153 H   0  0  0  0  0  0  0  0  0  0  0  0  # atno 7974 bound_to 7965
  156.0121  140.3349  155.6951 H   0  0  0  0  0  0  0  0  0  0  0  0  # atno 8008 bound_to 7997
  155.6143  140.0668  157.2714 H   0  0  0  0  0  0  0  0  0  0  0  0  # atno 8009 bound_to 7997
  154.4285  140.1788  156.1293 H   0  0  0  0  0  0  0  0  0  0  0  0  # atno 8010 bound_to 7997
  139.7084  143.9149  152.2458 H   0  0  0  0  0  0  0  0  0  0  0  0  # atno 10167 bound_to 10162
  156.1088  130.6232  150.9259 H   0  0  0  0  0  0  0  0  0  0  0  0  # atno 10718 bound_to 10713
  153.0705  135.4962  154.8293 H   0  0  0  0  0  0  0  0  0  0  0  0  # atno 10763 bound_to 10752
  154.7015  135.3002  154.9336 H   0  0  0  0  0  0  0  0  0  0  0  0  # atno 10764 bound_to 10752
  154.0059  135.6760  153.4815 H   0  0  0  0  0  0  0  0  0  0  0  0  # atno 10765 bound_to 10752
  140.4525  134.6330  157.4807 H   0  0  0  0  0  0  0  0  0  0  0  0  # atno 11005 bound_to 11000
  145.1411  139.2572  143.5490 LP  0  0  0  0  0  0  0  0  0  0  0  0  # atno 17320 bound_to 7965
  146.3524  140.1088  142.8605 LP  0  0  0  0  0  0  0  0  0  0  0  0  # atno 17321 bound_to 7965
  139.9011  144.6911  150.8664 LP  0  0  0  0  0  0  0  0  0  0  0  0  # atno 17342 bound_to 10162
  140.7727  143.3513  151.2009 LP  0  0  0  0  0  0  0  0  0  0  0  0  # atno 17343 bound_to 10162
  157.6267  131.0925  150.8520 LP  0  0  0  0  0  0  0  0  0  0  0  0  # atno 17370 bound_to 10713
  156.8634  130.5121  149.5302 LP  0  0  0  0  0  0  0  0  0  0  0  0  # atno 17371 bound_to 10713
  139.9998  134.6855  155.9550 LP  0  0  0  0  0  0  0  0  0  0  0  0  # atno 17394 bound_to 11000
  141.1658  133.6537  156.4474 LP  0  0  0  0  0  0  0  0  0  0  0  0  # atno 17395 bound_to 11000

$$$$
