AV-unprocessed.smi:299|AV-procd|sdf|2267|dock9
  -GOLD-   2262022153D 1   1.00000     0.00000
 Structure written by MMmdl.
 42 43  0  0  0  0  0  0  0  0  2 V2000
  145.9706  134.0363  152.5152 C   0  0  0  0  0  0  0  0  0  0  0  0
  146.7280  133.0443  151.6055 C   0  0  2  0  0  0  0  0  0  0  0  0
  145.9384  132.7041  150.3238 C   0  0  0  0  0  0  0  0  0  0  0  0
  144.7449  131.7803  150.6084 C   0  0  0  0  0  0  0  0  0  0  0  0
  145.2180  130.5262  151.3530 C   0  0  0  0  0  0  0  0  0  0  0  0
  145.9999  130.8953  152.6242 C   0  0  0  0  0  0  0  0  0  0  0  0
  147.1448  131.7930  152.3081 N   0  3  2  0  0  0  0  0  0  0  0  0
  148.0538  132.0304  153.4598 C   0  0  0  0  0  0  0  0  0  0  0  0
  148.9434  133.2690  153.2597 C   0  0  0  0  0  0  0  0  0  0  0  0
  149.5077  133.8012  154.5878 C   0  0  0  0  0  0  0  0  0  0  0  0
  149.6294  135.2539  154.5773 N   0  0  0  0  0  0  0  0  0  0  0  0
  150.0180  136.0053  155.6197 C   0  0  0  0  0  0  0  0  0  0  0  0
  150.3298  135.5365  156.7142 O   0  0  0  0  0  0  0  0  0  0  0  0
  150.0558  137.5176  155.3961 C   0  0  0  0  0  0  0  0  0  0  0  0
  151.4225  138.0018  155.3471 N   0  0  0  0  0  0  0  0  0  0  0  0
  152.0614  138.9019  156.0972 C   0  0  0  0  0  0  0  0  0  0  0  0
  153.3142  139.0673  155.7008 N   0  0  0  0  0  0  0  0  0  0  0  0
  153.4247  138.1928  154.6327 N   0  0  0  0  0  0  0  0  0  0  0  0
  152.3054  137.5581  154.4175 N   0  0  0  0  0  0  0  0  0  0  0  0
  145.7095  134.9400  151.9635 H   0  0  0  0  0  0  0  0  0  0  0  0
  146.5764  134.3496  153.3652 H   0  0  0  0  0  0  0  0  0  0  0  0
  145.0435  133.6183  152.9058 H   0  0  0  0  0  0  0  0  0  0  0  0
  147.6413  133.5466  151.2828 H   0  0  0  0  0  0  0  0  0  0  0  0
  145.5968  133.6172  149.8350 H   0  0  0  0  0  0  0  0  0  0  0  0
  146.6044  132.2131  149.6127 H   0  0  0  0  0  0  0  0  0  0  0  0
  143.9953  132.3047  151.2019 H   0  0  0  0  0  0  0  0  0  0  0  0
  144.2573  131.4998  149.6741 H   0  0  0  0  0  0  0  0  0  0  0  0
  144.3629  129.9003  151.6098 H   0  0  0  0  0  0  0  0  0  0  0  0
  145.8519  129.9288  150.6959 H   0  0  0  0  0  0  0  0  0  0  0  0
  145.3401  131.3681  153.3523 H   0  0  0  0  0  0  0  0  0  0  0  0
  146.3578  129.9766  153.0870 H   0  0  0  0  0  0  0  0  0  0  0  0
  147.4557  132.1894  154.3582 H   0  0  0  0  0  0  0  0  0  0  0  0
  148.6632  131.1446  153.6450 H   0  0  0  0  0  0  0  0  0  0  0  0
  149.7734  133.0379  152.5927 H   0  0  0  0  0  0  0  0  0  0  0  0
  148.3619  134.0512  152.7697 H   0  0  0  0  0  0  0  0  0  0  0  0
  148.8837  133.4864  155.4262 H   0  0  0  0  0  0  0  0  0  0  0  0
  150.4992  133.3831  154.7640 H   0  0  0  0  0  0  0  0  0  0  0  0
  149.3927  135.7259  153.7159 H   0  0  0  0  0  0  0  0  0  0  0  0
  149.5614  137.7706  154.4573 H   0  0  0  0  0  0  0  0  0  0  0  0
  149.5155  138.0296  156.1940 H   0  0  0  0  0  0  0  0  0  0  0  0
  151.6112  139.4351  156.9214 H   0  0  0  0  0  0  0  0  0  0  0  0
  147.7024  131.2935  151.6299 H   0  0  0  0  0  0  0  0  0  0  0  0
  1  2  1  0  0  0  0
  1 20  1  0  0  0  0
  1 21  1  0  0  0  0
  1 22  1  0  0  0  0
  2  7  1  0  0  0  0
  2  3  1  0  0  0  0
  2 23  1  0  0  0  0
  3  4  1  0  0  0  0
  3 24  1  0  0  0  0
  3 25  1  0  0  0  0
  4  5  1  0  0  0  0
  4 26  1  0  0  0  0
  4 27  1  0  0  0  0
  5  6  1  0  0  0  0
  5 28  1  0  0  0  0
  5 29  1  0  0  0  0
  6  7  1  0  0  0  0
  6 30  1  0  0  0  0
  6 31  1  0  0  0  0
  7  8  1  0  0  0  0
  7 42  1  0  0  0  0
  8  9  1  0  0  0  0
  8 32  1  0  0  0  0
  8 33  1  0  0  0  0
  9 10  1  0  0  0  0
  9 34  1  0  0  0  0
  9 35  1  0  0  0  0
 10 11  1  0  0  0  0
 10 36  1  0  0  0  0
 10 37  1  0  0  0  0
 11 12  1  0  0  0  0
 11 38  1  0  0  0  0
 12 13  2  0  0  0  0
 12 14  1  0  0  0  0
 14 15  1  0  0  0  0
 14 39  1  0  0  0  0
 14 40  1  0  0  0  0
 15 19  1  0  0  0  0
 15 16  1  0  0  0  0
 16 17  2  0  0  0  0
 16 41  1  0  0  0  0
 17 18  1  0  0  0  0
 18 19  2  0  0  0  0
M  CHG  1   7   1
M  END
> <s_m_source_file>
AV-unprocessed.smi

> <i_m_source_file_index>
299

> <i_lp_mmshare_version>
43012

> <i_f3d_flags>
0

> <s_epik_input>
W0NIM11bQ0BASF0xW0NIMl1bQ0gyXVtDSDJdW0NIMl1OMVtDSDJdW0NIMl1bQ0gyXVtOSF1DKD1PKVtDSDJdbjJbY0hdbm5uMg==

> <s_epik_cmdline>
J2VwaWtfcHl0aG9uJywgJy1waCcsICc3LjAnLCAnLXRuJywgJzgnLCAnLW1hJywgJzIwMCcsICctbWV0YWxfYmluZGluZycsICctaW1hZScsICc8aW5maWxlLm1hZT4nLCAnLW9tYWUnLCAnPG91dGZpbGUubWFlPic=

> <r_lp_tautomer_probability>
1

> <r_epik_Ionization_Penalty>
0.000544863

> <r_epik_Ionization_Penalty_Charging>
0.000543475

> <r_epik_Ionization_Penalty_Neutral>
1.38784e-06

> <r_epik_State_Penalty>
0.000340025

> <r_epik_Charging_Adjusted_Penalty>
0.0008835

> <i_epik_Tot_Q>
1

> <i_epik_Tot_abs_Q>
1

> <r_epik_Metal_State_Penalty>
-0

> <b_epik_Metal_Only>
0

> <s_lp_Force_Field>
OPLS_2005

> <r_lp_Energy>
22.352

> <b_lp_Chiralities_Consistent>
1

> <s_lp_Variant>
AV-unprocessed.smi:299-3

> <Gold.Version>
5.8.1

> <Gold.Id.Protein>
6NUR|6NUR_protein|mol2

> <Gold.PLP.Fitness>
47.8154

> <Gold.PLP.PLP>
-38.1099

> <Gold.PLP.part.hbond>
-4.8302

> <Gold.PLP.part.metal>
0.0000

> <Gold.PLP.part.buried>
-6.4547

> <Gold.PLP.part.nonpolar>
-27.0020

> <Gold.PLP.part.repulsive>
0.2033

> <Gold.PLP.ligand.clash>
0.0000

> <Gold.PLP.ligand.torsion>
0.6979

> <Gold.PLP.Chemscore.Hbond>
3.6720

> <Gold.PLP.Chemscore.CHOScore>
0.0000

> <Gold.PLP.Chemscore.Metal>
0.0000

> <Gold.Chemscore.Hbonds>
donor molecule, donor type, donor heavy atom, donor atom, acceptor molecule, acceptor atom, score
      L1  H     7    42       P1 10747  1.00
      L1  H    11    38       P1  7948  1.00
      P1  H  7997  8008       L1    17  1.00
      P1  H 10752 10763       L1    19  0.70

> <Gold.PLP.Chemscore.Internal.Correction>
0.0854

> <Gold.Rescore>
     Score         DG    S(hbond)    S(metal)    S(lipo)     H(rot)  DE(clash)    DE(int)     intcor
     14.26     -14.86       2.62        0.00      70.49       2.97       0.01       0.60       ----

> <Gold.Chemscore.Fitness>
14.2576

> <Gold.Chemscore.DG>
-14.8636

> <Gold.Chemscore.ZeroCoef>
-5.4800

> <Gold.Chemscore.Hbond>
2.6151

> <Gold.Chemscore.Metal>
0.0000

> <Gold.Chemscore.Lipo>
70.4875

> <Gold.Chemscore.Internal_Hbond>
0.0000

> <Gold.Chemscore.DEClash>
0.0073

> <Gold.Chemscore.DEInternal>
0.5986

> <Gold.Chemscore.Rot>
2.9680

> <Gold.Chemscore.Internal.Correction>
   9.000000E+99

> <Gold.Chemscore.Hbonds>
donor molecule, donor type, donor heavy atom, donor atom, acceptor molecule, acceptor atom, score
      L1  H     7    42       P1 10747  1.00
      L1  H    11    38       P1  7948  0.50
      P1  H  7997  8008       L1    17  0.95
      P1  H 10752 10763       L1    19  0.18

> <Gold.Chemscore.Hbond.Weighted>
-8.7345

> <Gold.Chemscore.Metal.Weighted>
-0.0000

> <Gold.Chemscore.Lipo.Weighted>
-8.2470

> <Gold.Chemscore.Internal_Hbond.Weighted>
0.0000

> <Gold.Chemscore.DEClash.Weighted>
0.0073

> <Gold.Chemscore.DEInternal.Weighted>
0.5986

> <Gold.Chemscore.Rot.Weighted>
7.5980

> <Gold.Chemscore.Internal.Correction.Weighted>
   9.000000E+99

> <Gold.Protein.RotatedTorsions>
[ 6907 6896 6895 6894 ] final  -58.70 input  -60.11 | X-H torsion
[ 7974 7965 7964 7962 ] final   99.29 input  175.53 | X-H torsion
[ 8008 7997 7996 7995 ] final  -27.60 input   59.86 | X-H torsion
[ 10167 10162 10161 10158 ] final   13.24 input  -65.29 | X-H torsion
[ 10718 10713 10712 10709 ] final  112.63 input   66.30 | X-H torsion
[ 10763 10752 10751 10750 ] final   35.60 input  -60.55 | X-H torsion
[ 11005 11000 10999 10996 ] final -136.28 input  -57.11 | X-H torsion

> <Gold.Protein.ActiveResidues>
 VAL166  LYS551  ARG553  GLY616  TRP617  ASP618  TYR619  PRO620  LYS621  CYS622 
 ASP623  PHE694  ASN695  SER759  ASP760  ASP761  ALA762  ILE779  LEU786  VAL792 
 PHE793  MET794  SER795  GLU796  ALA797  LYS798  CYS799  TRP800  GLU811  SER814 

> <Gold.Protein.RotatedAtoms>
  150.7986  134.7064  159.6578 H   0  0  0  0  0  0  0  0  0  0  0  0  # atno 6907 bound_to 6896
  152.4101  134.6136  160.0042 H   0  0  0  0  0  0  0  0  0  0  0  0  # atno 6908 bound_to 6896
  151.6381  133.3290  159.3160 H   0  0  0  0  0  0  0  0  0  0  0  0  # atno 6909 bound_to 6896
  145.4008  139.2348  143.3301 H   0  0  0  0  0  0  0  0  0  0  0  0  # atno 7974 bound_to 7965
  154.4370  140.1868  156.0957 H   0  0  0  0  0  0  0  0  0  0  0  0  # atno 8008 bound_to 7997
  156.0331  140.3328  155.7135 H   0  0  0  0  0  0  0  0  0  0  0  0  # atno 8009 bound_to 7997
  155.5810  140.0621  157.2774 H   0  0  0  0  0  0  0  0  0  0  0  0  # atno 8010 bound_to 7997
  140.6016  143.8594  150.6971 H   0  0  0  0  0  0  0  0  0  0  0  0  # atno 10167 bound_to 10162
  157.6382  131.0971  150.6924 H   0  0  0  0  0  0  0  0  0  0  0  0  # atno 10718 bound_to 10713
  153.0112  135.6329  154.1852 H   0  0  0  0  0  0  0  0  0  0  0  0  # atno 10763 bound_to 10752
  154.1594  135.2824  155.3114 H   0  0  0  0  0  0  0  0  0  0  0  0  # atno 10764 bound_to 10752
  154.5993  135.5592  153.7418 H   0  0  0  0  0  0  0  0  0  0  0  0  # atno 10765 bound_to 10752
  140.8819  134.1921  157.4585 H   0  0  0  0  0  0  0  0  0  0  0  0  # atno 11005 bound_to 11000
  146.2752  140.4706  142.8798 LP  0  0  0  0  0  0  0  0  0  0  0  0  # atno 17320 bound_to 7965
  144.8375  140.6805  143.6251 LP  0  0  0  0  0  0  0  0  0  0  0  0  # atno 17321 bound_to 7965
  140.2141  143.3860  152.1695 LP  0  0  0  0  0  0  0  0  0  0  0  0  # atno 17342 bound_to 10162
  139.5295  144.7142  151.5108 LP  0  0  0  0  0  0  0  0  0  0  0  0  # atno 17343 bound_to 10162
  156.7252  130.4692  149.5513 LP  0  0  0  0  0  0  0  0  0  0  0  0  # atno 17370 bound_to 10713
  156.1639  130.6392  151.0753 LP  0  0  0  0  0  0  0  0  0  0  0  0  # atno 17371 bound_to 10713
  139.8720  134.9821  156.5143 LP  0  0  0  0  0  0  0  0  0  0  0  0  # atno 17394 bound_to 11000
  140.8451  133.8175  155.9113 LP  0  0  0  0  0  0  0  0  0  0  0  0  # atno 17395 bound_to 11000

$$$$
