AV-unprocessed.smi:2739|AV-procd|sdf|10550|dock1
  -GOLD-   2272015 03D 1   1.00000     0.00000
 Structure written by MMmdl.
 35 35  0  0  0  0  0  0  0  0  1 V2000
  153.0960  142.6003  162.5140 C   0  0  0  0  0  0  0  0  0  0  0  0
  152.5033  143.0030  161.1562 C   0  0  0  0  0  0  0  0  0  0  0  0
  152.4850  141.8591  160.1252 C   0  0  2  0  0  0  0  0  0  0  0  0
  153.8993  141.3261  159.8471 C   0  0  0  0  0  0  0  0  0  0  0  0
  151.8746  142.3111  158.8774 N   0  0  0  0  0  0  0  0  0  0  0  0
  151.8951  141.6449  157.7124 C   0  0  0  0  0  0  0  0  0  0  0  0
  152.4164  140.5393  157.5679 O   0  0  0  0  0  0  0  0  0  0  0  0
  151.2407  142.3420  156.5200 C   0  0  0  0  0  0  0  0  0  0  0  0
  150.2153  141.4992  155.9326 N   0  0  0  0  0  0  0  0  0  0  0  0
  148.8645  141.7481  155.8197 C   0  0  0  0  0  0  0  0  0  0  0  0
  148.3015  140.6610  155.2161 C   0  0  0  0  0  0  0  0  0  0  0  0
  149.3997  139.7794  154.9952 C   0  0  0  0  0  0  0  0  0  0  0  0
  149.3940  138.4142  154.3584 C   0  0  2  0  0  0  0  0  0  0  0  0
  149.8954  137.3382  155.3308 C   0  0  0  0  0  0  0  0  0  0  0  0
  150.1923  138.3673  153.1940 O   0  0  0  0  0  0  0  0  0  0  0  0
  150.5448  140.2923  155.4231 N   0  0  0  0  0  0  0  0  0  0  0  0
  153.1320  143.4560  163.1886 H   0  0  0  0  0  0  0  0  0  0  0  0
  154.1133  142.2238  162.4021 H   0  0  0  0  0  0  0  0  0  0  0  0
  152.5020  141.8247  162.9978 H   0  0  0  0  0  0  0  0  0  0  0  0
  151.4924  143.3858  161.3031 H   0  0  0  0  0  0  0  0  0  0  0  0
  153.0861  143.8341  160.7571 H   0  0  0  0  0  0  0  0  0  0  0  0
  151.8906  141.0445  160.5432 H   0  0  0  0  0  0  0  0  0  0  0  0
  154.3720  140.9708  160.7629 H   0  0  0  0  0  0  0  0  0  0  0  0
  154.5382  142.1006  159.4211 H   0  0  0  0  0  0  0  0  0  0  0  0
  153.8758  140.4912  159.1457 H   0  0  0  0  0  0  0  0  0  0  0  0
  151.4242  143.2147  158.8941 H   0  0  0  0  0  0  0  0  0  0  0  0
  150.7841  143.2788  156.8423 H   0  0  0  0  0  0  0  0  0  0  0  0
  151.9880  142.5916  155.7646 H   0  0  0  0  0  0  0  0  0  0  0  0
  148.4217  142.6660  156.1778 H   0  0  0  0  0  0  0  0  0  0  0  0
  147.2601  140.5148  154.9710 H   0  0  0  0  0  0  0  0  0  0  0  0
  148.3777  138.1606  154.0539 H   0  0  0  0  0  0  0  0  0  0  0  0
  149.2729  137.2964  156.2249 H   0  0  0  0  0  0  0  0  0  0  0  0
  150.9197  137.5374  155.6480 H   0  0  0  0  0  0  0  0  0  0  0  0
  149.8750  136.3503  154.8696 H   0  0  0  0  0  0  0  0  0  0  0  0
  149.7047  137.9241  152.5165 H   0  0  0  0  0  0  0  0  0  0  0  0
  1  2  1  0  0  0  0
  1 17  1  0  0  0  0
  1 18  1  0  0  0  0
  1 19  1  0  0  0  0
  2  3  1  0  0  0  0
  2 20  1  0  0  0  0
  2 21  1  0  0  0  0
  3  4  1  0  0  0  0
  3  5  1  0  0  0  0
  3 22  1  0  0  0  0
  4 23  1  0  0  0  0
  4 24  1  0  0  0  0
  4 25  1  0  0  0  0
  5  6  1  0  0  0  0
  5 26  1  0  0  0  0
  6  7  2  0  0  0  0
  6  8  1  0  0  0  0
  8  9  1  0  0  0  0
  8 27  1  0  0  0  0
  8 28  1  0  0  0  0
  9 16  1  0  0  0  0
  9 10  1  0  0  0  0
 10 11  2  0  0  0  0
 10 29  1  0  0  0  0
 11 12  1  0  0  0  0
 11 30  1  0  0  0  0
 12 13  1  0  0  0  0
 12 16  2  0  0  0  0
 13 14  1  0  0  0  0
 13 15  1  0  0  0  0
 13 31  1  0  0  0  0
 14 32  1  0  0  0  0
 14 33  1  0  0  0  0
 14 34  1  0  0  0  0
 15 35  1  0  0  0  0
M  END
> <s_m_source_file>
AV-unprocessed.smi

> <i_m_source_file_index>
2739

> <i_lp_mmshare_version>
43012

> <i_f3d_flags>
0

> <s_epik_input>
W0NIM11bQ0gyXVtDQEhdKFtDSDNdKVtOSF1DKD1PKVtDSDJdbjFbY0hdW2NIXWMobjEpW0NASF0oW0NIM10pW09IXQ==

> <s_epik_cmdline>
J2VwaWtfcHl0aG9uJywgJy1waCcsICc3LjAnLCAnLXRuJywgJzgnLCAnLW1hJywgJzIwMCcsICctbWV0YWxfYmluZGluZycsICctaW1hZScsICc8aW5maWxlLm1hZT4nLCAnLW9tYWUnLCAnPG91dGZpbGUubWFlPic=

> <r_lp_tautomer_probability>
1

> <r_epik_Ionization_Penalty>
5.22246e-06

> <r_epik_Ionization_Penalty_Charging>
0

> <r_epik_Ionization_Penalty_Neutral>
5.22246e-06

> <r_epik_State_Penalty>
-0

> <r_epik_Charging_Adjusted_Penalty>
0

> <i_epik_Tot_Q>
0

> <i_epik_Tot_abs_Q>
0

> <r_epik_Metal_State_Penalty>
-0

> <b_epik_Metal_Only>
0

> <s_lp_Force_Field>
OPLS_2005

> <r_lp_Energy>
0.862384

> <b_lp_Chiralities_Consistent>
1

> <s_lp_Variant>
AV-unprocessed.smi:2739-1

> <Gold.Version>
5.8.1

> <Gold.Id.Protein>
6NUR|6NUR_protein|mol2

> <Gold.PLP.Fitness>
38.4608

> <Gold.PLP.PLP>
-29.6637

> <Gold.PLP.part.hbond>
-4.4214

> <Gold.PLP.part.metal>
0.0000

> <Gold.PLP.part.buried>
0.6934

> <Gold.PLP.part.nonpolar>
-23.0732

> <Gold.PLP.part.repulsive>
0.1108

> <Gold.PLP.ligand.clash>
0.0000

> <Gold.PLP.ligand.torsion>
0.1688

> <Gold.PLP.Chemscore.Hbond>
2.0288

> <Gold.PLP.Chemscore.CHOScore>
1.0000

> <Gold.PLP.Chemscore.Metal>
0.0000

> <Gold.Chemscore.Hbonds>
donor molecule, donor type, donor heavy atom, donor atom, acceptor molecule, acceptor atom, score
      L1  H    15    35       P1  7948  0.96
      P1  H  7989  7998       L1    16  0.37
      P1  H  7997  8009       L1     7  0.51
      L1  C    10    29       P1  8028  1.00

> <Gold.PLP.Chemscore.Internal.Correction>
0.0483

> <Gold.Rescore>
     Score         DG    S(hbond)    S(metal)    S(lipo)     H(rot)  DE(clash)    DE(int)     intcor
      9.69     -13.31       1.54        0.00      74.36       2.34       0.86       2.75       ----

> <Gold.Chemscore.Fitness>
9.6937

> <Gold.Chemscore.DG>
-13.3065

> <Gold.Chemscore.ZeroCoef>
-5.4800

> <Gold.Chemscore.Hbond>
1.5357

> <Gold.Chemscore.Metal>
0.0000

> <Gold.Chemscore.Lipo>
74.3595

> <Gold.Chemscore.Internal_Hbond>
0.0000

> <Gold.Chemscore.DEClash>
0.8608

> <Gold.Chemscore.DEInternal>
2.7520

> <Gold.Chemscore.Rot>
2.3448

> <Gold.Chemscore.Internal.Correction>
   9.000000E+99

> <Gold.Chemscore.Hbonds>
donor molecule, donor type, donor heavy atom, donor atom, acceptor molecule, acceptor atom, score
      L1  H    15    35       P1  7948  0.36
      P1  H  7989  7998       L1    16  0.06
      P1  H  7997  8009       L1     7  0.49

> <Gold.Chemscore.Hbond.Weighted>
-5.1292

> <Gold.Chemscore.Metal.Weighted>
-0.0000

> <Gold.Chemscore.Lipo.Weighted>
-8.7001

> <Gold.Chemscore.Internal_Hbond.Weighted>
0.0000

> <Gold.Chemscore.DEClash.Weighted>
0.8608

> <Gold.Chemscore.DEInternal.Weighted>
2.7520

> <Gold.Chemscore.Rot.Weighted>
6.0027

> <Gold.Chemscore.Internal.Correction.Weighted>
   9.000000E+99

> <Gold.Protein.RotatedTorsions>
[ 6907 6896 6895 6894 ] final  -75.40 input  -60.11 | X-H torsion
[ 7974 7965 7964 7962 ] final  -33.97 input  175.53 | X-H torsion
[ 8008 7997 7996 7995 ] final  177.65 input   59.86 | X-H torsion
[ 10167 10162 10161 10158 ] final  115.27 input  -65.29 | X-H torsion
[ 10718 10713 10712 10709 ] final   45.40 input   66.30 | X-H torsion
[ 10763 10752 10751 10750 ] final -123.83 input  -60.55 | X-H torsion
[ 11005 11000 10999 10996 ] final  -44.84 input  -57.11 | X-H torsion

> <Gold.Protein.ActiveResidues>
 VAL166  LYS551  ARG553  GLY616  TRP617  ASP618  TYR619  PRO620  LYS621  CYS622 
 ASP623  PHE694  ASN695  SER759  ASP760  ASP761  ALA762  ILE779  LEU786  VAL792 
 PHE793  MET794  SER795  GLU796  ALA797  LYS798  CYS799  TRP800  GLU811  SER814 

> <Gold.Protein.RotatedAtoms>
  150.7060  134.4727  159.5432 H   0  0  0  0  0  0  0  0  0  0  0  0  # atno 6907 bound_to 6896
  152.2380  134.8254  160.0473 H   0  0  0  0  0  0  0  0  0  0  0  0  # atno 6908 bound_to 6896
  151.9046  133.3511  159.3879 H   0  0  0  0  0  0  0  0  0  0  0  0  # atno 6909 bound_to 6896
  146.0867  140.5981  142.8883 H   0  0  0  0  0  0  0  0  0  0  0  0  # atno 7974 bound_to 7965
  156.0633  140.1353  156.9915 H   0  0  0  0  0  0  0  0  0  0  0  0  # atno 8008 bound_to 7997
  154.4493  140.0987  156.6621 H   0  0  0  0  0  0  0  0  0  0  0  0  # atno 8009 bound_to 7997
  155.5343  140.3459  155.4435 H   0  0  0  0  0  0  0  0  0  0  0  0  # atno 8010 bound_to 7997
  139.6329  144.7117  151.2394 H   0  0  0  0  0  0  0  0  0  0  0  0  # atno 10167 bound_to 10162
  157.4372  130.8059  149.7659 H   0  0  0  0  0  0  0  0  0  0  0  0  # atno 10718 bound_to 10713
  154.8714  135.4085  154.3007 H   0  0  0  0  0  0  0  0  0  0  0  0  # atno 10763 bound_to 10752
  153.3867  135.7013  153.6530 H   0  0  0  0  0  0  0  0  0  0  0  0  # atno 10764 bound_to 10752
  153.5330  135.3663  155.2656 H   0  0  0  0  0  0  0  0  0  0  0  0  # atno 10765 bound_to 10752
  141.0476  133.6755  156.2929 H   0  0  0  0  0  0  0  0  0  0  0  0  # atno 11005 bound_to 11000
  144.7331  140.4730  143.6923 LP  0  0  0  0  0  0  0  0  0  0  0  0  # atno 17320 bound_to 7965
  145.6116  139.1514  143.3073 LP  0  0  0  0  0  0  0  0  0  0  0  0  # atno 17321 bound_to 7965
  140.7449  143.6448  150.8302 LP  0  0  0  0  0  0  0  0  0  0  0  0  # atno 17342 bound_to 10162
  140.0075  143.5678  152.2852 LP  0  0  0  0  0  0  0  0  0  0  0  0  # atno 17343 bound_to 10162
  155.9935  130.3924  150.2898 LP  0  0  0  0  0  0  0  0  0  0  0  0  # atno 17370 bound_to 10713
  157.1060  131.0208  151.3067 LP  0  0  0  0  0  0  0  0  0  0  0  0  # atno 17371 bound_to 10713
  140.6116  134.5453  157.5534 LP  0  0  0  0  0  0  0  0  0  0  0  0  # atno 17394 bound_to 11000
  139.9324  134.7938  156.0893 LP  0  0  0  0  0  0  0  0  0  0  0  0  # atno 17395 bound_to 11000

$$$$
