AV-unprocessed.smi:830|AV-procd|sdf|3872|dock4
  -GOLD-   22720 1323D 1   1.00000     0.00000
 Structure written by MMmdl.
 53 55  0  0  0  0  0  0  0  0  2 V2000
  151.6247  137.5543  154.0277 C   0  0  0  0  0  0  0  0  0  0  0  0
  150.3599  138.0410  154.7544 C   0  0  2  0  0  0  0  0  0  0  0  0
  149.1812  137.3296  154.2632 N   0  0  0  0  0  0  0  0  0  0  0  0
  148.0221  137.1872  154.9208 C   0  0  0  0  0  0  0  0  0  0  0  0
  147.8173  137.6357  156.0485 O   0  0  0  0  0  0  0  0  0  0  0  0
  147.1387  136.4808  154.1959 N   0  0  0  0  0  0  0  0  0  0  0  0
  145.8184  136.0857  154.5542 C   0  0  0  0  0  0  0  0  0  0  0  0
  145.0249  136.8715  155.4296 C   0  0  0  0  0  0  0  0  0  0  0  0
  143.7317  136.4428  155.7827 C   0  0  0  0  0  0  0  0  0  0  0  0
  143.2471  135.2355  155.2517 C   0  0  0  0  0  0  0  0  0  0  0  0
  144.0173  134.5212  154.4055 N   0  3  0  0  0  0  0  0  0  0  0  0
  145.2637  134.8880  154.0154 C   0  0  0  0  0  0  0  0  0  0  0  0
  145.9449  134.0420  153.1101 N   0  0  0  0  0  0  0  0  0  0  0  0
  146.1647  132.6371  153.4341 C   0  0  0  0  0  0  0  0  0  0  0  0
  146.5956  131.9908  152.1203 C   0  0  0  0  0  0  0  0  0  0  0  0
  145.7740  132.7620  151.0918 C   0  0  0  0  0  0  0  0  0  0  0  0
  145.6916  134.1753  151.6789 C   0  0  0  0  0  0  0  0  0  0  0  0
  150.1601  139.5589  154.6758 C   0  0  0  0  0  0  0  0  0  0  0  0
  151.0121  140.3277  155.1240 O   0  0  0  0  0  0  0  0  0  0  0  0
  149.0162  139.9783  154.1137 N   0  0  0  0  0  0  0  0  0  0  0  0
  148.6242  141.3752  153.9491 C   0  0  0  0  0  0  0  0  0  0  0  0
  148.3778  142.0325  155.3195 C   0  0  0  0  0  0  0  0  0  0  0  0
  146.8645  142.2197  155.4297 C   0  0  0  0  0  0  0  0  0  0  0  0
  146.4123  142.4420  153.9899 C   0  0  0  0  0  0  0  0  0  0  0  0
  147.3014  141.5091  153.1658 C   0  0  0  0  0  0  0  0  0  0  0  0
  152.5134  138.0700  154.3931 H   0  0  0  0  0  0  0  0  0  0  0  0
  151.5573  137.7297  152.9533 H   0  0  0  0  0  0  0  0  0  0  0  0
  151.7832  136.4864  154.1808 H   0  0  0  0  0  0  0  0  0  0  0  0
  150.4751  137.8039  155.8142 H   0  0  0  0  0  0  0  0  0  0  0  0
  149.2589  136.9272  153.3403 H   0  0  0  0  0  0  0  0  0  0  0  0
  147.4865  136.0982  153.3289 H   0  0  0  0  0  0  0  0  0  0  0  0
  145.3860  137.8047  155.8343 H   0  0  0  0  0  0  0  0  0  0  0  0
  143.1223  137.0317  156.4525 H   0  0  0  0  0  0  0  0  0  0  0  0
  142.2711  134.8260  155.4686 H   0  0  0  0  0  0  0  0  0  0  0  0
  146.9210  132.5197  154.2106 H   0  0  0  0  0  0  0  0  0  0  0  0
  145.2390  132.1767  153.7814 H   0  0  0  0  0  0  0  0  0  0  0  0
  147.6597  132.1612  151.9502 H   0  0  0  0  0  0  0  0  0  0  0  0
  146.4147  130.9158  152.0950 H   0  0  0  0  0  0  0  0  0  0  0  0
  146.2131  132.7432  150.0939 H   0  0  0  0  0  0  0  0  0  0  0  0
  144.7736  132.3318  151.0270 H   0  0  0  0  0  0  0  0  0  0  0  0
  144.7241  134.6348  151.4721 H   0  0  0  0  0  0  0  0  0  0  0  0
  146.4682  134.8041  151.2427 H   0  0  0  0  0  0  0  0  0  0  0  0
  148.3690  139.2804  153.7766 H   0  0  0  0  0  0  0  0  0  0  0  0
  149.4223  141.9174  153.4381 H   0  0  0  0  0  0  0  0  0  0  0  0
  148.7829  141.4602  156.1554 H   0  0  0  0  0  0  0  0  0  0  0  0
  148.8605  143.0107  155.3395 H   0  0  0  0  0  0  0  0  0  0  0  0
  146.4082  141.3100  155.8222 H   0  0  0  0  0  0  0  0  0  0  0  0
  146.5899  143.0433  156.0894 H   0  0  0  0  0  0  0  0  0  0  0  0
  145.3497  142.2441  153.8469 H   0  0  0  0  0  0  0  0  0  0  0  0
  146.6003  143.4774  153.7027 H   0  0  0  0  0  0  0  0  0  0  0  0
  147.4597  141.8856  152.1548 H   0  0  0  0  0  0  0  0  0  0  0  0
  146.8082  140.5399  153.0739 H   0  0  0  0  0  0  0  0  0  0  0  0
  143.6334  133.6545  154.0289 H   0  0  0  0  0  0  0  0  0  0  0  0
  1  2  1  0  0  0  0
  1 26  1  0  0  0  0
  1 27  1  0  0  0  0
  1 28  1  0  0  0  0
  2  3  1  0  0  0  0
  2 18  1  0  0  0  0
  2 29  1  0  0  0  0
  3  4  1  0  0  0  0
  3 30  1  0  0  0  0
  4  5  2  0  0  0  0
  4  6  1  0  0  0  0
  6  7  1  0  0  0  0
  6 31  1  0  0  0  0
  7 12  1  0  0  0  0
  7  8  2  0  0  0  0
  8  9  1  0  0  0  0
  8 32  1  0  0  0  0
  9 10  2  0  0  0  0
  9 33  1  0  0  0  0
 10 11  1  0  0  0  0
 10 34  1  0  0  0  0
 11 12  2  0  0  0  0
 11 53  1  0  0  0  0
 12 13  1  0  0  0  0
 13 17  1  0  0  0  0
 13 14  1  0  0  0  0
 14 15  1  0  0  0  0
 14 35  1  0  0  0  0
 14 36  1  0  0  0  0
 15 16  1  0  0  0  0
 15 37  1  0  0  0  0
 15 38  1  0  0  0  0
 16 17  1  0  0  0  0
 16 39  1  0  0  0  0
 16 40  1  0  0  0  0
 17 41  1  0  0  0  0
 17 42  1  0  0  0  0
 18 19  2  0  0  0  0
 18 20  1  0  0  0  0
 20 21  1  0  0  0  0
 20 43  1  0  0  0  0
 21 25  1  0  0  0  0
 21 22  1  0  0  0  0
 21 44  1  0  0  0  0
 22 23  1  0  0  0  0
 22 45  1  0  0  0  0
 22 46  1  0  0  0  0
 23 24  1  0  0  0  0
 23 47  1  0  0  0  0
 23 48  1  0  0  0  0
 24 25  1  0  0  0  0
 24 49  1  0  0  0  0
 24 50  1  0  0  0  0
 25 51  1  0  0  0  0
 25 52  1  0  0  0  0
M  CHG  1  11   1
M  END
> <s_m_source_file>
AV-unprocessed.smi

> <i_m_source_file_index>
830

> <i_lp_mmshare_version>
43012

> <i_f3d_flags>
0

> <s_epik_input>
W0NIMl0xW0NIMl1bQ0gyXVtDSDJdW0NIXTFbTkhdQyg9TylbQ0BIXShbQ0gzXSlbTkhdQyg9TylbTkhdYzJbY0hdW2NIXVtjSF1uYzJOM1tDSDJdW0NIMl1bQ0gyXVtDSDJdMw==

> <s_epik_cmdline>
J2VwaWtfcHl0aG9uJywgJy1waCcsICc3LjAnLCAnLXRuJywgJzgnLCAnLW1hJywgJzIwMCcsICctbWV0YWxfYmluZGluZycsICctaW1hZScsICc8aW5maWxlLm1hZT4nLCAnLW9tYWUnLCAnPG91dGZpbGUubWFlPic=

> <r_lp_tautomer_probability>
0.999994

> <r_epik_Ionization_Penalty>
1.21091

> <r_epik_Ionization_Penalty_Charging>
1.21089

> <r_epik_Ionization_Penalty_Neutral>
1.88713e-05

> <r_epik_State_Penalty>
1.27732

> <r_epik_Charging_Adjusted_Penalty>
2.48821

> <i_epik_Tot_Q>
1

> <i_epik_Tot_abs_Q>
1

> <r_epik_Metal_State_Penalty>
1.3505

> <b_epik_Metal_Only>
0

> <s_lp_Force_Field>
OPLS_2005

> <r_lp_Energy>
52.1076

> <b_lp_Chiralities_Consistent>
1

> <s_lp_Variant>
AV-unprocessed.smi:830-3

> <Gold.Version>
5.8.1

> <Gold.Id.Protein>
6NUR|6NUR_protein|mol2

> <Gold.PLP.Fitness>
41.3634

> <Gold.PLP.PLP>
-28.9503

> <Gold.PLP.part.hbond>
-4.8563

> <Gold.PLP.part.metal>
0.0000

> <Gold.PLP.part.buried>
1.0509

> <Gold.PLP.part.nonpolar>
-25.5964

> <Gold.PLP.part.repulsive>
0.2702

> <Gold.PLP.ligand.clash>
0.0000

> <Gold.PLP.ligand.torsion>
0.8307

> <Gold.PLP.Chemscore.Hbond>
4.5344

> <Gold.PLP.Chemscore.CHOScore>
0.0000

> <Gold.PLP.Chemscore.Metal>
0.0000

> <Gold.Chemscore.Hbonds>
donor molecule, donor type, donor heavy atom, donor atom, acceptor molecule, acceptor atom, score
      L1  H     3    30       P1  7948  1.00
      L1  H     6    31       P1  7948  0.83
      L1  H    11    53       P1 10957  0.67
      P1  H  7989  7998       L1    19  0.80

> <Gold.PLP.Chemscore.Internal.Correction>
0.4712

> <Gold.Rescore>
     Score         DG    S(hbond)    S(metal)    S(lipo)     H(rot)  DE(clash)    DE(int)     intcor
     15.35     -18.76       2.80        0.00      70.04       1.67       0.41       3.00       ----

> <Gold.Chemscore.Fitness>
15.3465

> <Gold.Chemscore.DG>
-18.7577

> <Gold.Chemscore.ZeroCoef>
-5.4800

> <Gold.Chemscore.Hbond>
2.8001

> <Gold.Chemscore.Metal>
0.0000

> <Gold.Chemscore.Lipo>
70.0391

> <Gold.Chemscore.Internal_Hbond>
0.0000

> <Gold.Chemscore.DEClash>
0.4147

> <Gold.Chemscore.DEInternal>
2.9965

> <Gold.Chemscore.Rot>
1.6676

> <Gold.Chemscore.Internal.Correction>
   9.000000E+99

> <Gold.Chemscore.Hbonds>
donor molecule, donor type, donor heavy atom, donor atom, acceptor molecule, acceptor atom, score
      L1  H     3    30       P1  7948  0.97
      L1  H     6    31       P1  7948  0.77
      L1  H    11    53       P1 10957  0.34
      P1  H  7989  7998       L1    19  0.12

> <Gold.Chemscore.Hbond.Weighted>
-9.3523

> <Gold.Chemscore.Metal.Weighted>
-0.0000

> <Gold.Chemscore.Lipo.Weighted>
-8.1946

> <Gold.Chemscore.Internal_Hbond.Weighted>
0.0000

> <Gold.Chemscore.DEClash.Weighted>
0.4147

> <Gold.Chemscore.DEInternal.Weighted>
2.9965

> <Gold.Chemscore.Rot.Weighted>
4.2691

> <Gold.Chemscore.Internal.Correction.Weighted>
   9.000000E+99

> <Gold.Protein.RotatedTorsions>
[ 6907 6896 6895 6894 ] final  115.01 input  -60.11 | X-H torsion
[ 7974 7965 7964 7962 ] final -170.99 input  175.53 | X-H torsion
[ 8008 7997 7996 7995 ] final  -88.74 input   59.86 | X-H torsion
[ 10167 10162 10161 10158 ] final   81.92 input  -65.29 | X-H torsion
[ 10718 10713 10712 10709 ] final  155.92 input   66.30 | X-H torsion
[ 10763 10752 10751 10750 ] final  116.10 input  -60.55 | X-H torsion
[ 11005 11000 10999 10996 ] final   84.70 input  -57.11 | X-H torsion

> <Gold.Protein.ActiveResidues>
 VAL166  LYS551  ARG553  GLY616  TRP617  ASP618  TYR619  PRO620  LYS621  CYS622 
 ASP623  PHE694  ASN695  SER759  ASP760  ASP761  ALA762  ILE779  LEU786  VAL792 
 PHE793  MET794  SER795  GLU796  ALA797  LYS798  CYS799  TRP800  GLU811  SER814 

> <Gold.Protein.RotatedAtoms>
  152.4768  133.8157  159.7026 H   0  0  0  0  0  0  0  0  0  0  0  0  # atno 6907 bound_to 6896
  150.8790  133.7389  159.2944 H   0  0  0  0  0  0  0  0  0  0  0  0  # atno 6908 bound_to 6896
  151.4900  135.1060  159.9853 H   0  0  0  0  0  0  0  0  0  0  0  0  # atno 6909 bound_to 6896
  144.7162  140.1989  143.6340 H   0  0  0  0  0  0  0  0  0  0  0  0  # atno 7974 bound_to 7965
  154.6784  140.0550  157.0240 H   0  0  0  0  0  0  0  0  0  0  0  0  # atno 8008 bound_to 7997
  155.0987  140.3226  155.4534 H   0  0  0  0  0  0  0  0  0  0  0  0  # atno 8009 bound_to 7997
  156.2684  140.2035  156.6114 H   0  0  0  0  0  0  0  0  0  0  0  0  # atno 8010 bound_to 7997
  139.9342  144.6132  150.8315 H   0  0  0  0  0  0  0  0  0  0  0  0  # atno 10167 bound_to 10162
  157.2120  131.0699  151.1964 H   0  0  0  0  0  0  0  0  0  0  0  0  # atno 10718 bound_to 10713
  153.5321  135.3576  155.2680 H   0  0  0  0  0  0  0  0  0  0  0  0  # atno 10763 bound_to 10752
  154.8726  135.4071  154.3139 H   0  0  0  0  0  0  0  0  0  0  0  0  # atno 10764 bound_to 10752
  153.3830  135.7069  153.6619 H   0  0  0  0  0  0  0  0  0  0  0  0  # atno 10765 bound_to 10752
  139.8993  134.8235  156.2481 H   0  0  0  0  0  0  0  0  0  0  0  0  # atno 11005 bound_to 11000
  145.8699  139.2266  143.1667 LP  0  0  0  0  0  0  0  0  0  0  0  0  # atno 17320 bound_to 7965
  146.0095  140.8448  142.9978 LP  0  0  0  0  0  0  0  0  0  0  0  0  # atno 17321 bound_to 7965
  140.7629  143.3209  151.2624 LP  0  0  0  0  0  0  0  0  0  0  0  0  # atno 17342 bound_to 10162
  139.6757  143.9942  152.2779 LP  0  0  0  0  0  0  0  0  0  0  0  0  # atno 17343 bound_to 10162
  157.3663  130.7157  149.6535 LP  0  0  0  0  0  0  0  0  0  0  0  0  # atno 17370 bound_to 10713
  155.9690  130.4211  150.4455 LP  0  0  0  0  0  0  0  0  0  0  0  0  # atno 17371 bound_to 10713
  141.0242  133.7024  156.1319 LP  0  0  0  0  0  0  0  0  0  0  0  0  # atno 17394 bound_to 11000
  140.7190  134.4379  157.5576 LP  0  0  0  0  0  0  0  0  0  0  0  0  # atno 17395 bound_to 11000

$$$$
