AV-unprocessed.smi:671|AV-procd|sdf|3280|dock1
  -GOLD-   22720 0243D 1   1.00000     0.00000
 Structure written by MMmdl.
 49 50  0  0  0  0  0  0  0  0  1 V2000
  152.8069  138.5989  154.8511 C   0  0  0  0  0  0  0  0  0  0  0  0
  152.0240  139.4841  155.7781 C   0  0  0  0  0  0  0  0  0  0  0  0
  152.5063  139.7484  156.9811 N   0  0  0  0  0  0  0  0  0  0  0  0
  151.5872  140.5523  157.5524 N   0  0  0  0  0  0  0  0  0  0  0  0
  151.8087  141.0350  158.9018 C   0  0  0  0  0  0  0  0  0  0  0  0
  150.5184  140.7915  156.7106 C   0  0  0  0  0  0  0  0  0  0  0  0
  149.3615  141.6495  157.1112 C   0  0  0  0  0  0  0  0  0  0  0  0
  150.7679  140.1173  155.5453 C   0  0  0  0  0  0  0  0  0  0  0  0
  149.9183  140.0531  154.3023 C   0  0  0  0  0  0  0  0  0  0  0  0
  148.5169  139.4650  154.5792 C   0  0  1  0  0  0  0  0  0  0  0  0
  147.4082  140.1975  153.8073 C   0  0  0  0  0  0  0  0  0  0  0  0
  148.4768  138.0432  154.2281 N   0  0  0  0  0  0  0  0  0  0  0  0
  148.2987  136.9893  155.0461 C   0  0  0  0  0  0  0  0  0  0  0  0
  148.1263  137.1279  156.2555 O   0  0  0  0  0  0  0  0  0  0  0  0
  148.3092  135.7956  154.4297 N   0  0  0  0  0  0  0  0  0  0  0  0
  148.1401  134.5000  155.0799 C   0  0  1  0  0  0  0  0  0  0  0  0
  147.0400  133.6931  154.3666 C   0  0  0  0  0  0  0  0  0  0  0  0
  147.7652  132.6008  153.5826 C   0  0  0  0  0  0  0  0  0  0  0  0
  148.9875  132.2893  154.4392 C   0  0  0  0  0  0  0  0  0  0  0  0
  149.4305  133.6531  154.9812 C   0  0  2  0  0  0  0  0  0  0  0  0
  150.2075  133.5560  156.3010 C   0  0  0  0  0  0  0  0  0  0  0  0
  152.4095  137.5841  154.8560 H   0  0  0  0  0  0  0  0  0  0  0  0
  153.8581  138.5462  155.1364 H   0  0  0  0  0  0  0  0  0  0  0  0
  152.7641  138.9671  153.8264 H   0  0  0  0  0  0  0  0  0  0  0  0
  151.1986  140.4611  159.5991 H   0  0  0  0  0  0  0  0  0  0  0  0
  151.5336  142.0876  158.9697 H   0  0  0  0  0  0  0  0  0  0  0  0
  152.8587  140.9306  159.1784 H   0  0  0  0  0  0  0  0  0  0  0  0
  148.5691  141.6176  156.3642 H   0  0  0  0  0  0  0  0  0  0  0  0
  149.6716  142.6884  157.2242 H   0  0  0  0  0  0  0  0  0  0  0  0
  148.9386  141.3159  158.0589 H   0  0  0  0  0  0  0  0  0  0  0  0
  149.8111  141.0410  153.8531 H   0  0  0  0  0  0  0  0  0  0  0  0
  150.4268  139.4541  153.5464 H   0  0  0  0  0  0  0  0  0  0  0  0
  148.2894  139.5680  155.6417 H   0  0  0  0  0  0  0  0  0  0  0  0
  147.3531  141.2490  154.0898 H   0  0  0  0  0  0  0  0  0  0  0  0
  146.4318  139.7569  154.0115 H   0  0  0  0  0  0  0  0  0  0  0  0
  147.5756  140.1505  152.7306 H   0  0  0  0  0  0  0  0  0  0  0  0
  148.5437  137.8362  153.2419 H   0  0  0  0  0  0  0  0  0  0  0  0
  148.4521  135.7846  153.4306 H   0  0  0  0  0  0  0  0  0  0  0  0
  147.8427  134.6423  156.1207 H   0  0  0  0  0  0  0  0  0  0  0  0
  146.3975  133.2269  155.1145 H   0  0  0  0  0  0  0  0  0  0  0  0
  146.3965  134.3014  153.7295 H   0  0  0  0  0  0  0  0  0  0  0  0
  147.1404  131.7251  153.4057 H   0  0  0  0  0  0  0  0  0  0  0  0
  148.0822  132.9887  152.6137 H   0  0  0  0  0  0  0  0  0  0  0  0
  148.6957  131.6330  155.2604 H   0  0  0  0  0  0  0  0  0  0  0  0
  149.7751  131.7868  153.8772 H   0  0  0  0  0  0  0  0  0  0  0  0
  150.0896  134.0961  154.2321 H   0  0  0  0  0  0  0  0  0  0  0  0
  149.5998  133.1086  157.0877 H   0  0  0  0  0  0  0  0  0  0  0  0
  150.5205  134.5427  156.6426 H   0  0  0  0  0  0  0  0  0  0  0  0
  151.1036  132.9461  156.1834 H   0  0  0  0  0  0  0  0  0  0  0  0
  1  2  1  0  0  0  0
  1 22  1  0  0  0  0
  1 23  1  0  0  0  0
  1 24  1  0  0  0  0
  2  8  1  0  0  0  0
  2  3  2  0  0  0  0
  3  4  1  0  0  0  0
  4  5  1  0  0  0  0
  4  6  1  0  0  0  0
  5 25  1  0  0  0  0
  5 26  1  0  0  0  0
  5 27  1  0  0  0  0
  6  7  1  0  0  0  0
  6  8  2  0  0  0  0
  7 28  1  0  0  0  0
  7 29  1  0  0  0  0
  7 30  1  0  0  0  0
  8  9  1  0  0  0  0
  9 10  1  0  0  0  0
  9 31  1  0  0  0  0
  9 32  1  0  0  0  0
 10 11  1  0  0  0  0
 10 12  1  0  0  0  0
 10 33  1  0  0  0  0
 11 34  1  0  0  0  0
 11 35  1  0  0  0  0
 11 36  1  0  0  0  0
 12 13  1  0  0  0  0
 12 37  1  0  0  0  0
 13 14  2  0  0  0  0
 13 15  1  0  0  0  0
 15 16  1  0  0  0  0
 15 38  1  0  0  0  0
 16 20  1  0  0  0  0
 16 17  1  0  0  0  0
 16 39  1  0  0  0  0
 17 18  1  0  0  0  0
 17 40  1  0  0  0  0
 17 41  1  0  0  0  0
 18 19  1  0  0  0  0
 18 42  1  0  0  0  0
 18 43  1  0  0  0  0
 19 20  1  0  0  0  0
 19 44  1  0  0  0  0
 19 45  1  0  0  0  0
 20 21  1  0  0  0  0
 20 46  1  0  0  0  0
 21 47  1  0  0  0  0
 21 48  1  0  0  0  0
 21 49  1  0  0  0  0
M  END
> <s_m_source_file>
AV-unprocessed.smi

> <i_m_source_file_index>
671

> <i_lp_mmshare_version>
43012

> <i_f3d_flags>
0

> <s_epik_input>
W0NIM11jMW5uKFtDSDNdKWMoW0NIM10pYzFbQ0gyXVtDQEhdKFtDSDNdKVtOSF1DKD1PKVtOSF1bQ0BASF0yW0NIMl1bQ0gyXVtDSDJdW0NASF0yW0NIM10=

> <s_epik_cmdline>
J2VwaWtfcHl0aG9uJywgJy1waCcsICc3LjAnLCAnLXRuJywgJzgnLCAnLW1hJywgJzIwMCcsICctbWV0YWxfYmluZGluZycsICctaW1hZScsICc8aW5maWxlLm1hZT4nLCAnLW9tYWUnLCAnPG91dGZpbGUubWFlPic=

> <r_lp_tautomer_probability>
1

> <r_epik_Ionization_Penalty>
0.0126855

> <r_epik_Ionization_Penalty_Charging>
0

> <r_epik_Ionization_Penalty_Neutral>
0.0126855

> <r_epik_State_Penalty>
0.00977547

> <r_epik_Charging_Adjusted_Penalty>
0.00977547

> <i_epik_Tot_Q>
0

> <i_epik_Tot_abs_Q>
0

> <r_epik_Metal_State_Penalty>
0.00957132

> <b_epik_Metal_Only>
0

> <s_lp_Force_Field>
OPLS_2005

> <r_lp_Energy>
22.0213

> <b_lp_Chiralities_Consistent>
1

> <s_lp_Variant>
AV-unprocessed.smi:671-8

> <Gold.Version>
5.8.1

> <Gold.Id.Protein>
6NUR|6NUR_protein|mol2

> <Gold.PLP.Fitness>
43.0137

> <Gold.PLP.PLP>
-35.5454

> <Gold.PLP.part.hbond>
-3.0000

> <Gold.PLP.part.metal>
0.0000

> <Gold.PLP.part.buried>
-2.3094

> <Gold.PLP.part.nonpolar>
-30.5219

> <Gold.PLP.part.repulsive>
0.0280

> <Gold.PLP.ligand.clash>
0.0000

> <Gold.PLP.ligand.torsion>
0.6054

> <Gold.PLP.Chemscore.Hbond>
2.8480

> <Gold.PLP.Chemscore.CHOScore>
0.0000

> <Gold.PLP.Chemscore.Metal>
0.0000

> <Gold.Chemscore.Hbonds>
donor molecule, donor type, donor heavy atom, donor atom, acceptor molecule, acceptor atom, score
      L1  H    12    37       P1  7948  0.63
      L1  H    15    38       P1  7948  1.00
      P1  H  7997  8008       L1     3  1.00

> <Gold.PLP.Chemscore.Internal.Correction>
0.1352

> <Gold.Rescore>
     Score         DG    S(hbond)    S(metal)    S(lipo)     H(rot)  DE(clash)    DE(int)     intcor
     20.48     -21.67       2.81        0.00      89.97       1.45       0.44       0.75       ----

> <Gold.Chemscore.Fitness>
20.4769

> <Gold.Chemscore.DG>
-21.6692

> <Gold.Chemscore.ZeroCoef>
-5.4800

> <Gold.Chemscore.Hbond>
2.8066

> <Gold.Chemscore.Metal>
0.0000

> <Gold.Chemscore.Lipo>
89.9738

> <Gold.Chemscore.Internal_Hbond>
0.0000

> <Gold.Chemscore.DEClash>
0.4382

> <Gold.Chemscore.DEInternal>
0.7541

> <Gold.Chemscore.Rot>
1.4499

> <Gold.Chemscore.Internal.Correction>
   9.000000E+99

> <Gold.Chemscore.Hbonds>
donor molecule, donor type, donor heavy atom, donor atom, acceptor molecule, acceptor atom, score
      L1  H    12    37       P1  7948  0.62
      L1  H    15    38       P1  7948  1.00
      P1  H  7997  8008       L1     3  0.25

> <Gold.Chemscore.Hbond.Weighted>
-9.3741

> <Gold.Chemscore.Metal.Weighted>
-0.0000

> <Gold.Chemscore.Lipo.Weighted>
-10.5269

> <Gold.Chemscore.Internal_Hbond.Weighted>
0.0000

> <Gold.Chemscore.DEClash.Weighted>
0.4382

> <Gold.Chemscore.DEInternal.Weighted>
0.7541

> <Gold.Chemscore.Rot.Weighted>
3.7118

> <Gold.Chemscore.Internal.Correction.Weighted>
   9.000000E+99

> <Gold.Protein.RotatedTorsions>
[ 6907 6896 6895 6894 ] final   29.36 input  -60.11 | X-H torsion
[ 7974 7965 7964 7962 ] final   94.88 input  175.53 | X-H torsion
[ 8008 7997 7996 7995 ] final  -54.52 input   59.86 | X-H torsion
[ 10167 10162 10161 10158 ] final -105.57 input  -65.29 | X-H torsion
[ 10718 10713 10712 10709 ] final  -22.40 input   66.30 | X-H torsion
[ 10763 10752 10751 10750 ] final   -8.07 input  -60.55 | X-H torsion
[ 11005 11000 10999 10996 ] final   24.56 input  -57.11 | X-H torsion

> <Gold.Protein.ActiveResidues>
 VAL166  LYS551  ARG553  GLY616  TRP617  ASP618  TYR619  PRO620  LYS621  CYS622 
 ASP623  PHE694  ASN695  SER759  ASP760  ASP761  ALA762  ILE779  LEU786  VAL792 
 PHE793  MET794  SER795  GLU796  ALA797  LYS798  CYS799  TRP800  GLU811  SER814 

> <Gold.Protein.RotatedAtoms>
  152.0304  134.9771  160.0572 H   0  0  0  0  0  0  0  0  0  0  0  0  # atno 6907 bound_to 6896
  152.1249  133.4370  159.4701 H   0  0  0  0  0  0  0  0  0  0  0  0  # atno 6908 bound_to 6896
  150.6852  134.2409  159.4515 H   0  0  0  0  0  0  0  0  0  0  0  0  # atno 6909 bound_to 6896
  145.4596  139.2288  143.2995 H   0  0  0  0  0  0  0  0  0  0  0  0  # atno 7974 bound_to 7965
  154.4165  140.1174  156.5328 H   0  0  0  0  0  0  0  0  0  0  0  0  # atno 8008 bound_to 7997
  155.6588  140.3496  155.4756 H   0  0  0  0  0  0  0  0  0  0  0  0  # atno 8009 bound_to 7997
  155.9731  140.1145  157.0784 H   0  0  0  0  0  0  0  0  0  0  0  0  # atno 8010 bound_to 7997
  140.1971  143.3847  152.1159 H   0  0  0  0  0  0  0  0  0  0  0  0  # atno 10167 bound_to 10162
  156.5051  130.4597  149.6679 H   0  0  0  0  0  0  0  0  0  0  0  0  # atno 10718 bound_to 10713
  153.4352  135.7013  153.6204 H   0  0  0  0  0  0  0  0  0  0  0  0  # atno 10763 bound_to 10752
  153.4602  135.3738  155.2334 H   0  0  0  0  0  0  0  0  0  0  0  0  # atno 10764 bound_to 10752
  154.8726  135.4018  154.3742 H   0  0  0  0  0  0  0  0  0  0  0  0  # atno 10765 bound_to 10752
  140.3573  134.2163  155.7675 H   0  0  0  0  0  0  0  0  0  0  0  0  # atno 11005 bound_to 11000
  146.2459  140.5363  142.8914 LP  0  0  0  0  0  0  0  0  0  0  0  0  # atno 17320 bound_to 7965
  144.8011  140.6215  143.6477 LP  0  0  0  0  0  0  0  0  0  0  0  0  # atno 17321 bound_to 7965
  139.5232  144.7068  151.5328 LP  0  0  0  0  0  0  0  0  0  0  0  0  # atno 17342 bound_to 10162
  140.6416  143.8878  150.6697 LP  0  0  0  0  0  0  0  0  0  0  0  0  # atno 17343 bound_to 10162
  156.3295  130.7323  151.2250 LP  0  0  0  0  0  0  0  0  0  0  0  0  # atno 17370 bound_to 10713
  157.7458  131.0434  150.4741 LP  0  0  0  0  0  0  0  0  0  0  0  0  # atno 17371 bound_to 10713
  141.1994  133.8011  157.0536 LP  0  0  0  0  0  0  0  0  0  0  0  0  # atno 17394 bound_to 11000
  140.0654  134.9731  157.1377 LP  0  0  0  0  0  0  0  0  0  0  0  0  # atno 17395 bound_to 11000

$$$$
