AV-unprocessed.smi:670|AV-procd|sdf|3266|dock1
  -GOLD-   22720 0213D 1   1.00000     0.00000
 Structure written by MMmdl.
 44 45  0  0  0  0  0  0  0  0  2 V2000
  150.5948  141.7118  156.8233 C   0  0  0  0  0  0  0  0  0  0  0  0
  150.8771  142.8465  157.8204 C   0  0  1  0  0  0  0  0  0  0  0  0
  149.6475  143.1529  158.7012 C   0  0  0  0  0  0  0  0  0  0  0  0
  149.9207  144.3128  159.6717 C   0  0  0  0  0  0  0  0  0  0  0  0
  151.1685  144.0438  160.5247 C   0  0  0  0  0  0  0  0  0  0  0  0
  152.3921  143.7434  159.6455 C   0  0  0  0  0  0  0  0  0  0  0  0
  152.1242  142.5617  158.6877 C   0  0  1  0  0  0  0  0  0  0  0  0
  151.8824  141.3621  159.4130 O   0  0  0  0  0  0  0  0  0  0  0  0
  153.0359  140.6777  159.8763 C   0  0  0  0  0  0  0  0  0  0  0  0
  153.4405  139.6260  158.8321 C   0  0  0  0  0  0  0  0  0  0  0  0
  152.3382  138.7192  158.5291 N   0  0  0  0  0  0  0  0  0  0  0  0
  152.3137  137.4068  158.8098 C   0  0  0  0  0  0  0  0  0  0  0  0
  153.2196  136.8273  159.4098 O   0  0  0  0  0  0  0  0  0  0  0  0
  151.0590  136.6396  158.3724 C   0  0  0  0  0  0  0  0  0  0  0  0
  151.3829  135.4160  157.6265 N   0  0  0  0  0  0  0  0  0  0  0  0
  150.8518  134.2026  158.2433 N   0  5  0  0  0  0  0  0  0  0  0  0
  151.0357  133.0076  157.6223 C   0  0  0  0  0  0  0  0  0  0  0  0
  150.5918  131.9512  158.0657 O   0  0  0  0  0  0  0  0  0  0  0  0
  151.7925  132.9908  156.3817 C   0  0  0  0  0  0  0  0  0  0  0  0
  152.3005  134.1213  155.8528 C   0  0  0  0  0  0  0  0  0  0  0  0
  152.1189  135.4256  156.4779 C   0  0  0  0  0  0  0  0  0  0  0  0
  152.5890  136.4587  156.0021 O   0  0  0  0  0  0  0  0  0  0  0  0
  150.3446  140.7825  157.3363 H   0  0  0  0  0  0  0  0  0  0  0  0
  151.4612  141.5204  156.1900 H   0  0  0  0  0  0  0  0  0  0  0  0
  149.7586  141.9640  156.1708 H   0  0  0  0  0  0  0  0  0  0  0  0
  151.0872  143.7400  157.2305 H   0  0  0  0  0  0  0  0  0  0  0  0
  148.7906  143.3991  158.0735 H   0  0  0  0  0  0  0  0  0  0  0  0
  149.3657  142.2648  159.2688 H   0  0  0  0  0  0  0  0  0  0  0  0
  150.0557  145.2369  159.1086 H   0  0  0  0  0  0  0  0  0  0  0  0
  149.0564  144.4673  160.3178 H   0  0  0  0  0  0  0  0  0  0  0  0
  151.3713  144.8996  161.1686 H   0  0  0  0  0  0  0  0  0  0  0  0
  150.9815  143.1977  161.1855 H   0  0  0  0  0  0  0  0  0  0  0  0
  152.6372  144.6302  159.0598 H   0  0  0  0  0  0  0  0  0  0  0  0
  153.2619  143.5555  160.2732 H   0  0  0  0  0  0  0  0  0  0  0  0
  152.9841  142.4210  158.0306 H   0  0  0  0  0  0  0  0  0  0  0  0
  153.8474  141.3933  160.0143 H   0  0  0  0  0  0  0  0  0  0  0  0
  152.8606  140.1950  160.8373 H   0  0  0  0  0  0  0  0  0  0  0  0
  153.8119  140.1054  157.9248 H   0  0  0  0  0  0  0  0  0  0  0  0
  154.2620  139.0255  159.2225 H   0  0  0  0  0  0  0  0  0  0  0  0
  151.5484  139.1078  158.0343 H   0  0  0  0  0  0  0  0  0  0  0  0
  150.4725  136.3955  159.2596 H   0  0  0  0  0  0  0  0  0  0  0  0
  150.4173  137.2906  157.7748 H   0  0  0  0  0  0  0  0  0  0  0  0
  151.9533  132.0510  155.8748 H   0  0  0  0  0  0  0  0  0  0  0  0
  152.8583  134.0622  154.9302 H   0  0  0  0  0  0  0  0  0  0  0  0
  1  2  1  0  0  0  0
  1 23  1  0  0  0  0
  1 24  1  0  0  0  0
  1 25  1  0  0  0  0
  2  7  1  0  0  0  0
  2  3  1  0  0  0  0
  2 26  1  0  0  0  0
  3  4  1  0  0  0  0
  3 27  1  0  0  0  0
  3 28  1  0  0  0  0
  4  5  1  0  0  0  0
  4 29  1  0  0  0  0
  4 30  1  0  0  0  0
  5  6  1  0  0  0  0
  5 31  1  0  0  0  0
  5 32  1  0  0  0  0
  6  7  1  0  0  0  0
  6 33  1  0  0  0  0
  6 34  1  0  0  0  0
  7  8  1  0  0  0  0
  7 35  1  0  0  0  0
  8  9  1  0  0  0  0
  9 10  1  0  0  0  0
  9 36  1  0  0  0  0
  9 37  1  0  0  0  0
 10 11  1  0  0  0  0
 10 38  1  0  0  0  0
 10 39  1  0  0  0  0
 11 12  1  0  0  0  0
 11 40  1  0  0  0  0
 12 13  2  0  0  0  0
 12 14  1  0  0  0  0
 14 41  1  0  0  0  0
 14 42  1  0  0  0  0
 14 15  1  0  0  0  0
 15 16  1  0  0  0  0
 15 21  1  0  0  0  0
 16 17  1  0  0  0  0
 17 18  2  0  0  0  0
 17 19  1  0  0  0  0
 19 43  1  0  0  0  0
 19 20  2  0  0  0  0
 20 44  1  0  0  0  0
 20 21  1  0  0  0  0
 21 22  2  0  0  0  0
M  CHG  1  16  -1
M  END
> <s_m_source_file>
AV-unprocessed.smi

> <i_m_source_file_index>
670

> <i_lp_mmshare_version>
43012

> <i_f3d_flags>
0

> <s_epik_input>
W0NIM11bQ0BASF0xW0NIMl1bQ0gyXVtDSDJdW0NIMl1bQ0BIXTFPW0NIMl1bQ0gyXVtOSF1DKD1PKVtDSDJdbjJbbkhdYyg9TylbY0hdW2NIXWMyPU8=

> <s_epik_cmdline>
J2VwaWtfcHl0aG9uJywgJy1waCcsICc3LjAnLCAnLXRuJywgJzgnLCAnLW1hJywgJzIwMCcsICctbWV0YWxfYmluZGluZycsICctaW1hZScsICc8aW5maWxlLm1hZT4nLCAnLW9tYWUnLCAnPG91dGZpbGUubWFlPic=

> <r_lp_tautomer_probability>
1

> <r_epik_Ionization_Penalty>
0.0975638

> <r_epik_Ionization_Penalty_Charging>
0.0975637

> <r_epik_Ionization_Penalty_Neutral>
2.78599e-08

> <r_epik_State_Penalty>
0.0343507

> <r_epik_Charging_Adjusted_Penalty>
0.131914

> <i_epik_Tot_Q>
-1

> <i_epik_Tot_abs_Q>
1

> <r_epik_Metal_State_Penalty>
0.0343507

> <b_epik_Metal_Only>
0

> <s_lp_Force_Field>
OPLS_2005

> <r_lp_Energy>
24.4617

> <b_lp_Chiralities_Consistent>
1

> <s_lp_Variant>
AV-unprocessed.smi:670-2

> <Gold.Version>
5.8.1

> <Gold.Id.Protein>
6NUR|6NUR_protein|mol2

> <Gold.PLP.Fitness>
45.2628

> <Gold.PLP.PLP>
-34.8712

> <Gold.PLP.part.hbond>
-2.9710

> <Gold.PLP.part.metal>
0.0000

> <Gold.PLP.part.buried>
-5.4689

> <Gold.PLP.part.nonpolar>
-27.0869

> <Gold.PLP.part.repulsive>
0.1183

> <Gold.PLP.ligand.clash>
0.0000

> <Gold.PLP.ligand.torsion>
0.5385

> <Gold.PLP.Chemscore.Hbond>
3.7594

> <Gold.PLP.Chemscore.CHOScore>
0.0000

> <Gold.PLP.Chemscore.Metal>
0.0000

> <Gold.Chemscore.Hbonds>
donor molecule, donor type, donor heavy atom, donor atom, acceptor molecule, acceptor atom, score
      P1  H  6896  6907       L1    13  0.47
      P1  H  6896  6909       L1    16  0.03
      P1  H 10752 10764       L1    22  0.21

> <Gold.PLP.Chemscore.Internal.Correction>
0.1906

> <Gold.Rescore>
     Score         DG    S(hbond)    S(metal)    S(lipo)     H(rot)  DE(clash)    DE(int)     intcor
     16.12     -17.68       1.97        0.00     101.76       2.45       0.01       1.55       ----

> <Gold.Chemscore.Fitness>
16.1178

> <Gold.Chemscore.DG>
-17.6842

> <Gold.Chemscore.ZeroCoef>
-5.4800

> <Gold.Chemscore.Hbond>
1.9663

> <Gold.Chemscore.Metal>
0.0000

> <Gold.Chemscore.Lipo>
101.7614

> <Gold.Chemscore.Internal_Hbond>
0.0000

> <Gold.Chemscore.DEClash>
0.0141

> <Gold.Chemscore.DEInternal>
1.5523

> <Gold.Chemscore.Rot>
2.4490

> <Gold.Chemscore.Internal.Correction>
   9.000000E+99

> <Gold.Chemscore.Hbonds>
donor molecule, donor type, donor heavy atom, donor atom, acceptor molecule, acceptor atom, score
      P1  H  6896  6907       L1    13  0.09
      P1  H  6896  6909       L1    16  0.02

> <Gold.Chemscore.Hbond.Weighted>
-6.5675

> <Gold.Chemscore.Metal.Weighted>
-0.0000

> <Gold.Chemscore.Lipo.Weighted>
-11.9061

> <Gold.Chemscore.Internal_Hbond.Weighted>
0.0000

> <Gold.Chemscore.DEClash.Weighted>
0.0141

> <Gold.Chemscore.DEInternal.Weighted>
1.5523

> <Gold.Chemscore.Rot.Weighted>
6.2694

> <Gold.Chemscore.Internal.Correction.Weighted>
   9.000000E+99

> <Gold.Protein.RotatedTorsions>
[ 6907 6896 6895 6894 ] final   30.43 input  -60.11 | X-H torsion
[ 7974 7965 7964 7962 ] final  -85.51 input  175.53 | X-H torsion
[ 8008 7997 7996 7995 ] final   59.14 input   59.86 | X-H torsion
[ 10167 10162 10161 10158 ] final -137.65 input  -65.29 | X-H torsion
[ 10718 10713 10712 10709 ] final  178.14 input   66.30 | X-H torsion
[ 10763 10752 10751 10750 ] final  -50.88 input  -60.55 | X-H torsion
[ 11005 11000 10999 10996 ] final  -61.81 input  -57.11 | X-H torsion

> <Gold.Protein.ActiveResidues>
 VAL166  LYS551  ARG553  GLY616  TRP617  ASP618  TYR619  PRO620  LYS621  CYS622 
 ASP623  PHE694  ASN695  SER759  ASP760  ASP761  ALA762  ILE779  LEU786  VAL792 
 PHE793  MET794  SER795  GLU796  ALA797  LYS798  CYS799  TRP800  GLU811  SER814 

> <Gold.Protein.RotatedAtoms>
  152.0458  134.9684  160.0574 H   0  0  0  0  0  0  0  0  0  0  0  0  # atno 6907 bound_to 6896
  152.1104  133.4293  159.4636 H   0  0  0  0  0  0  0  0  0  0  0  0  # atno 6908 bound_to 6896
  150.6843  134.2573  159.4578 H   0  0  0  0  0  0  0  0  0  0  0  0  # atno 6909 bound_to 6896
  145.4923  140.9552  143.1805 H   0  0  0  0  0  0  0  0  0  0  0  0  # atno 7974 bound_to 7965
  155.5614  140.3488  155.4492 H   0  0  0  0  0  0  0  0  0  0  0  0  # atno 8008 bound_to 7997
  156.0512  140.1318  157.0074 H   0  0  0  0  0  0  0  0  0  0  0  0  # atno 8009 bound_to 7997
  154.4435  140.1004  156.6363 H   0  0  0  0  0  0  0  0  0  0  0  0  # atno 8010 bound_to 7997
  139.8556  143.7142  152.2654 H   0  0  0  0  0  0  0  0  0  0  0  0  # atno 10167 bound_to 10162
  156.8950  130.9860  151.3044 H   0  0  0  0  0  0  0  0  0  0  0  0  # atno 10718 bound_to 10713
  154.1175  135.6540  153.4896 H   0  0  0  0  0  0  0  0  0  0  0  0  # atno 10763 bound_to 10752
  153.0236  135.5262  154.7130 H   0  0  0  0  0  0  0  0  0  0  0  0  # atno 10764 bound_to 10752
  154.6328  135.2978  155.0166 H   0  0  0  0  0  0  0  0  0  0  0  0  # atno 10765 bound_to 10752
  141.1338  133.6633  156.5432 H   0  0  0  0  0  0  0  0  0  0  0  0  # atno 11005 bound_to 11000
  144.7827  139.6492  143.7147 LP  0  0  0  0  0  0  0  0  0  0  0  0  # atno 17320 bound_to 7965
  146.2276  139.5753  142.9576 LP  0  0  0  0  0  0  0  0  0  0  0  0  # atno 17321 bound_to 7965
  139.7423  144.7556  151.0634 LP  0  0  0  0  0  0  0  0  0  0  0  0  # atno 17342 bound_to 10162
  140.7782  143.4958  150.9834 LP  0  0  0  0  0  0  0  0  0  0  0  0  # atno 17343 bound_to 10162
  157.6061  130.8548  149.8877 LP  0  0  0  0  0  0  0  0  0  0  0  0  # atno 17370 bound_to 10713
  156.0610  130.3700  150.0982 LP  0  0  0  0  0  0  0  0  0  0  0  0  # atno 17371 bound_to 10713
  140.4123  134.7261  157.4843 LP  0  0  0  0  0  0  0  0  0  0  0  0  # atno 17394 bound_to 11000
  140.0419  134.6255  155.8970 LP  0  0  0  0  0  0  0  0  0  0  0  0  # atno 17395 bound_to 11000

$$$$
