AV-unprocessed.smi:1750|AV-procd|sdf|7054|dock10
  -GOLD-   22720 8273D 1   1.00000     0.00000
 Structure written by MMmdl.
 35 36  0  0  0  0  0  0  0  0  2 V2000
  143.3353  134.3106  163.2897 C   0  0  0  0  0  0  0  0  0  0  0  0
  144.3549  135.0647  162.4295 C   0  0  0  0  0  0  0  0  0  0  0  0
  145.8053  134.7201  162.7951 C   0  0  0  0  0  0  0  0  0  0  0  0
  146.7966  135.4555  161.9563 C   0  0  0  0  0  0  0  0  0  0  0  0
  146.8087  136.7866  161.8466 N   0  0  0  0  0  0  0  0  0  0  0  0
  147.8037  137.2313  160.9883 N   0  0  0  0  0  0  0  0  0  0  0  0
  148.5096  136.2325  160.4390 C   0  0  0  0  0  0  0  0  0  0  0  0
  149.5152  136.4487  159.5747 N   0  5  0  0  0  0  0  0  0  0  0  0
  149.4896  137.5338  158.7678 C   0  0  0  0  0  0  0  0  0  0  0  0
  148.6849  137.7503  157.8588 O   0  0  0  0  0  0  0  0  0  0  0  0
  150.4558  138.4239  159.0279 N   0  0  0  0  0  0  0  0  0  0  0  0
  150.6547  139.6808  158.3170 C   0  0  0  0  0  0  0  0  0  0  0  0
  151.2466  140.7488  159.2478 C   0  0  2  0  0  0  0  0  0  0  0  0
  151.3260  142.1508  158.6475 C   0  0  0  0  0  0  0  0  0  0  0  0
  152.4124  142.8166  159.4754 C   0  0  0  0  0  0  0  0  0  0  0  0
  153.1882  141.6436  160.0846 C   0  0  0  0  0  0  0  0  0  0  0  0
  152.6074  140.4682  159.5328 O   0  0  0  0  0  0  0  0  0  0  0  0
  148.0005  134.6329  160.9784 S   0  0  0  0  0  0  0  0  0  0  0  0
  142.3169  134.5803  163.0099 H   0  0  0  0  0  0  0  0  0  0  0  0
  143.4633  134.5438  164.3469 H   0  0  0  0  0  0  0  0  0  0  0  0
  143.4394  133.2321  163.1682 H   0  0  0  0  0  0  0  0  0  0  0  0
  144.1782  134.8326  161.3786 H   0  0  0  0  0  0  0  0  0  0  0  0
  144.1953  136.1381  162.5393 H   0  0  0  0  0  0  0  0  0  0  0  0
  145.9928  134.9517  163.8443 H   0  0  0  0  0  0  0  0  0  0  0  0
  145.9780  133.6499  162.6766 H   0  0  0  0  0  0  0  0  0  0  0  0
  151.0953  138.2136  159.7797 H   0  0  0  0  0  0  0  0  0  0  0  0
  151.3242  139.5208  157.4705 H   0  0  0  0  0  0  0  0  0  0  0  0
  149.7002  140.0190  157.9108 H   0  0  0  0  0  0  0  0  0  0  0  0
  150.6926  140.7772  160.1882 H   0  0  0  0  0  0  0  0  0  0  0  0
  151.6412  142.0956  157.6046 H   0  0  0  0  0  0  0  0  0  0  0  0
  150.3753  142.6834  158.6852 H   0  0  0  0  0  0  0  0  0  0  0  0
  153.0469  143.4559  158.8608 H   0  0  0  0  0  0  0  0  0  0  0  0
  151.9787  143.4322  160.2644 H   0  0  0  0  0  0  0  0  0  0  0  0
  154.2540  141.6875  159.8595 H   0  0  0  0  0  0  0  0  0  0  0  0
  153.0713  141.6293  161.1689 H   0  0  0  0  0  0  0  0  0  0  0  0
  1  2  1  0  0  0  0
  1 19  1  0  0  0  0
  1 20  1  0  0  0  0
  1 21  1  0  0  0  0
  2  3  1  0  0  0  0
  2 22  1  0  0  0  0
  2 23  1  0  0  0  0
  3  4  1  0  0  0  0
  3 24  1  0  0  0  0
  3 25  1  0  0  0  0
  4 18  1  0  0  0  0
  4  5  2  0  0  0  0
  5  6  1  0  0  0  0
  6  7  2  0  0  0  0
  7  8  1  0  0  0  0
  7 18  1  0  0  0  0
  8  9  1  0  0  0  0
  9 10  2  0  0  0  0
  9 11  1  0  0  0  0
 11 12  1  0  0  0  0
 11 26  1  0  0  0  0
 12 13  1  0  0  0  0
 12 27  1  0  0  0  0
 12 28  1  0  0  0  0
 13 17  1  0  0  0  0
 13 14  1  0  0  0  0
 13 29  1  0  0  0  0
 14 15  1  0  0  0  0
 14 30  1  0  0  0  0
 14 31  1  0  0  0  0
 15 16  1  0  0  0  0
 15 32  1  0  0  0  0
 15 33  1  0  0  0  0
 16 17  1  0  0  0  0
 16 34  1  0  0  0  0
 16 35  1  0  0  0  0
M  CHG  1   8  -1
M  END
> <s_m_source_file>
AV-unprocessed.smi

> <i_m_source_file_index>
1750

> <i_lp_mmshare_version>
43012

> <i_f3d_flags>
0

> <s_epik_input>
W0NIM11bQ0gyXVtDSDJdYzFubmMoczEpW05IXUMoPU8pW05IXVtDSDJdW0NAQEhdMltDSDJdW0NIMl1bQ0gyXU8y

> <s_epik_cmdline>
J2VwaWtfcHl0aG9uJywgJy1waCcsICc3LjAnLCAnLXRuJywgJzgnLCAnLW1hJywgJzIwMCcsICctbWV0YWxfYmluZGluZycsICctaW1hZScsICc8aW5maWxlLm1hZT4nLCAnLW9tYWUnLCAnPG91dGZpbGUubWFlPic=

> <r_lp_tautomer_probability>
1

> <r_epik_Ionization_Penalty>
4.22484

> <r_epik_Ionization_Penalty_Charging>
4.21437

> <r_epik_Ionization_Penalty_Neutral>
0.0104685

> <r_epik_State_Penalty>
4.21389

> <r_epik_Charging_Adjusted_Penalty>
8.42826

> <i_epik_Tot_Q>
-1

> <i_epik_Tot_abs_Q>
1

> <r_epik_Metal_State_Penalty>
0.69377

> <b_epik_Metal_Only>
1

> <s_lp_Force_Field>
OPLS_2005

> <r_lp_Energy>
11.1337

> <b_lp_Chiralities_Consistent>
1

> <s_lp_Variant>
AV-unprocessed.smi:1750-3

> <Gold.Version>
5.8.1

> <Gold.Id.Protein>
6NUR|6NUR_protein|mol2

> <Gold.PLP.Fitness>
40.1772

> <Gold.PLP.PLP>
-32.2349

> <Gold.PLP.part.hbond>
-3.0901

> <Gold.PLP.part.metal>
0.0000

> <Gold.PLP.part.buried>
-5.3323

> <Gold.PLP.part.nonpolar>
-24.3489

> <Gold.PLP.part.repulsive>
0.1940

> <Gold.PLP.ligand.clash>
0.0000

> <Gold.PLP.ligand.torsion>
1.0638

> <Gold.PLP.Chemscore.Hbond>
3.3448

> <Gold.PLP.Chemscore.CHOScore>
0.0000

> <Gold.PLP.Chemscore.Metal>
0.0000

> <Gold.Chemscore.Hbonds>
donor molecule, donor type, donor heavy atom, donor atom, acceptor molecule, acceptor atom, score
      P1  H  6896  6908       L1     8  1.43
      P1  H  6931  6943       L1     6  0.90
      P1  H  6934  6947       L1     6  0.62

> <Gold.PLP.Chemscore.Internal.Correction>
0.0354

> <Gold.Rescore>
     Score         DG    S(hbond)    S(metal)    S(lipo)     H(rot)  DE(clash)    DE(int)     intcor
     14.82     -16.14       1.77        0.00      75.42       1.59       0.03       1.29       ----

> <Gold.Chemscore.Fitness>
14.8165

> <Gold.Chemscore.DG>
-16.1421

> <Gold.Chemscore.ZeroCoef>
-5.4800

> <Gold.Chemscore.Hbond>
1.7706

> <Gold.Chemscore.Metal>
0.0000

> <Gold.Chemscore.Lipo>
75.4231

> <Gold.Chemscore.Internal_Hbond>
0.0000

> <Gold.Chemscore.DEClash>
0.0316

> <Gold.Chemscore.DEInternal>
1.2939

> <Gold.Chemscore.Rot>
1.5922

> <Gold.Chemscore.Internal.Correction>
   9.000000E+99

> <Gold.Chemscore.Hbonds>
donor molecule, donor type, donor heavy atom, donor atom, acceptor molecule, acceptor atom, score
      P1  H  6896  6908       L1     8  0.37
      P1  H  6931  6943       L1     6  0.37
      P1  H  6934  6947       L1     6  0.08

> <Gold.Chemscore.Hbond.Weighted>
-5.9136

> <Gold.Chemscore.Metal.Weighted>
-0.0000

> <Gold.Chemscore.Lipo.Weighted>
-8.8245

> <Gold.Chemscore.Internal_Hbond.Weighted>
0.0000

> <Gold.Chemscore.DEClash.Weighted>
0.0316

> <Gold.Chemscore.DEInternal.Weighted>
1.2939

> <Gold.Chemscore.Rot.Weighted>
4.0761

> <Gold.Chemscore.Internal.Correction.Weighted>
   9.000000E+99

> <Gold.Protein.RotatedTorsions>
[ 6907 6896 6895 6894 ] final  174.10 input  -60.11 | X-H torsion
[ 7974 7965 7964 7962 ] final  -37.01 input  175.53 | X-H torsion
[ 8008 7997 7996 7995 ] final  143.52 input   59.86 | X-H torsion
[ 10167 10162 10161 10158 ] final  -52.62 input  -65.29 | X-H torsion
[ 10718 10713 10712 10709 ] final  103.24 input   66.30 | X-H torsion
[ 10763 10752 10751 10750 ] final  163.75 input  -60.55 | X-H torsion
[ 11005 11000 10999 10996 ] final -101.94 input  -57.11 | X-H torsion

> <Gold.Protein.ActiveResidues>
 VAL166  LYS551  ARG553  GLY616  TRP617  ASP618  TYR619  PRO620  LYS621  CYS622 
 ASP623  PHE694  ASN695  SER759  ASP760  ASP761  ALA762  ILE779  LEU786  VAL792 
 PHE793  MET794  SER795  GLU796  ALA797  LYS798  CYS799  TRP800  GLU811  SER814 

> <Gold.Protein.RotatedAtoms>
  151.7577  133.3331  159.3408 H   0  0  0  0  0  0  0  0  0  0  0  0  # atno 6907 bound_to 6896
  150.7510  134.6134  159.6107 H   0  0  0  0  0  0  0  0  0  0  0  0  # atno 6908 bound_to 6896
  152.3426  134.7116  160.0311 H   0  0  0  0  0  0  0  0  0  0  0  0  # atno 6909 bound_to 6896
  146.0612  140.6345  142.8996 H   0  0  0  0  0  0  0  0  0  0  0  0  # atno 7974 bound_to 7965
  156.2928  140.2260  156.4904 H   0  0  0  0  0  0  0  0  0  0  0  0  # atno 8008 bound_to 7997
  154.7776  140.0462  157.1123 H   0  0  0  0  0  0  0  0  0  0  0  0  # atno 8009 bound_to 7997
  154.9798  140.3077  155.4955 H   0  0  0  0  0  0  0  0  0  0  0  0  # atno 8010 bound_to 7997
  140.6528  143.2577  151.4674 H   0  0  0  0  0  0  0  0  0  0  0  0  # atno 10167 bound_to 10162
  157.6778  131.0774  150.5525 H   0  0  0  0  0  0  0  0  0  0  0  0  # atno 10718 bound_to 10713
  154.2985  135.2759  155.2622 H   0  0  0  0  0  0  0  0  0  0  0  0  # atno 10763 bound_to 10752
  154.5069  135.5793  153.6578 H   0  0  0  0  0  0  0  0  0  0  0  0  # atno 10764 bound_to 10752
  152.9904  135.6171  154.3154 H   0  0  0  0  0  0  0  0  0  0  0  0  # atno 10765 bound_to 10752
  141.1210  133.8518  157.1296 H   0  0  0  0  0  0  0  0  0  0  0  0  # atno 11005 bound_to 11000
  144.7176  140.4264  143.7032 LP  0  0  0  0  0  0  0  0  0  0  0  0  # atno 17320 bound_to 7965
  145.6556  139.1572  143.2837 LP  0  0  0  0  0  0  0  0  0  0  0  0  # atno 17321 bound_to 7965
  139.5745  144.1850  152.1884 LP  0  0  0  0  0  0  0  0  0  0  0  0  # atno 17342 bound_to 10162
  140.1157  144.5418  150.6896 LP  0  0  0  0  0  0  0  0  0  0  0  0  # atno 17343 bound_to 10162
  156.5829  130.4309  149.5969 LP  0  0  0  0  0  0  0  0  0  0  0  0  # atno 17370 bound_to 10713
  156.2646  130.6982  151.1761 LP  0  0  0  0  0  0  0  0  0  0  0  0  # atno 17371 bound_to 10713
  140.0168  134.9964  157.0509 LP  0  0  0  0  0  0  0  0  0  0  0  0  # atno 17394 bound_to 11000
  140.4507  134.1585  155.7181 LP  0  0  0  0  0  0  0  0  0  0  0  0  # atno 17395 bound_to 11000

$$$$
