AV-unprocessed.smi:1053|AV-procd|sdf|4621|dock2
  -GOLD-   22720 3123D 1   1.00000     0.00000
 Structure written by MMmdl.
 37 38  0  0  0  0  0  0  0  0  1 V2000
  147.0092  141.9226  152.9800 C   0  0  0  0  0  0  0  0  0  0  0  0
  146.8080  140.6838  153.8646 C   0  0  0  0  0  0  0  0  0  0  0  0
  148.0071  140.2243  154.5635 N   0  0  0  0  0  0  0  0  0  0  0  0
  148.8572  139.3834  153.7247 C   0  0  0  0  0  0  0  0  0  0  0  0
  150.1296  138.9390  154.4652 C   0  0  0  0  0  0  0  0  0  0  0  0
  150.8367  140.0856  154.9254 O   0  0  0  0  0  0  0  0  0  0  0  0
  150.0623  140.9043  155.7988 C   0  0  1  0  0  0  0  0  0  0  0  0
  150.9187  142.1030  156.2276 C   0  0  0  0  0  0  0  0  0  0  0  0
  150.2221  142.9500  157.1842 N   0  0  0  0  0  0  0  0  0  0  0  0
  150.7742  143.3961  158.3699 C   0  0  0  0  0  0  0  0  0  0  0  0
  150.3895  144.5890  158.8385 N   0  0  0  0  0  0  0  0  0  0  0  0
  150.9419  144.9995  160.0001 C   0  0  0  0  0  0  0  0  0  0  0  0
  151.8814  144.2121  160.6943 C   0  0  0  0  0  0  0  0  0  0  0  0
  152.2126  142.9702  160.1076 C   0  0  0  0  0  0  0  0  0  0  0  0
  153.2133  142.0167  160.7433 C   0  0  0  0  0  0  0  0  0  0  0  0
  153.5098  142.3792  161.9920 F   0  0  0  0  0  0  0  0  0  0  0  0
  152.7067  140.7838  160.7708 F   0  0  0  0  0  0  0  0  0  0  0  0
  154.3381  142.0046  160.0279 F   0  0  0  0  0  0  0  0  0  0  0  0
  151.6534  142.5705  158.9415 N   0  0  0  0  0  0  0  0  0  0  0  0
  148.7921  141.3542  155.0493 C   0  0  0  0  0  0  0  0  0  0  0  0
  146.1046  142.1374  152.4109 H   0  0  0  0  0  0  0  0  0  0  0  0
  147.8194  141.7688  152.2667 H   0  0  0  0  0  0  0  0  0  0  0  0
  147.2391  142.8108  153.5679 H   0  0  0  0  0  0  0  0  0  0  0  0
  146.0094  140.8748  154.5829 H   0  0  0  0  0  0  0  0  0  0  0  0
  146.4466  139.8798  153.2221 H   0  0  0  0  0  0  0  0  0  0  0  0
  148.3131  138.4963  153.4019 H   0  0  0  0  0  0  0  0  0  0  0  0
  149.1383  139.9256  152.8206 H   0  0  0  0  0  0  0  0  0  0  0  0
  149.8811  138.2923  155.3080 H   0  0  0  0  0  0  0  0  0  0  0  0
  150.7749  138.3651  153.8000 H   0  0  0  0  0  0  0  0  0  0  0  0
  149.7756  140.3283  156.6810 H   0  0  0  0  0  0  0  0  0  0  0  0
  151.8606  141.7614  156.6588 H   0  0  0  0  0  0  0  0  0  0  0  0
  151.1658  142.7062  155.3531 H   0  0  0  0  0  0  0  0  0  0  0  0
  149.2607  143.1950  156.9971 H   0  0  0  0  0  0  0  0  0  0  0  0
  150.6327  145.9624  160.3784 H   0  0  0  0  0  0  0  0  0  0  0  0
  152.3185  144.5490  161.6225 H   0  0  0  0  0  0  0  0  0  0  0  0
  149.0734  141.9944  154.2115 H   0  0  0  0  0  0  0  0  0  0  0  0
  148.1812  141.9656  155.7147 H   0  0  0  0  0  0  0  0  0  0  0  0
  1  2  1  0  0  0  0
  1 21  1  0  0  0  0
  1 22  1  0  0  0  0
  1 23  1  0  0  0  0
  2  3  1  0  0  0  0
  2 24  1  0  0  0  0
  2 25  1  0  0  0  0
  3 20  1  0  0  0  0
  3  4  1  0  0  0  0
  4  5  1  0  0  0  0
  4 26  1  0  0  0  0
  4 27  1  0  0  0  0
  5  6  1  0  0  0  0
  5 28  1  0  0  0  0
  5 29  1  0  0  0  0
  6  7  1  0  0  0  0
  7  8  1  0  0  0  0
  7 20  1  0  0  0  0
  7 30  1  0  0  0  0
  8  9  1  0  0  0  0
  8 31  1  0  0  0  0
  8 32  1  0  0  0  0
  9 10  1  0  0  0  0
  9 33  1  0  0  0  0
 10 19  1  0  0  0  0
 10 11  2  0  0  0  0
 11 12  1  0  0  0  0
 12 13  2  0  0  0  0
 12 34  1  0  0  0  0
 13 14  1  0  0  0  0
 13 35  1  0  0  0  0
 14 15  1  0  0  0  0
 14 19  2  0  0  0  0
 15 16  1  0  0  0  0
 15 17  1  0  0  0  0
 15 18  1  0  0  0  0
 20 36  1  0  0  0  0
 20 37  1  0  0  0  0
M  END
> <s_m_source_file>
AV-unprocessed.smi

> <i_m_source_file_index>
1053

> <i_lp_mmshare_version>
43012

> <i_f3d_flags>
0

> <s_epik_input>
W0NIM11bQ0gyXU4xW0NIMl1bQ0gyXU9bQ0BIXShbQ0gyXTEpW0NIMl1bTkhdYzJuW2NIXVtjSF1jKG4yKUMoRikoRilG

> <s_epik_cmdline>
J2VwaWtfcHl0aG9uJywgJy1waCcsICc3LjAnLCAnLXRuJywgJzgnLCAnLW1hJywgJzIwMCcsICctbWV0YWxfYmluZGluZycsICctaW1hZScsICc8aW5maWxlLm1hZT4nLCAnLW9tYWUnLCAnPG91dGZpbGUubWFlPic=

> <r_lp_tautomer_probability>
1

> <r_epik_Ionization_Penalty>
0.797829

> <r_epik_Ionization_Penalty_Charging>
0

> <r_epik_Ionization_Penalty_Neutral>
0.797829

> <r_epik_State_Penalty>
0.828842

> <r_epik_Charging_Adjusted_Penalty>
0.828842

> <i_epik_Tot_Q>
0

> <i_epik_Tot_abs_Q>
0

> <r_epik_Metal_State_Penalty>
0.828842

> <b_epik_Metal_Only>
0

> <s_lp_Force_Field>
OPLS_2005

> <r_lp_Energy>
17.4925

> <b_lp_Chiralities_Consistent>
1

> <s_lp_Variant>
AV-unprocessed.smi:1053-5

> <Gold.Version>
5.8.1

> <Gold.Id.Protein>
6NUR|6NUR_protein|mol2

> <Gold.PLP.Fitness>
39.3800

> <Gold.PLP.PLP>
-36.8206

> <Gold.PLP.part.hbond>
-2.0000

> <Gold.PLP.part.metal>
0.0000

> <Gold.PLP.part.buried>
-5.3515

> <Gold.PLP.part.nonpolar>
-29.5333

> <Gold.PLP.part.repulsive>
0.3359

> <Gold.PLP.ligand.clash>
0.0000

> <Gold.PLP.ligand.torsion>
0.8623

> <Gold.PLP.Chemscore.Hbond>
1.4124

> <Gold.PLP.Chemscore.CHOScore>
0.0000

> <Gold.PLP.Chemscore.Metal>
0.0000

> <Gold.Chemscore.Hbonds>
donor molecule, donor type, donor heavy atom, donor atom, acceptor molecule, acceptor atom, score
      L1  H     9    33       P1  8028  0.35
      P1  H  7989  7998       L1     6  1.00

> <Gold.PLP.Chemscore.Internal.Correction>
0.0468

> <Gold.Rescore>
     Score         DG    S(hbond)    S(metal)    S(lipo)     H(rot)  DE(clash)    DE(int)     intcor
     13.70     -16.35       1.21        0.00      91.73       1.52       2.14       0.51       ----

> <Gold.Chemscore.Fitness>
13.7013

> <Gold.Chemscore.DG>
-16.3510

> <Gold.Chemscore.ZeroCoef>
-5.4800

> <Gold.Chemscore.Hbond>
1.2070

> <Gold.Chemscore.Metal>
0.0000

> <Gold.Chemscore.Lipo>
91.7329

> <Gold.Chemscore.Internal_Hbond>
0.0000

> <Gold.Chemscore.DEClash>
2.1438

> <Gold.Chemscore.DEInternal>
0.5060

> <Gold.Chemscore.Rot>
1.5208

> <Gold.Chemscore.Internal.Correction>
   9.000000E+99

> <Gold.Chemscore.Hbonds>
donor molecule, donor type, donor heavy atom, donor atom, acceptor molecule, acceptor atom, score
      L1  H     9    33       P1  8028  0.32
      P1  H  7989  7998       L1     6  0.62

> <Gold.Chemscore.Hbond.Weighted>
-4.0315

> <Gold.Chemscore.Metal.Weighted>
-0.0000

> <Gold.Chemscore.Lipo.Weighted>
-10.7327

> <Gold.Chemscore.Internal_Hbond.Weighted>
0.0000

> <Gold.Chemscore.DEClash.Weighted>
2.1438

> <Gold.Chemscore.DEInternal.Weighted>
0.5060

> <Gold.Chemscore.Rot.Weighted>
3.8932

> <Gold.Chemscore.Internal.Correction.Weighted>
   9.000000E+99

> <Gold.Protein.RotatedTorsions>
[ 6907 6896 6895 6894 ] final -146.21 input  -60.11 | X-H torsion
[ 7974 7965 7964 7962 ] final -107.93 input  175.53 | X-H torsion
[ 8008 7997 7996 7995 ] final -163.37 input   59.86 | X-H torsion
[ 10167 10162 10161 10158 ] final  167.41 input  -65.29 | X-H torsion
[ 10718 10713 10712 10709 ] final -114.20 input   66.30 | X-H torsion
[ 10763 10752 10751 10750 ] final    3.48 input  -60.55 | X-H torsion
[ 11005 11000 10999 10996 ] final   50.06 input  -57.11 | X-H torsion

> <Gold.Protein.ActiveResidues>
 VAL166  LYS551  ARG553  GLY616  TRP617  ASP618  TYR619  PRO620  LYS621  CYS622 
 ASP623  PHE694  ASN695  SER759  ASP760  ASP761  ALA762  ILE779  LEU786  VAL792 
 PHE793  MET794  SER795  GLU796  ALA797  LYS798  CYS799  TRP800  GLU811  SER814 

> <Gold.Protein.RotatedAtoms>
  151.1384  133.4988  159.2597 H   0  0  0  0  0  0  0  0  0  0  0  0  # atno 6907 bound_to 6896
  151.1681  135.0305  159.8750 H   0  0  0  0  0  0  0  0  0  0  0  0  # atno 6908 bound_to 6896
  152.5462  134.1250  159.8468 H   0  0  0  0  0  0  0  0  0  0  0  0  # atno 6909 bound_to 6896
  145.1992  140.9049  143.3379 H   0  0  0  0  0  0  0  0  0  0  0  0  # atno 7974 bound_to 7965
  155.8203  140.0918  157.1853 H   0  0  0  0  0  0  0  0  0  0  0  0  # atno 8008 bound_to 7997
  154.3979  140.1438  156.3552 H   0  0  0  0  0  0  0  0  0  0  0  0  # atno 8009 bound_to 7997
  155.8273  140.3444  155.5553 H   0  0  0  0  0  0  0  0  0  0  0  0  # atno 8010 bound_to 7997
  139.4945  144.3924  151.9502 H   0  0  0  0  0  0  0  0  0  0  0  0  # atno 10167 bound_to 10162
  156.0815  130.6014  150.8743 H   0  0  0  0  0  0  0  0  0  0  0  0  # atno 10718 bound_to 10713
  153.2828  135.6942  153.7369 H   0  0  0  0  0  0  0  0  0  0  0  0  # atno 10763 bound_to 10752
  153.6350  135.3403  155.3054 H   0  0  0  0  0  0  0  0  0  0  0  0  # atno 10764 bound_to 10752
  154.8500  135.4418  154.1886 H   0  0  0  0  0  0  0  0  0  0  0  0  # atno 10765 bound_to 10752
  140.1050  134.5030  155.8728 H   0  0  0  0  0  0  0  0  0  0  0  0  # atno 11005 bound_to 11000
  144.9965  139.3639  143.6189 LP  0  0  0  0  0  0  0  0  0  0  0  0  # atno 17320 bound_to 7965
  146.3421  139.9169  142.8772 LP  0  0  0  0  0  0  0  0  0  0  0  0  # atno 17321 bound_to 7965
  140.3362  144.3258  150.5977 LP  0  0  0  0  0  0  0  0  0  0  0  0  # atno 17342 bound_to 10162
  140.5604  143.2193  151.7775 LP  0  0  0  0  0  0  0  0  0  0  0  0  # atno 17343 bound_to 10162
  157.5933  131.0944  150.9083 LP  0  0  0  0  0  0  0  0  0  0  0  0  # atno 17370 bound_to 10713
  156.9254  130.5330  149.5279 LP  0  0  0  0  0  0  0  0  0  0  0  0  # atno 17371 bound_to 10713
  141.2116  133.6708  156.6593 LP  0  0  0  0  0  0  0  0  0  0  0  0  # atno 17394 bound_to 11000
  140.3168  134.8041  157.4221 LP  0  0  0  0  0  0  0  0  0  0  0  0  # atno 17395 bound_to 11000

$$$$
