AV-unprocessed.smi:81|AV-procd|sdf|792|dock2
  -GOLD-   2262017163D 1   1.00000     0.00000
 Structure written by MMmdl.
 64 67  0  0  0  0  0  0  0  0  2 V2000
  146.2011  133.5048  153.1692 C   0  0  0  0  0  0  0  0  0  0  0  0
  146.1208  134.3530  154.4492 C   0  0  0  0  0  0  0  0  0  0  0  0
  145.9459  133.4525  155.6799 C   0  0  0  0  0  0  0  0  0  0  0  0
  144.9786  135.3929  154.3785 C   0  0  0  0  0  0  0  0  0  0  0  0
  144.9927  136.2312  153.1743 N   0  0  0  0  0  0  0  0  0  0  0  0
  145.4768  137.4866  153.3364 C   0  0  0  0  0  0  0  0  0  0  0  0
  145.8603  138.1533  152.2190 N   0  0  0  0  0  0  0  0  0  0  0  0
  146.3820  139.3795  152.3141 C   0  0  0  0  0  0  0  0  0  0  0  0
  146.6079  140.1068  153.4094 N   0  0  0  0  0  0  0  0  0  0  0  0
  146.2344  139.4367  154.5367 C   0  0  0  0  0  0  0  0  0  0  0  0
  145.6681  138.1319  154.5919 C   0  0  0  0  0  0  0  0  0  0  0  0
  145.4196  137.7816  155.9137 N   0  0  0  0  0  0  0  0  0  0  0  0
  145.8166  138.8179  156.5995 C   0  0  0  0  0  0  0  0  0  0  0  0
  146.3117  139.8617  155.8514 N   0  0  0  0  0  0  0  0  0  0  0  0
  146.8153  141.1291  156.3572 C   0  0  0  0  0  0  0  0  0  0  0  0
  148.3325  141.3292  156.1261 C   0  0  1  0  0  0  0  0  0  0  0  0
  148.5127  142.3202  155.1262 O   0  0  0  0  0  0  0  0  0  0  0  0
  149.0543  141.7881  157.3841 C   0  0  0  0  0  0  0  0  0  0  0  0
  150.4871  141.3406  157.1262 C   0  0  0  0  0  0  0  0  0  0  0  0
  150.3497  140.0906  156.4663 O   0  0  0  0  0  0  0  0  0  0  0  0
  149.1055  140.0354  155.7701 C   0  0  2  0  0  0  0  0  0  0  0  0
  149.3461  139.7571  154.2769 C   0  0  0  0  0  0  0  0  0  0  0  0
  143.9023  136.0205  152.2074 C   0  0  2  0  0  0  0  0  0  0  0  0
  143.0017  134.7896  152.4712 C   0  0  0  0  0  0  0  0  0  0  0  0
  143.4846  133.4945  151.7901 C   0  0  0  0  0  0  0  0  0  0  0  0
  143.7233  133.7141  150.3452 N   0  3  2  0  0  0  0  0  0  0  0  0
  144.0121  132.4571  149.6225 C   0  0  0  0  0  0  0  0  0  0  0  0
  144.7569  134.7505  150.1186 C   0  0  0  0  0  0  0  0  0  0  0  0
  144.3262  136.1006  150.7207 C   0  0  0  0  0  0  0  0  0  0  0  0
  145.2717  132.9616  152.9951 H   0  0  0  0  0  0  0  0  0  0  0  0
  147.0070  132.7731  153.2336 H   0  0  0  0  0  0  0  0  0  0  0  0
  146.3943  134.1224  152.2921 H   0  0  0  0  0  0  0  0  0  0  0  0
  147.0738  134.8683  154.5721 H   0  0  0  0  0  0  0  0  0  0  0  0
  145.0097  132.8954  155.6338 H   0  0  0  0  0  0  0  0  0  0  0  0
  145.9390  134.0398  156.5986 H   0  0  0  0  0  0  0  0  0  0  0  0
  146.7593  132.7306  155.7585 H   0  0  0  0  0  0  0  0  0  0  0  0
  144.0251  134.8660  154.4272 H   0  0  0  0  0  0  0  0  0  0  0  0
  145.0057  136.0283  155.2629 H   0  0  0  0  0  0  0  0  0  0  0  0
  146.6605  139.8428  151.3791 H   0  0  0  0  0  0  0  0  0  0  0  0
  145.7539  138.8535  157.6777 H   0  0  0  0  0  0  0  0  0  0  0  0
  146.2534  141.9329  155.8792 H   0  0  0  0  0  0  0  0  0  0  0  0
  146.5833  141.1885  157.4214 H   0  0  0  0  0  0  0  0  0  0  0  0
  148.2528  143.1557  155.4838 H   0  0  0  0  0  0  0  0  0  0  0  0
  148.9667  142.8586  157.5761 H   0  0  0  0  0  0  0  0  0  0  0  0
  148.6671  141.2603  158.2571 H   0  0  0  0  0  0  0  0  0  0  0  0
  150.9970  142.0400  156.4622 H   0  0  0  0  0  0  0  0  0  0  0  0
  151.0732  141.2495  158.0409 H   0  0  0  0  0  0  0  0  0  0  0  0
  148.5785  139.1824  156.1982 H   0  0  0  0  0  0  0  0  0  0  0  0
  148.4094  139.7258  153.7213 H   0  0  0  0  0  0  0  0  0  0  0  0
  149.8415  138.7952  154.1430 H   0  0  0  0  0  0  0  0  0  0  0  0
  149.9817  140.5176  153.8232 H   0  0  0  0  0  0  0  0  0  0  0  0
  143.2542  136.8812  152.3780 H   0  0  0  0  0  0  0  0  0  0  0  0
  142.8602  134.6351  153.5412 H   0  0  0  0  0  0  0  0  0  0  0  0
  142.0094  135.0137  152.0780 H   0  0  0  0  0  0  0  0  0  0  0  0
  144.3953  133.1141  152.2517 H   0  0  0  0  0  0  0  0  0  0  0  0
  142.7266  132.7211  151.9203 H   0  0  0  0  0  0  0  0  0  0  0  0
  144.9307  131.9984  149.9870 H   0  0  0  0  0  0  0  0  0  0  0  0
  144.1221  132.6429  148.5535 H   0  0  0  0  0  0  0  0  0  0  0  0
  143.1988  131.7423  149.7528 H   0  0  0  0  0  0  0  0  0  0  0  0
  145.7042  134.4143  150.5361 H   0  0  0  0  0  0  0  0  0  0  0  0
  144.9186  134.8740  149.0471 H   0  0  0  0  0  0  0  0  0  0  0  0
  143.4700  136.4580  150.1473 H   0  0  0  0  0  0  0  0  0  0  0  0
  145.1065  136.8468  150.5712 H   0  0  0  0  0  0  0  0  0  0  0  0
  142.8617  134.0730  149.9590 H   0  0  0  0  0  0  0  0  0  0  0  0
  1  2  1  0  0  0  0
  1 30  1  0  0  0  0
  1 31  1  0  0  0  0
  1 32  1  0  0  0  0
  2  3  1  0  0  0  0
  2  4  1  0  0  0  0
  2 33  1  0  0  0  0
  3 34  1  0  0  0  0
  3 35  1  0  0  0  0
  3 36  1  0  0  0  0
  4  5  1  0  0  0  0
  4 37  1  0  0  0  0
  4 38  1  0  0  0  0
  5  6  1  0  0  0  0
  5 23  1  0  0  0  0
  6 11  1  0  0  0  0
  6  7  2  0  0  0  0
  7  8  1  0  0  0  0
  8  9  2  0  0  0  0
  8 39  1  0  0  0  0
  9 10  1  0  0  0  0
 10 14  1  0  0  0  0
 10 11  2  0  0  0  0
 11 12  1  0  0  0  0
 12 13  2  0  0  0  0
 13 14  1  0  0  0  0
 13 40  1  0  0  0  0
 14 15  1  0  0  0  0
 15 16  1  0  0  0  0
 15 41  1  0  0  0  0
 15 42  1  0  0  0  0
 16 21  1  0  0  0  0
 16 17  1  0  0  0  0
 16 18  1  0  0  0  0
 17 43  1  0  0  0  0
 18 19  1  0  0  0  0
 18 44  1  0  0  0  0
 18 45  1  0  0  0  0
 19 20  1  0  0  0  0
 19 46  1  0  0  0  0
 19 47  1  0  0  0  0
 20 21  1  0  0  0  0
 21 22  1  0  0  0  0
 21 48  1  0  0  0  0
 22 49  1  0  0  0  0
 22 50  1  0  0  0  0
 22 51  1  0  0  0  0
 23 29  1  0  0  0  0
 23 24  1  0  0  0  0
 23 52  1  0  0  0  0
 24 25  1  0  0  0  0
 24 53  1  0  0  0  0
 24 54  1  0  0  0  0
 25 26  1  0  0  0  0
 25 55  1  0  0  0  0
 25 56  1  0  0  0  0
 26 27  1  0  0  0  0
 26 28  1  0  0  0  0
 26 64  1  0  0  0  0
 27 57  1  0  0  0  0
 27 58  1  0  0  0  0
 27 59  1  0  0  0  0
 28 29  1  0  0  0  0
 28 60  1  0  0  0  0
 28 61  1  0  0  0  0
 29 62  1  0  0  0  0
 29 63  1  0  0  0  0
M  CHG  1  26   1
M  END
> <s_m_source_file>
AV-unprocessed.smi

> <i_m_source_file_index>
81

> <i_lp_mmshare_version>
43012

> <i_f3d_flags>
0

> <s_epik_input>
W0NIMl0xW0NIMl1OKFtDSDNdKVtDSDJdW0NIMl1bQ0hdMU4oW0NIMl1bQ0hdKFtDSDNdKVtDSDNdKWMobltjSF1uMiljKGMyMyluW2NIXW4zW0NIMl1bQ0BAXTQoW09IXSlbQ0gyXVtDSDJdT1tDQEhdNFtDSDNd

> <s_epik_cmdline>
J2VwaWtfcHl0aG9uJywgJy1waCcsICc3LjAnLCAnLXRuJywgJzgnLCAnLW1hJywgJzIwMCcsICctbWV0YWxfYmluZGluZycsICctaW1hZScsICc8aW5maWxlLm1hZT4nLCAnLW9tYWUnLCAnPG91dGZpbGUubWFlPic=

> <r_lp_tautomer_probability>
1

> <r_epik_Ionization_Penalty>
0.00272708

> <r_epik_Ionization_Penalty_Charging>
0.00158983

> <r_epik_Ionization_Penalty_Neutral>
0.00113725

> <r_epik_State_Penalty>
-0

> <r_epik_Charging_Adjusted_Penalty>
0.00158983

> <i_epik_Tot_Q>
1

> <i_epik_Tot_abs_Q>
1

> <r_epik_Metal_State_Penalty>
-0

> <b_epik_Metal_Only>
0

> <s_lp_Force_Field>
OPLS_2005

> <r_lp_Energy>
48.65

> <b_lp_Chiralities_Consistent>
1

> <s_lp_Variant>
AV-unprocessed.smi:81-7

> <Gold.Version>
5.8.1

> <Gold.Id.Protein>
6NUR|6NUR_protein|mol2

> <Gold.PLP.Fitness>
42.9000

> <Gold.PLP.PLP>
-34.4612

> <Gold.PLP.part.hbond>
-3.2454

> <Gold.PLP.part.metal>
0.0000

> <Gold.PLP.part.buried>
-0.9171

> <Gold.PLP.part.nonpolar>
-31.1916

> <Gold.PLP.part.repulsive>
1.0245

> <Gold.PLP.ligand.clash>
0.0000

> <Gold.PLP.ligand.torsion>
2.1714

> <Gold.PLP.Chemscore.Hbond>
3.1638

> <Gold.PLP.Chemscore.CHOScore>
0.6256

> <Gold.PLP.Chemscore.Metal>
0.0000

> <Gold.Chemscore.Hbonds>
donor molecule, donor type, donor heavy atom, donor atom, acceptor molecule, acceptor atom, score
      L1  H    17    43       P1  8028  0.80
      L1  H    26    64       P1 10186  2.00
      L1  C     8    39       P1  7957  0.03

> <Gold.PLP.Chemscore.Internal.Correction>
1.4136

> <Gold.Rescore>
     Score         DG    S(hbond)    S(metal)    S(lipo)     H(rot)  DE(clash)    DE(int)     intcor
      6.64     -15.48       2.01        0.00      78.66       2.32       2.68       6.16       ----

> <Gold.Chemscore.Fitness>
6.6356

> <Gold.Chemscore.DG>
-15.4804

> <Gold.Chemscore.ZeroCoef>
-5.4800

> <Gold.Chemscore.Hbond>
2.0139

> <Gold.Chemscore.Metal>
0.0000

> <Gold.Chemscore.Lipo>
78.6628

> <Gold.Chemscore.Internal_Hbond>
0.0000

> <Gold.Chemscore.DEClash>
2.6805

> <Gold.Chemscore.DEInternal>
6.1642

> <Gold.Chemscore.Rot>
2.3163

> <Gold.Chemscore.Internal.Correction>
   9.000000E+99

> <Gold.Chemscore.Hbonds>
donor molecule, donor type, donor heavy atom, donor atom, acceptor molecule, acceptor atom, score
      L1  H    17    43       P1  8028  0.75
      L1  H    26    64       P1 10186  0.99

> <Gold.Chemscore.Hbond.Weighted>
-6.7266

> <Gold.Chemscore.Metal.Weighted>
-0.0000

> <Gold.Chemscore.Lipo.Weighted>
-9.2036

> <Gold.Chemscore.Internal_Hbond.Weighted>
0.0000

> <Gold.Chemscore.DEClash.Weighted>
2.6805

> <Gold.Chemscore.DEInternal.Weighted>
6.1642

> <Gold.Chemscore.Rot.Weighted>
5.9297

> <Gold.Chemscore.Internal.Correction.Weighted>
   9.000000E+99

> <Gold.Protein.RotatedTorsions>
[ 6907 6896 6895 6894 ] final   30.02 input  -60.11 | X-H torsion
[ 7974 7965 7964 7962 ] final  175.11 input  175.53 | X-H torsion
[ 8008 7997 7996 7995 ] final   38.82 input   59.86 | X-H torsion
[ 10167 10162 10161 10158 ] final  -88.68 input  -65.29 | X-H torsion
[ 10718 10713 10712 10709 ] final -115.32 input   66.30 | X-H torsion
[ 10763 10752 10751 10750 ] final  -60.35 input  -60.55 | X-H torsion
[ 11005 11000 10999 10996 ] final -110.20 input  -57.11 | X-H torsion

> <Gold.Protein.ActiveResidues>
 VAL166  LYS551  ARG553  GLY616  TRP617  ASP618  TYR619  PRO620  LYS621  CYS622 
 ASP623  PHE694  ASN695  SER759  ASP760  ASP761  ALA762  ILE779  LEU786  VAL792 
 PHE793  MET794  SER795  GLU796  ALA797  LYS798  CYS799  TRP800  GLU811  SER814 

> <Gold.Protein.RotatedAtoms>
  152.0400  134.9717  160.0573 H   0  0  0  0  0  0  0  0  0  0  0  0  # atno 6907 bound_to 6896
  152.1159  133.4322  159.4661 H   0  0  0  0  0  0  0  0  0  0  0  0  # atno 6908 bound_to 6896
  150.6846  134.2511  159.4554 H   0  0  0  0  0  0  0  0  0  0  0  0  # atno 6909 bound_to 6896
  144.7208  139.9898  143.6440 H   0  0  0  0  0  0  0  0  0  0  0  0  # atno 7974 bound_to 7965
  155.2265  140.3335  155.4309 H   0  0  0  0  0  0  0  0  0  0  0  0  # atno 8008 bound_to 7997
  156.2312  140.1851  156.7284 H   0  0  0  0  0  0  0  0  0  0  0  0  # atno 8009 bound_to 7997
  154.5981  140.0627  156.9316 H   0  0  0  0  0  0  0  0  0  0  0  0  # atno 8010 bound_to 7997
  140.3723  143.2788  151.9485 H   0  0  0  0  0  0  0  0  0  0  0  0  # atno 10167 bound_to 10162
  156.0888  130.6075  150.8891 H   0  0  0  0  0  0  0  0  0  0  0  0  # atno 10718 bound_to 10713
  154.2678  135.6296  153.5298 H   0  0  0  0  0  0  0  0  0  0  0  0  # atno 10763 bound_to 10752
  152.9885  135.5603  154.5634 H   0  0  0  0  0  0  0  0  0  0  0  0  # atno 10764 bound_to 10752
  154.5197  135.2881  155.1248 H   0  0  0  0  0  0  0  0  0  0  0  0  # atno 10765 bound_to 10752
  141.0805  133.9228  157.2298 H   0  0  0  0  0  0  0  0  0  0  0  0  # atno 11005 bound_to 11000
  146.0421  139.3431  143.0691 LP  0  0  0  0  0  0  0  0  0  0  0  0  # atno 17320 bound_to 7965
  145.8322  140.9625  143.0843 LP  0  0  0  0  0  0  0  0  0  0  0  0  # atno 17321 bound_to 7965
  139.4802  144.5895  151.7796 LP  0  0  0  0  0  0  0  0  0  0  0  0  # atno 17342 bound_to 10162
  140.5021  144.1154  150.5973 LP  0  0  0  0  0  0  0  0  0  0  0  0  # atno 17343 bound_to 10162
  157.6031  131.0940  150.8926 LP  0  0  0  0  0  0  0  0  0  0  0  0  # atno 17370 bound_to 10713
  156.9080  130.5270  149.5281 LP  0  0  0  0  0  0  0  0  0  0  0  0  # atno 17371 bound_to 10713
  139.9619  135.0152  156.9283 LP  0  0  0  0  0  0  0  0  0  0  0  0  # atno 17394 bound_to 11000
  140.5479  134.0656  155.7360 LP  0  0  0  0  0  0  0  0  0  0  0  0  # atno 17395 bound_to 11000

$$$$
