AV-unprocessed.smi:2226|AV-procd|sdf|9015|dock3
  -GOLD-   2272012223D 1   1.00000     0.00000
 Structure written by MMmdl.
 40 42  0  0  0  0  0  0  0  0  2 V2000
  146.7348  139.0993  151.7951 C   0  0  0  0  0  0  0  0  0  0  0  0
  146.4304  139.8422  153.0414 N   0  3  1  0  0  0  0  0  0  0  0  0
  146.4851  139.0300  154.2802 C   0  0  2  0  0  0  0  0  0  0  0  0
  145.7525  139.7858  155.4135 C   0  0  0  0  0  0  0  0  0  0  0  0
  146.2400  141.2332  155.6211 C   0  0  0  0  0  0  0  0  0  0  0  0
  146.4985  141.9667  154.2914 C   0  0  0  0  0  0  0  0  0  0  0  0
  147.1982  141.0971  153.2216 C   0  0  1  0  0  0  0  0  0  0  0  0
  148.6994  140.8124  153.4808 C   0  0  0  0  0  0  0  0  0  0  0  0
  149.0117  139.7012  154.5191 C   0  0  1  0  0  0  0  0  0  0  0  0
  149.3387  140.2312  155.8409 N   0  0  0  0  0  0  0  0  0  0  0  0
  150.5462  140.6418  156.2578 C   0  0  0  0  0  0  0  0  0  0  0  0
  151.5352  140.5996  155.5191 O   0  0  0  0  0  0  0  0  0  0  0  0
  150.4617  141.1068  157.5618 N   0  0  0  0  0  0  0  0  0  0  0  0
  150.8236  142.3211  157.8437 C   0  0  0  0  0  0  0  0  0  0  0  0
  151.3179  143.3688  157.0708 N   0  0  0  0  0  0  0  0  0  0  0  0
  151.5259  144.4422  157.8910 C   0  0  0  0  0  0  0  0  0  0  0  0
  151.1791  144.0906  159.1254 C   0  0  0  0  0  0  0  0  0  0  0  0
  150.7467  142.7984  159.1277 O   0  0  0  0  0  0  0  0  0  0  0  0
  147.9348  138.5921  154.6074 C   0  0  0  0  0  0  0  0  0  0  0  0
  147.7647  138.7440  151.7662 H   0  0  0  0  0  0  0  0  0  0  0  0
  146.5728  139.7360  150.9251 H   0  0  0  0  0  0  0  0  0  0  0  0
  146.0769  138.2354  151.6978 H   0  0  0  0  0  0  0  0  0  0  0  0
  145.9094  138.1204  154.1031 H   0  0  0  0  0  0  0  0  0  0  0  0
  144.6907  139.8203  155.1659 H   0  0  0  0  0  0  0  0  0  0  0  0
  145.8211  139.2298  156.3491 H   0  0  0  0  0  0  0  0  0  0  0  0
  145.5001  141.7849  156.2020 H   0  0  0  0  0  0  0  0  0  0  0  0
  147.1314  141.2483  156.2386 H   0  0  0  0  0  0  0  0  0  0  0  0
  145.5362  142.2884  153.8905 H   0  0  0  0  0  0  0  0  0  0  0  0
  147.0657  142.8802  154.4719 H   0  0  0  0  0  0  0  0  0  0  0  0
  147.1360  141.6589  152.2884 H   0  0  0  0  0  0  0  0  0  0  0  0
  149.1398  140.5008  152.5332 H   0  0  0  0  0  0  0  0  0  0  0  0
  149.2175  141.7397  153.7279 H   0  0  0  0  0  0  0  0  0  0  0  0
  149.9243  139.2033  154.1846 H   0  0  0  0  0  0  0  0  0  0  0  0
  148.5770  140.2966  156.5008 H   0  0  0  0  0  0  0  0  0  0  0  0
  151.5095  143.3795  156.0794 H   0  0  0  0  0  0  0  0  0  0  0  0
  151.9109  145.3689  157.4916 H   0  0  0  0  0  0  0  0  0  0  0  0
  151.1818  144.6195  160.0669 H   0  0  0  0  0  0  0  0  0  0  0  0
  147.9691  138.0967  155.5789 H   0  0  0  0  0  0  0  0  0  0  0  0
  148.2094  137.8135  153.8952 H   0  0  0  0  0  0  0  0  0  0  0  0
  145.4657  140.1250  152.9438 H   0  0  0  0  0  0  0  0  0  0  0  0
  1  2  1  0  0  0  0
  1 20  1  0  0  0  0
  1 21  1  0  0  0  0
  1 22  1  0  0  0  0
  2  7  1  0  0  0  0
  2  3  1  0  0  0  0
  2 40  1  0  0  0  0
  3 19  1  0  0  0  0
  3  4  1  0  0  0  0
  3 23  1  0  0  0  0
  4  5  1  0  0  0  0
  4 24  1  0  0  0  0
  4 25  1  0  0  0  0
  5  6  1  0  0  0  0
  5 26  1  0  0  0  0
  5 27  1  0  0  0  0
  6  7  1  0  0  0  0
  6 28  1  0  0  0  0
  6 29  1  0  0  0  0
  7  8  1  0  0  0  0
  7 30  1  0  0  0  0
  8  9  1  0  0  0  0
  8 31  1  0  0  0  0
  8 32  1  0  0  0  0
  9 10  1  0  0  0  0
  9 19  1  0  0  0  0
  9 33  1  0  0  0  0
 10 34  1  0  0  0  0
 10 11  1  0  0  0  0
 11 13  1  0  0  0  0
 11 12  2  0  0  0  0
 13 14  2  0  0  0  0
 14 18  1  0  0  0  0
 14 15  1  0  0  0  0
 15 35  1  0  0  0  0
 15 16  1  0  0  0  0
 16 36  1  0  0  0  0
 16 17  2  0  0  0  0
 17 37  1  0  0  0  0
 17 18  1  0  0  0  0
 19 38  1  0  0  0  0
 19 39  1  0  0  0  0
M  CHG  1   2   1
M  END
> <s_m_source_file>
AV-unprocessed.smi

> <i_m_source_file_index>
2226

> <i_lp_mmshare_version>
43012

> <i_f3d_flags>
0

> <s_epik_input>
W0NIMl0xW0NIMl1bQ0gyXVtDQEhdKE4oW0NIM10pW0NIXTEyKVtDSDJdW0NASF0oW0NIMl0yKVtOSF1DKD1PKVtOSF1jM25bY0hdW2NIXW8z

> <s_epik_cmdline>
J2VwaWtfcHl0aG9uJywgJy1waCcsICc3LjAnLCAnLXRuJywgJzgnLCAnLW1hJywgJzIwMCcsICctbWV0YWxfYmluZGluZycsICctaW1hZScsICc8aW5maWxlLm1hZT4nLCAnLW9tYWUnLCAnPG91dGZpbGUubWFlPic=

> <r_lp_tautomer_probability>
0.107061

> <r_epik_Ionization_Penalty>
1.08307

> <r_epik_Ionization_Penalty_Charging>
1.08272

> <r_epik_Ionization_Penalty_Neutral>
0.000345913

> <r_epik_State_Penalty>
2.5744

> <r_epik_Charging_Adjusted_Penalty>
3.65713

> <i_epik_Tot_Q>
1

> <i_epik_Tot_abs_Q>
1

> <r_epik_Metal_State_Penalty>
3.72133

> <b_epik_Metal_Only>
0

> <s_lp_Force_Field>
OPLS_2005

> <r_lp_Energy>
59.8055

> <b_lp_Chiralities_Consistent>
1

> <s_lp_Variant>
AV-unprocessed.smi:2226-15

> <Gold.Version>
5.8.1

> <Gold.Id.Protein>
6NUR|6NUR_protein|mol2

> <Gold.PLP.Fitness>
36.2711

> <Gold.PLP.PLP>
-29.6701

> <Gold.PLP.part.hbond>
-2.9247

> <Gold.PLP.part.metal>
0.0000

> <Gold.PLP.part.buried>
0.8625

> <Gold.PLP.part.nonpolar>
-27.1699

> <Gold.PLP.part.repulsive>
0.1495

> <Gold.PLP.ligand.clash>
0.0000

> <Gold.PLP.ligand.torsion>
0.8775

> <Gold.PLP.Chemscore.Hbond>
2.7680

> <Gold.PLP.Chemscore.CHOScore>
0.0000

> <Gold.PLP.Chemscore.Metal>
0.0000

> <Gold.Chemscore.Hbonds>
donor molecule, donor type, donor heavy atom, donor atom, acceptor molecule, acceptor atom, score
      L1  H     2    40       P1 10175  2.00
      P1  H  7989  7998       L1    12  0.77

> <Gold.PLP.Chemscore.Internal.Correction>
0.0520

> <Gold.Rescore>
     Score         DG    S(hbond)    S(metal)    S(lipo)     H(rot)  DE(clash)    DE(int)     intcor
     15.13     -17.66       1.82        0.00      73.91       1.00       1.65       0.88       ----

> <Gold.Chemscore.Fitness>
15.1323

> <Gold.Chemscore.DG>
-17.6595

> <Gold.Chemscore.ZeroCoef>
-5.4800

> <Gold.Chemscore.Hbond>
1.8240

> <Gold.Chemscore.Metal>
0.0000

> <Gold.Chemscore.Lipo>
73.9082

> <Gold.Chemscore.Internal_Hbond>
0.0000

> <Gold.Chemscore.DEClash>
1.6500

> <Gold.Chemscore.DEInternal>
0.8772

> <Gold.Chemscore.Rot>
1.0000

> <Gold.Chemscore.Internal.Correction>
   9.000000E+99

> <Gold.Chemscore.Hbonds>
donor molecule, donor type, donor heavy atom, donor atom, acceptor molecule, acceptor atom, score
      L1  H     2    40       P1 10175  0.99
      P1  H  7989  7998       L1    12  0.71

> <Gold.Chemscore.Hbond.Weighted>
-6.0922

> <Gold.Chemscore.Metal.Weighted>
-0.0000

> <Gold.Chemscore.Lipo.Weighted>
-8.6473

> <Gold.Chemscore.Internal_Hbond.Weighted>
0.0000

> <Gold.Chemscore.DEClash.Weighted>
1.6500

> <Gold.Chemscore.DEInternal.Weighted>
0.8772

> <Gold.Chemscore.Rot.Weighted>
2.5600

> <Gold.Chemscore.Internal.Correction.Weighted>
   9.000000E+99

> <Gold.Protein.RotatedTorsions>
[ 6907 6896 6895 6894 ] final  -40.19 input  -60.11 | X-H torsion
[ 7974 7965 7964 7962 ] final   34.92 input  175.53 | X-H torsion
[ 8008 7997 7996 7995 ] final  146.99 input   59.86 | X-H torsion
[ 10167 10162 10161 10158 ] final   83.27 input  -65.29 | X-H torsion
[ 10718 10713 10712 10709 ] final  145.24 input   66.30 | X-H torsion
[ 10763 10752 10751 10750 ] final   81.98 input  -60.55 | X-H torsion
[ 11005 11000 10999 10996 ] final  -18.50 input  -57.11 | X-H torsion

> <Gold.Protein.ActiveResidues>
 VAL166  LYS551  ARG553  GLY616  TRP617  ASP618  TYR619  PRO620  LYS621  CYS622 
 ASP623  PHE694  ASN695  SER759  ASP760  ASP761  ALA762  ILE779  LEU786  VAL792 
 PHE793  MET794  SER795  GLU796  ALA797  LYS798  CYS799  TRP800  GLU811  SER814 

> <Gold.Protein.RotatedAtoms>
  150.9814  134.9168  159.7846 H   0  0  0  0  0  0  0  0  0  0  0  0  # atno 6907 bound_to 6896
  152.5223  134.3405  159.9225 H   0  0  0  0  0  0  0  0  0  0  0  0  # atno 6908 bound_to 6896
  151.3412  133.3920  159.2706 H   0  0  0  0  0  0  0  0  0  0  0  0  # atno 6909 bound_to 6896
  146.1319  139.6208  142.9221 H   0  0  0  0  0  0  0  0  0  0  0  0  # atno 7974 bound_to 7965
  156.2838  140.2167  156.5466 H   0  0  0  0  0  0  0  0  0  0  0  0  # atno 8008 bound_to 7997
  154.7326  140.0494  157.0762 H   0  0  0  0  0  0  0  0  0  0  0  0  # atno 8009 bound_to 7997
  155.0334  140.3137  155.4753 H   0  0  0  0  0  0  0  0  0  0  0  0  # atno 8010 bound_to 7997
  139.9202  144.6218  150.8448 H   0  0  0  0  0  0  0  0  0  0  0  0  # atno 10167 bound_to 10162
  157.3477  131.0946  151.1028 H   0  0  0  0  0  0  0  0  0  0  0  0  # atno 10718 bound_to 10713
  153.1163  135.4745  154.9121 H   0  0  0  0  0  0  0  0  0  0  0  0  # atno 10763 bound_to 10752
  154.7532  135.3111  154.8522 H   0  0  0  0  0  0  0  0  0  0  0  0  # atno 10764 bound_to 10752
  153.9097  135.6866  153.4805 H   0  0  0  0  0  0  0  0  0  0  0  0  # atno 10765 bound_to 10752
  140.8274  133.8022  155.9723 H   0  0  0  0  0  0  0  0  0  0  0  0  # atno 11005 bound_to 11000
  145.5241  141.0430  143.2419 LP  0  0  0  0  0  0  0  0  0  0  0  0  # atno 17320 bound_to 7965
  144.7699  139.6758  143.7199 LP  0  0  0  0  0  0  0  0  0  0  0  0  # atno 17321 bound_to 7965
  140.7664  143.3303  151.2426 LP  0  0  0  0  0  0  0  0  0  0  0  0  # atno 17342 bound_to 10162
  139.6868  143.9759  152.2838 LP  0  0  0  0  0  0  0  0  0  0  0  0  # atno 17343 bound_to 10162
  157.2216  130.6484  149.5813 LP  0  0  0  0  0  0  0  0  0  0  0  0  # atno 17370 bound_to 10713
  155.9716  130.4627  150.6157 LP  0  0  0  0  0  0  0  0  0  0  0  0  # atno 17371 bound_to 10713
  140.9034  134.2350  157.5028 LP  0  0  0  0  0  0  0  0  0  0  0  0  # atno 17394 bound_to 11000
  139.8706  134.9717  156.4746 LP  0  0  0  0  0  0  0  0  0  0  0  0  # atno 17395 bound_to 11000

$$$$
