AV-unprocessed.smi:244|AV-procd|sdf|1868|dock3
  -GOLD-   2262020503D 1   1.00000     0.00000
 Structure written by MMmdl.
 57 61  0  0  0  0  0  0  0  0  2 V2000
  147.4133  140.9472  157.8626 C   0  0  0  0  0  0  0  0  0  0  0  0
  148.6645  140.5437  157.1865 N   0  3  1  0  0  0  0  0  0  0  0  0
  149.7542  141.5335  157.3713 C   0  0  0  0  0  0  0  0  0  0  0  0
  150.9783  141.1594  156.5219 C   0  0  0  0  0  0  0  0  0  0  0  0
  151.4559  139.7247  156.8365 C   0  0  2  0  0  0  0  0  0  0  0  0
  152.5725  139.3279  156.0376 O   0  0  0  0  0  0  0  0  0  0  0  0
  152.2751  139.1152  154.6589 C   0  0  0  0  0  0  0  0  0  0  0  0
  151.1480  138.0826  154.5154 C   0  0  0  0  0  0  0  0  0  0  0  0
  149.9852  138.4921  155.2941 N   0  0  0  0  0  0  0  0  0  0  0  0
  148.9015  137.7260  155.0443 C   0  0  0  0  0  0  0  0  0  0  0  0
  148.8195  136.5466  155.7068 N   0  0  0  0  0  0  0  0  0  0  0  0
  147.7809  135.7332  155.4914 C   0  0  0  0  0  0  0  0  0  0  0  0
  146.7433  135.9042  154.6696 N   0  0  0  0  0  0  0  0  0  0  0  0
  146.8292  137.0881  153.9975 C   0  0  0  0  0  0  0  0  0  0  0  0
  147.8666  138.0533  154.1239 C   0  0  0  0  0  0  0  0  0  0  0  0
  147.6196  139.1303  153.2817 N   0  0  0  0  0  0  0  0  0  0  0  0
  146.4929  138.8243  152.6981 C   0  0  0  0  0  0  0  0  0  0  0  0
  145.9553  137.6092  153.0599 N   0  0  0  0  0  0  0  0  0  0  0  0
  144.7226  137.0174  152.5628 C   0  0  0  0  0  0  0  0  0  0  0  0
  144.9379  135.9009  151.5105 C   0  0  0  0  0  0  0  0  0  0  0  0
  145.1335  136.5210  150.2511 O   0  0  0  0  0  0  0  0  0  0  0  0
  146.1992  135.0817  151.8512 C   0  0  0  0  0  0  0  0  0  0  0  0
  146.3594  133.8529  150.9387 C   0  0  0  0  0  0  0  0  0  0  0  0
  145.1884  133.0480  150.9987 O   0  0  0  0  0  0  0  0  0  0  0  0
  144.0327  133.7232  150.5182 C   0  0  0  0  0  0  0  0  0  0  0  0
  143.7280  134.9473  151.4001 C   0  0  0  0  0  0  0  0  0  0  0  0
  150.3016  138.7031  156.7100 C   0  0  2  0  0  0  0  0  0  0  0  0
  149.0963  139.1744  157.5632 C   0  0  0  0  0  0  0  0  0  0  0  0
  147.5499  140.9942  158.9437 H   0  0  0  0  0  0  0  0  0  0  0  0
  146.6140  140.2372  157.6475 H   0  0  0  0  0  0  0  0  0  0  0  0
  147.0870  141.9278  157.5149 H   0  0  0  0  0  0  0  0  0  0  0  0
  149.4022  142.5250  157.0832 H   0  0  0  0  0  0  0  0  0  0  0  0
  150.0270  141.5879  158.4265 H   0  0  0  0  0  0  0  0  0  0  0  0
  150.7061  141.2603  155.4719 H   0  0  0  0  0  0  0  0  0  0  0  0
  151.7871  141.8684  156.7004 H   0  0  0  0  0  0  0  0  0  0  0  0
  151.8037  139.7151  157.8703 H   0  0  0  0  0  0  0  0  0  0  0  0
  152.0107  140.0518  154.1688 H   0  0  0  0  0  0  0  0  0  0  0  0
  153.1746  138.7534  154.1605 H   0  0  0  0  0  0  0  0  0  0  0  0
  150.8764  137.9722  153.4646 H   0  0  0  0  0  0  0  0  0  0  0  0
  151.5015  137.1100  154.8595 H   0  0  0  0  0  0  0  0  0  0  0  0
  147.7818  134.8121  156.0557 H   0  0  0  0  0  0  0  0  0  0  0  0
  146.0244  139.4760  151.9747 H   0  0  0  0  0  0  0  0  0  0  0  0
  144.1602  136.6316  153.4145 H   0  0  0  0  0  0  0  0  0  0  0  0
  144.1150  137.8178  152.1383 H   0  0  0  0  0  0  0  0  0  0  0  0
  144.9383  137.4418  150.3357 H   0  0  0  0  0  0  0  0  0  0  0  0
  147.0902  135.7086  151.7954 H   0  0  0  0  0  0  0  0  0  0  0  0
  146.1348  134.7354  152.8835 H   0  0  0  0  0  0  0  0  0  0  0  0
  146.5598  134.1495  149.9080 H   0  0  0  0  0  0  0  0  0  0  0  0
  147.2111  133.2560  151.2652 H   0  0  0  0  0  0  0  0  0  0  0  0
  144.1749  134.0146  149.4764 H   0  0  0  0  0  0  0  0  0  0  0  0
  143.1901  133.0321  150.5384 H   0  0  0  0  0  0  0  0  0  0  0  0
  143.4546  134.5978  152.3966 H   0  0  0  0  0  0  0  0  0  0  0  0
  142.8544  135.4692  151.0080 H   0  0  0  0  0  0  0  0  0  0  0  0
  150.6478  137.7493  157.1112 H   0  0  0  0  0  0  0  0  0  0  0  0
  149.3750  139.1717  158.6182 H   0  0  0  0  0  0  0  0  0  0  0  0
  148.2595  138.4801  157.4770 H   0  0  0  0  0  0  0  0  0  0  0  0
  148.4581  140.5181  156.1977 H   0  0  0  0  0  0  0  0  0  0  0  0
  1  2  1  0  0  0  0
  1 29  1  0  0  0  0
  1 30  1  0  0  0  0
  1 31  1  0  0  0  0
  2 28  1  0  0  0  0
  2  3  1  0  0  0  0
  2 57  1  0  0  0  0
  3  4  1  0  0  0  0
  3 32  1  0  0  0  0
  3 33  1  0  0  0  0
  4  5  1  0  0  0  0
  4 34  1  0  0  0  0
  4 35  1  0  0  0  0
  5 27  1  0  0  0  0
  5  6  1  0  0  0  0
  5 36  1  0  0  0  0
  6  7  1  0  0  0  0
  7  8  1  0  0  0  0
  7 37  1  0  0  0  0
  7 38  1  0  0  0  0
  8  9  1  0  0  0  0
  8 39  1  0  0  0  0
  8 40  1  0  0  0  0
  9 10  1  0  0  0  0
  9 27  1  0  0  0  0
 10 15  1  0  0  0  0
 10 11  2  0  0  0  0
 11 12  1  0  0  0  0
 12 13  2  0  0  0  0
 12 41  1  0  0  0  0
 13 14  1  0  0  0  0
 14 18  1  0  0  0  0
 14 15  2  0  0  0  0
 15 16  1  0  0  0  0
 16 17  2  0  0  0  0
 17 18  1  0  0  0  0
 17 42  1  0  0  0  0
 18 19  1  0  0  0  0
 19 20  1  0  0  0  0
 19 43  1  0  0  0  0
 19 44  1  0  0  0  0
 20 26  1  0  0  0  0
 20 21  1  0  0  0  0
 20 22  1  0  0  0  0
 21 45  1  0  0  0  0
 22 23  1  0  0  0  0
 22 46  1  0  0  0  0
 22 47  1  0  0  0  0
 23 24  1  0  0  0  0
 23 48  1  0  0  0  0
 23 49  1  0  0  0  0
 24 25  1  0  0  0  0
 25 26  1  0  0  0  0
 25 50  1  0  0  0  0
 25 51  1  0  0  0  0
 26 52  1  0  0  0  0
 26 53  1  0  0  0  0
 27 28  1  0  0  0  0
 27 54  1  0  0  0  0
 28 55  1  0  0  0  0
 28 56  1  0  0  0  0
M  CHG  1   2   1
M  END
> <s_m_source_file>
AV-unprocessed.smi

> <i_m_source_file_index>
244

> <i_lp_mmshare_version>
43012

> <i_f3d_flags>
0

> <s_epik_input>
W0NIMl0xW0NIMl1OKFtDSDNdKVtDSDJdW0NAQEhdKFtDQEhdMTIpTihbQ0gyXVtDSDJdTzIpYyhuW2NIXW4zKWMoYzM0KW5bY0hdbjRbQ0gyXUM1KFtPSF0pW0NIMl1bQ0gyXU9bQ0gyXVtDSDJdNQ==

> <s_epik_cmdline>
J2VwaWtfcHl0aG9uJywgJy1waCcsICc3LjAnLCAnLXRuJywgJzgnLCAnLW1hJywgJzIwMCcsICctbWV0YWxfYmluZGluZycsICctaW1hZScsICc8aW5maWxlLm1hZT4nLCAnLW9tYWUnLCAnPG91dGZpbGUubWFlPic=

> <r_lp_tautomer_probability>
1

> <r_epik_Ionization_Penalty>
0.0136215

> <r_epik_Ionization_Penalty_Charging>
0.0131385

> <r_epik_Ionization_Penalty_Neutral>
0.000483022

> <r_epik_State_Penalty>
0.0104001

> <r_epik_Charging_Adjusted_Penalty>
0.0235387

> <i_epik_Tot_Q>
1

> <i_epik_Tot_abs_Q>
1

> <r_epik_Metal_State_Penalty>
0.0104469

> <b_epik_Metal_Only>
0

> <s_lp_Force_Field>
OPLS_2005

> <r_lp_Energy>
48.7962

> <b_lp_Chiralities_Consistent>
1

> <s_lp_Variant>
AV-unprocessed.smi:244-5

> <Gold.Version>
5.8.1

> <Gold.Id.Protein>
6NUR|6NUR_protein|mol2

> <Gold.PLP.Fitness>
38.8106

> <Gold.PLP.PLP>
-34.0657

> <Gold.PLP.part.hbond>
-2.1772

> <Gold.PLP.part.metal>
0.0000

> <Gold.PLP.part.buried>
-5.7485

> <Gold.PLP.part.nonpolar>
-27.6984

> <Gold.PLP.part.repulsive>
1.5242

> <Gold.PLP.ligand.clash>
0.0000

> <Gold.PLP.ligand.torsion>
1.0543

> <Gold.PLP.Chemscore.Hbond>
1.9920

> <Gold.PLP.Chemscore.CHOScore>
0.2435

> <Gold.PLP.Chemscore.Metal>
0.0000

> <Gold.Chemscore.Hbonds>
donor molecule, donor type, donor heavy atom, donor atom, acceptor molecule, acceptor atom, score
      L1  H    21    45       P1 10171  0.82
      P1  H  7997  8008       L1     6  1.00
      L1  C    17    42       P1 10175  0.71

> <Gold.PLP.Chemscore.Internal.Correction>
0.1470

> <Gold.Rescore>
     Score         DG    S(hbond)    S(metal)    S(lipo)     H(rot)  DE(clash)    DE(int)     intcor
     12.74     -15.12       1.89        0.00      74.26       2.09       1.06       1.31       ----

> <Gold.Chemscore.Fitness>
12.7446

> <Gold.Chemscore.DG>
-15.1164

> <Gold.Chemscore.ZeroCoef>
-5.4800

> <Gold.Chemscore.Hbond>
1.8867

> <Gold.Chemscore.Metal>
0.0000

> <Gold.Chemscore.Lipo>
74.2569

> <Gold.Chemscore.Internal_Hbond>
0.0000

> <Gold.Chemscore.DEClash>
1.0650

> <Gold.Chemscore.DEInternal>
1.3068

> <Gold.Chemscore.Rot>
2.0911

> <Gold.Chemscore.Internal.Correction>
   9.000000E+99

> <Gold.Chemscore.Hbonds>
donor molecule, donor type, donor heavy atom, donor atom, acceptor molecule, acceptor atom, score
      L1  H    21    45       P1 10171  0.81
      P1  H  7997  8008       L1     6  0.73

> <Gold.Chemscore.Hbond.Weighted>
-6.3015

> <Gold.Chemscore.Metal.Weighted>
-0.0000

> <Gold.Chemscore.Lipo.Weighted>
-8.6881

> <Gold.Chemscore.Internal_Hbond.Weighted>
0.0000

> <Gold.Chemscore.DEClash.Weighted>
1.0650

> <Gold.Chemscore.DEInternal.Weighted>
1.3068

> <Gold.Chemscore.Rot.Weighted>
5.3531

> <Gold.Chemscore.Internal.Correction.Weighted>
   9.000000E+99

> <Gold.Protein.RotatedTorsions>
[ 6907 6896 6895 6894 ] final  172.43 input  -60.11 | X-H torsion
[ 7974 7965 7964 7962 ] final   24.50 input  175.53 | X-H torsion
[ 8008 7997 7996 7995 ] final  -36.88 input   59.86 | X-H torsion
[ 10167 10162 10161 10158 ] final  100.00 input  -65.29 | X-H torsion
[ 10718 10713 10712 10709 ] final -178.20 input   66.30 | X-H torsion
[ 10763 10752 10751 10750 ] final -156.98 input  -60.55 | X-H torsion
[ 11005 11000 10999 10996 ] final  -98.15 input  -57.11 | X-H torsion

> <Gold.Protein.ActiveResidues>
 VAL166  LYS551  ARG553  GLY616  TRP617  ASP618  TYR619  PRO620  LYS621  CYS622 
 ASP623  PHE694  ASN695  SER759  ASP760  ASP761  ALA762  ILE779  LEU786  VAL792 
 PHE793  MET794  SER795  GLU796  ALA797  LYS798  CYS799  TRP800  GLU811  SER814 

> <Gold.Protein.RotatedAtoms>
  151.7844  133.3353  159.3480 H   0  0  0  0  0  0  0  0  0  0  0  0  # atno 6907 bound_to 6896
  150.7414  134.5901  159.5992 H   0  0  0  0  0  0  0  0  0  0  0  0  # atno 6908 bound_to 6896
  152.3253  134.7329  160.0354 H   0  0  0  0  0  0  0  0  0  0  0  0  # atno 6909 bound_to 6896
  146.1934  139.7596  142.8815 H   0  0  0  0  0  0  0  0  0  0  0  0  # atno 7974 bound_to 7965
  154.4064  140.1619  156.2446 H   0  0  0  0  0  0  0  0  0  0  0  0  # atno 8008 bound_to 7997
  155.9172  140.3423  155.6122 H   0  0  0  0  0  0  0  0  0  0  0  0  # atno 8009 bound_to 7997
  155.7266  140.0775  157.2298 H   0  0  0  0  0  0  0  0  0  0  0  0  # atno 8010 bound_to 7997
  139.7566  144.6967  151.0353 H   0  0  0  0  0  0  0  0  0  0  0  0  # atno 10167 bound_to 10162
  156.8408  130.9685  151.3100 H   0  0  0  0  0  0  0  0  0  0  0  0  # atno 10718 bound_to 10713
  154.7671  135.3134  154.8264 H   0  0  0  0  0  0  0  0  0  0  0  0  # atno 10763 bound_to 10752
  153.9009  135.6816  153.4759 H   0  0  0  0  0  0  0  0  0  0  0  0  # atno 10764 bound_to 10752
  153.1279  135.4793  154.9235 H   0  0  0  0  0  0  0  0  0  0  0  0  # atno 10765 bound_to 10752
  141.1354  133.8224  157.0801 H   0  0  0  0  0  0  0  0  0  0  0  0  # atno 11005 bound_to 11000
  145.3720  141.0344  143.3226 LP  0  0  0  0  0  0  0  0  0  0  0  0  # atno 17320 bound_to 7965
  144.8532  139.5290  143.6847 LP  0  0  0  0  0  0  0  0  0  0  0  0  # atno 17321 bound_to 7965
  140.7803  143.4746  151.0100 LP  0  0  0  0  0  0  0  0  0  0  0  0  # atno 17342 bound_to 10162
  139.8433  143.7535  152.3180 LP  0  0  0  0  0  0  0  0  0  0  0  0  # atno 17343 bound_to 10162
  157.6357  130.8764  149.9354 LP  0  0  0  0  0  0  0  0  0  0  0  0  # atno 17370 bound_to 10713
  156.0882  130.3666  150.0446 LP  0  0  0  0  0  0  0  0  0  0  0  0  # atno 17371 bound_to 10713
  140.0457  134.9832  157.1044 LP  0  0  0  0  0  0  0  0  0  0  0  0  # atno 17394 bound_to 11000
  140.4067  134.2025  155.7163 LP  0  0  0  0  0  0  0  0  0  0  0  0  # atno 17395 bound_to 11000

$$$$
