AV-unprocessed.smi:2691|AV-procd|sdf|10392|dock9
  -GOLD-   2272014423D 1   1.00000     0.00000
 Structure written by MMmdl.
 50 52  0  0  0  0  0  0  0  0  2 V2000
  152.2558  145.5441  160.2884 C   0  0  0  0  0  0  0  0  0  0  0  0
  151.9882  144.2440  159.5494 C   0  0  0  0  0  0  0  0  0  0  0  0
  151.4946  144.3094  158.2264 C   0  0  0  0  0  0  0  0  0  0  0  0
  151.2614  143.1033  157.5759 C   0  0  0  0  0  0  0  0  0  0  0  0
  150.7870  142.8317  156.2903 N   0  3  0  0  0  0  0  0  0  0  0  0
  150.7288  141.4838  156.1028 C   0  0  0  0  0  0  0  0  0  0  0  0
  151.1577  140.8920  157.2504 N   0  0  0  0  0  0  0  0  0  0  0  0
  151.3006  139.4689  157.5848 C   0  0  0  0  0  0  0  0  0  0  0  0
  152.6605  139.1442  158.2340 C   0  0  2  0  0  0  0  0  0  0  0  0
  153.5699  138.8215  157.1995 O   0  0  0  0  0  0  0  0  0  0  0  0
  152.5626  137.9501  159.2089 C   0  0  0  0  0  0  0  0  0  0  0  0
  153.4470  138.1214  160.3731 N   0  0  0  0  0  0  0  0  0  0  0  0
  153.5994  139.4345  160.8605 C   0  0  0  0  0  0  0  0  0  0  0  0
  154.3668  139.7032  161.8682 N   0  0  0  0  0  0  0  0  0  0  0  0
  155.0710  138.6722  162.5004 C   0  0  0  0  0  0  0  0  0  0  0  0
  155.9578  139.0590  163.6769 C   0  0  0  0  0  0  0  0  0  0  0  0
  155.5895  138.2732  164.9455 C   0  0  0  0  0  0  0  0  0  0  0  0
  155.9377  140.5755  163.9236 C   0  0  0  0  0  0  0  0  0  0  0  0
  154.9603  137.3937  162.0647 C   0  0  0  0  0  0  0  0  0  0  0  0
  154.1053  137.0615  160.9254 C   0  0  0  0  0  0  0  0  0  0  0  0
  153.9934  135.9144  160.4930 O   0  0  0  0  0  0  0  0  0  0  0  0
  151.5009  141.8624  158.1968 C   0  0  0  0  0  0  0  0  0  0  0  0
  151.9862  141.7792  159.4993 C   0  0  0  0  0  0  0  0  0  0  0  0
  152.2301  142.9946  160.1778 C   0  0  0  0  0  0  0  0  0  0  0  0
  152.7591  142.9358  161.6006 C   0  0  0  0  0  0  0  0  0  0  0  0
  152.0372  146.4108  159.6639 H   0  0  0  0  0  0  0  0  0  0  0  0
  153.3021  145.6068  160.5890 H   0  0  0  0  0  0  0  0  0  0  0  0
  151.6335  145.6115  161.1810 H   0  0  0  0  0  0  0  0  0  0  0  0
  151.3074  145.2566  157.7419 H   0  0  0  0  0  0  0  0  0  0  0  0
  150.4063  140.9757  155.2053 H   0  0  0  0  0  0  0  0  0  0  0  0
  150.4758  139.1886  158.2411 H   0  0  0  0  0  0  0  0  0  0  0  0
  151.1712  138.8983  156.6640 H   0  0  0  0  0  0  0  0  0  0  0  0
  153.0257  140.0291  158.7566 H   0  0  0  0  0  0  0  0  0  0  0  0
  153.0782  138.5316  156.4457 H   0  0  0  0  0  0  0  0  0  0  0  0
  151.5332  137.8514  159.5597 H   0  0  0  0  0  0  0  0  0  0  0  0
  152.7544  137.0076  158.6922 H   0  0  0  0  0  0  0  0  0  0  0  0
  153.0342  140.2011  160.3275 H   0  0  0  0  0  0  0  0  0  0  0  0
  156.9832  138.7889  163.4185 H   0  0  0  0  0  0  0  0  0  0  0  0
  155.6296  137.1982  164.7664 H   0  0  0  0  0  0  0  0  0  0  0  0
  154.5848  138.5161  165.2932 H   0  0  0  0  0  0  0  0  0  0  0  0
  156.2816  138.4964  165.7579 H   0  0  0  0  0  0  0  0  0  0  0  0
  156.2307  141.1224  163.0267 H   0  0  0  0  0  0  0  0  0  0  0  0
  156.6321  140.8508  164.7176 H   0  0  0  0  0  0  0  0  0  0  0  0
  154.9465  140.9221  164.2171 H   0  0  0  0  0  0  0  0  0  0  0  0
  155.5081  136.6036  162.5573 H   0  0  0  0  0  0  0  0  0  0  0  0
  152.1711  140.8276  159.9756 H   0  0  0  0  0  0  0  0  0  0  0  0
  152.8631  141.9065  161.9452 H   0  0  0  0  0  0  0  0  0  0  0  0
  152.0816  143.4477  162.2844 H   0  0  0  0  0  0  0  0  0  0  0  0
  153.7393  143.4091  161.6638 H   0  0  0  0  0  0  0  0  0  0  0  0
  150.5247  143.5133  155.5895 H   0  0  0  0  0  0  0  0  0  0  0  0
  1  2  1  0  0  0  0
  1 26  1  0  0  0  0
  1 27  1  0  0  0  0
  1 28  1  0  0  0  0
  2 24  1  0  0  0  0
  2  3  2  0  0  0  0
  3  4  1  0  0  0  0
  3 29  1  0  0  0  0
  4 22  2  0  0  0  0
  4  5  1  0  0  0  0
  5  6  2  0  0  0  0
  5 50  1  0  0  0  0
  6  7  1  0  0  0  0
  6 30  1  0  0  0  0
  7  8  1  0  0  0  0
  7 22  1  0  0  0  0
  8  9  1  0  0  0  0
  8 31  1  0  0  0  0
  8 32  1  0  0  0  0
  9 10  1  0  0  0  0
  9 11  1  0  0  0  0
  9 33  1  0  0  0  0
 10 34  1  0  0  0  0
 11 12  1  0  0  0  0
 11 35  1  0  0  0  0
 11 36  1  0  0  0  0
 12 20  1  0  0  0  0
 12 13  1  0  0  0  0
 13 14  2  0  0  0  0
 13 37  1  0  0  0  0
 14 15  1  0  0  0  0
 15 16  1  0  0  0  0
 15 19  2  0  0  0  0
 16 17  1  0  0  0  0
 16 18  1  0  0  0  0
 16 38  1  0  0  0  0
 17 39  1  0  0  0  0
 17 40  1  0  0  0  0
 17 41  1  0  0  0  0
 18 42  1  0  0  0  0
 18 43  1  0  0  0  0
 18 44  1  0  0  0  0
 19 20  1  0  0  0  0
 19 45  1  0  0  0  0
 20 21  2  0  0  0  0
 22 23  1  0  0  0  0
 23 24  2  0  0  0  0
 23 46  1  0  0  0  0
 24 25  1  0  0  0  0
 25 47  1  0  0  0  0
 25 48  1  0  0  0  0
 25 49  1  0  0  0  0
M  CHG  1   5   1
M  END
> <s_m_source_file>
AV-unprocessed.smi

> <i_m_source_file_index>
2691

> <i_lp_mmshare_version>
43012

> <i_f3d_flags>
0

> <s_epik_input>
W0NIM11jKFtjSF0xKWMoW0NIM10pW2NIXWMoYzEyKW4oW2NIXW4yKVtDSDJdW0NASF0oW09IXSlbQ0gyXW4zW2NIXW5jKFtDSF0oW0NIM10pW0NIM10pW2NIXWMzPU8=

> <s_epik_cmdline>
J2VwaWtfcHl0aG9uJywgJy1waCcsICc3LjAnLCAnLXRuJywgJzgnLCAnLW1hJywgJzIwMCcsICctbWV0YWxfYmluZGluZycsICctaW1hZScsICc8aW5maWxlLm1hZT4nLCAnLW9tYWUnLCAnPG91dGZpbGUubWFlPic=

> <r_lp_tautomer_probability>
1

> <r_epik_Ionization_Penalty>
1.0357

> <r_epik_Ionization_Penalty_Charging>
1.03568

> <r_epik_Ionization_Penalty_Neutral>
1.29543e-05

> <r_epik_State_Penalty>
1.08724

> <r_epik_Charging_Adjusted_Penalty>
2.12292

> <i_epik_Tot_Q>
1

> <i_epik_Tot_abs_Q>
1

> <r_epik_Metal_State_Penalty>
1.18376

> <b_epik_Metal_Only>
0

> <s_lp_Force_Field>
OPLS_2005

> <r_lp_Energy>
24.5824

> <b_lp_Chiralities_Consistent>
1

> <s_lp_Variant>
AV-unprocessed.smi:2691-3

> <Gold.Version>
5.8.1

> <Gold.Id.Protein>
6NUR|6NUR_protein|mol2

> <Gold.PLP.Fitness>
57.1459

> <Gold.PLP.PLP>
-50.4255

> <Gold.PLP.part.hbond>
-2.8636

> <Gold.PLP.part.metal>
0.0000

> <Gold.PLP.part.buried>
-6.7414

> <Gold.PLP.part.nonpolar>
-40.7372

> <Gold.PLP.part.repulsive>
0.0955

> <Gold.PLP.ligand.clash>
0.0064

> <Gold.PLP.ligand.torsion>
1.3569

> <Gold.PLP.Chemscore.Hbond>
3.1200

> <Gold.PLP.Chemscore.CHOScore>
0.0000

> <Gold.PLP.Chemscore.Metal>
0.0000

> <Gold.Chemscore.Hbonds>
donor molecule, donor type, donor heavy atom, donor atom, acceptor molecule, acceptor atom, score
      L1  H     5    50       P1  8028  1.06
      P1  H  6896  6909       L1    21  0.96
      P1  H  7997  8010       L1    10  1.00

> <Gold.PLP.Chemscore.Internal.Correction>
0.0805

> <Gold.Rescore>
     Score         DG    S(hbond)    S(metal)    S(lipo)     H(rot)  DE(clash)    DE(int)     intcor
     19.33     -21.67       2.82        0.00     113.01       2.52       0.21       2.13       ----

> <Gold.Chemscore.Fitness>
19.3346

> <Gold.Chemscore.DG>
-21.6722

> <Gold.Chemscore.ZeroCoef>
-5.4800

> <Gold.Chemscore.Hbond>
2.8208

> <Gold.Chemscore.Metal>
0.0000

> <Gold.Chemscore.Lipo>
113.0119

> <Gold.Chemscore.Internal_Hbond>
0.0000

> <Gold.Chemscore.DEClash>
0.2052

> <Gold.Chemscore.DEInternal>
2.1323

> <Gold.Chemscore.Rot>
2.5202

> <Gold.Chemscore.Internal.Correction>
   9.000000E+99

> <Gold.Chemscore.Hbonds>
donor molecule, donor type, donor heavy atom, donor atom, acceptor molecule, acceptor atom, score
      L1  H     5    50       P1  8028  0.50
      P1  H  6896  6909       L1    21  0.91
      P1  H  7997  8010       L1    10  0.60

> <Gold.Chemscore.Hbond.Weighted>
-9.4215

> <Gold.Chemscore.Metal.Weighted>
-0.0000

> <Gold.Chemscore.Lipo.Weighted>
-13.2224

> <Gold.Chemscore.Internal_Hbond.Weighted>
0.0000

> <Gold.Chemscore.DEClash.Weighted>
0.2052

> <Gold.Chemscore.DEInternal.Weighted>
2.1323

> <Gold.Chemscore.Rot.Weighted>
6.4517

> <Gold.Chemscore.Internal.Correction.Weighted>
   9.000000E+99

> <Gold.Protein.RotatedTorsions>
[ 6907 6896 6895 6894 ] final -176.33 input  -60.11 | X-H torsion
[ 7974 7965 7964 7962 ] final  -60.60 input  175.53 | X-H torsion
[ 8008 7997 7996 7995 ] final   46.82 input   59.86 | X-H torsion
[ 10167 10162 10161 10158 ] final  139.56 input  -65.29 | X-H torsion
[ 10718 10713 10712 10709 ] final  -19.39 input   66.30 | X-H torsion
[ 10763 10752 10751 10750 ] final  -34.52 input  -60.55 | X-H torsion
[ 11005 11000 10999 10996 ] final -168.94 input  -57.11 | X-H torsion

> <Gold.Protein.ActiveResidues>
 VAL166  LYS551  ARG553  GLY616  TRP617  ASP618  TYR619  PRO620  LYS621  CYS622 
 ASP623  PHE694  ASN695  SER759  ASP760  ASP761  ALA762  ILE779  LEU786  VAL792 
 PHE793  MET794  SER795  GLU796  ALA797  LYS798  CYS799  TRP800  GLU811  SER814 

> <Gold.Protein.RotatedAtoms>
  151.6030  133.3354  159.3051 H   0  0  0  0  0  0  0  0  0  0  0  0  # atno 6907 bound_to 6896
  150.8197  134.7402  159.6773 H   0  0  0  0  0  0  0  0  0  0  0  0  # atno 6908 bound_to 6896
  152.4292  134.5816  160.0001 H   0  0  0  0  0  0  0  0  0  0  0  0  # atno 6909 bound_to 6896
  145.8135  140.8584  143.0169 H   0  0  0  0  0  0  0  0  0  0  0  0  # atno 7974 bound_to 7965
  155.3589  140.3417  155.4240 H   0  0  0  0  0  0  0  0  0  0  0  0  # atno 8008 bound_to 7997
  156.1724  140.1636  156.8458 H   0  0  0  0  0  0  0  0  0  0  0  0  # atno 8009 bound_to 7997
  154.5247  140.0759  156.8219 H   0  0  0  0  0  0  0  0  0  0  0  0  # atno 8010 bound_to 7997
  139.5075  144.6287  151.5872 H   0  0  0  0  0  0  0  0  0  0  0  0  # atno 10167 bound_to 10162
  156.5463  130.4691  149.6473 H   0  0  0  0  0  0  0  0  0  0  0  0  # atno 10718 bound_to 10713
  153.8481  135.6851  153.4795 H   0  0  0  0  0  0  0  0  0  0  0  0  # atno 10763 bound_to 10752
  153.1413  135.4656  154.9498 H   0  0  0  0  0  0  0  0  0  0  0  0  # atno 10764 bound_to 10752
  154.7815  135.3270  154.7928 H   0  0  0  0  0  0  0  0  0  0  0  0  # atno 10765 bound_to 10752
  140.5363  134.5566  157.5088 H   0  0  0  0  0  0  0  0  0  0  0  0  # atno 11005 bound_to 11000
  144.6755  140.0430  143.7480 LP  0  0  0  0  0  0  0  0  0  0  0  0  # atno 17320 bound_to 7965
  145.9751  139.2899  143.1075 LP  0  0  0  0  0  0  0  0  0  0  0  0  # atno 17321 bound_to 7965
  140.6013  143.9605  150.6388 LP  0  0  0  0  0  0  0  0  0  0  0  0  # atno 17342 bound_to 10162
  140.2817  143.3384  152.1144 LP  0  0  0  0  0  0  0  0  0  0  0  0  # atno 17343 bound_to 10162
  156.2925  130.7132  151.1984 LP  0  0  0  0  0  0  0  0  0  0  0  0  # atno 17370 bound_to 10713
  157.7396  131.0527  150.5222 LP  0  0  0  0  0  0  0  0  0  0  0  0  # atno 17371 bound_to 10713
  139.9527  134.7588  156.0411 LP  0  0  0  0  0  0  0  0  0  0  0  0  # atno 17394 bound_to 11000
  141.1253  133.6601  156.3320 LP  0  0  0  0  0  0  0  0  0  0  0  0  # atno 17395 bound_to 11000

$$$$
