AV-unprocessed.smi:3004|AV-procd|sdf|11439|dock8
  -GOLD-   2272016373D 1   1.00000     0.00000
 Structure written by MMmdl.
 47 48  0  0  0  0  0  0  0  0  2 V2000
  145.5337  137.8212  162.7435 C   0  0  0  0  0  0  0  0  0  0  0  0
  146.4128  136.8110  162.0677 C   0  0  0  0  0  0  0  0  0  0  0  0
  146.4401  135.4009  162.2559 C   0  0  0  0  0  0  0  0  0  0  0  0
  147.4096  134.9639  161.3980 C   0  0  0  0  0  0  0  0  0  0  0  0
  147.9046  133.5805  161.1305 C   0  0  0  0  0  0  0  0  0  0  0  0
  147.9098  136.0826  160.7547 N   0  0  0  0  0  0  0  0  0  0  0  0
  148.9458  136.1720  159.7382 C   0  0  0  0  0  0  0  0  0  0  0  0
  148.6106  135.2894  158.5346 C   0  0  0  0  0  0  0  0  0  0  0  0
  148.9689  134.1119  158.5131 O   0  0  0  0  0  0  0  0  0  0  0  0
  147.9161  135.8677  157.5425 N   0  0  0  0  0  0  0  0  0  0  0  0
  147.4609  135.1953  156.3312 C   0  0  0  0  0  0  0  0  0  0  0  0
  148.0191  135.8674  155.0576 C   0  0  0  0  0  0  0  0  0  0  0  0
  147.6072  135.1950  153.7902 N   0  3  2  0  0  0  0  0  0  0  0  0
  146.1789  135.4624  153.4485 C   0  0  0  0  0  0  0  0  0  0  0  0
  145.7922  134.8772  152.0827 C   0  0  0  0  0  0  0  0  0  0  0  0
  146.0595  133.3734  152.0446 C   0  0  0  0  0  0  0  0  0  0  0  0
  147.5259  133.1130  152.3951 C   0  0  0  0  0  0  0  0  0  0  0  0
  147.9108  133.7253  153.7600 C   0  0  1  0  0  0  0  0  0  0  0  0
  149.3912  133.3984  154.0467 C   0  0  0  0  0  0  0  0  0  0  0  0
  147.2971  137.2134  161.1695 N   0  0  0  0  0  0  0  0  0  0  0  0
  144.8012  137.3362  163.3890 H   0  0  0  0  0  0  0  0  0  0  0  0
  144.9869  138.4176  162.0128 H   0  0  0  0  0  0  0  0  0  0  0  0
  146.1205  138.5022  163.3601 H   0  0  0  0  0  0  0  0  0  0  0  0
  145.8360  134.7997  162.9192 H   0  0  0  0  0  0  0  0  0  0  0  0
  147.3514  132.8486  161.7191 H   0  0  0  0  0  0  0  0  0  0  0  0
  148.9596  133.4890  161.3886 H   0  0  0  0  0  0  0  0  0  0  0  0
  147.7873  133.3213  160.0783 H   0  0  0  0  0  0  0  0  0  0  0  0
  149.0613  137.2138  159.4339 H   0  0  0  0  0  0  0  0  0  0  0  0
  149.8998  135.8621  160.1650 H   0  0  0  0  0  0  0  0  0  0  0  0
  147.6579  136.8382  157.6516 H   0  0  0  0  0  0  0  0  0  0  0  0
  147.7523  134.1475  156.4024 H   0  0  0  0  0  0  0  0  0  0  0  0
  146.3709  135.2205  156.3204 H   0  0  0  0  0  0  0  0  0  0  0  0
  147.6556  136.8924  155.0747 H   0  0  0  0  0  0  0  0  0  0  0  0
  149.1079  135.9233  155.0940 H   0  0  0  0  0  0  0  0  0  0  0  0
  145.5348  135.0523  154.2281 H   0  0  0  0  0  0  0  0  0  0  0  0
  145.9811  136.5314  153.4070 H   0  0  0  0  0  0  0  0  0  0  0  0
  144.7393  135.0727  151.8777 H   0  0  0  0  0  0  0  0  0  0  0  0
  146.3591  135.3746  151.2942 H   0  0  0  0  0  0  0  0  0  0  0  0
  145.4086  132.8598  152.7534 H   0  0  0  0  0  0  0  0  0  0  0  0
  145.8293  132.9726  151.0571 H   0  0  0  0  0  0  0  0  0  0  0  0
  147.7052  132.0372  152.4021 H   0  0  0  0  0  0  0  0  0  0  0  0
  148.1649  133.5247  151.6122 H   0  0  0  0  0  0  0  0  0  0  0  0
  147.3063  133.2432  154.5303 H   0  0  0  0  0  0  0  0  0  0  0  0
  149.6023  132.3464  153.8521 H   0  0  0  0  0  0  0  0  0  0  0  0
  149.6598  133.5687  155.0887 H   0  0  0  0  0  0  0  0  0  0  0  0
  150.0591  133.9880  153.4178 H   0  0  0  0  0  0  0  0  0  0  0  0
  148.1617  135.6112  153.0557 H   0  0  0  0  0  0  0  0  0  0  0  0
  1  2  1  0  0  0  0
  1 21  1  0  0  0  0
  1 22  1  0  0  0  0
  1 23  1  0  0  0  0
  2 20  2  0  0  0  0
  2  3  1  0  0  0  0
  3  4  2  0  0  0  0
  3 24  1  0  0  0  0
  4  5  1  0  0  0  0
  4  6  1  0  0  0  0
  5 25  1  0  0  0  0
  5 26  1  0  0  0  0
  5 27  1  0  0  0  0
  6  7  1  0  0  0  0
  6 20  1  0  0  0  0
  7  8  1  0  0  0  0
  7 28  1  0  0  0  0
  7 29  1  0  0  0  0
  8  9  2  0  0  0  0
  8 10  1  0  0  0  0
 10 11  1  0  0  0  0
 10 30  1  0  0  0  0
 11 12  1  0  0  0  0
 11 31  1  0  0  0  0
 11 32  1  0  0  0  0
 12 13  1  0  0  0  0
 12 33  1  0  0  0  0
 12 34  1  0  0  0  0
 13 18  1  0  0  0  0
 13 14  1  0  0  0  0
 13 47  1  0  0  0  0
 14 15  1  0  0  0  0
 14 35  1  0  0  0  0
 14 36  1  0  0  0  0
 15 16  1  0  0  0  0
 15 37  1  0  0  0  0
 15 38  1  0  0  0  0
 16 17  1  0  0  0  0
 16 39  1  0  0  0  0
 16 40  1  0  0  0  0
 17 18  1  0  0  0  0
 17 41  1  0  0  0  0
 17 42  1  0  0  0  0
 18 19  1  0  0  0  0
 18 43  1  0  0  0  0
 19 44  1  0  0  0  0
 19 45  1  0  0  0  0
 19 46  1  0  0  0  0
M  CHG  1  13   1
M  END
> <s_m_source_file>
AV-unprocessed.smi

> <i_m_source_file_index>
3004

> <i_lp_mmshare_version>
43012

> <i_f3d_flags>
0

> <s_epik_input>
W0NIM11jMVtjSF1jKFtDSDNdKW4objEpW0NIMl1DKD1PKVtOSF1bQ0gyXVtDSDJdTjJbQ0gyXVtDSDJdW0NIMl1bQ0gyXVtDQEhdMltDSDNd

> <s_epik_cmdline>
J2VwaWtfcHl0aG9uJywgJy1waCcsICc3LjAnLCAnLXRuJywgJzgnLCAnLW1hJywgJzIwMCcsICctbWV0YWxfYmluZGluZycsICctaW1hZScsICc8aW5maWxlLm1hZT4nLCAnLW9tYWUnLCAnPG91dGZpbGUubWFlPic=

> <r_lp_tautomer_probability>
1

> <r_epik_Ionization_Penalty>
0.00303644

> <r_epik_Ionization_Penalty_Charging>
0.00284254

> <r_epik_Ionization_Penalty_Neutral>
0.000193908

> <r_epik_State_Penalty>
-0

> <r_epik_Charging_Adjusted_Penalty>
0.00284254

> <i_epik_Tot_Q>
1

> <i_epik_Tot_abs_Q>
1

> <r_epik_Metal_State_Penalty>
-0

> <b_epik_Metal_Only>
0

> <s_lp_Force_Field>
OPLS_2005

> <r_lp_Energy>
17.9788

> <b_lp_Chiralities_Consistent>
1

> <s_lp_Variant>
AV-unprocessed.smi:3004-1

> <Gold.Version>
5.8.1

> <Gold.Id.Protein>
6NUR|6NUR_protein|mol2

> <Gold.PLP.Fitness>
45.2128

> <Gold.PLP.PLP>
-31.6599

> <Gold.PLP.part.hbond>
-4.0000

> <Gold.PLP.part.metal>
0.0000

> <Gold.PLP.part.buried>
-2.7362

> <Gold.PLP.part.nonpolar>
-25.2269

> <Gold.PLP.part.repulsive>
0.0208

> <Gold.PLP.ligand.clash>
0.0000

> <Gold.PLP.ligand.torsion>
0.4493

> <Gold.PLP.Chemscore.Hbond>
4.8071

> <Gold.PLP.Chemscore.CHOScore>
0.0000

> <Gold.PLP.Chemscore.Metal>
0.0000

> <Gold.Chemscore.Hbonds>
donor molecule, donor type, donor heavy atom, donor atom, acceptor molecule, acceptor atom, score
      L1  H    13    47       P1  7948  2.00
      P1  H  6896  6908       L1     9  1.00
      P1  H  6931  6943       L1    20  0.55
      P1  H  6934  6947       L1    20  1.00

> <Gold.PLP.Chemscore.Internal.Correction>
0.0302

> <Gold.Rescore>
     Score         DG    S(hbond)    S(metal)    S(lipo)     H(rot)  DE(clash)    DE(int)     intcor
     19.10     -19.58       2.97        0.00      72.09       1.67       0.03       0.45       ----

> <Gold.Chemscore.Fitness>
19.0985

> <Gold.Chemscore.DG>
-19.5750

> <Gold.Chemscore.ZeroCoef>
-5.4800

> <Gold.Chemscore.Hbond>
2.9716

> <Gold.Chemscore.Metal>
0.0000

> <Gold.Chemscore.Lipo>
72.0861

> <Gold.Chemscore.Internal_Hbond>
0.0000

> <Gold.Chemscore.DEClash>
0.0297

> <Gold.Chemscore.DEInternal>
0.4468

> <Gold.Chemscore.Rot>
1.6657

> <Gold.Chemscore.Internal.Correction>
   9.000000E+99

> <Gold.Chemscore.Hbonds>
donor molecule, donor type, donor heavy atom, donor atom, acceptor molecule, acceptor atom, score
      L1  H    13    47       P1  7948  0.95
      P1  H  6896  6908       L1     9  0.81
      P1  H  6931  6943       L1    20  0.12
      P1  H  6934  6947       L1    20  0.72

> <Gold.Chemscore.Hbond.Weighted>
-9.9250

> <Gold.Chemscore.Metal.Weighted>
-0.0000

> <Gold.Chemscore.Lipo.Weighted>
-8.4341

> <Gold.Chemscore.Internal_Hbond.Weighted>
0.0000

> <Gold.Chemscore.DEClash.Weighted>
0.0297

> <Gold.Chemscore.DEInternal.Weighted>
0.4468

> <Gold.Chemscore.Rot.Weighted>
4.2641

> <Gold.Chemscore.Internal.Correction.Weighted>
   9.000000E+99

> <Gold.Protein.RotatedTorsions>
[ 6907 6896 6895 6894 ] final  122.83 input  -60.11 | X-H torsion
[ 7974 7965 7964 7962 ] final   -6.62 input  175.53 | X-H torsion
[ 8008 7997 7996 7995 ] final  125.96 input   59.86 | X-H torsion
[ 10167 10162 10161 10158 ] final   38.88 input  -65.29 | X-H torsion
[ 10718 10713 10712 10709 ] final -123.11 input   66.30 | X-H torsion
[ 10763 10752 10751 10750 ] final -167.70 input  -60.55 | X-H torsion
[ 11005 11000 10999 10996 ] final  -15.73 input  -57.11 | X-H torsion

> <Gold.Protein.ActiveResidues>
 VAL166  LYS551  ARG553  GLY616  TRP617  ASP618  TYR619  PRO620  LYS621  CYS622 
 ASP623  PHE694  ASN695  SER759  ASP760  ASP761  ALA762  ILE779  LEU786  VAL792 
 PHE793  MET794  SER795  GLU796  ALA797  LYS798  CYS799  TRP800  GLU811  SER814 

> <Gold.Protein.RotatedAtoms>
  152.4211  133.7118  159.6482 H   0  0  0  0  0  0  0  0  0  0  0  0  # atno 6907 bound_to 6896
  150.8087  133.8451  159.3199 H   0  0  0  0  0  0  0  0  0  0  0  0  # atno 6908 bound_to 6896
  151.6168  135.1037  160.0144 H   0  0  0  0  0  0  0  0  0  0  0  0  # atno 6909 bound_to 6896
  146.2327  140.2197  142.8337 H   0  0  0  0  0  0  0  0  0  0  0  0  # atno 7974 bound_to 7965
  156.2850  140.2704  156.2033 H   0  0  0  0  0  0  0  0  0  0  0  0  # atno 8008 bound_to 7997
  155.0338  140.0386  157.2502 H   0  0  0  0  0  0  0  0  0  0  0  0  # atno 8009 bound_to 7997
  154.7332  140.2710  155.6443 H   0  0  0  0  0  0  0  0  0  0  0  0  # atno 8010 bound_to 7997
  140.3893  144.1874  150.6130 H   0  0  0  0  0  0  0  0  0  0  0  0  # atno 10167 bound_to 10162
  156.1474  130.6510  150.9863 H   0  0  0  0  0  0  0  0  0  0  0  0  # atno 10718 bound_to 10713
  154.6704  135.2938  154.9749 H   0  0  0  0  0  0  0  0  0  0  0  0  # atno 10763 bound_to 10752
  154.0778  135.6609  153.4837 H   0  0  0  0  0  0  0  0  0  0  0  0  # atno 10764 bound_to 10752
  153.0483  135.5190  154.7698 H   0  0  0  0  0  0  0  0  0  0  0  0  # atno 10765 bound_to 10752
  140.7996  133.8224  155.9457 H   0  0  0  0  0  0  0  0  0  0  0  0  # atno 11005 bound_to 11000
  144.9641  140.8304  143.5495 LP  0  0  0  0  0  0  0  0  0  0  0  0  # atno 17320 bound_to 7965
  145.2171  139.2176  143.5112 LP  0  0  0  0  0  0  0  0  0  0  0  0  # atno 17321 bound_to 7965
  140.4856  143.2364  151.8893 LP  0  0  0  0  0  0  0  0  0  0  0  0  # atno 17342 bound_to 10162
  139.4790  144.5222  151.8785 LP  0  0  0  0  0  0  0  0  0  0  0  0  # atno 17343 bound_to 10162
  157.6628  131.0877  150.7798 LP  0  0  0  0  0  0  0  0  0  0  0  0  # atno 17370 bound_to 10713
  156.7869  130.4877  149.5391 LP  0  0  0  0  0  0  0  0  0  0  0  0  # atno 17371 bound_to 10713
  140.9308  134.2024  157.4865 LP  0  0  0  0  0  0  0  0  0  0  0  0  # atno 17394 bound_to 11000
  139.8723  134.9832  156.5187 LP  0  0  0  0  0  0  0  0  0  0  0  0  # atno 17395 bound_to 11000

$$$$
