AV-unprocessed.smi:1768|AV-procd|sdf|7145|dock6
  -GOLD-   22720 8383D 1   1.00000     0.00000
 Structure written by MMmdl.
 33 34  0  0  0  0  0  0  0  0  1 V2000
  147.1169  139.2731  153.2084 C   0  0  0  0  0  0  0  0  0  0  0  0
  148.1544  140.0469  153.9480 C   0  0  0  0  0  0  0  0  0  0  0  0
  149.4393  139.6751  153.9994 N   0  0  0  0  0  0  0  0  0  0  0  0
  150.2120  140.5541  154.7453 N   0  0  0  0  0  0  0  0  0  0  0  0
  149.4841  141.5663  155.2368 C   0  0  0  0  0  0  0  0  0  0  0  0
  150.0206  142.6103  156.0358 N   0  0  0  0  0  0  0  0  0  0  0  0
  150.3203  142.5881  157.3463 C   0  0  0  0  0  0  0  0  0  0  0  0
  150.1718  141.6203  158.0928 O   0  0  0  0  0  0  0  0  0  0  0  0
  150.8105  143.7703  157.7475 N   0  0  0  0  0  0  0  0  0  0  0  0
  151.2630  144.0970  159.0981 C   0  0  2  0  0  0  0  0  0  0  0  0
  152.1291  145.3645  159.0375 C   0  0  0  0  0  0  0  0  0  0  0  0
  152.0233  142.8923  159.6855 C   0  0  1  0  0  0  0  0  0  0  0  0
  153.3792  142.6115  159.0348 C   0  0  0  0  0  0  0  0  0  0  0  0
  154.1758  141.9226  160.1332 C   0  0  0  0  0  0  0  0  0  0  0  0
  153.3499  142.1600  161.4000 C   0  0  0  0  0  0  0  0  0  0  0  0
  152.3915  143.1412  161.0337 O   0  0  0  0  0  0  0  0  0  0  0  0
  147.7783  141.5253  154.8243 S   0  0  0  0  0  0  0  0  0  0  0  0
  147.5615  138.4127  152.7070 H   0  0  0  0  0  0  0  0  0  0  0  0
  146.6436  139.9074  152.4588 H   0  0  0  0  0  0  0  0  0  0  0  0
  146.3534  138.9182  153.9008 H   0  0  0  0  0  0  0  0  0  0  0  0
  150.2010  143.4766  155.5510 H   0  0  0  0  0  0  0  0  0  0  0  0
  150.8942  144.5030  157.0584 H   0  0  0  0  0  0  0  0  0  0  0  0
  150.4078  144.3082  159.7426 H   0  0  0  0  0  0  0  0  0  0  0  0
  152.4564  145.6700  160.0313 H   0  0  0  0  0  0  0  0  0  0  0  0
  151.5719  146.1986  158.6092 H   0  0  0  0  0  0  0  0  0  0  0  0
  153.0188  145.2091  158.4266 H   0  0  0  0  0  0  0  0  0  0  0  0
  151.4030  141.9940  159.6514 H   0  0  0  0  0  0  0  0  0  0  0  0
  153.2930  142.0052  158.1326 H   0  0  0  0  0  0  0  0  0  0  0  0
  153.8700  143.5476  158.7644 H   0  0  0  0  0  0  0  0  0  0  0  0
  154.2905  140.8555  159.9402 H   0  0  0  0  0  0  0  0  0  0  0  0
  155.1721  142.3580  160.2171 H   0  0  0  0  0  0  0  0  0  0  0  0
  152.8318  141.2469  161.6973 H   0  0  0  0  0  0  0  0  0  0  0  0
  153.9568  142.4964  162.2406 H   0  0  0  0  0  0  0  0  0  0  0  0
  1  2  1  0  0  0  0
  1 18  1  0  0  0  0
  1 19  1  0  0  0  0
  1 20  1  0  0  0  0
  2 17  1  0  0  0  0
  2  3  2  0  0  0  0
  3  4  1  0  0  0  0
  4  5  2  0  0  0  0
  5  6  1  0  0  0  0
  5 17  1  0  0  0  0
  6  7  1  0  0  0  0
  6 21  1  0  0  0  0
  7  8  2  0  0  0  0
  7  9  1  0  0  0  0
  9 10  1  0  0  0  0
  9 22  1  0  0  0  0
 10 11  1  0  0  0  0
 10 12  1  0  0  0  0
 10 23  1  0  0  0  0
 11 24  1  0  0  0  0
 11 25  1  0  0  0  0
 11 26  1  0  0  0  0
 12 16  1  0  0  0  0
 12 13  1  0  0  0  0
 12 27  1  0  0  0  0
 13 14  1  0  0  0  0
 13 28  1  0  0  0  0
 13 29  1  0  0  0  0
 14 15  1  0  0  0  0
 14 30  1  0  0  0  0
 14 31  1  0  0  0  0
 15 16  1  0  0  0  0
 15 32  1  0  0  0  0
 15 33  1  0  0  0  0
M  END
> <s_m_source_file>
AV-unprocessed.smi

> <i_m_source_file_index>
1768

> <i_lp_mmshare_version>
43012

> <i_f3d_flags>
0

> <s_epik_input>
W0NIM11jMW5uYyhzMSlbTkhdQyg9TylbTkhdW0NASF0oW0NIM10pW0NAQEhdMltDSDJdW0NIMl1bQ0gyXU8y

> <s_epik_cmdline>
J2VwaWtfcHl0aG9uJywgJy1waCcsICc3LjAnLCAnLXRuJywgJzgnLCAnLW1hJywgJzIwMCcsICctbWV0YWxfYmluZGluZycsICctaW1hZScsICc8aW5maWxlLm1hZT4nLCAnLW9tYWUnLCAnPG91dGZpbGUubWFlPic=

> <r_lp_tautomer_probability>
1

> <r_epik_Ionization_Penalty>
0.000523083

> <r_epik_Ionization_Penalty_Charging>
0

> <r_epik_Ionization_Penalty_Neutral>
0.000523083

> <r_epik_State_Penalty>
-0

> <r_epik_Charging_Adjusted_Penalty>
0

> <i_epik_Tot_Q>
0

> <i_epik_Tot_abs_Q>
0

> <r_epik_Metal_State_Penalty>
0.223408

> <b_epik_Metal_Only>
0

> <s_lp_Force_Field>
OPLS_2005

> <r_lp_Energy>
16.8898

> <b_lp_Chiralities_Consistent>
1

> <s_lp_Variant>
AV-unprocessed.smi:1768-3

> <Gold.Version>
5.8.1

> <Gold.Id.Protein>
6NUR|6NUR_protein|mol2

> <Gold.PLP.Fitness>
38.8611

> <Gold.PLP.PLP>
-37.2478

> <Gold.PLP.part.hbond>
-3.0000

> <Gold.PLP.part.metal>
0.0000

> <Gold.PLP.part.buried>
-5.1715

> <Gold.PLP.part.nonpolar>
-29.8370

> <Gold.PLP.part.repulsive>
1.2709

> <Gold.PLP.ligand.clash>
0.0000

> <Gold.PLP.ligand.torsion>
1.0315

> <Gold.PLP.Chemscore.Hbond>
1.2184

> <Gold.PLP.Chemscore.CHOScore>
0.0000

> <Gold.PLP.Chemscore.Metal>
0.0000

> <Gold.Chemscore.Hbonds>
donor molecule, donor type, donor heavy atom, donor atom, acceptor molecule, acceptor atom, score
      L1  H     6    21       P1  8028  0.34
      P1  H  7989  7998       L1     4  0.93

> <Gold.PLP.Chemscore.Internal.Correction>
0.0210

> <Gold.Rescore>
     Score         DG    S(hbond)    S(metal)    S(lipo)     H(rot)  DE(clash)    DE(int)     intcor
     14.69     -16.96       1.70        0.00      77.83       1.29       0.02       2.25       ----

> <Gold.Chemscore.Fitness>
14.6936

> <Gold.Chemscore.DG>
-16.9552

> <Gold.Chemscore.ZeroCoef>
-5.4800

> <Gold.Chemscore.Hbond>
1.6994

> <Gold.Chemscore.Metal>
0.0000

> <Gold.Chemscore.Lipo>
77.8309

> <Gold.Chemscore.Internal_Hbond>
0.0000

> <Gold.Chemscore.DEClash>
0.0154

> <Gold.Chemscore.DEInternal>
2.2462

> <Gold.Chemscore.Rot>
1.2919

> <Gold.Chemscore.Internal.Correction>
   9.000000E+99

> <Gold.Chemscore.Hbonds>
donor molecule, donor type, donor heavy atom, donor atom, acceptor molecule, acceptor atom, score
      L1  H     6    21       P1  8028  0.34
      L1  H     9    22       P1  8028  0.02
      P1  H  7989  7998       L1     4  0.22

> <Gold.Chemscore.Hbond.Weighted>
-5.6762

> <Gold.Chemscore.Metal.Weighted>
-0.0000

> <Gold.Chemscore.Lipo.Weighted>
-9.1062

> <Gold.Chemscore.Internal_Hbond.Weighted>
0.0000

> <Gold.Chemscore.DEClash.Weighted>
0.0154

> <Gold.Chemscore.DEInternal.Weighted>
2.2462

> <Gold.Chemscore.Rot.Weighted>
3.3072

> <Gold.Chemscore.Internal.Correction.Weighted>
   9.000000E+99

> <Gold.Protein.RotatedTorsions>
[ 6907 6896 6895 6894 ] final  -80.84 input  -60.11 | X-H torsion
[ 7974 7965 7964 7962 ] final  -96.52 input  175.53 | X-H torsion
[ 8008 7997 7996 7995 ] final  142.89 input   59.86 | X-H torsion
[ 10167 10162 10161 10158 ] final  -52.15 input  -65.29 | X-H torsion
[ 10718 10713 10712 10709 ] final   25.19 input   66.30 | X-H torsion
[ 10763 10752 10751 10750 ] final -154.99 input  -60.55 | X-H torsion
[ 11005 11000 10999 10996 ] final -106.57 input  -57.11 | X-H torsion

> <Gold.Protein.ActiveResidues>
 VAL166  LYS551  ARG553  GLY616  TRP617  ASP618  TYR619  PRO620  LYS621  CYS622 
 ASP623  PHE694  ASN695  SER759  ASP760  ASP761  ALA762  ILE779  LEU786  VAL792 
 PHE793  MET794  SER795  GLU796  ALA797  LYS798  CYS799  TRP800  GLU811  SER814 

> <Gold.Protein.RotatedAtoms>
  150.6922  134.3908  159.5075 H   0  0  0  0  0  0  0  0  0  0  0  0  # atno 6907 bound_to 6896
  152.1697  134.8842  160.0544 H   0  0  0  0  0  0  0  0  0  0  0  0  # atno 6908 bound_to 6896
  151.9873  133.3743  159.4167 H   0  0  0  0  0  0  0  0  0  0  0  0  # atno 6909 bound_to 6896
  145.3457  140.9468  143.2582 H   0  0  0  0  0  0  0  0  0  0  0  0  # atno 7974 bound_to 7965
  156.2941  140.2277  156.4802 H   0  0  0  0  0  0  0  0  0  0  0  0  # atno 8008 bound_to 7997
  154.7860  140.0457  157.1185 H   0  0  0  0  0  0  0  0  0  0  0  0  # atno 8009 bound_to 7997
  154.9702  140.3065  155.4994 H   0  0  0  0  0  0  0  0  0  0  0  0  # atno 8010 bound_to 7997
  140.6552  143.2594  151.4607 H   0  0  0  0  0  0  0  0  0  0  0  0  # atno 10167 bound_to 10162
  157.1901  130.6842  149.6146 H   0  0  0  0  0  0  0  0  0  0  0  0  # atno 10718 bound_to 10713
  154.7819  135.3177  154.7970 H   0  0  0  0  0  0  0  0  0  0  0  0  # atno 10763 bound_to 10752
  153.8680  135.6847  153.4781 H   0  0  0  0  0  0  0  0  0  0  0  0  # atno 10764 bound_to 10752
  153.1458  135.4720  154.9502 H   0  0  0  0  0  0  0  0  0  0  0  0  # atno 10765 bound_to 10752
  141.0998  133.8905  157.1872 H   0  0  0  0  0  0  0  0  0  0  0  0  # atno 11005 bound_to 11000
  144.8756  139.4976  143.6747 LP  0  0  0  0  0  0  0  0  0  0  0  0  # atno 17320 bound_to 7965
  146.2989  139.7363  142.9106 LP  0  0  0  0  0  0  0  0  0  0  0  0  # atno 17321 bound_to 7965
  139.5773  144.1789  152.1921 LP  0  0  0  0  0  0  0  0  0  0  0  0  # atno 17342 bound_to 10162
  140.1104  144.5462  150.6929 LP  0  0  0  0  0  0  0  0  0  0  0  0  # atno 17343 bound_to 10162
  155.9713  130.4617  150.6121 LP  0  0  0  0  0  0  0  0  0  0  0  0  # atno 17370 bound_to 10713
  157.3869  131.0789  151.1428 LP  0  0  0  0  0  0  0  0  0  0  0  0  # atno 17371 bound_to 10713
  139.9845  135.0086  156.9830 LP  0  0  0  0  0  0  0  0  0  0  0  0  # atno 17394 bound_to 11000
  140.5051  134.1058  155.7258 LP  0  0  0  0  0  0  0  0  0  0  0  0  # atno 17395 bound_to 11000

$$$$
