AV-unprocessed.smi:72|AV-procd|sdf|747|dock7
  -GOLD-   2262017 83D 1   1.00000     0.00000
 Structure written by MMmdl.
 29 30  0  0  0  0  0  0  0  0  1 V2000
  152.6505  140.0595  159.1968 N   0  0  0  0  0  0  0  0  0  0  0  0
  151.9273  140.1136  158.0236 C   0  0  0  0  0  0  0  0  0  0  0  0
  150.5578  140.3863  158.1469 N   0  0  0  0  0  0  0  0  0  0  0  0
  149.8769  140.4455  157.0464 C   0  0  0  0  0  0  0  0  0  0  0  0
  150.5130  140.2523  155.7554 N   0  0  0  0  0  0  0  0  0  0  0  0
  149.7231  140.3017  154.4673 C   0  0  2  0  0  0  0  0  0  0  0  0
  148.9889  141.4891  154.4242 O   0  0  0  0  0  0  0  0  0  0  0  0
  147.6977  141.2275  153.8893 C   0  0  2  0  0  0  0  0  0  0  0  0
  146.6959  142.3292  154.2781 C   0  0  0  0  0  0  0  0  0  0  0  0
  145.4043  141.7805  154.4313 O   0  0  0  0  0  0  0  0  0  0  0  0
  147.3781  139.8232  154.4208 C   0  0  2  0  0  0  0  0  0  0  0  0
  146.8793  139.8763  155.7451 O   0  0  0  0  0  0  0  0  0  0  0  0
  148.7329  139.1258  154.3915 C   0  0  1  0  0  0  0  0  0  0  0  0
  148.8835  138.4109  153.1816 O   0  0  0  0  0  0  0  0  0  0  0  0
  151.9011  139.9505  155.7055 C   0  0  0  0  0  0  0  0  0  0  0  0
  152.4504  139.7364  154.6247 O   0  0  0  0  0  0  0  0  0  0  0  0
  152.5910  139.9035  156.9229 N   0  0  0  0  0  0  0  0  0  0  0  0
  150.4527  140.3192  153.6559 H   0  0  0  0  0  0  0  0  0  0  0  0
  147.7826  141.1649  152.8022 H   0  0  0  0  0  0  0  0  0  0  0  0
  146.6333  139.3179  153.8043 H   0  0  0  0  0  0  0  0  0  0  0  0
  148.8658  138.4342  155.2254 H   0  0  0  0  0  0  0  0  0  0  0  0
  153.6414  139.8694  159.2309 H   0  0  0  0  0  0  0  0  0  0  0  0
  152.2425  140.2050  160.1088 H   0  0  0  0  0  0  0  0  0  0  0  0
  148.8034  140.6364  157.0193 H   0  0  0  0  0  0  0  0  0  0  0  0
  146.9757  142.7697  155.2356 H   0  0  0  0  0  0  0  0  0  0  0  0
  146.6809  143.1324  153.5406 H   0  0  0  0  0  0  0  0  0  0  0  0
  145.1390  141.4000  153.6080 H   0  0  0  0  0  0  0  0  0  0  0  0
  146.0264  139.4701  155.7614 H   0  0  0  0  0  0  0  0  0  0  0  0
  149.2870  138.9816  152.5453 H   0  0  0  0  0  0  0  0  0  0  0  0
  1  2  1  0  0  0  0
  1 22  1  0  0  0  0
  1 23  1  0  0  0  0
  2 17  2  0  0  0  0
  2  3  1  0  0  0  0
  3  4  2  0  0  0  0
  4  5  1  0  0  0  0
  4 24  1  0  0  0  0
  5  6  1  0  0  0  0
  5 15  1  0  0  0  0
  6 18  1  0  0  0  0
  6 13  1  0  0  0  0
  6  7  1  0  0  0  0
  7  8  1  0  0  0  0
  8 19  1  0  0  0  0
  8  9  1  0  0  0  0
  8 11  1  0  0  0  0
  9 10  1  0  0  0  0
  9 25  1  0  0  0  0
  9 26  1  0  0  0  0
 10 27  1  0  0  0  0
 11 20  1  0  0  0  0
 11 12  1  0  0  0  0
 11 13  1  0  0  0  0
 12 28  1  0  0  0  0
 13 21  1  0  0  0  0
 13 14  1  0  0  0  0
 14 29  1  0  0  0  0
 15 16  2  0  0  0  0
 15 17  1  0  0  0  0
M  END
> <s_m_source_file>
AV-unprocessed.smi

> <i_m_source_file_index>
72

> <i_lp_mmshare_version>
43012

> <i_f3d_flags>
0

> <s_epik_input>
W05IMl1jMW5bY0hdbihjKD1PKW4xKVtDQEBIXTJPW0NASF0oW0NIMl1bT0hdKVtDQEBIXShbT0hdKVtDQEhdMltPSF0=

> <s_epik_cmdline>
J2VwaWtfcHl0aG9uJywgJy1waCcsICc3LjAnLCAnLXRuJywgJzgnLCAnLW1hJywgJzIwMCcsICctbWV0YWxfYmluZGluZycsICctaW1hZScsICc8aW5maWxlLm1hZT4nLCAnLW9tYWUnLCAnPG91dGZpbGUubWFlPic=

> <r_lp_tautomer_probability>
4.77166e-05

> <r_epik_Ionization_Penalty>
1.3546

> <r_epik_Ionization_Penalty_Charging>
1.46833e-10

> <r_epik_Ionization_Penalty_Neutral>
1.3546

> <r_epik_State_Penalty>
3.51908

> <r_epik_Charging_Adjusted_Penalty>
3.51908

> <i_epik_Tot_Q>
0

> <i_epik_Tot_abs_Q>
0

> <r_epik_Metal_State_Penalty>
3.44088

> <b_epik_Metal_Only>
1

> <s_epik_Chemistry_Notes>
This compound contains an acetal/aminal-like group ( X-CH(R)-Y where X, Y are N, S, or O) that may be acid/base labile, releasing an aldehyde.

> <s_lp_Force_Field>
OPLS_2005

> <r_lp_Energy>
27.1219

> <b_lp_Chiralities_Consistent>
1

> <s_lp_Variant>
AV-unprocessed.smi:72-85

> <Gold.Version>
5.8.1

> <Gold.Id.Protein>
6NUR|6NUR_protein|mol2

> <Gold.PLP.Fitness>
36.2691

> <Gold.PLP.PLP>
-26.7111

> <Gold.PLP.part.hbond>
-5.4810

> <Gold.PLP.part.metal>
0.0000

> <Gold.PLP.part.buried>
-4.3159

> <Gold.PLP.part.nonpolar>
-18.2501

> <Gold.PLP.part.repulsive>
0.3328

> <Gold.PLP.ligand.clash>
0.0000

> <Gold.PLP.ligand.torsion>
0.5309

> <Gold.PLP.Chemscore.Hbond>
3.5360

> <Gold.PLP.Chemscore.CHOScore>
0.0000

> <Gold.PLP.Chemscore.Metal>
0.0000

> <Gold.Chemscore.Hbonds>
donor molecule, donor type, donor heavy atom, donor atom, acceptor molecule, acceptor atom, score
      L1  H    10    27       P1 10175  0.90
      L1  H    14    29       P1  7957  1.00
      P1  H  7989  7998       L1    16  0.61
      P1  H  7997  8008       L1    17  1.00
      P1  H  8011  8017       L1     7  0.01

> <Gold.PLP.Chemscore.Internal.Correction>
0.0117

> <Gold.Rescore>
     Score         DG    S(hbond)    S(metal)    S(lipo)     H(rot)  DE(clash)    DE(int)     intcor
      8.41      -8.95       3.51        0.00      18.39       4.06       0.10       0.44       ----

> <Gold.Chemscore.Fitness>
8.4072

> <Gold.Chemscore.DG>
-8.9489

> <Gold.Chemscore.ZeroCoef>
-5.4800

> <Gold.Chemscore.Hbond>
3.5063

> <Gold.Chemscore.Metal>
0.0000

> <Gold.Chemscore.Lipo>
18.3881

> <Gold.Chemscore.Internal_Hbond>
0.0000

> <Gold.Chemscore.DEClash>
0.0997

> <Gold.Chemscore.DEInternal>
0.4420

> <Gold.Chemscore.Rot>
4.0600

> <Gold.Chemscore.Internal.Correction>
   9.000000E+99

> <Gold.Chemscore.Hbonds>
donor molecule, donor type, donor heavy atom, donor atom, acceptor molecule, acceptor atom, score
      L1  H    10    27       P1 10175  0.18
      L1  H    14    29       P1  7957  0.97
      P1  H  7989  7998       L1    16  0.31
      P1  H  7997  8008       L1    17  0.70

> <Gold.Chemscore.Hbond.Weighted>
-11.7111

> <Gold.Chemscore.Metal.Weighted>
-0.0000

> <Gold.Chemscore.Lipo.Weighted>
-2.1514

> <Gold.Chemscore.Internal_Hbond.Weighted>
0.0000

> <Gold.Chemscore.DEClash.Weighted>
0.0997

> <Gold.Chemscore.DEInternal.Weighted>
0.4420

> <Gold.Chemscore.Rot.Weighted>
10.3936

> <Gold.Chemscore.Internal.Correction.Weighted>
   9.000000E+99

> <Gold.Protein.RotatedTorsions>
[ 6907 6896 6895 6894 ] final -137.58 input  -60.11 | X-H torsion
[ 7974 7965 7964 7962 ] final -116.17 input  175.53 | X-H torsion
[ 8008 7997 7996 7995 ] final  -57.60 input   59.86 | X-H torsion
[ 10167 10162 10161 10158 ] final    0.01 input  -65.29 | X-H torsion
[ 10718 10713 10712 10709 ] final -162.76 input   66.30 | X-H torsion
[ 10763 10752 10751 10750 ] final  117.45 input  -60.55 | X-H torsion
[ 11005 11000 10999 10996 ] final  168.00 input  -57.11 | X-H torsion

> <Gold.Protein.ActiveResidues>
 VAL166  LYS551  ARG553  GLY616  TRP617  ASP618  TYR619  PRO620  LYS621  CYS622 
 ASP623  PHE694  ASN695  SER759  ASP760  ASP761  ALA762  ILE779  LEU786  VAL792 
 PHE793  MET794  SER795  GLU796  ALA797  LYS798  CYS799  TRP800  GLU811  SER814 

> <Gold.Protein.RotatedAtoms>
  151.0242  133.5848  159.2667 H   0  0  0  0  0  0  0  0  0  0  0  0  # atno 6907 bound_to 6896
  151.2954  135.0753  159.9229 H   0  0  0  0  0  0  0  0  0  0  0  0  # atno 6908 bound_to 6896
  152.5330  133.9934  159.7915 H   0  0  0  0  0  0  0  0  0  0  0  0  # atno 6909 bound_to 6896
  145.0999  140.8545  143.3932 H   0  0  0  0  0  0  0  0  0  0  0  0  # atno 7974 bound_to 7965
  154.4275  140.1103  156.5824 H   0  0  0  0  0  0  0  0  0  0  0  0  # atno 8008 bound_to 7997
  155.6098  140.3494  155.4600 H   0  0  0  0  0  0  0  0  0  0  0  0  # atno 8009 bound_to 7997
  156.0108  140.1218  157.0445 H   0  0  0  0  0  0  0  0  0  0  0  0  # atno 8010 bound_to 7997
  140.6748  143.6947  150.7999 H   0  0  0  0  0  0  0  0  0  0  0  0  # atno 10167 bound_to 10162
  156.6151  130.8867  151.2945 H   0  0  0  0  0  0  0  0  0  0  0  0  # atno 10718 bound_to 10713
  153.5526  135.3536  155.2766 H   0  0  0  0  0  0  0  0  0  0  0  0  # atno 10763 bound_to 10752
  154.8705  135.4117  154.2920 H   0  0  0  0  0  0  0  0  0  0  0  0  # atno 10764 bound_to 10752
  153.3649  135.7061  153.6751 H   0  0  0  0  0  0  0  0  0  0  0  0  # atno 10765 bound_to 10752
  140.2827  134.7737  157.3772 H   0  0  0  0  0  0  0  0  0  0  0  0  # atno 11005 bound_to 11000
  145.0968  139.2851  143.5707 LP  0  0  0  0  0  0  0  0  0  0  0  0  # atno 17320 bound_to 7965
  146.3530  140.0522  142.8635 LP  0  0  0  0  0  0  0  0  0  0  0  0  # atno 17321 bound_to 7965
  140.0639  143.5128  152.2614 LP  0  0  0  0  0  0  0  0  0  0  0  0  # atno 17342 bound_to 10162
  139.6034  144.7589  151.3118 LP  0  0  0  0  0  0  0  0  0  0  0  0  # atno 17343 bound_to 10162
  157.7243  130.9601  150.1570 LP  0  0  0  0  0  0  0  0  0  0  0  0  # atno 17370 bound_to 10713
  156.2358  130.3686  149.8393 LP  0  0  0  0  0  0  0  0  0  0  0  0  # atno 17371 bound_to 10713
  140.1268  134.5147  155.8138 LP  0  0  0  0  0  0  0  0  0  0  0  0  # atno 17394 bound_to 11000
  141.2160  133.6776  156.6967 LP  0  0  0  0  0  0  0  0  0  0  0  0  # atno 17395 bound_to 11000

$$$$
