AV-unprocessed.smi:2140|AV-procd|sdf|8715|dock10
  -GOLD-   2272011483D 1   1.00000     0.00000
 Structure written by MMmdl.
 39 40  0  0  0  0  0  0  0  0  1 V2000
  147.2094  132.9154  152.9117 C   0  0  0  0  0  0  0  0  0  0  0  0
  148.5738  132.1816  152.9699 C   0  0  1  0  0  0  0  0  0  0  0  0
  149.4725  132.8749  154.0355 C   0  0  0  0  0  0  0  0  0  0  0  0
  149.6317  134.3103  153.8184 N   0  0  0  0  0  0  0  0  0  0  0  0
  150.2617  135.1495  154.6523 C   0  0  0  0  0  0  0  0  0  0  0  0
  150.7755  134.7936  155.7127 O   0  0  0  0  0  0  0  0  0  0  0  0
  150.2720  136.4015  154.1641 N   0  0  0  0  0  0  0  0  0  0  0  0
  150.8393  137.5694  154.7411 C   0  0  0  0  0  0  0  0  0  0  0  0
  151.7819  137.5583  155.7976 C   0  0  0  0  0  0  0  0  0  0  0  0
  152.2566  138.7862  156.2976 C   0  0  0  0  0  0  0  0  0  0  0  0
  151.7674  139.9784  155.7292 C   0  0  0  0  0  0  0  0  0  0  0  0
  150.8585  140.0040  154.7318 N   0  0  0  0  0  0  0  0  0  0  0  0
  150.4071  138.8230  154.2585 C   0  0  0  0  0  0  0  0  0  0  0  0
  148.4314  130.7229  153.1870 N   0  0  0  0  0  0  0  0  0  0  0  0
  147.5514  130.0884  152.1986 C   0  0  0  0  0  0  0  0  0  0  0  0
  147.4182  128.5701  152.4061 C   0  0  0  0  0  0  0  0  0  0  0  0
  148.7042  127.9681  152.3633 O   0  0  0  0  0  0  0  0  0  0  0  0
  149.5728  128.4976  153.3549 C   0  0  0  0  0  0  0  0  0  0  0  0
  149.7185  130.0177  153.1626 C   0  0  0  0  0  0  0  0  0  0  0  0
  147.3197  133.9937  152.8035 H   0  0  0  0  0  0  0  0  0  0  0  0
  146.6257  132.7349  153.8149 H   0  0  0  0  0  0  0  0  0  0  0  0
  146.6111  132.6067  152.0558 H   0  0  0  0  0  0  0  0  0  0  0  0
  149.0527  132.3274  152.0003 H   0  0  0  0  0  0  0  0  0  0  0  0
  149.0479  132.7288  155.0291 H   0  0  0  0  0  0  0  0  0  0  0  0
  150.4753  132.4509  154.0650 H   0  0  0  0  0  0  0  0  0  0  0  0
  149.2421  134.6867  152.9667 H   0  0  0  0  0  0  0  0  0  0  0  0
  149.8823  136.5209  153.2405 H   0  0  0  0  0  0  0  0  0  0  0  0
  152.1366  136.6410  156.2413 H   0  0  0  0  0  0  0  0  0  0  0  0
  152.9766  138.8135  157.1022 H   0  0  0  0  0  0  0  0  0  0  0  0
  152.1110  140.9368  156.0895 H   0  0  0  0  0  0  0  0  0  0  0  0
  149.6790  138.8822  153.4626 H   0  0  0  0  0  0  0  0  0  0  0  0
  146.5475  130.5055  152.2539 H   0  0  0  0  0  0  0  0  0  0  0  0
  147.9224  130.2856  151.1916 H   0  0  0  0  0  0  0  0  0  0  0  0
  146.9350  128.3509  153.3599 H   0  0  0  0  0  0  0  0  0  0  0  0
  146.7954  128.1344  151.6248 H   0  0  0  0  0  0  0  0  0  0  0  0
  149.1854  128.2692  154.3491 H   0  0  0  0  0  0  0  0  0  0  0  0
  150.5448  128.0112  153.2714 H   0  0  0  0  0  0  0  0  0  0  0  0
  150.2311  130.2161  152.2202 H   0  0  0  0  0  0  0  0  0  0  0  0
  150.3694  130.3727  153.9585 H   0  0  0  0  0  0  0  0  0  0  0  0
  1  2  1  0  0  0  0
  1 20  1  0  0  0  0
  1 21  1  0  0  0  0
  1 22  1  0  0  0  0
  2  3  1  0  0  0  0
  2 14  1  0  0  0  0
  2 23  1  0  0  0  0
  3  4  1  0  0  0  0
  3 24  1  0  0  0  0
  3 25  1  0  0  0  0
  4  5  1  0  0  0  0
  4 26  1  0  0  0  0
  5  6  2  0  0  0  0
  5  7  1  0  0  0  0
  7  8  1  0  0  0  0
  7 27  1  0  0  0  0
  8 13  1  0  0  0  0
  8  9  2  0  0  0  0
  9 10  1  0  0  0  0
  9 28  1  0  0  0  0
 10 11  2  0  0  0  0
 10 29  1  0  0  0  0
 11 12  1  0  0  0  0
 11 30  1  0  0  0  0
 12 13  2  0  0  0  0
 13 31  1  0  0  0  0
 14 19  1  0  0  0  0
 14 15  1  0  0  0  0
 15 16  1  0  0  0  0
 15 32  1  0  0  0  0
 15 33  1  0  0  0  0
 16 17  1  0  0  0  0
 16 34  1  0  0  0  0
 16 35  1  0  0  0  0
 17 18  1  0  0  0  0
 18 19  1  0  0  0  0
 18 36  1  0  0  0  0
 18 37  1  0  0  0  0
 19 38  1  0  0  0  0
 19 39  1  0  0  0  0
M  END
> <s_m_source_file>
AV-unprocessed.smi

> <i_m_source_file_index>
2140

> <i_lp_mmshare_version>
43012

> <i_f3d_flags>
0

> <s_epik_input>
W0NIMl0xW0NIMl1PW0NIMl1bQ0gyXU4xW0NASF0oW0NIM10pW0NIMl1bTkhdQyg9TylbTkhdYzJbY0hdW2NIXVtjSF1uW2NIXTI=

> <s_epik_cmdline>
J2VwaWtfcHl0aG9uJywgJy1waCcsICc3LjAnLCAnLXRuJywgJzgnLCAnLW1hJywgJzIwMCcsICctbWV0YWxfYmluZGluZycsICctaW1hZScsICc8aW5maWxlLm1hZT4nLCAnLW9tYWUnLCAnPG91dGZpbGUubWFlPic=

> <r_epik_Ionization_Penalty>
0.270748

> <r_epik_Ionization_Penalty_Charging>
0

> <r_epik_Ionization_Penalty_Neutral>
0.270748

> <r_epik_State_Penalty>
0.268258

> <r_epik_Charging_Adjusted_Penalty>
0.268258

> <i_epik_Tot_Q>
0

> <i_epik_Tot_abs_Q>
0

> <r_epik_Metal_State_Penalty>
0.264828

> <b_epik_Metal_Only>
0

> <s_lp_Force_Field>
OPLS_2005

> <r_lp_Energy>
31.3995

> <b_lp_Chiralities_Consistent>
1

> <s_lp_Variant>
AV-unprocessed.smi:2140-2

> <Gold.Version>
5.8.1

> <Gold.Id.Protein>
6NUR|6NUR_protein|mol2

> <Gold.PLP.Fitness>
42.7051

> <Gold.PLP.PLP>
-31.4754

> <Gold.PLP.part.hbond>
-4.0000

> <Gold.PLP.part.metal>
0.0000

> <Gold.PLP.part.buried>
-1.6682

> <Gold.PLP.part.nonpolar>
-25.2180

> <Gold.PLP.part.repulsive>
0.3754

> <Gold.PLP.ligand.clash>
0.0000

> <Gold.PLP.ligand.torsion>
0.1012

> <Gold.PLP.Chemscore.Hbond>
2.8024

> <Gold.PLP.Chemscore.CHOScore>
1.0000

> <Gold.PLP.Chemscore.Metal>
0.0000

> <Gold.Chemscore.Hbonds>
donor molecule, donor type, donor heavy atom, donor atom, acceptor molecule, acceptor atom, score
      L1  H     4    26       P1  7948  0.29
      L1  H     7    27       P1  7948  0.80
      P1  H  7989  7998       L1    12  1.00
      L1  C    13    31       P1  7957  0.90

> <Gold.PLP.Chemscore.Internal.Correction>
0.0248

> <Gold.Rescore>
     Score         DG    S(hbond)    S(metal)    S(lipo)     H(rot)  DE(clash)    DE(int)     intcor
     13.70     -15.14       1.59        0.00      69.33       1.47       0.10       1.34       ----

> <Gold.Chemscore.Fitness>
13.7027

> <Gold.Chemscore.DG>
-15.1402

> <Gold.Chemscore.ZeroCoef>
-5.4800

> <Gold.Chemscore.Hbond>
1.5919

> <Gold.Chemscore.Metal>
0.0000

> <Gold.Chemscore.Lipo>
69.3280

> <Gold.Chemscore.Internal_Hbond>
0.0000

> <Gold.Chemscore.DEClash>
0.0982

> <Gold.Chemscore.DEInternal>
1.3393

> <Gold.Chemscore.Rot>
1.4719

> <Gold.Chemscore.Internal.Correction>
   9.000000E+99

> <Gold.Chemscore.Hbonds>
donor molecule, donor type, donor heavy atom, donor atom, acceptor molecule, acceptor atom, score
      L1  H     7    27       P1  7948  0.12
      P1  H  7989  7998       L1    12  0.33

> <Gold.Chemscore.Hbond.Weighted>
-5.3169

> <Gold.Chemscore.Metal.Weighted>
-0.0000

> <Gold.Chemscore.Lipo.Weighted>
-8.1114

> <Gold.Chemscore.Internal_Hbond.Weighted>
0.0000

> <Gold.Chemscore.DEClash.Weighted>
0.0982

> <Gold.Chemscore.DEInternal.Weighted>
1.3393

> <Gold.Chemscore.Rot.Weighted>
3.7681

> <Gold.Chemscore.Internal.Correction.Weighted>
   9.000000E+99

> <Gold.Protein.RotatedTorsions>
[ 6907 6896 6895 6894 ] final   -3.59 input  -60.11 | X-H torsion
[ 7974 7965 7964 7962 ] final -174.88 input  175.53 | X-H torsion
[ 8008 7997 7996 7995 ] final  167.92 input   59.86 | X-H torsion
[ 10167 10162 10161 10158 ] final   89.66 input  -65.29 | X-H torsion
[ 10718 10713 10712 10709 ] final    0.72 input   66.30 | X-H torsion
[ 10763 10752 10751 10750 ] final   89.92 input  -60.55 | X-H torsion
[ 11005 11000 10999 10996 ] final -113.63 input  -57.11 | X-H torsion

> <Gold.Protein.ActiveResidues>
 VAL166  LYS551  ARG553  GLY616  TRP617  ASP618  TYR619  PRO620  LYS621  CYS622 
 ASP623  PHE694  ASN695  SER759  ASP760  ASP761  ALA762  ILE779  LEU786  VAL792 
 PHE793  MET794  SER795  GLU796  ALA797  LYS798  CYS799  TRP800  GLU811  SER814 

> <Gold.Protein.RotatedAtoms>
  151.5113  135.1065  159.9854 H   0  0  0  0  0  0  0  0  0  0  0  0  # atno 6907 bound_to 6896
  152.4660  133.7920  159.6918 H   0  0  0  0  0  0  0  0  0  0  0  0  # atno 6908 bound_to 6896
  150.8644  133.7532  159.3007 H   0  0  0  0  0  0  0  0  0  0  0  0  # atno 6909 bound_to 6896
  144.7130  140.1405  143.6392 H   0  0  0  0  0  0  0  0  0  0  0  0  # atno 7974 bound_to 7965
  156.1592  140.1604  156.8641 H   0  0  0  0  0  0  0  0  0  0  0  0  # atno 8008 bound_to 7997
  154.5144  140.0793  156.8088 H   0  0  0  0  0  0  0  0  0  0  0  0  # atno 8009 bound_to 7997
  155.3742  140.3402  155.4246 H   0  0  0  0  0  0  0  0  0  0  0  0  # atno 8010 bound_to 7997
  139.8550  144.6574  150.9125 H   0  0  0  0  0  0  0  0  0  0  0  0  # atno 10167 bound_to 10162
  156.8375  130.5510  149.5681 H   0  0  0  0  0  0  0  0  0  0  0  0  # atno 10718 bound_to 10713
  153.1921  135.4453  155.0162 H   0  0  0  0  0  0  0  0  0  0  0  0  # atno 10763 bound_to 10752
  154.8097  135.3289  154.7341 H   0  0  0  0  0  0  0  0  0  0  0  0  # atno 10764 bound_to 10752
  153.7794  135.6978  153.4946 H   0  0  0  0  0  0  0  0  0  0  0  0  # atno 10765 bound_to 10752
  141.0602  133.9547  157.2681 H   0  0  0  0  0  0  0  0  0  0  0  0  # atno 11005 bound_to 11000
  145.9206  139.2543  143.1383 LP  0  0  0  0  0  0  0  0  0  0  0  0  # atno 17320 bound_to 7965
  145.9624  140.8825  143.0204 LP  0  0  0  0  0  0  0  0  0  0  0  0  # atno 17321 bound_to 7965
  140.7782  143.3794  151.1505 LP  0  0  0  0  0  0  0  0  0  0  0  0  # atno 17342 bound_to 10162
  139.7428  143.8897  152.3055 LP  0  0  0  0  0  0  0  0  0  0  0  0  # atno 17343 bound_to 10162
  156.0899  130.5887  150.9714 LP  0  0  0  0  0  0  0  0  0  0  0  0  # atno 17370 bound_to 10713
  157.6373  131.0914  150.8322 LP  0  0  0  0  0  0  0  0  0  0  0  0  # atno 17371 bound_to 10713
  139.9426  135.0189  156.8754 LP  0  0  0  0  0  0  0  0  0  0  0  0  # atno 17394 bound_to 11000
  140.5884  134.0285  155.7490 LP  0  0  0  0  0  0  0  0  0  0  0  0  # atno 17395 bound_to 11000

$$$$
