AV-unprocessed.smi:2930|AV-procd|sdf|11241|dock7
  -GOLD-   2272016133D 1   1.00000     0.00000
 Structure written by MMmdl.
 40 41  0  0  0  0  0  0  0  0  1 V2000
  145.9608  137.5514  151.5882 C   0  0  0  0  0  0  0  0  0  0  0  0
  144.8269  136.7952  152.2942 C   0  0  1  0  0  0  0  0  0  0  0  0
  143.7302  137.7208  152.5678 N   0  0  0  0  0  0  0  0  0  0  0  0
  142.5749  137.4098  153.1732 C   0  0  0  0  0  0  0  0  0  0  0  0
  142.3003  136.2817  153.5809 O   0  0  0  0  0  0  0  0  0  0  0  0
  141.7656  138.4797  153.2493 N   0  0  0  0  0  0  0  0  0  0  0  0
  140.4693  138.5643  153.8239 C   0  0  0  0  0  0  0  0  0  0  0  0
  139.8922  139.7375  154.3659 C   0  0  0  0  0  0  0  0  0  0  0  0
  138.6429  139.7407  154.8784 N   0  0  0  0  0  0  0  0  0  0  0  0
  137.9558  138.5911  154.8570 C   0  0  0  0  0  0  0  0  0  0  0  0
  136.6652  138.6023  155.3943 N   0  0  0  0  0  0  0  0  0  0  0  0
  135.8812  137.3754  155.5044 C   0  0  0  0  0  0  0  0  0  0  0  0
  136.0530  139.8417  155.8645 C   0  0  0  0  0  0  0  0  0  0  0  0
  138.4064  137.4321  154.3583 N   0  0  0  0  0  0  0  0  0  0  0  0
  139.6527  137.4163  153.8407 C   0  0  0  0  0  0  0  0  0  0  0  0
  144.3199  135.6139  151.4644 C   0  0  0  0  0  0  0  0  0  0  0  0
  143.7056  134.3870  152.1573 C   0  0  0  0  0  0  0  0  0  0  0  0
  144.3167  133.5167  151.0559 C   0  0  0  0  0  0  0  0  0  0  0  0
  145.3203  134.6470  150.8121 C   0  0  0  0  0  0  0  0  0  0  0  0
  146.8134  136.8977  151.4026 H   0  0  0  0  0  0  0  0  0  0  0  0
  146.3145  138.3853  152.1954 H   0  0  0  0  0  0  0  0  0  0  0  0
  145.6344  137.9524  150.6279 H   0  0  0  0  0  0  0  0  0  0  0  0
  145.2294  136.4237  153.2384 H   0  0  0  0  0  0  0  0  0  0  0  0
  143.8602  138.6741  152.2627 H   0  0  0  0  0  0  0  0  0  0  0  0
  142.0973  139.3215  152.8014 H   0  0  0  0  0  0  0  0  0  0  0  0
  140.4028  140.6876  154.3813 H   0  0  0  0  0  0  0  0  0  0  0  0
  136.3980  136.6495  156.1331 H   0  0  0  0  0  0  0  0  0  0  0  0
  135.7288  136.9317  154.5201 H   0  0  0  0  0  0  0  0  0  0  0  0
  134.8998  137.5563  155.9429 H   0  0  0  0  0  0  0  0  0  0  0  0
  135.9757  140.5606  155.0482 H   0  0  0  0  0  0  0  0  0  0  0  0
  136.6543  140.2857  156.6585 H   0  0  0  0  0  0  0  0  0  0  0  0
  135.0505  139.6776  156.2594 H   0  0  0  0  0  0  0  0  0  0  0  0
  140.0000  136.4754  153.4397 H   0  0  0  0  0  0  0  0  0  0  0  0
  143.6262  135.9568  150.6932 H   0  0  0  0  0  0  0  0  0  0  0  0
  144.1417  134.1904  153.1383 H   0  0  0  0  0  0  0  0  0  0  0  0
  142.6160  134.3834  152.1946 H   0  0  0  0  0  0  0  0  0  0  0  0
  144.7567  132.5813  151.4029 H   0  0  0  0  0  0  0  0  0  0  0  0
  143.6404  133.3611  150.2139 H   0  0  0  0  0  0  0  0  0  0  0  0
  145.5341  134.8508  149.7624 H   0  0  0  0  0  0  0  0  0  0  0  0
  146.2361  134.5281  151.3936 H   0  0  0  0  0  0  0  0  0  0  0  0
  1  2  1  0  0  0  0
  1 20  1  0  0  0  0
  1 21  1  0  0  0  0
  1 22  1  0  0  0  0
  2  3  1  0  0  0  0
  2 16  1  0  0  0  0
  2 23  1  0  0  0  0
  3  4  1  0  0  0  0
  3 24  1  0  0  0  0
  4  5  2  0  0  0  0
  4  6  1  0  0  0  0
  6  7  1  0  0  0  0
  6 25  1  0  0  0  0
  7 15  1  0  0  0  0
  7  8  2  0  0  0  0
  8  9  1  0  0  0  0
  8 26  1  0  0  0  0
  9 10  2  0  0  0  0
 10 11  1  0  0  0  0
 10 14  1  0  0  0  0
 11 12  1  0  0  0  0
 11 13  1  0  0  0  0
 12 27  1  0  0  0  0
 12 28  1  0  0  0  0
 12 29  1  0  0  0  0
 13 30  1  0  0  0  0
 13 31  1  0  0  0  0
 13 32  1  0  0  0  0
 14 15  2  0  0  0  0
 15 33  1  0  0  0  0
 16 19  1  0  0  0  0
 16 17  1  0  0  0  0
 16 34  1  0  0  0  0
 17 18  1  0  0  0  0
 17 35  1  0  0  0  0
 17 36  1  0  0  0  0
 18 19  1  0  0  0  0
 18 37  1  0  0  0  0
 18 38  1  0  0  0  0
 19 39  1  0  0  0  0
 19 40  1  0  0  0  0
M  END
> <s_m_source_file>
AV-unprocessed.smi

> <i_m_source_file_index>
2930

> <i_lp_mmshare_version>
43012

> <i_f3d_flags>
0

> <s_epik_input>
W0NIMl0xW0NIMl1bQ0gyXVtDSF0xW0NASF0oW0NIM10pW05IXUMoPU8pW05IXWMyW2NIXW5jKE4oW0NIM10pW0NIM10pbltjSF0y

> <s_epik_cmdline>
J2VwaWtfcHl0aG9uJywgJy1waCcsICc3LjAnLCAnLXRuJywgJzgnLCAnLW1hJywgJzIwMCcsICctbWV0YWxfYmluZGluZycsICctaW1hZScsICc8aW5maWxlLm1hZT4nLCAnLW9tYWUnLCAnPG91dGZpbGUubWFlPic=

> <r_lp_tautomer_probability>
1

> <r_epik_Ionization_Penalty>
0.000323856

> <r_epik_Ionization_Penalty_Charging>
0

> <r_epik_Ionization_Penalty_Neutral>
0.000323856

> <r_epik_State_Penalty>
-0

> <r_epik_Charging_Adjusted_Penalty>
0

> <i_epik_Tot_Q>
0

> <i_epik_Tot_abs_Q>
0

> <r_epik_Metal_State_Penalty>
-0

> <b_epik_Metal_Only>
0

> <s_lp_Force_Field>
OPLS_2005

> <r_lp_Energy>
8.86729

> <b_lp_Chiralities_Consistent>
1

> <s_lp_Variant>
AV-unprocessed.smi:2930-2

> <Gold.Version>
5.8.1

> <Gold.Id.Protein>
6NUR|6NUR_protein|mol2

> <Gold.PLP.Fitness>
41.1132

> <Gold.PLP.PLP>
-33.2861

> <Gold.PLP.part.hbond>
-3.6701

> <Gold.PLP.part.metal>
0.0000

> <Gold.PLP.part.buried>
-2.8712

> <Gold.PLP.part.nonpolar>
-27.5314

> <Gold.PLP.part.repulsive>
0.3658

> <Gold.PLP.ligand.clash>
0.0000

> <Gold.PLP.ligand.torsion>
0.5887

> <Gold.PLP.Chemscore.Hbond>
1.9600

> <Gold.PLP.Chemscore.CHOScore>
1.0000

> <Gold.PLP.Chemscore.Metal>
0.0000

> <Gold.Chemscore.Hbonds>
donor molecule, donor type, donor heavy atom, donor atom, acceptor molecule, acceptor atom, score
      L1  H     3    24       P1 10175  1.00
      L1  H     6    25       P1 10175  0.94

> <Gold.PLP.Chemscore.Internal.Correction>
0.1244

> <Gold.Rescore>
     Score         DG    S(hbond)    S(metal)    S(lipo)     H(rot)  DE(clash)    DE(int)     intcor
     11.67     -16.33       1.92        0.00      64.13       1.19       0.10       4.55       ----

> <Gold.Chemscore.Fitness>
11.6731

> <Gold.Chemscore.DG>
-16.3296

> <Gold.Chemscore.ZeroCoef>
-5.4800

> <Gold.Chemscore.Hbond>
1.9177

> <Gold.Chemscore.Metal>
0.0000

> <Gold.Chemscore.Lipo>
64.1313

> <Gold.Chemscore.Internal_Hbond>
0.0000

> <Gold.Chemscore.DEClash>
0.1044

> <Gold.Chemscore.DEInternal>
4.5521

> <Gold.Chemscore.Rot>
1.1949

> <Gold.Chemscore.Internal.Correction>
   9.000000E+99

> <Gold.Chemscore.Hbonds>
donor molecule, donor type, donor heavy atom, donor atom, acceptor molecule, acceptor atom, score
      L1  H     3    24       P1 10175  0.96
      L1  H     6    25       P1 10175  0.78

> <Gold.Chemscore.Hbond.Weighted>
-6.4052

> <Gold.Chemscore.Metal.Weighted>
-0.0000

> <Gold.Chemscore.Lipo.Weighted>
-7.5034

> <Gold.Chemscore.Internal_Hbond.Weighted>
0.0000

> <Gold.Chemscore.DEClash.Weighted>
0.1044

> <Gold.Chemscore.DEInternal.Weighted>
4.5521

> <Gold.Chemscore.Rot.Weighted>
3.0590

> <Gold.Chemscore.Internal.Correction.Weighted>
   9.000000E+99

> <Gold.Protein.RotatedTorsions>
[ 6907 6896 6895 6894 ] final  147.11 input  -60.11 | X-H torsion
[ 7974 7965 7964 7962 ] final  -77.67 input  175.53 | X-H torsion
[ 8008 7997 7996 7995 ] final   25.74 input   59.86 | X-H torsion
[ 10167 10162 10161 10158 ] final  169.57 input  -65.29 | X-H torsion
[ 10718 10713 10712 10709 ] final  -50.35 input   66.30 | X-H torsion
[ 10763 10752 10751 10750 ] final    3.50 input  -60.55 | X-H torsion
[ 11005 11000 10999 10996 ] final  151.00 input  -57.11 | X-H torsion

> <Gold.Protein.ActiveResidues>
 VAL166  LYS551  ARG553  GLY616  TRP617  ASP618  TYR619  PRO620  LYS621  CYS622 
 ASP623  PHE694  ASN695  SER759  ASP760  ASP761  ALA762  ILE779  LEU786  VAL792 
 PHE793  MET794  SER795  GLU796  ALA797  LYS798  CYS799  TRP800  GLU811  SER814 

> <Gold.Protein.RotatedAtoms>
  152.1590  133.4570  159.4851 H   0  0  0  0  0  0  0  0  0  0  0  0  # atno 6907 bound_to 6896
  150.6904  134.2095  159.4362 H   0  0  0  0  0  0  0  0  0  0  0  0  # atno 6908 bound_to 6896
  151.9996  134.9935  160.0615 H   0  0  0  0  0  0  0  0  0  0  0  0  # atno 6909 bound_to 6896
  145.5966  140.9418  143.1263 H   0  0  0  0  0  0  0  0  0  0  0  0  # atno 7974 bound_to 7965
  155.0164  140.3142  155.4810 H   0  0  0  0  0  0  0  0  0  0  0  0  # atno 8008 bound_to 7997
  156.2900  140.2205  156.5222 H   0  0  0  0  0  0  0  0  0  0  0  0  # atno 8009 bound_to 7997
  154.7490  140.0467  157.0865 H   0  0  0  0  0  0  0  0  0  0  0  0  # atno 8010 bound_to 7997
  139.4996  144.3692  151.9743 H   0  0  0  0  0  0  0  0  0  0  0  0  # atno 10167 bound_to 10162
  156.1809  130.4150  149.9508 H   0  0  0  0  0  0  0  0  0  0  0  0  # atno 10718 bound_to 10713
  153.2826  135.6942  153.7371 H   0  0  0  0  0  0  0  0  0  0  0  0  # atno 10763 bound_to 10752
  153.6352  135.3403  155.3055 H   0  0  0  0  0  0  0  0  0  0  0  0  # atno 10764 bound_to 10752
  154.8500  135.4418  154.1883 H   0  0  0  0  0  0  0  0  0  0  0  0  # atno 10765 bound_to 10752
  140.1180  134.8882  157.2032 H   0  0  0  0  0  0  0  0  0  0  0  0  # atno 11005 bound_to 11000
  144.7328  139.7674  143.7340 LP  0  0  0  0  0  0  0  0  0  0  0  0  # atno 17320 bound_to 7965
  146.1608  139.4721  142.9990 LP  0  0  0  0  0  0  0  0  0  0  0  0  # atno 17321 bound_to 7965
  140.3128  144.3518  150.6029 LP  0  0  0  0  0  0  0  0  0  0  0  0  # atno 17342 bound_to 10162
  140.5785  143.2174  151.7471 LP  0  0  0  0  0  0  0  0  0  0  0  0  # atno 17343 bound_to 10162
  156.7279  130.9032  151.3623 LP  0  0  0  0  0  0  0  0  0  0  0  0  # atno 17370 bound_to 10713
  157.6867  130.9193  150.0406 LP  0  0  0  0  0  0  0  0  0  0  0  0  # atno 17371 bound_to 10713
  140.3002  134.3140  155.7292 LP  0  0  0  0  0  0  0  0  0  0  0  0  # atno 17394 bound_to 11000
  141.2145  133.7587  156.9630 LP  0  0  0  0  0  0  0  0  0  0  0  0  # atno 17395 bound_to 11000

$$$$
