AV-unprocessed.smi:1600|AV-procd|sdf|6428|dock5
  -GOLD-   22720 7 73D 1   1.00000     0.00000
 Structure written by MMmdl.
 46 47  0  0  0  0  0  0  0  0  2 V2000
  149.2124  142.0742  155.0629 C   0  0  0  0  0  0  0  0  0  0  0  0
  149.6386  140.6423  154.9273 C   0  0  0  0  0  0  0  0  0  0  0  0
  148.8369  139.5181  154.5743 C   0  0  0  0  0  0  0  0  0  0  0  0
  149.7348  138.4860  154.6061 C   0  0  0  0  0  0  0  0  0  0  0  0
  149.5296  137.1667  154.3490 N   0  0  0  0  0  0  0  0  0  0  0  0
  149.8290  136.1066  155.1200 C   0  0  0  0  0  0  0  0  0  0  0  0
  150.3454  136.1577  156.2364 O   0  0  0  0  0  0  0  0  0  0  0  0
  149.5084  134.9564  154.5092 N   0  0  0  0  0  0  0  0  0  0  0  0
  149.7001  133.6191  155.0671 C   0  0  0  0  0  0  0  0  0  0  0  0
  149.3323  132.4803  154.0905 C   0  0  1  0  0  0  0  0  0  0  0  0
  149.0095  131.1323  154.7347 C   0  0  0  0  0  0  0  0  0  0  0  0
  148.1873  130.3876  153.6731 C   0  0  0  0  0  0  0  0  0  0  0  0
  147.7705  131.3870  152.6555 N   0  3  1  0  0  0  0  0  0  0  0  0
  146.3766  131.2329  152.1503 C   0  0  0  0  0  0  0  0  0  0  0  0
  146.1700  129.8470  151.5107 C   0  0  0  0  0  0  0  0  0  0  0  0
  146.0127  132.3284  151.1298 C   0  0  0  0  0  0  0  0  0  0  0  0
  148.1078  132.7181  153.2052 C   0  0  0  0  0  0  0  0  0  0  0  0
  150.9721  138.9832  154.9494 N   0  0  0  0  0  0  0  0  0  0  0  0
  152.2335  138.2860  155.1076 C   0  0  0  0  0  0  0  0  0  0  0  0
  150.9070  140.3170  155.1505 N   0  0  0  0  0  0  0  0  0  0  0  0
  148.1899  142.2154  154.7122 H   0  0  0  0  0  0  0  0  0  0  0  0
  149.8559  142.7341  154.4804 H   0  0  0  0  0  0  0  0  0  0  0  0
  149.2537  142.3983  156.1029 H   0  0  0  0  0  0  0  0  0  0  0  0
  147.7837  139.4970  154.3392 H   0  0  0  0  0  0  0  0  0  0  0  0
  149.1197  136.9630  153.4494 H   0  0  0  0  0  0  0  0  0  0  0  0
  149.0870  135.0083  153.5929 H   0  0  0  0  0  0  0  0  0  0  0  0
  150.7263  133.4923  155.4158 H   0  0  0  0  0  0  0  0  0  0  0  0
  149.0739  133.5431  155.9562 H   0  0  0  0  0  0  0  0  0  0  0  0
  150.1863  132.3301  153.4277 H   0  0  0  0  0  0  0  0  0  0  0  0
  149.9065  130.5861  155.0283 H   0  0  0  0  0  0  0  0  0  0  0  0
  148.3995  131.2673  155.6286 H   0  0  0  0  0  0  0  0  0  0  0  0
  148.7801  129.6132  153.1855 H   0  0  0  0  0  0  0  0  0  0  0  0
  147.3313  129.9028  154.1450 H   0  0  0  0  0  0  0  0  0  0  0  0
  145.6965  131.3252  152.9986 H   0  0  0  0  0  0  0  0  0  0  0  0
  145.1534  129.7402  151.1310 H   0  0  0  0  0  0  0  0  0  0  0  0
  146.3290  129.0366  152.2217 H   0  0  0  0  0  0  0  0  0  0  0  0
  146.8517  129.6930  150.6735 H   0  0  0  0  0  0  0  0  0  0  0  0
  145.0078  132.1747  150.7352 H   0  0  0  0  0  0  0  0  0  0  0  0
  146.7018  132.3289  150.2847 H   0  0  0  0  0  0  0  0  0  0  0  0
  146.0254  133.3235  151.5744 H   0  0  0  0  0  0  0  0  0  0  0  0
  147.2647  133.0771  153.7956 H   0  0  0  0  0  0  0  0  0  0  0  0
  148.3079  133.4455  152.4180 H   0  0  0  0  0  0  0  0  0  0  0  0
  152.1317  137.5124  155.8691 H   0  0  0  0  0  0  0  0  0  0  0  0
  153.0205  138.9784  155.4098 H   0  0  0  0  0  0  0  0  0  0  0  0
  152.5157  137.8219  154.1625 H   0  0  0  0  0  0  0  0  0  0  0  0
  148.3865  131.2539  151.8663 H   0  0  0  0  0  0  0  0  0  0  0  0
  1  2  1  0  0  0  0
  1 21  1  0  0  0  0
  1 22  1  0  0  0  0
  1 23  1  0  0  0  0
  2 20  2  0  0  0  0
  2  3  1  0  0  0  0
  3  4  2  0  0  0  0
  3 24  1  0  0  0  0
  4  5  1  0  0  0  0
  4 18  1  0  0  0  0
  5  6  1  0  0  0  0
  5 25  1  0  0  0  0
  6  7  2  0  0  0  0
  6  8  1  0  0  0  0
  8  9  1  0  0  0  0
  8 26  1  0  0  0  0
  9 10  1  0  0  0  0
  9 27  1  0  0  0  0
  9 28  1  0  0  0  0
 10 17  1  0  0  0  0
 10 11  1  0  0  0  0
 10 29  1  0  0  0  0
 11 12  1  0  0  0  0
 11 30  1  0  0  0  0
 11 31  1  0  0  0  0
 12 13  1  0  0  0  0
 12 32  1  0  0  0  0
 12 33  1  0  0  0  0
 13 14  1  0  0  0  0
 13 17  1  0  0  0  0
 13 46  1  0  0  0  0
 14 15  1  0  0  0  0
 14 16  1  0  0  0  0
 14 34  1  0  0  0  0
 15 35  1  0  0  0  0
 15 36  1  0  0  0  0
 15 37  1  0  0  0  0
 16 38  1  0  0  0  0
 16 39  1  0  0  0  0
 16 40  1  0  0  0  0
 17 41  1  0  0  0  0
 17 42  1  0  0  0  0
 18 19  1  0  0  0  0
 18 20  1  0  0  0  0
 19 43  1  0  0  0  0
 19 44  1  0  0  0  0
 19 45  1  0  0  0  0
M  CHG  1  13   1
M  END
> <s_m_source_file>
AV-unprocessed.smi

> <i_m_source_file_index>
1600

> <i_lp_mmshare_version>
43012

> <i_f3d_flags>
0

> <s_epik_input>
W0NIM11jMVtjSF1jKG4objEpW0NIM10pW05IXUMoPU8pW05IXVtDSDJdW0NAQEhdMltDSDJdW0NIMl1OKFtDSDJdMilbQ0hdKFtDSDNdKVtDSDNd

> <s_epik_cmdline>
J2VwaWtfcHl0aG9uJywgJy1waCcsICc3LjAnLCAnLXRuJywgJzgnLCAnLW1hJywgJzIwMCcsICctbWV0YWxfYmluZGluZycsICctaW1hZScsICc8aW5maWxlLm1hZT4nLCAnLW9tYWUnLCAnPG91dGZpbGUubWFlPic=

> <r_lp_tautomer_probability>
1

> <r_epik_Ionization_Penalty>
0.000297652

> <r_epik_Ionization_Penalty_Charging>
0.000213653

> <r_epik_Ionization_Penalty_Neutral>
8.3999e-05

> <r_epik_State_Penalty>
-0

> <r_epik_Charging_Adjusted_Penalty>
0.000213653

> <i_epik_Tot_Q>
1

> <i_epik_Tot_abs_Q>
1

> <r_epik_Metal_State_Penalty>
-0

> <b_epik_Metal_Only>
0

> <s_lp_Force_Field>
OPLS_2005

> <r_lp_Energy>
33.4544

> <b_lp_Chiralities_Consistent>
1

> <s_lp_Variant>
AV-unprocessed.smi:1600-2

> <Gold.Version>
5.8.1

> <Gold.Id.Protein>
6NUR|6NUR_protein|mol2

> <Gold.PLP.Fitness>
50.1486

> <Gold.PLP.PLP>
-40.2674

> <Gold.PLP.part.hbond>
-4.0000

> <Gold.PLP.part.metal>
0.0000

> <Gold.PLP.part.buried>
-0.7162

> <Gold.PLP.part.nonpolar>
-35.1579

> <Gold.PLP.part.repulsive>
0.1673

> <Gold.PLP.ligand.clash>
0.0000

> <Gold.PLP.ligand.torsion>
0.7315

> <Gold.PLP.Chemscore.Hbond>
3.7684

> <Gold.PLP.Chemscore.CHOScore>
0.0000

> <Gold.PLP.Chemscore.Metal>
0.0000

> <Gold.Chemscore.Hbonds>
donor molecule, donor type, donor heavy atom, donor atom, acceptor molecule, acceptor atom, score
      L1  H     5    25       P1  7948  1.00
      L1  H     8    26       P1  7948  0.74
      L1  H    13    46       P1 10747  1.00
      P1  H  7989  7998       L1    20  0.90

> <Gold.PLP.Chemscore.Internal.Correction>
0.0389

> <Gold.Rescore>
     Score         DG    S(hbond)    S(metal)    S(lipo)     H(rot)  DE(clash)    DE(int)     intcor
     18.26     -19.46       2.48        0.00      80.17       1.44       0.28       0.92       ----

> <Gold.Chemscore.Fitness>
18.2642

> <Gold.Chemscore.DG>
-19.4611

> <Gold.Chemscore.ZeroCoef>
-5.4800

> <Gold.Chemscore.Hbond>
2.4789

> <Gold.Chemscore.Metal>
0.0000

> <Gold.Chemscore.Lipo>
80.1719

> <Gold.Chemscore.Internal_Hbond>
0.0000

> <Gold.Chemscore.DEClash>
0.2786

> <Gold.Chemscore.DEInternal>
0.9183

> <Gold.Chemscore.Rot>
1.4369

> <Gold.Chemscore.Internal.Correction>
   9.000000E+99

> <Gold.Chemscore.Hbonds>
donor molecule, donor type, donor heavy atom, donor atom, acceptor molecule, acceptor atom, score
      L1  H     5    25       P1  7948  0.99
      L1  H     8    26       P1  7948  0.21
      L1  H    13    46       P1 10747  1.00
      P1  H  7989  7998       L1    20  0.05

> <Gold.Chemscore.Hbond.Weighted>
-8.2794

> <Gold.Chemscore.Metal.Weighted>
-0.0000

> <Gold.Chemscore.Lipo.Weighted>
-9.3801

> <Gold.Chemscore.Internal_Hbond.Weighted>
0.0000

> <Gold.Chemscore.DEClash.Weighted>
0.2786

> <Gold.Chemscore.DEInternal.Weighted>
0.9183

> <Gold.Chemscore.Rot.Weighted>
3.6785

> <Gold.Chemscore.Internal.Correction.Weighted>
   9.000000E+99

> <Gold.Protein.RotatedTorsions>
[ 6907 6896 6895 6894 ] final   36.73 input  -60.11 | X-H torsion
[ 7974 7965 7964 7962 ] final   24.36 input  175.53 | X-H torsion
[ 8008 7997 7996 7995 ] final  -69.04 input   59.86 | X-H torsion
[ 10167 10162 10161 10158 ] final   98.95 input  -65.29 | X-H torsion
[ 10718 10713 10712 10709 ] final  137.17 input   66.30 | X-H torsion
[ 10763 10752 10751 10750 ] final -153.27 input  -60.55 | X-H torsion
[ 11005 11000 10999 10996 ] final  -81.87 input  -57.11 | X-H torsion

> <Gold.Protein.ActiveResidues>
 VAL166  LYS551  ARG553  GLY616  TRP617  ASP618  TYR619  PRO620  LYS621  CYS622 
 ASP623  PHE694  ASN695  SER759  ASP760  ASP761  ALA762  ILE779  LEU786  VAL792 
 PHE793  MET794  SER795  GLU796  ALA797  LYS798  CYS799  TRP800  GLU811  SER814 

> <Gold.Protein.RotatedAtoms>
  152.1336  134.9116  160.0557 H   0  0  0  0  0  0  0  0  0  0  0  0  # atno 6907 bound_to 6896
  152.0211  133.3894  159.4267 H   0  0  0  0  0  0  0  0  0  0  0  0  # atno 6908 bound_to 6896
  150.6858  134.3546  159.4968 H   0  0  0  0  0  0  0  0  0  0  0  0  # atno 6909 bound_to 6896
  146.1941  139.7616  142.8810 H   0  0  0  0  0  0  0  0  0  0  0  0  # atno 7974 bound_to 7965
  154.4910  140.0861  156.7594 H   0  0  0  0  0  0  0  0  0  0  0  0  # atno 8008 bound_to 7997
  155.4231  140.3446  155.4255 H   0  0  0  0  0  0  0  0  0  0  0  0  # atno 8009 bound_to 7997
  156.1330  140.1507  156.9025 H   0  0  0  0  0  0  0  0  0  0  0  0  # atno 8010 bound_to 7997
  139.7662  144.6938  151.0221 H   0  0  0  0  0  0  0  0  0  0  0  0  # atno 10167 bound_to 10162
  157.4389  131.1056  151.0166 H   0  0  0  0  0  0  0  0  0  0  0  0  # atno 10718 bound_to 10713
  154.7939  135.3217  154.7712 H   0  0  0  0  0  0  0  0  0  0  0  0  # atno 10763 bound_to 10752
  153.8395  135.6872  153.4809 H   0  0  0  0  0  0  0  0  0  0  0  0  # atno 10764 bound_to 10752
  153.1621  135.4656  154.9728 H   0  0  0  0  0  0  0  0  0  0  0  0  # atno 10765 bound_to 10752
  141.1665  133.7217  156.8487 H   0  0  0  0  0  0  0  0  0  0  0  0  # atno 11005 bound_to 11000
  145.3699  141.0341  143.3237 LP  0  0  0  0  0  0  0  0  0  0  0  0  # atno 17320 bound_to 7965
  144.8545  139.5270  143.6841 LP  0  0  0  0  0  0  0  0  0  0  0  0  # atno 17321 bound_to 7965
  140.7811  143.4640  151.0238 LP  0  0  0  0  0  0  0  0  0  0  0  0  # atno 17342 bound_to 10162
  139.8325  143.7672  152.3180 LP  0  0  0  0  0  0  0  0  0  0  0  0  # atno 17343 bound_to 10162
  157.1036  130.5992  149.5466 LP  0  0  0  0  0  0  0  0  0  0  0  0  # atno 17370 bound_to 10713
  155.9941  130.5004  150.7407 LP  0  0  0  0  0  0  0  0  0  0  0  0  # atno 17371 bound_to 10713
  140.1931  134.8951  157.3084 LP  0  0  0  0  0  0  0  0  0  0  0  0  # atno 17394 bound_to 11000
  140.2268  134.3957  155.7540 LP  0  0  0  0  0  0  0  0  0  0  0  0  # atno 17395 bound_to 11000

$$$$
