AV-unprocessed.smi:1381|AV-procd|sdf|5609|dock1
  -GOLD-   22720 5213D 1   1.00000     0.00000
 Structure written by MMmdl.
 41 42  0  0  0  0  0  0  0  0  2 V2000
  144.5364  134.4124  162.6671 C   0  0  0  0  0  0  0  0  0  0  0  0
  145.7207  135.0786  162.0553 C   0  0  0  0  0  0  0  0  0  0  0  0
  145.8614  136.2047  161.2950 C   0  0  0  0  0  0  0  0  0  0  0  0
  147.2628  136.2673  161.0632 C   0  0  0  0  0  0  0  0  0  0  0  0
  147.9041  137.2026  160.3456 N   0  5  0  0  0  0  0  0  0  0  0  0
  148.8945  136.8488  159.4939 C   0  0  0  0  0  0  0  0  0  0  0  0
  149.2219  135.6998  159.1887 O   0  0  0  0  0  0  0  0  0  0  0  0
  149.5473  137.8914  158.9629 N   0  0  0  0  0  0  0  0  0  0  0  0
  150.6489  137.8018  158.0140 C   0  0  0  0  0  0  0  0  0  0  0  0
  150.8602  139.1565  157.3196 C   0  0  0  0  0  0  0  0  0  0  0  0
  151.0834  140.2861  158.2207 N   0  0  0  0  0  0  0  0  0  0  0  0
  151.1802  141.5588  157.5102 C   0  0  0  0  0  0  0  0  0  0  0  0
  151.4430  142.7370  158.4683 C   0  0  2  0  0  0  0  0  0  0  0  0
  151.6375  144.0600  157.7197 C   0  0  0  0  0  0  0  0  0  0  0  0
  152.6220  142.4738  159.2244 O   0  0  0  0  0  0  0  0  0  0  0  0
  152.5515  141.2642  159.9738 C   0  0  2  0  0  0  0  0  0  0  0  0
  153.8625  141.1004  160.7502 C   0  0  0  0  0  0  0  0  0  0  0  0
  152.2954  140.0918  159.0081 C   0  0  0  0  0  0  0  0  0  0  0  0
  147.9121  135.2574  161.6175 N   0  0  0  0  0  0  0  0  0  0  0  0
  146.9314  134.4945  162.2626 O   0  0  0  0  0  0  0  0  0  0  0  0
  143.6908  134.4208  161.9793 H   0  0  0  0  0  0  0  0  0  0  0  0
  144.2357  134.9266  163.5798 H   0  0  0  0  0  0  0  0  0  0  0  0
  144.7559  133.3747  162.9192 H   0  0  0  0  0  0  0  0  0  0  0  0
  145.0879  136.8803  160.9624 H   0  0  0  0  0  0  0  0  0  0  0  0
  149.2522  138.8164  159.2391 H   0  0  0  0  0  0  0  0  0  0  0  0
  151.5432  137.4903  158.5538 H   0  0  0  0  0  0  0  0  0  0  0  0
  150.4324  137.0342  157.2691 H   0  0  0  0  0  0  0  0  0  0  0  0
  151.7264  139.0566  156.6636 H   0  0  0  0  0  0  0  0  0  0  0  0
  150.0126  139.3688  156.6660 H   0  0  0  0  0  0  0  0  0  0  0  0
  151.9798  141.5070  156.7694 H   0  0  0  0  0  0  0  0  0  0  0  0
  150.2592  141.7550  156.9622 H   0  0  0  0  0  0  0  0  0  0  0  0
  150.6006  142.8432  159.1538 H   0  0  0  0  0  0  0  0  0  0  0  0
  150.7540  144.3118  157.1328 H   0  0  0  0  0  0  0  0  0  0  0  0
  152.4880  144.0071  157.0396 H   0  0  0  0  0  0  0  0  0  0  0  0
  151.8184  144.8788  158.4162 H   0  0  0  0  0  0  0  0  0  0  0  0
  151.7288  141.3371  160.6874 H   0  0  0  0  0  0  0  0  0  0  0  0
  153.8490  140.1943  161.3564 H   0  0  0  0  0  0  0  0  0  0  0  0
  154.0269  141.9454  161.4191 H   0  0  0  0  0  0  0  0  0  0  0  0
  154.7163  141.0389  160.0749 H   0  0  0  0  0  0  0  0  0  0  0  0
  152.2178  139.1660  159.5794 H   0  0  0  0  0  0  0  0  0  0  0  0
  153.1523  139.9758  158.3425 H   0  0  0  0  0  0  0  0  0  0  0  0
  1  2  1  0  0  0  0
  1 21  1  0  0  0  0
  1 22  1  0  0  0  0
  1 23  1  0  0  0  0
  2 20  1  0  0  0  0
  2  3  2  0  0  0  0
  3  4  1  0  0  0  0
  3 24  1  0  0  0  0
  4  5  1  0  0  0  0
  4 19  2  0  0  0  0
  5  6  1  0  0  0  0
  6  7  2  0  0  0  0
  6  8  1  0  0  0  0
  8  9  1  0  0  0  0
  8 25  1  0  0  0  0
  9 10  1  0  0  0  0
  9 26  1  0  0  0  0
  9 27  1  0  0  0  0
 10 11  1  0  0  0  0
 10 28  1  0  0  0  0
 10 29  1  0  0  0  0
 11 18  1  0  0  0  0
 11 12  1  0  0  0  0
 12 13  1  0  0  0  0
 12 30  1  0  0  0  0
 12 31  1  0  0  0  0
 13 14  1  0  0  0  0
 13 15  1  0  0  0  0
 13 32  1  0  0  0  0
 14 33  1  0  0  0  0
 14 34  1  0  0  0  0
 14 35  1  0  0  0  0
 15 16  1  0  0  0  0
 16 17  1  0  0  0  0
 16 18  1  0  0  0  0
 16 36  1  0  0  0  0
 17 37  1  0  0  0  0
 17 38  1  0  0  0  0
 17 39  1  0  0  0  0
 18 40  1  0  0  0  0
 18 41  1  0  0  0  0
 19 20  1  0  0  0  0
M  CHG  1   5  -1
M  END
> <s_m_source_file>
AV-unprocessed.smi

> <i_m_source_file_index>
1381

> <i_lp_mmshare_version>
43012

> <i_f3d_flags>
0

> <s_epik_input>
W0NIM11jMVtjSF1jKG5vMSlbTkhdQyg9TylbTkhdW0NIMl1bQ0gyXU4yW0NIMl1bQ0BASF0oW0NIM10pT1tDQEBIXShbQ0gzXSlbQ0gyXTI=

> <s_epik_cmdline>
J2VwaWtfcHl0aG9uJywgJy1waCcsICc3LjAnLCAnLXRuJywgJzgnLCAnLW1hJywgJzIwMCcsICctbWV0YWxfYmluZGluZycsICctaW1hZScsICc8aW5maWxlLm1hZT4nLCAnLW9tYWUnLCAnPG91dGZpbGUubWFlPic=

> <r_epik_Ionization_Penalty>
6.88366

> <r_epik_Ionization_Penalty_Charging>
6.57198

> <r_epik_Ionization_Penalty_Neutral>
0.311678

> <r_epik_State_Penalty>
6.77619

> <r_epik_Charging_Adjusted_Penalty>
13.3482

> <i_epik_Tot_Q>
-1

> <i_epik_Tot_abs_Q>
1

> <r_epik_Metal_State_Penalty>
2.70524

> <b_epik_Metal_Only>
1

> <s_lp_Force_Field>
OPLS_2005

> <r_lp_Energy>
13.5181

> <b_lp_Chiralities_Consistent>
1

> <s_lp_Variant>
AV-unprocessed.smi:1381-8

> <Gold.Version>
5.8.1

> <Gold.Id.Protein>
6NUR|6NUR_protein|mol2

> <Gold.PLP.Fitness>
44.1758

> <Gold.PLP.PLP>
-32.8016

> <Gold.PLP.part.hbond>
-3.0000

> <Gold.PLP.part.metal>
0.0000

> <Gold.PLP.part.buried>
-5.7257

> <Gold.PLP.part.nonpolar>
-25.4670

> <Gold.PLP.part.repulsive>
0.2382

> <Gold.PLP.ligand.clash>
0.0000

> <Gold.PLP.ligand.torsion>
0.4646

> <Gold.PLP.Chemscore.Hbond>
4.0720

> <Gold.PLP.Chemscore.CHOScore>
0.0000

> <Gold.PLP.Chemscore.Metal>
0.0000

> <Gold.Chemscore.Hbonds>
donor molecule, donor type, donor heavy atom, donor atom, acceptor molecule, acceptor atom, score
      P1  H  6896  6908       L1     7  1.00
      P1  H  6931  6943       L1     5  0.87
      P1  H  6934  6947       L1     5  1.59

> <Gold.PLP.Chemscore.Internal.Correction>
0.0875

> <Gold.Rescore>
     Score         DG    S(hbond)    S(metal)    S(lipo)     H(rot)  DE(clash)    DE(int)     intcor
     14.67     -16.71       1.74        0.00      80.03       1.54       0.20       1.85       ----

> <Gold.Chemscore.Fitness>
14.6666

> <Gold.Chemscore.DG>
-16.7133

> <Gold.Chemscore.ZeroCoef>
-5.4800

> <Gold.Chemscore.Hbond>
1.7408

> <Gold.Chemscore.Metal>
0.0000

> <Gold.Chemscore.Lipo>
80.0313

> <Gold.Chemscore.Internal_Hbond>
0.0000

> <Gold.Chemscore.DEClash>
0.1963

> <Gold.Chemscore.DEInternal>
1.8504

> <Gold.Chemscore.Rot>
1.5409

> <Gold.Chemscore.Internal.Correction>
   9.000000E+99

> <Gold.Chemscore.Hbonds>
donor molecule, donor type, donor heavy atom, donor atom, acceptor molecule, acceptor atom, score
      P1  H  6896  6908       L1     7  1.00
      P1  H  6931  6943       L1     5  0.05
      P1  H  6934  6947       L1     5  0.48

> <Gold.Chemscore.Hbond.Weighted>
-5.8142

> <Gold.Chemscore.Metal.Weighted>
-0.0000

> <Gold.Chemscore.Lipo.Weighted>
-9.3637

> <Gold.Chemscore.Internal_Hbond.Weighted>
0.0000

> <Gold.Chemscore.DEClash.Weighted>
0.1963

> <Gold.Chemscore.DEInternal.Weighted>
1.8504

> <Gold.Chemscore.Rot.Weighted>
3.9446

> <Gold.Chemscore.Internal.Correction.Weighted>
   9.000000E+99

> <Gold.Protein.RotatedTorsions>
[ 6907 6896 6895 6894 ] final  173.38 input  -60.11 | X-H torsion
[ 7974 7965 7964 7962 ] final  -54.03 input  175.53 | X-H torsion
[ 8008 7997 7996 7995 ] final  113.50 input   59.86 | X-H torsion
[ 10167 10162 10161 10158 ] final -163.29 input  -65.29 | X-H torsion
[ 10718 10713 10712 10709 ] final -115.32 input   66.30 | X-H torsion
[ 10763 10752 10751 10750 ] final  102.53 input  -60.55 | X-H torsion
[ 11005 11000 10999 10996 ] final  -24.01 input  -57.11 | X-H torsion

> <Gold.Protein.ActiveResidues>
 VAL166  LYS551  ARG553  GLY616  TRP617  ASP618  TYR619  PRO620  LYS621  CYS622 
 ASP623  PHE694  ASN695  SER759  ASP760  ASP761  ALA762  ILE779  LEU786  VAL792 
 PHE793  MET794  SER795  GLU796  ALA797  LYS798  CYS799  TRP800  GLU811  SER814 

> <Gold.Protein.RotatedAtoms>
  151.7693  133.3340  159.3439 H   0  0  0  0  0  0  0  0  0  0  0  0  # atno 6907 bound_to 6896
  150.7468  134.6033  159.6057 H   0  0  0  0  0  0  0  0  0  0  0  0  # atno 6908 bound_to 6896
  152.3352  134.7209  160.0330 H   0  0  0  0  0  0  0  0  0  0  0  0  # atno 6909 bound_to 6896
  145.8901  140.8077  142.9796 H   0  0  0  0  0  0  0  0  0  0  0  0  # atno 7974 bound_to 7965
  156.2262  140.2978  156.0073 H   0  0  0  0  0  0  0  0  0  0  0  0  # atno 8008 bound_to 7997
  155.2349  140.0420  157.2984 H   0  0  0  0  0  0  0  0  0  0  0  0  # atno 8009 bound_to 7997
  154.5920  140.2404  155.7916 H   0  0  0  0  0  0  0  0  0  0  0  0  # atno 8010 bound_to 7997
  139.6331  144.0401  152.2032 H   0  0  0  0  0  0  0  0  0  0  0  0  # atno 10167 bound_to 10162
  156.0888  130.6074  150.8890 H   0  0  0  0  0  0  0  0  0  0  0  0  # atno 10718 bound_to 10713
  153.3408  135.4007  155.1570 H   0  0  0  0  0  0  0  0  0  0  0  0  # atno 10763 bound_to 10752
  154.8643  135.3633  154.5348 H   0  0  0  0  0  0  0  0  0  0  0  0  # atno 10764 bound_to 10752
  153.5793  135.7077  153.5530 H   0  0  0  0  0  0  0  0  0  0  0  0  # atno 10765 bound_to 10752
  140.8805  133.7657  156.0296 H   0  0  0  0  0  0  0  0  0  0  0  0  # atno 11005 bound_to 11000
  144.6730  140.1516  143.7429 LP  0  0  0  0  0  0  0  0  0  0  0  0  # atno 17320 bound_to 7965
  145.8919  139.2380  143.1545 LP  0  0  0  0  0  0  0  0  0  0  0  0  # atno 17321 bound_to 7965
  140.0071  144.6251  150.7679 LP  0  0  0  0  0  0  0  0  0  0  0  0  # atno 17342 bound_to 10162
  140.7450  143.2869  151.3437 LP  0  0  0  0  0  0  0  0  0  0  0  0  # atno 17343 bound_to 10162
  157.6030  131.0940  150.8927 LP  0  0  0  0  0  0  0  0  0  0  0  0  # atno 17370 bound_to 10713
  156.9081  130.5270  149.5281 LP  0  0  0  0  0  0  0  0  0  0  0  0  # atno 17371 bound_to 10713
  140.8466  134.3003  157.5292 LP  0  0  0  0  0  0  0  0  0  0  0  0  # atno 17394 bound_to 11000
  139.8719  134.9445  156.3884 LP  0  0  0  0  0  0  0  0  0  0  0  0  # atno 17395 bound_to 11000

$$$$
