AV-unprocessed.smi:2954|AV-procd|sdf|11299|dock8
  -GOLD-   2272016193D 1   1.00000     0.00000
 Structure written by MMmdl.
 43 45  0  0  0  0  0  0  0  0  2 V2000
  149.5917  132.8228  154.9187 C   0  0  0  0  0  0  0  0  0  0  0  0
  148.7814  134.1110  154.7201 C   0  0  2  0  0  0  0  0  0  0  0  0
  148.2973  134.1819  153.3466 N   0  0  0  0  0  0  0  0  0  0  0  0
  147.5669  133.2266  152.7585 C   0  0  0  0  0  0  0  0  0  0  0  0
  147.2371  132.1889  153.3264 O   0  0  0  0  0  0  0  0  0  0  0  0
  149.6037  135.3111  155.0901 C   0  0  0  0  0  0  0  0  0  0  0  0
  150.0446  136.2713  154.2272 N   0  3  0  0  0  0  0  0  0  0  0  0
  150.8082  137.2139  154.9146 C   0  0  0  0  0  0  0  0  0  0  0  0
  151.4667  138.3543  154.4652 C   0  0  0  0  0  0  0  0  0  0  0  0
  152.1760  139.0975  155.4311 C   0  0  0  0  0  0  0  0  0  0  0  0
  152.2100  138.6998  156.7831 C   0  0  0  0  0  0  0  0  0  0  0  0
  151.5344  137.5443  157.2271 C   0  0  0  0  0  0  0  0  0  0  0  0
  150.8348  136.8136  156.2659 C   0  0  0  0  0  0  0  0  0  0  0  0
  150.0756  135.6376  156.3290 N   0  0  0  0  0  0  0  0  0  0  0  0
  149.9276  134.9435  157.6188 C   0  0  0  0  0  0  0  0  0  0  0  0
  148.4614  134.8826  158.0699 C   0  0  0  0  0  0  0  0  0  0  0  0
  148.3822  134.1378  159.2776 O   0  0  0  0  0  0  0  0  0  0  0  0
  147.7926  134.7215  160.3776 C   0  0  0  0  0  0  0  0  0  0  0  0
  147.5701  136.1158  160.5071 C   0  0  0  0  0  0  0  0  0  0  0  0
  146.9608  136.6362  161.6651 C   0  0  0  0  0  0  0  0  0  0  0  0
  146.5690  135.7744  162.7057 C   0  0  0  0  0  0  0  0  0  0  0  0
  146.7873  134.3897  162.5873 C   0  0  0  0  0  0  0  0  0  0  0  0
  147.3959  133.8662  161.4298 C   0  0  0  0  0  0  0  0  0  0  0  0
  147.6456  132.1612  161.3038 Cl  0  0  0  0  0  0  0  0  0  0  0  0
  149.9268  132.7261  155.9519 H   0  0  0  0  0  0  0  0  0  0  0  0
  150.4758  132.8037  154.2803 H   0  0  0  0  0  0  0  0  0  0  0  0
  148.9929  131.9421  154.6844 H   0  0  0  0  0  0  0  0  0  0  0  0
  147.9128  134.0604  155.3776 H   0  0  0  0  0  0  0  0  0  0  0  0
  148.5376  135.0022  152.8088 H   0  0  0  0  0  0  0  0  0  0  0  0
  147.3101  133.4865  151.7194 H   0  0  0  0  0  0  0  0  0  0  0  0
  151.4459  138.6585  153.4290 H   0  0  0  0  0  0  0  0  0  0  0  0
  152.7074  139.9883  155.1282 H   0  0  0  0  0  0  0  0  0  0  0  0
  152.7688  139.2905  157.4947 H   0  0  0  0  0  0  0  0  0  0  0  0
  151.5779  137.2467  158.2641 H   0  0  0  0  0  0  0  0  0  0  0  0
  150.3515  133.9427  157.5411 H   0  0  0  0  0  0  0  0  0  0  0  0
  150.5325  135.4669  158.3593 H   0  0  0  0  0  0  0  0  0  0  0  0
  148.0765  135.8922  158.2195 H   0  0  0  0  0  0  0  0  0  0  0  0
  147.8648  134.4052  157.2910 H   0  0  0  0  0  0  0  0  0  0  0  0
  147.8616  136.8083  159.7323 H   0  0  0  0  0  0  0  0  0  0  0  0
  146.7947  137.6997  161.7555 H   0  0  0  0  0  0  0  0  0  0  0  0
  146.1021  136.1747  163.5935 H   0  0  0  0  0  0  0  0  0  0  0  0
  146.4854  133.7281  163.3860 H   0  0  0  0  0  0  0  0  0  0  0  0
  149.8402  136.2737  153.2362 H   0  0  0  0  0  0  0  0  0  0  0  0
  1  2  1  0  0  0  0
  1 25  1  0  0  0  0
  1 26  1  0  0  0  0
  1 27  1  0  0  0  0
  2  3  1  0  0  0  0
  2  6  1  0  0  0  0
  2 28  1  0  0  0  0
  3  4  1  0  0  0  0
  3 29  1  0  0  0  0
  4  5  2  0  0  0  0
  4 30  1  0  0  0  0
  6 14  1  0  0  0  0
  6  7  2  0  0  0  0
  7  8  1  0  0  0  0
  7 43  1  0  0  0  0
  8 13  2  0  0  0  0
  8  9  1  0  0  0  0
  9 10  2  0  0  0  0
  9 31  1  0  0  0  0
 10 11  1  0  0  0  0
 10 32  1  0  0  0  0
 11 12  2  0  0  0  0
 11 33  1  0  0  0  0
 12 13  1  0  0  0  0
 12 34  1  0  0  0  0
 13 14  1  0  0  0  0
 14 15  1  0  0  0  0
 15 16  1  0  0  0  0
 15 35  1  0  0  0  0
 15 36  1  0  0  0  0
 16 17  1  0  0  0  0
 16 37  1  0  0  0  0
 16 38  1  0  0  0  0
 17 18  1  0  0  0  0
 18 23  1  0  0  0  0
 18 19  2  0  0  0  0
 19 20  1  0  0  0  0
 19 39  1  0  0  0  0
 20 21  2  0  0  0  0
 20 40  1  0  0  0  0
 21 22  1  0  0  0  0
 21 41  1  0  0  0  0
 22 23  2  0  0  0  0
 22 42  1  0  0  0  0
 23 24  1  0  0  0  0
M  CHG  1   7   1
M  END
> <s_m_source_file>
AV-unprocessed.smi

> <i_m_source_file_index>
2954

> <i_lp_mmshare_version>
43012

> <i_f3d_flags>
0

> <s_epik_input>
Tz1bQ0hdW05IXVtDQEBIXShbQ0gzXSljKG4xKW4oYyhjMTIpW2NIXVtjSF1bY0hdW2NIXTIpW0NIMl1bQ0gyXU9jM1tjSF1bY0hdW2NIXVtjSF1jM0Ns

> <s_epik_cmdline>
J2VwaWtfcHl0aG9uJywgJy1waCcsICc3LjAnLCAnLXRuJywgJzgnLCAnLW1hJywgJzIwMCcsICctbWV0YWxfYmluZGluZycsICctaW1hZScsICc8aW5maWxlLm1hZT4nLCAnLW9tYWUnLCAnPG91dGZpbGUubWFlPic=

> <r_lp_tautomer_probability>
1

> <r_epik_Ionization_Penalty>
1.18508

> <r_epik_Ionization_Penalty_Charging>
1.18508

> <r_epik_Ionization_Penalty_Neutral>
5.5802e-08

> <r_epik_State_Penalty>
1.24934

> <r_epik_Charging_Adjusted_Penalty>
2.43443

> <i_epik_Tot_Q>
1

> <i_epik_Tot_abs_Q>
1

> <r_epik_Metal_State_Penalty>
1.32564

> <b_epik_Metal_Only>
0

> <s_lp_Force_Field>
OPLS_2005

> <r_lp_Energy>
16.9753

> <b_lp_Chiralities_Consistent>
1

> <s_lp_Variant>
AV-unprocessed.smi:2954-3

> <Gold.Version>
5.8.1

> <Gold.Id.Protein>
6NUR|6NUR_protein|mol2

> <Gold.PLP.Fitness>
48.8255

> <Gold.PLP.PLP>
-39.8049

> <Gold.PLP.part.hbond>
-3.9403

> <Gold.PLP.part.metal>
0.0000

> <Gold.PLP.part.buried>
-0.9465

> <Gold.PLP.part.nonpolar>
-36.7049

> <Gold.PLP.part.repulsive>
0.1510

> <Gold.PLP.ligand.clash>
0.0000

> <Gold.PLP.ligand.torsion>
0.7350

> <Gold.PLP.Chemscore.Hbond>
3.4741

> <Gold.PLP.Chemscore.CHOScore>
0.0000

> <Gold.PLP.Chemscore.Metal>
0.0000

> <Gold.Chemscore.Hbonds>
donor molecule, donor type, donor heavy atom, donor atom, acceptor molecule, acceptor atom, score
      L1  H     3    29       P1  7948  1.00
      L1  H     7    43       P1  7948  1.40
      P1  H  6896  6909       L1    17  0.21

> <Gold.PLP.Chemscore.Internal.Correction>
0.0685

> <Gold.Rescore>
     Score         DG    S(hbond)    S(metal)    S(lipo)     H(rot)  DE(clash)    DE(int)     intcor
     17.09     -18.50       1.97        0.00     106.33       2.35       0.52       0.89       ----

> <Gold.Chemscore.Fitness>
17.0867

> <Gold.Chemscore.DG>
-18.4981

> <Gold.Chemscore.ZeroCoef>
-5.4800

> <Gold.Chemscore.Hbond>
1.9715

> <Gold.Chemscore.Metal>
0.0000

> <Gold.Chemscore.Lipo>
106.3316

> <Gold.Chemscore.Internal_Hbond>
0.0000

> <Gold.Chemscore.DEClash>
0.5248

> <Gold.Chemscore.DEInternal>
0.8866

> <Gold.Chemscore.Rot>
2.3467

> <Gold.Chemscore.Internal.Correction>
   9.000000E+99

> <Gold.Chemscore.Hbonds>
donor molecule, donor type, donor heavy atom, donor atom, acceptor molecule, acceptor atom, score
      L1  H     3    29       P1  7948  0.48
      L1  H     7    43       P1  7948  0.07
      P1  H  6896  6909       L1    17  0.01

> <Gold.Chemscore.Hbond.Weighted>
-6.5850

> <Gold.Chemscore.Metal.Weighted>
-0.0000

> <Gold.Chemscore.Lipo.Weighted>
-12.4408

> <Gold.Chemscore.Internal_Hbond.Weighted>
0.0000

> <Gold.Chemscore.DEClash.Weighted>
0.5248

> <Gold.Chemscore.DEInternal.Weighted>
0.8866

> <Gold.Chemscore.Rot.Weighted>
6.0077

> <Gold.Chemscore.Internal.Correction.Weighted>
   9.000000E+99

> <Gold.Protein.RotatedTorsions>
[ 6907 6896 6895 6894 ] final   27.48 input  -60.11 | X-H torsion
[ 7974 7965 7964 7962 ] final -155.69 input  175.53 | X-H torsion
[ 8008 7997 7996 7995 ] final  158.20 input   59.86 | X-H torsion
[ 10167 10162 10161 10158 ] final   15.94 input  -65.29 | X-H torsion
[ 10718 10713 10712 10709 ] final  141.76 input   66.30 | X-H torsion
[ 10763 10752 10751 10750 ] final  122.17 input  -60.55 | X-H torsion
[ 11005 11000 10999 10996 ] final   75.31 input  -57.11 | X-H torsion

> <Gold.Protein.ActiveResidues>
 VAL166  LYS551  ARG553  GLY616  TRP617  ASP618  TYR619  PRO620  LYS621  CYS622 
 ASP623  PHE694  ASN695  SER759  ASP760  ASP761  ALA762  ILE779  LEU786  VAL792 
 PHE793  MET794  SER795  GLU796  ALA797  LYS798  CYS799  TRP800  GLU811  SER814 

> <Gold.Protein.RotatedAtoms>
  152.0028  134.9919  160.0565 H   0  0  0  0  0  0  0  0  0  0  0  0  # atno 6907 bound_to 6896
  152.1502  133.4513  159.4818 H   0  0  0  0  0  0  0  0  0  0  0  0  # atno 6908 bound_to 6896
  150.6875  134.2116  159.4404 H   0  0  0  0  0  0  0  0  0  0  0  0  # atno 6909 bound_to 6896
  144.7628  140.4215  143.5964 H   0  0  0  0  0  0  0  0  0  0  0  0  # atno 7974 bound_to 7965
  156.2317  140.1864  156.7224 H   0  0  0  0  0  0  0  0  0  0  0  0  # atno 8008 bound_to 7997
  154.6034  140.0632  156.9427 H   0  0  0  0  0  0  0  0  0  0  0  0  # atno 8009 bound_to 7997
  155.2135  140.3302  155.4328 H   0  0  0  0  0  0  0  0  0  0  0  0  # atno 8010 bound_to 7997
  140.5832  143.8940  150.6808 H   0  0  0  0  0  0  0  0  0  0  0  0  # atno 10167 bound_to 10162
  157.3883  131.1001  151.0672 H   0  0  0  0  0  0  0  0  0  0  0  0  # atno 10718 bound_to 10713
  153.6255  135.3405  155.3025 H   0  0  0  0  0  0  0  0  0  0  0  0  # atno 10763 bound_to 10752
  154.8591  135.4283  154.2161 H   0  0  0  0  0  0  0  0  0  0  0  0  # atno 10764 bound_to 10752
  153.3044  135.7027  153.7246 H   0  0  0  0  0  0  0  0  0  0  0  0  # atno 10765 bound_to 10752
  139.9350  134.7507  156.1255 H   0  0  0  0  0  0  0  0  0  0  0  0  # atno 11005 bound_to 11000
  145.6564  139.1574  143.2833 LP  0  0  0  0  0  0  0  0  0  0  0  0  # atno 17320 bound_to 7965
  146.1708  140.6648  142.9234 LP  0  0  0  0  0  0  0  0  0  0  0  0  # atno 17321 bound_to 7965
  140.2444  143.3639  152.1459 LP  0  0  0  0  0  0  0  0  0  0  0  0  # atno 17342 bound_to 10162
  139.5182  144.7003  151.5513 LP  0  0  0  0  0  0  0  0  0  0  0  0  # atno 17343 bound_to 10162
  157.1715  130.6269  149.5642 LP  0  0  0  0  0  0  0  0  0  0  0  0  # atno 17370 bound_to 10713
  155.9792  130.4783  150.6700 LP  0  0  0  0  0  0  0  0  0  0  0  0  # atno 17371 bound_to 10713
  141.0958  133.6696  156.2643 LP  0  0  0  0  0  0  0  0  0  0  0  0  # atno 17394 bound_to 11000
  140.6101  134.5467  157.5532 LP  0  0  0  0  0  0  0  0  0  0  0  0  # atno 17395 bound_to 11000

$$$$
