AV-unprocessed.smi:3278|AV-procd|sdf|12546|dock7
  -GOLD-   2272018463D 1   1.00000     0.00000
 Structure written by MMmdl.
 38 39  0  0  0  0  0  0  0  0  1 V2000
  146.6868  139.1558  152.3163 C   0  0  0  0  0  0  0  0  0  0  0  0
  147.5986  139.8356  153.2112 N   0  0  0  0  0  0  0  0  0  0  0  0
  148.6943  139.3260  153.8734 C   0  0  0  0  0  0  0  0  0  0  0  0
  149.2482  140.3427  154.6019 C   0  0  0  0  0  0  0  0  0  0  0  0
  150.4657  140.3237  155.5022 C   0  0  1  0  0  0  0  0  0  0  0  0
  150.1855  139.4432  156.7318 C   0  0  0  0  0  0  0  0  0  0  0  0
  151.5920  139.7444  154.8692 O   0  0  0  0  0  0  0  0  0  0  0  0
  150.8726  141.7448  155.9520 C   0  0  0  0  0  0  0  0  0  0  0  0
  150.0056  142.2553  157.0183 N   0  0  0  0  0  0  0  0  0  0  0  0
  150.6796  142.6660  158.2534 C   0  0  1  0  0  0  0  0  0  0  0  0
  151.6148  141.5604  158.7975 C   0  0  0  0  0  0  0  0  0  0  0  0
  152.3032  141.9531  160.1153 C   0  0  0  0  0  0  0  0  0  0  0  0
  153.1818  143.2023  159.9746 C   0  0  0  0  0  0  0  0  0  0  0  0
  152.1908  144.6415  159.4985 S   0  0  0  0  0  0  0  0  0  0  0  0
  151.4595  143.9660  157.9832 C   0  0  0  0  0  0  0  0  0  0  0  0
  148.3980  141.4493  154.3093 C   0  0  0  0  0  0  0  0  0  0  0  0
  147.4148  141.1440  153.4787 N   0  0  0  0  0  0  0  0  0  0  0  0
  146.8993  138.0865  152.3078 H   0  0  0  0  0  0  0  0  0  0  0  0
  146.8014  139.5491  151.3058 H   0  0  0  0  0  0  0  0  0  0  0  0
  145.6591  139.3094  152.6468 H   0  0  0  0  0  0  0  0  0  0  0  0
  148.9890  138.2918  153.7724 H   0  0  0  0  0  0  0  0  0  0  0  0
  149.3467  139.8285  157.3125 H   0  0  0  0  0  0  0  0  0  0  0  0
  151.0487  139.3981  157.3968 H   0  0  0  0  0  0  0  0  0  0  0  0
  149.9398  138.4213  156.4402 H   0  0  0  0  0  0  0  0  0  0  0  0
  151.6730  138.8497  155.1621 H   0  0  0  0  0  0  0  0  0  0  0  0
  151.9025  141.7257  156.3108 H   0  0  0  0  0  0  0  0  0  0  0  0
  150.8608  142.4083  155.0878 H   0  0  0  0  0  0  0  0  0  0  0  0
  149.4418  143.0195  156.6597 H   0  0  0  0  0  0  0  0  0  0  0  0
  149.9218  142.8807  159.0080 H   0  0  0  0  0  0  0  0  0  0  0  0
  151.0559  140.6443  158.9829 H   0  0  0  0  0  0  0  0  0  0  0  0
  152.3699  141.3120  158.0503 H   0  0  0  0  0  0  0  0  0  0  0  0
  151.5519  142.1171  160.8885 H   0  0  0  0  0  0  0  0  0  0  0  0
  152.9175  141.1210  160.4598 H   0  0  0  0  0  0  0  0  0  0  0  0
  153.6839  143.4200  160.9174 H   0  0  0  0  0  0  0  0  0  0  0  0
  153.9587  143.0401  159.2270 H   0  0  0  0  0  0  0  0  0  0  0  0
  152.2529  143.7952  157.2542 H   0  0  0  0  0  0  0  0  0  0  0  0
  150.7985  144.7240  157.5617 H   0  0  0  0  0  0  0  0  0  0  0  0
  148.4693  142.4630  154.6752 H   0  0  0  0  0  0  0  0  0  0  0  0
  1  2  1  0  0  0  0
  1 18  1  0  0  0  0
  1 19  1  0  0  0  0
  1 20  1  0  0  0  0
  2 17  1  0  0  0  0
  2  3  1  0  0  0  0
  3  4  2  0  0  0  0
  3 21  1  0  0  0  0
  4  5  1  0  0  0  0
  4 16  1  0  0  0  0
  5  6  1  0  0  0  0
  5  7  1  0  0  0  0
  5  8  1  0  0  0  0
  6 22  1  0  0  0  0
  6 23  1  0  0  0  0
  6 24  1  0  0  0  0
  7 25  1  0  0  0  0
  8  9  1  0  0  0  0
  8 26  1  0  0  0  0
  8 27  1  0  0  0  0
  9 10  1  0  0  0  0
  9 28  1  0  0  0  0
 10 15  1  0  0  0  0
 10 11  1  0  0  0  0
 10 29  1  0  0  0  0
 11 12  1  0  0  0  0
 11 30  1  0  0  0  0
 11 31  1  0  0  0  0
 12 13  1  0  0  0  0
 12 32  1  0  0  0  0
 12 33  1  0  0  0  0
 13 14  1  0  0  0  0
 13 34  1  0  0  0  0
 13 35  1  0  0  0  0
 14 15  1  0  0  0  0
 15 36  1  0  0  0  0
 15 37  1  0  0  0  0
 16 17  2  0  0  0  0
 16 38  1  0  0  0  0
M  END
> <s_m_source_file>
AV-unprocessed.smi

> <i_m_source_file_index>
3278

> <i_lp_mmshare_version>
43012

> <i_f3d_flags>
0

> <s_epik_input>
W0NIM11uMVtjSF1jKFtjSF1uMSlbQ0BAXShbQ0gzXSkoW09IXSlbQ0gyXVtOSF1bQ0BASF0yW0NIMl1bQ0gyXVtDSDJdU1tDSDJdMg==

> <s_epik_cmdline>
J2VwaWtfcHl0aG9uJywgJy1waCcsICc3LjAnLCAnLXRuJywgJzgnLCAnLW1hJywgJzIwMCcsICctbWV0YWxfYmluZGluZycsICctaW1hZScsICc8aW5maWxlLm1hZT4nLCAnLW9tYWUnLCAnPG91dGZpbGUubWFlPic=

> <r_lp_tautomer_probability>
1

> <r_epik_Ionization_Penalty>
2.06123

> <r_epik_Ionization_Penalty_Charging>
0

> <r_epik_Ionization_Penalty_Neutral>
2.06123

> <r_epik_State_Penalty>
2.1944

> <r_epik_Charging_Adjusted_Penalty>
2.1944

> <i_epik_Tot_Q>
0

> <i_epik_Tot_abs_Q>
0

> <r_epik_Metal_State_Penalty>
2.19434

> <b_epik_Metal_Only>
0

> <s_lp_Force_Field>
OPLS_2005

> <r_lp_Energy>
12.2085

> <b_lp_Chiralities_Consistent>
1

> <s_lp_Variant>
AV-unprocessed.smi:3278-7

> <Gold.Version>
5.8.1

> <Gold.Id.Protein>
6NUR|6NUR_protein|mol2

> <Gold.PLP.Fitness>
46.4850

> <Gold.PLP.PLP>
-38.5558

> <Gold.PLP.part.hbond>
-2.0000

> <Gold.PLP.part.metal>
0.0000

> <Gold.PLP.part.buried>
-1.8200

> <Gold.PLP.part.nonpolar>
-35.3627

> <Gold.PLP.part.repulsive>
0.1707

> <Gold.PLP.ligand.clash>
0.0000

> <Gold.PLP.ligand.torsion>
0.8635

> <Gold.PLP.Chemscore.Hbond>
1.9000

> <Gold.PLP.Chemscore.CHOScore>
1.3078

> <Gold.PLP.Chemscore.Metal>
0.0000

> <Gold.Chemscore.Hbonds>
donor molecule, donor type, donor heavy atom, donor atom, acceptor molecule, acceptor atom, score
      L1  H     9    28       P1  8028  0.96
      P1  H  7989  7998       L1     7  0.85
      L1  C     3    21       P1  7948  0.36
      L1  C    16    38       P1  8028  1.00

> <Gold.PLP.Chemscore.Internal.Correction>
0.0328

> <Gold.Rescore>
     Score         DG    S(hbond)    S(metal)    S(lipo)     H(rot)  DE(clash)    DE(int)     intcor
     17.36     -18.34       1.53        0.00     108.54       1.93       0.23       0.75       ----

> <Gold.Chemscore.Fitness>
17.3621

> <Gold.Chemscore.DG>
-18.3387

> <Gold.Chemscore.ZeroCoef>
-5.4800

> <Gold.Chemscore.Hbond>
1.5294

> <Gold.Chemscore.Metal>
0.0000

> <Gold.Chemscore.Lipo>
108.5369

> <Gold.Chemscore.Internal_Hbond>
0.0000

> <Gold.Chemscore.DEClash>
0.2287

> <Gold.Chemscore.DEInternal>
0.7478

> <Gold.Chemscore.Rot>
1.9329

> <Gold.Chemscore.Internal.Correction>
   9.000000E+99

> <Gold.Chemscore.Hbonds>
donor molecule, donor type, donor heavy atom, donor atom, acceptor molecule, acceptor atom, score
      L1  H     9    28       P1  8028  0.91
      P1  H  7989  7998       L1     7  0.14

> <Gold.Chemscore.Hbond.Weighted>
-5.1081

> <Gold.Chemscore.Metal.Weighted>
-0.0000

> <Gold.Chemscore.Lipo.Weighted>
-12.6988

> <Gold.Chemscore.Internal_Hbond.Weighted>
0.0000

> <Gold.Chemscore.DEClash.Weighted>
0.2287

> <Gold.Chemscore.DEInternal.Weighted>
0.7478

> <Gold.Chemscore.Rot.Weighted>
4.9483

> <Gold.Chemscore.Internal.Correction.Weighted>
   9.000000E+99

> <Gold.Protein.RotatedTorsions>
[ 6907 6896 6895 6894 ] final -131.06 input  -60.11 | X-H torsion
[ 7974 7965 7964 7962 ] final  -62.49 input  175.53 | X-H torsion
[ 8008 7997 7996 7995 ] final  166.04 input   59.86 | X-H torsion
[ 10167 10162 10161 10158 ] final -117.32 input  -65.29 | X-H torsion
[ 10718 10713 10712 10709 ] final   77.20 input   66.30 | X-H torsion
[ 10763 10752 10751 10750 ] final  -61.79 input  -60.55 | X-H torsion
[ 11005 11000 10999 10996 ] final  -46.29 input  -57.11 | X-H torsion

> <Gold.Protein.ActiveResidues>
 VAL166  LYS551  ARG553  GLY616  TRP617  ASP618  TYR619  PRO620  LYS621  CYS622 
 ASP623  PHE694  ASN695  SER759  ASP760  ASP761  ALA762  ILE779  LEU786  VAL792 
 PHE793  MET794  SER795  GLU796  ALA797  LYS798  CYS799  TRP800  GLU811  SER814 

> <Gold.Protein.RotatedAtoms>
  150.9467  133.6595  159.2779 H   0  0  0  0  0  0  0  0  0  0  0  0  # atno 6907 bound_to 6896
  151.3965  135.0963  159.9552 H   0  0  0  0  0  0  0  0  0  0  0  0  # atno 6908 bound_to 6896
  152.5093  133.8970  159.7477 H   0  0  0  0  0  0  0  0  0  0  0  0  # atno 6909 bound_to 6896
  145.7907  140.8711  143.0282 H   0  0  0  0  0  0  0  0  0  0  0  0  # atno 7974 bound_to 7965
  156.1751  140.1654  156.8377 H   0  0  0  0  0  0  0  0  0  0  0  0  # atno 8008 bound_to 7997
  154.5298  140.0759  156.8358 H   0  0  0  0  0  0  0  0  0  0  0  0  # atno 8009 bound_to 7997
  155.3430  140.3385  155.4241 H   0  0  0  0  0  0  0  0  0  0  0  0  # atno 8010 bound_to 7997
  140.0697  143.4889  152.1987 H   0  0  0  0  0  0  0  0  0  0  0  0  # atno 10167 bound_to 10162
  157.6702  130.9810  150.1607 H   0  0  0  0  0  0  0  0  0  0  0  0  # atno 10718 bound_to 10713
  154.2900  135.6255  153.5381 H   0  0  0  0  0  0  0  0  0  0  0  0  # atno 10763 bound_to 10752
  152.9854  135.5653  154.5401 H   0  0  0  0  0  0  0  0  0  0  0  0  # atno 10764 bound_to 10752
  154.5009  135.2872  155.1397 H   0  0  0  0  0  0  0  0  0  0  0  0  # atno 10765 bound_to 10752
  141.0570  133.6722  156.3134 H   0  0  0  0  0  0  0  0  0  0  0  0  # atno 11005 bound_to 11000
  144.6782  140.0119  143.7484 LP  0  0  0  0  0  0  0  0  0  0  0  0  # atno 17320 bound_to 7965
  145.9980  139.3068  143.0945 LP  0  0  0  0  0  0  0  0  0  0  0  0  # atno 17321 bound_to 7965
  139.5843  144.7524  151.3559 LP  0  0  0  0  0  0  0  0  0  0  0  0  # atno 17342 bound_to 10162
  140.7132  143.7336  150.7605 LP  0  0  0  0  0  0  0  0  0  0  0  0  # atno 17343 bound_to 10162
  156.2384  130.3688  149.8365 LP  0  0  0  0  0  0  0  0  0  0  0  0  # atno 17370 bound_to 10713
  156.6172  130.8611  151.3467 LP  0  0  0  0  0  0  0  0  0  0  0  0  # atno 17371 bound_to 10713
  140.5945  134.5617  157.5506 LP  0  0  0  0  0  0  0  0  0  0  0  0  # atno 17394 bound_to 11000
  139.9398  134.7807  156.0707 LP  0  0  0  0  0  0  0  0  0  0  0  0  # atno 17395 bound_to 11000

$$$$
