AV-unprocessed.smi:2598|AV-procd|sdf|10178|dock4
  -GOLD-   2272014193D 1   1.00000     0.00000
 Structure written by MMmdl.
 27 28  0  0  0  0  0  0  0  0  1 V2000
  151.0799  141.1348  157.0740 O   0  0  0  0  0  0  0  0  0  0  0  0
  150.3643  142.1007  156.8154 C   0  0  0  0  0  0  0  0  0  0  0  0
  149.3992  142.0206  155.8759 N   0  0  0  0  0  0  0  0  0  0  0  0
  148.9981  140.9853  155.0878 C   0  0  0  0  0  0  0  0  0  0  0  0
  147.8745  140.9602  154.3055 C   0  0  0  0  0  0  0  0  0  0  0  0
  147.7122  139.7780  153.5658 N   0  0  0  0  0  0  0  0  0  0  0  0
  148.6647  138.9090  153.7340 N   0  0  0  0  0  0  0  0  0  0  0  0
  149.8226  139.4828  154.7978 S   0  0  0  0  0  0  0  0  0  0  0  0
  150.5036  143.2928  157.4196 N   0  0  0  0  0  0  0  0  0  0  0  0
  151.4771  143.6153  158.4584 C   0  0  0  0  0  0  0  0  0  0  0  0
  151.6301  142.4316  159.4359 C   0  0  0  0  0  0  0  0  0  0  0  0
  152.6883  142.6968  160.5166 C   0  0  0  0  0  0  0  0  0  0  0  0
  152.2331  144.1145  161.5521 S   0  0  0  0  0  0  0  0  0  0  0  0
  152.0523  145.3555  160.2421 C   0  0  0  0  0  0  0  0  0  0  0  0
  151.0380  144.9022  159.1821 C   0  0  0  0  0  0  0  0  0  0  0  0
  148.9357  142.8959  155.6787 H   0  0  0  0  0  0  0  0  0  0  0  0
  147.1290  141.7362  154.2125 H   0  0  0  0  0  0  0  0  0  0  0  0
  149.8804  144.0360  157.1393 H   0  0  0  0  0  0  0  0  0  0  0  0
  152.4412  143.8075  157.9832 H   0  0  0  0  0  0  0  0  0  0  0  0
  150.6714  142.2099  159.9072 H   0  0  0  0  0  0  0  0  0  0  0  0
  151.9127  141.5342  158.8843 H   0  0  0  0  0  0  0  0  0  0  0  0
  152.8024  141.8210  161.1554 H   0  0  0  0  0  0  0  0  0  0  0  0
  153.6594  142.8872  160.0588 H   0  0  0  0  0  0  0  0  0  0  0  0
  151.7312  146.2943  160.6936 H   0  0  0  0  0  0  0  0  0  0  0  0
  153.0258  145.5366  159.7855 H   0  0  0  0  0  0  0  0  0  0  0  0
  150.9103  145.7031  158.4528 H   0  0  0  0  0  0  0  0  0  0  0  0
  150.0625  144.7557  159.6481 H   0  0  0  0  0  0  0  0  0  0  0  0
  1  2  2  0  0  0  0
  2  3  1  0  0  0  0
  2  9  1  0  0  0  0
  3  4  1  0  0  0  0
  3 16  1  0  0  0  0
  4  8  1  0  0  0  0
  4  5  2  0  0  0  0
  5  6  1  0  0  0  0
  5 17  1  0  0  0  0
  6  7  2  0  0  0  0
  7  8  1  0  0  0  0
  9 10  1  0  0  0  0
  9 18  1  0  0  0  0
 10 15  1  0  0  0  0
 10 11  1  0  0  0  0
 10 19  1  0  0  0  0
 11 12  1  0  0  0  0
 11 20  1  0  0  0  0
 11 21  1  0  0  0  0
 12 13  1  0  0  0  0
 12 22  1  0  0  0  0
 12 23  1  0  0  0  0
 13 14  1  0  0  0  0
 14 15  1  0  0  0  0
 14 24  1  0  0  0  0
 14 25  1  0  0  0  0
 15 26  1  0  0  0  0
 15 27  1  0  0  0  0
M  END
> <s_m_source_file>
AV-unprocessed.smi

> <i_m_source_file_index>
2598

> <i_lp_mmshare_version>
43012

> <i_f3d_flags>
0

> <s_epik_input>
czFubltjSF1jMVtOSF1DKD1PKVtOSF1bQ0hdMltDSDJdW0NIMl1TW0NIMl1bQ0gyXTI=

> <s_epik_cmdline>
J2VwaWtfcHl0aG9uJywgJy1waCcsICc3LjAnLCAnLXRuJywgJzgnLCAnLW1hJywgJzIwMCcsICctbWV0YWxfYmluZGluZycsICctaW1hZScsICc8aW5maWxlLm1hZT4nLCAnLW9tYWUnLCAnPG91dGZpbGUubWFlPic=

> <r_lp_tautomer_probability>
1

> <r_epik_Ionization_Penalty>
2.3088e-05

> <r_epik_Ionization_Penalty_Charging>
0

> <r_epik_Ionization_Penalty_Neutral>
2.3088e-05

> <r_epik_State_Penalty>
-0

> <r_epik_Charging_Adjusted_Penalty>
0

> <i_epik_Tot_Q>
0

> <i_epik_Tot_abs_Q>
0

> <r_epik_Metal_State_Penalty>
-0

> <b_epik_Metal_Only>
0

> <s_lp_Force_Field>
OPLS_2005

> <r_lp_Energy>
8.93438

> <b_lp_Chiralities_Consistent>
1

> <s_lp_Variant>
AV-unprocessed.smi:2598-1

> <Gold.Version>
5.8.1

> <Gold.Id.Protein>
6NUR|6NUR_protein|mol2

> <Gold.PLP.Fitness>
37.1883

> <Gold.PLP.PLP>
-32.0887

> <Gold.PLP.part.hbond>
-2.0000

> <Gold.PLP.part.metal>
0.0000

> <Gold.PLP.part.buried>
-6.6171

> <Gold.PLP.part.nonpolar>
-26.8863

> <Gold.PLP.part.repulsive>
3.1150

> <Gold.PLP.ligand.clash>
0.0000

> <Gold.PLP.ligand.torsion>
0.2978

> <Gold.PLP.Chemscore.Hbond>
1.8960

> <Gold.PLP.Chemscore.CHOScore>
0.0000

> <Gold.PLP.Chemscore.Metal>
0.0000

> <Gold.Chemscore.Hbonds>
donor molecule, donor type, donor heavy atom, donor atom, acceptor molecule, acceptor atom, score
      L1  H     3    16       P1  8028  1.00
      L1  H     9    18       P1  8028  0.90

> <Gold.PLP.Chemscore.Internal.Correction>
0.0072

> <Gold.Rescore>
     Score         DG    S(hbond)    S(metal)    S(lipo)     H(rot)  DE(clash)    DE(int)     intcor
     17.42     -19.49       1.83        0.00      89.31       1.00       0.16       1.91       ----

> <Gold.Chemscore.Fitness>
17.4229

> <Gold.Chemscore.DG>
-19.4894

> <Gold.Chemscore.ZeroCoef>
-5.4800

> <Gold.Chemscore.Hbond>
1.8325

> <Gold.Chemscore.Metal>
0.0000

> <Gold.Chemscore.Lipo>
89.3069

> <Gold.Chemscore.Internal_Hbond>
0.0000

> <Gold.Chemscore.DEClash>
0.1554

> <Gold.Chemscore.DEInternal>
1.9111

> <Gold.Chemscore.Rot>
1.0000

> <Gold.Chemscore.Internal.Correction>
   9.000000E+99

> <Gold.Chemscore.Hbonds>
donor molecule, donor type, donor heavy atom, donor atom, acceptor molecule, acceptor atom, score
      L1  H     3    16       P1  8028  0.97
      L1  H     9    18       P1  8028  0.69

> <Gold.Chemscore.Hbond.Weighted>
-6.1205

> <Gold.Chemscore.Metal.Weighted>
-0.0000

> <Gold.Chemscore.Lipo.Weighted>
-10.4489

> <Gold.Chemscore.Internal_Hbond.Weighted>
0.0000

> <Gold.Chemscore.DEClash.Weighted>
0.1554

> <Gold.Chemscore.DEInternal.Weighted>
1.9111

> <Gold.Chemscore.Rot.Weighted>
2.5600

> <Gold.Chemscore.Internal.Correction.Weighted>
   9.000000E+99

> <Gold.Protein.RotatedTorsions>
[ 6907 6896 6895 6894 ] final  -17.36 input  -60.11 | X-H torsion
[ 7974 7965 7964 7962 ] final  -26.33 input  175.53 | X-H torsion
[ 8008 7997 7996 7995 ] final  -15.36 input   59.86 | X-H torsion
[ 10167 10162 10161 10158 ] final   39.32 input  -65.29 | X-H torsion
[ 10718 10713 10712 10709 ] final  165.50 input   66.30 | X-H torsion
[ 10763 10752 10751 10750 ] final -107.26 input  -60.55 | X-H torsion
[ 11005 11000 10999 10996 ] final -122.75 input  -57.11 | X-H torsion

> <Gold.Protein.ActiveResidues>
 VAL166  LYS551  ARG553  GLY616  TRP617  ASP618  TYR619  PRO620  LYS621  CYS622 
 ASP623  PHE694  ASN695  SER759  ASP760  ASP761  ALA762  ILE779  LEU786  VAL792 
 PHE793  MET794  SER795  GLU796  ALA797  LYS798  CYS799  TRP800  GLU811  SER814 

> <Gold.Protein.RotatedAtoms>
  151.2946  135.0751  159.9216 H   0  0  0  0  0  0  0  0  0  0  0  0  # atno 6907 bound_to 6896
  152.5310  133.9896  159.7855 H   0  0  0  0  0  0  0  0  0  0  0  0  # atno 6908 bound_to 6896
  151.0172  133.5859  159.2706 H   0  0  0  0  0  0  0  0  0  0  0  0  # atno 6909 bound_to 6896
  146.1432  140.5005  142.8643 H   0  0  0  0  0  0  0  0  0  0  0  0  # atno 7974 bound_to 7965
  154.5137  140.2198  155.9108 H   0  0  0  0  0  0  0  0  0  0  0  0  # atno 8008 bound_to 7997
  156.1582  140.3147  155.8728 H   0  0  0  0  0  0  0  0  0  0  0  0  # atno 8009 bound_to 7997
  155.3804  140.0472  157.3034 H   0  0  0  0  0  0  0  0  0  0  0  0  # atno 8010 bound_to 7997
  140.3851  144.1928  150.6130 H   0  0  0  0  0  0  0  0  0  0  0  0  # atno 10167 bound_to 10162
  157.0792  131.0387  151.2581 H   0  0  0  0  0  0  0  0  0  0  0  0  # atno 10718 bound_to 10713
  154.8064  135.4681  154.0404 H   0  0  0  0  0  0  0  0  0  0  0  0  # atno 10763 bound_to 10752
  153.1869  135.6849  153.8410 H   0  0  0  0  0  0  0  0  0  0  0  0  # atno 10764 bound_to 10752
  153.7941  135.3239  155.3359 H   0  0  0  0  0  0  0  0  0  0  0  0  # atno 10765 bound_to 10752
  140.9971  134.0455  157.3583 H   0  0  0  0  0  0  0  0  0  0  0  0  # atno 11005 bound_to 11000
  144.7816  140.5853  143.6601 LP  0  0  0  0  0  0  0  0  0  0  0  0  # atno 17320 bound_to 7965
  145.4997  139.1484  143.3664 LP  0  0  0  0  0  0  0  0  0  0  0  0  # atno 17321 bound_to 7965
  140.4898  143.2351  151.8835 LP  0  0  0  0  0  0  0  0  0  0  0  0  # atno 17342 bound_to 10162
  139.4792  144.5178  151.8843 LP  0  0  0  0  0  0  0  0  0  0  0  0  # atno 17343 bound_to 10162
  157.4814  130.7767  149.7418 LP  0  0  0  0  0  0  0  0  0  0  0  0  # atno 17370 bound_to 10713
  155.9928  130.3928  150.2926 LP  0  0  0  0  0  0  0  0  0  0  0  0  # atno 17371 bound_to 10713
  139.9020  135.0168  156.7314 LP  0  0  0  0  0  0  0  0  0  0  0  0  # atno 17394 bound_to 11000
  140.6948  133.9358  155.7988 LP  0  0  0  0  0  0  0  0  0  0  0  0  # atno 17395 bound_to 11000

$$$$
