AV-unprocessed.smi:1216|AV-procd|sdf|5098|dock2
  -GOLD-   22720 4153D 1   1.00000     0.00000
 Structure written by MMmdl.
 43 44  0  0  0  0  0  0  0  0  2 V2000
  147.1303  140.3771  156.1721 C   0  0  0  0  0  0  0  0  0  0  0  0
  147.7460  141.1069  154.9710 C   0  0  2  0  0  0  0  0  0  0  0  0
  148.2095  140.1107  153.8863 C   0  0  0  0  0  0  0  0  0  0  0  0
  147.1086  139.3106  153.3377 N   0  0  0  0  0  0  0  0  0  0  0  0
  146.3557  138.3713  153.9943 C   0  0  0  0  0  0  0  0  0  0  0  0
  145.4364  137.9052  153.0900 C   0  0  0  0  0  0  0  0  0  0  0  0
  145.6707  138.5746  151.9190 N   0  3  0  0  0  0  0  0  0  0  0  0
  146.6920  139.4237  152.0698 C   0  0  0  0  0  0  0  0  0  0  0  0
  148.8635  141.9281  155.4356 N   0  0  0  0  0  0  0  0  0  0  0  0
  150.0037  141.4659  155.9725 C   0  0  0  0  0  0  0  0  0  0  0  0
  150.2541  140.2664  156.0993 O   0  0  0  0  0  0  0  0  0  0  0  0
  151.0062  142.5276  156.4420 C   0  0  0  0  0  0  0  0  0  0  0  0
  151.2890  142.4472  157.8834 N   0  0  0  0  0  0  0  0  0  0  0  0
  151.4009  141.0987  158.4619 C   0  0  0  0  0  0  0  0  0  0  0  0
  152.8361  140.7256  158.8994 C   0  0  0  0  0  0  0  0  0  0  0  0
  153.7288  141.8915  159.3688 C   0  0  0  0  0  0  0  0  0  0  0  0
  153.1072  142.7935  160.4553 C   0  0  0  0  0  0  0  0  0  0  0  0
  151.7180  143.3985  160.1409 C   0  0  0  0  0  0  0  0  0  0  0  0
  151.4201  143.5651  158.6418 C   0  0  0  0  0  0  0  0  0  0  0  0
  151.3066  144.7032  158.1843 O   0  0  0  0  0  0  0  0  0  0  0  0
  146.2761  139.7716  155.8676 H   0  0  0  0  0  0  0  0  0  0  0  0
  146.7783  141.0850  156.9234 H   0  0  0  0  0  0  0  0  0  0  0  0
  147.8535  139.7153  156.6500 H   0  0  0  0  0  0  0  0  0  0  0  0
  146.9674  141.7458  154.5499 H   0  0  0  0  0  0  0  0  0  0  0  0
  148.7048  140.6321  153.0656 H   0  0  0  0  0  0  0  0  0  0  0  0
  148.9373  139.4119  154.3008 H   0  0  0  0  0  0  0  0  0  0  0  0
  146.5194  138.1184  155.0317 H   0  0  0  0  0  0  0  0  0  0  0  0
  144.6526  137.1685  153.1903 H   0  0  0  0  0  0  0  0  0  0  0  0
  147.0880  140.0839  151.3188 H   0  0  0  0  0  0  0  0  0  0  0  0
  148.7516  142.9290  155.3613 H   0  0  0  0  0  0  0  0  0  0  0  0
  151.9242  142.4145  155.8643 H   0  0  0  0  0  0  0  0  0  0  0  0
  150.6307  143.5226  156.1951 H   0  0  0  0  0  0  0  0  0  0  0  0
  150.7221  141.0150  159.3105 H   0  0  0  0  0  0  0  0  0  0  0  0
  151.0355  140.3463  157.7620 H   0  0  0  0  0  0  0  0  0  0  0  0
  152.7794  139.9699  159.6834 H   0  0  0  0  0  0  0  0  0  0  0  0
  153.3384  140.2412  158.0613 H   0  0  0  0  0  0  0  0  0  0  0  0
  154.6682  141.4843  159.7444 H   0  0  0  0  0  0  0  0  0  0  0  0
  154.0105  142.5004  158.5086 H   0  0  0  0  0  0  0  0  0  0  0  0
  153.0359  142.2280  161.3849 H   0  0  0  0  0  0  0  0  0  0  0  0
  153.8044  143.6064  160.6617 H   0  0  0  0  0  0  0  0  0  0  0  0
  150.9337  142.7902  160.5913 H   0  0  0  0  0  0  0  0  0  0  0  0
  151.6318  144.3683  160.6323 H   0  0  0  0  0  0  0  0  0  0  0  0
  145.1458  138.4513  151.0623 H   0  0  0  0  0  0  0  0  0  0  0  0
  1  2  1  0  0  0  0
  1 21  1  0  0  0  0
  1 22  1  0  0  0  0
  1 23  1  0  0  0  0
  2  3  1  0  0  0  0
  2  9  1  0  0  0  0
  2 24  1  0  0  0  0
  3  4  1  0  0  0  0
  3 25  1  0  0  0  0
  3 26  1  0  0  0  0
  4  8  1  0  0  0  0
  4  5  1  0  0  0  0
  5  6  2  0  0  0  0
  5 27  1  0  0  0  0
  6  7  1  0  0  0  0
  6 28  1  0  0  0  0
  7  8  2  0  0  0  0
  7 43  1  0  0  0  0
  8 29  1  0  0  0  0
  9 10  1  0  0  0  0
  9 30  1  0  0  0  0
 10 11  2  0  0  0  0
 10 12  1  0  0  0  0
 12 13  1  0  0  0  0
 12 31  1  0  0  0  0
 12 32  1  0  0  0  0
 13 19  1  0  0  0  0
 13 14  1  0  0  0  0
 14 15  1  0  0  0  0
 14 33  1  0  0  0  0
 14 34  1  0  0  0  0
 15 16  1  0  0  0  0
 15 35  1  0  0  0  0
 15 36  1  0  0  0  0
 16 17  1  0  0  0  0
 16 37  1  0  0  0  0
 16 38  1  0  0  0  0
 17 18  1  0  0  0  0
 17 39  1  0  0  0  0
 17 40  1  0  0  0  0
 18 19  1  0  0  0  0
 18 41  1  0  0  0  0
 18 42  1  0  0  0  0
 19 20  2  0  0  0  0
M  CHG  1   7   1
M  END
> <s_m_source_file>
AV-unprocessed.smi

> <i_m_source_file_index>
1216

> <i_lp_mmshare_version>
43012

> <i_f3d_flags>
0

> <s_epik_input>
W2NIXTFuW2NIXVtjSF1uMVtDSDJdW0NAQEhdKFtDSDNdKVtOSF1DKD1PKVtDSDJdTjJbQ0gyXVtDSDJdW0NIMl1bQ0gyXVtDSDJdQzI9Tw==

> <s_epik_cmdline>
J2VwaWtfcHl0aG9uJywgJy1waCcsICc3LjAnLCAnLXRuJywgJzgnLCAnLW1hJywgJzIwMCcsICctbWV0YWxfYmluZGluZycsICctaW1hZScsICc8aW5maWxlLm1hZT4nLCAnLW9tYWUnLCAnPG91dGZpbGUubWFlPic=

> <r_lp_tautomer_probability>
1

> <r_epik_Ionization_Penalty>
0.254232

> <r_epik_Ionization_Penalty_Charging>
0

> <r_epik_Ionization_Penalty_Neutral>
0.254232

> <r_epik_State_Penalty>
0.245698

> <r_epik_Charging_Adjusted_Penalty>
0.245698

> <i_epik_Tot_Q>
1

> <i_epik_Tot_abs_Q>
1

> <r_epik_Metal_State_Penalty>
0.535799

> <b_epik_Metal_Only>
0

> <s_lp_Force_Field>
OPLS_2005

> <r_lp_Energy>
19.3608

> <b_lp_Chiralities_Consistent>
1

> <s_lp_Variant>
AV-unprocessed.smi:1216-1

> <Gold.Version>
5.8.1

> <Gold.Id.Protein>
6NUR|6NUR_protein|mol2

> <Gold.PLP.Fitness>
45.3298

> <Gold.PLP.PLP>
-36.9341

> <Gold.PLP.part.hbond>
-3.0000

> <Gold.PLP.part.metal>
0.0000

> <Gold.PLP.part.buried>
-4.4959

> <Gold.PLP.part.nonpolar>
-30.0093

> <Gold.PLP.part.repulsive>
0.3280

> <Gold.PLP.ligand.clash>
0.0000

> <Gold.PLP.ligand.torsion>
0.3481

> <Gold.PLP.Chemscore.Hbond>
2.0000

> <Gold.PLP.Chemscore.CHOScore>
1.0000

> <Gold.PLP.Chemscore.Metal>
0.0000

> <Gold.Chemscore.Hbonds>
donor molecule, donor type, donor heavy atom, donor atom, acceptor molecule, acceptor atom, score
      L1  H     7    43       P1 10171  1.00
      L1  H     9    30       P1  8028  1.00
      L1  C     8    29       P1  7957  0.69

> <Gold.PLP.Chemscore.Internal.Correction>
0.0918

> <Gold.Rescore>
     Score         DG    S(hbond)    S(metal)    S(lipo)     H(rot)  DE(clash)    DE(int)     intcor
     12.51     -15.44       1.97        0.00      77.25       2.22       0.15       2.78       ----

> <Gold.Chemscore.Fitness>
12.5099

> <Gold.Chemscore.DG>
-15.4402

> <Gold.Chemscore.ZeroCoef>
-5.4800

> <Gold.Chemscore.Hbond>
1.9745

> <Gold.Chemscore.Metal>
0.0000

> <Gold.Chemscore.Lipo>
77.2521

> <Gold.Chemscore.Internal_Hbond>
0.0000

> <Gold.Chemscore.DEClash>
0.1485

> <Gold.Chemscore.DEInternal>
2.7818

> <Gold.Chemscore.Rot>
2.2161

> <Gold.Chemscore.Internal.Correction>
   9.000000E+99

> <Gold.Chemscore.Hbonds>
donor molecule, donor type, donor heavy atom, donor atom, acceptor molecule, acceptor atom, score
      L1  H     7    43       P1 10171  1.00
      L1  H     9    30       P1  8028  1.00

> <Gold.Chemscore.Hbond.Weighted>
-6.5949

> <Gold.Chemscore.Metal.Weighted>
-0.0000

> <Gold.Chemscore.Lipo.Weighted>
-9.0385

> <Gold.Chemscore.Internal_Hbond.Weighted>
0.0000

> <Gold.Chemscore.DEClash.Weighted>
0.1485

> <Gold.Chemscore.DEInternal.Weighted>
2.7818

> <Gold.Chemscore.Rot.Weighted>
5.6733

> <Gold.Chemscore.Internal.Correction.Weighted>
   9.000000E+99

> <Gold.Protein.RotatedTorsions>
[ 6907 6896 6895 6894 ] final   -0.14 input  -60.11 | X-H torsion
[ 7974 7965 7964 7962 ] final   26.59 input  175.53 | X-H torsion
[ 8008 7997 7996 7995 ] final   31.17 input   59.86 | X-H torsion
[ 10167 10162 10161 10158 ] final   31.33 input  -65.29 | X-H torsion
[ 10718 10713 10712 10709 ] final  134.77 input   66.30 | X-H torsion
[ 10763 10752 10751 10750 ] final  -23.04 input  -60.55 | X-H torsion
[ 11005 11000 10999 10996 ] final  133.60 input  -57.11 | X-H torsion

> <Gold.Protein.ActiveResidues>
 VAL166  LYS551  ARG553  GLY616  TRP617  ASP618  TYR619  PRO620  LYS621  CYS622 
 ASP623  PHE694  ASN695  SER759  ASP760  ASP761  ALA762  ILE779  LEU786  VAL792 
 PHE793  MET794  SER795  GLU796  ALA797  LYS798  CYS799  TRP800  GLU811  SER814 

> <Gold.Protein.RotatedAtoms>
  151.5670  135.1064  159.9985 H   0  0  0  0  0  0  0  0  0  0  0  0  # atno 6907 bound_to 6896
  152.4419  133.7460  159.6678 H   0  0  0  0  0  0  0  0  0  0  0  0  # atno 6908 bound_to 6896
  150.8326  133.7997  159.3116 H   0  0  0  0  0  0  0  0  0  0  0  0  # atno 6909 bound_to 6896
  146.1830  139.7308  142.8887 H   0  0  0  0  0  0  0  0  0  0  0  0  # atno 7974 bound_to 7965
  155.1021  140.3230  155.4544 H   0  0  0  0  0  0  0  0  0  0  0  0  # atno 8008 bound_to 7997
  156.2714  140.2059  156.6093 H   0  0  0  0  0  0  0  0  0  0  0  0  # atno 8009 bound_to 7997
  154.6821  140.0525  157.0264 H   0  0  0  0  0  0  0  0  0  0  0  0  # atno 8010 bound_to 7997
  140.4598  144.0923  150.6210 H   0  0  0  0  0  0  0  0  0  0  0  0  # atno 10167 bound_to 10162
  157.4638  131.1075  150.9887 H   0  0  0  0  0  0  0  0  0  0  0  0  # atno 10718 bound_to 10713
  153.6615  135.6976  153.5176 H   0  0  0  0  0  0  0  0  0  0  0  0  # atno 10763 bound_to 10752
  153.2628  135.4239  155.0910 H   0  0  0  0  0  0  0  0  0  0  0  0  # atno 10764 bound_to 10752
  154.8451  135.3559  154.6159 H   0  0  0  0  0  0  0  0  0  0  0  0  # atno 10765 bound_to 10752
  139.9862  134.9531  156.9748 H   0  0  0  0  0  0  0  0  0  0  0  0  # atno 11005 bound_to 11000
  145.4022  141.0386  143.3064 LP  0  0  0  0  0  0  0  0  0  0  0  0  # atno 17320 bound_to 7965
  144.8347  139.5570  143.6927 LP  0  0  0  0  0  0  0  0  0  0  0  0  # atno 17321 bound_to 7965
  140.4107  143.2658  151.9837 LP  0  0  0  0  0  0  0  0  0  0  0  0  # atno 17342 bound_to 10162
  139.4805  144.5918  151.7758 LP  0  0  0  0  0  0  0  0  0  0  0  0  # atno 17343 bound_to 10162
  157.0675  130.5850  149.5396 LP  0  0  0  0  0  0  0  0  0  0  0  0  # atno 17370 bound_to 10713
  156.0041  130.5125  150.7768 LP  0  0  0  0  0  0  0  0  0  0  0  0  # atno 17371 bound_to 10713
  140.4998  134.1108  155.7248 LP  0  0  0  0  0  0  0  0  0  0  0  0  # atno 17394 bound_to 11000
  141.1526  133.8941  157.2059 LP  0  0  0  0  0  0  0  0  0  0  0  0  # atno 17395 bound_to 11000

$$$$
