AV-unprocessed.smi:1966|AV-procd|sdf|7951|dock7
  -GOLD-   2272010123D 1   1.00000     0.00000
 Structure written by MMmdl.
 53 54  0  0  0  0  0  0  0  0  1 V2000
  152.4125  131.0952  155.9912 C   0  0  0  0  0  0  0  0  0  0  0  0
  151.5903  132.2464  156.5597 C   0  0  0  0  0  0  0  0  0  0  0  0
  151.6347  132.5041  157.7623 O   0  0  0  0  0  0  0  0  0  0  0  0
  150.8413  132.9306  155.6805 N   0  0  0  0  0  0  0  0  0  0  0  0
  149.9864  134.0764  156.0010 C   0  0  1  0  0  0  0  0  0  0  0  0
  150.8722  135.2411  156.4880 C   0  0  0  0  0  0  0  0  0  0  0  0
  152.0667  135.2692  156.1897 O   0  0  0  0  0  0  0  0  0  0  0  0
  150.2443  136.1748  157.2270 N   0  0  0  0  0  0  0  0  0  0  0  0
  150.7645  137.3620  157.8111 C   0  0  0  0  0  0  0  0  0  0  0  0
  152.0481  137.4812  158.3938 C   0  0  0  0  0  0  0  0  0  0  0  0
  152.4438  138.7240  158.9251 C   0  0  0  0  0  0  0  0  0  0  0  0
  151.5557  139.8231  158.8558 C   0  0  0  0  0  0  0  0  0  0  0  0
  151.9333  141.0770  159.3843 N   0  0  0  0  0  0  0  0  0  0  0  0
  151.6858  142.2678  158.5761 C   0  0  0  0  0  0  0  0  0  0  0  0
  151.8230  143.5373  159.4350 C   0  0  2  0  0  0  0  0  0  0  0  0
  151.7015  144.8120  158.5934 C   0  0  0  0  0  0  0  0  0  0  0  0
  153.0995  143.5486  160.0728 O   0  0  0  0  0  0  0  0  0  0  0  0
  153.3674  142.4117  160.8969 C   0  0  1  0  0  0  0  0  0  0  0  0
  152.5351  142.4217  162.1915 C   0  0  0  0  0  0  0  0  0  0  0  0
  153.2163  141.1125  160.0810 C   0  0  0  0  0  0  0  0  0  0  0  0
  150.3291  139.7063  158.2911 N   0  0  0  0  0  0  0  0  0  0  0  0
  149.9538  138.5140  157.7834 C   0  0  0  0  0  0  0  0  0  0  0  0
  149.2080  134.4981  154.7194 C   0  0  0  0  0  0  0  0  0  0  0  0
  148.1076  135.5436  154.9962 C   0  0  0  0  0  0  0  0  0  0  0  0
  148.5793  133.2861  154.0036 C   0  0  0  0  0  0  0  0  0  0  0  0
  153.0727  131.4520  155.2000 H   0  0  0  0  0  0  0  0  0  0  0  0
  151.7575  130.3290  155.5761 H   0  0  0  0  0  0  0  0  0  0  0  0
  153.0270  130.6370  156.7669 H   0  0  0  0  0  0  0  0  0  0  0  0
  150.8756  132.6495  154.7115 H   0  0  0  0  0  0  0  0  0  0  0  0
  149.2750  133.7956  156.7809 H   0  0  0  0  0  0  0  0  0  0  0  0
  149.2746  135.9849  157.4351 H   0  0  0  0  0  0  0  0  0  0  0  0
  152.7414  136.6567  158.4397 H   0  0  0  0  0  0  0  0  0  0  0  0
  153.4151  138.8145  159.3879 H   0  0  0  0  0  0  0  0  0  0  0  0
  152.3964  142.2926  157.7487 H   0  0  0  0  0  0  0  0  0  0  0  0
  150.6842  142.2313  158.1456 H   0  0  0  0  0  0  0  0  0  0  0  0
  151.0357  143.5556  160.1889 H   0  0  0  0  0  0  0  0  0  0  0  0
  150.7371  144.8577  158.0872 H   0  0  0  0  0  0  0  0  0  0  0  0
  152.4816  144.8589  157.8330 H   0  0  0  0  0  0  0  0  0  0  0  0
  151.7914  145.7010  159.2182 H   0  0  0  0  0  0  0  0  0  0  0  0
  154.4128  142.4943  161.1955 H   0  0  0  0  0  0  0  0  0  0  0  0
  152.8498  141.6183  162.8579 H   0  0  0  0  0  0  0  0  0  0  0  0
  151.4711  142.2833  162.0012 H   0  0  0  0  0  0  0  0  0  0  0  0
  152.6609  143.3625  162.7274 H   0  0  0  0  0  0  0  0  0  0  0  0
  153.3511  140.2554  160.7391 H   0  0  0  0  0  0  0  0  0  0  0  0
  154.0088  141.0576  159.3335 H   0  0  0  0  0  0  0  0  0  0  0  0
  148.9686  138.4802  157.3421 H   0  0  0  0  0  0  0  0  0  0  0  0
  149.9133  134.9502  154.0196 H   0  0  0  0  0  0  0  0  0  0  0  0
  147.3929  135.1776  155.7341 H   0  0  0  0  0  0  0  0  0  0  0  0
  147.5524  135.7783  154.0876 H   0  0  0  0  0  0  0  0  0  0  0  0
  148.5161  136.4846  155.3646 H   0  0  0  0  0  0  0  0  0  0  0  0
  147.8860  132.7577  154.6589 H   0  0  0  0  0  0  0  0  0  0  0  0
  149.3321  132.5718  153.6699 H   0  0  0  0  0  0  0  0  0  0  0  0
  148.0250  133.5973  153.1178 H   0  0  0  0  0  0  0  0  0  0  0  0
  1  2  1  0  0  0  0
  1 26  1  0  0  0  0
  1 27  1  0  0  0  0
  1 28  1  0  0  0  0
  2  3  2  0  0  0  0
  2  4  1  0  0  0  0
  4  5  1  0  0  0  0
  4 29  1  0  0  0  0
  5  6  1  0  0  0  0
  5 23  1  0  0  0  0
  5 30  1  0  0  0  0
  6  7  2  0  0  0  0
  6  8  1  0  0  0  0
  8  9  1  0  0  0  0
  8 31  1  0  0  0  0
  9 22  1  0  0  0  0
  9 10  2  0  0  0  0
 10 11  1  0  0  0  0
 10 32  1  0  0  0  0
 11 12  2  0  0  0  0
 11 33  1  0  0  0  0
 12 13  1  0  0  0  0
 12 21  1  0  0  0  0
 13 20  1  0  0  0  0
 13 14  1  0  0  0  0
 14 15  1  0  0  0  0
 14 34  1  0  0  0  0
 14 35  1  0  0  0  0
 15 16  1  0  0  0  0
 15 17  1  0  0  0  0
 15 36  1  0  0  0  0
 16 37  1  0  0  0  0
 16 38  1  0  0  0  0
 16 39  1  0  0  0  0
 17 18  1  0  0  0  0
 18 19  1  0  0  0  0
 18 20  1  0  0  0  0
 18 40  1  0  0  0  0
 19 41  1  0  0  0  0
 19 42  1  0  0  0  0
 19 43  1  0  0  0  0
 20 44  1  0  0  0  0
 20 45  1  0  0  0  0
 21 22  2  0  0  0  0
 22 46  1  0  0  0  0
 23 24  1  0  0  0  0
 23 25  1  0  0  0  0
 23 47  1  0  0  0  0
 24 48  1  0  0  0  0
 24 49  1  0  0  0  0
 24 50  1  0  0  0  0
 25 51  1  0  0  0  0
 25 52  1  0  0  0  0
 25 53  1  0  0  0  0
M  END
> <s_m_source_file>
AV-unprocessed.smi

> <i_m_source_file_index>
1966

> <i_lp_mmshare_version>
43012

> <i_f3d_flags>
0

> <s_epik_input>
W0NIM11DKD1PKVtOSF1bQ0BASF0oW0NIXShbQ0gzXSlbQ0gzXSlDKD1PKVtOSF1jMVtjSF1bY0hdYyhuW2NIXTEpTjJbQ0gyXVtDQEBIXShbQ0gzXSlPW0NAQEhdKFtDSDNdKVtDSDJdMg==

> <s_epik_cmdline>
J2VwaWtfcHl0aG9uJywgJy1waCcsICc3LjAnLCAnLXRuJywgJzgnLCAnLW1hJywgJzIwMCcsICctbWV0YWxfYmluZGluZycsICctaW1hZScsICc8aW5maWxlLm1hZT4nLCAnLW9tYWUnLCAnPG91dGZpbGUubWFlPic=

> <r_lp_tautomer_probability>
1

> <r_epik_Ionization_Penalty>
0.000679699

> <r_epik_Ionization_Penalty_Charging>
0

> <r_epik_Ionization_Penalty_Neutral>
0.000679699

> <r_epik_State_Penalty>
0.000430485

> <r_epik_Charging_Adjusted_Penalty>
0.000430485

> <i_epik_Tot_Q>
0

> <i_epik_Tot_abs_Q>
0

> <r_epik_Metal_State_Penalty>
-0

> <b_epik_Metal_Only>
0

> <s_lp_Force_Field>
OPLS_2005

> <r_lp_Energy>
28.9115

> <b_lp_Chiralities_Consistent>
1

> <s_lp_Variant>
AV-unprocessed.smi:1966-4

> <Gold.Version>
5.8.1

> <Gold.Id.Protein>
6NUR|6NUR_protein|mol2

> <Gold.PLP.Fitness>
44.1043

> <Gold.PLP.PLP>
-40.3441

> <Gold.PLP.part.hbond>
-1.9834

> <Gold.PLP.part.metal>
0.0000

> <Gold.PLP.part.buried>
-4.8468

> <Gold.PLP.part.nonpolar>
-33.8437

> <Gold.PLP.part.repulsive>
0.1764

> <Gold.PLP.ligand.clash>
0.0000

> <Gold.PLP.ligand.torsion>
1.2654

> <Gold.PLP.Chemscore.Hbond>
1.9760

> <Gold.PLP.Chemscore.CHOScore>
0.0000

> <Gold.PLP.Chemscore.Metal>
0.0000

> <Gold.Chemscore.Hbonds>
donor molecule, donor type, donor heavy atom, donor atom, acceptor molecule, acceptor atom, score
      P1  H  6896  6909       L1     3  1.00
      P1  H 10752 10764       L1     7  0.98

> <Gold.PLP.Chemscore.Internal.Correction>
0.3630

> <Gold.Rescore>
     Score         DG    S(hbond)    S(metal)    S(lipo)     H(rot)  DE(clash)    DE(int)     intcor
     18.16     -19.53       1.96        0.00     100.67       1.68       0.08       1.28       ----

> <Gold.Chemscore.Fitness>
18.1636

> <Gold.Chemscore.DG>
-19.5289

> <Gold.Chemscore.ZeroCoef>
-5.4800

> <Gold.Chemscore.Hbond>
1.9643

> <Gold.Chemscore.Metal>
0.0000

> <Gold.Chemscore.Lipo>
100.6697

> <Gold.Chemscore.Internal_Hbond>
0.0000

> <Gold.Chemscore.DEClash>
0.0815

> <Gold.Chemscore.DEInternal>
1.2837

> <Gold.Chemscore.Rot>
1.6759

> <Gold.Chemscore.Internal.Correction>
   9.000000E+99

> <Gold.Chemscore.Hbonds>
donor molecule, donor type, donor heavy atom, donor atom, acceptor molecule, acceptor atom, score
      P1  H  6896  6909       L1     3  0.99
      P1  H 10752 10764       L1     7  0.91

> <Gold.Chemscore.Hbond.Weighted>
-6.5608

> <Gold.Chemscore.Metal.Weighted>
-0.0000

> <Gold.Chemscore.Lipo.Weighted>
-11.7784

> <Gold.Chemscore.Internal_Hbond.Weighted>
0.0000

> <Gold.Chemscore.DEClash.Weighted>
0.0815

> <Gold.Chemscore.DEInternal.Weighted>
1.2837

> <Gold.Chemscore.Rot.Weighted>
4.2902

> <Gold.Chemscore.Internal.Correction.Weighted>
   9.000000E+99

> <Gold.Protein.RotatedTorsions>
[ 6907 6896 6895 6894 ] final  -45.63 input  -60.11 | X-H torsion
[ 7974 7965 7964 7962 ] final -175.34 input  175.53 | X-H torsion
[ 8008 7997 7996 7995 ] final   54.73 input   59.86 | X-H torsion
[ 10167 10162 10161 10158 ] final  -88.72 input  -65.29 | X-H torsion
[ 10718 10713 10712 10709 ] final  148.92 input   66.30 | X-H torsion
[ 10763 10752 10751 10750 ] final  -39.85 input  -60.55 | X-H torsion
[ 11005 11000 10999 10996 ] final  -25.72 input  -57.11 | X-H torsion

> <Gold.Protein.ActiveResidues>
 VAL166  LYS551  ARG553  GLY616  TRP617  ASP618  TYR619  PRO620  LYS621  CYS622 
 ASP623  PHE694  ASN695  SER759  ASP760  ASP761  ALA762  ILE779  LEU786  VAL792 
 PHE793  MET794  SER795  GLU796  ALA797  LYS798  CYS799  TRP800  GLU811  SER814 

> <Gold.Protein.RotatedAtoms>
  150.9198  134.8616  159.7481 H   0  0  0  0  0  0  0  0  0  0  0  0  # atno 6907 bound_to 6896
  152.4987  134.4234  159.9498 H   0  0  0  0  0  0  0  0  0  0  0  0  # atno 6908 bound_to 6896
  151.4269  133.3642  159.2798 H   0  0  0  0  0  0  0  0  0  0  0  0  # atno 6909 bound_to 6896
  144.7128  140.1335  143.6397 H   0  0  0  0  0  0  0  0  0  0  0  0  # atno 7974 bound_to 7965
  155.4895  140.3471  155.4352 H   0  0  0  0  0  0  0  0  0  0  0  0  # atno 8008 bound_to 7997
  156.0986  140.1429  156.9526 H   0  0  0  0  0  0  0  0  0  0  0  0  # atno 8009 bound_to 7997
  154.4679  140.0911  156.7046 H   0  0  0  0  0  0  0  0  0  0  0  0  # atno 8010 bound_to 7997
  140.3719  143.2790  151.9490 H   0  0  0  0  0  0  0  0  0  0  0  0  # atno 10167 bound_to 10162
  157.3026  131.0873  151.1378 H   0  0  0  0  0  0  0  0  0  0  0  0  # atno 10718 bound_to 10713
  153.9363  135.6766  153.4745 H   0  0  0  0  0  0  0  0  0  0  0  0  # atno 10763 bound_to 10752
  153.0954  135.4854  154.8766 H   0  0  0  0  0  0  0  0  0  0  0  0  # atno 10764 bound_to 10752
  154.7401  135.3158  154.8701 H   0  0  0  0  0  0  0  0  0  0  0  0  # atno 10765 bound_to 10752
  140.8964  133.7553  156.0487 H   0  0  0  0  0  0  0  0  0  0  0  0  # atno 11005 bound_to 11000
  145.9265  139.2579  143.1350 LP  0  0  0  0  0  0  0  0  0  0  0  0  # atno 17320 bound_to 7965
  145.9566  140.8868  143.0232 LP  0  0  0  0  0  0  0  0  0  0  0  0  # atno 17321 bound_to 7965
  139.4803  144.5899  151.7790 LP  0  0  0  0  0  0  0  0  0  0  0  0  # atno 17342 bound_to 10162
  140.5025  144.1148  150.5974 LP  0  0  0  0  0  0  0  0  0  0  0  0  # atno 17343 bound_to 10162
  157.2731  130.6714  149.6029 LP  0  0  0  0  0  0  0  0  0  0  0  0  # atno 17370 bound_to 10713
  155.9672  130.4473  150.5574 LP  0  0  0  0  0  0  0  0  0  0  0  0  # atno 17371 bound_to 10713
  140.8284  134.3207  157.5357 LP  0  0  0  0  0  0  0  0  0  0  0  0  # atno 17394 bound_to 11000
  139.8736  134.9349  156.3620 LP  0  0  0  0  0  0  0  0  0  0  0  0  # atno 17395 bound_to 11000

$$$$
