AV-unprocessed.smi:1718|AV-procd|sdf|6928|dock3
  -GOLD-   22720 8133D 1   1.00000     0.00000
 Structure written by MMmdl.
 39 40  0  0  0  0  0  0  0  0  2 V2000
  149.2149  139.6283  155.4621 C   0  0  0  0  0  0  0  0  0  0  0  0
  148.7660  140.1127  156.8488 C   0  0  2  0  0  0  0  0  0  0  0  0
  149.9132  140.6379  157.5104 O   0  0  0  0  0  0  0  0  0  0  0  0
  150.3877  141.8846  157.0121 C   0  0  0  0  0  0  0  0  0  0  0  0
  150.7752  142.7948  158.1854 C   0  0  1  0  0  0  0  0  0  0  0  0
  151.8960  142.2625  159.0876 C   0  0  0  0  0  0  0  0  0  0  0  0
  152.7123  143.5011  159.4336 C   0  0  0  0  0  0  0  0  0  0  0  0
  151.9279  144.6547  158.8110 C   0  0  0  0  0  0  0  0  0  0  0  0
  151.2456  144.0521  157.7240 O   0  0  0  0  0  0  0  0  0  0  0  0
  148.1577  138.9659  157.6722 C   0  0  0  0  0  0  0  0  0  0  0  0
  147.0015  139.0660  158.0825 O   0  0  0  0  0  0  0  0  0  0  0  0
  148.9609  137.8988  157.8527 N   0  0  0  0  0  0  0  0  0  0  0  0
  148.7229  136.6989  158.5450 C   0  0  0  0  0  0  0  0  0  0  0  0
  148.0648  136.5990  159.7334 C   0  0  0  0  0  0  0  0  0  0  0  0
  147.8612  135.3234  160.4083 C   0  0  0  0  0  0  0  0  0  0  0  0
  147.0432  135.1643  161.6777 C   0  0  0  0  0  0  0  0  0  0  0  0
  146.9464  133.8818  162.0288 F   0  0  0  0  0  0  0  0  0  0  0  0
  147.6240  135.8262  162.6773 F   0  0  0  0  0  0  0  0  0  0  0  0
  145.8124  135.6504  161.5167 F   0  0  0  0  0  0  0  0  0  0  0  0
  148.4013  134.2652  159.7036 C   0  0  0  0  0  0  0  0  0  0  0  0
  149.0894  134.2804  158.5412 N   0  5  0  0  0  0  0  0  0  0  0  0
  149.2701  135.4783  157.9167 C   0  0  0  0  0  0  0  0  0  0  0  0
  149.8773  135.5622  156.8483 O   0  0  0  0  0  0  0  0  0  0  0  0
  148.3822  139.1987  154.9039 H   0  0  0  0  0  0  0  0  0  0  0  0
  149.9976  138.8718  155.5340 H   0  0  0  0  0  0  0  0  0  0  0  0
  149.6123  140.4564  154.8749 H   0  0  0  0  0  0  0  0  0  0  0  0
  148.0295  140.9070  156.7115 H   0  0  0  0  0  0  0  0  0  0  0  0
  151.2525  141.7233  156.3672 H   0  0  0  0  0  0  0  0  0  0  0  0
  149.6239  142.3813  156.4132 H   0  0  0  0  0  0  0  0  0  0  0  0
  149.8905  142.9827  158.7965 H   0  0  0  0  0  0  0  0  0  0  0  0
  151.4891  141.7766  159.9750 H   0  0  0  0  0  0  0  0  0  0  0  0
  152.5253  141.5349  158.5736 H   0  0  0  0  0  0  0  0  0  0  0  0
  152.8493  143.6306  160.5074 H   0  0  0  0  0  0  0  0  0  0  0  0
  153.6996  143.4309  158.9757 H   0  0  0  0  0  0  0  0  0  0  0  0
  151.1999  145.0554  159.5184 H   0  0  0  0  0  0  0  0  0  0  0  0
  152.5707  145.4711  158.4805 H   0  0  0  0  0  0  0  0  0  0  0  0
  149.8630  137.9417  157.4011 H   0  0  0  0  0  0  0  0  0  0  0  0
  147.6826  137.4732  160.2331 H   0  0  0  0  0  0  0  0  0  0  0  0
  148.2527  133.2527  160.1361 H   0  0  0  0  0  0  0  0  0  0  0  0
  1  2  1  0  0  0  0
  1 24  1  0  0  0  0
  1 25  1  0  0  0  0
  1 26  1  0  0  0  0
  2  3  1  0  0  0  0
  2 10  1  0  0  0  0
  2 27  1  0  0  0  0
  3  4  1  0  0  0  0
  4  5  1  0  0  0  0
  4 28  1  0  0  0  0
  4 29  1  0  0  0  0
  5  9  1  0  0  0  0
  5  6  1  0  0  0  0
  5 30  1  0  0  0  0
  6  7  1  0  0  0  0
  6 31  1  0  0  0  0
  6 32  1  0  0  0  0
  7  8  1  0  0  0  0
  7 33  1  0  0  0  0
  7 34  1  0  0  0  0
  8  9  1  0  0  0  0
  8 35  1  0  0  0  0
  8 36  1  0  0  0  0
 10 11  2  0  0  0  0
 10 12  1  0  0  0  0
 12 13  1  0  0  0  0
 12 37  1  0  0  0  0
 13 22  1  0  0  0  0
 13 14  2  0  0  0  0
 14 15  1  0  0  0  0
 14 38  1  0  0  0  0
 15 16  1  0  0  0  0
 15 20  2  0  0  0  0
 16 17  1  0  0  0  0
 16 18  1  0  0  0  0
 16 19  1  0  0  0  0
 20 21  1  0  0  0  0
 20 39  1  0  0  0  0
 21 22  1  0  0  0  0
 22 23  2  0  0  0  0
M  CHG  1  21  -1
M  END
> <s_m_source_file>
AV-unprocessed.smi

> <i_m_source_file_index>
1718

> <i_lp_mmshare_version>
43012

> <i_f3d_flags>
0

> <s_epik_input>
TzFbQ0gyXVtDSDJdW0NIMl1bQ0BIXTFbQ0gyXU9bQ0BASF0oW0NIM10pQyg9TylbTkhdYzJbY0hdYyhDKEYpKEYpRilbY0hdW25IXWMyPU8=

> <s_epik_cmdline>
J2VwaWtfcHl0aG9uJywgJy1waCcsICc3LjAnLCAnLXRuJywgJzgnLCAnLW1hJywgJzIwMCcsICctbWV0YWxfYmluZGluZycsICctaW1hZScsICc8aW5maWxlLm1hZT4nLCAnLW9tYWUnLCAnPG91dGZpbGUubWFlPic=

> <r_epik_Ionization_Penalty>
2.5466

> <r_epik_Ionization_Penalty_Charging>
0.0575837

> <r_epik_Ionization_Penalty_Neutral>
2.48901

> <r_epik_State_Penalty>
2.6532

> <r_epik_Charging_Adjusted_Penalty>
2.71078

> <i_epik_Tot_Q>
-1

> <i_epik_Tot_abs_Q>
1

> <r_epik_Metal_State_Penalty>
0.516196

> <b_epik_Metal_Only>
0

> <s_lp_Force_Field>
OPLS_2005

> <r_lp_Energy>
37.3461

> <b_lp_Chiralities_Consistent>
1

> <s_lp_Variant>
AV-unprocessed.smi:1718-7

> <Gold.Version>
5.8.1

> <Gold.Id.Protein>
6NUR|6NUR_protein|mol2

> <Gold.PLP.Fitness>
45.1889

> <Gold.PLP.PLP>
-40.4069

> <Gold.PLP.part.hbond>
-2.0000

> <Gold.PLP.part.metal>
0.0000

> <Gold.PLP.part.buried>
-4.1596

> <Gold.PLP.part.nonpolar>
-34.9253

> <Gold.PLP.part.repulsive>
0.2796

> <Gold.PLP.ligand.clash>
0.0000

> <Gold.PLP.ligand.torsion>
0.7232

> <Gold.PLP.Chemscore.Hbond>
2.0000

> <Gold.PLP.Chemscore.CHOScore>
0.0000

> <Gold.PLP.Chemscore.Metal>
0.0000

> <Gold.Chemscore.Hbonds>
donor molecule, donor type, donor heavy atom, donor atom, acceptor molecule, acceptor atom, score
      P1  H  6896  6909       L1    21  0.99

> <Gold.PLP.Chemscore.Internal.Correction>
0.2284

> <Gold.Rescore>
     Score         DG    S(hbond)    S(metal)    S(lipo)     H(rot)  DE(clash)    DE(int)     intcor
     11.78     -12.92       0.57        0.00      87.68       1.85       0.26       0.88       ----

> <Gold.Chemscore.Fitness>
11.7828

> <Gold.Chemscore.DG>
-12.9169

> <Gold.Chemscore.ZeroCoef>
-5.4800

> <Gold.Chemscore.Hbond>
0.5696

> <Gold.Chemscore.Metal>
0.0000

> <Gold.Chemscore.Lipo>
87.6826

> <Gold.Chemscore.Internal_Hbond>
0.0000

> <Gold.Chemscore.DEClash>
0.2564

> <Gold.Chemscore.DEInternal>
0.8778

> <Gold.Chemscore.Rot>
1.8455

> <Gold.Chemscore.Internal.Correction>
   9.000000E+99

> <Gold.Chemscore.Hbonds>
donor molecule, donor type, donor heavy atom, donor atom, acceptor molecule, acceptor atom, score
      P1  H  6896  6909       L1    21  0.01

> <Gold.Chemscore.Hbond.Weighted>
-1.9025

> <Gold.Chemscore.Metal.Weighted>
-0.0000

> <Gold.Chemscore.Lipo.Weighted>
-10.2589

> <Gold.Chemscore.Internal_Hbond.Weighted>
0.0000

> <Gold.Chemscore.DEClash.Weighted>
0.2564

> <Gold.Chemscore.DEInternal.Weighted>
0.8778

> <Gold.Chemscore.Rot.Weighted>
4.7245

> <Gold.Chemscore.Internal.Correction.Weighted>
   9.000000E+99

> <Gold.Protein.RotatedTorsions>
[ 6907 6896 6895 6894 ] final   27.55 input  -60.11 | X-H torsion
[ 7974 7965 7964 7962 ] final  142.29 input  175.53 | X-H torsion
[ 8008 7997 7996 7995 ] final -112.22 input   59.86 | X-H torsion
[ 10167 10162 10161 10158 ] final  -89.40 input  -65.29 | X-H torsion
[ 10718 10713 10712 10709 ] final  112.67 input   66.30 | X-H torsion
[ 10763 10752 10751 10750 ] final  172.21 input  -60.55 | X-H torsion
[ 11005 11000 10999 10996 ] final    8.84 input  -57.11 | X-H torsion

> <Gold.Protein.ActiveResidues>
 VAL166  LYS551  ARG553  GLY616  TRP617  ASP618  TYR619  PRO620  LYS621  CYS622 
 ASP623  PHE694  ASN695  SER759  ASP760  ASP761  ALA762  ILE779  LEU786  VAL792 
 PHE793  MET794  SER795  GLU796  ALA797  LYS798  CYS799  TRP800  GLU811  SER814 

> <Gold.Protein.RotatedAtoms>
  152.0039  134.9913  160.0565 H   0  0  0  0  0  0  0  0  0  0  0  0  # atno 6907 bound_to 6896
  152.1493  133.4507  159.4813 H   0  0  0  0  0  0  0  0  0  0  0  0  # atno 6908 bound_to 6896
  150.6873  134.2127  159.4409 H   0  0  0  0  0  0  0  0  0  0  0  0  # atno 6909 bound_to 6896
  144.9021  139.5409  143.5749 H   0  0  0  0  0  0  0  0  0  0  0  0  # atno 7974 bound_to 7965
  155.0019  140.0394  157.2363 H   0  0  0  0  0  0  0  0  0  0  0  0  # atno 8008 bound_to 7997
  154.7536  140.2771  155.6249 H   0  0  0  0  0  0  0  0  0  0  0  0  # atno 8009 bound_to 7997
  156.2890  140.2642  156.2296 H   0  0  0  0  0  0  0  0  0  0  0  0  # atno 8010 bound_to 7997
  140.3652  143.2822  151.9567 H   0  0  0  0  0  0  0  0  0  0  0  0  # atno 10167 bound_to 10162
  157.6380  131.0971  150.6929 H   0  0  0  0  0  0  0  0  0  0  0  0  # atno 10718 bound_to 10713
  154.4228  135.2758  155.1964 H   0  0  0  0  0  0  0  0  0  0  0  0  # atno 10763 bound_to 10752
  154.3903  135.6068  153.5843 H   0  0  0  0  0  0  0  0  0  0  0  0  # atno 10764 bound_to 10752
  152.9833  135.5901  154.4527 H   0  0  0  0  0  0  0  0  0  0  0  0  # atno 10765 bound_to 10752
  140.5324  134.0453  155.7877 H   0  0  0  0  0  0  0  0  0  0  0  0  # atno 11005 bound_to 11000
  146.3114  139.7759  142.9017 LP  0  0  0  0  0  0  0  0  0  0  0  0  # atno 17320 bound_to 7965
  145.3599  141.0324  143.3291 LP  0  0  0  0  0  0  0  0  0  0  0  0  # atno 17321 bound_to 7965
  139.4809  144.5957  151.7695 LP  0  0  0  0  0  0  0  0  0  0  0  0  # atno 17342 bound_to 10162
  140.5088  144.1057  150.5989 LP  0  0  0  0  0  0  0  0  0  0  0  0  # atno 17343 bound_to 10162
  156.7257  130.4694  149.5512 LP  0  0  0  0  0  0  0  0  0  0  0  0  # atno 17370 bound_to 10713
  156.1636  130.6390  151.0749 LP  0  0  0  0  0  0  0  0  0  0  0  0  # atno 17371 bound_to 10713
  141.1274  133.9360  157.2607 LP  0  0  0  0  0  0  0  0  0  0  0  0  # atno 17394 bound_to 11000
  139.9547  135.0168  156.9094 LP  0  0  0  0  0  0  0  0  0  0  0  0  # atno 17395 bound_to 11000

$$$$
