AV-unprocessed.smi:1583|AV-procd|sdf|6363|dock5
  -GOLD-   22720 6593D 1   1.00000     0.00000
 Structure written by MMmdl.
 36 37  0  0  0  0  0  0  0  0  1 V2000
  149.7499  134.4151  154.1738 C   0  0  0  0  0  0  0  0  0  0  0  0
  149.6099  135.8167  154.5381 N   0  0  0  0  0  0  0  0  0  0  0  0
  150.5314  136.5168  155.2153 C   0  0  0  0  0  0  0  0  0  0  0  0
  151.5971  136.0365  155.6009 O   0  0  0  0  0  0  0  0  0  0  0  0
  150.2069  137.9812  155.4990 C   0  0  0  0  0  0  0  0  0  0  0  0
  151.4744  139.1029  154.8374 S   0  0  0  0  0  0  0  0  0  0  0  0
  151.6632  140.2169  156.2009 C   0  0  0  0  0  0  0  0  0  0  0  0
  152.4948  139.9933  157.2213 N   0  0  0  0  0  0  0  0  0  0  0  0
  152.2964  141.0924  158.0322 C   0  0  0  0  0  0  0  0  0  0  0  0
  152.8819  141.4390  159.2709 C   0  0  0  0  0  0  0  0  0  0  0  0
  152.5110  142.6314  159.9263 C   0  0  0  0  0  0  0  0  0  0  0  0
  151.5525  143.4923  159.3536 C   0  0  0  0  0  0  0  0  0  0  0  0
  150.9585  143.1658  158.1192 C   0  0  0  0  0  0  0  0  0  0  0  0
  151.3327  141.9742  157.4697 C   0  0  0  0  0  0  0  0  0  0  0  0
  150.9492  141.3688  156.2779 N   0  0  0  0  0  0  0  0  0  0  0  0
  149.9685  141.8897  155.3363 C   0  0  0  0  0  0  0  0  0  0  0  0
  148.9932  140.8029  154.8633 C   0  0  0  0  0  0  0  0  0  0  0  0
  148.1971  141.3002  153.8003 O   0  0  0  0  0  0  0  0  0  0  0  0
  147.1394  142.1260  154.2531 C   0  0  0  0  0  0  0  0  0  0  0  0
  148.8511  134.0729  153.6611 H   0  0  0  0  0  0  0  0  0  0  0  0
  149.8949  133.7943  155.0591 H   0  0  0  0  0  0  0  0  0  0  0  0
  150.5996  134.2725  153.5047 H   0  0  0  0  0  0  0  0  0  0  0  0
  148.7619  136.2862  154.2554 H   0  0  0  0  0  0  0  0  0  0  0  0
  149.2367  138.2369  155.0705 H   0  0  0  0  0  0  0  0  0  0  0  0
  150.1319  138.1195  156.5781 H   0  0  0  0  0  0  0  0  0  0  0  0
  153.6160  140.7853  159.7183 H   0  0  0  0  0  0  0  0  0  0  0  0
  152.9632  142.8862  160.8735 H   0  0  0  0  0  0  0  0  0  0  0  0
  151.2728  144.4030  159.8629 H   0  0  0  0  0  0  0  0  0  0  0  0
  150.2231  143.8221  157.6779 H   0  0  0  0  0  0  0  0  0  0  0  0
  149.4184  142.6958  155.8228 H   0  0  0  0  0  0  0  0  0  0  0  0
  150.4771  142.3427  154.4859 H   0  0  0  0  0  0  0  0  0  0  0  0
  149.5495  139.9243  154.5327 H   0  0  0  0  0  0  0  0  0  0  0  0
  148.3569  140.4917  155.6929 H   0  0  0  0  0  0  0  0  0  0  0  0
  146.5651  142.4857  153.3995 H   0  0  0  0  0  0  0  0  0  0  0  0
  147.5197  142.9939  154.7934 H   0  0  0  0  0  0  0  0  0  0  0  0
  146.4615  141.5751  154.9064 H   0  0  0  0  0  0  0  0  0  0  0  0
  1  2  1  0  0  0  0
  1 20  1  0  0  0  0
  1 21  1  0  0  0  0
  1 22  1  0  0  0  0
  2  3  1  0  0  0  0
  2 23  1  0  0  0  0
  3  4  2  0  0  0  0
  3  5  1  0  0  0  0
  5  6  1  0  0  0  0
  5 24  1  0  0  0  0
  5 25  1  0  0  0  0
  6  7  1  0  0  0  0
  7 15  1  0  0  0  0
  7  8  2  0  0  0  0
  8  9  1  0  0  0  0
  9 14  2  0  0  0  0
  9 10  1  0  0  0  0
 10 11  2  0  0  0  0
 10 26  1  0  0  0  0
 11 12  1  0  0  0  0
 11 27  1  0  0  0  0
 12 13  2  0  0  0  0
 12 28  1  0  0  0  0
 13 14  1  0  0  0  0
 13 29  1  0  0  0  0
 14 15  1  0  0  0  0
 15 16  1  0  0  0  0
 16 17  1  0  0  0  0
 16 30  1  0  0  0  0
 16 31  1  0  0  0  0
 17 18  1  0  0  0  0
 17 32  1  0  0  0  0
 17 33  1  0  0  0  0
 18 19  1  0  0  0  0
 19 34  1  0  0  0  0
 19 35  1  0  0  0  0
 19 36  1  0  0  0  0
M  END
> <s_m_source_file>
AV-unprocessed.smi

> <i_m_source_file_index>
1583

> <i_lp_mmshare_version>
43012

> <i_f3d_flags>
0

> <s_epik_input>
W0NIM11bTkhdQyg9TylbQ0gyXVNjKG4xKW4oW0NIMl1bQ0gyXU9bQ0gzXSljKGMxMilbY0hdW2NIXVtjSF1bY0hdMg==

> <s_epik_cmdline>
J2VwaWtfcHl0aG9uJywgJy1waCcsICc3LjAnLCAnLXRuJywgJzgnLCAnLW1hJywgJzIwMCcsICctbWV0YWxfYmluZGluZycsICctaW1hZScsICc8aW5maWxlLm1hZT4nLCAnLW9tYWUnLCAnPG91dGZpbGUubWFlPic=

> <r_epik_Ionization_Penalty>
0.0356249

> <r_epik_Ionization_Penalty_Charging>
0

> <r_epik_Ionization_Penalty_Neutral>
0.0356249

> <r_epik_State_Penalty>
0.0297112

> <r_epik_Charging_Adjusted_Penalty>
0.0297112

> <i_epik_Tot_Q>
0

> <i_epik_Tot_abs_Q>
0

> <r_epik_Metal_State_Penalty>
0.0280118

> <b_epik_Metal_Only>
0

> <s_lp_Force_Field>
OPLS_2005

> <r_lp_Energy>
5.95406

> <b_lp_Chiralities_Consistent>
1

> <s_lp_Variant>
AV-unprocessed.smi:1583-1

> <Gold.Version>
5.8.1

> <Gold.Id.Protein>
6NUR|6NUR_protein|mol2

> <Gold.PLP.Fitness>
43.8832

> <Gold.PLP.PLP>
-39.1028

> <Gold.PLP.part.hbond>
-3.5748

> <Gold.PLP.part.metal>
0.0000

> <Gold.PLP.part.buried>
-4.0790

> <Gold.PLP.part.nonpolar>
-31.6502

> <Gold.PLP.part.repulsive>
0.7330

> <Gold.PLP.ligand.clash>
0.0000

> <Gold.PLP.ligand.torsion>
0.9810

> <Gold.PLP.Chemscore.Hbond>
2.2387

> <Gold.PLP.Chemscore.CHOScore>
0.0000

> <Gold.PLP.Chemscore.Metal>
0.0000

> <Gold.Chemscore.Hbonds>
donor molecule, donor type, donor heavy atom, donor atom, acceptor molecule, acceptor atom, score
      P1  H  7997  8008       L1     8  1.00
      P1  H 10752 10763       L1     4  1.00

> <Gold.PLP.Chemscore.Internal.Correction>
0.0265

> <Gold.Rescore>
     Score         DG    S(hbond)    S(metal)    S(lipo)     H(rot)  DE(clash)    DE(int)     intcor
     15.40     -16.25       1.60        0.00      94.17       2.18       0.08       0.77       ----

> <Gold.Chemscore.Fitness>
15.4036

> <Gold.Chemscore.DG>
-16.2547

> <Gold.Chemscore.ZeroCoef>
-5.4800

> <Gold.Chemscore.Hbond>
1.6000

> <Gold.Chemscore.Metal>
0.0000

> <Gold.Chemscore.Lipo>
94.1710

> <Gold.Chemscore.Internal_Hbond>
0.0000

> <Gold.Chemscore.DEClash>
0.0789

> <Gold.Chemscore.DEInternal>
0.7721

> <Gold.Chemscore.Rot>
2.1826

> <Gold.Chemscore.Internal.Correction>
   9.000000E+99

> <Gold.Chemscore.Hbonds>
donor molecule, donor type, donor heavy atom, donor atom, acceptor molecule, acceptor atom, score
      L1  H     2    23       P1  7948  0.01
      P1  H  7997  8008       L1     8  0.37
      P1  H  8011  8017       L1    18  0.02
      P1  H 10752 10763       L1     4  1.00

> <Gold.Chemscore.Hbond.Weighted>
-5.3441

> <Gold.Chemscore.Metal.Weighted>
-0.0000

> <Gold.Chemscore.Lipo.Weighted>
-11.0180

> <Gold.Chemscore.Internal_Hbond.Weighted>
0.0000

> <Gold.Chemscore.DEClash.Weighted>
0.0789

> <Gold.Chemscore.DEInternal.Weighted>
0.7721

> <Gold.Chemscore.Rot.Weighted>
5.5874

> <Gold.Chemscore.Internal.Correction.Weighted>
   9.000000E+99

> <Gold.Protein.RotatedTorsions>
[ 6907 6896 6895 6894 ] final  111.05 input  -60.11 | X-H torsion
[ 7974 7965 7964 7962 ] final -102.26 input  175.53 | X-H torsion
[ 8008 7997 7996 7995 ] final  -55.49 input   59.86 | X-H torsion
[ 10167 10162 10161 10158 ] final   -2.04 input  -65.29 | X-H torsion
[ 10718 10713 10712 10709 ] final -163.27 input   66.30 | X-H torsion
[ 10763 10752 10751 10750 ] final   67.84 input  -60.55 | X-H torsion
[ 11005 11000 10999 10996 ] final -146.21 input  -57.11 | X-H torsion

> <Gold.Protein.ActiveResidues>
 VAL166  LYS551  ARG553  GLY616  TRP617  ASP618  TYR619  PRO620  LYS621  CYS622 
 ASP623  PHE694  ASN695  SER759  ASP760  ASP761  ALA762  ILE779  LEU786  VAL792 
 PHE793  MET794  SER795  GLU796  ALA797  LYS798  CYS799  TRP800  GLU811  SER814 

> <Gold.Protein.RotatedAtoms>
  152.4989  133.8712  159.7299 H   0  0  0  0  0  0  0  0  0  0  0  0  # atno 6907 bound_to 6896
  150.9198  133.6885  159.2841 H   0  0  0  0  0  0  0  0  0  0  0  0  # atno 6908 bound_to 6896
  151.4266  135.1009  159.9682 H   0  0  0  0  0  0  0  0  0  0  0  0  # atno 6909 bound_to 6896
  145.2711  140.9299  143.2986 H   0  0  0  0  0  0  0  0  0  0  0  0  # atno 7974 bound_to 7965
  154.4197  140.1152  156.5485 H   0  0  0  0  0  0  0  0  0  0  0  0  # atno 8008 bound_to 7997
  155.6435  140.3496  155.4704 H   0  0  0  0  0  0  0  0  0  0  0  0  # atno 8009 bound_to 7997
  155.9851  140.1168  157.0680 H   0  0  0  0  0  0  0  0  0  0  0  0  # atno 8010 bound_to 7997
  140.6835  143.6704  150.8190 H   0  0  0  0  0  0  0  0  0  0  0  0  # atno 10167 bound_to 10162
  156.6223  130.8895  151.2960 H   0  0  0  0  0  0  0  0  0  0  0  0  # atno 10718 bound_to 10713
  153.0206  135.5269  154.7042 H   0  0  0  0  0  0  0  0  0  0  0  0  # atno 10763 bound_to 10752
  154.6142  135.2881  155.0400 H   0  0  0  0  0  0  0  0  0  0  0  0  # atno 10764 bound_to 10752
  154.1411  135.6578  153.4995 H   0  0  0  0  0  0  0  0  0  0  0  0  # atno 10765 bound_to 10752
  140.7843  134.3043  157.5035 H   0  0  0  0  0  0  0  0  0  0  0  0  # atno 11005 bound_to 11000
  144.9334  139.4271  143.6484 LP  0  0  0  0  0  0  0  0  0  0  0  0  # atno 17320 bound_to 7965
  146.3246  139.8257  142.8918 LP  0  0  0  0  0  0  0  0  0  0  0  0  # atno 17321 bound_to 7965
  140.0408  143.5348  152.2718 LP  0  0  0  0  0  0  0  0  0  0  0  0  # atno 17342 bound_to 10162
  139.6174  144.7622  151.2815 LP  0  0  0  0  0  0  0  0  0  0  0  0  # atno 17343 bound_to 10162
  157.7224  130.9576  150.1492 LP  0  0  0  0  0  0  0  0  0  0  0  0  # atno 17370 bound_to 10713
  156.2301  130.3681  149.8455 LP  0  0  0  0  0  0  0  0  0  0  0  0  # atno 17371 bound_to 10713
  139.8738  134.9337  156.3587 LP  0  0  0  0  0  0  0  0  0  0  0  0  # atno 17394 bound_to 11000
  140.9452  133.7488  156.0199 LP  0  0  0  0  0  0  0  0  0  0  0  0  # atno 17395 bound_to 11000

$$$$
