AV-unprocessed.smi:1946|AV-procd|sdf|7864|dock2
  -GOLD-   2272010 13D 1   1.00000     0.00000
 Structure written by MMmdl.
 39 41  0  0  0  0  0  0  0  0  2 V2000
  137.8051  140.6667  153.0396 C   0  0  0  0  0  0  0  0  0  0  0  0
  137.7168  139.6976  154.5997 S   0  0  0  0  0  0  0  0  0  0  0  0
  138.0467  140.5975  155.7158 O   0  0  0  0  0  0  0  0  0  0  0  0
  136.4420  138.9633  154.6086 O   0  0  0  0  0  0  0  0  0  0  0  0
  139.0424  138.5084  154.4328 C   0  0  0  0  0  0  0  0  0  0  0  0
  138.7594  137.2092  153.9673 C   0  0  0  0  0  0  0  0  0  0  0  0
  139.8083  136.2836  153.8062 C   0  0  0  0  0  0  0  0  0  0  0  0
  141.1393  136.6553  154.1001 C   0  0  0  0  0  0  0  0  0  0  0  0
  142.2780  135.6619  153.9161 C   0  0  1  0  0  0  0  0  0  0  0  0
  142.0106  134.4268  154.5459 O   0  0  0  0  0  0  0  0  0  0  0  0
  142.5834  135.3850  152.4301 C   0  0  0  0  0  0  0  0  0  0  0  0
  143.9991  135.0774  152.1908 N   0  0  0  0  0  0  0  0  0  0  0  0
  145.1094  135.8222  152.4441 C   0  0  0  0  0  0  0  0  0  0  0  0
  146.1910  135.0933  152.0519 N   0  3  0  0  0  0  0  0  0  0  0  0
  145.7650  133.8668  151.5372 C   0  0  0  0  0  0  0  0  0  0  0  0
  146.4858  132.7961  151.0172 C   0  0  0  0  0  0  0  0  0  0  0  0
  145.7377  131.6851  150.5744 C   0  0  0  0  0  0  0  0  0  0  0  0
  144.3300  131.6668  150.6563 C   0  0  0  0  0  0  0  0  0  0  0  0
  143.6093  132.7581  151.1850 C   0  0  0  0  0  0  0  0  0  0  0  0
  144.3567  133.8512  151.6216 C   0  0  0  0  0  0  0  0  0  0  0  0
  141.4136  137.9658  154.5492 C   0  0  0  0  0  0  0  0  0  0  0  0
  140.3680  138.8952  154.7123 C   0  0  0  0  0  0  0  0  0  0  0  0
  137.0255  141.4282  153.0424 H   0  0  0  0  0  0  0  0  0  0  0  0
  137.6591  140.0016  152.1887 H   0  0  0  0  0  0  0  0  0  0  0  0
  138.7803  141.1469  152.9634 H   0  0  0  0  0  0  0  0  0  0  0  0
  137.7458  136.9186  153.7341 H   0  0  0  0  0  0  0  0  0  0  0  0
  139.5886  135.2872  153.4512 H   0  0  0  0  0  0  0  0  0  0  0  0
  143.1710  136.0636  154.3959 H   0  0  0  0  0  0  0  0  0  0  0  0
  142.6322  133.7883  154.2305 H   0  0  0  0  0  0  0  0  0  0  0  0
  141.9868  134.5516  152.0563 H   0  0  0  0  0  0  0  0  0  0  0  0
  142.3257  136.2497  151.8165 H   0  0  0  0  0  0  0  0  0  0  0  0
  145.1286  136.8098  152.8824 H   0  0  0  0  0  0  0  0  0  0  0  0
  147.5640  132.8074  150.9512 H   0  0  0  0  0  0  0  0  0  0  0  0
  146.2538  130.8301  150.1625 H   0  0  0  0  0  0  0  0  0  0  0  0
  143.7916  130.7983  150.3056 H   0  0  0  0  0  0  0  0  0  0  0  0
  142.5310  132.7349  151.2424 H   0  0  0  0  0  0  0  0  0  0  0  0
  142.4286  138.2652  154.7664 H   0  0  0  0  0  0  0  0  0  0  0  0
  140.5875  139.8972  155.0501 H   0  0  0  0  0  0  0  0  0  0  0  0
  147.1481  135.4132  152.1294 H   0  0  0  0  0  0  0  0  0  0  0  0
  1  2  1  0  0  0  0
  1 23  1  0  0  0  0
  1 24  1  0  0  0  0
  1 25  1  0  0  0  0
  2  3  2  0  0  0  0
  2  4  2  0  0  0  0
  2  5  1  0  0  0  0
  5 22  1  0  0  0  0
  5  6  2  0  0  0  0
  6  7  1  0  0  0  0
  6 26  1  0  0  0  0
  7  8  2  0  0  0  0
  7 27  1  0  0  0  0
  8  9  1  0  0  0  0
  8 21  1  0  0  0  0
  9 10  1  0  0  0  0
  9 11  1  0  0  0  0
  9 28  1  0  0  0  0
 10 29  1  0  0  0  0
 11 12  1  0  0  0  0
 11 30  1  0  0  0  0
 11 31  1  0  0  0  0
 12 20  1  0  0  0  0
 12 13  1  0  0  0  0
 13 14  2  0  0  0  0
 13 32  1  0  0  0  0
 14 15  1  0  0  0  0
 14 39  1  0  0  0  0
 15 20  2  0  0  0  0
 15 16  1  0  0  0  0
 16 17  2  0  0  0  0
 16 33  1  0  0  0  0
 17 18  1  0  0  0  0
 17 34  1  0  0  0  0
 18 19  2  0  0  0  0
 18 35  1  0  0  0  0
 19 20  1  0  0  0  0
 19 36  1  0  0  0  0
 21 22  2  0  0  0  0
 21 37  1  0  0  0  0
 22 38  1  0  0  0  0
M  CHG  1  14   1
M  END
> <s_m_source_file>
AV-unprocessed.smi

> <i_m_source_file_index>
1946

> <i_lp_mmshare_version>
43012

> <i_f3d_flags>
0

> <s_epik_input>
W0NIM11TKD1PKSg9TyljMVtjSF1bY0hdYyhbY0hdW2NIXTEpW0NASF0oW09IXSlbQ0gyXW4oW2NIXW4yKWMoYzIzKVtjSF1bY0hdW2NIXVtjSF0z

> <s_epik_cmdline>
J2VwaWtfcHl0aG9uJywgJy1waCcsICc3LjAnLCAnLXRuJywgJzgnLCAnLW1hJywgJzIwMCcsICctbWV0YWxfYmluZGluZycsICctaW1hZScsICc8aW5maWxlLm1hZT4nLCAnLW9tYWUnLCAnPG91dGZpbGUubWFlPic=

> <r_epik_Ionization_Penalty>
1.3029

> <r_epik_Ionization_Penalty_Charging>
1.3029

> <r_epik_Ionization_Penalty_Neutral>
1.34362e-06

> <r_epik_State_Penalty>
1.377

> <r_epik_Charging_Adjusted_Penalty>
2.6799

> <i_epik_Tot_Q>
1

> <i_epik_Tot_abs_Q>
1

> <r_epik_Metal_State_Penalty>
5.40879

> <b_epik_Metal_Only>
0

> <s_lp_Force_Field>
OPLS_2005

> <r_lp_Energy>
16.9066

> <b_lp_Chiralities_Consistent>
1

> <s_lp_Variant>
AV-unprocessed.smi:1946-4

> <Gold.Version>
5.8.1

> <Gold.Id.Protein>
6NUR|6NUR_protein|mol2

> <Gold.PLP.Fitness>
48.3212

> <Gold.PLP.PLP>
-39.4503

> <Gold.PLP.part.hbond>
-3.0000

> <Gold.PLP.part.metal>
0.0000

> <Gold.PLP.part.buried>
-7.7526

> <Gold.PLP.part.nonpolar>
-29.0866

> <Gold.PLP.part.repulsive>
0.0201

> <Gold.PLP.ligand.clash>
0.0000

> <Gold.PLP.ligand.torsion>
1.5868

> <Gold.PLP.Chemscore.Hbond>
3.3321

> <Gold.PLP.Chemscore.CHOScore>
0.0000

> <Gold.PLP.Chemscore.Metal>
0.0000

> <Gold.Chemscore.Hbonds>
donor molecule, donor type, donor heavy atom, donor atom, acceptor molecule, acceptor atom, score
      L1  H    10    29       P1 10957  0.41
      L1  H    14    39       P1  7948  2.00
      P1  H 11000 11005       L1    10  0.91

> <Gold.PLP.Chemscore.Internal.Correction>
2.0482

> <Gold.Rescore>
     Score         DG    S(hbond)    S(metal)    S(lipo)     H(rot)  DE(clash)    DE(int)     intcor
     17.99     -19.51       2.30        0.00      98.84       2.04       0.08       1.44       ----

> <Gold.Chemscore.Fitness>
17.9940

> <Gold.Chemscore.DG>
-19.5125

> <Gold.Chemscore.ZeroCoef>
-5.4800

> <Gold.Chemscore.Hbond>
2.3013

> <Gold.Chemscore.Metal>
0.0000

> <Gold.Chemscore.Lipo>
98.8363

> <Gold.Chemscore.Internal_Hbond>
0.0000

> <Gold.Chemscore.DEClash>
0.0777

> <Gold.Chemscore.DEInternal>
1.4407

> <Gold.Chemscore.Rot>
2.0382

> <Gold.Chemscore.Internal.Correction>
   9.000000E+99

> <Gold.Chemscore.Hbonds>
donor molecule, donor type, donor heavy atom, donor atom, acceptor molecule, acceptor atom, score
      L1  H    10    29       P1 10957  0.39
      L1  H    14    39       P1  7948  0.98
      P1  H 11000 11005       L1    10  0.85

> <Gold.Chemscore.Hbond.Weighted>
-7.6863

> <Gold.Chemscore.Metal.Weighted>
-0.0000

> <Gold.Chemscore.Lipo.Weighted>
-11.5638

> <Gold.Chemscore.Internal_Hbond.Weighted>
0.0000

> <Gold.Chemscore.DEClash.Weighted>
0.0777

> <Gold.Chemscore.DEInternal.Weighted>
1.4407

> <Gold.Chemscore.Rot.Weighted>
5.2177

> <Gold.Chemscore.Internal.Correction.Weighted>
   9.000000E+99

> <Gold.Protein.RotatedTorsions>
[ 6907 6896 6895 6894 ] final   25.04 input  -60.11 | X-H torsion
[ 7974 7965 7964 7962 ] final -179.76 input  175.53 | X-H torsion
[ 8008 7997 7996 7995 ] final  110.98 input   59.86 | X-H torsion
[ 10167 10162 10161 10158 ] final  -30.32 input  -65.29 | X-H torsion
[ 10718 10713 10712 10709 ] final  149.65 input   66.30 | X-H torsion
[ 10763 10752 10751 10750 ] final   70.02 input  -60.55 | X-H torsion
[ 11005 11000 10999 10996 ] final   -7.47 input  -57.11 | X-H torsion

> <Gold.Protein.ActiveResidues>
 VAL166  LYS551  ARG553  GLY616  TRP617  ASP618  TYR619  PRO620  LYS621  CYS622 
 ASP623  PHE694  ASN695  SER759  ASP760  ASP761  ALA762  ILE779  LEU786  VAL792 
 PHE793  MET794  SER795  GLU796  ALA797  LYS798  CYS799  TRP800  GLU811  SER814 

> <Gold.Protein.RotatedAtoms>
  151.9665  135.0098  160.0550 H   0  0  0  0  0  0  0  0  0  0  0  0  # atno 6907 bound_to 6896
  152.1821  133.4710  159.4972 H   0  0  0  0  0  0  0  0  0  0  0  0  # atno 6908 bound_to 6896
  150.6919  134.1737  159.4265 H   0  0  0  0  0  0  0  0  0  0  0  0  # atno 6909 bound_to 6896
  144.7139  140.0669  143.6431 H   0  0  0  0  0  0  0  0  0  0  0  0  # atno 7974 bound_to 7965
  156.2091  140.3028  155.9693 H   0  0  0  0  0  0  0  0  0  0  0  0  # atno 8008 bound_to 7997
  155.2767  140.0436  157.3029 H   0  0  0  0  0  0  0  0  0  0  0  0  # atno 8009 bound_to 7997
  154.5675  140.2338  155.8250 H   0  0  0  0  0  0  0  0  0  0  0  0  # atno 8010 bound_to 7997
  140.7250  143.3858  151.1518 H   0  0  0  0  0  0  0  0  0  0  0  0  # atno 10167 bound_to 10162
  157.2934  131.0857  151.1445 H   0  0  0  0  0  0  0  0  0  0  0  0  # atno 10718 bound_to 10713
  153.0319  135.5189  154.7378 H   0  0  0  0  0  0  0  0  0  0  0  0  # atno 10763 bound_to 10752
  154.6386  135.2909  155.0133 H   0  0  0  0  0  0  0  0  0  0  0  0  # atno 10764 bound_to 10752
  154.1059  135.6629  153.4929 H   0  0  0  0  0  0  0  0  0  0  0  0  # atno 10765 bound_to 10752
  140.7131  133.8892  155.8765 H   0  0  0  0  0  0  0  0  0  0  0  0  # atno 11005 bound_to 11000
  145.9817  139.2946  143.1038 LP  0  0  0  0  0  0  0  0  0  0  0  0  # atno 17320 bound_to 7965
  145.9003  140.9247  143.0506 LP  0  0  0  0  0  0  0  0  0  0  0  0  # atno 17321 bound_to 7965
  139.7455  143.8859  152.3062 LP  0  0  0  0  0  0  0  0  0  0  0  0  # atno 17342 bound_to 10162
  139.8695  144.7076  150.9005 LP  0  0  0  0  0  0  0  0  0  0  0  0  # atno 17343 bound_to 10162
  157.2832  130.6760  149.6076 LP  0  0  0  0  0  0  0  0  0  0  0  0  # atno 17370 bound_to 10713
  155.9668  130.4443  150.5457 LP  0  0  0  0  0  0  0  0  0  0  0  0  # atno 17371 bound_to 10713
  141.0067  134.1076  157.4263 LP  0  0  0  0  0  0  0  0  0  0  0  0  # atno 17394 bound_to 11000
  139.8866  135.0083  156.6512 LP  0  0  0  0  0  0  0  0  0  0  0  0  # atno 17395 bound_to 11000

$$$$
