AV-unprocessed.smi:222|AV-procd|sdf|1702|dock9
  -GOLD-   2262020163D 1   1.00000     0.00000
 Structure written by MMmdl.
 59 61  0  0  0  0  0  0  0  0  1 V2000
  152.5045  142.6113  160.0162 C   0  0  0  0  0  0  0  0  0  0  0  0
  151.6147  141.8277  159.2374 O   0  0  0  0  0  0  0  0  0  0  0  0
  152.2198  141.1708  158.1308 C   0  0  0  0  0  0  0  0  0  0  0  0
  151.2003  140.4365  157.2357 C   0  0  0  0  0  0  0  0  0  0  0  0
  150.8555  139.1004  157.7373 N   0  0  0  0  0  0  0  0  0  0  0  0
  151.8997  138.0626  157.7244 C   0  0  0  0  0  0  0  0  0  0  0  0
  153.1159  138.3831  156.8272 C   0  0  0  0  0  0  0  0  0  0  0  0
  154.2378  138.4612  157.3321 O   0  0  0  0  0  0  0  0  0  0  0  0
  152.9133  138.5646  155.5022 N   0  0  0  0  0  0  0  0  0  0  0  0
  153.9889  138.8961  154.5642 C   0  0  0  0  0  0  0  0  0  0  0  0
  151.5714  138.4364  154.9290 C   0  0  0  0  0  0  0  0  0  0  0  0
  149.5604  138.7963  158.0597 C   0  0  0  0  0  0  0  0  0  0  0  0
  148.5630  139.5260  157.4899 N   0  0  0  0  0  0  0  0  0  0  0  0
  147.2803  139.2597  157.7452 C   0  0  0  0  0  0  0  0  0  0  0  0
  146.7680  138.3184  158.5365 N   0  0  0  0  0  0  0  0  0  0  0  0
  147.7519  137.5825  159.1259 C   0  0  0  0  0  0  0  0  0  0  0  0
  149.1575  137.7485  158.9471 C   0  0  0  0  0  0  0  0  0  0  0  0
  149.8288  136.8053  159.7193 N   0  0  0  0  0  0  0  0  0  0  0  0
  148.8849  136.1204  160.3011 C   0  0  0  0  0  0  0  0  0  0  0  0
  147.6043  136.5307  160.0149 N   0  0  0  0  0  0  0  0  0  0  0  0
  146.3690  135.9460  160.5185 C   0  0  0  0  0  0  0  0  0  0  0  0
  146.2065  135.9696  162.0716 C   0  0  0  0  0  0  0  0  0  0  0  0
  146.4036  137.4295  162.5664 C   0  0  0  0  0  0  0  0  0  0  0  0
  147.7596  137.8276  162.6215 O   0  0  0  0  0  0  0  0  0  0  0  0
  144.7851  135.4679  162.4365 C   0  0  0  0  0  0  0  0  0  0  0  0
  144.6118  133.9535  162.2082 C   0  0  0  0  0  0  0  0  0  0  0  0
  145.6072  133.2315  162.9234 O   0  0  0  0  0  0  0  0  0  0  0  0
  146.9310  133.5463  162.5090 C   0  0  0  0  0  0  0  0  0  0  0  0
  147.2217  135.0336  162.7776 C   0  0  0  0  0  0  0  0  0  0  0  0
  151.9651  143.0292  160.8661 H   0  0  0  0  0  0  0  0  0  0  0  0
  152.9190  143.4441  159.4492 H   0  0  0  0  0  0  0  0  0  0  0  0
  153.3255  142.0084  160.4058 H   0  0  0  0  0  0  0  0  0  0  0  0
  152.7897  141.8905  157.5417 H   0  0  0  0  0  0  0  0  0  0  0  0
  152.9472  140.4581  158.5195 H   0  0  0  0  0  0  0  0  0  0  0  0
  150.2902  141.0247  157.1246 H   0  0  0  0  0  0  0  0  0  0  0  0
  151.5926  140.3694  156.2202 H   0  0  0  0  0  0  0  0  0  0  0  0
  152.2786  137.9280  158.7378 H   0  0  0  0  0  0  0  0  0  0  0  0
  151.4512  137.1063  157.4615 H   0  0  0  0  0  0  0  0  0  0  0  0
  154.5940  139.7258  154.9317 H   0  0  0  0  0  0  0  0  0  0  0  0
  153.6106  139.1969  153.5869 H   0  0  0  0  0  0  0  0  0  0  0  0
  154.6400  138.0343  154.4136 H   0  0  0  0  0  0  0  0  0  0  0  0
  151.0914  137.5137  155.2592 H   0  0  0  0  0  0  0  0  0  0  0  0
  151.5798  138.4149  153.8391 H   0  0  0  0  0  0  0  0  0  0  0  0
  150.9469  139.2742  155.2412 H   0  0  0  0  0  0  0  0  0  0  0  0
  146.5628  139.8902  157.2417 H   0  0  0  0  0  0  0  0  0  0  0  0
  149.1004  135.2959  160.9648 H   0  0  0  0  0  0  0  0  0  0  0  0
  145.5360  136.4755  160.0540 H   0  0  0  0  0  0  0  0  0  0  0  0
  146.3144  134.9314  160.1279 H   0  0  0  0  0  0  0  0  0  0  0  0
  145.8892  138.1329  161.9118 H   0  0  0  0  0  0  0  0  0  0  0  0
  145.9766  137.5529  163.5622 H   0  0  0  0  0  0  0  0  0  0  0  0
  148.1476  137.4644  163.4030 H   0  0  0  0  0  0  0  0  0  0  0  0
  144.5749  135.6618  163.4886 H   0  0  0  0  0  0  0  0  0  0  0  0
  144.0300  136.0187  161.8746 H   0  0  0  0  0  0  0  0  0  0  0  0
  143.6324  133.6375  162.5676 H   0  0  0  0  0  0  0  0  0  0  0  0
  144.6478  133.6960  161.1496 H   0  0  0  0  0  0  0  0  0  0  0  0
  147.6271  132.9258  163.0735 H   0  0  0  0  0  0  0  0  0  0  0  0
  147.0688  133.2911  161.4581 H   0  0  0  0  0  0  0  0  0  0  0  0
  148.2458  135.2773  162.4978 H   0  0  0  0  0  0  0  0  0  0  0  0
  147.1740  135.1837  163.8566 H   0  0  0  0  0  0  0  0  0  0  0  0
  1  2  1  0  0  0  0
  1 30  1  0  0  0  0
  1 31  1  0  0  0  0
  1 32  1  0  0  0  0
  2  3  1  0  0  0  0
  3  4  1  0  0  0  0
  3 33  1  0  0  0  0
  3 34  1  0  0  0  0
  4  5  1  0  0  0  0
  4 35  1  0  0  0  0
  4 36  1  0  0  0  0
  5  6  1  0  0  0  0
  5 12  1  0  0  0  0
  6  7  1  0  0  0  0
  6 37  1  0  0  0  0
  6 38  1  0  0  0  0
  7  8  2  0  0  0  0
  7  9  1  0  0  0  0
  9 10  1  0  0  0  0
  9 11  1  0  0  0  0
 10 39  1  0  0  0  0
 10 40  1  0  0  0  0
 10 41  1  0  0  0  0
 11 42  1  0  0  0  0
 11 43  1  0  0  0  0
 11 44  1  0  0  0  0
 12 17  1  0  0  0  0
 12 13  2  0  0  0  0
 13 14  1  0  0  0  0
 14 15  2  0  0  0  0
 14 45  1  0  0  0  0
 15 16  1  0  0  0  0
 16 20  1  0  0  0  0
 16 17  2  0  0  0  0
 17 18  1  0  0  0  0
 18 19  2  0  0  0  0
 19 20  1  0  0  0  0
 19 46  1  0  0  0  0
 20 21  1  0  0  0  0
 21 22  1  0  0  0  0
 21 47  1  0  0  0  0
 21 48  1  0  0  0  0
 22 29  1  0  0  0  0
 22 23  1  0  0  0  0
 22 25  1  0  0  0  0
 23 24  1  0  0  0  0
 23 49  1  0  0  0  0
 23 50  1  0  0  0  0
 24 51  1  0  0  0  0
 25 26  1  0  0  0  0
 25 52  1  0  0  0  0
 25 53  1  0  0  0  0
 26 27  1  0  0  0  0
 26 54  1  0  0  0  0
 26 55  1  0  0  0  0
 27 28  1  0  0  0  0
 28 29  1  0  0  0  0
 28 56  1  0  0  0  0
 28 57  1  0  0  0  0
 29 58  1  0  0  0  0
 29 59  1  0  0  0  0
M  END
> <s_m_source_file>
AV-unprocessed.smi

> <i_m_source_file_index>
222

> <i_lp_mmshare_version>
43012

> <i_f3d_flags>
0

> <s_epik_input>
W0NIM11PW0NIMl1bQ0gyXU4oW0NIMl1DKD1PKU4oW0NIM10pW0NIM10pYyhuW2NIXW4xKWMoYzEyKW5bY0hdbjJbQ0gyXUMzKFtDSDJdW09IXSlbQ0gyXVtDSDJdT1tDSDJdW0NIMl0z

> <s_epik_cmdline>
J2VwaWtfcHl0aG9uJywgJy1waCcsICc3LjAnLCAnLXRuJywgJzgnLCAnLW1hJywgJzIwMCcsICctbWV0YWxfYmluZGluZycsICctaW1hZScsICc8aW5maWxlLm1hZT4nLCAnLW9tYWUnLCAnPG91dGZpbGUubWFlPic=

> <r_lp_tautomer_probability>
1

> <r_epik_Ionization_Penalty>
0.000796957

> <r_epik_Ionization_Penalty_Charging>
0

> <r_epik_Ionization_Penalty_Neutral>
0.000796957

> <r_epik_State_Penalty>
0.000428513

> <r_epik_Charging_Adjusted_Penalty>
0.000428513

> <i_epik_Tot_Q>
0

> <i_epik_Tot_abs_Q>
0

> <r_epik_Metal_State_Penalty>
-0

> <b_epik_Metal_Only>
0

> <s_lp_Force_Field>
OPLS_2005

> <r_lp_Energy>
34.6666

> <b_lp_Chiralities_Consistent>
1

> <s_lp_Variant>
AV-unprocessed.smi:222-1

> <Gold.Version>
5.8.1

> <Gold.Id.Protein>
6NUR|6NUR_protein|mol2

> <Gold.PLP.Fitness>
48.4045

> <Gold.PLP.PLP>
-43.7593

> <Gold.PLP.part.hbond>
-4.3199

> <Gold.PLP.part.metal>
0.0000

> <Gold.PLP.part.buried>
-4.8116

> <Gold.PLP.part.nonpolar>
-34.4775

> <Gold.PLP.part.repulsive>
0.0878

> <Gold.PLP.ligand.clash>
0.0000

> <Gold.PLP.ligand.torsion>
0.9756

> <Gold.PLP.Chemscore.Hbond>
2.0180

> <Gold.PLP.Chemscore.CHOScore>
0.0000

> <Gold.PLP.Chemscore.Metal>
0.0000

> <Gold.Chemscore.Hbonds>
donor molecule, donor type, donor heavy atom, donor atom, acceptor molecule, acceptor atom, score
      P1  H  6896  6908       L1    18  0.26
      P1  H  6931  6943       L1    24  0.39
      P1  H  6934  6947       L1    24  0.02
      P1  H  7997  8010       L1     8  0.72

> <Gold.PLP.Chemscore.Internal.Correction>
0.5425

> <Gold.Rescore>
     Score         DG    S(hbond)    S(metal)    S(lipo)     H(rot)  DE(clash)    DE(int)     intcor
     11.51     -12.95       1.60        0.00      94.53       3.49       0.07       1.37       ----

> <Gold.Chemscore.Fitness>
11.5083

> <Gold.Chemscore.DG>
-12.9468

> <Gold.Chemscore.ZeroCoef>
-5.4800

> <Gold.Chemscore.Hbond>
1.5992

> <Gold.Chemscore.Metal>
0.0000

> <Gold.Chemscore.Lipo>
94.5302

> <Gold.Chemscore.Internal_Hbond>
0.0000

> <Gold.Chemscore.DEClash>
0.0685

> <Gold.Chemscore.DEInternal>
1.3700

> <Gold.Chemscore.Rot>
3.4901

> <Gold.Chemscore.Internal.Correction>
   9.000000E+99

> <Gold.Chemscore.Hbonds>
donor molecule, donor type, donor heavy atom, donor atom, acceptor molecule, acceptor atom, score
      P1  H  6896  6908       L1    18  0.01
      P1  H  6931  6943       L1    24  0.07
      P1  H  7997  8010       L1     8  0.25

> <Gold.Chemscore.Hbond.Weighted>
-5.3414

> <Gold.Chemscore.Metal.Weighted>
-0.0000

> <Gold.Chemscore.Lipo.Weighted>
-11.0600

> <Gold.Chemscore.Internal_Hbond.Weighted>
0.0000

> <Gold.Chemscore.DEClash.Weighted>
0.0685

> <Gold.Chemscore.DEInternal.Weighted>
1.3700

> <Gold.Chemscore.Rot.Weighted>
8.9347

> <Gold.Chemscore.Internal.Correction.Weighted>
   9.000000E+99

> <Gold.Protein.RotatedTorsions>
[ 6907 6896 6895 6894 ] final -154.56 input  -60.11 | X-H torsion
[ 7974 7965 7964 7962 ] final -176.47 input  175.53 | X-H torsion
[ 8008 7997 7996 7995 ] final   33.96 input   59.86 | X-H torsion
[ 10167 10162 10161 10158 ] final -150.53 input  -65.29 | X-H torsion
[ 10718 10713 10712 10709 ] final  148.91 input   66.30 | X-H torsion
[ 10763 10752 10751 10750 ] final -121.83 input  -60.55 | X-H torsion
[ 11005 11000 10999 10996 ] final -146.40 input  -57.11 | X-H torsion

> <Gold.Protein.ActiveResidues>
 VAL166  LYS551  ARG553  GLY616  TRP617  ASP618  TYR619  PRO620  LYS621  CYS622 
 ASP623  PHE694  ASN695  SER759  ASP760  ASP761  ALA762  ILE779  LEU786  VAL792 
 PHE793  MET794  SER795  GLU796  ALA797  LYS798  CYS799  TRP800  GLU811  SER814 

> <Gold.Protein.RotatedAtoms>
  151.2593  133.4310  159.2615 H   0  0  0  0  0  0  0  0  0  0  0  0  # atno 6907 bound_to 6896
  151.0545  134.9696  159.8239 H   0  0  0  0  0  0  0  0  0  0  0  0  # atno 6908 bound_to 6896
  152.5388  134.2546  159.8964 H   0  0  0  0  0  0  0  0  0  0  0  0  # atno 6909 bound_to 6896
  144.7127  140.1164  143.6408 H   0  0  0  0  0  0  0  0  0  0  0  0  # atno 7974 bound_to 7965
  155.1470  140.3271  155.4439 H   0  0  0  0  0  0  0  0  0  0  0  0  # atno 8008 bound_to 7997
  156.2586  140.1983  156.6534 H   0  0  0  0  0  0  0  0  0  0  0  0  # atno 8009 bound_to 7997
  154.6500  140.0559  156.9931 H   0  0  0  0  0  0  0  0  0  0  0  0  # atno 8010 bound_to 7997
  139.7346  143.8756  152.2545 H   0  0  0  0  0  0  0  0  0  0  0  0  # atno 10167 bound_to 10162
  157.3027  131.0873  151.1377 H   0  0  0  0  0  0  0  0  0  0  0  0  # atno 10718 bound_to 10713
  154.8677  135.4154  154.2683 H   0  0  0  0  0  0  0  0  0  0  0  0  # atno 10763 bound_to 10752
  153.3598  135.7003  153.6727 H   0  0  0  0  0  0  0  0  0  0  0  0  # atno 10764 bound_to 10752
  153.5632  135.3606  155.2780 H   0  0  0  0  0  0  0  0  0  0  0  0  # atno 10765 bound_to 10752
  140.7824  134.3064  157.5041 H   0  0  0  0  0  0  0  0  0  0  0  0  # atno 11005 bound_to 11000
  145.9409  139.2668  143.1269 LP  0  0  0  0  0  0  0  0  0  0  0  0  # atno 17320 bound_to 7965
  145.9425  140.8969  143.0300 LP  0  0  0  0  0  0  0  0  0  0  0  0  # atno 17321 bound_to 7965
  139.8689  144.7079  150.9011 LP  0  0  0  0  0  0  0  0  0  0  0  0  # atno 17342 bound_to 10162
  140.7777  143.3755  151.1571 LP  0  0  0  0  0  0  0  0  0  0  0  0  # atno 17343 bound_to 10162
  157.2730  130.6713  149.6029 LP  0  0  0  0  0  0  0  0  0  0  0  0  # atno 17370 bound_to 10713
  155.9672  130.4473  150.5575 LP  0  0  0  0  0  0  0  0  0  0  0  0  # atno 17371 bound_to 10713
  139.8741  134.9326  156.3558 LP  0  0  0  0  0  0  0  0  0  0  0  0  # atno 17394 bound_to 11000
  140.9470  133.7476  156.0221 LP  0  0  0  0  0  0  0  0  0  0  0  0  # atno 17395 bound_to 11000

$$$$
