AV-unprocessed.smi:177|AV-procd|sdf|1443|dock2
  -GOLD-   2262019233D 1   1.00000     0.00000
 Structure written by MMmdl.
 61 65  0  0  0  0  0  0  0  0  1 V2000
  152.1916  144.9432  158.5085 C   0  0  0  0  0  0  0  0  0  0  0  0
  152.2125  143.5398  158.2963 O   0  0  0  0  0  0  0  0  0  0  0  0
  151.4327  142.7836  159.2177 C   0  0  2  0  0  0  0  0  0  0  0  0
  151.9742  143.0629  160.6322 C   0  0  0  0  0  0  0  0  0  0  0  0
  153.3818  142.4764  160.8368 C   0  0  0  0  0  0  0  0  0  0  0  0
  153.4094  140.9753  160.5105 C   0  0  2  0  0  0  0  0  0  0  0  0
  154.7408  140.4914  160.6550 O   0  0  0  0  0  0  0  0  0  0  0  0
  154.8210  139.0864  160.4399 C   0  0  0  0  0  0  0  0  0  0  0  0
  154.3684  138.7589  159.0080 C   0  0  0  0  0  0  0  0  0  0  0  0
  153.0311  139.2877  158.7637 N   0  0  0  0  0  0  0  0  0  0  0  0
  152.5546  138.8714  157.5680 C   0  0  0  0  0  0  0  0  0  0  0  0
  152.9228  139.5910  156.4798 N   0  0  0  0  0  0  0  0  0  0  0  0
  152.5007  139.2294  155.2648 C   0  0  0  0  0  0  0  0  0  0  0  0
  151.7144  138.2062  154.9247 N   0  0  0  0  0  0  0  0  0  0  0  0
  151.3243  137.4910  156.0187 C   0  0  0  0  0  0  0  0  0  0  0  0
  151.6956  137.7518  157.3682 C   0  0  0  0  0  0  0  0  0  0  0  0
  151.1106  136.8121  158.2075 N   0  0  0  0  0  0  0  0  0  0  0  0
  150.4459  136.0323  157.4009 C   0  0  0  0  0  0  0  0  0  0  0  0
  150.5015  136.3776  156.0690 N   0  0  0  0  0  0  0  0  0  0  0  0
  149.8564  135.6815  154.9635 C   0  0  0  0  0  0  0  0  0  0  0  0
  148.8067  134.6017  155.3803 C   0  0  0  0  0  0  0  0  0  0  0  0
  147.7312  135.2161  156.3149 C   0  0  0  0  0  0  0  0  0  0  0  0
  147.0417  136.2887  155.7042 O   0  0  0  0  0  0  0  0  0  0  0  0
  148.1199  134.0093  154.1237 C   0  0  0  0  0  0  0  0  0  0  0  0
  149.0513  133.0953  153.3044 C   0  0  0  0  0  0  0  0  0  0  0  0
  149.5695  132.0574  154.1267 O   0  0  0  0  0  0  0  0  0  0  0  0
  150.3417  132.5470  155.2153 C   0  0  0  0  0  0  0  0  0  0  0  0
  149.4570  133.4113  156.1308 C   0  0  0  0  0  0  0  0  0  0  0  0
  152.9222  140.7175  159.0664 C   0  0  1  0  0  0  0  0  0  0  0  0
  151.4875  141.2729  158.9039 C   0  0  0  0  0  0  0  0  0  0  0  0
  152.8665  145.4232  157.8003 H   0  0  0  0  0  0  0  0  0  0  0  0
  152.5283  145.1978  159.5140 H   0  0  0  0  0  0  0  0  0  0  0  0
  151.2003  145.3673  158.3518 H   0  0  0  0  0  0  0  0  0  0  0  0
  150.3985  143.1291  159.1757 H   0  0  0  0  0  0  0  0  0  0  0  0
  151.9855  144.1363  160.8234 H   0  0  0  0  0  0  0  0  0  0  0  0
  151.2964  142.6286  161.3683 H   0  0  0  0  0  0  0  0  0  0  0  0
  154.0948  143.0041  160.2018 H   0  0  0  0  0  0  0  0  0  0  0  0
  153.7044  142.6396  161.8654 H   0  0  0  0  0  0  0  0  0  0  0  0
  152.7641  140.4523  161.2194 H   0  0  0  0  0  0  0  0  0  0  0  0
  155.8502  138.7618  160.5929 H   0  0  0  0  0  0  0  0  0  0  0  0
  154.2079  138.5584  161.1718 H   0  0  0  0  0  0  0  0  0  0  0  0
  155.0665  139.1918  158.2895 H   0  0  0  0  0  0  0  0  0  0  0  0
  154.3797  137.6784  158.8563 H   0  0  0  0  0  0  0  0  0  0  0  0
  152.8424  139.8476  154.4479 H   0  0  0  0  0  0  0  0  0  0  0  0
  149.8866  135.1817  157.7614 H   0  0  0  0  0  0  0  0  0  0  0  0
  149.3912  136.4297  154.3205 H   0  0  0  0  0  0  0  0  0  0  0  0
  150.6483  135.2429  154.3583 H   0  0  0  0  0  0  0  0  0  0  0  0
  146.9914  134.4656  156.5958 H   0  0  0  0  0  0  0  0  0  0  0  0
  148.1755  135.5679  157.2461 H   0  0  0  0  0  0  0  0  0  0  0  0
  147.0183  136.1399  154.7712 H   0  0  0  0  0  0  0  0  0  0  0  0
  147.2516  133.4225  154.4268 H   0  0  0  0  0  0  0  0  0  0  0  0
  147.7366  134.8059  153.4849 H   0  0  0  0  0  0  0  0  0  0  0  0
  148.4942  132.6411  152.4848 H   0  0  0  0  0  0  0  0  0  0  0  0
  149.8672  133.6560  152.8479 H   0  0  0  0  0  0  0  0  0  0  0  0
  150.7321  131.6960  155.7734 H   0  0  0  0  0  0  0  0  0  0  0  0
  151.2051  133.1014  154.8468 H   0  0  0  0  0  0  0  0  0  0  0  0
  150.0244  133.7501  156.9966 H   0  0  0  0  0  0  0  0  0  0  0  0
  148.6740  132.7677  156.5350 H   0  0  0  0  0  0  0  0  0  0  0  0
  153.5871  141.2597  158.3942 H   0  0  0  0  0  0  0  0  0  0  0  0
  150.8170  140.7412  159.5803 H   0  0  0  0  0  0  0  0  0  0  0  0
  151.0990  141.0878  157.9040 H   0  0  0  0  0  0  0  0  0  0  0  0
  1  2  1  0  0  0  0
  1 31  1  0  0  0  0
  1 32  1  0  0  0  0
  1 33  1  0  0  0  0
  2  3  1  0  0  0  0
  3 30  1  0  0  0  0
  3  4  1  0  0  0  0
  3 34  1  0  0  0  0
  4  5  1  0  0  0  0
  4 35  1  0  0  0  0
  4 36  1  0  0  0  0
  5  6  1  0  0  0  0
  5 37  1  0  0  0  0
  5 38  1  0  0  0  0
  6 29  1  0  0  0  0
  6  7  1  0  0  0  0
  6 39  1  0  0  0  0
  7  8  1  0  0  0  0
  8  9  1  0  0  0  0
  8 40  1  0  0  0  0
  8 41  1  0  0  0  0
  9 10  1  0  0  0  0
  9 42  1  0  0  0  0
  9 43  1  0  0  0  0
 10 11  1  0  0  0  0
 10 29  1  0  0  0  0
 11 16  1  0  0  0  0
 11 12  2  0  0  0  0
 12 13  1  0  0  0  0
 13 14  2  0  0  0  0
 13 44  1  0  0  0  0
 14 15  1  0  0  0  0
 15 19  1  0  0  0  0
 15 16  2  0  0  0  0
 16 17  1  0  0  0  0
 17 18  2  0  0  0  0
 18 19  1  0  0  0  0
 18 45  1  0  0  0  0
 19 20  1  0  0  0  0
 20 21  1  0  0  0  0
 20 46  1  0  0  0  0
 20 47  1  0  0  0  0
 21 28  1  0  0  0  0
 21 22  1  0  0  0  0
 21 24  1  0  0  0  0
 22 23  1  0  0  0  0
 22 48  1  0  0  0  0
 22 49  1  0  0  0  0
 23 50  1  0  0  0  0
 24 25  1  0  0  0  0
 24 51  1  0  0  0  0
 24 52  1  0  0  0  0
 25 26  1  0  0  0  0
 25 53  1  0  0  0  0
 25 54  1  0  0  0  0
 26 27  1  0  0  0  0
 27 28  1  0  0  0  0
 27 55  1  0  0  0  0
 27 56  1  0  0  0  0
 28 57  1  0  0  0  0
 28 58  1  0  0  0  0
 29 30  1  0  0  0  0
 29 59  1  0  0  0  0
 30 60  1  0  0  0  0
 30 61  1  0  0  0  0
M  END
> <s_m_source_file>
AV-unprocessed.smi

> <i_m_source_file_index>
177

> <i_lp_mmshare_version>
43012

> <i_f3d_flags>
0

> <s_epik_input>
W0NIM11PW0NASF0oW0NIMl1bQ0gyXTEpW0NIMl1bQ0BIXShbQ0BASF0xMilOKFtDSDJdW0NIMl1PMiljKG5bY0hdbjMpYyhjMzQpbltjSF1uNFtDSDJdQzUoW0NIMl1bT0hdKVtDSDJdW0NIMl1PW0NIMl1bQ0gyXTU=

> <s_epik_cmdline>
J2VwaWtfcHl0aG9uJywgJy1waCcsICc3LjAnLCAnLXRuJywgJzgnLCAnLW1hJywgJzIwMCcsICctbWV0YWxfYmluZGluZycsICctaW1hZScsICc8aW5maWxlLm1hZT4nLCAnLW9tYWUnLCAnPG91dGZpbGUubWFlPic=

> <r_lp_tautomer_probability>
1

> <r_epik_Ionization_Penalty>
0.0065899

> <r_epik_Ionization_Penalty_Charging>
0

> <r_epik_Ionization_Penalty_Neutral>
0.0065899

> <r_epik_State_Penalty>
0.00470042

> <r_epik_Charging_Adjusted_Penalty>
0.00470042

> <i_epik_Tot_Q>
0

> <i_epik_Tot_abs_Q>
0

> <r_epik_Metal_State_Penalty>
-0

> <b_epik_Metal_Only>
0

> <s_lp_Force_Field>
OPLS_2005

> <r_lp_Energy>
42.7066

> <b_lp_Chiralities_Consistent>
1

> <s_lp_Variant>
AV-unprocessed.smi:177-7

> <Gold.Version>
5.8.1

> <Gold.Id.Protein>
6NUR|6NUR_protein|mol2

> <Gold.PLP.Fitness>
44.7944

> <Gold.PLP.PLP>
-42.8227

> <Gold.PLP.part.hbond>
-1.4119

> <Gold.PLP.part.metal>
0.0000

> <Gold.PLP.part.buried>
-6.2165

> <Gold.PLP.part.nonpolar>
-35.6835

> <Gold.PLP.part.repulsive>
0.1684

> <Gold.PLP.ligand.clash>
0.0000

> <Gold.PLP.ligand.torsion>
0.5977

> <Gold.PLP.Chemscore.Hbond>
1.0000

> <Gold.PLP.Chemscore.CHOScore>
0.0000

> <Gold.PLP.Chemscore.Metal>
0.0000

> <Gold.Chemscore.Hbonds>
donor molecule, donor type, donor heavy atom, donor atom, acceptor molecule, acceptor atom, score
      P1  H  7997  8009       L1    12  1.00

> <Gold.PLP.Chemscore.Internal.Correction>
0.1671

> <Gold.Rescore>
     Score         DG    S(hbond)    S(metal)    S(lipo)     H(rot)  DE(clash)    DE(int)     intcor
     13.14     -14.85       0.76        0.00     114.73       2.58       0.00       1.70       ----

> <Gold.Chemscore.Fitness>
13.1437

> <Gold.Chemscore.DG>
-14.8455

> <Gold.Chemscore.ZeroCoef>
-5.4800

> <Gold.Chemscore.Hbond>
0.7629

> <Gold.Chemscore.Metal>
0.0000

> <Gold.Chemscore.Lipo>
114.7317

> <Gold.Chemscore.Internal_Hbond>
0.0000

> <Gold.Chemscore.DEClash>
0.0021

> <Gold.Chemscore.DEInternal>
1.6997

> <Gold.Chemscore.Rot>
2.5806

> <Gold.Chemscore.Internal.Correction>
   9.000000E+99

> <Gold.Chemscore.Hbonds>
donor molecule, donor type, donor heavy atom, donor atom, acceptor molecule, acceptor atom, score
      P1  H  7997  8009       L1    12  0.46

> <Gold.Chemscore.Hbond.Weighted>
-2.5481

> <Gold.Chemscore.Metal.Weighted>
-0.0000

> <Gold.Chemscore.Lipo.Weighted>
-13.4236

> <Gold.Chemscore.Internal_Hbond.Weighted>
0.0000

> <Gold.Chemscore.DEClash.Weighted>
0.0021

> <Gold.Chemscore.DEInternal.Weighted>
1.6997

> <Gold.Chemscore.Rot.Weighted>
6.6062

> <Gold.Chemscore.Internal.Correction.Weighted>
   9.000000E+99

> <Gold.Protein.RotatedTorsions>
[ 6907 6896 6895 6894 ] final  -75.06 input  -60.11 | X-H torsion
[ 7974 7965 7964 7962 ] final  141.46 input  175.53 | X-H torsion
[ 8008 7997 7996 7995 ] final -156.32 input   59.86 | X-H torsion
[ 10167 10162 10161 10158 ] final  151.31 input  -65.29 | X-H torsion
[ 10718 10713 10712 10709 ] final  -18.27 input   66.30 | X-H torsion
[ 10763 10752 10751 10750 ] final   61.00 input  -60.55 | X-H torsion
[ 11005 11000 10999 10996 ] final   71.93 input  -57.11 | X-H torsion

> <Gold.Protein.ActiveResidues>
 VAL166  LYS551  ARG553  GLY616  TRP617  ASP618  TYR619  PRO620  LYS621  CYS622 
 ASP623  PHE694  ASN695  SER759  ASP760  ASP761  ALA762  ILE779  LEU786  VAL792 
 PHE793  MET794  SER795  GLU796  ALA797  LYS798  CYS799  TRP800  GLU811  SER814 

> <Gold.Protein.RotatedAtoms>
  150.7072  134.4777  159.5455 H   0  0  0  0  0  0  0  0  0  0  0  0  # atno 6907 bound_to 6896
  152.2421  134.8215  160.0468 H   0  0  0  0  0  0  0  0  0  0  0  0  # atno 6908 bound_to 6896
  151.8993  133.3499  159.3862 H   0  0  0  0  0  0  0  0  0  0  0  0  # atno 6909 bound_to 6896
  144.9094  139.5313  143.5716 H   0  0  0  0  0  0  0  0  0  0  0  0  # atno 7974 bound_to 7965
  155.7154  140.0783  157.2353 H   0  0  0  0  0  0  0  0  0  0  0  0  # atno 8008 bound_to 7997
  154.4052  140.1622  156.2397 H   0  0  0  0  0  0  0  0  0  0  0  0  # atno 8009 bound_to 7997
  155.9245  140.3395  155.6202 H   0  0  0  0  0  0  0  0  0  0  0  0  # atno 8010 bound_to 7997
  139.4842  144.5451  151.7497 H   0  0  0  0  0  0  0  0  0  0  0  0  # atno 10167 bound_to 10162
  156.5619  130.4728  149.6402 H   0  0  0  0  0  0  0  0  0  0  0  0  # atno 10718 bound_to 10713
  152.9937  135.5516  154.5963 H   0  0  0  0  0  0  0  0  0  0  0  0  # atno 10763 bound_to 10752
  154.5314  135.2814  155.1179 H   0  0  0  0  0  0  0  0  0  0  0  0  # atno 10764 bound_to 10752
  154.2493  135.6402  153.5287 H   0  0  0  0  0  0  0  0  0  0  0  0  # atno 10765 bound_to 10752
  139.9517  134.7215  156.0846 H   0  0  0  0  0  0  0  0  0  0  0  0  # atno 11005 bound_to 11000
  146.3151  139.7888  142.8990 LP  0  0  0  0  0  0  0  0  0  0  0  0  # atno 17320 bound_to 7965
  145.3480  141.0301  143.3355 LP  0  0  0  0  0  0  0  0  0  0  0  0  # atno 17321 bound_to 7965
  140.4997  144.1188  150.5968 LP  0  0  0  0  0  0  0  0  0  0  0  0  # atno 17342 bound_to 10162
  140.4077  143.2672  151.9871 LP  0  0  0  0  0  0  0  0  0  0  0  0  # atno 17343 bound_to 10162
  156.2791  130.7060  151.1880 LP  0  0  0  0  0  0  0  0  0  0  0  0  # atno 17370 bound_to 10713
  157.7366  131.0560  150.5401 LP  0  0  0  0  0  0  0  0  0  0  0  0  # atno 17371 bound_to 10713
  141.1181  133.6621  156.3146 LP  0  0  0  0  0  0  0  0  0  0  0  0  # atno 17394 bound_to 11000
  140.5703  134.5847  157.5456 LP  0  0  0  0  0  0  0  0  0  0  0  0  # atno 17395 bound_to 11000

$$$$
