AV-unprocessed.smi:2371|AV-procd|sdf|9436|dock1
  -GOLD-   2272013 63D 1   1.00000     0.00000
 Structure written by MMmdl.
 35 36  0  0  0  0  0  0  0  0  1 V2000
  150.7755  140.5813  155.3056 C   0  0  0  0  0  0  0  0  0  0  0  0
  149.4845  140.5010  154.6176 N   0  0  0  0  0  0  0  0  0  0  0  0
  148.6988  141.6652  154.5716 C   0  0  0  0  0  0  0  0  0  0  0  0
  147.5039  141.6837  153.9650 C   0  0  0  0  0  0  0  0  0  0  0  0
  147.0290  140.4687  153.3477 C   0  0  0  0  0  0  0  0  0  0  0  0
  147.7749  139.3355  153.3734 C   0  0  0  0  0  0  0  0  0  0  0  0
  147.3846  138.1105  152.8051 N   0  0  0  0  0  0  0  0  0  0  0  0
  146.1489  137.6036  152.6395 C   0  0  0  0  0  0  0  0  0  0  0  0
  145.0951  138.1601  152.9465 O   0  0  0  0  0  0  0  0  0  0  0  0
  146.2025  136.3962  152.0601 N   0  0  0  0  0  0  0  0  0  0  0  0
  145.0499  135.5737  151.7059 C   0  0  0  0  0  0  0  0  0  0  0  0
  145.2796  134.0911  152.0466 C   0  0  2  0  0  0  0  0  0  0  0  0
  146.2378  133.3498  151.1131 C   0  0  0  0  0  0  0  0  0  0  0  0
  145.7863  131.9187  151.2896 C   0  0  0  0  0  0  0  0  0  0  0  0
  144.2726  132.0820  151.3915 C   0  0  0  0  0  0  0  0  0  0  0  0
  144.0526  133.3707  151.9606 O   0  0  0  0  0  0  0  0  0  0  0  0
  149.0838  139.3218  154.0554 C   0  0  0  0  0  0  0  0  0  0  0  0
  149.7889  138.3118  154.1214 O   0  0  0  0  0  0  0  0  0  0  0  0
  150.9993  141.5862  155.6652 H   0  0  0  0  0  0  0  0  0  0  0  0
  151.5871  140.2897  154.6372 H   0  0  0  0  0  0  0  0  0  0  0  0
  150.7895  139.9146  156.1690 H   0  0  0  0  0  0  0  0  0  0  0  0
  149.1232  142.5323  155.0562 H   0  0  0  0  0  0  0  0  0  0  0  0
  146.9107  142.5858  153.9380 H   0  0  0  0  0  0  0  0  0  0  0  0
  146.0561  140.4997  152.8846 H   0  0  0  0  0  0  0  0  0  0  0  0
  148.1464  137.5603  152.4352 H   0  0  0  0  0  0  0  0  0  0  0  0
  147.1117  136.0181  151.8372 H   0  0  0  0  0  0  0  0  0  0  0  0
  144.1944  135.9458  152.2700 H   0  0  0  0  0  0  0  0  0  0  0  0
  144.7912  135.6890  150.6519 H   0  0  0  0  0  0  0  0  0  0  0  0
  145.6376  133.9974  153.0731 H   0  0  0  0  0  0  0  0  0  0  0  0
  146.0873  133.6615  150.0785 H   0  0  0  0  0  0  0  0  0  0  0  0
  147.2866  133.5030  151.3686 H   0  0  0  0  0  0  0  0  0  0  0  0
  146.0921  131.2662  150.4713 H   0  0  0  0  0  0  0  0  0  0  0  0
  146.1854  131.5124  152.2201 H   0  0  0  0  0  0  0  0  0  0  0  0
  143.8197  132.0618  150.3996 H   0  0  0  0  0  0  0  0  0  0  0  0
  143.8101  131.2974  151.9905 H   0  0  0  0  0  0  0  0  0  0  0  0
  1  2  1  0  0  0  0
  1 19  1  0  0  0  0
  1 20  1  0  0  0  0
  1 21  1  0  0  0  0
  2 17  1  0  0  0  0
  2  3  1  0  0  0  0
  3  4  2  0  0  0  0
  3 22  1  0  0  0  0
  4  5  1  0  0  0  0
  4 23  1  0  0  0  0
  5  6  2  0  0  0  0
  5 24  1  0  0  0  0
  6  7  1  0  0  0  0
  6 17  1  0  0  0  0
  7  8  1  0  0  0  0
  7 25  1  0  0  0  0
  8  9  2  0  0  0  0
  8 10  1  0  0  0  0
 10 11  1  0  0  0  0
 10 26  1  0  0  0  0
 11 12  1  0  0  0  0
 11 27  1  0  0  0  0
 11 28  1  0  0  0  0
 12 16  1  0  0  0  0
 12 13  1  0  0  0  0
 12 29  1  0  0  0  0
 13 14  1  0  0  0  0
 13 30  1  0  0  0  0
 13 31  1  0  0  0  0
 14 15  1  0  0  0  0
 14 32  1  0  0  0  0
 14 33  1  0  0  0  0
 15 16  1  0  0  0  0
 15 34  1  0  0  0  0
 15 35  1  0  0  0  0
 17 18  2  0  0  0  0
M  END
> <s_m_source_file>
AV-unprocessed.smi

> <i_m_source_file_index>
2371

> <i_lp_mmshare_version>
43012

> <i_f3d_flags>
0

> <s_epik_input>
W0NIM11uMVtjSF1bY0hdW2NIXWMoYzE9TylbTkhdQyg9TylbTkhdW0NIMl1bQ0BASF0yW0NIMl1bQ0gyXVtDSDJdTzI=

> <s_epik_cmdline>
J2VwaWtfcHl0aG9uJywgJy1waCcsICc3LjAnLCAnLXRuJywgJzgnLCAnLW1hJywgJzIwMCcsICctbWV0YWxfYmluZGluZycsICctaW1hZScsICc8aW5maWxlLm1hZT4nLCAnLW9tYWUnLCAnPG91dGZpbGUubWFlPic=

> <r_lp_tautomer_probability>
1

> <r_epik_Ionization_Penalty>
2.36512e-05

> <r_epik_Ionization_Penalty_Charging>
4.84074e-06

> <r_epik_Ionization_Penalty_Neutral>
1.88105e-05

> <r_epik_State_Penalty>
-0

> <r_epik_Charging_Adjusted_Penalty>
4.84074e-06

> <i_epik_Tot_Q>
0

> <i_epik_Tot_abs_Q>
0

> <r_epik_Metal_State_Penalty>
-0

> <b_epik_Metal_Only>
0

> <s_lp_Force_Field>
OPLS_2005

> <r_lp_Energy>
29.8245

> <b_lp_Chiralities_Consistent>
1

> <s_lp_Variant>
AV-unprocessed.smi:2371-1

> <Gold.Version>
5.8.1

> <Gold.Id.Protein>
6NUR|6NUR_protein|mol2

> <Gold.PLP.Fitness>
40.1413

> <Gold.PLP.PLP>
-31.9408

> <Gold.PLP.part.hbond>
-2.3989

> <Gold.PLP.part.metal>
0.0000

> <Gold.PLP.part.buried>
-1.8797

> <Gold.PLP.part.nonpolar>
-31.6515

> <Gold.PLP.part.repulsive>
4.0177

> <Gold.PLP.ligand.clash>
0.0000

> <Gold.PLP.ligand.torsion>
0.4050

> <Gold.PLP.Chemscore.Hbond>
2.0000

> <Gold.PLP.Chemscore.CHOScore>
1.0000

> <Gold.PLP.Chemscore.Metal>
0.0000

> <Gold.Chemscore.Hbonds>
donor molecule, donor type, donor heavy atom, donor atom, acceptor molecule, acceptor atom, score
      L1  H     7    25       P1  7948  1.00
      L1  H    10    26       P1  7948  0.99
      L1  C     3    22       P1  8028  1.00

> <Gold.PLP.Chemscore.Internal.Correction>
0.0106

> <Gold.Rescore>
     Score         DG    S(hbond)    S(metal)    S(lipo)     H(rot)  DE(clash)    DE(int)     intcor
     14.21     -15.79       1.92        0.00      60.72       1.25       0.22       1.36       ----

> <Gold.Chemscore.Fitness>
14.2093

> <Gold.Chemscore.DG>
-15.7890

> <Gold.Chemscore.ZeroCoef>
-5.4800

> <Gold.Chemscore.Hbond>
1.9158

> <Gold.Chemscore.Metal>
0.0000

> <Gold.Chemscore.Lipo>
60.7230

> <Gold.Chemscore.Internal_Hbond>
0.0000

> <Gold.Chemscore.DEClash>
0.2235

> <Gold.Chemscore.DEInternal>
1.3562

> <Gold.Chemscore.Rot>
1.2478

> <Gold.Chemscore.Internal.Correction>
   9.000000E+99

> <Gold.Chemscore.Hbonds>
donor molecule, donor type, donor heavy atom, donor atom, acceptor molecule, acceptor atom, score
      L1  H     7    25       P1  7948  0.99
      L1  H    10    26       P1  7948  0.93

> <Gold.Chemscore.Hbond.Weighted>
-6.3988

> <Gold.Chemscore.Metal.Weighted>
-0.0000

> <Gold.Chemscore.Lipo.Weighted>
-7.1046

> <Gold.Chemscore.Internal_Hbond.Weighted>
0.0000

> <Gold.Chemscore.DEClash.Weighted>
0.2235

> <Gold.Chemscore.DEInternal.Weighted>
1.3562

> <Gold.Chemscore.Rot.Weighted>
3.1944

> <Gold.Chemscore.Internal.Correction.Weighted>
   9.000000E+99

> <Gold.Protein.RotatedTorsions>
[ 6907 6896 6895 6894 ] final  -31.63 input  -60.11 | X-H torsion
[ 7974 7965 7964 7962 ] final  -73.85 input  175.53 | X-H torsion
[ 8008 7997 7996 7995 ] final   86.91 input   59.86 | X-H torsion
[ 10167 10162 10161 10158 ] final  -78.46 input  -65.29 | X-H torsion
[ 10718 10713 10712 10709 ] final   -4.29 input   66.30 | X-H torsion
[ 10763 10752 10751 10750 ] final -106.54 input  -60.55 | X-H torsion
[ 11005 11000 10999 10996 ] final  108.28 input  -57.11 | X-H torsion

> <Gold.Protein.ActiveResidues>
 VAL166  LYS551  ARG553  GLY616  TRP617  ASP618  TYR619  PRO620  LYS621  CYS622 
 ASP623  PHE694  ASN695  SER759  ASP760  ASP761  ALA762  ILE779  LEU786  VAL792 
 PHE793  MET794  SER795  GLU796  ALA797  LYS798  CYS799  TRP800  GLU811  SER814 

> <Gold.Protein.RotatedAtoms>
  151.0895  134.9907  159.8395 H   0  0  0  0  0  0  0  0  0  0  0  0  # atno 6907 bound_to 6896
  152.5427  134.2083  159.8750 H   0  0  0  0  0  0  0  0  0  0  0  0  # atno 6908 bound_to 6896
  151.2118  133.4507  159.2632 H   0  0  0  0  0  0  0  0  0  0  0  0  # atno 6909 bound_to 6896
  145.6468  140.9294  143.1006 H   0  0  0  0  0  0  0  0  0  0  0  0  # atno 7974 bound_to 7965
  155.9688  140.3387  155.6557 H   0  0  0  0  0  0  0  0  0  0  0  0  # atno 8008 bound_to 7997
  155.6702  140.0726  157.2541 H   0  0  0  0  0  0  0  0  0  0  0  0  # atno 8009 bound_to 7997
  154.4161  140.1693  156.1858 H   0  0  0  0  0  0  0  0  0  0  0  0  # atno 8010 bound_to 7997
  140.4680  143.2434  151.8248 H   0  0  0  0  0  0  0  0  0  0  0  0  # atno 10167 bound_to 10162
  156.7634  130.5277  149.5781 H   0  0  0  0  0  0  0  0  0  0  0  0  # atno 10718 bound_to 10713
  154.8019  135.4708  154.0296 H   0  0  0  0  0  0  0  0  0  0  0  0  # atno 10763 bound_to 10752
  153.1795  135.6838  153.8504 H   0  0  0  0  0  0  0  0  0  0  0  0  # atno 10764 bound_to 10752
  153.8060  135.3223  155.3373 H   0  0  0  0  0  0  0  0  0  0  0  0  # atno 10765 bound_to 10752
  139.8841  134.9426  156.5948 H   0  0  0  0  0  0  0  0  0  0  0  0  # atno 11005 bound_to 11000
  144.7137  139.8275  143.7406 LP  0  0  0  0  0  0  0  0  0  0  0  0  # atno 17320 bound_to 7965
  146.1236  139.4258  143.0213 LP  0  0  0  0  0  0  0  0  0  0  0  0  # atno 17321 bound_to 7965
  139.4814  144.4926  151.9165 LP  0  0  0  0  0  0  0  0  0  0  0  0  # atno 17342 bound_to 10162
  140.4012  144.2491  150.5893 LP  0  0  0  0  0  0  0  0  0  0  0  0  # atno 17343 bound_to 10162
  156.1324  130.6187  151.0352 LP  0  0  0  0  0  0  0  0  0  0  0  0  # atno 17370 bound_to 10713
  157.6724  131.0858  150.7579 LP  0  0  0  0  0  0  0  0  0  0  0  0  # atno 17371 bound_to 10713
  140.7928  133.8568  155.8660 LP  0  0  0  0  0  0  0  0  0  0  0  0  # atno 17394 bound_to 11000
  140.9662  134.1591  157.4614 LP  0  0  0  0  0  0  0  0  0  0  0  0  # atno 17395 bound_to 11000

$$$$
