AV-unprocessed.smi:1|AV-procd|sdf|3|dock7
  -GOLD-   2262015 83D 1   1.00000     0.00000
 Structure written by MMmdl.
 57 62  0  0  0  0  0  0  0  0  1 V2000
  152.9421  140.2589  157.9893 O   0  0  0  0  0  0  0  0  0  0  0  0
  152.0072  141.0379  158.1773 C   0  0  0  0  0  0  0  0  0  0  0  0
  150.7602  140.9422  157.4395 N   0  0  0  0  0  0  0  0  0  0  0  0
  150.4526  140.1023  156.4236 C   0  0  0  0  0  0  0  0  0  0  0  0
  150.8901  140.3045  155.1531 N   0  0  0  0  0  0  0  0  0  0  0  0
  150.5553  139.4494  154.1830 C   0  0  0  0  0  0  0  0  0  0  0  0
  149.8031  138.3508  154.2646 N   0  0  0  0  0  0  0  0  0  0  0  0
  149.3534  138.1414  155.5368 C   0  0  0  0  0  0  0  0  0  0  0  0
  149.6339  138.9677  156.6610 C   0  0  0  0  0  0  0  0  0  0  0  0
  149.0118  138.4534  157.7909 N   0  0  0  0  0  0  0  0  0  0  0  0
  148.3933  137.3896  157.3542 C   0  0  0  0  0  0  0  0  0  0  0  0
  148.5373  137.1306  156.0093 N   0  0  0  0  0  0  0  0  0  0  0  0
  147.9273  136.0031  155.2349 C   0  0  2  0  0  0  0  0  0  0  0  0
  146.9284  135.4230  156.0164 O   0  0  0  0  0  0  0  0  0  0  0  0
  146.9802  134.0073  155.9112 C   0  0  2  0  0  0  0  0  0  0  0  0
  146.3731  133.3453  157.1539 C   0  0  0  0  0  0  0  0  0  0  0  0
  147.0703  133.7911  158.3051 O   0  0  0  0  0  0  0  0  0  0  0  0
  146.7072  134.9378  158.9116 C   0  0  0  0  0  0  0  0  0  0  0  0
  146.1070  135.8514  158.3415 O   0  0  0  0  0  0  0  0  0  0  0  0
  147.1092  134.9870  160.3470 C   0  0  0  0  0  0  0  0  0  0  0  0
  147.2452  133.7793  161.0708 C   0  0  0  0  0  0  0  0  0  0  0  0
  147.6226  133.7944  162.4275 C   0  0  0  0  0  0  0  0  0  0  0  0
  147.8683  135.0176  163.0776 C   0  0  0  0  0  0  0  0  0  0  0  0
  147.7374  136.2260  162.3687 C   0  0  0  0  0  0  0  0  0  0  0  0
  147.3605  136.2130  161.0116 C   0  0  0  0  0  0  0  0  0  0  0  0
  148.4612  133.7040  155.6947 C   0  0  2  0  0  0  0  0  0  0  0  0
  149.1846  133.6611  156.9123 O   0  0  0  0  0  0  0  0  0  0  0  0
  150.6840  134.3387  156.6342 S   0  0  0  0  0  0  0  0  0  0  0  0
  151.0023  135.2578  157.7370 O   0  0  0  0  0  0  0  0  0  0  0  0
  151.5979  133.2656  156.2137 O   0  0  0  0  0  0  0  0  0  0  0  0
  150.2865  135.2368  155.2818 O   0  0  0  0  0  0  0  0  0  0  0  0
  148.9592  134.9092  154.8871 C   0  0  2  0  0  0  0  0  0  0  0  0
  152.0565  142.0856  159.2508 C   0  0  0  0  0  0  0  0  0  0  0  0
  152.8485  141.8805  160.4030 C   0  0  0  0  0  0  0  0  0  0  0  0
  152.9116  142.8642  161.4091 C   0  0  0  0  0  0  0  0  0  0  0  0
  152.1900  144.0645  161.2677 C   0  0  0  0  0  0  0  0  0  0  0  0
  151.4086  144.2824  160.1174 C   0  0  0  0  0  0  0  0  0  0  0  0
  151.3440  143.2991  159.1109 C   0  0  0  0  0  0  0  0  0  0  0  0
  150.0345  141.5883  157.7134 H   0  0  0  0  0  0  0  0  0  0  0  0
  150.9434  139.6788  153.2017 H   0  0  0  0  0  0  0  0  0  0  0  0
  147.7998  136.7638  158.0046 H   0  0  0  0  0  0  0  0  0  0  0  0
  147.4973  136.4778  154.3521 H   0  0  0  0  0  0  0  0  0  0  0  0
  146.4297  133.7112  155.0165 H   0  0  0  0  0  0  0  0  0  0  0  0
  145.3226  133.6221  157.2487 H   0  0  0  0  0  0  0  0  0  0  0  0
  146.4221  132.2587  157.0685 H   0  0  0  0  0  0  0  0  0  0  0  0
  147.0606  132.8277  160.5931 H   0  0  0  0  0  0  0  0  0  0  0  0
  147.7231  132.8657  162.9695 H   0  0  0  0  0  0  0  0  0  0  0  0
  148.1569  135.0293  164.1184 H   0  0  0  0  0  0  0  0  0  0  0  0
  147.9262  137.1656  162.8661 H   0  0  0  0  0  0  0  0  0  0  0  0
  147.2697  137.1586  160.4973 H   0  0  0  0  0  0  0  0  0  0  0  0
  148.6130  132.7620  155.1665 H   0  0  0  0  0  0  0  0  0  0  0  0
  148.9099  134.7101  153.8163 H   0  0  0  0  0  0  0  0  0  0  0  0
  153.4087  140.9646  160.5259 H   0  0  0  0  0  0  0  0  0  0  0  0
  153.5145  142.6969  162.2894 H   0  0  0  0  0  0  0  0  0  0  0  0
  152.2390  144.8188  162.0391 H   0  0  0  0  0  0  0  0  0  0  0  0
  150.8599  145.2059  160.0048 H   0  0  0  0  0  0  0  0  0  0  0  0
  150.7452  143.4906  158.2321 H   0  0  0  0  0  0  0  0  0  0  0  0
  1  2  2  0  0  0  0
  2  3  1  0  0  0  0
  2 33  1  0  0  0  0
  3  4  1  0  0  0  0
  3 39  1  0  0  0  0
  4  9  1  0  0  0  0
  4  5  2  0  0  0  0
  5  6  1  0  0  0  0
  6  7  2  0  0  0  0
  6 40  1  0  0  0  0
  7  8  1  0  0  0  0
  8 12  1  0  0  0  0
  8  9  2  0  0  0  0
  9 10  1  0  0  0  0
 10 11  2  0  0  0  0
 11 12  1  0  0  0  0
 11 41  1  0  0  0  0
 12 13  1  0  0  0  0
 13 32  1  0  0  0  0
 13 14  1  0  0  0  0
 13 42  1  0  0  0  0
 14 15  1  0  0  0  0
 15 16  1  0  0  0  0
 15 26  1  0  0  0  0
 15 43  1  0  0  0  0
 16 17  1  0  0  0  0
 16 44  1  0  0  0  0
 16 45  1  0  0  0  0
 17 18  1  0  0  0  0
 18 19  2  0  0  0  0
 18 20  1  0  0  0  0
 20 25  1  0  0  0  0
 20 21  2  0  0  0  0
 21 22  1  0  0  0  0
 21 46  1  0  0  0  0
 22 23  2  0  0  0  0
 22 47  1  0  0  0  0
 23 24  1  0  0  0  0
 23 48  1  0  0  0  0
 24 25  2  0  0  0  0
 24 49  1  0  0  0  0
 25 50  1  0  0  0  0
 26 32  1  0  0  0  0
 26 27  1  0  0  0  0
 26 51  1  0  0  0  0
 27 28  1  0  0  0  0
 28 29  2  0  0  0  0
 28 30  2  0  0  0  0
 28 31  1  0  0  0  0
 31 32  1  0  0  0  0
 32 52  1  0  0  0  0
 33 38  1  0  0  0  0
 33 34  2  0  0  0  0
 34 35  1  0  0  0  0
 34 53  1  0  0  0  0
 35 36  2  0  0  0  0
 35 54  1  0  0  0  0
 36 37  1  0  0  0  0
 36 55  1  0  0  0  0
 37 38  2  0  0  0  0
 37 56  1  0  0  0  0
 38 57  1  0  0  0  0
M  END
> <s_m_source_file>
AV-unprocessed.smi

> <i_m_source_file_index>
1

> <i_lp_mmshare_version>
43012

> <i_f3d_flags>
0

> <s_epik_input>
W2NIXTFbY0hdW2NIXVtjSF1bY0hdYzFDKD1PKVtOSF1jKG5bY0hdbjIpYyhjMjMpbltjSF1uM1tDQEBIXShbQ0BIXShbQ0BIXTQ1KU9TKE81KSg9Tyk9TylPW0NASF00W0NIMl1PQyg9TyljNltjSF1bY0hdW2NIXVtjSF1bY0hdNg==

> <s_epik_cmdline>
J2VwaWtfcHl0aG9uJywgJy1waCcsICc3LjAnLCAnLXRuJywgJzgnLCAnLW1hJywgJzIwMCcsICctbWV0YWxfYmluZGluZycsICctaW1hZScsICc8aW5maWxlLm1hZT4nLCAnLW9tYWUnLCAnPG91dGZpbGUubWFlPic=

> <r_lp_tautomer_probability>
1

> <r_epik_Ionization_Penalty>
0.00195722

> <r_epik_Ionization_Penalty_Charging>
0

> <r_epik_Ionization_Penalty_Neutral>
0.00195722

> <r_epik_State_Penalty>
0.00633741

> <r_epik_Charging_Adjusted_Penalty>
0.00633741

> <i_epik_Tot_Q>
0

> <i_epik_Tot_abs_Q>
0

> <r_epik_Metal_State_Penalty>
0.341185

> <b_epik_Metal_Only>
0

> <s_epik_Chemistry_Notes>
This compound has an ester and may undergo hydrolysis at high or low pH. This compound contains an acetal/aminal-like group ( X-CH(R)-Y where X, Y are N, S, or O) that may be acid/base labile, releasing an aldehyde.

> <s_lp_Force_Field>
OPLS_2005

> <r_lp_Energy>
44.5828

> <b_lp_Chiralities_Consistent>
1

> <s_lp_Variant>
AV-unprocessed.smi:1-3

> <Gold.Version>
5.8.1

> <Gold.Id.Protein>
6NUR|6NUR_protein|mol2

> <Gold.PLP.Fitness>
51.6034

> <Gold.PLP.PLP>
-48.4494

> <Gold.PLP.part.hbond>
-3.0000

> <Gold.PLP.part.metal>
0.0000

> <Gold.PLP.part.buried>
-5.5034

> <Gold.PLP.part.nonpolar>
-40.8552

> <Gold.PLP.part.repulsive>
0.4358

> <Gold.PLP.ligand.clash>
0.0000

> <Gold.PLP.ligand.torsion>
2.2500

> <Gold.PLP.Chemscore.Hbond>
1.5120

> <Gold.PLP.Chemscore.CHOScore>
0.9725

> <Gold.PLP.Chemscore.Metal>
0.0000

> <Gold.Chemscore.Hbonds>
donor molecule, donor type, donor heavy atom, donor atom, acceptor molecule, acceptor atom, score
      P1  H  6896  6908       L1    29  0.27
      P1  H  7997  8010       L1     1  0.94
      L1  C     6    40       P1  7957  0.94

> <Gold.PLP.Chemscore.Internal.Correction>
0.2007

> <Gold.Rescore>
     Score         DG    S(hbond)    S(metal)    S(lipo)     H(rot)  DE(clash)    DE(int)     intcor
     13.11     -19.22       1.47        0.00     122.16       2.13       0.45       5.66       ----

> <Gold.Chemscore.Fitness>
13.1072

> <Gold.Chemscore.DG>
-19.2214

> <Gold.Chemscore.ZeroCoef>
-5.4800

> <Gold.Chemscore.Hbond>
1.4701

> <Gold.Chemscore.Metal>
0.0000

> <Gold.Chemscore.Lipo>
122.1580

> <Gold.Chemscore.Internal_Hbond>
0.0000

> <Gold.Chemscore.DEClash>
0.4535

> <Gold.Chemscore.DEInternal>
5.6607

> <Gold.Chemscore.Rot>
2.1333

> <Gold.Chemscore.Internal.Correction>
   9.000000E+99

> <Gold.Chemscore.Hbonds>
donor molecule, donor type, donor heavy atom, donor atom, acceptor molecule, acceptor atom, score
      P1  H  6896  6908       L1    29  0.24
      P1  H  7997  8010       L1     1  0.91

> <Gold.Chemscore.Hbond.Weighted>
-4.9103

> <Gold.Chemscore.Metal.Weighted>
-0.0000

> <Gold.Chemscore.Lipo.Weighted>
-14.2925

> <Gold.Chemscore.Internal_Hbond.Weighted>
0.0000

> <Gold.Chemscore.DEClash.Weighted>
0.4535

> <Gold.Chemscore.DEInternal.Weighted>
5.6607

> <Gold.Chemscore.Rot.Weighted>
5.4614

> <Gold.Chemscore.Internal.Correction.Weighted>
   9.000000E+99

> <Gold.Protein.RotatedTorsions>
[ 6907 6896 6895 6894 ] final  161.94 input  -60.11 | X-H torsion
[ 7974 7965 7964 7962 ] final  156.88 input  175.53 | X-H torsion
[ 8008 7997 7996 7995 ] final   44.84 input   59.86 | X-H torsion
[ 10167 10162 10161 10158 ] final   85.25 input  -65.29 | X-H torsion
[ 10718 10713 10712 10709 ] final -149.37 input   66.30 | X-H torsion
[ 10763 10752 10751 10750 ] final  -34.65 input  -60.55 | X-H torsion
[ 11005 11000 10999 10996 ] final  147.73 input  -57.11 | X-H torsion

> <Gold.Protein.ActiveResidues>
 VAL166  LYS551  ARG553  GLY616  TRP617  ASP618  TYR619  PRO620  LYS621  CYS622 
 ASP623  PHE694  ASN695  SER759  ASP760  ASP761  ALA762  ILE779  LEU786  VAL792 
 PHE793  MET794  SER795  GLU796  ALA797  LYS798  CYS799  TRP800  GLU811  SER814 

> <Gold.Protein.RotatedAtoms>
  151.9479  133.3657  159.3988 H   0  0  0  0  0  0  0  0  0  0  0  0  # atno 6907 bound_to 6896
  150.6986  134.4371  159.5284 H   0  0  0  0  0  0  0  0  0  0  0  0  # atno 6908 bound_to 6896
  152.2039  134.8563  160.0555 H   0  0  0  0  0  0  0  0  0  0  0  0  # atno 6909 bound_to 6896
  144.7937  139.7264  143.6211 H   0  0  0  0  0  0  0  0  0  0  0  0  # atno 7974 bound_to 7965
  155.3259  140.3399  155.4240 H   0  0  0  0  0  0  0  0  0  0  0  0  # atno 8008 bound_to 7997
  156.1886  140.1689  156.8174 H   0  0  0  0  0  0  0  0  0  0  0  0  # atno 8009 bound_to 7997
  154.5415  140.0724  156.8501 H   0  0  0  0  0  0  0  0  0  0  0  0  # atno 8010 bound_to 7997
  139.8997  144.6337  150.8650 H   0  0  0  0  0  0  0  0  0  0  0  0  # atno 10167 bound_to 10162
  156.4322  130.8081  151.2308 H   0  0  0  0  0  0  0  0  0  0  0  0  # atno 10718 bound_to 10713
  153.8502  135.6849  153.4793 H   0  0  0  0  0  0  0  0  0  0  0  0  # atno 10763 bound_to 10752
  153.1402  135.4661  154.9482 H   0  0  0  0  0  0  0  0  0  0  0  0  # atno 10764 bound_to 10752
  154.7806  135.3267  154.7946 H   0  0  0  0  0  0  0  0  0  0  0  0  # atno 10765 bound_to 10752
  140.0900  134.9046  157.1636 H   0  0  0  0  0  0  0  0  0  0  0  0  # atno 11005 bound_to 11000
  146.2197  139.5614  142.9626 LP  0  0  0  0  0  0  0  0  0  0  0  0  # atno 17320 bound_to 7965
  145.5729  141.0392  143.2164 LP  0  0  0  0  0  0  0  0  0  0  0  0  # atno 17321 bound_to 7965
  140.7709  143.3446  151.2137 LP  0  0  0  0  0  0  0  0  0  0  0  0  # atno 17342 bound_to 10162
  139.7036  143.9491  152.2917 LP  0  0  0  0  0  0  0  0  0  0  0  0  # atno 17343 bound_to 10162
  157.7508  131.0195  150.3668 LP  0  0  0  0  0  0  0  0  0  0  0  0  # atno 17370 bound_to 10713
  156.4008  130.3915  149.6961 LP  0  0  0  0  0  0  0  0  0  0  0  0  # atno 17371 bound_to 10713
  140.3365  134.2751  155.7219 LP  0  0  0  0  0  0  0  0  0  0  0  0  # atno 17394 bound_to 11000
  141.2075  133.7804  157.0116 LP  0  0  0  0  0  0  0  0  0  0  0  0  # atno 17395 bound_to 11000

$$$$
