AV-unprocessed.smi:3249|AV-procd|sdf|12419|dock8
  -GOLD-   2272018303D 1   1.00000     0.00000
 Structure written by MMmdl.
 44 45  0  0  0  0  0  0  0  0  2 V2000
  144.0248  144.9150  154.0058 C   0  0  0  0  0  0  0  0  0  0  0  0
  145.1240  143.9852  154.4322 C   0  0  0  0  0  0  0  0  0  0  0  0
  145.4276  143.5348  155.7479 C   0  0  0  0  0  0  0  0  0  0  0  0
  146.4587  142.7067  155.7818 N   0  0  0  0  0  0  0  0  0  0  0  0
  146.8626  142.6112  154.4966 N   0  0  0  0  0  0  0  0  0  0  0  0
  147.9800  141.7376  154.1547 C   0  0  2  0  0  0  0  0  0  0  0  0
  147.4989  140.6236  153.2058 C   0  0  0  0  0  0  0  0  0  0  0  0
  148.6706  141.2054  155.4375 C   0  0  1  0  0  0  0  0  0  0  0  0
  149.5143  139.9432  155.1762 C   0  0  0  0  0  0  0  0  0  0  0  0
  149.5225  142.2671  156.0239 N   0  3  0  0  0  0  0  0  0  0  0  0
  149.8441  142.1049  157.4573 C   0  0  0  0  0  0  0  0  0  0  0  0
  150.4031  143.4056  158.0538 C   0  0  2  0  0  0  0  0  0  0  0  0
  151.8658  143.6704  157.6402 C   0  0  0  0  0  0  0  0  0  0  0  0
  152.4050  144.9236  158.3394 C   0  0  0  0  0  0  0  0  0  0  0  0
  152.1919  144.8041  159.8519 C   0  0  0  0  0  0  0  0  0  0  0  0
  150.7226  144.4766  160.1598 C   0  0  0  0  0  0  0  0  0  0  0  0
  150.3353  143.2900  159.4729 O   0  0  0  0  0  0  0  0  0  0  0  0
  146.0648  143.3660  153.6596 C   0  0  0  0  0  0  0  0  0  0  0  0
  143.5664  145.4185  154.8572 H   0  0  0  0  0  0  0  0  0  0  0  0
  143.2308  144.3835  153.4812 H   0  0  0  0  0  0  0  0  0  0  0  0
  144.3913  145.6912  153.3338 H   0  0  0  0  0  0  0  0  0  0  0  0
  144.9274  143.7788  156.6736 H   0  0  0  0  0  0  0  0  0  0  0  0
  148.7067  142.3362  153.6014 H   0  0  0  0  0  0  0  0  0  0  0  0
  148.3339  140.0626  152.7868 H   0  0  0  0  0  0  0  0  0  0  0  0
  146.9455  141.0411  152.3638 H   0  0  0  0  0  0  0  0  0  0  0  0
  146.8440  139.9163  153.7156 H   0  0  0  0  0  0  0  0  0  0  0  0
  147.8902  140.9570  156.1590 H   0  0  0  0  0  0  0  0  0  0  0  0
  148.9001  139.1136  154.8278 H   0  0  0  0  0  0  0  0  0  0  0  0
  150.0142  139.5983  156.0810 H   0  0  0  0  0  0  0  0  0  0  0  0
  150.2823  140.1287  154.4246 H   0  0  0  0  0  0  0  0  0  0  0  0
  150.3773  142.3350  155.4903 H   0  0  0  0  0  0  0  0  0  0  0  0
  148.9298  141.8324  157.9864 H   0  0  0  0  0  0  0  0  0  0  0  0
  150.5516  141.2886  157.6026 H   0  0  0  0  0  0  0  0  0  0  0  0
  149.7701  144.2387  157.7420 H   0  0  0  0  0  0  0  0  0  0  0  0
  152.4847  142.8121  157.9053 H   0  0  0  0  0  0  0  0  0  0  0  0
  151.9441  143.7900  156.5592 H   0  0  0  0  0  0  0  0  0  0  0  0
  153.4628  145.0612  158.1133 H   0  0  0  0  0  0  0  0  0  0  0  0
  151.8863  145.8064  157.9637 H   0  0  0  0  0  0  0  0  0  0  0  0
  152.8310  144.0160  160.2519 H   0  0  0  0  0  0  0  0  0  0  0  0
  152.4856  145.7286  160.3494 H   0  0  0  0  0  0  0  0  0  0  0  0
  150.5902  144.3220  161.2306 H   0  0  0  0  0  0  0  0  0  0  0  0
  150.0711  145.3043  159.8753 H   0  0  0  0  0  0  0  0  0  0  0  0
  146.2279  143.3985  152.5923 H   0  0  0  0  0  0  0  0  0  0  0  0
  149.0204  143.1390  155.9296 H   0  0  0  0  0  0  0  0  0  0  0  0
  1  2  1  0  0  0  0
  1 19  1  0  0  0  0
  1 20  1  0  0  0  0
  1 21  1  0  0  0  0
  2 18  2  0  0  0  0
  2  3  1  0  0  0  0
  3  4  2  0  0  0  0
  3 22  1  0  0  0  0
  4  5  1  0  0  0  0
  5  6  1  0  0  0  0
  5 18  1  0  0  0  0
  6  7  1  0  0  0  0
  6  8  1  0  0  0  0
  6 23  1  0  0  0  0
  7 24  1  0  0  0  0
  7 25  1  0  0  0  0
  7 26  1  0  0  0  0
  8  9  1  0  0  0  0
  8 10  1  0  0  0  0
  8 27  1  0  0  0  0
  9 28  1  0  0  0  0
  9 29  1  0  0  0  0
  9 30  1  0  0  0  0
 10 11  1  0  0  0  0
 10 31  1  0  0  0  0
 10 44  1  0  0  0  0
 11 12  1  0  0  0  0
 11 32  1  0  0  0  0
 11 33  1  0  0  0  0
 12 17  1  0  0  0  0
 12 13  1  0  0  0  0
 12 34  1  0  0  0  0
 13 14  1  0  0  0  0
 13 35  1  0  0  0  0
 13 36  1  0  0  0  0
 14 15  1  0  0  0  0
 14 37  1  0  0  0  0
 14 38  1  0  0  0  0
 15 16  1  0  0  0  0
 15 39  1  0  0  0  0
 15 40  1  0  0  0  0
 16 17  1  0  0  0  0
 16 41  1  0  0  0  0
 16 42  1  0  0  0  0
 18 43  1  0  0  0  0
M  CHG  1  10   1
M  END
> <s_m_source_file>
AV-unprocessed.smi

> <i_m_source_file_index>
3249

> <i_lp_mmshare_version>
43012

> <i_f3d_flags>
0

> <s_epik_input>
W0NIM11jMVtjSF1ubihbY0hdMSlbQ0BIXShbQ0gzXSlbQ0BIXShbQ0gzXSlbTkhdW0NIMl1bQ0BASF0yW0NIMl1bQ0gyXVtDSDJdW0NIMl1PMg==

> <s_epik_cmdline>
J2VwaWtfcHl0aG9uJywgJy1waCcsICc3LjAnLCAnLXRuJywgJzgnLCAnLW1hJywgJzIwMCcsICctbWV0YWxfYmluZGluZycsICctaW1hZScsICc8aW5maWxlLm1hZT4nLCAnLW9tYWUnLCAnPG91dGZpbGUubWFlPic=

> <r_lp_tautomer_probability>
1

> <r_epik_Ionization_Penalty>
0.00659207

> <r_epik_Ionization_Penalty_Charging>
0.00656881

> <r_epik_Ionization_Penalty_Neutral>
2.32662e-05

> <r_epik_State_Penalty>
0.0048654

> <r_epik_Charging_Adjusted_Penalty>
0.0114342

> <i_epik_Tot_Q>
1

> <i_epik_Tot_abs_Q>
1

> <r_epik_Metal_State_Penalty>
-0

> <b_epik_Metal_Only>
0

> <s_lp_Force_Field>
OPLS_2005

> <r_lp_Energy>
18.0919

> <b_lp_Chiralities_Consistent>
1

> <s_lp_Variant>
AV-unprocessed.smi:3249-3

> <Gold.Version>
5.8.1

> <Gold.Id.Protein>
6NUR|6NUR_protein|mol2

> <Gold.PLP.Fitness>
45.5049

> <Gold.PLP.PLP>
-40.9876

> <Gold.PLP.part.hbond>
-1.8956

> <Gold.PLP.part.metal>
0.0000

> <Gold.PLP.part.buried>
-3.6533

> <Gold.PLP.part.nonpolar>
-35.6555

> <Gold.PLP.part.repulsive>
0.3428

> <Gold.PLP.ligand.clash>
0.0000

> <Gold.PLP.ligand.torsion>
0.7872

> <Gold.PLP.Chemscore.Hbond>
2.0000

> <Gold.PLP.Chemscore.CHOScore>
0.0000

> <Gold.PLP.Chemscore.Metal>
0.0000

> <Gold.Chemscore.Hbonds>
donor molecule, donor type, donor heavy atom, donor atom, acceptor molecule, acceptor atom, score
      L1  H    10    44       P1  8028  2.00

> <Gold.PLP.Chemscore.Internal.Correction>
0.0917

> <Gold.Rescore>
     Score         DG    S(hbond)    S(metal)    S(lipo)     H(rot)  DE(clash)    DE(int)     intcor
     16.57     -17.37       0.99        0.00     107.03       1.53       0.01       0.79       ----

> <Gold.Chemscore.Fitness>
16.5661

> <Gold.Chemscore.DG>
-17.3715

> <Gold.Chemscore.ZeroCoef>
-5.4800

> <Gold.Chemscore.Hbond>
0.9862

> <Gold.Chemscore.Metal>
0.0000

> <Gold.Chemscore.Lipo>
107.0333

> <Gold.Chemscore.Internal_Hbond>
0.0000

> <Gold.Chemscore.DEClash>
0.0121

> <Gold.Chemscore.DEInternal>
0.7932

> <Gold.Chemscore.Rot>
1.5333

> <Gold.Chemscore.Internal.Correction>
   9.000000E+99

> <Gold.Chemscore.Hbonds>
donor molecule, donor type, donor heavy atom, donor atom, acceptor molecule, acceptor atom, score
      L1  H    10    44       P1  8028  0.97

> <Gold.Chemscore.Hbond.Weighted>
-3.2938

> <Gold.Chemscore.Metal.Weighted>
-0.0000

> <Gold.Chemscore.Lipo.Weighted>
-12.5229

> <Gold.Chemscore.Internal_Hbond.Weighted>
0.0000

> <Gold.Chemscore.DEClash.Weighted>
0.0121

> <Gold.Chemscore.DEInternal.Weighted>
0.7932

> <Gold.Chemscore.Rot.Weighted>
3.9252

> <Gold.Chemscore.Internal.Correction.Weighted>
   9.000000E+99

> <Gold.Protein.RotatedTorsions>
[ 6907 6896 6895 6894 ] final  -19.96 input  -60.11 | X-H torsion
[ 7974 7965 7964 7962 ] final -145.55 input  175.53 | X-H torsion
[ 8008 7997 7996 7995 ] final  176.41 input   59.86 | X-H torsion
[ 10167 10162 10161 10158 ] final   98.05 input  -65.29 | X-H torsion
[ 10718 10713 10712 10709 ] final   73.36 input   66.30 | X-H torsion
[ 10763 10752 10751 10750 ] final -119.73 input  -60.55 | X-H torsion
[ 11005 11000 10999 10996 ] final  140.95 input  -57.11 | X-H torsion

> <Gold.Protein.ActiveResidues>
 VAL166  LYS551  ARG553  GLY616  TRP617  ASP618  TYR619  PRO620  LYS621  CYS622 
 ASP623  PHE694  ASN695  SER759  ASP760  ASP761  ALA762  ILE779  LEU786  VAL792 
 PHE793  MET794  SER795  GLU796  ALA797  LYS798  CYS799  TRP800  GLU811  SER814 

> <Gold.Protein.RotatedAtoms>
  151.2554  135.0636  159.9077 H   0  0  0  0  0  0  0  0  0  0  0  0  # atno 6907 bound_to 6896
  152.5374  134.0288  159.8025 H   0  0  0  0  0  0  0  0  0  0  0  0  # atno 6908 bound_to 6896
  151.0502  133.5581  159.2674 H   0  0  0  0  0  0  0  0  0  0  0  0  # atno 6909 bound_to 6896
  144.8220  140.5569  143.5572 H   0  0  0  0  0  0  0  0  0  0  0  0  # atno 7974 bound_to 7965
  156.0767  140.1384  156.9762 H   0  0  0  0  0  0  0  0  0  0  0  0  # atno 8008 bound_to 7997
  154.4562  140.0960  156.6813 H   0  0  0  0  0  0  0  0  0  0  0  0  # atno 8009 bound_to 7997
  155.5141  140.3454  155.4396 H   0  0  0  0  0  0  0  0  0  0  0  0  # atno 8010 bound_to 7997
  139.7744  144.6911  151.0110 H   0  0  0  0  0  0  0  0  0  0  0  0  # atno 10167 bound_to 10162
  157.6544  130.9624  150.1058 H   0  0  0  0  0  0  0  0  0  0  0  0  # atno 10718 bound_to 10713
  154.8625  135.4228  154.2346 H   0  0  0  0  0  0  0  0  0  0  0  0  # atno 10763 bound_to 10752
  153.3324  135.6989  153.6942 H   0  0  0  0  0  0  0  0  0  0  0  0  # atno 10764 bound_to 10752
  153.5954  135.3547  155.2899 H   0  0  0  0  0  0  0  0  0  0  0  0  # atno 10765 bound_to 10752
  140.0365  134.9326  157.0763 H   0  0  0  0  0  0  0  0  0  0  0  0  # atno 11005 bound_to 11000
  145.5084  139.1480  143.3618 LP  0  0  0  0  0  0  0  0  0  0  0  0  # atno 17320 bound_to 7965
  146.2525  140.5225  142.8887 LP  0  0  0  0  0  0  0  0  0  0  0  0  # atno 17321 bound_to 7965
  140.7815  143.4552  151.0356 LP  0  0  0  0  0  0  0  0  0  0  0  0  # atno 17342 bound_to 10162
  139.8235  143.7788  152.3178 LP  0  0  0  0  0  0  0  0  0  0  0  0  # atno 17343 bound_to 10162
  156.1968  130.3658  149.8839 LP  0  0  0  0  0  0  0  0  0  0  0  0  # atno 17370 bound_to 10713
  156.6753  130.8836  151.3568 LP  0  0  0  0  0  0  0  0  0  0  0  0  # atno 17371 bound_to 10713
  140.4138  134.1952  155.7163 LP  0  0  0  0  0  0  0  0  0  0  0  0  # atno 17394 bound_to 11000
  141.1860  133.8311  157.1083 LP  0  0  0  0  0  0  0  0  0  0  0  0  # atno 17395 bound_to 11000

$$$$
