AV-unprocessed.smi:2898|AV-procd|sdf|11141|dock1
  -GOLD-   2272016 13D 1   1.00000     0.00000
 Structure written by MMmdl.
 44 45  0  0  0  0  0  0  0  0  1 V2000
  147.6774  135.9498  162.8178 C   0  0  0  0  0  0  0  0  0  0  0  0
  147.2383  134.7142  162.0857 C   0  0  0  0  0  0  0  0  0  0  0  0
  146.7743  133.6833  162.7698 N   0  0  0  0  0  0  0  0  0  0  0  0
  146.4826  132.6984  161.8230 O   0  0  0  0  0  0  0  0  0  0  0  0
  146.7882  133.1789  160.5909 C   0  0  0  0  0  0  0  0  0  0  0  0
  146.5617  132.2469  159.4484 C   0  0  0  0  0  0  0  0  0  0  0  0
  147.2666  134.4599  160.6834 C   0  0  0  0  0  0  0  0  0  0  0  0
  147.7567  135.3962  159.5974 C   0  0  2  0  0  0  0  0  0  0  0  0
  147.7965  134.7065  158.2251 C   0  0  0  0  0  0  0  0  0  0  0  0
  149.1170  136.0378  159.9471 C   0  0  0  0  0  0  0  0  0  0  0  0
  149.6535  136.8115  158.8297 N   0  0  0  0  0  0  0  0  0  0  0  0
  150.8793  137.3613  158.7697 C   0  0  0  0  0  0  0  0  0  0  0  0
  151.7296  137.1769  159.6422 O   0  0  0  0  0  0  0  0  0  0  0  0
  151.1970  138.2805  157.5693 C   0  0  0  0  0  0  0  0  0  0  0  0
  152.5503  138.8647  157.6828 C   0  0  0  0  0  0  0  0  0  0  0  0
  153.6104  139.3215  157.7723 N   0  0  0  0  0  0  0  0  0  0  0  0
  151.1079  137.4505  156.2632 C   0  0  0  0  0  0  0  0  0  0  0  0
  151.2941  138.3191  155.0066 C   0  0  0  0  0  0  0  0  0  0  0  0
  150.2708  139.4642  154.9719 C   0  0  0  0  0  0  0  0  0  0  0  0
  150.3244  140.3031  156.2575 C   0  0  0  0  0  0  0  0  0  0  0  0
  150.1464  139.4170  157.5032 C   0  0  0  0  0  0  0  0  0  0  0  0
  148.7368  136.1443  162.6484 H   0  0  0  0  0  0  0  0  0  0  0  0
  147.5271  135.8591  163.8943 H   0  0  0  0  0  0  0  0  0  0  0  0
  147.1199  136.8228  162.4784 H   0  0  0  0  0  0  0  0  0  0  0  0
  147.3761  132.3085  158.7273 H   0  0  0  0  0  0  0  0  0  0  0  0
  145.6317  132.4867  158.9334 H   0  0  0  0  0  0  0  0  0  0  0  0
  146.5000  131.2143  159.7925 H   0  0  0  0  0  0  0  0  0  0  0  0
  147.0461  136.2179  159.4988 H   0  0  0  0  0  0  0  0  0  0  0  0
  146.8203  134.2972  157.9634 H   0  0  0  0  0  0  0  0  0  0  0  0
  148.5183  133.8906  158.2015 H   0  0  0  0  0  0  0  0  0  0  0  0
  148.0766  135.4123  157.4428 H   0  0  0  0  0  0  0  0  0  0  0  0
  149.0271  136.6588  160.8395 H   0  0  0  0  0  0  0  0  0  0  0  0
  149.8388  135.2593  160.1958 H   0  0  0  0  0  0  0  0  0  0  0  0
  149.0172  137.0003  158.0686 H   0  0  0  0  0  0  0  0  0  0  0  0
  151.8626  136.6626  156.2696 H   0  0  0  0  0  0  0  0  0  0  0  0
  150.1433  136.9444  156.1966 H   0  0  0  0  0  0  0  0  0  0  0  0
  152.3047  138.7276  154.9804 H   0  0  0  0  0  0  0  0  0  0  0  0
  151.1899  137.7036  154.1128 H   0  0  0  0  0  0  0  0  0  0  0  0
  150.4522  140.0997  154.1047 H   0  0  0  0  0  0  0  0  0  0  0  0
  149.2685  139.0521  154.8484 H   0  0  0  0  0  0  0  0  0  0  0  0
  151.2743  140.8358  156.3100 H   0  0  0  0  0  0  0  0  0  0  0  0
  149.5464  141.0666  156.2327 H   0  0  0  0  0  0  0  0  0  0  0  0
  149.1367  139.0029  157.4948 H   0  0  0  0  0  0  0  0  0  0  0  0
  150.2124  140.0374  158.3982 H   0  0  0  0  0  0  0  0  0  0  0  0
  1  2  1  0  0  0  0
  1 22  1  0  0  0  0
  1 23  1  0  0  0  0
  1 24  1  0  0  0  0
  2  7  1  0  0  0  0
  2  3  2  0  0  0  0
  3  4  1  0  0  0  0
  4  5  1  0  0  0  0
  5  6  1  0  0  0  0
  5  7  2  0  0  0  0
  6 25  1  0  0  0  0
  6 26  1  0  0  0  0
  6 27  1  0  0  0  0
  7  8  1  0  0  0  0
  8  9  1  0  0  0  0
  8 10  1  0  0  0  0
  8 28  1  0  0  0  0
  9 29  1  0  0  0  0
  9 30  1  0  0  0  0
  9 31  1  0  0  0  0
 10 11  1  0  0  0  0
 10 32  1  0  0  0  0
 10 33  1  0  0  0  0
 11 12  1  0  0  0  0
 11 34  1  0  0  0  0
 12 13  2  0  0  0  0
 12 14  1  0  0  0  0
 14 21  1  0  0  0  0
 14 15  1  0  0  0  0
 14 17  1  0  0  0  0
 15 16  3  0  0  0  0
 17 18  1  0  0  0  0
 17 35  1  0  0  0  0
 17 36  1  0  0  0  0
 18 19  1  0  0  0  0
 18 37  1  0  0  0  0
 18 38  1  0  0  0  0
 19 20  1  0  0  0  0
 19 39  1  0  0  0  0
 19 40  1  0  0  0  0
 20 21  1  0  0  0  0
 20 41  1  0  0  0  0
 20 42  1  0  0  0  0
 21 43  1  0  0  0  0
 21 44  1  0  0  0  0
M  END
> <s_m_source_file>
AV-unprocessed.smi

> <i_m_source_file_index>
2898

> <i_lp_mmshare_version>
43012

> <i_f3d_flags>
0

> <s_epik_input>
W0NIM11jMW5vYyhbQ0gzXSljMVtDQEhdKFtDSDNdKVtDSDJdW05IXUMoPU8pQzIoQyNOKVtDSDJdW0NIMl1bQ0gyXVtDSDJdW0NIMl0y

> <s_epik_cmdline>
J2VwaWtfcHl0aG9uJywgJy1waCcsICc3LjAnLCAnLXRuJywgJzgnLCAnLW1hJywgJzIwMCcsICctbWV0YWxfYmluZGluZycsICctaW1hZScsICc8aW5maWxlLm1hZT4nLCAnLW9tYWUnLCAnPG91dGZpbGUubWFlPic=

> <r_lp_tautomer_probability>
1

> <r_epik_Ionization_Penalty>
4.33734e-07

> <r_epik_Ionization_Penalty_Charging>
0

> <r_epik_Ionization_Penalty_Neutral>
4.33734e-07

> <r_epik_State_Penalty>
-0

> <r_epik_Charging_Adjusted_Penalty>
0

> <i_epik_Tot_Q>
0

> <i_epik_Tot_abs_Q>
0

> <r_epik_Metal_State_Penalty>
-0

> <b_epik_Metal_Only>
0

> <s_lp_Force_Field>
OPLS_2005

> <r_lp_Energy>
7.89046

> <b_lp_Chiralities_Consistent>
1

> <s_lp_Variant>
AV-unprocessed.smi:2898-1

> <Gold.Version>
5.8.1

> <Gold.Id.Protein>
6NUR|6NUR_protein|mol2

> <Gold.PLP.Fitness>
36.1787

> <Gold.PLP.PLP>
-30.6419

> <Gold.PLP.part.hbond>
-2.7595

> <Gold.PLP.part.metal>
0.0000

> <Gold.PLP.part.buried>
-6.8407

> <Gold.PLP.part.nonpolar>
-22.6552

> <Gold.PLP.part.repulsive>
0.2240

> <Gold.PLP.ligand.clash>
0.0000

> <Gold.PLP.ligand.torsion>
0.2798

> <Gold.PLP.Chemscore.Hbond>
2.0000

> <Gold.PLP.Chemscore.CHOScore>
0.0000

> <Gold.PLP.Chemscore.Metal>
0.0000

> <Gold.Chemscore.Hbonds>
donor molecule, donor type, donor heavy atom, donor atom, acceptor molecule, acceptor atom, score
      P1  H  6896  6909       L1    13  0.98
      P1  H  7997  8009       L1    16  0.93

> <Gold.PLP.Chemscore.Internal.Correction>
0.0964

> <Gold.Rescore>
     Score         DG    S(hbond)    S(metal)    S(lipo)     H(rot)  DE(clash)    DE(int)     intcor
     15.16     -16.72       1.94        0.00      73.97       1.52       0.11       1.45       ----

> <Gold.Chemscore.Fitness>
15.1573

> <Gold.Chemscore.DG>
-16.7199

> <Gold.Chemscore.ZeroCoef>
-5.4800

> <Gold.Chemscore.Hbond>
1.9424

> <Gold.Chemscore.Metal>
0.0000

> <Gold.Chemscore.Lipo>
73.9712

> <Gold.Chemscore.Internal_Hbond>
0.0000

> <Gold.Chemscore.DEClash>
0.1087

> <Gold.Chemscore.DEInternal>
1.4539

> <Gold.Chemscore.Rot>
1.5243

> <Gold.Chemscore.Internal.Correction>
   9.000000E+99

> <Gold.Chemscore.Hbonds>
donor molecule, donor type, donor heavy atom, donor atom, acceptor molecule, acceptor atom, score
      P1  H  6896  6909       L1    13  0.27
      P1  H  7997  8009       L1    16  0.84

> <Gold.Chemscore.Hbond.Weighted>
-6.4876

> <Gold.Chemscore.Metal.Weighted>
-0.0000

> <Gold.Chemscore.Lipo.Weighted>
-8.6546

> <Gold.Chemscore.Internal_Hbond.Weighted>
0.0000

> <Gold.Chemscore.DEClash.Weighted>
0.1087

> <Gold.Chemscore.DEInternal.Weighted>
1.4539

> <Gold.Chemscore.Rot.Weighted>
3.9022

> <Gold.Chemscore.Internal.Correction.Weighted>
   9.000000E+99

> <Gold.Protein.RotatedTorsions>
[ 6907 6896 6895 6894 ] final  117.05 input  -60.11 | X-H torsion
[ 7974 7965 7964 7962 ] final   71.58 input  175.53 | X-H torsion
[ 8008 7997 7996 7995 ] final  137.11 input   59.86 | X-H torsion
[ 10167 10162 10161 10158 ] final  -52.88 input  -65.29 | X-H torsion
[ 10718 10713 10712 10709 ] final  141.91 input   66.30 | X-H torsion
[ 10763 10752 10751 10750 ] final   96.21 input  -60.55 | X-H torsion
[ 11005 11000 10999 10996 ] final   84.94 input  -57.11 | X-H torsion

> <Gold.Protein.ActiveResidues>
 VAL166  LYS551  ARG553  GLY616  TRP617  ASP618  TYR619  PRO620  LYS621  CYS622 
 ASP623  PHE694  ASN695  SER759  ASP760  ASP761  ALA762  ILE779  LEU786  VAL792 
 PHE793  MET794  SER795  GLU796  ALA797  LYS798  CYS799  TRP800  GLU811  SER814 

> <Gold.Protein.RotatedAtoms>
  152.4638  133.7878  159.6885 H   0  0  0  0  0  0  0  0  0  0  0  0  # atno 6907 bound_to 6896
  150.8593  133.7658  159.3004 H   0  0  0  0  0  0  0  0  0  0  0  0  # atno 6908 bound_to 6896
  151.5229  135.1070  159.9935 H   0  0  0  0  0  0  0  0  0  0  0  0  # atno 6909 bound_to 6896
  145.7641  139.2813  143.1359 H   0  0  0  0  0  0  0  0  0  0  0  0  # atno 7974 bound_to 7965
  156.3003  140.2428  156.3856 H   0  0  0  0  0  0  0  0  0  0  0  0  # atno 8008 bound_to 7997
  154.8661  140.0418  157.1715 H   0  0  0  0  0  0  0  0  0  0  0  0  # atno 8009 bound_to 7997
  154.8845  140.2954  155.5410 H   0  0  0  0  0  0  0  0  0  0  0  0  # atno 8010 bound_to 7997
  140.6514  143.2569  151.4711 H   0  0  0  0  0  0  0  0  0  0  0  0  # atno 10167 bound_to 10162
  157.3866  131.0999  151.0687 H   0  0  0  0  0  0  0  0  0  0  0  0  # atno 10718 bound_to 10713
  153.2623  135.4226  155.0906 H   0  0  0  0  0  0  0  0  0  0  0  0  # atno 10763 bound_to 10752
  154.8424  135.3452  154.6361 H   0  0  0  0  0  0  0  0  0  0  0  0  # atno 10764 bound_to 10752
  153.6781  135.7040  153.5183 H   0  0  0  0  0  0  0  0  0  0  0  0  # atno 10765 bound_to 10752
  139.8985  134.8252  156.2514 H   0  0  0  0  0  0  0  0  0  0  0  0  # atno 11005 bound_to 11000
  146.0235  140.8326  142.9911 LP  0  0  0  0  0  0  0  0  0  0  0  0  # atno 17320 bound_to 7965
  144.6825  140.2663  143.7312 LP  0  0  0  0  0  0  0  0  0  0  0  0  # atno 17321 bound_to 7965
  139.5730  144.1884  152.1863 LP  0  0  0  0  0  0  0  0  0  0  0  0  # atno 17342 bound_to 10162
  140.1186  144.5393  150.6877 LP  0  0  0  0  0  0  0  0  0  0  0  0  # atno 17343 bound_to 10162
  157.1736  130.6278  149.5648 LP  0  0  0  0  0  0  0  0  0  0  0  0  # atno 17370 bound_to 10713
  155.9788  130.4777  150.6678 LP  0  0  0  0  0  0  0  0  0  0  0  0  # atno 17371 bound_to 10713
  141.0221  133.7035  156.1286 LP  0  0  0  0  0  0  0  0  0  0  0  0  # atno 17394 bound_to 11000
  140.7218  134.4350  157.5574 LP  0  0  0  0  0  0  0  0  0  0  0  0  # atno 17395 bound_to 11000

$$$$
