AV-unprocessed.smi:103|AV-procd|sdf|992|dock1
  -GOLD-   2262017573D 1   1.00000     0.00000
 Structure written by MMmdl.
 53 55  0  0  0  0  0  0  0  0  1 V2000
  147.3583  136.9914  163.2216 C   0  0  0  0  0  0  0  0  0  0  0  0
  147.5869  135.9659  162.1187 C   0  0  0  0  0  0  0  0  0  0  0  0
  147.4117  134.7632  162.3142 O   0  0  0  0  0  0  0  0  0  0  0  0
  147.9852  136.5283  160.9687 O   0  0  0  0  0  0  0  0  0  0  0  0
  148.3357  135.7053  159.8682 C   0  0  0  0  0  0  0  0  0  0  0  0
  149.0020  136.5604  158.7855 C   0  0  1  0  0  0  0  0  0  0  0  0
  149.8469  137.5366  159.3892 O   0  0  0  0  0  0  0  0  0  0  0  0
  150.9660  137.7733  158.5866 C   0  0  2  0  0  0  0  0  0  0  0  0
  151.0434  139.2358  158.2565 N   0  0  0  0  0  0  0  0  0  0  0  0
  152.0591  140.1316  158.5227 C   0  0  0  0  0  0  0  0  0  0  0  0
  153.5658  139.7880  159.4228 S   0  0  0  0  0  0  0  0  0  0  0  0
  153.8281  141.3642  160.3314 C   0  0  0  0  0  0  0  0  0  0  0  0
  153.2645  138.7195  160.3876 O   0  0  0  0  0  0  0  0  0  0  0  0
  154.6324  139.6156  158.4241 O   0  0  0  0  0  0  0  0  0  0  0  0
  151.8581  141.3712  158.1677 N   0  0  0  0  0  0  0  0  0  0  0  0
  150.6280  141.3174  157.5282 C   0  0  0  0  0  0  0  0  0  0  0  0
  149.8202  142.2768  156.8678 C   0  0  0  0  0  0  0  0  0  0  0  0
  150.1686  143.5648  156.7448 N   0  0  0  0  0  0  0  0  0  0  0  0
  148.6441  141.8748  156.3324 N   0  0  0  0  0  0  0  0  0  0  0  0
  148.2752  140.5949  156.4403 C   0  0  0  0  0  0  0  0  0  0  0  0
  148.9216  139.5872  157.0314 N   0  0  0  0  0  0  0  0  0  0  0  0
  150.1090  139.9912  157.5719 C   0  0  0  0  0  0  0  0  0  0  0  0
  150.8465  136.8785  157.3377 C   0  0  2  0  0  0  0  0  0  0  0  0
  150.2377  137.5705  156.2463 O   0  0  0  0  0  0  0  0  0  0  0  0
  150.8773  137.7019  155.0708 C   0  0  0  0  0  0  0  0  0  0  0  0
  150.1457  138.6382  154.1196 C   0  0  0  0  0  0  0  0  0  0  0  0
  151.9408  137.1679  154.7575 O   0  0  0  0  0  0  0  0  0  0  0  0
  149.9343  135.7807  157.8603 C   0  0  2  0  0  0  0  0  0  0  0  0
  149.2261  135.1118  156.8228 O   0  0  0  0  0  0  0  0  0  0  0  0
  149.8944  134.4065  155.8957 C   0  0  0  0  0  0  0  0  0  0  0  0
  148.9953  133.9468  154.7561 C   0  0  0  0  0  0  0  0  0  0  0  0
  151.0961  134.1410  155.9152 O   0  0  0  0  0  0  0  0  0  0  0  0
  148.2215  137.0264  163.8860 H   0  0  0  0  0  0  0  0  0  0  0  0
  146.4797  136.7261  163.8096 H   0  0  0  0  0  0  0  0  0  0  0  0
  147.2034  137.9853  162.8009 H   0  0  0  0  0  0  0  0  0  0  0  0
  149.0250  134.9314  160.2083 H   0  0  0  0  0  0  0  0  0  0  0  0
  147.4538  135.2056  159.4646 H   0  0  0  0  0  0  0  0  0  0  0  0
  148.2466  137.0875  158.2007 H   0  0  0  0  0  0  0  0  0  0  0  0
  151.8529  137.5623  159.1821 H   0  0  0  0  0  0  0  0  0  0  0  0
  154.7375  141.2922  160.9275 H   0  0  0  0  0  0  0  0  0  0  0  0
  152.9783  141.5551  160.9861 H   0  0  0  0  0  0  0  0  0  0  0  0
  153.9261  142.1817  159.6174 H   0  0  0  0  0  0  0  0  0  0  0  0
  151.0427  143.8886  157.1330 H   0  0  0  0  0  0  0  0  0  0  0  0
  149.5590  144.2080  156.2607 H   0  0  0  0  0  0  0  0  0  0  0  0
  147.3266  140.3419  155.9900 H   0  0  0  0  0  0  0  0  0  0  0  0
  151.8246  136.4774  157.0696 H   0  0  0  0  0  0  0  0  0  0  0  0
  150.1099  139.6450  154.5365 H   0  0  0  0  0  0  0  0  0  0  0  0
  149.1246  138.2921  153.9580 H   0  0  0  0  0  0  0  0  0  0  0  0
  150.6539  138.6803  153.1563 H   0  0  0  0  0  0  0  0  0  0  0  0
  150.5147  135.0748  158.4572 H   0  0  0  0  0  0  0  0  0  0  0  0
  148.7974  134.7740  154.0746 H   0  0  0  0  0  0  0  0  0  0  0  0
  148.0446  133.5802  155.1437 H   0  0  0  0  0  0  0  0  0  0  0  0
  149.4718  133.1425  154.1953 H   0  0  0  0  0  0  0  0  0  0  0  0
  1  2  1  0  0  0  0
  1 33  1  0  0  0  0
  1 34  1  0  0  0  0
  1 35  1  0  0  0  0
  2  3  2  0  0  0  0
  2  4  1  0  0  0  0
  4  5  1  0  0  0  0
  5  6  1  0  0  0  0
  5 36  1  0  0  0  0
  5 37  1  0  0  0  0
  6 28  1  0  0  0  0
  6  7  1  0  0  0  0
  6 38  1  0  0  0  0
  7  8  1  0  0  0  0
  8  9  1  0  0  0  0
  8 23  1  0  0  0  0
  8 39  1  0  0  0  0
  9 22  1  0  0  0  0
  9 10  1  0  0  0  0
 10 11  1  0  0  0  0
 10 15  2  0  0  0  0
 11 12  1  0  0  0  0
 11 13  2  0  0  0  0
 11 14  2  0  0  0  0
 12 40  1  0  0  0  0
 12 41  1  0  0  0  0
 12 42  1  0  0  0  0
 15 16  1  0  0  0  0
 16 22  2  0  0  0  0
 16 17  1  0  0  0  0
 17 18  1  0  0  0  0
 17 19  2  0  0  0  0
 18 43  1  0  0  0  0
 18 44  1  0  0  0  0
 19 20  1  0  0  0  0
 20 21  2  0  0  0  0
 20 45  1  0  0  0  0
 21 22  1  0  0  0  0
 23 24  1  0  0  0  0
 23 28  1  0  0  0  0
 23 46  1  0  0  0  0
 24 25  1  0  0  0  0
 25 26  1  0  0  0  0
 25 27  2  0  0  0  0
 26 47  1  0  0  0  0
 26 48  1  0  0  0  0
 26 49  1  0  0  0  0
 28 29  1  0  0  0  0
 28 50  1  0  0  0  0
 29 30  1  0  0  0  0
 30 31  1  0  0  0  0
 30 32  2  0  0  0  0
 31 51  1  0  0  0  0
 31 52  1  0  0  0  0
 31 53  1  0  0  0  0
M  END
> <s_m_source_file>
AV-unprocessed.smi

> <i_m_source_file_index>
103

> <i_lp_mmshare_version>
43012

> <i_f3d_flags>
0

> <s_epik_input>
W0NIM11DKD1PKU9bQ0gyXVtDQEBIXTFPW0NASF0oW0NAQEhdKE9DKD1PKVtDSDNdKVtDQEhdMU9DKD1PKVtDSDNdKW4oYyhuMilTKD1PKSg9TylbQ0gzXSljKGMyMyluW2NIXW5jM1tOSDJd

> <s_epik_cmdline>
J2VwaWtfcHl0aG9uJywgJy1waCcsICc3LjAnLCAnLXRuJywgJzgnLCAnLW1hJywgJzIwMCcsICctbWV0YWxfYmluZGluZycsICctaW1hZScsICc8aW5maWxlLm1hZT4nLCAnLW9tYWUnLCAnPG91dGZpbGUubWFlPic=

> <r_lp_tautomer_probability>
1

> <r_epik_Ionization_Penalty>
1.51338e-05

> <r_epik_Ionization_Penalty_Charging>
0

> <r_epik_Ionization_Penalty_Neutral>
1.51338e-05

> <r_epik_State_Penalty>
-0

> <r_epik_Charging_Adjusted_Penalty>
0

> <i_epik_Tot_Q>
0

> <i_epik_Tot_abs_Q>
0

> <r_epik_Metal_State_Penalty>
-0

> <b_epik_Metal_Only>
0

> <s_epik_Chemistry_Notes>
This compound has an ester and may undergo hydrolysis at high or low pH. This compound contains an acetal/aminal-like group ( X-CH(R)-Y where X, Y are N, S, or O) that may be acid/base labile, releasing an aldehyde.

> <s_lp_Force_Field>
OPLS_2005

> <r_lp_Energy>
14.4013

> <b_lp_Chiralities_Consistent>
1

> <s_lp_Variant>
AV-unprocessed.smi:103-16

> <Gold.Version>
5.8.1

> <Gold.Id.Protein>
6NUR|6NUR_protein|mol2

> <Gold.PLP.Fitness>
48.5550

> <Gold.PLP.PLP>
-41.2814

> <Gold.PLP.part.hbond>
-4.1366

> <Gold.PLP.part.metal>
0.0000

> <Gold.PLP.part.buried>
-8.3715

> <Gold.PLP.part.nonpolar>
-30.7584

> <Gold.PLP.part.repulsive>
1.5759

> <Gold.PLP.ligand.clash>
0.0000

> <Gold.PLP.ligand.torsion>
2.3371

> <Gold.PLP.Chemscore.Hbond>
2.9680

> <Gold.PLP.Chemscore.CHOScore>
0.0000

> <Gold.PLP.Chemscore.Metal>
0.0000

> <Gold.Chemscore.Hbonds>
donor molecule, donor type, donor heavy atom, donor atom, acceptor molecule, acceptor atom, score
      P1  H  7997  8008       L1    14  0.39
      P1  H 10752 10763       L1    27  0.91

> <Gold.PLP.Chemscore.Internal.Correction>
3.0438

> <Gold.Rescore>
     Score         DG    S(hbond)    S(metal)    S(lipo)     H(rot)  DE(clash)    DE(int)     intcor
      4.29     -10.41       2.92        0.00      51.61       4.25       0.09       6.04       ----

> <Gold.Chemscore.Fitness>
4.2850

> <Gold.Chemscore.DG>
-10.4132

> <Gold.Chemscore.ZeroCoef>
-5.4800

> <Gold.Chemscore.Hbond>
2.9231

> <Gold.Chemscore.Metal>
0.0000

> <Gold.Chemscore.Lipo>
51.6120

> <Gold.Chemscore.Internal_Hbond>
0.0000

> <Gold.Chemscore.DEClash>
0.0896

> <Gold.Chemscore.DEInternal>
6.0385

> <Gold.Chemscore.Rot>
4.2456

> <Gold.Chemscore.Internal.Correction>
   9.000000E+99

> <Gold.Chemscore.Hbonds>
donor molecule, donor type, donor heavy atom, donor atom, acceptor molecule, acceptor atom, score
      P1  H  7997  8008       L1    14  0.39
      P1  H 10752 10763       L1    27  0.88

> <Gold.Chemscore.Hbond.Weighted>
-9.7633

> <Gold.Chemscore.Metal.Weighted>
-0.0000

> <Gold.Chemscore.Lipo.Weighted>
-6.0386

> <Gold.Chemscore.Internal_Hbond.Weighted>
0.0000

> <Gold.Chemscore.DEClash.Weighted>
0.0896

> <Gold.Chemscore.DEInternal.Weighted>
6.0385

> <Gold.Chemscore.Rot.Weighted>
10.8687

> <Gold.Chemscore.Internal.Correction.Weighted>
   9.000000E+99

> <Gold.Protein.RotatedTorsions>
[ 6907 6896 6895 6894 ] final  -81.41 input  -60.11 | X-H torsion
[ 7974 7965 7964 7962 ] final -143.97 input  175.53 | X-H torsion
[ 8008 7997 7996 7995 ] final -128.54 input   59.86 | X-H torsion
[ 10167 10162 10161 10158 ] final  -39.05 input  -65.29 | X-H torsion
[ 10718 10713 10712 10709 ] final  -90.05 input   66.30 | X-H torsion
[ 10763 10752 10751 10750 ] final   40.57 input  -60.55 | X-H torsion
[ 11005 11000 10999 10996 ] final   19.99 input  -57.11 | X-H torsion

> <Gold.Protein.ActiveResidues>
 VAL166  LYS551  ARG553  GLY616  TRP617  ASP618  TYR619  PRO620  LYS621  CYS622 
 ASP623  PHE694  ASN695  SER759  ASP760  ASP761  ALA762  ILE779  LEU786  VAL792 
 PHE793  MET794  SER795  GLU796  ALA797  LYS798  CYS799  TRP800  GLU811  SER814 

> <Gold.Protein.RotatedAtoms>
  150.6912  134.3821  159.5038 H   0  0  0  0  0  0  0  0  0  0  0  0  # atno 6907 bound_to 6896
  152.1622  134.8900  160.0550 H   0  0  0  0  0  0  0  0  0  0  0  0  # atno 6908 bound_to 6896
  151.9958  133.3772  159.4199 H   0  0  0  0  0  0  0  0  0  0  0  0  # atno 6909 bound_to 6896
  144.8331  140.5769  143.5502 H   0  0  0  0  0  0  0  0  0  0  0  0  # atno 7974 bound_to 7965
  155.2644  140.0437  157.3000 H   0  0  0  0  0  0  0  0  0  0  0  0  # atno 8008 bound_to 7997
  154.5691  140.2368  155.8188 H   0  0  0  0  0  0  0  0  0  0  0  0  # atno 8009 bound_to 7997
  156.2108  140.2999  155.9737 H   0  0  0  0  0  0  0  0  0  0  0  0  # atno 8010 bound_to 7997
  140.7075  143.3238  151.2727 H   0  0  0  0  0  0  0  0  0  0  0  0  # atno 10167 bound_to 10162
  155.9986  130.4895  150.5263 H   0  0  0  0  0  0  0  0  0  0  0  0  # atno 10718 bound_to 10713
  152.9932  135.6187  154.2647 H   0  0  0  0  0  0  0  0  0  0  0  0  # atno 10763 bound_to 10752
  154.2382  135.2789  155.2866 H   0  0  0  0  0  0  0  0  0  0  0  0  # atno 10764 bound_to 10752
  154.5392  135.5766  153.6882 H   0  0  0  0  0  0  0  0  0  0  0  0  # atno 10765 bound_to 10752
  140.4075  134.1653  155.7666 H   0  0  0  0  0  0  0  0  0  0  0  0  # atno 11005 bound_to 11000
  145.4853  139.1492  143.3739 LP  0  0  0  0  0  0  0  0  0  0  0  0  # atno 17320 bound_to 7965
  146.2632  140.4990  142.8845 LP  0  0  0  0  0  0  0  0  0  0  0  0  # atno 17321 bound_to 7965
  139.6701  144.0036  152.2747 LP  0  0  0  0  0  0  0  0  0  0  0  0  # atno 17342 bound_to 10162
  139.9631  144.6544  150.8060 LP  0  0  0  0  0  0  0  0  0  0  0  0  # atno 17343 bound_to 10162
  157.3218  131.0683  151.1926 LP  0  0  0  0  0  0  0  0  0  0  0  0  # atno 17370 bound_to 10713
  157.2836  130.6762  149.6078 LP  0  0  0  0  0  0  0  0  0  0  0  0  # atno 17371 bound_to 10713
  141.1833  133.8366  157.1178 LP  0  0  0  0  0  0  0  0  0  0  0  0  # atno 17394 bound_to 11000
  140.0291  134.9910  157.0745 LP  0  0  0  0  0  0  0  0  0  0  0  0  # atno 17395 bound_to 11000

$$$$
