AV-unprocessed.smi:216|AV-procd|sdf|1659|dock6
  -GOLD-   2262020 53D 1   1.00000     0.00000
 Structure written by MMmdl.
 65 69  0  0  0  0  0  0  0  0  1 V2000
  153.7779  141.7639  162.7320 C   0  0  0  0  0  0  0  0  0  0  0  0
  153.0176  141.2071  161.5088 C   0  0  1  0  0  0  0  0  0  0  0  0
  152.6957  142.3603  160.5370 C   0  0  0  0  0  0  0  0  0  0  0  0
  151.8429  141.8815  159.3592 C   0  0  0  0  0  0  0  0  0  0  0  0
  152.4799  140.7508  158.6908 N   0  0  0  0  0  0  0  0  0  0  0  0
  152.0004  140.4074  157.4672 C   0  0  0  0  0  0  0  0  0  0  0  0
  152.6363  139.4567  156.7303 N   0  0  0  0  0  0  0  0  0  0  0  0
  152.1758  139.1151  155.5237 C   0  0  0  0  0  0  0  0  0  0  0  0
  151.1098  139.5851  154.8744 N   0  0  0  0  0  0  0  0  0  0  0  0
  150.4617  140.5337  155.6091 C   0  0  0  0  0  0  0  0  0  0  0  0
  150.8391  141.0038  156.8991 C   0  0  0  0  0  0  0  0  0  0  0  0
  149.9393  141.9710  157.3283 N   0  0  0  0  0  0  0  0  0  0  0  0
  149.0877  142.0762  156.3456 C   0  0  0  0  0  0  0  0  0  0  0  0
  149.3130  141.2334  155.2806 N   0  0  0  0  0  0  0  0  0  0  0  0
  148.5183  141.1303  154.0648 C   0  0  0  0  0  0  0  0  0  0  0  0
  147.5637  139.8996  154.0119 C   0  0  0  0  0  0  0  0  0  0  0  0
  146.7758  139.8670  152.6705 C   0  0  0  0  0  0  0  0  0  0  0  0
  147.4512  139.1317  151.6694 O   0  0  0  0  0  0  0  0  0  0  0  0
  148.4101  138.6154  154.1986 C   0  0  0  0  0  0  0  0  0  0  0  0
  147.5532  137.3616  154.4521 C   0  0  0  0  0  0  0  0  0  0  0  0
  146.7166  137.5663  155.5831 O   0  0  0  0  0  0  0  0  0  0  0  0
  145.8001  138.6379  155.4045 C   0  0  0  0  0  0  0  0  0  0  0  0
  146.5647  139.9578  155.1953 C   0  0  0  0  0  0  0  0  0  0  0  0
  152.7778  139.6158  159.5649 C   0  0  0  0  0  0  0  0  0  0  0  0
  153.6921  139.9985  160.7679 C   0  0  0  0  0  0  0  0  0  0  0  0
  155.1312  140.3430  160.2775 C   0  0  0  0  0  0  0  0  0  0  0  0
  155.9004  139.1391  159.7009 C   0  0  0  0  0  0  0  0  0  0  0  0
  155.9458  137.9706  160.6932 C   0  0  0  0  0  0  0  0  0  0  0  0
  154.5321  137.5715  161.1346 C   0  0  0  0  0  0  0  0  0  0  0  0
  153.7785  138.7761  161.7269 C   0  0  0  0  0  0  0  0  0  0  0  0
  154.7367  142.2016  162.4562 H   0  0  0  0  0  0  0  0  0  0  0  0
  153.9559  141.0099  163.4964 H   0  0  0  0  0  0  0  0  0  0  0  0
  153.1987  142.5542  163.2104 H   0  0  0  0  0  0  0  0  0  0  0  0
  152.0597  140.8483  161.8889 H   0  0  0  0  0  0  0  0  0  0  0  0
  152.1625  143.1543  161.0612 H   0  0  0  0  0  0  0  0  0  0  0  0
  153.6166  142.8097  160.1649 H   0  0  0  0  0  0  0  0  0  0  0  0
  150.8551  141.5837  159.7139 H   0  0  0  0  0  0  0  0  0  0  0  0
  151.7012  142.7038  158.6563 H   0  0  0  0  0  0  0  0  0  0  0  0
  152.7422  138.3563  155.0045 H   0  0  0  0  0  0  0  0  0  0  0  0
  148.2586  142.7680  156.3769 H   0  0  0  0  0  0  0  0  0  0  0  0
  147.9532  142.0566  153.9535 H   0  0  0  0  0  0  0  0  0  0  0  0
  149.2073  141.1076  153.2193 H   0  0  0  0  0  0  0  0  0  0  0  0
  145.7901  139.4216  152.7922 H   0  0  0  0  0  0  0  0  0  0  0  0
  146.5998  140.8761  152.2979 H   0  0  0  0  0  0  0  0  0  0  0  0
  148.3705  139.3477  151.7072 H   0  0  0  0  0  0  0  0  0  0  0  0
  149.0604  138.4523  153.3387 H   0  0  0  0  0  0  0  0  0  0  0  0
  149.0761  138.7426  155.0532 H   0  0  0  0  0  0  0  0  0  0  0  0
  146.9541  137.0994  153.5797 H   0  0  0  0  0  0  0  0  0  0  0  0
  148.1999  136.5070  154.6516 H   0  0  0  0  0  0  0  0  0  0  0  0
  145.1281  138.4252  154.5725 H   0  0  0  0  0  0  0  0  0  0  0  0
  145.1757  138.7109  156.2951 H   0  0  0  0  0  0  0  0  0  0  0  0
  147.1063  140.1808  156.1154 H   0  0  0  0  0  0  0  0  0  0  0  0
  145.8512  140.7711  155.0585 H   0  0  0  0  0  0  0  0  0  0  0  0
  151.8273  139.2324  159.9389 H   0  0  0  0  0  0  0  0  0  0  0  0
  153.2152  138.8012  158.9913 H   0  0  0  0  0  0  0  0  0  0  0  0
  155.1056  141.1359  159.5302 H   0  0  0  0  0  0  0  0  0  0  0  0
  155.7221  140.7326  161.1051 H   0  0  0  0  0  0  0  0  0  0  0  0
  155.4455  138.8073  158.7697 H   0  0  0  0  0  0  0  0  0  0  0  0
  156.9160  139.4423  159.4457 H   0  0  0  0  0  0  0  0  0  0  0  0
  156.4520  137.1166  160.2422 H   0  0  0  0  0  0  0  0  0  0  0  0
  156.5355  138.2554  161.5655 H   0  0  0  0  0  0  0  0  0  0  0  0
  153.9824  137.1522  160.2917 H   0  0  0  0  0  0  0  0  0  0  0  0
  154.5929  136.7766  161.8785 H   0  0  0  0  0  0  0  0  0  0  0  0
  154.2958  139.0507  162.6445 H   0  0  0  0  0  0  0  0  0  0  0  0
  152.7785  138.4652  162.0312 H   0  0  0  0  0  0  0  0  0  0  0  0
  1  2  1  0  0  0  0
  1 31  1  0  0  0  0
  1 32  1  0  0  0  0
  1 33  1  0  0  0  0
  2 25  1  0  0  0  0
  2  3  1  0  0  0  0
  2 34  1  0  0  0  0
  3  4  1  0  0  0  0
  3 35  1  0  0  0  0
  3 36  1  0  0  0  0
  4  5  1  0  0  0  0
  4 37  1  0  0  0  0
  4 38  1  0  0  0  0
  5  6  1  0  0  0  0
  5 24  1  0  0  0  0
  6 11  1  0  0  0  0
  6  7  2  0  0  0  0
  7  8  1  0  0  0  0
  8  9  2  0  0  0  0
  8 39  1  0  0  0  0
  9 10  1  0  0  0  0
 10 14  1  0  0  0  0
 10 11  2  0  0  0  0
 11 12  1  0  0  0  0
 12 13  2  0  0  0  0
 13 14  1  0  0  0  0
 13 40  1  0  0  0  0
 14 15  1  0  0  0  0
 15 16  1  0  0  0  0
 15 41  1  0  0  0  0
 15 42  1  0  0  0  0
 16 23  1  0  0  0  0
 16 17  1  0  0  0  0
 16 19  1  0  0  0  0
 17 18  1  0  0  0  0
 17 43  1  0  0  0  0
 17 44  1  0  0  0  0
 18 45  1  0  0  0  0
 19 20  1  0  0  0  0
 19 46  1  0  0  0  0
 19 47  1  0  0  0  0
 20 21  1  0  0  0  0
 20 48  1  0  0  0  0
 20 49  1  0  0  0  0
 21 22  1  0  0  0  0
 22 23  1  0  0  0  0
 22 50  1  0  0  0  0
 22 51  1  0  0  0  0
 23 52  1  0  0  0  0
 23 53  1  0  0  0  0
 24 25  1  0  0  0  0
 24 54  1  0  0  0  0
 24 55  1  0  0  0  0
 25 30  1  0  0  0  0
 25 26  1  0  0  0  0
 26 27  1  0  0  0  0
 26 56  1  0  0  0  0
 26 57  1  0  0  0  0
 27 28  1  0  0  0  0
 27 58  1  0  0  0  0
 27 59  1  0  0  0  0
 28 29  1  0  0  0  0
 28 60  1  0  0  0  0
 28 61  1  0  0  0  0
 29 30  1  0  0  0  0
 29 62  1  0  0  0  0
 29 63  1  0  0  0  0
 30 64  1  0  0  0  0
 30 65  1  0  0  0  0
M  END
> <s_m_source_file>
AV-unprocessed.smi

> <i_m_source_file_index>
216

> <i_lp_mmshare_version>
43012

> <i_f3d_flags>
0

> <s_epik_input>
W0NIMl0xW0NIMl1bQ0gyXVtDSDJdW0NIMl1DMTJbQ0BIXShbQ0gzXSlbQ0gyXVtDSDJdTihbQ0gyXTIpYyhuW2NIXW4zKWMoYzM0KW5bY0hdbjRbQ0gyXUM1KFtDSDJdW09IXSlbQ0gyXVtDSDJdT1tDSDJdW0NIMl01

> <s_epik_cmdline>
J2VwaWtfcHl0aG9uJywgJy1waCcsICc3LjAnLCAnLXRuJywgJzgnLCAnLW1hJywgJzIwMCcsICctbWV0YWxfYmluZGluZycsICctaW1hZScsICc8aW5maWxlLm1hZT4nLCAnLW9tYWUnLCAnPG91dGZpbGUubWFlPic=

> <r_lp_tautomer_probability>
1

> <r_epik_Ionization_Penalty>
0.00291566

> <r_epik_Ionization_Penalty_Charging>
0

> <r_epik_Ionization_Penalty_Neutral>
0.00291566

> <r_epik_State_Penalty>
0.00199166

> <r_epik_Charging_Adjusted_Penalty>
0.00199166

> <i_epik_Tot_Q>
0

> <i_epik_Tot_abs_Q>
0

> <r_epik_Metal_State_Penalty>
-0

> <b_epik_Metal_Only>
0

> <s_lp_Force_Field>
OPLS_2005

> <r_lp_Energy>
50.0726

> <b_lp_Chiralities_Consistent>
1

> <s_lp_Variant>
AV-unprocessed.smi:216-2

> <Gold.Version>
5.8.1

> <Gold.Id.Protein>
6NUR|6NUR_protein|mol2

> <Gold.PLP.Fitness>
52.5394

> <Gold.PLP.PLP>
-44.2129

> <Gold.PLP.part.hbond>
-3.8107

> <Gold.PLP.part.metal>
0.0000

> <Gold.PLP.part.buried>
0.1143

> <Gold.PLP.part.nonpolar>
-39.9145

> <Gold.PLP.part.repulsive>
0.1824

> <Gold.PLP.ligand.clash>
0.0000

> <Gold.PLP.ligand.torsion>
0.9914

> <Gold.PLP.Chemscore.Hbond>
2.7500

> <Gold.PLP.Chemscore.CHOScore>
0.5784

> <Gold.PLP.Chemscore.Metal>
0.0000

> <Gold.Chemscore.Hbonds>
donor molecule, donor type, donor heavy atom, donor atom, acceptor molecule, acceptor atom, score
      L1  H    18    45       P1  7957  0.89
      P1  H  7954  7966       L1    18  0.01
      P1  H  7989  7998       L1     9  0.65
      P1  H  7997  8009       L1     7  1.00
      L1  C    13    40       P1  8028  0.62

> <Gold.PLP.Chemscore.Internal.Correction>
0.3239

> <Gold.Rescore>
     Score         DG    S(hbond)    S(metal)    S(lipo)     H(rot)  DE(clash)    DE(int)     intcor
     15.66     -20.09       2.16        0.00     111.45       2.20       1.64       2.79       ----

> <Gold.Chemscore.Fitness>
15.6638

> <Gold.Chemscore.DG>
-20.0948

> <Gold.Chemscore.ZeroCoef>
-5.4800

> <Gold.Chemscore.Hbond>
2.1595

> <Gold.Chemscore.Metal>
0.0000

> <Gold.Chemscore.Lipo>
111.4454

> <Gold.Chemscore.Internal_Hbond>
0.0000

> <Gold.Chemscore.DEClash>
1.6411

> <Gold.Chemscore.DEInternal>
2.7898

> <Gold.Chemscore.Rot>
2.2019

> <Gold.Chemscore.Internal.Correction>
   9.000000E+99

> <Gold.Chemscore.Hbonds>
donor molecule, donor type, donor heavy atom, donor atom, acceptor molecule, acceptor atom, score
      L1  H    18    45       P1  7957  0.81
      P1  H  7989  7998       L1     9  0.04
      P1  H  7997  8009       L1     7  0.31

> <Gold.Chemscore.Hbond.Weighted>
-7.2127

> <Gold.Chemscore.Metal.Weighted>
-0.0000

> <Gold.Chemscore.Lipo.Weighted>
-13.0391

> <Gold.Chemscore.Internal_Hbond.Weighted>
0.0000

> <Gold.Chemscore.DEClash.Weighted>
1.6411

> <Gold.Chemscore.DEInternal.Weighted>
2.7898

> <Gold.Chemscore.Rot.Weighted>
5.6370

> <Gold.Chemscore.Internal.Correction.Weighted>
   9.000000E+99

> <Gold.Protein.RotatedTorsions>
[ 6907 6896 6895 6894 ] final   38.11 input  -60.11 | X-H torsion
[ 7974 7965 7964 7962 ] final   93.50 input  175.53 | X-H torsion
[ 8008 7997 7996 7995 ] final -175.39 input   59.86 | X-H torsion
[ 10167 10162 10161 10158 ] final -171.85 input  -65.29 | X-H torsion
[ 10718 10713 10712 10709 ] final -153.79 input   66.30 | X-H torsion
[ 10763 10752 10751 10750 ] final  173.84 input  -60.55 | X-H torsion
[ 11005 11000 10999 10996 ] final  -65.72 input  -57.11 | X-H torsion

> <Gold.Protein.ActiveResidues>
 VAL166  LYS551  ARG553  GLY616  TRP617  ASP618  TYR619  PRO620  LYS621  CYS622 
 ASP623  PHE694  ASN695  SER759  ASP760  ASP761  ALA762  ILE779  LEU786  VAL792 
 PHE793  MET794  SER795  GLU796  ALA797  LYS798  CYS799  TRP800  GLU811  SER814 

> <Gold.Protein.RotatedAtoms>
  152.1521  134.8980  160.0547 H   0  0  0  0  0  0  0  0  0  0  0  0  # atno 6907 bound_to 6896
  152.0007  133.3819  159.4189 H   0  0  0  0  0  0  0  0  0  0  0  0  # atno 6908 bound_to 6896
  150.6877  134.3759  159.5056 H   0  0  0  0  0  0  0  0  0  0  0  0  # atno 6909 bound_to 6896
  145.4781  139.2279  143.2898 H   0  0  0  0  0  0  0  0  0  0  0  0  # atno 7974 bound_to 7965
  155.9820  140.1183  157.0718 H   0  0  0  0  0  0  0  0  0  0  0  0  # atno 8008 bound_to 7997
  154.4185  140.1142  156.5516 H   0  0  0  0  0  0  0  0  0  0  0  0  # atno 8009 bound_to 7997
  155.6458  140.3473  155.4733 H   0  0  0  0  0  0  0  0  0  0  0  0  # atno 8010 bound_to 7997
  139.5778  144.1491  152.1475 H   0  0  0  0  0  0  0  0  0  0  0  0  # atno 10167 bound_to 10162
  156.4905  130.8345  151.2568 H   0  0  0  0  0  0  0  0  0  0  0  0  # atno 10718 bound_to 10713
  154.4457  135.2763  155.1817 H   0  0  0  0  0  0  0  0  0  0  0  0  # atno 10763 bound_to 10752
  154.3664  135.6118  153.5721 H   0  0  0  0  0  0  0  0  0  0  0  0  # atno 10764 bound_to 10752
  152.9843  135.5847  154.4792 H   0  0  0  0  0  0  0  0  0  0  0  0  # atno 10765 bound_to 10752
  141.1462  133.6686  156.6030 H   0  0  0  0  0  0  0  0  0  0  0  0  # atno 11005 bound_to 11000
  146.2357  140.5565  142.8956 LP  0  0  0  0  0  0  0  0  0  0  0  0  # atno 17320 bound_to 7965
  144.7905  140.6022  143.6545 LP  0  0  0  0  0  0  0  0  0  0  0  0  # atno 17321 bound_to 7965
  140.1038  144.5516  150.6971 LP  0  0  0  0  0  0  0  0  0  0  0  0  # atno 17342 bound_to 10162
  140.7060  143.2468  151.4726 LP  0  0  0  0  0  0  0  0  0  0  0  0  # atno 17343 bound_to 10162
  157.7474  131.0015  150.2965 LP  0  0  0  0  0  0  0  0  0  0  0  0  # atno 17370 bound_to 10713
  156.3431  130.3818  149.7392 LP  0  0  0  0  0  0  0  0  0  0  0  0  # atno 17371 bound_to 10713
  140.3674  134.7635  157.4575 LP  0  0  0  0  0  0  0  0  0  0  0  0  # atno 17394 bound_to 11000
  140.0737  134.5827  155.8614 LP  0  0  0  0  0  0  0  0  0  0  0  0  # atno 17395 bound_to 11000

$$$$
