AV-unprocessed.smi:2385|AV-procd|sdf|9466|dock3
  -GOLD-   2272013 93D 1   1.00000     0.00000
 Structure written by MMmdl.
 50 52  0  0  0  0  0  0  0  0  2 V2000
  152.0985  145.8889  160.2418 C   0  0  0  0  0  0  0  0  0  0  0  0
  151.8946  144.5970  159.4783 C   0  0  0  0  0  0  0  0  0  0  0  0
  152.5283  143.4046  159.8766 C   0  0  0  0  0  0  0  0  0  0  0  0
  152.3012  142.2329  159.1290 C   0  0  0  0  0  0  0  0  0  0  0  0
  151.4486  142.2804  158.0029 C   0  0  0  0  0  0  0  0  0  0  0  0
  151.2848  141.0458  157.3197 N   0  0  0  0  0  0  0  0  0  0  0  0
  150.9762  140.8473  156.0259 C   0  0  0  0  0  0  0  0  0  0  0  0
  150.7996  141.7339  155.1901 O   0  0  0  0  0  0  0  0  0  0  0  0
  150.8801  139.5393  155.7439 N   0  0  0  0  0  0  0  0  0  0  0  0
  150.5733  138.9786  154.4278 C   0  0  2  0  0  0  0  0  0  0  0  0
  149.0636  138.7301  154.2425 C   0  0  0  0  0  0  0  0  0  0  0  0
  148.5601  137.5653  155.1125 C   0  0  0  0  0  0  0  0  0  0  0  0
  149.3254  136.3191  154.8457 N   0  3  2  0  0  0  0  0  0  0  0  0
  148.7647  135.1489  155.5728 C   0  0  0  0  0  0  0  0  0  0  0  0
  149.4303  133.8147  155.1749 C   0  0  1  0  0  0  0  0  0  0  0  0
  149.7511  132.8612  156.3234 C   0  0  0  0  0  0  0  0  0  0  0  0
  149.4753  131.4639  155.7574 C   0  0  0  0  0  0  0  0  0  0  0  0
  149.1410  131.6671  154.3924 O   0  0  0  0  0  0  0  0  0  0  0  0
  148.5396  132.9447  154.2899 C   0  0  0  0  0  0  0  0  0  0  0  0
  150.7811  136.5180  155.0781 C   0  0  0  0  0  0  0  0  0  0  0  0
  151.3387  137.6625  154.2115 C   0  0  0  0  0  0  0  0  0  0  0  0
  150.8420  143.4342  157.6276 N   0  0  0  0  0  0  0  0  0  0  0  0
  151.0604  144.5566  158.3444 C   0  0  0  0  0  0  0  0  0  0  0  0
  152.7508  145.7423  161.1031 H   0  0  0  0  0  0  0  0  0  0  0  0
  151.1420  146.2710  160.5994 H   0  0  0  0  0  0  0  0  0  0  0  0
  152.5502  146.6419  159.5953 H   0  0  0  0  0  0  0  0  0  0  0  0
  153.1776  143.3830  160.7399 H   0  0  0  0  0  0  0  0  0  0  0  0
  152.7801  141.3095  159.4215 H   0  0  0  0  0  0  0  0  0  0  0  0
  151.4138  140.2193  157.8842 H   0  0  0  0  0  0  0  0  0  0  0  0
  151.0492  138.8823  156.4915 H   0  0  0  0  0  0  0  0  0  0  0  0
  150.9085  139.6938  153.6742 H   0  0  0  0  0  0  0  0  0  0  0  0
  148.4930  139.6335  154.4607 H   0  0  0  0  0  0  0  0  0  0  0  0
  148.8670  138.5003  153.1944 H   0  0  0  0  0  0  0  0  0  0  0  0
  148.6331  137.8210  156.1708 H   0  0  0  0  0  0  0  0  0  0  0  0
  147.5031  137.4022  154.8993 H   0  0  0  0  0  0  0  0  0  0  0  0
  148.7959  135.3092  156.6516 H   0  0  0  0  0  0  0  0  0  0  0  0
  147.7070  135.0615  155.3201 H   0  0  0  0  0  0  0  0  0  0  0  0
  150.3465  134.0147  154.6165 H   0  0  0  0  0  0  0  0  0  0  0  0
  150.7874  132.9643  156.6462 H   0  0  0  0  0  0  0  0  0  0  0  0
  149.1106  133.0399  157.1881 H   0  0  0  0  0  0  0  0  0  0  0  0
  150.3343  130.7989  155.8496 H   0  0  0  0  0  0  0  0  0  0  0  0
  148.6311  131.0016  156.2707 H   0  0  0  0  0  0  0  0  0  0  0  0
  147.5181  132.9009  154.6717 H   0  0  0  0  0  0  0  0  0  0  0  0
  148.5071  133.2892  153.2560 H   0  0  0  0  0  0  0  0  0  0  0  0
  150.9574  136.7236  156.1350 H   0  0  0  0  0  0  0  0  0  0  0  0
  151.3311  135.6098  154.8421 H   0  0  0  0  0  0  0  0  0  0  0  0
  151.2692  137.3776  153.1606 H   0  0  0  0  0  0  0  0  0  0  0  0
  152.4007  137.8044  154.4158 H   0  0  0  0  0  0  0  0  0  0  0  0
  150.5537  145.4473  158.0026 H   0  0  0  0  0  0  0  0  0  0  0  0
  149.2053  136.1266  153.8614 H   0  0  0  0  0  0  0  0  0  0  0  0
  1  2  1  0  0  0  0
  1 24  1  0  0  0  0
  1 25  1  0  0  0  0
  1 26  1  0  0  0  0
  2 23  1  0  0  0  0
  2  3  2  0  0  0  0
  3  4  1  0  0  0  0
  3 27  1  0  0  0  0
  4  5  2  0  0  0  0
  4 28  1  0  0  0  0
  5  6  1  0  0  0  0
  5 22  1  0  0  0  0
  6  7  1  0  0  0  0
  6 29  1  0  0  0  0
  7  8  2  0  0  0  0
  7  9  1  0  0  0  0
  9 10  1  0  0  0  0
  9 30  1  0  0  0  0
 10 21  1  0  0  0  0
 10 11  1  0  0  0  0
 10 31  1  0  0  0  0
 11 12  1  0  0  0  0
 11 32  1  0  0  0  0
 11 33  1  0  0  0  0
 12 13  1  0  0  0  0
 12 34  1  0  0  0  0
 12 35  1  0  0  0  0
 13 14  1  0  0  0  0
 13 20  1  0  0  0  0
 13 50  1  0  0  0  0
 14 15  1  0  0  0  0
 14 36  1  0  0  0  0
 14 37  1  0  0  0  0
 15 19  1  0  0  0  0
 15 16  1  0  0  0  0
 15 38  1  0  0  0  0
 16 17  1  0  0  0  0
 16 39  1  0  0  0  0
 16 40  1  0  0  0  0
 17 18  1  0  0  0  0
 17 41  1  0  0  0  0
 17 42  1  0  0  0  0
 18 19  1  0  0  0  0
 19 43  1  0  0  0  0
 19 44  1  0  0  0  0
 20 21  1  0  0  0  0
 20 45  1  0  0  0  0
 20 46  1  0  0  0  0
 21 47  1  0  0  0  0
 21 48  1  0  0  0  0
 22 23  2  0  0  0  0
 23 49  1  0  0  0  0
M  CHG  1  13   1
M  END
> <s_m_source_file>
AV-unprocessed.smi

> <i_m_source_file_index>
2385

> <i_lp_mmshare_version>
43012

> <i_f3d_flags>
0

> <s_epik_input>
W0NIM11jMVtjSF1bY0hdYyhuW2NIXTEpW05IXUMoPU8pW05IXVtDSF0yW0NIMl1bQ0gyXU4oW0NIMl1bQ0gyXTIpW0NIMl1bQ0BASF0zW0NIMl1bQ0gyXU9bQ0gyXTM=

> <s_epik_cmdline>
J2VwaWtfcHl0aG9uJywgJy1waCcsICc3LjAnLCAnLXRuJywgJzgnLCAnLW1hJywgJzIwMCcsICctbWV0YWxfYmluZGluZycsICctaW1hZScsICc8aW5maWxlLm1hZT4nLCAnLW9tYWUnLCAnPG91dGZpbGUubWFlPic=

> <r_epik_Ionization_Penalty>
0.00752367

> <r_epik_Ionization_Penalty_Charging>
0.00747775

> <r_epik_Ionization_Penalty_Neutral>
4.59207e-05

> <r_epik_State_Penalty>
0.00558817

> <r_epik_Charging_Adjusted_Penalty>
0.0130659

> <i_epik_Tot_Q>
1

> <i_epik_Tot_abs_Q>
1

> <r_epik_Metal_State_Penalty>
-0

> <b_epik_Metal_Only>
0

> <s_lp_Force_Field>
OPLS_2005

> <r_lp_Energy>
36.5339

> <b_lp_Chiralities_Consistent>
1

> <s_lp_Variant>
AV-unprocessed.smi:2385-4

> <Gold.Version>
5.8.1

> <Gold.Id.Protein>
6NUR|6NUR_protein|mol2

> <Gold.PLP.Fitness>
48.9026

> <Gold.PLP.PLP>
-41.7930

> <Gold.PLP.part.hbond>
-2.0000

> <Gold.PLP.part.metal>
0.0000

> <Gold.PLP.part.buried>
-2.0305

> <Gold.PLP.part.nonpolar>
-39.7745

> <Gold.PLP.part.repulsive>
1.2592

> <Gold.PLP.ligand.clash>
0.0000

> <Gold.PLP.ligand.torsion>
1.1515

> <Gold.PLP.Chemscore.Hbond>
2.1188

> <Gold.PLP.Chemscore.CHOScore>
1.0058

> <Gold.PLP.Chemscore.Metal>
0.0000

> <Gold.Chemscore.Hbonds>
donor molecule, donor type, donor heavy atom, donor atom, acceptor molecule, acceptor atom, score
      L1  H    13    50       P1  7948  2.00
      P1  H  7989  7998       L1     8  0.29
      L1  C    23    49       P1  8028  0.01
      L1  C    23    49       P1  8029  0.28

> <Gold.PLP.Chemscore.Internal.Correction>
0.0387

> <Gold.Rescore>
     Score         DG    S(hbond)    S(metal)    S(lipo)     H(rot)  DE(clash)    DE(int)     intcor
     13.99     -18.15       0.91        0.00     112.97       1.41       1.94       2.22       ----

> <Gold.Chemscore.Fitness>
13.9894

> <Gold.Chemscore.DG>
-18.1514

> <Gold.Chemscore.ZeroCoef>
-5.4800

> <Gold.Chemscore.Hbond>
0.9136

> <Gold.Chemscore.Metal>
0.0000

> <Gold.Chemscore.Lipo>
112.9749

> <Gold.Chemscore.Internal_Hbond>
0.0000

> <Gold.Chemscore.DEClash>
1.9424

> <Gold.Chemscore.DEInternal>
2.2196

> <Gold.Chemscore.Rot>
1.4056

> <Gold.Chemscore.Internal.Correction>
   9.000000E+99

> <Gold.Chemscore.Hbonds>
donor molecule, donor type, donor heavy atom, donor atom, acceptor molecule, acceptor atom, score
      L1  H    13    50       P1  7948  0.88
      P1  H  7989  7998       L1     8  0.11

> <Gold.Chemscore.Hbond.Weighted>
-3.0516

> <Gold.Chemscore.Metal.Weighted>
-0.0000

> <Gold.Chemscore.Lipo.Weighted>
-13.2181

> <Gold.Chemscore.Internal_Hbond.Weighted>
0.0000

> <Gold.Chemscore.DEClash.Weighted>
1.9424

> <Gold.Chemscore.DEInternal.Weighted>
2.2196

> <Gold.Chemscore.Rot.Weighted>
3.5982

> <Gold.Chemscore.Internal.Correction.Weighted>
   9.000000E+99

> <Gold.Protein.RotatedTorsions>
[ 6907 6896 6895 6894 ] final  118.09 input  -60.11 | X-H torsion
[ 7974 7965 7964 7962 ] final -128.62 input  175.53 | X-H torsion
[ 8008 7997 7996 7995 ] final   20.95 input   59.86 | X-H torsion
[ 10167 10162 10161 10158 ] final  -95.63 input  -65.29 | X-H torsion
[ 10718 10713 10712 10709 ] final  -59.96 input   66.30 | X-H torsion
[ 10763 10752 10751 10750 ] final   94.01 input  -60.55 | X-H torsion
[ 11005 11000 10999 10996 ] final    5.38 input  -57.11 | X-H torsion

> <Gold.Protein.ActiveResidues>
 VAL166  LYS551  ARG553  GLY616  TRP617  ASP618  TYR619  PRO620  LYS621  CYS622 
 ASP623  PHE694  ASN695  SER759  ASP760  ASP761  ALA762  ILE779  LEU786  VAL792 
 PHE793  MET794  SER795  GLU796  ALA797  LYS798  CYS799  TRP800  GLU811  SER814 

> <Gold.Protein.RotatedAtoms>
  152.4567  133.7738  159.6812 H   0  0  0  0  0  0  0  0  0  0  0  0  # atno 6907 bound_to 6896
  150.8496  133.7798  159.3036 H   0  0  0  0  0  0  0  0  0  0  0  0  # atno 6908 bound_to 6896
  151.5397  135.1071  159.9975 H   0  0  0  0  0  0  0  0  0  0  0  0  # atno 6909 bound_to 6896
  144.9652  140.7489  143.4704 H   0  0  0  0  0  0  0  0  0  0  0  0  # atno 7974 bound_to 7965
  154.9433  140.3056  155.5110 H   0  0  0  0  0  0  0  0  0  0  0  0  # atno 8008 bound_to 7997
  156.2994  140.2332  156.4442 H   0  0  0  0  0  0  0  0  0  0  0  0  # atno 8009 bound_to 7997
  154.8124  140.0428  157.1341 H   0  0  0  0  0  0  0  0  0  0  0  0  # atno 8010 bound_to 7997
  140.3022  143.3155  152.0236 H   0  0  0  0  0  0  0  0  0  0  0  0  # atno 10167 bound_to 10162
  156.1025  130.4184  150.0787 H   0  0  0  0  0  0  0  0  0  0  0  0  # atno 10718 bound_to 10713
  153.2368  135.4305  155.0655 H   0  0  0  0  0  0  0  0  0  0  0  0  # atno 10763 bound_to 10752
  154.8322  135.3393  154.6707 H   0  0  0  0  0  0  0  0  0  0  0  0  # atno 10764 bound_to 10752
  153.7133  135.7021  153.5088 H   0  0  0  0  0  0  0  0  0  0  0  0  # atno 10765 bound_to 10752
  140.5714  134.0099  155.8010 H   0  0  0  0  0  0  0  0  0  0  0  0  # atno 11005 bound_to 11000
  145.2640  139.1981  143.4877 LP  0  0  0  0  0  0  0  0  0  0  0  0  # atno 17320 bound_to 7965
  146.3365  140.2575  142.8600 LP  0  0  0  0  0  0  0  0  0  0  0  0  # atno 17321 bound_to 7965
  139.4912  144.6447  151.6803 LP  0  0  0  0  0  0  0  0  0  0  0  0  # atno 17342 bound_to 10162
  140.5641  144.0219  150.6184 LP  0  0  0  0  0  0  0  0  0  0  0  0  # atno 17343 bound_to 10162
  156.8771  130.9544  151.3603 LP  0  0  0  0  0  0  0  0  0  0  0  0  # atno 17370 bound_to 10713
  157.6197  130.8645  149.9087 LP  0  0  0  0  0  0  0  0  0  0  0  0  # atno 17371 bound_to 10713
  141.1054  133.9702  157.3006 LP  0  0  0  0  0  0  0  0  0  0  0  0  # atno 17394 bound_to 11000
  139.9360  135.0196  156.8557 LP  0  0  0  0  0  0  0  0  0  0  0  0  # atno 17395 bound_to 11000

$$$$
