AV-unprocessed.smi:2525|AV-procd|sdf|9931|dock4
  -GOLD-   2272013573D 1   1.00000     0.00000
 Structure written by MMmdl.
 44 45  0  0  0  0  0  0  0  0  1 V2000
  152.5466  138.5797  154.6498 C   0  0  0  0  0  0  0  0  0  0  0  0
  151.0599  138.9723  154.6131 C   0  0  0  0  0  0  0  0  0  0  0  0
  150.4353  139.4760  155.9373 C   0  0  0  0  0  0  0  0  0  0  0  0
  148.9251  139.7270  155.6595 C   0  0  0  0  0  0  0  0  0  0  0  0
  148.5937  140.6753  154.4914 C   0  0  0  0  0  0  0  0  0  0  0  0
  150.7536  138.6600  157.2256 C   0  0  2  0  0  0  0  0  0  0  0  0
  149.6723  137.7813  157.6587 N   0  0  0  0  0  0  0  0  0  0  0  0
  149.7495  136.9212  158.6845 C   0  0  0  0  0  0  0  0  0  0  0  0
  150.7471  136.7980  159.3945 O   0  0  0  0  0  0  0  0  0  0  0  0
  148.5116  136.0631  158.9478 C   0  0  0  0  0  0  0  0  0  0  0  0
  148.1909  136.0290  160.3635 N   0  0  0  0  0  0  0  0  0  0  0  0
  148.2109  134.9509  161.2252 C   0  0  0  0  0  0  0  0  0  0  0  0
  147.8357  135.4933  162.4210 C   0  0  0  0  0  0  0  0  0  0  0  0
  147.6063  136.8565  162.2412 N   0  0  0  0  0  0  0  0  0  0  0  0
  147.8223  137.1664  161.0014 N   0  0  0  0  0  0  0  0  0  0  0  0
  150.8324  139.9671  158.0243 C   0  0  1  0  0  0  0  0  0  0  0  0
  151.7993  140.0509  159.1991 C   0  0  0  0  0  0  0  0  0  0  0  0
  151.2041  140.6086  156.6769 C   0  0  2  0  0  0  0  0  0  0  0  0
  150.6538  141.8998  156.4689 O   0  0  0  0  0  0  0  0  0  0  0  0
  151.0552  142.8491  157.4408 C   0  0  0  0  0  0  0  0  0  0  0  0
  152.8987  138.3406  153.6462 H   0  0  0  0  0  0  0  0  0  0  0  0
  152.7137  137.6931  155.2617 H   0  0  0  0  0  0  0  0  0  0  0  0
  153.1763  139.3833  155.0297 H   0  0  0  0  0  0  0  0  0  0  0  0
  150.9526  139.7441  153.8505 H   0  0  0  0  0  0  0  0  0  0  0  0
  150.5055  138.1099  154.2403 H   0  0  0  0  0  0  0  0  0  0  0  0
  148.4220  138.7788  155.4663 H   0  0  0  0  0  0  0  0  0  0  0  0
  148.4393  140.1265  156.5496 H   0  0  0  0  0  0  0  0  0  0  0  0
  147.5200  140.8584  154.4475 H   0  0  0  0  0  0  0  0  0  0  0  0
  148.8820  140.2513  153.5298 H   0  0  0  0  0  0  0  0  0  0  0  0
  149.0813  141.6437  154.5894 H   0  0  0  0  0  0  0  0  0  0  0  0
  151.7274  138.1690  157.2086 H   0  0  0  0  0  0  0  0  0  0  0  0
  148.8130  137.8183  157.1301 H   0  0  0  0  0  0  0  0  0  0  0  0
  147.6572  136.4557  158.3941 H   0  0  0  0  0  0  0  0  0  0  0  0
  148.6812  135.0441  158.5971 H   0  0  0  0  0  0  0  0  0  0  0  0
  148.4779  133.9473  160.9283 H   0  0  0  0  0  0  0  0  0  0  0  0
  147.7136  135.0229  163.3856 H   0  0  0  0  0  0  0  0  0  0  0  0
  149.8344  140.2908  158.3249 H   0  0  0  0  0  0  0  0  0  0  0  0
  152.8142  139.7889  158.8993 H   0  0  0  0  0  0  0  0  0  0  0  0
  151.5068  139.3682  159.9968 H   0  0  0  0  0  0  0  0  0  0  0  0
  151.8281  141.0530  159.6246 H   0  0  0  0  0  0  0  0  0  0  0  0
  152.2779  140.5780  156.4825 H   0  0  0  0  0  0  0  0  0  0  0  0
  150.6322  143.8226  157.1934 H   0  0  0  0  0  0  0  0  0  0  0  0
  152.1407  142.9523  157.4690 H   0  0  0  0  0  0  0  0  0  0  0  0
  150.7011  142.5767  158.4345 H   0  0  0  0  0  0  0  0  0  0  0  0
  1  2  1  0  0  0  0
  1 21  1  0  0  0  0
  1 22  1  0  0  0  0
  1 23  1  0  0  0  0
  2  3  1  0  0  0  0
  2 24  1  0  0  0  0
  2 25  1  0  0  0  0
  3 18  1  0  0  0  0
  3  4  1  0  0  0  0
  3  6  1  0  0  0  0
  4  5  1  0  0  0  0
  4 26  1  0  0  0  0
  4 27  1  0  0  0  0
  5 28  1  0  0  0  0
  5 29  1  0  0  0  0
  5 30  1  0  0  0  0
  6  7  1  0  0  0  0
  6 16  1  0  0  0  0
  6 31  1  0  0  0  0
  7  8  1  0  0  0  0
  7 32  1  0  0  0  0
  8  9  2  0  0  0  0
  8 10  1  0  0  0  0
 10 11  1  0  0  0  0
 10 33  1  0  0  0  0
 10 34  1  0  0  0  0
 11 15  1  0  0  0  0
 11 12  1  0  0  0  0
 12 13  2  0  0  0  0
 12 35  1  0  0  0  0
 13 14  1  0  0  0  0
 13 36  1  0  0  0  0
 14 15  2  0  0  0  0
 16 17  1  0  0  0  0
 16 18  1  0  0  0  0
 16 37  1  0  0  0  0
 17 38  1  0  0  0  0
 17 39  1  0  0  0  0
 17 40  1  0  0  0  0
 18 19  1  0  0  0  0
 18 41  1  0  0  0  0
 19 20  1  0  0  0  0
 20 42  1  0  0  0  0
 20 43  1  0  0  0  0
 20 44  1  0  0  0  0
M  END
> <s_m_source_file>
AV-unprocessed.smi

> <i_m_source_file_index>
2525

> <i_lp_mmshare_version>
43012

> <i_f3d_flags>
0

> <s_epik_input>
W0NIM11PW0NAQEhdMVtDQEhdKFtDSDNdKVtDQEBIXShDMShbQ0gyXVtDSDNdKVtDSDJdW0NIM10pW05IXUMoPU8pW0NIMl1uMltjSF1bY0hdbm4y

> <s_epik_cmdline>
J2VwaWtfcHl0aG9uJywgJy1waCcsICc3LjAnLCAnLXRuJywgJzgnLCAnLW1hJywgJzIwMCcsICctbWV0YWxfYmluZGluZycsICctaW1hZScsICc8aW5maWxlLm1hZT4nLCAnLW9tYWUnLCAnPG91dGZpbGUubWFlPic=

> <r_lp_tautomer_probability>
1

> <r_epik_Ionization_Penalty>
1.18045e-06

> <r_epik_Ionization_Penalty_Charging>
0

> <r_epik_Ionization_Penalty_Neutral>
1.18045e-06

> <r_epik_State_Penalty>
-0

> <r_epik_Charging_Adjusted_Penalty>
0

> <i_epik_Tot_Q>
0

> <i_epik_Tot_abs_Q>
0

> <r_epik_Metal_State_Penalty>
-0

> <b_epik_Metal_Only>
0

> <s_lp_Force_Field>
OPLS_2005

> <r_lp_Energy>
27.6116

> <b_lp_Chiralities_Consistent>
1

> <s_lp_Variant>
AV-unprocessed.smi:2525-6

> <Gold.Version>
5.8.1

> <Gold.Id.Protein>
6NUR|6NUR_protein|mol2

> <Gold.PLP.Fitness>
41.2497

> <Gold.PLP.PLP>
-36.2200

> <Gold.PLP.part.hbond>
-4.8798

> <Gold.PLP.part.metal>
0.0000

> <Gold.PLP.part.buried>
-4.7585

> <Gold.PLP.part.nonpolar>
-26.9732

> <Gold.PLP.part.repulsive>
0.1348

> <Gold.PLP.ligand.clash>
0.0000

> <Gold.PLP.ligand.torsion>
0.6332

> <Gold.PLP.Chemscore.Hbond>
1.8960

> <Gold.PLP.Chemscore.CHOScore>
0.0000

> <Gold.PLP.Chemscore.Metal>
0.0000

> <Gold.Chemscore.Hbonds>
donor molecule, donor type, donor heavy atom, donor atom, acceptor molecule, acceptor atom, score
      P1  H  6896  6907       L1     9  0.93
      P1  H  6934  6947       L1    15  0.83

> <Gold.PLP.Chemscore.Internal.Correction>
0.6082

> <Gold.Rescore>
     Score         DG    S(hbond)    S(metal)    S(lipo)     H(rot)  DE(clash)    DE(int)     intcor
     14.89     -15.69       1.82        0.00      78.60       1.98       0.00       0.80       ----

> <Gold.Chemscore.Fitness>
14.8887

> <Gold.Chemscore.DG>
-15.6866

> <Gold.Chemscore.ZeroCoef>
-5.4800

> <Gold.Chemscore.Hbond>
1.8215

> <Gold.Chemscore.Metal>
0.0000

> <Gold.Chemscore.Lipo>
78.5955

> <Gold.Chemscore.Internal_Hbond>
0.0000

> <Gold.Chemscore.DEClash>
0.0009

> <Gold.Chemscore.DEInternal>
0.7969

> <Gold.Chemscore.Rot>
1.9817

> <Gold.Chemscore.Internal.Correction>
   9.000000E+99

> <Gold.Chemscore.Hbonds>
donor molecule, donor type, donor heavy atom, donor atom, acceptor molecule, acceptor atom, score
      P1  H  6896  6907       L1     9  0.49
      P1  H  6934  6947       L1    15  0.28

> <Gold.Chemscore.Hbond.Weighted>
-6.0840

> <Gold.Chemscore.Metal.Weighted>
-0.0000

> <Gold.Chemscore.Lipo.Weighted>
-9.1957

> <Gold.Chemscore.Internal_Hbond.Weighted>
0.0000

> <Gold.Chemscore.DEClash.Weighted>
0.0009

> <Gold.Chemscore.DEInternal.Weighted>
0.7969

> <Gold.Chemscore.Rot.Weighted>
5.0731

> <Gold.Chemscore.Internal.Correction.Weighted>
   9.000000E+99

> <Gold.Protein.RotatedTorsions>
[ 6907 6896 6895 6894 ] final  -45.85 input  -60.11 | X-H torsion
[ 7974 7965 7964 7962 ] final   47.34 input  175.53 | X-H torsion
[ 8008 7997 7996 7995 ] final  120.21 input   59.86 | X-H torsion
[ 10167 10162 10161 10158 ] final   66.83 input  -65.29 | X-H torsion
[ 10718 10713 10712 10709 ] final   -1.07 input   66.30 | X-H torsion
[ 10763 10752 10751 10750 ] final  -83.78 input  -60.55 | X-H torsion
[ 11005 11000 10999 10996 ] final -151.88 input  -57.11 | X-H torsion

> <Gold.Protein.ActiveResidues>
 VAL166  LYS551  ARG553  GLY616  TRP617  ASP618  TYR619  PRO620  LYS621  CYS622 
 ASP623  PHE694  ASN695  SER759  ASP760  ASP761  ALA762  ILE779  LEU786  VAL792 
 PHE793  MET794  SER795  GLU796  ALA797  LYS798  CYS799  TRP800  GLU811  SER814 

> <Gold.Protein.RotatedAtoms>
  150.9176  134.8593  159.7466 H   0  0  0  0  0  0  0  0  0  0  0  0  # atno 6907 bound_to 6896
  152.4976  134.4267  159.9508 H   0  0  0  0  0  0  0  0  0  0  0  0  # atno 6908 bound_to 6896
  151.4303  133.3632  159.2803 H   0  0  0  0  0  0  0  0  0  0  0  0  # atno 6909 bound_to 6896
  146.0307  139.4760  142.9840 H   0  0  0  0  0  0  0  0  0  0  0  0  # atno 7974 bound_to 7965
  156.2632  140.2836  156.1114 H   0  0  0  0  0  0  0  0  0  0  0  0  # atno 8008 bound_to 7997
  155.1253  140.0393  157.2778 H   0  0  0  0  0  0  0  0  0  0  0  0  # atno 8009 bound_to 7997
  154.6640  140.2573  155.7084 H   0  0  0  0  0  0  0  0  0  0  0  0  # atno 8010 bound_to 7997
  140.0962  144.4944  150.7067 H   0  0  0  0  0  0  0  0  0  0  0  0  # atno 10167 bound_to 10162
  156.8110  130.5424  149.5709 H   0  0  0  0  0  0  0  0  0  0  0  0  # atno 10718 bound_to 10713
  154.5918  135.5544  153.7286 H   0  0  0  0  0  0  0  0  0  0  0  0  # atno 10763 bound_to 10752
  153.0120  135.6345  154.1838 H   0  0  0  0  0  0  0  0  0  0  0  0  # atno 10764 bound_to 10752
  154.1779  135.2888  155.3041 H   0  0  0  0  0  0  0  0  0  0  0  0  # atno 10765 bound_to 10752
  140.7248  134.3687  157.5177 H   0  0  0  0  0  0  0  0  0  0  0  0  # atno 11005 bound_to 11000
  145.7046  141.0125  143.1486 LP  0  0  0  0  0  0  0  0  0  0  0  0  # atno 17320 bound_to 7965
  144.7029  139.8684  143.7439 LP  0  0  0  0  0  0  0  0  0  0  0  0  # atno 17321 bound_to 7965
  140.7002  143.2430  151.4885 LP  0  0  0  0  0  0  0  0  0  0  0  0  # atno 17342 bound_to 10162
  139.5697  144.1958  152.1818 LP  0  0  0  0  0  0  0  0  0  0  0  0  # atno 17343 bound_to 10162
  156.1044  130.5994  150.9947 LP  0  0  0  0  0  0  0  0  0  0  0  0  # atno 17370 bound_to 10713
  157.6506  131.0897  150.8059 LP  0  0  0  0  0  0  0  0  0  0  0  0  # atno 17371 bound_to 10713
  139.8839  134.8979  156.2733 LP  0  0  0  0  0  0  0  0  0  0  0  0  # atno 17394 bound_to 11000
  140.9972  133.7173  156.0904 LP  0  0  0  0  0  0  0  0  0  0  0  0  # atno 17395 bound_to 11000

$$$$
