AV-unprocessed.smi:2406|AV-procd|sdf|9517|dock7
  -GOLD-   2272013153D 1   1.00000     0.00000
 Structure written by MMmdl.
 36 37  0  0  0  0  0  0  0  0  1 V2000
  150.9291  138.3169  154.1552 C   0  0  0  0  0  0  0  0  0  0  0  0
  150.8116  139.6883  154.5172 O   0  0  0  0  0  0  0  0  0  0  0  0
  149.5486  140.2396  154.5787 C   0  0  0  0  0  0  0  0  0  0  0  0
  148.4575  139.5293  154.0374 C   0  0  0  0  0  0  0  0  0  0  0  0
  147.1798  140.1260  154.1280 C   0  0  0  0  0  0  0  0  0  0  0  0
  146.1074  139.3735  153.5807 N   0  0  0  0  0  0  0  0  0  0  0  0
  145.9637  138.0371  153.5487 C   0  0  0  0  0  0  0  0  0  0  0  0
  146.7467  137.2254  154.0430 O   0  0  0  0  0  0  0  0  0  0  0  0
  144.8465  137.6890  152.8936 N   0  0  0  0  0  0  0  0  0  0  0  0
  144.4058  136.3233  152.6152 C   0  0  1  0  0  0  0  0  0  0  0  0
  142.8717  136.2657  152.6285 C   0  0  0  0  0  0  0  0  0  0  0  0
  144.9842  135.8445  151.2703 C   0  0  0  0  0  0  0  0  0  0  0  0
  145.1008  134.3332  151.1705 C   0  0  0  0  0  0  0  0  0  0  0  0
  144.4233  133.5621  150.0609 C   0  0  0  0  0  0  0  0  0  0  0  0
  143.9194  133.4452  151.4803 C   0  0  0  0  0  0  0  0  0  0  0  0
  147.0407  141.3407  154.7144 N   0  0  0  0  0  0  0  0  0  0  0  0
  148.1362  141.9330  155.1935 C   0  0  0  0  0  0  0  0  0  0  0  0
  149.3794  141.4518  155.1600 N   0  0  0  0  0  0  0  0  0  0  0  0
  151.9820  138.0362  154.1428 H   0  0  0  0  0  0  0  0  0  0  0  0
  150.5259  138.1320  153.1586 H   0  0  0  0  0  0  0  0  0  0  0  0
  150.4223  137.6695  154.8721 H   0  0  0  0  0  0  0  0  0  0  0  0
  148.6004  138.5627  153.5764 H   0  0  0  0  0  0  0  0  0  0  0  0
  145.3797  139.9138  153.1370 H   0  0  0  0  0  0  0  0  0  0  0  0
  144.2653  138.4292  152.5284 H   0  0  0  0  0  0  0  0  0  0  0  0
  144.7705  135.6469  153.3903 H   0  0  0  0  0  0  0  0  0  0  0  0
  142.5157  135.2525  152.4400 H   0  0  0  0  0  0  0  0  0  0  0  0
  142.4424  136.9163  151.8659 H   0  0  0  0  0  0  0  0  0  0  0  0
  142.4755  136.5778  153.5953 H   0  0  0  0  0  0  0  0  0  0  0  0
  144.3445  136.1857  150.4557 H   0  0  0  0  0  0  0  0  0  0  0  0
  145.9643  136.2929  151.1008 H   0  0  0  0  0  0  0  0  0  0  0  0
  146.0696  133.9519  151.4882 H   0  0  0  0  0  0  0  0  0  0  0  0
  143.8107  134.1197  149.3552 H   0  0  0  0  0  0  0  0  0  0  0  0
  144.9587  132.7120  149.6432 H   0  0  0  0  0  0  0  0  0  0  0  0
  144.1162  132.5146  152.0086 H   0  0  0  0  0  0  0  0  0  0  0  0
  142.9706  133.9237  151.7157 H   0  0  0  0  0  0  0  0  0  0  0  0
  148.0022  142.8994  155.6564 H   0  0  0  0  0  0  0  0  0  0  0  0
  1  2  1  0  0  0  0
  1 19  1  0  0  0  0
  1 20  1  0  0  0  0
  1 21  1  0  0  0  0
  2  3  1  0  0  0  0
  3 18  1  0  0  0  0
  3  4  2  0  0  0  0
  4  5  1  0  0  0  0
  4 22  1  0  0  0  0
  5  6  1  0  0  0  0
  5 16  2  0  0  0  0
  6  7  1  0  0  0  0
  6 23  1  0  0  0  0
  7  8  2  0  0  0  0
  7  9  1  0  0  0  0
  9 10  1  0  0  0  0
  9 24  1  0  0  0  0
 10 11  1  0  0  0  0
 10 12  1  0  0  0  0
 10 25  1  0  0  0  0
 11 26  1  0  0  0  0
 11 27  1  0  0  0  0
 11 28  1  0  0  0  0
 12 13  1  0  0  0  0
 12 29  1  0  0  0  0
 12 30  1  0  0  0  0
 13 15  1  0  0  0  0
 13 14  1  0  0  0  0
 13 31  1  0  0  0  0
 14 15  1  0  0  0  0
 14 32  1  0  0  0  0
 14 33  1  0  0  0  0
 15 34  1  0  0  0  0
 15 35  1  0  0  0  0
 16 17  1  0  0  0  0
 17 18  2  0  0  0  0
 17 36  1  0  0  0  0
M  END
> <s_m_source_file>
AV-unprocessed.smi

> <i_m_source_file_index>
2406

> <i_lp_mmshare_version>
43012

> <i_f3d_flags>
0

> <s_epik_input>
W0NIM11PYzFbY0hdYyhuW2NIXW4xKVtOSF1DKD1PKVtOSF1bQ0BIXShbQ0gzXSlbQ0gyXVtDSF0yW0NIMl1bQ0gyXTI=

> <s_epik_cmdline>
J2VwaWtfcHl0aG9uJywgJy1waCcsICc3LjAnLCAnLXRuJywgJzgnLCAnLW1hJywgJzIwMCcsICctbWV0YWxfYmluZGluZycsICctaW1hZScsICc8aW5maWxlLm1hZT4nLCAnLW9tYWUnLCAnPG91dGZpbGUubWFlPic=

> <r_lp_tautomer_probability>
1

> <r_epik_Ionization_Penalty>
2.82876e-05

> <r_epik_Ionization_Penalty_Charging>
0

> <r_epik_Ionization_Penalty_Neutral>
2.82876e-05

> <r_epik_State_Penalty>
-0

> <r_epik_Charging_Adjusted_Penalty>
0

> <i_epik_Tot_Q>
0

> <i_epik_Tot_abs_Q>
0

> <r_epik_Metal_State_Penalty>
-0

> <b_epik_Metal_Only>
0

> <s_lp_Force_Field>
OPLS_2005

> <r_lp_Energy>
10.7025

> <b_lp_Chiralities_Consistent>
1

> <s_lp_Variant>
AV-unprocessed.smi:2406-2

> <Gold.Version>
5.8.1

> <Gold.Id.Protein>
6NUR|6NUR_protein|mol2

> <Gold.PLP.Fitness>
36.8233

> <Gold.PLP.PLP>
-27.3116

> <Gold.PLP.part.hbond>
-3.0760

> <Gold.PLP.part.metal>
0.0000

> <Gold.PLP.part.buried>
-2.5129

> <Gold.PLP.part.nonpolar>
-21.6814

> <Gold.PLP.part.repulsive>
0.4677

> <Gold.PLP.ligand.clash>
0.0000

> <Gold.PLP.ligand.torsion>
1.3848

> <Gold.PLP.Chemscore.Hbond>
2.9100

> <Gold.PLP.Chemscore.CHOScore>
0.9907

> <Gold.PLP.Chemscore.Metal>
0.0000

> <Gold.Chemscore.Hbonds>
donor molecule, donor type, donor heavy atom, donor atom, acceptor molecule, acceptor atom, score
      L1  H     6    23       P1 10175  1.00
      L1  H     9    24       P1 10175  0.83
      P1  H  7989  7998       L1     2  1.00
      L1  C    17    36       P1  8028  0.93

> <Gold.PLP.Chemscore.Internal.Correction>
0.5792

> <Gold.Rescore>
     Score         DG    S(hbond)    S(metal)    S(lipo)     H(rot)  DE(clash)    DE(int)     intcor
     11.47     -14.56       2.45        0.00      47.92       1.85       0.44       2.65       ----

> <Gold.Chemscore.Fitness>
11.4703

> <Gold.Chemscore.DG>
-14.5580

> <Gold.Chemscore.ZeroCoef>
-5.4800

> <Gold.Chemscore.Hbond>
2.4542

> <Gold.Chemscore.Metal>
0.0000

> <Gold.Chemscore.Lipo>
47.9164

> <Gold.Chemscore.Internal_Hbond>
0.0000

> <Gold.Chemscore.DEClash>
0.4377

> <Gold.Chemscore.DEInternal>
2.6500

> <Gold.Chemscore.Rot>
1.8458

> <Gold.Chemscore.Internal.Correction>
   9.000000E+99

> <Gold.Chemscore.Hbonds>
donor molecule, donor type, donor heavy atom, donor atom, acceptor molecule, acceptor atom, score
      L1  H     6    23       P1 10175  1.00
      L1  H     9    24       P1 10175  0.77
      P1  H  7989  7998       L1     2  0.28

> <Gold.Chemscore.Hbond.Weighted>
-8.1972

> <Gold.Chemscore.Metal.Weighted>
-0.0000

> <Gold.Chemscore.Lipo.Weighted>
-5.6062

> <Gold.Chemscore.Internal_Hbond.Weighted>
0.0000

> <Gold.Chemscore.DEClash.Weighted>
0.4377

> <Gold.Chemscore.DEInternal.Weighted>
2.6500

> <Gold.Chemscore.Rot.Weighted>
4.7254

> <Gold.Chemscore.Internal.Correction.Weighted>
   9.000000E+99

> <Gold.Protein.RotatedTorsions>
[ 6907 6896 6895 6894 ] final -104.21 input  -60.11 | X-H torsion
[ 7974 7965 7964 7962 ] final   66.07 input  175.53 | X-H torsion
[ 8008 7997 7996 7995 ] final   85.94 input   59.86 | X-H torsion
[ 10167 10162 10161 10158 ] final  -56.39 input  -65.29 | X-H torsion
[ 10718 10713 10712 10709 ] final  126.85 input   66.30 | X-H torsion
[ 10763 10752 10751 10750 ] final  -42.03 input  -60.55 | X-H torsion
[ 11005 11000 10999 10996 ] final  129.82 input  -57.11 | X-H torsion

> <Gold.Protein.ActiveResidues>
 VAL166  LYS551  ARG553  GLY616  TRP617  ASP618  TYR619  PRO620  LYS621  CYS622 
 ASP623  PHE694  ASN695  SER759  ASP760  ASP761  ALA762  ILE779  LEU786  VAL792 
 PHE793  MET794  SER795  GLU796  ALA797  LYS798  CYS799  TRP800  GLU811  SER814 

> <Gold.Protein.RotatedAtoms>
  150.7276  134.0312  159.3733 H   0  0  0  0  0  0  0  0  0  0  0  0  # atno 6907 bound_to 6896
  151.8281  135.0628  160.0443 H   0  0  0  0  0  0  0  0  0  0  0  0  # atno 6908 bound_to 6896
  152.2954  133.5566  159.5620 H   0  0  0  0  0  0  0  0  0  0  0  0  # atno 6909 bound_to 6896
  145.8310  139.3139  143.0988 H   0  0  0  0  0  0  0  0  0  0  0  0  # atno 7974 bound_to 7965
  155.9564  140.3397  155.6452 H   0  0  0  0  0  0  0  0  0  0  0  0  # atno 8008 bound_to 7997
  155.6854  140.0742  157.2487 H   0  0  0  0  0  0  0  0  0  0  0  0  # atno 8009 bound_to 7997
  154.4133  140.1667  156.2015 H   0  0  0  0  0  0  0  0  0  0  0  0  # atno 8010 bound_to 7997
  140.6319  143.2463  151.5218 H   0  0  0  0  0  0  0  0  0  0  0  0  # atno 10167 bound_to 10162
  157.5384  131.1097  150.8899 H   0  0  0  0  0  0  0  0  0  0  0  0  # atno 10718 bound_to 10713
  153.9723  135.6727  153.4747 H   0  0  0  0  0  0  0  0  0  0  0  0  # atno 10763 bound_to 10752
  153.0787  135.4935  154.8455 H   0  0  0  0  0  0  0  0  0  0  0  0  # atno 10764 bound_to 10752
  154.7212  135.3117  154.9005 H   0  0  0  0  0  0  0  0  0  0  0  0  # atno 10765 bound_to 10752
  139.9637  134.9596  156.9203 H   0  0  0  0  0  0  0  0  0  0  0  0  # atno 11005 bound_to 11000
  145.9571  140.8864  143.0229 LP  0  0  0  0  0  0  0  0  0  0  0  0  # atno 17320 bound_to 7965
  144.6740  140.1761  143.7410 LP  0  0  0  0  0  0  0  0  0  0  0  0  # atno 17321 bound_to 7965
  139.5533  144.2340  152.1568 LP  0  0  0  0  0  0  0  0  0  0  0  0  # atno 17342 bound_to 10162
  140.1586  144.5047  150.6645 LP  0  0  0  0  0  0  0  0  0  0  0  0  # atno 17343 bound_to 10162
  156.9459  130.5402  149.5281 LP  0  0  0  0  0  0  0  0  0  0  0  0  # atno 17370 bound_to 10713
  156.0477  130.5551  150.8917 LP  0  0  0  0  0  0  0  0  0  0  0  0  # atno 17371 bound_to 10713
  140.5444  134.0688  155.7351 LP  0  0  0  0  0  0  0  0  0  0  0  0  # atno 17394 bound_to 11000
  141.1315  133.9294  157.2525 LP  0  0  0  0  0  0  0  0  0  0  0  0  # atno 17395 bound_to 11000

$$$$
