AV-unprocessed.smi:573|AV-procd|sdf|2971|dock1
  -GOLD-   2262023473D 1   1.00000     0.00000
 Structure written by MMmdl.
 44 46  0  0  0  0  0  0  0  0  1 V2000
  150.1644  138.4091  154.2695 C   0  0  0  0  0  0  0  0  0  0  0  0
  151.6957  138.2846  154.3050 C   0  0  2  0  0  0  0  0  0  0  0  0
  152.0934  137.0084  153.8481 O   0  0  0  0  0  0  0  0  0  0  0  0
  152.3384  138.5639  155.6775 C   0  0  0  0  0  0  0  0  0  0  0  0
  151.8934  139.8129  156.2716 N   0  0  0  0  0  0  0  0  0  0  0  0
  152.2002  140.4371  157.4749 C   0  0  0  0  0  0  0  0  0  0  0  0
  153.0459  139.9415  158.3764 N   0  0  0  0  0  0  0  0  0  0  0  0
  153.0110  140.9023  159.3694 C   0  0  0  0  0  0  0  0  0  0  0  0
  153.6919  140.9676  160.6062 C   0  0  0  0  0  0  0  0  0  0  0  0
  153.4945  142.0626  161.4729 C   0  0  0  0  0  0  0  0  0  0  0  0
  152.6141  143.1050  161.1176 C   0  0  0  0  0  0  0  0  0  0  0  0
  151.9258  143.0610  159.8899 C   0  0  0  0  0  0  0  0  0  0  0  0
  152.1279  141.9676  159.0262 C   0  0  0  0  0  0  0  0  0  0  0  0
  151.6231  141.6240  157.7754 N   0  0  0  0  0  0  0  0  0  0  0  0
  150.6755  142.3901  156.9781 C   0  0  0  0  0  0  0  0  0  0  0  0
  149.4612  141.5462  156.5577 C   0  0  2  0  0  0  0  0  0  0  0  0
  149.3181  141.4613  155.0264 C   0  0  0  0  0  0  0  0  0  0  0  0
  148.0627  140.6677  154.6473 C   0  0  0  0  0  0  0  0  0  0  0  0
  146.8425  141.2565  155.3638 C   0  0  0  0  0  0  0  0  0  0  0  0
  147.1070  141.3605  156.8745 C   0  0  0  0  0  0  0  0  0  0  0  0
  148.2821  142.1294  157.1096 O   0  0  0  0  0  0  0  0  0  0  0  0
  149.8441  139.3890  154.6243 H   0  0  0  0  0  0  0  0  0  0  0  0
  149.6824  137.6546  154.8919 H   0  0  0  0  0  0  0  0  0  0  0  0
  149.7863  138.2858  153.2543 H   0  0  0  0  0  0  0  0  0  0  0  0
  152.1073  139.0041  153.5966 H   0  0  0  0  0  0  0  0  0  0  0  0
  151.4484  136.6967  153.2320 H   0  0  0  0  0  0  0  0  0  0  0  0
  152.1326  137.7467  156.3694 H   0  0  0  0  0  0  0  0  0  0  0  0
  153.4226  138.6083  155.5674 H   0  0  0  0  0  0  0  0  0  0  0  0
  151.2934  140.3523  155.6647 H   0  0  0  0  0  0  0  0  0  0  0  0
  154.3665  140.1733  160.8889 H   0  0  0  0  0  0  0  0  0  0  0  0
  154.0203  142.1021  162.4155 H   0  0  0  0  0  0  0  0  0  0  0  0
  152.4669  143.9385  161.7888 H   0  0  0  0  0  0  0  0  0  0  0  0
  151.2490  143.8568  159.6167 H   0  0  0  0  0  0  0  0  0  0  0  0
  150.3508  143.2540  157.5589 H   0  0  0  0  0  0  0  0  0  0  0  0
  151.1894  142.7873  156.1020 H   0  0  0  0  0  0  0  0  0  0  0  0
  149.5787  140.5397  156.9637 H   0  0  0  0  0  0  0  0  0  0  0  0
  149.2548  142.4659  154.6060 H   0  0  0  0  0  0  0  0  0  0  0  0
  150.2006  140.9937  154.5887 H   0  0  0  0  0  0  0  0  0  0  0  0
  147.9141  140.6818  153.5674 H   0  0  0  0  0  0  0  0  0  0  0  0
  148.1883  139.6230  154.9341 H   0  0  0  0  0  0  0  0  0  0  0  0
  146.6257  142.2477  154.9640 H   0  0  0  0  0  0  0  0  0  0  0  0
  145.9611  140.6430  155.1756 H   0  0  0  0  0  0  0  0  0  0  0  0
  146.2654  141.8449  157.3699 H   0  0  0  0  0  0  0  0  0  0  0  0
  147.2120  140.3709  157.3214 H   0  0  0  0  0  0  0  0  0  0  0  0
  1  2  1  0  0  0  0
  1 22  1  0  0  0  0
  1 23  1  0  0  0  0
  1 24  1  0  0  0  0
  2  3  1  0  0  0  0
  2  4  1  0  0  0  0
  2 25  1  0  0  0  0
  3 26  1  0  0  0  0
  4  5  1  0  0  0  0
  4 27  1  0  0  0  0
  4 28  1  0  0  0  0
  5  6  1  0  0  0  0
  5 29  1  0  0  0  0
  6 14  1  0  0  0  0
  6  7  2  0  0  0  0
  7  8  1  0  0  0  0
  8 13  2  0  0  0  0
  8  9  1  0  0  0  0
  9 10  2  0  0  0  0
  9 30  1  0  0  0  0
 10 11  1  0  0  0  0
 10 31  1  0  0  0  0
 11 12  2  0  0  0  0
 11 32  1  0  0  0  0
 12 13  1  0  0  0  0
 12 33  1  0  0  0  0
 13 14  1  0  0  0  0
 14 15  1  0  0  0  0
 15 16  1  0  0  0  0
 15 34  1  0  0  0  0
 15 35  1  0  0  0  0
 16 21  1  0  0  0  0
 16 17  1  0  0  0  0
 16 36  1  0  0  0  0
 17 18  1  0  0  0  0
 17 37  1  0  0  0  0
 17 38  1  0  0  0  0
 18 19  1  0  0  0  0
 18 39  1  0  0  0  0
 18 40  1  0  0  0  0
 19 20  1  0  0  0  0
 19 41  1  0  0  0  0
 19 42  1  0  0  0  0
 20 21  1  0  0  0  0
 20 43  1  0  0  0  0
 20 44  1  0  0  0  0
M  END
> <s_m_source_file>
AV-unprocessed.smi

> <i_m_source_file_index>
573

> <i_lp_mmshare_version>
43012

> <i_f3d_flags>
0

> <s_epik_input>
W0NIM11bQ0BIXShbT0hdKVtDSDJdW05IXWMobjEpbihjKGMxMilbY0hdW2NIXVtjSF1bY0hdMilbQ0gyXVtDQEBIXTNbQ0gyXVtDSDJdW0NIMl1bQ0gyXU8z

> <s_epik_cmdline>
J2VwaWtfcHl0aG9uJywgJy1waCcsICc3LjAnLCAnLXRuJywgJzgnLCAnLW1hJywgJzIwMCcsICctbWV0YWxfYmluZGluZycsICctaW1hZScsICc8aW5maWxlLm1hZT4nLCAnLW9tYWUnLCAnPG91dGZpbGUubWFlPic=

> <r_epik_Ionization_Penalty>
1.30635

> <r_epik_Ionization_Penalty_Charging>
0

> <r_epik_Ionization_Penalty_Neutral>
1.30635

> <r_epik_State_Penalty>
1.38073

> <r_epik_Charging_Adjusted_Penalty>
1.38073

> <i_epik_Tot_Q>
0

> <i_epik_Tot_abs_Q>
0

> <r_epik_Metal_State_Penalty>
0.00547412

> <b_epik_Metal_Only>
0

> <s_lp_Force_Field>
OPLS_2005

> <r_lp_Energy>
12.415

> <b_lp_Chiralities_Consistent>
1

> <s_lp_Variant>
AV-unprocessed.smi:573-5

> <Gold.Version>
5.8.1

> <Gold.Id.Protein>
6NUR|6NUR_protein|mol2

> <Gold.PLP.Fitness>
50.2700

> <Gold.PLP.PLP>
-43.5139

> <Gold.PLP.part.hbond>
-2.9438

> <Gold.PLP.part.metal>
0.0000

> <Gold.PLP.part.buried>
-6.1565

> <Gold.PLP.part.nonpolar>
-36.2464

> <Gold.PLP.part.repulsive>
1.2049

> <Gold.PLP.ligand.clash>
0.0000

> <Gold.PLP.ligand.torsion>
0.8229

> <Gold.PLP.Chemscore.Hbond>
2.7936

> <Gold.PLP.Chemscore.CHOScore>
0.0000

> <Gold.PLP.Chemscore.Metal>
0.0000

> <Gold.Chemscore.Hbonds>
donor molecule, donor type, donor heavy atom, donor atom, acceptor molecule, acceptor atom, score
      L1  H     3    26       P1  7949  0.90
      P1  H  7997  8010       L1     7  0.68
      P1  H 10752 10764       L1     3  1.00

> <Gold.PLP.Chemscore.Internal.Correction>
0.0210

> <Gold.Rescore>
     Score         DG    S(hbond)    S(metal)    S(lipo)     H(rot)  DE(clash)    DE(int)     intcor
     16.63     -19.03       1.60        0.00     114.27       2.02       1.64       0.75       ----

> <Gold.Chemscore.Fitness>
16.6328

> <Gold.Chemscore.DG>
-19.0293

> <Gold.Chemscore.ZeroCoef>
-5.4800

> <Gold.Chemscore.Hbond>
1.6038

> <Gold.Chemscore.Metal>
0.0000

> <Gold.Chemscore.Lipo>
114.2726

> <Gold.Chemscore.Internal_Hbond>
0.0000

> <Gold.Chemscore.DEClash>
1.6443

> <Gold.Chemscore.DEInternal>
0.7522

> <Gold.Chemscore.Rot>
2.0224

> <Gold.Chemscore.Internal.Correction>
   9.000000E+99

> <Gold.Chemscore.Hbonds>
donor molecule, donor type, donor heavy atom, donor atom, acceptor molecule, acceptor atom, score
      L1  H     3    26       P1  7949  0.75
      P1  H  7997  8010       L1     7  0.08
      P1  H 10752 10764       L1     3  0.29

> <Gold.Chemscore.Hbond.Weighted>
-5.3567

> <Gold.Chemscore.Metal.Weighted>
-0.0000

> <Gold.Chemscore.Lipo.Weighted>
-13.3699

> <Gold.Chemscore.Internal_Hbond.Weighted>
0.0000

> <Gold.Chemscore.DEClash.Weighted>
1.6443

> <Gold.Chemscore.DEInternal.Weighted>
0.7522

> <Gold.Chemscore.Rot.Weighted>
5.1773

> <Gold.Chemscore.Internal.Correction.Weighted>
   9.000000E+99

> <Gold.Protein.RotatedTorsions>
[ 6907 6896 6895 6894 ] final  127.84 input  -60.11 | X-H torsion
[ 7974 7965 7964 7962 ] final  147.34 input  175.53 | X-H torsion
[ 8008 7997 7996 7995 ] final   22.76 input   59.86 | X-H torsion
[ 10167 10162 10161 10158 ] final -141.62 input  -65.29 | X-H torsion
[ 10718 10713 10712 10709 ] final  169.95 input   66.30 | X-H torsion
[ 10763 10752 10751 10750 ] final -100.00 input  -60.55 | X-H torsion
[ 11005 11000 10999 10996 ] final -153.27 input  -57.11 | X-H torsion

> <Gold.Protein.ActiveResidues>
 VAL166  LYS551  ARG553  GLY616  TRP617  ASP618  TYR619  PRO620  LYS621  CYS622 
 ASP623  PHE694  ASN695  SER759  ASP760  ASP761  ALA762  ILE779  LEU786  VAL792 
 PHE793  MET794  SER795  GLU796  ALA797  LYS798  CYS799  TRP800  GLU811  SER814 

> <Gold.Protein.RotatedAtoms>
  152.3775  133.6501  159.6135 H   0  0  0  0  0  0  0  0  0  0  0  0  # atno 6907 bound_to 6896
  150.7715  133.9168  159.3395 H   0  0  0  0  0  0  0  0  0  0  0  0  # atno 6908 bound_to 6896
  151.6980  135.0936  160.0297 H   0  0  0  0  0  0  0  0  0  0  0  0  # atno 6909 bound_to 6896
  144.8599  139.6017  143.5935 H   0  0  0  0  0  0  0  0  0  0  0  0  # atno 7974 bound_to 7965
  154.9706  140.3089  155.4989 H   0  0  0  0  0  0  0  0  0  0  0  0  # atno 8008 bound_to 7997
  156.2966  140.2284  156.4738 H   0  0  0  0  0  0  0  0  0  0  0  0  # atno 8009 bound_to 7997
  154.7880  140.0441  157.1167 H   0  0  0  0  0  0  0  0  0  0  0  0  # atno 8010 bound_to 7997
  139.8167  143.7629  152.2665 H   0  0  0  0  0  0  0  0  0  0  0  0  # atno 10167 bound_to 10162
  157.0152  131.0216  151.2791 H   0  0  0  0  0  0  0  0  0  0  0  0  # atno 10718 bound_to 10713
  154.7544  135.4951  153.9347 H   0  0  0  0  0  0  0  0  0  0  0  0  # atno 10763 bound_to 10752
  153.1179  135.6725  153.9394 H   0  0  0  0  0  0  0  0  0  0  0  0  # atno 10764 bound_to 10752
  153.9134  135.3096  155.3427 H   0  0  0  0  0  0  0  0  0  0  0  0  # atno 10765 bound_to 10752
  140.7100  134.3843  157.5199 H   0  0  0  0  0  0  0  0  0  0  0  0  # atno 11005 bound_to 11000
  146.2852  139.6985  142.9200 LP  0  0  0  0  0  0  0  0  0  0  0  0  # atno 17320 bound_to 7965
  145.4333  141.0417  143.2898 LP  0  0  0  0  0  0  0  0  0  0  0  0  # atno 17321 bound_to 7965
  139.7795  144.7449  151.0109 LP  0  0  0  0  0  0  0  0  0  0  0  0  # atno 17342 bound_to 10162
  140.7815  143.4558  151.0348 LP  0  0  0  0  0  0  0  0  0  0  0  0  # atno 17343 bound_to 10162
  157.5291  130.8047  149.7896 LP  0  0  0  0  0  0  0  0  0  0  0  0  # atno 17370 bound_to 10713
  156.0122  130.3828  150.2228 LP  0  0  0  0  0  0  0  0  0  0  0  0  # atno 17371 bound_to 10713
  139.8874  134.8883  156.2530 LP  0  0  0  0  0  0  0  0  0  0  0  0  # atno 17394 bound_to 11000
  141.0092  133.7105  156.1085 LP  0  0  0  0  0  0  0  0  0  0  0  0  # atno 17395 bound_to 11000

$$$$
