AV-unprocessed.smi:3141|AV-procd|sdf|11963|dock5
  -GOLD-   2272017363D 1   1.00000     0.00000
 Structure written by MMmdl.
 36 38  0  0  0  0  0  0  0  0  2 V2000
  147.7326  142.6493  159.5281 O   0  0  0  0  0  0  0  0  0  0  0  0
  148.1917  143.0444  158.4561 C   0  0  0  0  0  0  0  0  0  0  0  0
  149.3989  143.6060  158.3138 N   0  0  0  0  0  0  0  0  0  0  0  0
  150.3367  143.8256  159.3668 C   0  0  0  0  0  0  0  0  0  0  0  0
  150.7658  145.2505  159.6409 C   0  0  0  0  0  0  0  0  0  0  0  0
  151.7233  144.2951  158.9841 C   0  0  0  0  0  0  0  0  0  0  0  0
  147.5497  142.9432  157.2831 N   0  0  0  0  0  0  0  0  0  0  0  0
  146.2109  142.3805  157.0909 C   0  0  1  0  0  0  0  0  0  0  0  0
  145.1467  143.4438  157.4340 C   0  0  0  0  0  0  0  0  0  0  0  0
  144.4485  143.8246  156.1184 C   0  0  0  0  0  0  0  0  0  0  0  0
  145.3311  143.2662  155.0027 C   0  0  0  0  0  0  0  0  0  0  0  0
  145.9178  141.9957  155.6232 C   0  0  1  0  0  0  0  0  0  0  0  0
  147.0423  141.3917  154.8847 N   0  0  0  0  0  0  0  0  0  0  0  0
  148.1164  140.6881  155.3750 C   0  0  0  0  0  0  0  0  0  0  0  0
  148.8570  140.2945  154.2906 C   0  0  0  0  0  0  0  0  0  0  0  0
  148.2032  140.7634  153.1840 N   0  3  0  0  0  0  0  0  0  0  0  0
  147.1004  141.4255  153.5463 C   0  0  0  0  0  0  0  0  0  0  0  0
  149.6814  143.8974  157.3893 H   0  0  0  0  0  0  0  0  0  0  0  0
  150.2773  143.1699  160.2343 H   0  0  0  0  0  0  0  0  0  0  0  0
  150.3408  146.0391  159.0229 H   0  0  0  0  0  0  0  0  0  0  0  0
  150.9602  145.5247  160.6758 H   0  0  0  0  0  0  0  0  0  0  0  0
  152.5579  143.9318  159.5803 H   0  0  0  0  0  0  0  0  0  0  0  0
  151.9374  144.4467  157.9279 H   0  0  0  0  0  0  0  0  0  0  0  0
  148.0144  143.2950  156.4585 H   0  0  0  0  0  0  0  0  0  0  0  0
  146.0848  141.5107  157.7386 H   0  0  0  0  0  0  0  0  0  0  0  0
  144.4186  143.0502  158.1445 H   0  0  0  0  0  0  0  0  0  0  0  0
  145.5927  144.3247  157.8994 H   0  0  0  0  0  0  0  0  0  0  0  0
  143.4667  143.3509  156.0774 H   0  0  0  0  0  0  0  0  0  0  0  0
  144.2962  144.9003  156.0248 H   0  0  0  0  0  0  0  0  0  0  0  0
  144.7741  143.0709  154.0860 H   0  0  0  0  0  0  0  0  0  0  0  0
  146.1138  143.9902  154.7752 H   0  0  0  0  0  0  0  0  0  0  0  0
  145.1202  141.2500  155.6302 H   0  0  0  0  0  0  0  0  0  0  0  0
  148.2743  140.5147  156.4290 H   0  0  0  0  0  0  0  0  0  0  0  0
  149.7723  139.7245  154.2249 H   0  0  0  0  0  0  0  0  0  0  0  0
  146.3884  141.8875  152.8858 H   0  0  0  0  0  0  0  0  0  0  0  0
  148.5030  140.6224  152.2274 H   0  0  0  0  0  0  0  0  0  0  0  0
  1  2  2  0  0  0  0
  2  3  1  0  0  0  0
  2  7  1  0  0  0  0
  3  4  1  0  0  0  0
  3 18  1  0  0  0  0
  4  6  1  0  0  0  0
  4  5  1  0  0  0  0
  4 19  1  0  0  0  0
  5  6  1  0  0  0  0
  5 20  1  0  0  0  0
  5 21  1  0  0  0  0
  6 22  1  0  0  0  0
  6 23  1  0  0  0  0
  7  8  1  0  0  0  0
  7 24  1  0  0  0  0
  8 12  1  0  0  0  0
  8  9  1  0  0  0  0
  8 25  1  0  0  0  0
  9 10  1  0  0  0  0
  9 26  1  0  0  0  0
  9 27  1  0  0  0  0
 10 11  1  0  0  0  0
 10 28  1  0  0  0  0
 10 29  1  0  0  0  0
 11 12  1  0  0  0  0
 11 30  1  0  0  0  0
 11 31  1  0  0  0  0
 12 13  1  0  0  0  0
 12 32  1  0  0  0  0
 13 17  1  0  0  0  0
 13 14  1  0  0  0  0
 14 15  2  0  0  0  0
 14 33  1  0  0  0  0
 15 16  1  0  0  0  0
 15 34  1  0  0  0  0
 16 17  2  0  0  0  0
 16 36  1  0  0  0  0
 17 35  1  0  0  0  0
M  CHG  1  16   1
M  END
> <s_m_source_file>
AV-unprocessed.smi

> <i_m_source_file_index>
3141

> <i_lp_mmshare_version>
43012

> <i_f3d_flags>
0

> <s_epik_input>
W0NIMl0xW0NIMl1bQ0hdMVtOSF1DKD1PKVtOSF1bQ0BASF0yW0NIMl1bQ0gyXVtDSDJdW0NASF0ybjNbY0hdW2NIXW5bY0hdMw==

> <s_epik_cmdline>
J2VwaWtfcHl0aG9uJywgJy1waCcsICc3LjAnLCAnLXRuJywgJzgnLCAnLW1hJywgJzIwMCcsICctbWV0YWxfYmluZGluZycsICctaW1hZScsICc8aW5maWxlLm1hZT4nLCAnLW9tYWUnLCAnPG91dGZpbGUubWFlPic=

> <r_lp_tautomer_probability>
1

> <r_epik_Ionization_Penalty>
0.205063

> <r_epik_Ionization_Penalty_Charging>
0

> <r_epik_Ionization_Penalty_Neutral>
0.205063

> <r_epik_State_Penalty>
0.194948

> <r_epik_Charging_Adjusted_Penalty>
0.194948

> <i_epik_Tot_Q>
1

> <i_epik_Tot_abs_Q>
1

> <r_epik_Metal_State_Penalty>
0.500882

> <b_epik_Metal_Only>
0

> <s_lp_Force_Field>
OPLS_2005

> <r_lp_Energy>
36.92

> <b_lp_Chiralities_Consistent>
1

> <s_lp_Variant>
AV-unprocessed.smi:3141-2

> <Gold.Version>
5.8.1

> <Gold.Id.Protein>
6NUR|6NUR_protein|mol2

> <Gold.PLP.Fitness>
37.1882

> <Gold.PLP.PLP>
-29.0955

> <Gold.PLP.part.hbond>
-7.0000

> <Gold.PLP.part.metal>
0.0000

> <Gold.PLP.part.buried>
-1.9171

> <Gold.PLP.part.nonpolar>
-21.5374

> <Gold.PLP.part.repulsive>
0.3011

> <Gold.PLP.ligand.clash>
0.0000

> <Gold.PLP.ligand.torsion>
1.0155

> <Gold.PLP.Chemscore.Hbond>
3.3550

> <Gold.PLP.Chemscore.CHOScore>
0.0000

> <Gold.PLP.Chemscore.Metal>
0.0000

> <Gold.Chemscore.Hbonds>
donor molecule, donor type, donor heavy atom, donor atom, acceptor molecule, acceptor atom, score
      L1  H     3    18       P1  8028  0.75
      L1  H     7    24       P1  8028  0.79
      L1  H    16    36       P1  7957  1.00
      P1  H  6933  6944       L1     1  0.51
      P1  H  6934  6946       L1     1  0.19

> <Gold.PLP.Chemscore.Internal.Correction>
0.0586

> <Gold.Rescore>
     Score         DG    S(hbond)    S(metal)    S(lipo)     H(rot)  DE(clash)    DE(int)     intcor
     14.17     -15.28       2.35        0.00      51.76       1.61       0.07       1.04       ----

> <Gold.Chemscore.Fitness>
14.1705

> <Gold.Chemscore.DG>
-15.2833

> <Gold.Chemscore.ZeroCoef>
-5.4800

> <Gold.Chemscore.Hbond>
2.3549

> <Gold.Chemscore.Metal>
0.0000

> <Gold.Chemscore.Lipo>
51.7645

> <Gold.Chemscore.Internal_Hbond>
0.0000

> <Gold.Chemscore.DEClash>
0.0679

> <Gold.Chemscore.DEInternal>
1.0449

> <Gold.Chemscore.Rot>
1.6088

> <Gold.Chemscore.Internal.Correction>
   9.000000E+99

> <Gold.Chemscore.Hbonds>
donor molecule, donor type, donor heavy atom, donor atom, acceptor molecule, acceptor atom, score
      L1  H     3    18       P1  8028  0.43
      L1  H     7    24       P1  8028  0.13
      L1  H    16    36       P1  7957  0.95
      P1  H  6933  6944       L1     1  0.50
      P1  H  6934  6946       L1     1  0.19

> <Gold.Chemscore.Hbond.Weighted>
-7.8655

> <Gold.Chemscore.Metal.Weighted>
-0.0000

> <Gold.Chemscore.Lipo.Weighted>
-6.0564

> <Gold.Chemscore.Internal_Hbond.Weighted>
0.0000

> <Gold.Chemscore.DEClash.Weighted>
0.0679

> <Gold.Chemscore.DEInternal.Weighted>
1.0449

> <Gold.Chemscore.Rot.Weighted>
4.1186

> <Gold.Chemscore.Internal.Correction.Weighted>
   9.000000E+99

> <Gold.Protein.RotatedTorsions>
[ 6907 6896 6895 6894 ] final   62.65 input  -60.11 | X-H torsion
[ 7974 7965 7964 7962 ] final  -24.58 input  175.53 | X-H torsion
[ 8008 7997 7996 7995 ] final  141.59 input   59.86 | X-H torsion
[ 10167 10162 10161 10158 ] final  165.14 input  -65.29 | X-H torsion
[ 10718 10713 10712 10709 ] final    1.31 input   66.30 | X-H torsion
[ 10763 10752 10751 10750 ] final -102.86 input  -60.55 | X-H torsion
[ 11005 11000 10999 10996 ] final  151.27 input  -57.11 | X-H torsion

> <Gold.Protein.ActiveResidues>
 VAL166  LYS551  ARG553  GLY616  TRP617  ASP618  TYR619  PRO620  LYS621  CYS622 
 ASP623  PHE694  ASN695  SER759  ASP760  ASP761  ALA762  ILE779  LEU786  VAL792 
 PHE793  MET794  SER795  GLU796  ALA797  LYS798  CYS799  TRP800  GLU811  SER814 

> <Gold.Protein.RotatedAtoms>
  152.4189  134.5991  159.9994 H   0  0  0  0  0  0  0  0  0  0  0  0  # atno 6907 bound_to 6896
  151.6146  133.3338  159.3083 H   0  0  0  0  0  0  0  0  0  0  0  0  # atno 6908 bound_to 6896
  150.8077  134.7251  159.6725 H   0  0  0  0  0  0  0  0  0  0  0  0  # atno 6909 bound_to 6896
  146.1545  140.4771  142.8597 H   0  0  0  0  0  0  0  0  0  0  0  0  # atno 7974 bound_to 7965
  156.2963  140.2311  156.4589 H   0  0  0  0  0  0  0  0  0  0  0  0  # atno 8008 bound_to 7997
  154.8035  140.0447  157.1311 H   0  0  0  0  0  0  0  0  0  0  0  0  # atno 8009 bound_to 7997
  154.9505  140.3041  155.5081 H   0  0  0  0  0  0  0  0  0  0  0  0  # atno 8010 bound_to 7997
  139.4901  144.4162  151.9240 H   0  0  0  0  0  0  0  0  0  0  0  0  # atno 10167 bound_to 10162
  156.8462  130.5538  149.5673 H   0  0  0  0  0  0  0  0  0  0  0  0  # atno 10718 bound_to 10713
  154.7765  135.4845  153.9755 H   0  0  0  0  0  0  0  0  0  0  0  0  # atno 10763 bound_to 10752
  153.1436  135.6777  153.8997 H   0  0  0  0  0  0  0  0  0  0  0  0  # atno 10764 bound_to 10752
  153.8664  135.3149  155.3418 H   0  0  0  0  0  0  0  0  0  0  0  0  # atno 10765 bound_to 10752
  140.1204  134.8867  157.2064 H   0  0  0  0  0  0  0  0  0  0  0  0  # atno 11005 bound_to 11000
  144.7946  140.6098  143.6519 LP  0  0  0  0  0  0  0  0  0  0  0  0  # atno 17320 bound_to 7965
  145.4742  139.1501  143.3797 LP  0  0  0  0  0  0  0  0  0  0  0  0  # atno 17321 bound_to 7965
  140.3605  144.2978  150.5934 LP  0  0  0  0  0  0  0  0  0  0  0  0  # atno 17342 bound_to 10162
  140.5407  143.2224  151.8090 LP  0  0  0  0  0  0  0  0  0  0  0  0  # atno 17343 bound_to 10162
  156.0853  130.5853  150.9637 LP  0  0  0  0  0  0  0  0  0  0  0  0  # atno 17370 bound_to 10713
  157.6328  131.0919  150.8407 LP  0  0  0  0  0  0  0  0  0  0  0  0  # atno 17371 bound_to 10713
  140.2972  134.3172  155.7299 LP  0  0  0  0  0  0  0  0  0  0  0  0  # atno 17394 bound_to 11000
  141.2150  133.7570  156.9589 LP  0  0  0  0  0  0  0  0  0  0  0  0  # atno 17395 bound_to 11000

$$$$
