AV-unprocessed.smi:2034|AV-procd|sdf|8268|dock2
  -GOLD-   2272010543D 1   1.00000     0.00000
 Structure written by MMmdl.
 50 52  0  0  0  0  0  0  0  0  1 V2000
  152.6582  144.6429  157.9905 C   0  0  0  0  0  0  0  0  0  0  0  0
  151.6157  143.7610  158.7009 C   0  0  1  0  0  0  0  0  0  0  0  0
  150.7620  142.9169  157.7333 C   0  0  0  0  0  0  0  0  0  0  0  0
  151.5358  141.8035  157.2014 N   0  0  0  0  0  0  0  0  0  0  0  0
  150.8567  141.0787  156.2131 C   0  0  0  0  0  0  0  0  0  0  0  0
  149.5312  141.3971  155.8386 C   0  0  0  0  0  0  0  0  0  0  0  0
  148.9081  140.6249  154.8404 C   0  0  0  0  0  0  0  0  0  0  0  0
  149.6233  139.5696  154.2396 C   0  0  0  0  0  0  0  0  0  0  0  0
  148.9609  138.7888  153.2543 N   0  0  0  0  0  0  0  0  0  0  0  0
  147.6474  138.7358  152.9747 C   0  0  0  0  0  0  0  0  0  0  0  0
  146.7641  139.3340  153.5889 O   0  0  0  0  0  0  0  0  0  0  0  0
  147.4053  137.9173  151.9417 N   0  0  0  0  0  0  0  0  0  0  0  0
  146.0834  137.6107  151.4069 C   0  0  0  0  0  0  0  0  0  0  0  0
  145.7016  136.1426  151.6567 C   0  0  1  0  0  0  0  0  0  0  0  0
  144.2023  135.8706  151.5527 C   0  0  0  0  0  0  0  0  0  0  0  0
  144.1855  134.3947  151.2273 C   0  0  0  0  0  0  0  0  0  0  0  0
  145.3815  134.2707  150.2878 C   0  0  0  0  0  0  0  0  0  0  0  0
  146.2948  135.2941  150.6759 O   0  0  0  0  0  0  0  0  0  0  0  0
  150.9439  139.3284  154.6905 C   0  0  0  0  0  0  0  0  0  0  0  0
  151.5467  140.0643  155.6489 N   0  0  0  0  0  0  0  0  0  0  0  0
  152.1158  140.9757  158.2495 C   0  0  0  0  0  0  0  0  0  0  0  0
  152.9891  141.8391  159.1775 C   0  0  2  0  0  0  0  0  0  0  0  0
  153.5305  141.0339  160.3632 C   0  0  0  0  0  0  0  0  0  0  0  0
  152.2098  142.9193  159.6937 O   0  0  0  0  0  0  0  0  0  0  0  0
  152.1707  145.3638  157.3339 H   0  0  0  0  0  0  0  0  0  0  0  0
  153.3442  144.0600  157.3762 H   0  0  0  0  0  0  0  0  0  0  0  0
  153.2502  145.2040  158.7135 H   0  0  0  0  0  0  0  0  0  0  0  0
  150.9447  144.4346  159.2342 H   0  0  0  0  0  0  0  0  0  0  0  0
  149.8927  142.5257  158.2638 H   0  0  0  0  0  0  0  0  0  0  0  0
  150.3852  143.5370  156.9188 H   0  0  0  0  0  0  0  0  0  0  0  0
  148.9993  142.2142  156.3031 H   0  0  0  0  0  0  0  0  0  0  0  0
  147.8942  140.8453  154.5397 H   0  0  0  0  0  0  0  0  0  0  0  0
  149.5529  138.1657  152.7247 H   0  0  0  0  0  0  0  0  0  0  0  0
  148.1899  137.4594  151.5016 H   0  0  0  0  0  0  0  0  0  0  0  0
  145.3394  138.2754  151.8491 H   0  0  0  0  0  0  0  0  0  0  0  0
  146.0882  137.8204  150.3370 H   0  0  0  0  0  0  0  0  0  0  0  0
  146.0507  135.8173  152.6382 H   0  0  0  0  0  0  0  0  0  0  0  0
  143.6611  136.1148  152.4671 H   0  0  0  0  0  0  0  0  0  0  0  0
  143.7617  136.4378  150.7313 H   0  0  0  0  0  0  0  0  0  0  0  0
  144.3550  133.8105  152.1329 H   0  0  0  0  0  0  0  0  0  0  0  0
  143.2507  134.0626  150.7750 H   0  0  0  0  0  0  0  0  0  0  0  0
  145.8442  133.2846  150.3329 H   0  0  0  0  0  0  0  0  0  0  0  0
  145.0762  134.4548  149.2571 H   0  0  0  0  0  0  0  0  0  0  0  0
  151.5402  138.5165  154.3049 H   0  0  0  0  0  0  0  0  0  0  0  0
  151.3223  140.4970  158.8250 H   0  0  0  0  0  0  0  0  0  0  0  0
  152.7149  140.1819  157.8019 H   0  0  0  0  0  0  0  0  0  0  0  0
  153.8394  142.2330  158.6203 H   0  0  0  0  0  0  0  0  0  0  0  0
  154.1453  140.2002  160.0233 H   0  0  0  0  0  0  0  0  0  0  0  0
  152.7189  140.6276  160.9673 H   0  0  0  0  0  0  0  0  0  0  0  0
  154.1471  141.6586  161.0098 H   0  0  0  0  0  0  0  0  0  0  0  0
  1  2  1  0  0  0  0
  1 25  1  0  0  0  0
  1 26  1  0  0  0  0
  1 27  1  0  0  0  0
  2 24  1  0  0  0  0
  2  3  1  0  0  0  0
  2 28  1  0  0  0  0
  3  4  1  0  0  0  0
  3 29  1  0  0  0  0
  3 30  1  0  0  0  0
  4  5  1  0  0  0  0
  4 21  1  0  0  0  0
  5 20  1  0  0  0  0
  5  6  2  0  0  0  0
  6  7  1  0  0  0  0
  6 31  1  0  0  0  0
  7  8  2  0  0  0  0
  7 32  1  0  0  0  0
  8  9  1  0  0  0  0
  8 19  1  0  0  0  0
  9 10  1  0  0  0  0
  9 33  1  0  0  0  0
 10 11  2  0  0  0  0
 10 12  1  0  0  0  0
 12 13  1  0  0  0  0
 12 34  1  0  0  0  0
 13 14  1  0  0  0  0
 13 35  1  0  0  0  0
 13 36  1  0  0  0  0
 14 18  1  0  0  0  0
 14 15  1  0  0  0  0
 14 37  1  0  0  0  0
 15 16  1  0  0  0  0
 15 38  1  0  0  0  0
 15 39  1  0  0  0  0
 16 17  1  0  0  0  0
 16 40  1  0  0  0  0
 16 41  1  0  0  0  0
 17 18  1  0  0  0  0
 17 42  1  0  0  0  0
 17 43  1  0  0  0  0
 19 20  2  0  0  0  0
 19 44  1  0  0  0  0
 21 22  1  0  0  0  0
 21 45  1  0  0  0  0
 21 46  1  0  0  0  0
 22 23  1  0  0  0  0
 22 24  1  0  0  0  0
 22 47  1  0  0  0  0
 23 48  1  0  0  0  0
 23 49  1  0  0  0  0
 23 50  1  0  0  0  0
M  END
> <s_m_source_file>
AV-unprocessed.smi

> <i_m_source_file_index>
2034

> <i_lp_mmshare_version>
43012

> <i_f3d_flags>
0

> <s_epik_input>
W0NIM11bQ0BASF0xW0NIMl1OKFtDSDJdW0NASF0oTzEpW0NIM10pYzJbY0hdW2NIXWMoW2NIXW4yKVtOSF1DKD1PKVtOSF1bQ0gyXVtDQEBIXTNbQ0gyXVtDSDJdW0NIMl1PMw==

> <s_epik_cmdline>
J2VwaWtfcHl0aG9uJywgJy1waCcsICc3LjAnLCAnLXRuJywgJzgnLCAnLW1hJywgJzIwMCcsICctbWV0YWxfYmluZGluZycsICctaW1hZScsICc8aW5maWxlLm1hZT4nLCAnLW9tYWUnLCAnPG91dGZpbGUubWFlPic=

> <r_lp_tautomer_probability>
1

> <r_epik_Ionization_Penalty>
0.00268225

> <r_epik_Ionization_Penalty_Charging>
0

> <r_epik_Ionization_Penalty_Neutral>
0.00268225

> <r_epik_State_Penalty>
0.00184408

> <r_epik_Charging_Adjusted_Penalty>
0.00184408

> <i_epik_Tot_Q>
0

> <i_epik_Tot_abs_Q>
0

> <r_epik_Metal_State_Penalty>
-0

> <b_epik_Metal_Only>
0

> <s_lp_Force_Field>
OPLS_2005

> <r_lp_Energy>
38.1853

> <b_lp_Chiralities_Consistent>
1

> <s_lp_Variant>
AV-unprocessed.smi:2034-6

> <Gold.Version>
5.8.1

> <Gold.Id.Protein>
6NUR|6NUR_protein|mol2

> <Gold.PLP.Fitness>
49.0762

> <Gold.PLP.PLP>
-46.2416

> <Gold.PLP.part.hbond>
-2.9370

> <Gold.PLP.part.metal>
0.0000

> <Gold.PLP.part.buried>
-4.3645

> <Gold.PLP.part.nonpolar>
-40.7779

> <Gold.PLP.part.repulsive>
0.5658

> <Gold.PLP.ligand.clash>
0.9803

> <Gold.PLP.ligand.torsion>
0.3417

> <Gold.PLP.Chemscore.Hbond>
1.4618

> <Gold.PLP.Chemscore.CHOScore>
0.0000

> <Gold.PLP.Chemscore.Metal>
0.0000

> <Gold.Chemscore.Hbonds>
donor molecule, donor type, donor heavy atom, donor atom, acceptor molecule, acceptor atom, score
      L1  H     9    33       P1  7948  0.37
      L1  H    12    34       P1  7948  0.54

> <Gold.PLP.Chemscore.Internal.Correction>
0.1130

> <Gold.Rescore>
     Score         DG    S(hbond)    S(metal)    S(lipo)     H(rot)  DE(clash)    DE(int)     intcor
     19.15     -21.33       1.86        0.00     112.26       1.37       0.55       1.63       ----

> <Gold.Chemscore.Fitness>
19.1457

> <Gold.Chemscore.DG>
-21.3258

> <Gold.Chemscore.ZeroCoef>
-5.4800

> <Gold.Chemscore.Hbond>
1.8590

> <Gold.Chemscore.Metal>
0.0000

> <Gold.Chemscore.Lipo>
112.2612

> <Gold.Chemscore.Internal_Hbond>
0.0000

> <Gold.Chemscore.DEClash>
0.5466

> <Gold.Chemscore.DEInternal>
1.6335

> <Gold.Chemscore.Rot>
1.3663

> <Gold.Chemscore.Internal.Correction>
   9.000000E+99

> <Gold.Chemscore.Hbonds>
donor molecule, donor type, donor heavy atom, donor atom, acceptor molecule, acceptor atom, score
      L1  H     9    33       P1  7948  0.29
      L1  H    12    34       P1  7948  0.52

> <Gold.Chemscore.Hbond.Weighted>
-6.2089

> <Gold.Chemscore.Metal.Weighted>
-0.0000

> <Gold.Chemscore.Lipo.Weighted>
-13.1346

> <Gold.Chemscore.Internal_Hbond.Weighted>
0.0000

> <Gold.Chemscore.DEClash.Weighted>
0.5466

> <Gold.Chemscore.DEInternal.Weighted>
1.6335

> <Gold.Chemscore.Rot.Weighted>
3.4977

> <Gold.Chemscore.Internal.Correction.Weighted>
   9.000000E+99

> <Gold.Protein.RotatedTorsions>
[ 6907 6896 6895 6894 ] final  -54.60 input  -60.11 | X-H torsion
[ 7974 7965 7964 7962 ] final   17.14 input  175.53 | X-H torsion
[ 8008 7997 7996 7995 ] final  137.13 input   59.86 | X-H torsion
[ 10167 10162 10161 10158 ] final -158.89 input  -65.29 | X-H torsion
[ 10718 10713 10712 10709 ] final  157.81 input   66.30 | X-H torsion
[ 10763 10752 10751 10750 ] final  108.39 input  -60.55 | X-H torsion
[ 11005 11000 10999 10996 ] final  -44.59 input  -57.11 | X-H torsion

> <Gold.Protein.ActiveResidues>
 VAL166  LYS551  ARG553  GLY616  TRP617  ASP618  TYR619  PRO620  LYS621  CYS622 
 ASP623  PHE694  ASN695  SER759  ASP760  ASP761  ALA762  ILE779  LEU786  VAL792 
 PHE793  MET794  SER795  GLU796  ALA797  LYS798  CYS799  TRP800  GLU811  SER814 

> <Gold.Protein.RotatedAtoms>
  150.8324  134.7583  159.6864 H   0  0  0  0  0  0  0  0  0  0  0  0  # atno 6907 bound_to 6896
  152.4426  134.5556  159.9889 H   0  0  0  0  0  0  0  0  0  0  0  0  # atno 6908 bound_to 6896
  151.5714  133.3352  159.3026 H   0  0  0  0  0  0  0  0  0  0  0  0  # atno 6909 bound_to 6896
  146.2228  139.8645  142.8598 H   0  0  0  0  0  0  0  0  0  0  0  0  # atno 7974 bound_to 7965
  156.3003  140.2427  156.3859 H   0  0  0  0  0  0  0  0  0  0  0  0  # atno 8008 bound_to 7997
  154.8658  140.0418  157.1714 H   0  0  0  0  0  0  0  0  0  0  0  0  # atno 8009 bound_to 7997
  154.8847  140.2954  155.5408 H   0  0  0  0  0  0  0  0  0  0  0  0  # atno 8010 bound_to 7997
  139.6657  143.9833  152.2253 H   0  0  0  0  0  0  0  0  0  0  0  0  # atno 10167 bound_to 10162
  157.1864  131.0644  151.2103 H   0  0  0  0  0  0  0  0  0  0  0  0  # atno 10718 bound_to 10713
  153.4200  135.3813  155.2105 H   0  0  0  0  0  0  0  0  0  0  0  0  # atno 10763 bound_to 10752
  154.8744  135.3815  154.4395 H   0  0  0  0  0  0  0  0  0  0  0  0  # atno 10764 bound_to 10752
  153.4914  135.7088  153.5944 H   0  0  0  0  0  0  0  0  0  0  0  0  # atno 10765 bound_to 10752
  141.0460  133.6761  156.2894 H   0  0  0  0  0  0  0  0  0  0  0  0  # atno 11005 bound_to 11000
  145.2670  141.0096  143.3793 LP  0  0  0  0  0  0  0  0  0  0  0  0  # atno 17320 bound_to 7965
  144.9253  139.4362  143.6521 LP  0  0  0  0  0  0  0  0  0  0  0  0  # atno 17321 bound_to 7965
  139.9584  144.6574  150.8103 LP  0  0  0  0  0  0  0  0  0  0  0  0  # atno 17342 bound_to 10162
  140.7598  143.3138  151.2782 LP  0  0  0  0  0  0  0  0  0  0  0  0  # atno 17343 bound_to 10162
  157.3903  130.7278  149.6693 LP  0  0  0  0  0  0  0  0  0  0  0  0  # atno 17370 bound_to 10713
  155.9717  130.4148  150.4151 LP  0  0  0  0  0  0  0  0  0  0  0  0  # atno 17371 bound_to 10713
  140.6145  134.5424  157.5538 LP  0  0  0  0  0  0  0  0  0  0  0  0  # atno 17394 bound_to 11000
  139.9312  134.7960  156.0925 LP  0  0  0  0  0  0  0  0  0  0  0  0  # atno 17395 bound_to 11000

$$$$
