AV-unprocessed.smi:3116|AV-procd|sdf|11876|dock7
  -GOLD-   2272017263D 1   1.00000     0.00000
 Structure written by MMmdl.
 33 33  0  0  0  0  0  0  0  0  1 V2000
  146.1982  138.5991  154.5136 C   0  0  0  0  0  0  0  0  0  0  0  0
  147.1227  138.3933  153.3034 C   0  0  2  0  0  0  0  0  0  0  0  0
  148.1474  139.4527  153.2778 N   0  0  0  0  0  0  0  0  0  0  0  0
  149.0434  139.4952  154.4332 C   0  0  1  0  0  0  0  0  0  0  0  0
  150.2121  138.5252  154.1655 C   0  0  0  0  0  0  0  0  0  0  0  0
  149.5005  140.9629  154.6453 C   0  0  1  0  0  0  0  0  0  0  0  0
  148.3208  141.9518  154.6936 C   0  0  0  0  0  0  0  0  0  0  0  0
  150.3085  141.1090  155.8496 N   0  0  0  0  0  0  0  0  0  0  0  0
  150.1596  142.0116  156.8842 C   0  0  0  0  0  0  0  0  0  0  0  0
  151.1539  141.7664  157.7870 C   0  0  0  0  0  0  0  0  0  0  0  0
  151.8728  140.6827  157.2103 C   0  0  0  0  0  0  0  0  0  0  0  0
  151.3662  140.2930  156.0520 N   0  0  0  0  0  0  0  0  0  0  0  0
  146.3026  138.3063  152.0054 C   0  0  0  0  0  0  0  0  0  0  0  0
  145.0202  137.9507  152.1155 N   0  0  0  0  0  0  0  0  0  0  0  0
  146.8250  138.5391  150.9169 O   0  0  0  0  0  0  0  0  0  0  0  0
  145.4372  137.8198  154.5690 H   0  0  0  0  0  0  0  0  0  0  0  0
  145.6869  139.5620  154.4715 H   0  0  0  0  0  0  0  0  0  0  0  0
  146.7641  138.5672  155.4452 H   0  0  0  0  0  0  0  0  0  0  0  0
  147.6351  137.4400  153.4474 H   0  0  0  0  0  0  0  0  0  0  0  0
  148.6802  139.4464  152.4195 H   0  0  0  0  0  0  0  0  0  0  0  0
  148.5245  139.1724  155.3370 H   0  0  0  0  0  0  0  0  0  0  0  0
  150.8789  138.4518  155.0245 H   0  0  0  0  0  0  0  0  0  0  0  0
  150.8079  138.8499  153.3117 H   0  0  0  0  0  0  0  0  0  0  0  0
  149.8589  137.5157  153.9562 H   0  0  0  0  0  0  0  0  0  0  0  0
  150.1300  141.2454  153.7986 H   0  0  0  0  0  0  0  0  0  0  0  0
  147.7569  141.9478  153.7609 H   0  0  0  0  0  0  0  0  0  0  0  0
  148.6733  142.9713  154.8537 H   0  0  0  0  0  0  0  0  0  0  0  0
  147.6283  141.7087  155.4998 H   0  0  0  0  0  0  0  0  0  0  0  0
  149.3656  142.7436  156.8917 H   0  0  0  0  0  0  0  0  0  0  0  0
  151.3400  142.2826  158.7169 H   0  0  0  0  0  0  0  0  0  0  0  0
  152.7423  140.1709  157.5956 H   0  0  0  0  0  0  0  0  0  0  0  0
  144.4443  137.8789  151.2895 H   0  0  0  0  0  0  0  0  0  0  0  0
  144.6317  137.7530  153.0261 H   0  0  0  0  0  0  0  0  0  0  0  0
  1  2  1  0  0  0  0
  1 16  1  0  0  0  0
  1 17  1  0  0  0  0
  1 18  1  0  0  0  0
  2  3  1  0  0  0  0
  2 13  1  0  0  0  0
  2 19  1  0  0  0  0
  3  4  1  0  0  0  0
  3 20  1  0  0  0  0
  4  5  1  0  0  0  0
  4  6  1  0  0  0  0
  4 21  1  0  0  0  0
  5 22  1  0  0  0  0
  5 23  1  0  0  0  0
  5 24  1  0  0  0  0
  6  7  1  0  0  0  0
  6  8  1  0  0  0  0
  6 25  1  0  0  0  0
  7 26  1  0  0  0  0
  7 27  1  0  0  0  0
  7 28  1  0  0  0  0
  8 12  1  0  0  0  0
  8  9  1  0  0  0  0
  9 10  2  0  0  0  0
  9 29  1  0  0  0  0
 10 11  1  0  0  0  0
 10 30  1  0  0  0  0
 11 12  2  0  0  0  0
 11 31  1  0  0  0  0
 13 14  1  0  0  0  0
 13 15  2  0  0  0  0
 14 32  1  0  0  0  0
 14 33  1  0  0  0  0
M  END
> <s_m_source_file>
AV-unprocessed.smi

> <i_m_source_file_index>
3116

> <i_lp_mmshare_version>
43012

> <i_f3d_flags>
0

> <s_epik_input>
W05IMl1DKD1PKVtDQEhdKFtDSDNdKVtOSF1bQ0BIXShbQ0gzXSlbQ0BIXShbQ0gzXSluMVtjSF1bY0hdW2NIXW4x

> <s_epik_cmdline>
J2VwaWtfcHl0aG9uJywgJy1waCcsICc3LjAnLCAnLXRuJywgJzgnLCAnLW1hJywgJzIwMCcsICctbWV0YWxfYmluZGluZycsICctaW1hZScsICc8aW5maWxlLm1hZT4nLCAnLW9tYWUnLCAnPG91dGZpbGUubWFlPic=

> <r_lp_tautomer_probability>
1

> <r_epik_Ionization_Penalty>
0.865977

> <r_epik_Ionization_Penalty_Charging>
0

> <r_epik_Ionization_Penalty_Neutral>
0.865977

> <r_epik_State_Penalty>
0.901888

> <r_epik_Charging_Adjusted_Penalty>
0.901888

> <i_epik_Tot_Q>
0

> <i_epik_Tot_abs_Q>
0

> <r_epik_Metal_State_Penalty>
0.901181

> <b_epik_Metal_Only>
0

> <s_lp_Force_Field>
OPLS_2005

> <r_lp_Energy>
9.22902

> <b_lp_Chiralities_Consistent>
1

> <s_lp_Variant>
AV-unprocessed.smi:3116-15

> <Gold.Version>
5.8.1

> <Gold.Id.Protein>
6NUR|6NUR_protein|mol2

> <Gold.PLP.Fitness>
37.5906

> <Gold.PLP.PLP>
-27.8758

> <Gold.PLP.part.hbond>
-4.0000

> <Gold.PLP.part.metal>
0.0000

> <Gold.PLP.part.buried>
-1.6190

> <Gold.PLP.part.nonpolar>
-23.7778

> <Gold.PLP.part.repulsive>
0.4730

> <Gold.PLP.ligand.clash>
0.0230

> <Gold.PLP.ligand.torsion>
1.1562

> <Gold.PLP.Chemscore.Hbond>
2.9840

> <Gold.PLP.Chemscore.CHOScore>
1.0000

> <Gold.PLP.Chemscore.Metal>
0.0000

> <Gold.Chemscore.Hbonds>
donor molecule, donor type, donor heavy atom, donor atom, acceptor molecule, acceptor atom, score
      L1  H     3    20       P1  7957  1.00
      L1  H    14    32       P1 10171  0.98
      P1  H  7954  7966       L1    15  0.99
      L1  C     9    29       P1  8028  1.00

> <Gold.PLP.Chemscore.Internal.Correction>
0.0982

> <Gold.Rescore>
     Score         DG    S(hbond)    S(metal)    S(lipo)     H(rot)  DE(clash)    DE(int)     intcor
     13.40     -15.70       2.96        0.00      54.90       2.38       0.44       1.85       ----

> <Gold.Chemscore.Fitness>
13.4048

> <Gold.Chemscore.DG>
-15.6978

> <Gold.Chemscore.ZeroCoef>
-5.4800

> <Gold.Chemscore.Hbond>
2.9629

> <Gold.Chemscore.Metal>
0.0000

> <Gold.Chemscore.Lipo>
54.9031

> <Gold.Chemscore.Internal_Hbond>
0.0000

> <Gold.Chemscore.DEClash>
0.4416

> <Gold.Chemscore.DEInternal>
1.8514

> <Gold.Chemscore.Rot>
2.3836

> <Gold.Chemscore.Internal.Correction>
   9.000000E+99

> <Gold.Chemscore.Hbonds>
donor molecule, donor type, donor heavy atom, donor atom, acceptor molecule, acceptor atom, score
      L1  H     3    20       P1  7957  0.99
      L1  H    14    32       P1 10171  0.93
      P1  H  7954  7966       L1    15  0.94

> <Gold.Chemscore.Hbond.Weighted>
-9.8961

> <Gold.Chemscore.Metal.Weighted>
-0.0000

> <Gold.Chemscore.Lipo.Weighted>
-6.4237

> <Gold.Chemscore.Internal_Hbond.Weighted>
0.0000

> <Gold.Chemscore.DEClash.Weighted>
0.4416

> <Gold.Chemscore.DEInternal.Weighted>
1.8514

> <Gold.Chemscore.Rot.Weighted>
6.1020

> <Gold.Chemscore.Internal.Correction.Weighted>
   9.000000E+99

> <Gold.Protein.RotatedTorsions>
[ 6907 6896 6895 6894 ] final   68.49 input  -60.11 | X-H torsion
[ 7974 7965 7964 7962 ] final  164.38 input  175.53 | X-H torsion
[ 8008 7997 7996 7995 ] final   -8.32 input   59.86 | X-H torsion
[ 10167 10162 10161 10158 ] final  161.11 input  -65.29 | X-H torsion
[ 10718 10713 10712 10709 ] final  -15.94 input   66.30 | X-H torsion
[ 10763 10752 10751 10750 ] final  131.58 input  -60.55 | X-H torsion
[ 11005 11000 10999 10996 ] final  -55.74 input  -57.11 | X-H torsion

> <Gold.Protein.ActiveResidues>
 VAL166  LYS551  ARG553  GLY616  TRP617  ASP618  TYR619  PRO620  LYS621  CYS622 
 ASP623  PHE694  ASN695  SER759  ASP760  ASP761  ALA762  ILE779  LEU786  VAL792 
 PHE793  MET794  SER795  GLU796  ALA797  LYS798  CYS799  TRP800  GLU811  SER814 

> <Gold.Protein.RotatedAtoms>
  152.4623  134.5155  159.9766 H   0  0  0  0  0  0  0  0  0  0  0  0  # atno 6907 bound_to 6896
  151.5201  133.3462  159.2908 H   0  0  0  0  0  0  0  0  0  0  0  0  # atno 6908 bound_to 6896
  150.8592  134.7968  159.7132 H   0  0  0  0  0  0  0  0  0  0  0  0  # atno 6909 bound_to 6896
  144.7548  139.8317  143.6354 H   0  0  0  0  0  0  0  0  0  0  0  0  # atno 7974 bound_to 7965
  154.5752  140.2384  155.8132 H   0  0  0  0  0  0  0  0  0  0  0  0  # atno 8008 bound_to 7997
  156.2138  140.3018  155.9749 H   0  0  0  0  0  0  0  0  0  0  0  0  # atno 8009 bound_to 7997
  155.2639  140.0415  157.2990 H   0  0  0  0  0  0  0  0  0  0  0  0  # atno 8010 bound_to 7997
  139.4846  144.4568  151.8758 H   0  0  0  0  0  0  0  0  0  0  0  0  # atno 10167 bound_to 10162
  156.5946  130.4808  149.6265 H   0  0  0  0  0  0  0  0  0  0  0  0  # atno 10718 bound_to 10713
  153.7766  135.3174  155.3360 H   0  0  0  0  0  0  0  0  0  0  0  0  # atno 10763 bound_to 10752
  154.8177  135.4625  154.0692 H   0  0  0  0  0  0  0  0  0  0  0  0  # atno 10764 bound_to 10752
  153.1968  135.6916  153.8367 H   0  0  0  0  0  0  0  0  0  0  0  0  # atno 10765 bound_to 10752
  141.1088  133.6611  156.4514 H   0  0  0  0  0  0  0  0  0  0  0  0  # atno 11005 bound_to 11000
  146.1544  139.4637  143.0028 LP  0  0  0  0  0  0  0  0  0  0  0  0  # atno 17320 bound_to 7965
  145.6818  141.0189  143.1602 LP  0  0  0  0  0  0  0  0  0  0  0  0  # atno 17321 bound_to 7965
  140.4028  144.2471  150.5892 LP  0  0  0  0  0  0  0  0  0  0  0  0  # atno 17342 bound_to 10162
  140.5041  143.2309  151.8635 LP  0  0  0  0  0  0  0  0  0  0  0  0  # atno 17343 bound_to 10162
  156.2520  130.6913  151.1653 LP  0  0  0  0  0  0  0  0  0  0  0  0  # atno 17370 bound_to 10713
  157.7295  131.0624  150.5771 LP  0  0  0  0  0  0  0  0  0  0  0  0  # atno 17371 bound_to 10713
  140.4832  134.6645  157.5180 LP  0  0  0  0  0  0  0  0  0  0  0  0  # atno 17394 bound_to 11000
  139.9971  134.6895  155.9592 LP  0  0  0  0  0  0  0  0  0  0  0  0  # atno 17395 bound_to 11000

$$$$
