AV-unprocessed.smi:1053|AV-procd|sdf|4618|dock8
  -GOLD-   22720 3123D 1   1.00000     0.00000
 Structure written by MMmdl.
 38 39  0  0  0  0  0  0  0  0  2 V2000
  147.0876  141.7520  157.7529 C   0  0  0  0  0  0  0  0  0  0  0  0
  147.0817  141.4732  156.2431 C   0  0  0  0  0  0  0  0  0  0  0  0
  148.2796  142.0270  155.5576 N   0  3  2  0  0  0  0  0  0  0  0  0
  148.2977  141.7686  154.0972 C   0  0  0  0  0  0  0  0  0  0  0  0
  148.7315  140.3236  153.7938 C   0  0  0  0  0  0  0  0  0  0  0  0
  150.0040  140.0810  154.3800 O   0  0  0  0  0  0  0  0  0  0  0  0
  149.9857  140.2019  155.7994 C   0  0  1  0  0  0  0  0  0  0  0  0
  151.3866  139.8613  156.3251 C   0  0  0  0  0  0  0  0  0  0  0  0
  151.3947  139.6975  157.7710 N   0  0  0  0  0  0  0  0  0  0  0  0
  151.9923  140.5841  158.6460 C   0  0  0  0  0  0  0  0  0  0  0  0
  153.0424  140.1084  159.3185 N   0  0  0  0  0  0  0  0  0  0  0  0
  153.6505  140.9505  160.1822 C   0  0  0  0  0  0  0  0  0  0  0  0
  153.2021  142.2731  160.3700 C   0  0  0  0  0  0  0  0  0  0  0  0
  152.0817  142.6691  159.6059 C   0  0  0  0  0  0  0  0  0  0  0  0
  151.4875  144.0661  159.7026 C   0  0  0  0  0  0  0  0  0  0  0  0
  150.2961  144.1346  159.1075 F   0  0  0  0  0  0  0  0  0  0  0  0
  151.3401  144.4036  160.9838 F   0  0  0  0  0  0  0  0  0  0  0  0
  152.3037  144.9431  159.1178 F   0  0  0  0  0  0  0  0  0  0  0  0
  151.4808  141.8160  158.7441 N   0  0  0  0  0  0  0  0  0  0  0  0
  149.5806  141.6467  156.1664 C   0  0  0  0  0  0  0  0  0  0  0  0
  146.1517  141.4246  158.2063 H   0  0  0  0  0  0  0  0  0  0  0  0
  147.1964  142.8177  157.9564 H   0  0  0  0  0  0  0  0  0  0  0  0
  147.8931  141.2267  158.2649 H   0  0  0  0  0  0  0  0  0  0  0  0
  146.9807  140.4047  156.0534 H   0  0  0  0  0  0  0  0  0  0  0  0
  146.1888  141.9415  155.8271 H   0  0  0  0  0  0  0  0  0  0  0  0
  147.3254  141.9842  153.6530 H   0  0  0  0  0  0  0  0  0  0  0  0
  149.0043  142.4597  153.6355 H   0  0  0  0  0  0  0  0  0  0  0  0
  148.0005  139.6021  154.1614 H   0  0  0  0  0  0  0  0  0  0  0  0
  148.8080  140.1752  152.7165 H   0  0  0  0  0  0  0  0  0  0  0  0
  149.2701  139.4945  156.2214 H   0  0  0  0  0  0  0  0  0  0  0  0
  151.7592  138.9528  155.8505 H   0  0  0  0  0  0  0  0  0  0  0  0
  152.0794  140.6641  156.0698 H   0  0  0  0  0  0  0  0  0  0  0  0
  150.9885  138.8613  158.1651 H   0  0  0  0  0  0  0  0  0  0  0  0
  154.5001  140.5667  160.7272 H   0  0  0  0  0  0  0  0  0  0  0  0
  153.6947  142.9395  161.0622 H   0  0  0  0  0  0  0  0  0  0  0  0
  150.3387  142.3374  155.7941 H   0  0  0  0  0  0  0  0  0  0  0  0
  149.5602  141.7791  157.2475 H   0  0  0  0  0  0  0  0  0  0  0  0
  148.1980  143.0290  155.6580 H   0  0  0  0  0  0  0  0  0  0  0  0
  1  2  1  0  0  0  0
  1 21  1  0  0  0  0
  1 22  1  0  0  0  0
  1 23  1  0  0  0  0
  2  3  1  0  0  0  0
  2 24  1  0  0  0  0
  2 25  1  0  0  0  0
  3 20  1  0  0  0  0
  3  4  1  0  0  0  0
  3 38  1  0  0  0  0
  4  5  1  0  0  0  0
  4 26  1  0  0  0  0
  4 27  1  0  0  0  0
  5  6  1  0  0  0  0
  5 28  1  0  0  0  0
  5 29  1  0  0  0  0
  6  7  1  0  0  0  0
  7  8  1  0  0  0  0
  7 20  1  0  0  0  0
  7 30  1  0  0  0  0
  8  9  1  0  0  0  0
  8 31  1  0  0  0  0
  8 32  1  0  0  0  0
  9 10  1  0  0  0  0
  9 33  1  0  0  0  0
 10 19  1  0  0  0  0
 10 11  2  0  0  0  0
 11 12  1  0  0  0  0
 12 13  2  0  0  0  0
 12 34  1  0  0  0  0
 13 14  1  0  0  0  0
 13 35  1  0  0  0  0
 14 15  1  0  0  0  0
 14 19  2  0  0  0  0
 15 16  1  0  0  0  0
 15 17  1  0  0  0  0
 15 18  1  0  0  0  0
 20 36  1  0  0  0  0
 20 37  1  0  0  0  0
M  CHG  1   3   1
M  END
> <s_m_source_file>
AV-unprocessed.smi

> <i_m_source_file_index>
1053

> <i_lp_mmshare_version>
43012

> <i_f3d_flags>
0

> <s_epik_input>
W0NIM11bQ0gyXU4xW0NIMl1bQ0gyXU9bQ0BIXShbQ0gyXTEpW0NIMl1bTkhdYzJuW2NIXVtjSF1jKG4yKUMoRikoRilG

> <s_epik_cmdline>
J2VwaWtfcHl0aG9uJywgJy1waCcsICc3LjAnLCAnLXRuJywgJzgnLCAnLW1hJywgJzIwMCcsICctbWV0YWxfYmluZGluZycsICctaW1hZScsICc8aW5maWxlLm1hZT4nLCAnLW9tYWUnLCAnPG91dGZpbGUubWFlPic=

> <r_lp_tautomer_probability>
1

> <r_epik_Ionization_Penalty>
0.178506

> <r_epik_Ionization_Penalty_Charging>
0.178504

> <r_epik_Ionization_Penalty_Neutral>
2.47619e-06

> <r_epik_State_Penalty>
0.167974

> <r_epik_Charging_Adjusted_Penalty>
0.346478

> <i_epik_Tot_Q>
1

> <i_epik_Tot_abs_Q>
1

> <r_epik_Metal_State_Penalty>
0.167974

> <b_epik_Metal_Only>
0

> <s_lp_Force_Field>
OPLS_2005

> <r_lp_Energy>
12.5681

> <b_lp_Chiralities_Consistent>
1

> <s_lp_Variant>
AV-unprocessed.smi:1053-2

> <Gold.Version>
5.8.1

> <Gold.Id.Protein>
6NUR|6NUR_protein|mol2

> <Gold.PLP.Fitness>
48.6765

> <Gold.PLP.PLP>
-41.9955

> <Gold.PLP.part.hbond>
-2.7212

> <Gold.PLP.part.metal>
0.0000

> <Gold.PLP.part.buried>
-2.1605

> <Gold.PLP.part.nonpolar>
-36.6081

> <Gold.PLP.part.repulsive>
0.2876

> <Gold.PLP.ligand.clash>
0.0000

> <Gold.PLP.ligand.torsion>
1.1762

> <Gold.PLP.Chemscore.Hbond>
3.0000

> <Gold.PLP.Chemscore.CHOScore>
0.0000

> <Gold.PLP.Chemscore.Metal>
0.0000

> <Gold.Chemscore.Hbonds>
donor molecule, donor type, donor heavy atom, donor atom, acceptor molecule, acceptor atom, score
      L1  H     3    38       P1  8028  2.00
      P1  H  7989  7998       L1     6  1.00

> <Gold.PLP.Chemscore.Internal.Correction>
0.0333

> <Gold.Rescore>
     Score         DG    S(hbond)    S(metal)    S(lipo)     H(rot)  DE(clash)    DE(int)     intcor
     13.28     -14.36       1.05        0.00      80.11       1.55       0.23       0.85       ----

> <Gold.Chemscore.Fitness>
13.2815

> <Gold.Chemscore.DG>
-14.3628

> <Gold.Chemscore.ZeroCoef>
-5.4800

> <Gold.Chemscore.Hbond>
1.0451

> <Gold.Chemscore.Metal>
0.0000

> <Gold.Chemscore.Lipo>
80.1073

> <Gold.Chemscore.Internal_Hbond>
0.0000

> <Gold.Chemscore.DEClash>
0.2307

> <Gold.Chemscore.DEInternal>
0.8506

> <Gold.Chemscore.Rot>
1.5549

> <Gold.Chemscore.Internal.Correction>
   9.000000E+99

> <Gold.Chemscore.Hbonds>
donor molecule, donor type, donor heavy atom, donor atom, acceptor molecule, acceptor atom, score
      L1  H     3    38       P1  8028  0.88
      P1  H  7989  7998       L1     6  0.80

> <Gold.Chemscore.Hbond.Weighted>
-3.4908

> <Gold.Chemscore.Metal.Weighted>
-0.0000

> <Gold.Chemscore.Lipo.Weighted>
-9.3726

> <Gold.Chemscore.Internal_Hbond.Weighted>
0.0000

> <Gold.Chemscore.DEClash.Weighted>
0.2307

> <Gold.Chemscore.DEInternal.Weighted>
0.8506

> <Gold.Chemscore.Rot.Weighted>
3.9806

> <Gold.Chemscore.Internal.Correction.Weighted>
   9.000000E+99

> <Gold.Protein.RotatedTorsions>
[ 6907 6896 6895 6894 ] final  -45.11 input  -60.11 | X-H torsion
[ 7974 7965 7964 7962 ] final  -94.28 input  175.53 | X-H torsion
[ 8008 7997 7996 7995 ] final  -56.24 input   59.86 | X-H torsion
[ 10167 10162 10161 10158 ] final   85.29 input  -65.29 | X-H torsion
[ 10718 10713 10712 10709 ] final -115.09 input   66.30 | X-H torsion
[ 10763 10752 10751 10750 ] final   36.59 input  -60.55 | X-H torsion
[ 11005 11000 10999 10996 ] final   36.80 input  -57.11 | X-H torsion

> <Gold.Protein.ActiveResidues>
 VAL166  LYS551  ARG553  GLY616  TRP617  ASP618  TYR619  PRO620  LYS621  CYS622 
 ASP623  PHE694  ASN695  SER759  ASP760  ASP761  ALA762  ILE779  LEU786  VAL792 
 PHE793  MET794  SER795  GLU796  ALA797  LYS798  CYS799  TRP800  GLU811  SER814 

> <Gold.Protein.RotatedAtoms>
  150.9255  134.8672  159.7516 H   0  0  0  0  0  0  0  0  0  0  0  0  # atno 6907 bound_to 6896
  152.5013  134.4155  159.9473 H   0  0  0  0  0  0  0  0  0  0  0  0  # atno 6908 bound_to 6896
  151.4186  133.3665  159.2788 H   0  0  0  0  0  0  0  0  0  0  0  0  # atno 6909 bound_to 6896
  145.3754  140.9511  143.2423 H   0  0  0  0  0  0  0  0  0  0  0  0  # atno 7974 bound_to 7965
  154.4223  140.1134  156.5606 H   0  0  0  0  0  0  0  0  0  0  0  0  # atno 8008 bound_to 7997
  155.6315  140.3495  155.4665 H   0  0  0  0  0  0  0  0  0  0  0  0  # atno 8009 bound_to 7997
  155.9944  140.1186  157.0597 H   0  0  0  0  0  0  0  0  0  0  0  0  # atno 8010 bound_to 7997
  139.8993  144.6339  150.8654 H   0  0  0  0  0  0  0  0  0  0  0  0  # atno 10167 bound_to 10162
  156.0873  130.6062  150.8861 H   0  0  0  0  0  0  0  0  0  0  0  0  # atno 10718 bound_to 10713
  153.0071  135.6301  154.2009 H   0  0  0  0  0  0  0  0  0  0  0  0  # atno 10763 bound_to 10752
  154.1752  135.2816  155.3070 H   0  0  0  0  0  0  0  0  0  0  0  0  # atno 10764 bound_to 10752
  154.5877  135.5627  153.7307 H   0  0  0  0  0  0  0  0  0  0  0  0  # atno 10765 bound_to 10752
  140.2289  134.3551  155.7972 H   0  0  0  0  0  0  0  0  0  0  0  0  # atno 11005 bound_to 11000
  144.8546  139.5270  143.6840 LP  0  0  0  0  0  0  0  0  0  0  0  0  # atno 17320 bound_to 7965
  146.2866  139.7022  142.9191 LP  0  0  0  0  0  0  0  0  0  0  0  0  # atno 17321 bound_to 7965
  140.7710  143.3449  151.2131 LP  0  0  0  0  0  0  0  0  0  0  0  0  # atno 17342 bound_to 10162
  139.7040  143.9487  152.2918 LP  0  0  0  0  0  0  0  0  0  0  0  0  # atno 17343 bound_to 10162
  157.6011  131.0941  150.8958 LP  0  0  0  0  0  0  0  0  0  0  0  0  # atno 17370 bound_to 10713
  156.9116  130.5282  149.5280 LP  0  0  0  0  0  0  0  0  0  0  0  0  # atno 17371 bound_to 10713
  141.2219  133.7234  156.8699 LP  0  0  0  0  0  0  0  0  0  0  0  0  # atno 17394 bound_to 11000
  140.1771  134.9059  157.2904 LP  0  0  0  0  0  0  0  0  0  0  0  0  # atno 17395 bound_to 11000

$$$$
