AV-unprocessed.smi:259|AV-procd|sdf|1974|dock9
  -GOLD-   2262021143D 1   1.00000     0.00000
 Structure written by MMmdl.
 54 57  0  0  0  0  0  0  0  0  1 V2000
  141.8702  134.7709  152.8824 C   0  0  0  0  0  0  0  0  0  0  0  0
  142.6701  134.1614  151.8311 N   0  0  0  0  0  0  0  0  0  0  0  0
  144.0078  134.2283  151.7662 C   0  0  0  0  0  0  0  0  0  0  0  0
  144.6891  134.8187  152.6048 O   0  0  0  0  0  0  0  0  0  0  0  0
  144.6710  133.5077  150.5803 C   0  0  0  0  0  0  0  0  0  0  0  0
  145.5675  132.2881  150.9327 C   0  0  2  0  0  0  0  0  0  0  0  0
  146.4706  132.0862  149.8583 O   0  0  0  0  0  0  0  0  0  0  0  0
  144.7427  131.0002  151.1888 C   0  0  0  0  0  0  0  0  0  0  0  0
  145.6071  129.8543  151.7371 C   0  0  0  0  0  0  0  0  0  0  0  0
  146.3888  130.2994  152.9790 C   0  0  0  0  0  0  0  0  0  0  0  0
  147.1782  131.4914  152.6783 N   0  0  0  0  0  0  0  0  0  0  0  0
  148.2088  131.8013  153.5048 C   0  0  0  0  0  0  0  0  0  0  0  0
  148.3589  133.0771  153.9521 N   0  0  0  0  0  0  0  0  0  0  0  0
  149.3791  133.3959  154.7539 C   0  0  0  0  0  0  0  0  0  0  0  0
  150.3475  132.6085  155.2259 N   0  0  0  0  0  0  0  0  0  0  0  0
  150.1977  131.3252  154.7894 C   0  0  0  0  0  0  0  0  0  0  0  0
  149.1664  130.8401  153.9365 C   0  0  0  0  0  0  0  0  0  0  0  0
  149.3356  129.4775  153.7209 N   0  0  0  0  0  0  0  0  0  0  0  0
  150.4109  129.1774  154.3959 C   0  0  0  0  0  0  0  0  0  0  0  0
  150.9900  130.2258  155.0745 N   0  0  0  0  0  0  0  0  0  0  0  0
  152.1887  130.1766  155.8978 C   0  0  0  0  0  0  0  0  0  0  0  0
  152.0588  130.9267  157.2366 C   0  0  0  0  0  0  0  0  0  0  0  0
  150.7464  130.4920  157.9199 C   0  0  0  0  0  0  0  0  0  0  0  0
  150.5290  131.1574  159.1483 O   0  0  0  0  0  0  0  0  0  0  0  0
  153.3090  130.9442  158.1280 C   0  0  0  0  0  0  0  0  0  0  0  0
  153.3131  132.3871  158.1982 O   0  0  0  0  0  0  0  0  0  0  0  0
  152.3154  132.4384  157.1546 C   0  0  0  0  0  0  0  0  0  0  0  0
  146.4271  132.6408  152.1704 C   0  0  0  0  0  0  0  0  0  0  0  0
  140.8126  134.5757  152.7052 H   0  0  0  0  0  0  0  0  0  0  0  0
  142.0183  135.8513  152.9065 H   0  0  0  0  0  0  0  0  0  0  0  0
  142.1342  134.3606  153.8579 H   0  0  0  0  0  0  0  0  0  0  0  0
  142.1772  133.6546  151.1099 H   0  0  0  0  0  0  0  0  0  0  0  0
  143.8814  133.2008  149.8929 H   0  0  0  0  0  0  0  0  0  0  0  0
  145.2719  134.2359  150.0329 H   0  0  0  0  0  0  0  0  0  0  0  0
  147.2840  131.7557  150.2094 H   0  0  0  0  0  0  0  0  0  0  0  0
  143.9537  131.2178  151.9098 H   0  0  0  0  0  0  0  0  0  0  0  0
  144.2416  130.6679  150.2792 H   0  0  0  0  0  0  0  0  0  0  0  0
  144.9801  128.9961  151.9793 H   0  0  0  0  0  0  0  0  0  0  0  0
  146.3043  129.5198  150.9679 H   0  0  0  0  0  0  0  0  0  0  0  0
  145.7028  130.5158  153.7993 H   0  0  0  0  0  0  0  0  0  0  0  0
  147.0395  129.4867  153.3052 H   0  0  0  0  0  0  0  0  0  0  0  0
  149.4263  134.4304  155.0608 H   0  0  0  0  0  0  0  0  0  0  0  0
  150.8112  128.1744  154.4163 H   0  0  0  0  0  0  0  0  0  0  0  0
  152.4245  129.1258  156.0704 H   0  0  0  0  0  0  0  0  0  0  0  0
  153.0234  130.5723  155.3181 H   0  0  0  0  0  0  0  0  0  0  0  0
  149.8901  130.6873  157.2738 H   0  0  0  0  0  0  0  0  0  0  0  0
  150.7474  129.4224  158.1306 H   0  0  0  0  0  0  0  0  0  0  0  0
  150.2330  132.0365  158.9661 H   0  0  0  0  0  0  0  0  0  0  0  0
  153.1698  130.4768  159.1036 H   0  0  0  0  0  0  0  0  0  0  0  0
  154.2092  130.5662  157.6426 H   0  0  0  0  0  0  0  0  0  0  0  0
  152.7430  132.7646  156.2053 H   0  0  0  0  0  0  0  0  0  0  0  0
  151.4585  133.0576  157.4222 H   0  0  0  0  0  0  0  0  0  0  0  0
  147.0819  133.4793  151.9356 H   0  0  0  0  0  0  0  0  0  0  0  0
  145.7777  132.9832  152.9773 H   0  0  0  0  0  0  0  0  0  0  0  0
  1  2  1  0  0  0  0
  1 29  1  0  0  0  0
  1 30  1  0  0  0  0
  1 31  1  0  0  0  0
  2  3  1  0  0  0  0
  2 32  1  0  0  0  0
  3  4  2  0  0  0  0
  3  5  1  0  0  0  0
  5  6  1  0  0  0  0
  5 33  1  0  0  0  0
  5 34  1  0  0  0  0
  6 28  1  0  0  0  0
  6  7  1  0  0  0  0
  6  8  1  0  0  0  0
  7 35  1  0  0  0  0
  8  9  1  0  0  0  0
  8 36  1  0  0  0  0
  8 37  1  0  0  0  0
  9 10  1  0  0  0  0
  9 38  1  0  0  0  0
  9 39  1  0  0  0  0
 10 11  1  0  0  0  0
 10 40  1  0  0  0  0
 10 41  1  0  0  0  0
 11 12  1  0  0  0  0
 11 28  1  0  0  0  0
 12 17  1  0  0  0  0
 12 13  2  0  0  0  0
 13 14  1  0  0  0  0
 14 15  2  0  0  0  0
 14 42  1  0  0  0  0
 15 16  1  0  0  0  0
 16 20  1  0  0  0  0
 16 17  2  0  0  0  0
 17 18  1  0  0  0  0
 18 19  2  0  0  0  0
 19 20  1  0  0  0  0
 19 43  1  0  0  0  0
 20 21  1  0  0  0  0
 21 22  1  0  0  0  0
 21 44  1  0  0  0  0
 21 45  1  0  0  0  0
 22 27  1  0  0  0  0
 22 23  1  0  0  0  0
 22 25  1  0  0  0  0
 23 24  1  0  0  0  0
 23 46  1  0  0  0  0
 23 47  1  0  0  0  0
 24 48  1  0  0  0  0
 25 26  1  0  0  0  0
 25 49  1  0  0  0  0
 25 50  1  0  0  0  0
 26 27  1  0  0  0  0
 27 51  1  0  0  0  0
 27 52  1  0  0  0  0
 28 53  1  0  0  0  0
 28 54  1  0  0  0  0
M  END
> <s_m_source_file>
AV-unprocessed.smi

> <i_m_source_file_index>
259

> <i_lp_mmshare_version>
43012

> <i_f3d_flags>
0

> <s_epik_input>
W0NIM11bTkhdQyg9TylbQ0gyXVtDQEBdMShbT0hdKVtDSDJdW0NIMl1bQ0gyXU4oW0NIMl0xKWMobltjSF1uMiljKGMyMyluW2NIXW4zW0NIMl1DNChbQ0gyXVtPSF0pW0NIMl1PW0NIMl00

> <s_epik_cmdline>
J2VwaWtfcHl0aG9uJywgJy1waCcsICc3LjAnLCAnLXRuJywgJzgnLCAnLW1hJywgJzIwMCcsICctbWV0YWxfYmluZGluZycsICctaW1hZScsICc8aW5maWxlLm1hZT4nLCAnLW9tYWUnLCAnPG91dGZpbGUubWFlPic=

> <r_lp_tautomer_probability>
1

> <r_epik_Ionization_Penalty>
0.00366363

> <r_epik_Ionization_Penalty_Charging>
0

> <r_epik_Ionization_Penalty_Neutral>
0.00366363

> <r_epik_State_Penalty>
0.00243014

> <r_epik_Charging_Adjusted_Penalty>
0.00243014

> <i_epik_Tot_Q>
0

> <i_epik_Tot_abs_Q>
0

> <r_epik_Metal_State_Penalty>
-0

> <b_epik_Metal_Only>
0

> <s_lp_Force_Field>
OPLS_2005

> <r_lp_Energy>
39.9433

> <b_lp_Chiralities_Consistent>
1

> <s_lp_Variant>
AV-unprocessed.smi:259-2

> <Gold.Version>
5.8.1

> <Gold.Id.Protein>
6NUR|6NUR_protein|mol2

> <Gold.PLP.Fitness>
49.2515

> <Gold.PLP.PLP>
-42.5454

> <Gold.PLP.part.hbond>
-3.4207

> <Gold.PLP.part.metal>
0.0000

> <Gold.PLP.part.buried>
-6.6960

> <Gold.PLP.part.nonpolar>
-32.6060

> <Gold.PLP.part.repulsive>
1.1072

> <Gold.PLP.ligand.clash>
0.0000

> <Gold.PLP.ligand.torsion>
0.9684

> <Gold.PLP.Chemscore.Hbond>
2.4072

> <Gold.PLP.Chemscore.CHOScore>
0.2081

> <Gold.PLP.Chemscore.Metal>
0.0000

> <Gold.Chemscore.Hbonds>
donor molecule, donor type, donor heavy atom, donor atom, acceptor molecule, acceptor atom, score
      L1  H     2    32       P1 10186  0.49
      L1  H     7    35       P1 10747  1.00
      P1  H  6896  6908       L1    26  0.85

> <Gold.PLP.Chemscore.Internal.Correction>
0.7972

> <Gold.Rescore>
     Score         DG    S(hbond)    S(metal)    S(lipo)     H(rot)  DE(clash)    DE(int)     intcor
      6.57     -10.89       1.94        0.00      80.24       4.09       0.34       3.98       ----

> <Gold.Chemscore.Fitness>
6.5670

> <Gold.Chemscore.DG>
-10.8906

> <Gold.Chemscore.ZeroCoef>
-5.4800

> <Gold.Chemscore.Hbond>
1.9444

> <Gold.Chemscore.Metal>
0.0000

> <Gold.Chemscore.Lipo>
80.2403

> <Gold.Chemscore.Internal_Hbond>
0.0000

> <Gold.Chemscore.DEClash>
0.3436

> <Gold.Chemscore.DEInternal>
3.9800

> <Gold.Chemscore.Rot>
4.0906

> <Gold.Chemscore.Internal.Correction>
   9.000000E+99

> <Gold.Chemscore.Hbonds>
donor molecule, donor type, donor heavy atom, donor atom, acceptor molecule, acceptor atom, score
      L1  H     2    32       P1 10186  0.24
      L1  H     7    35       P1 10747  0.99
      P1  H  6896  6908       L1    26  0.14

> <Gold.Chemscore.Hbond.Weighted>
-6.4945

> <Gold.Chemscore.Metal.Weighted>
-0.0000

> <Gold.Chemscore.Lipo.Weighted>
-9.3881

> <Gold.Chemscore.Internal_Hbond.Weighted>
0.0000

> <Gold.Chemscore.DEClash.Weighted>
0.3436

> <Gold.Chemscore.DEInternal.Weighted>
3.9800

> <Gold.Chemscore.Rot.Weighted>
10.4719

> <Gold.Chemscore.Internal.Correction.Weighted>
   9.000000E+99

> <Gold.Protein.RotatedTorsions>
[ 6907 6896 6895 6894 ] final   15.44 input  -60.11 | X-H torsion
[ 7974 7965 7964 7962 ] final  -16.42 input  175.53 | X-H torsion
[ 8008 7997 7996 7995 ] final  163.61 input   59.86 | X-H torsion
[ 10167 10162 10161 10158 ] final  -29.03 input  -65.29 | X-H torsion
[ 10718 10713 10712 10709 ] final    3.41 input   66.30 | X-H torsion
[ 10763 10752 10751 10750 ] final   17.31 input  -60.55 | X-H torsion
[ 11005 11000 10999 10996 ] final -175.77 input  -57.11 | X-H torsion

> <Gold.Protein.ActiveResidues>
 VAL166  LYS551  ARG553  GLY616  TRP617  ASP618  TYR619  PRO620  LYS621  CYS622 
 ASP623  PHE694  ASN695  SER759  ASP760  ASP761  ALA762  ILE779  LEU786  VAL792 
 PHE793  MET794  SER795  GLU796  ALA797  LYS798  CYS799  TRP800  GLU811  SER814 

> <Gold.Protein.RotatedAtoms>
  151.8182  135.0660  160.0421 H   0  0  0  0  0  0  0  0  0  0  0  0  # atno 6907 bound_to 6896
  152.2971  133.5613  159.5602 H   0  0  0  0  0  0  0  0  0  0  0  0  # atno 6908 bound_to 6896
  150.7256  134.0262  159.3760 H   0  0  0  0  0  0  0  0  0  0  0  0  # atno 6909 bound_to 6896
  146.1988  140.3633  142.8431 H   0  0  0  0  0  0  0  0  0  0  0  0  # atno 7974 bound_to 7965
  156.1944  140.1719  156.8028 H   0  0  0  0  0  0  0  0  0  0  0  0  # atno 8008 bound_to 7997
  154.5511  140.0717  156.8701 H   0  0  0  0  0  0  0  0  0  0  0  0  # atno 8009 bound_to 7997
  155.3027  140.3362  155.4249 H   0  0  0  0  0  0  0  0  0  0  0  0  # atno 8010 bound_to 7997
  140.7264  143.3961  151.1345 H   0  0  0  0  0  0  0  0  0  0  0  0  # atno 10167 bound_to 10162
  156.8774  130.5641  149.5654 H   0  0  0  0  0  0  0  0  0  0  0  0  # atno 10718 bound_to 10713
  153.1350  135.6748  153.9117 H   0  0  0  0  0  0  0  0  0  0  0  0  # atno 10763 bound_to 10752
  153.8591  135.3083  155.3438 H   0  0  0  0  0  0  0  0  0  0  0  0  # atno 10764 bound_to 10752
  154.7740  135.4924  153.9789 H   0  0  0  0  0  0  0  0  0  0  0  0  # atno 10765 bound_to 10752
  140.4595  134.6268  157.4836 H   0  0  0  0  0  0  0  0  0  0  0  0  # atno 11005 bound_to 11000
  144.8638  140.7178  143.6090 LP  0  0  0  0  0  0  0  0  0  0  0  0  # atno 17320 bound_to 7965
  145.3553  139.1695  143.4413 LP  0  0  0  0  0  0  0  0  0  0  0  0  # atno 17321 bound_to 7965
  139.7574  143.8687  152.3092 LP  0  0  0  0  0  0  0  0  0  0  0  0  # atno 17342 bound_to 10162
  139.8561  144.7140  150.9155 LP  0  0  0  0  0  0  0  0  0  0  0  0  # atno 17343 bound_to 10162
  156.0695  130.5731  150.9354 LP  0  0  0  0  0  0  0  0  0  0  0  0  # atno 17370 bound_to 10713
  157.6160  131.0933  150.8709 LP  0  0  0  0  0  0  0  0  0  0  0  0  # atno 17371 bound_to 10713
  139.9954  134.6919  155.9618 LP  0  0  0  0  0  0  0  0  0  0  0  0  # atno 17394 bound_to 11000
  141.1627  133.6538  156.4375 LP  0  0  0  0  0  0  0  0  0  0  0  0  # atno 17395 bound_to 11000

$$$$
