AV-unprocessed.smi:1999|AV-procd|sdf|8098|dock10
  -GOLD-   2272010323D 1   1.00000     0.00000
 Structure written by MMmdl.
 38 39  0  0  0  0  0  0  0  0  3 V2000
  149.7960  130.8879  157.5985 C   0  0  0  0  0  0  0  0  0  0  0  0
  150.0931  132.2493  157.0698 C   0  0  0  0  0  0  0  0  0  0  0  0
  149.9709  133.3568  157.8058 N   0  0  0  0  0  0  0  0  0  0  0  0
  150.3043  134.4983  157.0919 N   0  0  0  0  0  0  0  0  0  0  0  0
  150.6614  134.2403  155.8256 C   0  0  0  0  0  0  0  0  0  0  0  0
  151.0167  135.2107  154.9676 N   0  5  0  0  0  0  0  0  0  0  0  0
  150.6170  136.4818  155.1887 C   0  0  0  0  0  0  0  0  0  0  0  0
  150.2621  136.9563  156.2698 O   0  0  0  0  0  0  0  0  0  0  0  0
  150.6656  137.2593  154.0962 N   0  0  0  0  0  0  0  0  0  0  0  0
  150.4042  138.6986  154.0340 C   0  0  2  0  0  0  0  0  0  0  0  0
  151.4575  139.4411  154.8670 C   0  0  0  0  0  0  0  0  0  0  0  0
  148.9712  139.0154  154.5199 C   0  0  0  0  0  0  0  0  0  0  0  0
  147.9392  138.2083  153.8212 N   0  3  0  0  0  0  0  0  0  0  0  0
  147.0906  137.4109  154.7355 C   0  0  0  0  0  0  0  0  0  0  0  0
  146.1304  136.5265  153.9216 C   0  0  0  0  0  0  0  0  0  0  0  0
  145.3459  137.3396  153.0560 O   0  0  0  0  0  0  0  0  0  0  0  0
  146.1480  138.0578  152.1253 C   0  0  0  0  0  0  0  0  0  0  0  0
  147.0996  138.9947  152.8868 C   0  0  0  0  0  0  0  0  0  0  0  0
  150.6284  132.5249  155.4208 S   0  0  0  0  0  0  0  0  0  0  0  0
  148.8182  130.5583  157.2473 H   0  0  0  0  0  0  0  0  0  0  0  0
  149.7946  130.8920  158.6890 H   0  0  0  0  0  0  0  0  0  0  0  0
  150.5499  130.1798  157.2541 H   0  0  0  0  0  0  0  0  0  0  0  0
  150.9515  136.8160  153.2349 H   0  0  0  0  0  0  0  0  0  0  0  0
  150.5150  139.0441  153.0054 H   0  0  0  0  0  0  0  0  0  0  0  0
  151.3047  140.5197  154.8205 H   0  0  0  0  0  0  0  0  0  0  0  0
  152.4636  139.2357  154.4997 H   0  0  0  0  0  0  0  0  0  0  0  0
  151.4189  139.1440  155.9156 H   0  0  0  0  0  0  0  0  0  0  0  0
  148.9237  138.8006  155.5887 H   0  0  0  0  0  0  0  0  0  0  0  0
  148.7481  140.0781  154.4140 H   0  0  0  0  0  0  0  0  0  0  0  0
  147.7164  136.7817  155.3697 H   0  0  0  0  0  0  0  0  0  0  0  0
  146.5291  138.0773  155.3922 H   0  0  0  0  0  0  0  0  0  0  0  0
  146.6824  135.7852  153.3410 H   0  0  0  0  0  0  0  0  0  0  0  0
  145.4663  135.9777  154.5897 H   0  0  0  0  0  0  0  0  0  0  0  0
  146.7061  137.3646  151.4934 H   0  0  0  0  0  0  0  0  0  0  0  0
  145.4974  138.6353  151.4685 H   0  0  0  0  0  0  0  0  0  0  0  0
  146.5281  139.7399  153.4421 H   0  0  0  0  0  0  0  0  0  0  0  0
  147.7247  139.5361  152.1772 H   0  0  0  0  0  0  0  0  0  0  0  0
  148.4487  137.5383  153.2608 H   0  0  0  0  0  0  0  0  0  0  0  0
  1  2  1  0  0  0  0
  1 20  1  0  0  0  0
  1 21  1  0  0  0  0
  1 22  1  0  0  0  0
  2 19  1  0  0  0  0
  2  3  2  0  0  0  0
  3  4  1  0  0  0  0
  4  5  2  0  0  0  0
  5  6  1  0  0  0  0
  5 19  1  0  0  0  0
  6  7  1  0  0  0  0
  7  8  2  0  0  0  0
  7  9  1  0  0  0  0
  9 10  1  0  0  0  0
  9 23  1  0  0  0  0
 10 11  1  0  0  0  0
 10 12  1  0  0  0  0
 10 24  1  0  0  0  0
 11 25  1  0  0  0  0
 11 26  1  0  0  0  0
 11 27  1  0  0  0  0
 12 13  1  0  0  0  0
 12 28  1  0  0  0  0
 12 29  1  0  0  0  0
 13 18  1  0  0  0  0
 13 14  1  0  0  0  0
 13 38  1  0  0  0  0
 14 15  1  0  0  0  0
 14 30  1  0  0  0  0
 14 31  1  0  0  0  0
 15 16  1  0  0  0  0
 15 32  1  0  0  0  0
 15 33  1  0  0  0  0
 16 17  1  0  0  0  0
 17 18  1  0  0  0  0
 17 34  1  0  0  0  0
 17 35  1  0  0  0  0
 18 36  1  0  0  0  0
 18 37  1  0  0  0  0
M  CHG  1   6  -1
M  CHG  1  13   1
M  END
> <s_m_source_file>
AV-unprocessed.smi

> <i_m_source_file_index>
1999

> <i_lp_mmshare_version>
43012

> <i_f3d_flags>
0

> <s_epik_input>
W0NIM11jMW5uYyhzMSlbTkhdQyg9TylbTkhdW0NASF0oW0NIM10pW0NIMl1OMltDSDJdW0NIMl1PW0NIMl1bQ0gyXTI=

> <s_epik_cmdline>
J2VwaWtfcHl0aG9uJywgJy1waCcsICc3LjAnLCAnLXRuJywgJzgnLCAnLW1hJywgJzIwMCcsICctbWV0YWxfYmluZGluZycsICctaW1hZScsICc8aW5maWxlLm1hZT4nLCAnLW9tYWUnLCAnPG91dGZpbGUubWFlPic=

> <r_lp_tautomer_probability>
1

> <r_epik_Ionization_Penalty>
3.39984

> <r_epik_Ionization_Penalty_Charging>
3.28696

> <r_epik_Ionization_Penalty_Neutral>
0.11288

> <r_epik_State_Penalty>
3.47917

> <r_epik_Charging_Adjusted_Penalty>
6.76613

> <i_epik_Tot_Q>
0

> <i_epik_Tot_abs_Q>
2

> <r_epik_Metal_State_Penalty>
1.13142

> <b_epik_Metal_Only>
1

> <s_lp_Force_Field>
OPLS_2005

> <r_lp_Energy>
12.288

> <b_lp_Chiralities_Consistent>
1

> <s_lp_Variant>
AV-unprocessed.smi:1999-7

> <Gold.Version>
5.8.1

> <Gold.Id.Protein>
6NUR|6NUR_protein|mol2

> <Gold.PLP.Fitness>
41.3169

> <Gold.PLP.PLP>
-25.0916

> <Gold.PLP.part.hbond>
-6.0000

> <Gold.PLP.part.metal>
0.0000

> <Gold.PLP.part.buried>
0.1889

> <Gold.PLP.part.nonpolar>
-19.8713

> <Gold.PLP.part.repulsive>
0.4307

> <Gold.PLP.ligand.clash>
0.0000

> <Gold.PLP.ligand.torsion>
0.9436

> <Gold.PLP.Chemscore.Hbond>
6.0000

> <Gold.PLP.Chemscore.CHOScore>
0.0000

> <Gold.PLP.Chemscore.Metal>
0.0000

> <Gold.Chemscore.Hbonds>
donor molecule, donor type, donor heavy atom, donor atom, acceptor molecule, acceptor atom, score
      L1  H     9    23       P1  7949  0.95
      L1  H    13    38       P1  7948  2.00
      P1  H  6896  6909       L1     3  1.00
      P1  H 10752 10763       L1     6  1.79

> <Gold.PLP.Chemscore.Internal.Correction>
0.1125

> <Gold.Rescore>
     Score         DG    S(hbond)    S(metal)    S(lipo)     H(rot)  DE(clash)    DE(int)     intcor
     10.64     -16.46       2.59        0.00      55.09       1.60       1.57       4.25       ----

> <Gold.Chemscore.Fitness>
10.6414

> <Gold.Chemscore.DG>
-16.4643

> <Gold.Chemscore.ZeroCoef>
-5.4800

> <Gold.Chemscore.Hbond>
2.5881

> <Gold.Chemscore.Metal>
0.0000

> <Gold.Chemscore.Lipo>
55.0893

> <Gold.Chemscore.Internal_Hbond>
0.0000

> <Gold.Chemscore.DEClash>
1.5681

> <Gold.Chemscore.DEInternal>
4.2548

> <Gold.Chemscore.Rot>
1.6036

> <Gold.Chemscore.Internal.Correction>
   9.000000E+99

> <Gold.Chemscore.Hbonds>
donor molecule, donor type, donor heavy atom, donor atom, acceptor molecule, acceptor atom, score
      L1  H     9    23       P1  7949  0.21
      L1  H    13    38       P1  7948  0.98
      P1  H  6896  6909       L1     3  0.25
      P1  H 10752 10763       L1     6  0.18

> <Gold.Chemscore.Hbond.Weighted>
-8.6441

> <Gold.Chemscore.Metal.Weighted>
-0.0000

> <Gold.Chemscore.Lipo.Weighted>
-6.4455

> <Gold.Chemscore.Internal_Hbond.Weighted>
0.0000

> <Gold.Chemscore.DEClash.Weighted>
1.5681

> <Gold.Chemscore.DEInternal.Weighted>
4.2548

> <Gold.Chemscore.Rot.Weighted>
4.1053

> <Gold.Chemscore.Internal.Correction.Weighted>
   9.000000E+99

> <Gold.Protein.RotatedTorsions>
[ 6907 6896 6895 6894 ] final  -17.78 input  -60.11 | X-H torsion
[ 7974 7965 7964 7962 ] final  -85.44 input  175.53 | X-H torsion
[ 8008 7997 7996 7995 ] final   65.27 input   59.86 | X-H torsion
[ 10167 10162 10161 10158 ] final  -66.75 input  -65.29 | X-H torsion
[ 10718 10713 10712 10709 ] final   96.14 input   66.30 | X-H torsion
[ 10763 10752 10751 10750 ] final   65.02 input  -60.55 | X-H torsion
[ 11005 11000 10999 10996 ] final   21.43 input  -57.11 | X-H torsion

> <Gold.Protein.ActiveResidues>
 VAL166  LYS551  ARG553  GLY616  TRP617  ASP618  TYR619  PRO620  LYS621  CYS622 
 ASP623  PHE694  ASN695  SER759  ASP760  ASP761  ALA762  ILE779  LEU786  VAL792 
 PHE793  MET794  SER795  GLU796  ALA797  LYS798  CYS799  TRP800  GLU811  SER814 

> <Gold.Protein.RotatedAtoms>
  151.2881  135.0734  159.9193 H   0  0  0  0  0  0  0  0  0  0  0  0  # atno 6907 bound_to 6896
  152.5321  133.9960  159.7883 H   0  0  0  0  0  0  0  0  0  0  0  0  # atno 6908 bound_to 6896
  151.0226  133.5812  159.2700 H   0  0  0  0  0  0  0  0  0  0  0  0  # atno 6909 bound_to 6896
  145.4932  140.9551  143.1800 H   0  0  0  0  0  0  0  0  0  0  0  0  # atno 7974 bound_to 7965
  155.6592  140.3497  155.4776 H   0  0  0  0  0  0  0  0  0  0  0  0  # atno 8008 bound_to 7997
  155.9783  140.1169  157.0773 H   0  0  0  0  0  0  0  0  0  0  0  0  # atno 8009 bound_to 7997
  154.4184  140.1143  156.5387 H   0  0  0  0  0  0  0  0  0  0  0  0  # atno 8010 bound_to 7997
  140.5634  143.2313  151.6683 H   0  0  0  0  0  0  0  0  0  0  0  0  # atno 10167 bound_to 10162
  157.6930  131.0568  150.4446 H   0  0  0  0  0  0  0  0  0  0  0  0  # atno 10718 bound_to 10713
  153.0079  135.5372  154.6601 H   0  0  0  0  0  0  0  0  0  0  0  0  # atno 10763 bound_to 10752
  154.5812  135.2850  155.0733 H   0  0  0  0  0  0  0  0  0  0  0  0  # atno 10764 bound_to 10752
  154.1861  135.6508  153.5100 H   0  0  0  0  0  0  0  0  0  0  0  0  # atno 10765 bound_to 10752
  140.3917  134.1812  155.7662 H   0  0  0  0  0  0  0  0  0  0  0  0  # atno 11005 bound_to 11000
  144.7822  139.6502  143.7149 LP  0  0  0  0  0  0  0  0  0  0  0  0  # atno 17320 bound_to 7965
  146.2271  139.5744  142.9579 LP  0  0  0  0  0  0  0  0  0  0  0  0  # atno 17321 bound_to 7965
  139.5081  144.3623  152.0550 LP  0  0  0  0  0  0  0  0  0  0  0  0  # atno 17342 bound_to 10162
  140.2752  144.3920  150.6137 LP  0  0  0  0  0  0  0  0  0  0  0  0  # atno 17343 bound_to 10162
  156.4802  130.4072  149.6466 LP  0  0  0  0  0  0  0  0  0  0  0  0  # atno 17370 bound_to 10713
  156.3514  130.7434  151.2394 LP  0  0  0  0  0  0  0  0  0  0  0  0  # atno 17371 bound_to 10713
  141.1888  133.8251  157.0979 LP  0  0  0  0  0  0  0  0  0  0  0  0  # atno 17394 bound_to 11000
  140.0402  134.9858  157.0947 LP  0  0  0  0  0  0  0  0  0  0  0  0  # atno 17395 bound_to 11000

$$$$
