AV-unprocessed.smi:1762|AV-procd|sdf|7100|dock3
  -GOLD-   22720 8323D 1   1.00000     0.00000
 Structure written by MMmdl.
 52 53  0  0  0  0  0  0  0  0  1 V2000
  148.8491  141.6678  154.4203 C   0  0  0  0  0  0  0  0  0  0  0  0
  149.2587  140.2267  154.0958 C   0  0  2  0  0  0  0  0  0  0  0  0
  148.2479  139.1945  154.6327 C   0  0  0  0  0  0  0  0  0  0  0  0
  148.6684  137.8085  154.3939 N   0  0  0  0  0  0  0  0  0  0  0  0
  147.6814  136.8070  154.8875 C   0  0  2  0  0  0  0  0  0  0  0  0
  146.3890  136.7621  154.0379 C   0  0  0  0  0  0  0  0  0  0  0  0
  145.2849  136.8284  154.5792 O   0  0  0  0  0  0  0  0  0  0  0  0
  146.5450  136.6864  152.7066 N   0  0  0  0  0  0  0  0  0  0  0  0
  145.4555  136.6911  151.7379 C   0  0  0  0  0  0  0  0  0  0  0  0
  144.4013  135.6233  152.0759 C   0  0  0  0  0  0  0  0  0  0  0  0
  144.7470  134.2672  151.4913 C   0  0  0  0  0  0  0  0  0  0  0  0
  143.7891  133.2314  151.4610 C   0  0  0  0  0  0  0  0  0  0  0  0
  144.1606  131.9893  150.9115 C   0  0  0  0  0  0  0  0  0  0  0  0
  145.4698  131.8309  150.4178 C   0  0  0  0  0  0  0  0  0  0  0  0
  146.3526  132.9264  150.4960 C   0  0  0  0  0  0  0  0  0  0  0  0
  146.0063  134.1219  151.0204 N   0  0  0  0  0  0  0  0  0  0  0  0
  147.3418  136.9045  156.4130 C   0  0  0  0  0  0  0  0  0  0  0  0
  146.7523  135.6030  156.9933 C   0  0  0  0  0  0  0  0  0  0  0  0
  146.4512  138.1077  156.7812 C   0  0  0  0  0  0  0  0  0  0  0  0
  150.0280  137.6343  154.9355 C   0  0  0  0  0  0  0  0  0  0  0  0
  151.0247  138.6804  154.4008 C   0  0  2  0  0  0  0  0  0  0  0  0
  152.4099  138.5434  155.0426 C   0  0  0  0  0  0  0  0  0  0  0  0
  150.5312  139.9840  154.6816 O   0  0  0  0  0  0  0  0  0  0  0  0
  147.8823  141.9103  153.9786 H   0  0  0  0  0  0  0  0  0  0  0  0
  149.5794  142.3769  154.0300 H   0  0  0  0  0  0  0  0  0  0  0  0
  148.7749  141.8244  155.4968 H   0  0  0  0  0  0  0  0  0  0  0  0
  149.3423  140.1252  153.0121 H   0  0  0  0  0  0  0  0  0  0  0  0
  148.0914  139.3561  155.7005 H   0  0  0  0  0  0  0  0  0  0  0  0
  147.2993  139.3995  154.1406 H   0  0  0  0  0  0  0  0  0  0  0  0
  148.1472  135.8276  154.7577 H   0  0  0  0  0  0  0  0  0  0  0  0
  147.4846  136.6411  152.3395 H   0  0  0  0  0  0  0  0  0  0  0  0
  144.9997  137.6817  151.7441 H   0  0  0  0  0  0  0  0  0  0  0  0
  145.8486  136.5359  150.7317 H   0  0  0  0  0  0  0  0  0  0  0  0
  144.2957  135.5252  153.1574 H   0  0  0  0  0  0  0  0  0  0  0  0
  143.4239  135.9319  151.7017 H   0  0  0  0  0  0  0  0  0  0  0  0
  142.7929  133.3832  151.8505 H   0  0  0  0  0  0  0  0  0  0  0  0
  143.4545  131.1730  150.8701 H   0  0  0  0  0  0  0  0  0  0  0  0
  145.7901  130.8925  149.9901 H   0  0  0  0  0  0  0  0  0  0  0  0
  147.3639  132.8399  150.1275 H   0  0  0  0  0  0  0  0  0  0  0  0
  148.2786  137.0287  156.9535 H   0  0  0  0  0  0  0  0  0  0  0  0
  145.7490  135.4021  156.6165 H   0  0  0  0  0  0  0  0  0  0  0  0
  146.6826  135.6596  158.0799 H   0  0  0  0  0  0  0  0  0  0  0  0
  147.3798  134.7448  156.7518 H   0  0  0  0  0  0  0  0  0  0  0  0
  145.4473  138.0142  156.3681 H   0  0  0  0  0  0  0  0  0  0  0  0
  146.8744  139.0453  156.4207 H   0  0  0  0  0  0  0  0  0  0  0  0
  146.3481  138.1955  157.8630 H   0  0  0  0  0  0  0  0  0  0  0  0
  149.9974  137.6840  156.0255 H   0  0  0  0  0  0  0  0  0  0  0  0
  150.4358  136.6569  154.6798 H   0  0  0  0  0  0  0  0  0  0  0  0
  151.1286  138.5653  153.3203 H   0  0  0  0  0  0  0  0  0  0  0  0
  152.8382  137.5603  154.8461 H   0  0  0  0  0  0  0  0  0  0  0  0
  152.3588  138.6765  156.1236 H   0  0  0  0  0  0  0  0  0  0  0  0
  153.0983  139.2906  154.6472 H   0  0  0  0  0  0  0  0  0  0  0  0
  1  2  1  0  0  0  0
  1 24  1  0  0  0  0
  1 25  1  0  0  0  0
  1 26  1  0  0  0  0
  2 23  1  0  0  0  0
  2  3  1  0  0  0  0
  2 27  1  0  0  0  0
  3  4  1  0  0  0  0
  3 28  1  0  0  0  0
  3 29  1  0  0  0  0
  4  5  1  0  0  0  0
  4 20  1  0  0  0  0
  5  6  1  0  0  0  0
  5 17  1  0  0  0  0
  5 30  1  0  0  0  0
  6  7  2  0  0  0  0
  6  8  1  0  0  0  0
  8  9  1  0  0  0  0
  8 31  1  0  0  0  0
  9 10  1  0  0  0  0
  9 32  1  0  0  0  0
  9 33  1  0  0  0  0
 10 11  1  0  0  0  0
 10 34  1  0  0  0  0
 10 35  1  0  0  0  0
 11 16  1  0  0  0  0
 11 12  2  0  0  0  0
 12 13  1  0  0  0  0
 12 36  1  0  0  0  0
 13 14  2  0  0  0  0
 13 37  1  0  0  0  0
 14 15  1  0  0  0  0
 14 38  1  0  0  0  0
 15 16  2  0  0  0  0
 15 39  1  0  0  0  0
 17 18  1  0  0  0  0
 17 19  1  0  0  0  0
 17 40  1  0  0  0  0
 18 41  1  0  0  0  0
 18 42  1  0  0  0  0
 18 43  1  0  0  0  0
 19 44  1  0  0  0  0
 19 45  1  0  0  0  0
 19 46  1  0  0  0  0
 20 21  1  0  0  0  0
 20 47  1  0  0  0  0
 20 48  1  0  0  0  0
 21 22  1  0  0  0  0
 21 23  1  0  0  0  0
 21 49  1  0  0  0  0
 22 50  1  0  0  0  0
 22 51  1  0  0  0  0
 22 52  1  0  0  0  0
M  END
> <s_m_source_file>
AV-unprocessed.smi

> <i_m_source_file_index>
1762

> <i_lp_mmshare_version>
43012

> <i_f3d_flags>
0

> <s_epik_input>
W0NIM11bQ0BASF0xW0NIMl1OKFtDSDJdW0NASF0oTzEpW0NIM10pW0NAQEhdKFtDSF0oW0NIM10pW0NIM10pQyg9TylbTkhdW0NIMl1bQ0gyXWMyW2NIXVtjSF1bY0hdW2NIXW4y

> <s_epik_cmdline>
J2VwaWtfcHl0aG9uJywgJy1waCcsICc3LjAnLCAnLXRuJywgJzgnLCAnLW1hJywgJzIwMCcsICctbWV0YWxfYmluZGluZycsICctaW1hZScsICc8aW5maWxlLm1hZT4nLCAnLW9tYWUnLCAnPG91dGZpbGUubWFlPic=

> <r_epik_Ionization_Penalty>
0.0399736

> <r_epik_Ionization_Penalty_Charging>
0

> <r_epik_Ionization_Penalty_Neutral>
0.0399736

> <r_epik_State_Penalty>
0.0317634

> <r_epik_Charging_Adjusted_Penalty>
0.0317634

> <i_epik_Tot_Q>
0

> <i_epik_Tot_abs_Q>
0

> <r_epik_Metal_State_Penalty>
0.0307795

> <b_epik_Metal_Only>
0

> <s_lp_Force_Field>
OPLS_2005

> <r_lp_Energy>
25.9705

> <b_lp_Chiralities_Consistent>
1

> <s_lp_Variant>
AV-unprocessed.smi:1762-2

> <Gold.Version>
5.8.1

> <Gold.Id.Protein>
6NUR|6NUR_protein|mol2

> <Gold.PLP.Fitness>
41.0595

> <Gold.PLP.PLP>
-33.5061

> <Gold.PLP.part.hbond>
-2.0000

> <Gold.PLP.part.metal>
0.0000

> <Gold.PLP.part.buried>
-2.8967

> <Gold.PLP.part.nonpolar>
-29.8735

> <Gold.PLP.part.repulsive>
1.3877

> <Gold.PLP.ligand.clash>
0.0000

> <Gold.PLP.ligand.torsion>
0.7085

> <Gold.PLP.Chemscore.Hbond>
1.8500

> <Gold.PLP.Chemscore.CHOScore>
1.0000

> <Gold.PLP.Chemscore.Metal>
0.0000

> <Gold.Chemscore.Hbonds>
donor molecule, donor type, donor heavy atom, donor atom, acceptor molecule, acceptor atom, score
      L1  H     8    31       P1  7948  1.00
      P1  H  7989  7998       L1    23  0.80
      L1  C    15    39       P1 10747  0.97

> <Gold.PLP.Chemscore.Internal.Correction>
0.4204

> <Gold.Rescore>
     Score         DG    S(hbond)    S(metal)    S(lipo)     H(rot)  DE(clash)    DE(int)     intcor
     11.39     -15.19       1.00        0.00      89.52       1.60       0.34       3.46       ----

> <Gold.Chemscore.Fitness>
11.3867

> <Gold.Chemscore.DG>
-15.1864

> <Gold.Chemscore.ZeroCoef>
-5.4800

> <Gold.Chemscore.Hbond>
0.9961

> <Gold.Chemscore.Metal>
0.0000

> <Gold.Chemscore.Lipo>
89.5178

> <Gold.Chemscore.Internal_Hbond>
0.0000

> <Gold.Chemscore.DEClash>
0.3420

> <Gold.Chemscore.DEInternal>
3.4578

> <Gold.Chemscore.Rot>
1.5993

> <Gold.Chemscore.Internal.Correction>
   9.000000E+99

> <Gold.Chemscore.Hbonds>
donor molecule, donor type, donor heavy atom, donor atom, acceptor molecule, acceptor atom, score
      L1  H     8    31       P1  7948  0.98
      P1  H  7989  7998       L1    23  0.03

> <Gold.Chemscore.Hbond.Weighted>
-3.3269

> <Gold.Chemscore.Metal.Weighted>
-0.0000

> <Gold.Chemscore.Lipo.Weighted>
-10.4736

> <Gold.Chemscore.Internal_Hbond.Weighted>
0.0000

> <Gold.Chemscore.DEClash.Weighted>
0.3420

> <Gold.Chemscore.DEInternal.Weighted>
3.4578

> <Gold.Chemscore.Rot.Weighted>
4.0941

> <Gold.Chemscore.Internal.Correction.Weighted>
   9.000000E+99

> <Gold.Protein.RotatedTorsions>
[ 6907 6896 6895 6894 ] final    2.83 input  -60.11 | X-H torsion
[ 7974 7965 7964 7962 ] final   69.30 input  175.53 | X-H torsion
[ 8008 7997 7996 7995 ] final  -32.84 input   59.86 | X-H torsion
[ 10167 10162 10161 10158 ] final  -46.60 input  -65.29 | X-H torsion
[ 10718 10713 10712 10709 ] final  -33.48 input   66.30 | X-H torsion
[ 10763 10752 10751 10750 ] final   47.59 input  -60.55 | X-H torsion
[ 11005 11000 10999 10996 ] final   68.03 input  -57.11 | X-H torsion

> <Gold.Protein.ActiveResidues>
 VAL166  LYS551  ARG553  GLY616  TRP617  ASP618  TYR619  PRO620  LYS621  CYS622 
 ASP623  PHE694  ASN695  SER759  ASP760  ASP761  ALA762  ILE779  LEU786  VAL792 
 PHE793  MET794  SER795  GLU796  ALA797  LYS798  CYS799  TRP800  GLU811  SER814 

> <Gold.Protein.RotatedAtoms>
  151.6152  135.1037  160.0089 H   0  0  0  0  0  0  0  0  0  0  0  0  # atno 6907 bound_to 6896
  152.4187  133.7076  159.6471 H   0  0  0  0  0  0  0  0  0  0  0  0  # atno 6908 bound_to 6896
  150.8075  133.8410  159.3220 H   0  0  0  0  0  0  0  0  0  0  0  0  # atno 6909 bound_to 6896
  145.7921  139.2939  143.1204 H   0  0  0  0  0  0  0  0  0  0  0  0  # atno 7974 bound_to 7965
  154.4167  140.1726  156.1792 H   0  0  0  0  0  0  0  0  0  0  0  0  # atno 8008 bound_to 7997
  155.9696  140.3387  155.6540 H   0  0  0  0  0  0  0  0  0  0  0  0  # atno 8009 bound_to 7997
  155.6642  140.0704  157.2534 H   0  0  0  0  0  0  0  0  0  0  0  0  # atno 8010 bound_to 7997
  140.6810  143.2823  151.3807 H   0  0  0  0  0  0  0  0  0  0  0  0  # atno 10167 bound_to 10162
  156.3621  130.4325  149.7615 H   0  0  0  0  0  0  0  0  0  0  0  0  # atno 10718 bound_to 10713
  152.9798  135.5971  154.3787 H   0  0  0  0  0  0  0  0  0  0  0  0  # atno 10763 bound_to 10752
  154.3454  135.2767  155.2402 H   0  0  0  0  0  0  0  0  0  0  0  0  # atno 10764 bound_to 10752
  154.4465  135.6000  153.6218 H   0  0  0  0  0  0  0  0  0  0  0  0  # atno 10765 bound_to 10752
  139.9735  134.6861  156.0399 H   0  0  0  0  0  0  0  0  0  0  0  0  # atno 11005 bound_to 11000
  145.9966  140.8557  143.0040 LP  0  0  0  0  0  0  0  0  0  0  0  0  # atno 17320 bound_to 7965
  144.6780  140.2291  143.7357 LP  0  0  0  0  0  0  0  0  0  0  0  0  # atno 17321 bound_to 7965
  139.6133  144.1053  152.2321 LP  0  0  0  0  0  0  0  0  0  0  0  0  # atno 17342 bound_to 10162
  140.0474  144.5959  150.7362 LP  0  0  0  0  0  0  0  0  0  0  0  0  # atno 17343 bound_to 10162
  156.4775  130.8025  151.3041 LP  0  0  0  0  0  0  0  0  0  0  0  0  # atno 17370 bound_to 10713
  157.7474  131.0016  150.2970 LP  0  0  0  0  0  0  0  0  0  0  0  0  # atno 17371 bound_to 10713
  141.1414  133.6564  156.3740 LP  0  0  0  0  0  0  0  0  0  0  0  0  # atno 17394 bound_to 11000
  140.5243  134.6274  157.5329 LP  0  0  0  0  0  0  0  0  0  0  0  0  # atno 17395 bound_to 11000

$$$$
