AV-unprocessed.smi:810|AV-procd|sdf|3810|dock8
  -GOLD-   22720 1253D 1   1.00000     0.00000
 Structure written by MMmdl.
 34 35  0  0  0  0  0  0  0  0  1 V2000
  151.1277  141.0187  156.5994 O   0  0  0  0  0  0  0  0  0  0  0  0
  150.4095  142.0096  156.4712 C   0  0  0  0  0  0  0  0  0  0  0  0
  150.4389  143.0978  157.2593 N   0  0  0  0  0  0  0  0  0  0  0  0
  151.2339  143.3312  158.4137 C   0  0  0  0  0  0  0  0  0  0  0  0
  151.1388  144.5918  159.0384 C   0  0  0  0  0  0  0  0  0  0  0  0
  151.9002  144.8436  160.1954 C   0  0  0  0  0  0  0  0  0  0  0  0
  152.7246  143.8153  160.6912 C   0  0  0  0  0  0  0  0  0  0  0  0
  152.8159  142.5980  160.1156 N   0  0  0  0  0  0  0  0  0  0  0  0
  152.0846  142.3637  159.0046 C   0  0  0  0  0  0  0  0  0  0  0  0
  149.4992  142.1444  155.4964 N   0  0  0  0  0  0  0  0  0  0  0  0
  149.2073  141.1518  154.4649 C   0  0  1  0  0  0  0  0  0  0  0  0
  149.2163  139.7419  155.0874 C   0  0  0  0  0  0  0  0  0  0  0  0
  148.8446  138.6252  154.0972 C   0  0  0  0  0  0  0  0  0  0  0  0
  149.8783  138.4616  153.1508 O   0  0  0  0  0  0  0  0  0  0  0  0
  147.8957  141.4153  153.7445 C   0  0  0  0  0  0  0  0  0  0  0  0
  147.0052  142.5668  154.1474 C   0  0  0  0  0  0  0  0  0  0  0  0
  146.5667  141.1443  154.4092 C   0  0  0  0  0  0  0  0  0  0  0  0
  149.8538  143.8695  156.9742 H   0  0  0  0  0  0  0  0  0  0  0  0
  150.4943  145.3599  158.6361 H   0  0  0  0  0  0  0  0  0  0  0  0
  151.8529  145.8015  160.6919 H   0  0  0  0  0  0  0  0  0  0  0  0
  153.3219  143.9729  161.5770 H   0  0  0  0  0  0  0  0  0  0  0  0
  152.1796  141.3656  158.6066 H   0  0  0  0  0  0  0  0  0  0  0  0
  148.9620  142.9986  155.4658 H   0  0  0  0  0  0  0  0  0  0  0  0
  150.0045  141.1783  153.7190 H   0  0  0  0  0  0  0  0  0  0  0  0
  150.1980  139.5382  155.5178 H   0  0  0  0  0  0  0  0  0  0  0  0
  148.5110  139.7178  155.9196 H   0  0  0  0  0  0  0  0  0  0  0  0
  148.6932  137.6814  154.6217 H   0  0  0  0  0  0  0  0  0  0  0  0
  147.9200  138.8570  153.5681 H   0  0  0  0  0  0  0  0  0  0  0  0
  149.8876  139.2152  152.5806 H   0  0  0  0  0  0  0  0  0  0  0  0
  147.9402  141.2138  152.6757 H   0  0  0  0  0  0  0  0  0  0  0  0
  147.3056  143.1646  155.0056 H   0  0  0  0  0  0  0  0  0  0  0  0
  146.4997  143.1120  153.3529 H   0  0  0  0  0  0  0  0  0  0  0  0
  145.7689  140.7403  153.7896 H   0  0  0  0  0  0  0  0  0  0  0  0
  146.5747  140.7999  155.4413 H   0  0  0  0  0  0  0  0  0  0  0  0
  1  2  2  0  0  0  0
  2  3  1  0  0  0  0
  2 10  1  0  0  0  0
  3  4  1  0  0  0  0
  3 18  1  0  0  0  0
  4  9  1  0  0  0  0
  4  5  2  0  0  0  0
  5  6  1  0  0  0  0
  5 19  1  0  0  0  0
  6  7  2  0  0  0  0
  6 20  1  0  0  0  0
  7  8  1  0  0  0  0
  7 21  1  0  0  0  0
  8  9  2  0  0  0  0
  9 22  1  0  0  0  0
 10 11  1  0  0  0  0
 10 23  1  0  0  0  0
 11 12  1  0  0  0  0
 11 15  1  0  0  0  0
 11 24  1  0  0  0  0
 12 13  1  0  0  0  0
 12 25  1  0  0  0  0
 12 26  1  0  0  0  0
 13 14  1  0  0  0  0
 13 27  1  0  0  0  0
 13 28  1  0  0  0  0
 14 29  1  0  0  0  0
 15 17  1  0  0  0  0
 15 16  1  0  0  0  0
 15 30  1  0  0  0  0
 16 17  1  0  0  0  0
 16 31  1  0  0  0  0
 16 32  1  0  0  0  0
 17 33  1  0  0  0  0
 17 34  1  0  0  0  0
M  END
> <s_m_source_file>
AV-unprocessed.smi

> <i_m_source_file_index>
810

> <i_lp_mmshare_version>
43012

> <i_f3d_flags>
0

> <s_epik_input>
W09IXVtDSDJdW0NIMl1bQ0BIXShbQ0hdMVtDSDJdW0NIMl0xKVtOSF1DKD1PKVtOSF1jMltjSF1bY0hdW2NIXW5bY0hdMg==

> <s_epik_cmdline>
J2VwaWtfcHl0aG9uJywgJy1waCcsICc3LjAnLCAnLXRuJywgJzgnLCAnLW1hJywgJzIwMCcsICctbWV0YWxfYmluZGluZycsICctaW1hZScsICc8aW5maWxlLm1hZT4nLCAnLW9tYWUnLCAnPG91dGZpbGUubWFlPic=

> <r_epik_Ionization_Penalty>
0.00486911

> <r_epik_Ionization_Penalty_Charging>
0

> <r_epik_Ionization_Penalty_Neutral>
0.00486911

> <r_epik_State_Penalty>
0.00350304

> <r_epik_Charging_Adjusted_Penalty>
0.00350304

> <i_epik_Tot_Q>
0

> <i_epik_Tot_abs_Q>
0

> <r_epik_Metal_State_Penalty>
-0

> <b_epik_Metal_Only>
0

> <s_lp_Force_Field>
OPLS_2005

> <r_lp_Energy>
17.3052

> <b_lp_Chiralities_Consistent>
1

> <s_lp_Variant>
AV-unprocessed.smi:810-2

> <Gold.Version>
5.8.1

> <Gold.Id.Protein>
6NUR|6NUR_protein|mol2

> <Gold.PLP.Fitness>
45.3830

> <Gold.PLP.PLP>
-37.5194

> <Gold.PLP.part.hbond>
-4.2713

> <Gold.PLP.part.metal>
0.0000

> <Gold.PLP.part.buried>
-4.9798

> <Gold.PLP.part.nonpolar>
-27.7331

> <Gold.PLP.part.repulsive>
0.2005

> <Gold.PLP.ligand.clash>
0.0000

> <Gold.PLP.ligand.torsion>
1.1123

> <Gold.PLP.Chemscore.Hbond>
3.0000

> <Gold.PLP.Chemscore.CHOScore>
0.0000

> <Gold.PLP.Chemscore.Metal>
0.0000

> <Gold.Chemscore.Hbonds>
donor molecule, donor type, donor heavy atom, donor atom, acceptor molecule, acceptor atom, score
      L1  H     3    18       P1  8028  1.00
      L1  H    10    23       P1  8028  1.00
      L1  H    14    29       P1  7957  1.00

> <Gold.PLP.Chemscore.Internal.Correction>
1.0883

> <Gold.Rescore>
     Score         DG    S(hbond)    S(metal)    S(lipo)     H(rot)  DE(clash)    DE(int)     intcor
     16.42     -20.33       2.89        0.00      94.93       2.31       0.21       3.71       ----

> <Gold.Chemscore.Fitness>
16.4179

> <Gold.Chemscore.DG>
-20.3342

> <Gold.Chemscore.ZeroCoef>
-5.4800

> <Gold.Chemscore.Hbond>
2.8922

> <Gold.Chemscore.Metal>
0.0000

> <Gold.Chemscore.Lipo>
94.9320

> <Gold.Chemscore.Internal_Hbond>
0.0000

> <Gold.Chemscore.DEClash>
0.2061

> <Gold.Chemscore.DEInternal>
3.7102

> <Gold.Chemscore.Rot>
2.3097

> <Gold.Chemscore.Internal.Correction>
   9.000000E+99

> <Gold.Chemscore.Hbonds>
donor molecule, donor type, donor heavy atom, donor atom, acceptor molecule, acceptor atom, score
      L1  H     3    18       P1  8028  0.90
      L1  H    10    23       P1  8028  0.94
      L1  H    14    29       P1  7957  0.86

> <Gold.Chemscore.Hbond.Weighted>
-9.6599

> <Gold.Chemscore.Metal.Weighted>
-0.0000

> <Gold.Chemscore.Lipo.Weighted>
-11.1070

> <Gold.Chemscore.Internal_Hbond.Weighted>
0.0000

> <Gold.Chemscore.DEClash.Weighted>
0.2061

> <Gold.Chemscore.DEInternal.Weighted>
3.7102

> <Gold.Chemscore.Rot.Weighted>
5.9127

> <Gold.Chemscore.Internal.Correction.Weighted>
   9.000000E+99

> <Gold.Protein.RotatedTorsions>
[ 6907 6896 6895 6894 ] final -151.44 input  -60.11 | X-H torsion
[ 7974 7965 7964 7962 ] final  117.97 input  175.53 | X-H torsion
[ 8008 7997 7996 7995 ] final   14.06 input   59.86 | X-H torsion
[ 10167 10162 10161 10158 ] final   23.26 input  -65.29 | X-H torsion
[ 10718 10713 10712 10709 ] final   65.55 input   66.30 | X-H torsion
[ 10763 10752 10751 10750 ] final  -74.12 input  -60.55 | X-H torsion
[ 11005 11000 10999 10996 ] final -151.00 input  -57.11 | X-H torsion

> <Gold.Protein.ActiveResidues>
 VAL166  LYS551  ARG553  GLY616  TRP617  ASP618  TYR619  PRO620  LYS621  CYS622 
 ASP623  PHE694  ASN695  SER759  ASP760  ASP761  ALA762  ILE779  LEU786  VAL792 
 PHE793  MET794  SER795  GLU796  ALA797  LYS798  CYS799  TRP800  GLU811  SER814 

> <Gold.Protein.RotatedAtoms>
  151.2131  133.4544  159.2598 H   0  0  0  0  0  0  0  0  0  0  0  0  # atno 6907 bound_to 6896
  151.0957  134.9942  159.8434 H   0  0  0  0  0  0  0  0  0  0  0  0  # atno 6908 bound_to 6896
  152.5439  134.2062  159.8784 H   0  0  0  0  0  0  0  0  0  0  0  0  # atno 6909 bound_to 6896
  145.1608  139.3156  143.4518 H   0  0  0  0  0  0  0  0  0  0  0  0  # atno 7974 bound_to 7965
  154.8432  140.2918  155.5646 H   0  0  0  0  0  0  0  0  0  0  0  0  # atno 8008 bound_to 7997
  156.3013  140.2510  156.3309 H   0  0  0  0  0  0  0  0  0  0  0  0  # atno 8009 bound_to 7997
  154.9103  140.0389  157.1931 H   0  0  0  0  0  0  0  0  0  0  0  0  # atno 8010 bound_to 7997
  140.5283  143.9886  150.6452 H   0  0  0  0  0  0  0  0  0  0  0  0  # atno 10167 bound_to 10162
  157.6112  130.9220  149.9991 H   0  0  0  0  0  0  0  0  0  0  0  0  # atno 10718 bound_to 10713
  154.4688  135.5875  153.6307 H   0  0  0  0  0  0  0  0  0  0  0  0  # atno 10763 bound_to 10752
  152.9832  135.6062  154.3393 H   0  0  0  0  0  0  0  0  0  0  0  0  # atno 10764 bound_to 10752
  154.3273  135.2843  155.2469 H   0  0  0  0  0  0  0  0  0  0  0  0  # atno 10765 bound_to 10752
  140.7342  134.3586  157.5160 H   0  0  0  0  0  0  0  0  0  0  0  0  # atno 11005 bound_to 11000
  146.3482  140.1718  142.8589 LP  0  0  0  0  0  0  0  0  0  0  0  0  # atno 17320 bound_to 7965
  145.0333  140.8888  143.5096 LP  0  0  0  0  0  0  0  0  0  0  0  0  # atno 17321 bound_to 7965
  140.3253  143.3111  152.0742 LP  0  0  0  0  0  0  0  0  0  0  0  0  # atno 17342 bound_to 10162
  139.4945  144.6546  151.6601 LP  0  0  0  0  0  0  0  0  0  0  0  0  # atno 17343 bound_to 10162
  156.1216  130.3646  149.9877 LP  0  0  0  0  0  0  0  0  0  0  0  0  # atno 17370 bound_to 10713
  156.7956  130.9272  151.3646 LP  0  0  0  0  0  0  0  0  0  0  0  0  # atno 17371 bound_to 10713
  139.8819  134.9039  156.2864 LP  0  0  0  0  0  0  0  0  0  0  0  0  # atno 17394 bound_to 11000
  140.9894  133.7218  156.0790 LP  0  0  0  0  0  0  0  0  0  0  0  0  # atno 17395 bound_to 11000

$$$$
