AV-unprocessed.smi:945|AV-procd|sdf|4233|dock8
  -GOLD-   22720 2143D 1   1.00000     0.00000
 Structure written by MMmdl.
 31 32  0  0  0  0  0  0  0  0  1 V2000
  153.7515  141.2667  160.5836 C   0  0  0  0  0  0  0  0  0  0  0  0
  153.2121  142.6854  160.7955 C   0  0  0  0  0  0  0  0  0  0  0  0
  152.4437  143.1866  159.6188 C   0  0  0  0  0  0  0  0  0  0  0  0
  152.0816  142.4120  158.5926 N   0  0  0  0  0  0  0  0  0  0  0  0
  151.4027  143.1203  157.5962 C   0  0  0  0  0  0  0  0  0  0  0  0
  150.9260  142.4092  156.3663 C   0  0  0  0  0  0  0  0  0  0  0  0
  149.9041  141.3087  156.6961 C   0  0  0  0  0  0  0  0  0  0  0  0
  148.6989  141.4270  155.8833 N   0  0  0  0  0  0  0  0  0  0  0  0
  148.6539  141.3114  154.5474 C   0  0  0  0  0  0  0  0  0  0  0  0
  149.6531  141.1015  153.8579 O   0  0  0  0  0  0  0  0  0  0  0  0
  147.2827  141.4576  153.9728 C   0  0  0  0  0  0  0  0  0  0  0  0
  146.5693  142.7765  154.1901 C   0  0  0  0  0  0  0  0  0  0  0  0
  146.1189  141.5477  154.9389 C   0  0  0  0  0  0  0  0  0  0  0  0
  151.2634  144.4558  157.8811 C   0  0  0  0  0  0  0  0  0  0  0  0
  151.9858  144.8731  159.4104 S   0  0  0  0  0  0  0  0  0  0  0  0
  154.3068  140.9275  161.4581 H   0  0  0  0  0  0  0  0  0  0  0  0
  154.4222  141.2246  159.7248 H   0  0  0  0  0  0  0  0  0  0  0  0
  152.9396  140.5598  160.4098 H   0  0  0  0  0  0  0  0  0  0  0  0
  152.5677  142.7116  161.6749 H   0  0  0  0  0  0  0  0  0  0  0  0
  154.0369  143.3709  160.9918 H   0  0  0  0  0  0  0  0  0  0  0  0
  150.4801  143.1248  155.6741 H   0  0  0  0  0  0  0  0  0  0  0  0
  151.7767  141.9755  155.8396 H   0  0  0  0  0  0  0  0  0  0  0  0
  150.3500  140.3214  156.5628 H   0  0  0  0  0  0  0  0  0  0  0  0
  149.6100  141.3766  157.7439 H   0  0  0  0  0  0  0  0  0  0  0  0
  147.8334  141.5999  156.3742 H   0  0  0  0  0  0  0  0  0  0  0  0
  147.0950  140.9515  153.0271 H   0  0  0  0  0  0  0  0  0  0  0  0
  147.0742  143.5533  154.7620 H   0  0  0  0  0  0  0  0  0  0  0  0
  145.9420  143.1385  153.3781 H   0  0  0  0  0  0  0  0  0  0  0  0
  145.1872  141.0763  154.6334 H   0  0  0  0  0  0  0  0  0  0  0  0
  146.3241  141.5102  156.0073 H   0  0  0  0  0  0  0  0  0  0  0  0
  150.7877  145.2181  157.2818 H   0  0  0  0  0  0  0  0  0  0  0  0
  1  2  1  0  0  0  0
  1 16  1  0  0  0  0
  1 17  1  0  0  0  0
  1 18  1  0  0  0  0
  2  3  1  0  0  0  0
  2 19  1  0  0  0  0
  2 20  1  0  0  0  0
  3 15  1  0  0  0  0
  3  4  2  0  0  0  0
  4  5  1  0  0  0  0
  5  6  1  0  0  0  0
  5 14  2  0  0  0  0
  6  7  1  0  0  0  0
  6 21  1  0  0  0  0
  6 22  1  0  0  0  0
  7  8  1  0  0  0  0
  7 23  1  0  0  0  0
  7 24  1  0  0  0  0
  8  9  1  0  0  0  0
  8 25  1  0  0  0  0
  9 10  2  0  0  0  0
  9 11  1  0  0  0  0
 11 13  1  0  0  0  0
 11 12  1  0  0  0  0
 11 26  1  0  0  0  0
 12 13  1  0  0  0  0
 12 27  1  0  0  0  0
 12 28  1  0  0  0  0
 13 29  1  0  0  0  0
 13 30  1  0  0  0  0
 14 15  1  0  0  0  0
 14 31  1  0  0  0  0
M  END
> <s_m_source_file>
AV-unprocessed.smi

> <i_m_source_file_index>
945

> <i_lp_mmshare_version>
43012

> <i_f3d_flags>
0

> <s_epik_input>
W0NIM11bQ0gyXWMxbmMoW2NIXXMxKVtDSDJdW0NIMl1bTkhdQyg9TylbQ0hdMltDSDJdW0NIMl0y

> <s_epik_cmdline>
J2VwaWtfcHl0aG9uJywgJy1waCcsICc3LjAnLCAnLXRuJywgJzgnLCAnLW1hJywgJzIwMCcsICctbWV0YWxfYmluZGluZycsICctaW1hZScsICc8aW5maWxlLm1hZT4nLCAnLW9tYWUnLCAnPG91dGZpbGUubWFlPic=

> <r_epik_Ionization_Penalty>
0.00109668

> <r_epik_Ionization_Penalty_Charging>
0

> <r_epik_Ionization_Penalty_Neutral>
0.00109668

> <r_epik_State_Penalty>
0.000719322

> <r_epik_Charging_Adjusted_Penalty>
0.000719322

> <i_epik_Tot_Q>
0

> <i_epik_Tot_abs_Q>
0

> <r_epik_Metal_State_Penalty>
-0

> <b_epik_Metal_Only>
0

> <s_lp_Force_Field>
OPLS_2005

> <r_lp_Energy>
-3.93776

> <b_lp_Chiralities_Consistent>
1

> <s_lp_Variant>
AV-unprocessed.smi:945-1

> <Gold.Version>
5.8.1

> <Gold.Id.Protein>
6NUR|6NUR_protein|mol2

> <Gold.PLP.Fitness>
44.3988

> <Gold.PLP.PLP>
-39.0581

> <Gold.PLP.part.hbond>
-2.2835

> <Gold.PLP.part.metal>
0.0000

> <Gold.PLP.part.buried>
-3.5344

> <Gold.PLP.part.nonpolar>
-35.1164

> <Gold.PLP.part.repulsive>
1.7588

> <Gold.PLP.ligand.clash>
0.0000

> <Gold.PLP.ligand.torsion>
0.5384

> <Gold.PLP.Chemscore.Hbond>
1.2449

> <Gold.PLP.Chemscore.CHOScore>
0.8618

> <Gold.PLP.Chemscore.Metal>
0.0000

> <Gold.Chemscore.Hbonds>
donor molecule, donor type, donor heavy atom, donor atom, acceptor molecule, acceptor atom, score
      P1  H  7989  7998       L1    10  0.35
      P1  H  8011  8017       L1    10  0.88
      L1  C    14    31       P1  8028  0.87

> <Gold.PLP.Chemscore.Internal.Correction>
0.0974

> <Gold.Rescore>
     Score         DG    S(hbond)    S(metal)    S(lipo)     H(rot)  DE(clash)    DE(int)     intcor
     15.73     -16.89       1.00        0.00     103.37       1.58       0.49       0.67       ----

> <Gold.Chemscore.Fitness>
15.7325

> <Gold.Chemscore.DG>
-16.8919

> <Gold.Chemscore.ZeroCoef>
-5.4800

> <Gold.Chemscore.Hbond>
1.0036

> <Gold.Chemscore.Metal>
0.0000

> <Gold.Chemscore.Lipo>
103.3716

> <Gold.Chemscore.Internal_Hbond>
0.0000

> <Gold.Chemscore.DEClash>
0.4877

> <Gold.Chemscore.DEInternal>
0.6717

> <Gold.Chemscore.Rot>
1.5760

> <Gold.Chemscore.Internal.Correction>
   9.000000E+99

> <Gold.Chemscore.Hbonds>
donor molecule, donor type, donor heavy atom, donor atom, acceptor molecule, acceptor atom, score
      P1  H  7989  7998       L1    10  0.33
      P1  H  8011  8017       L1    10  0.67

> <Gold.Chemscore.Hbond.Weighted>
-3.3520

> <Gold.Chemscore.Metal.Weighted>
-0.0000

> <Gold.Chemscore.Lipo.Weighted>
-12.0945

> <Gold.Chemscore.Internal_Hbond.Weighted>
0.0000

> <Gold.Chemscore.DEClash.Weighted>
0.4877

> <Gold.Chemscore.DEInternal.Weighted>
0.6717

> <Gold.Chemscore.Rot.Weighted>
4.0346

> <Gold.Chemscore.Internal.Correction.Weighted>
   9.000000E+99

> <Gold.Protein.RotatedTorsions>
[ 6907 6896 6895 6894 ] final  -94.93 input  -60.11 | X-H torsion
[ 7974 7965 7964 7962 ] final -128.19 input  175.53 | X-H torsion
[ 8008 7997 7996 7995 ] final -105.02 input   59.86 | X-H torsion
[ 10167 10162 10161 10158 ] final  119.92 input  -65.29 | X-H torsion
[ 10718 10713 10712 10709 ] final   24.68 input   66.30 | X-H torsion
[ 10763 10752 10751 10750 ] final  118.78 input  -60.55 | X-H torsion
[ 11005 11000 10999 10996 ] final  136.06 input  -57.11 | X-H torsion

> <Gold.Protein.ActiveResidues>
 VAL166  LYS551  ARG553  GLY616  TRP617  ASP618  TYR619  PRO620  LYS621  CYS622 
 ASP623  PHE694  ASN695  SER759  ASP760  ASP761  ALA762  ILE779  LEU786  VAL792 
 PHE793  MET794  SER795  GLU796  ALA797  LYS798  CYS799  TRP800  GLU811  SER814 

> <Gold.Protein.RotatedAtoms>
  150.6952  134.1735  159.4221 H   0  0  0  0  0  0  0  0  0  0  0  0  # atno 6907 bound_to 6896
  151.9712  135.0073  160.0562 H   0  0  0  0  0  0  0  0  0  0  0  0  # atno 6908 bound_to 6896
  152.1839  133.4691  159.5009 H   0  0  0  0  0  0  0  0  0  0  0  0  # atno 6909 bound_to 6896
  144.9696  140.7531  143.4679 H   0  0  0  0  0  0  0  0  0  0  0  0  # atno 7974 bound_to 7965
  154.8937  140.0415  157.1853 H   0  0  0  0  0  0  0  0  0  0  0  0  # atno 8008 bound_to 7997
  154.8514  140.2930  155.5575 H   0  0  0  0  0  0  0  0  0  0  0  0  # atno 8009 bound_to 7997
  156.2996  140.2464  156.3474 H   0  0  0  0  0  0  0  0  0  0  0  0  # atno 8010 bound_to 7997
  139.6015  144.7058  151.3052 H   0  0  0  0  0  0  0  0  0  0  0  0  # atno 10167 bound_to 10162
  157.1830  130.6811  149.6120 H   0  0  0  0  0  0  0  0  0  0  0  0  # atno 10718 bound_to 10713
  153.5729  135.3498  155.2845 H   0  0  0  0  0  0  0  0  0  0  0  0  # atno 10763 bound_to 10752
  154.8679  135.4164  154.2705 H   0  0  0  0  0  0  0  0  0  0  0  0  # atno 10764 bound_to 10752
  153.3474  135.7053  153.6886 H   0  0  0  0  0  0  0  0  0  0  0  0  # atno 10765 bound_to 10752
  140.0021  134.9474  157.0094 H   0  0  0  0  0  0  0  0  0  0  0  0  # atno 11005 bound_to 11000
  145.2579  139.2004  143.4907 LP  0  0  0  0  0  0  0  0  0  0  0  0  # atno 17320 bound_to 7965
  146.3378  140.2504  142.8598 LP  0  0  0  0  0  0  0  0  0  0  0  0  # atno 17321 bound_to 7965
  140.7253  143.7022  150.7836 LP  0  0  0  0  0  0  0  0  0  0  0  0  # atno 17342 bound_to 10162
  140.0599  143.5165  152.2633 LP  0  0  0  0  0  0  0  0  0  0  0  0  # atno 17343 bound_to 10162
  155.9722  130.4640  150.6202 LP  0  0  0  0  0  0  0  0  0  0  0  0  # atno 17370 bound_to 10713
  157.3934  131.0799  151.1373 LP  0  0  0  0  0  0  0  0  0  0  0  0  # atno 17371 bound_to 10713
  140.4709  134.1388  155.7203 LP  0  0  0  0  0  0  0  0  0  0  0  0  # atno 17394 bound_to 11000
  141.1649  133.8721  157.1742 LP  0  0  0  0  0  0  0  0  0  0  0  0  # atno 17395 bound_to 11000

$$$$
