AV-unprocessed.smi:2865|AV-procd|sdf|11016|dock1
  -GOLD-   2272015473D 1   1.00000     0.00000
 Structure written by MMmdl.
 38 41  0  0  0  0  0  0  0  0  1 V2000
  146.0342  137.9568  154.4387 O   0  0  0  0  0  0  0  0  0  0  0  0
  146.9139  137.3962  153.7896 C   0  0  0  0  0  0  0  0  0  0  0  0
  148.2115  137.7581  153.7803 N   0  0  0  0  0  0  0  0  0  0  0  0
  148.8591  138.7704  154.5375 C   0  0  0  0  0  0  0  0  0  0  0  0
  148.3754  139.3232  155.7492 C   0  0  0  0  0  0  0  0  0  0  0  0
  149.0662  140.2687  156.4226 N   0  0  0  0  0  0  0  0  0  0  0  0
  150.2260  140.6664  155.8924 C   0  0  0  0  0  0  0  0  0  0  0  0
  151.0062  141.6834  156.6663 C   0  0  0  0  0  0  0  0  0  0  0  0
  151.5674  141.3560  158.0350 C   0  0  0  0  0  0  0  0  0  0  0  0
  150.4244  142.3245  157.9097 C   0  0  0  0  0  0  0  0  0  0  0  0
  150.7887  140.2045  154.7725 N   0  0  0  0  0  0  0  0  0  0  0  0
  150.1056  139.2588  154.0929 C   0  0  0  0  0  0  0  0  0  0  0  0
  146.6294  136.3529  152.9908 N   0  0  0  0  0  0  0  0  0  0  0  0
  145.3290  135.7149  152.7715 C   0  0  1  0  0  0  0  0  0  0  0  0
  144.8972  135.7914  151.3041 C   0  0  0  0  0  0  0  0  0  0  0  0
  144.7116  134.3105  150.9469 C   0  0  1  0  0  0  0  0  0  0  0  0
  146.0546  133.5778  150.8222 C   0  0  0  0  0  0  0  0  0  0  0  0
  146.4816  133.4573  152.2841 C   0  0  0  0  0  0  0  0  0  0  0  0
  145.3371  134.1888  153.0052 C   0  0  2  0  0  0  0  0  0  0  0  0
  144.2475  133.8020  152.1857 O   0  0  0  0  0  0  0  0  0  0  0  0
  148.8043  137.2552  153.1363 H   0  0  0  0  0  0  0  0  0  0  0  0
  147.4521  139.0094  156.2097 H   0  0  0  0  0  0  0  0  0  0  0  0
  151.6078  142.3060  156.0068 H   0  0  0  0  0  0  0  0  0  0  0  0
  151.3490  140.3753  158.4532 H   0  0  0  0  0  0  0  0  0  0  0  0
  152.5451  141.7624  158.2850 H   0  0  0  0  0  0  0  0  0  0  0  0
  150.6369  143.3784  158.0768 H   0  0  0  0  0  0  0  0  0  0  0  0
  149.4451  141.9877  158.2444 H   0  0  0  0  0  0  0  0  0  0  0  0
  150.5618  138.8872  153.1869 H   0  0  0  0  0  0  0  0  0  0  0  0
  147.4016  135.9610  152.4717 H   0  0  0  0  0  0  0  0  0  0  0  0
  144.5629  136.1873  153.3892 H   0  0  0  0  0  0  0  0  0  0  0  0
  143.9530  136.3298  151.2156 H   0  0  0  0  0  0  0  0  0  0  0  0
  145.6247  136.2810  150.6547 H   0  0  0  0  0  0  0  0  0  0  0  0
  144.0351  134.1404  150.1090 H   0  0  0  0  0  0  0  0  0  0  0  0
  145.9209  132.5898  150.3805 H   0  0  0  0  0  0  0  0  0  0  0  0
  146.7730  134.1305  150.2155 H   0  0  0  0  0  0  0  0  0  0  0  0
  146.5095  132.4087  152.5830 H   0  0  0  0  0  0  0  0  0  0  0  0
  147.4644  133.8859  152.4804 H   0  0  0  0  0  0  0  0  0  0  0  0
  145.2256  133.9030  154.0514 H   0  0  0  0  0  0  0  0  0  0  0  0
  1  2  2  0  0  0  0
  2  3  1  0  0  0  0
  2 13  1  0  0  0  0
  3  4  1  0  0  0  0
  3 21  1  0  0  0  0
  4 12  1  0  0  0  0
  4  5  2  0  0  0  0
  5  6  1  0  0  0  0
  5 22  1  0  0  0  0
  6  7  2  0  0  0  0
  7  8  1  0  0  0  0
  7 11  1  0  0  0  0
  8 10  1  0  0  0  0
  8  9  1  0  0  0  0
  8 23  1  0  0  0  0
  9 10  1  0  0  0  0
  9 24  1  0  0  0  0
  9 25  1  0  0  0  0
 10 26  1  0  0  0  0
 10 27  1  0  0  0  0
 11 12  2  0  0  0  0
 12 28  1  0  0  0  0
 13 14  1  0  0  0  0
 13 29  1  0  0  0  0
 14 19  1  0  0  0  0
 14 15  1  0  0  0  0
 14 30  1  0  0  0  0
 15 16  1  0  0  0  0
 15 31  1  0  0  0  0
 15 32  1  0  0  0  0
 16 20  1  0  0  0  0
 16 17  1  0  0  0  0
 16 33  1  0  0  0  0
 17 18  1  0  0  0  0
 17 34  1  0  0  0  0
 17 35  1  0  0  0  0
 18 19  1  0  0  0  0
 18 36  1  0  0  0  0
 18 37  1  0  0  0  0
 19 20  1  0  0  0  0
 19 38  1  0  0  0  0
M  END
> <s_m_source_file>
AV-unprocessed.smi

> <i_m_source_file_index>
2865

> <i_lp_mmshare_version>
43012

> <i_f3d_flags>
0

> <s_epik_input>
W0NIMl0xW0NIMl1bQ0BIXShPMilbQ0BASF0oW0NIMl1bQ0BASF0xMilbTkhdQyg9TylbTkhdYzNbY0hdbmMobltjSF0zKVtDSF00W0NIMl1bQ0gyXTQ=

> <s_epik_cmdline>
J2VwaWtfcHl0aG9uJywgJy1waCcsICc3LjAnLCAnLXRuJywgJzgnLCAnLW1hJywgJzIwMCcsICctbWV0YWxfYmluZGluZycsICctaW1hZScsICc8aW5maWxlLm1hZT4nLCAnLW9tYWUnLCAnPG91dGZpbGUubWFlPic=

> <r_lp_tautomer_probability>
1

> <r_epik_Ionization_Penalty>
2.43104e-05

> <r_epik_Ionization_Penalty_Charging>
0

> <r_epik_Ionization_Penalty_Neutral>
2.43104e-05

> <r_epik_State_Penalty>
-0

> <r_epik_Charging_Adjusted_Penalty>
0

> <i_epik_Tot_Q>
0

> <i_epik_Tot_abs_Q>
0

> <r_epik_Metal_State_Penalty>
-0

> <b_epik_Metal_Only>
0

> <s_lp_Force_Field>
OPLS_2005

> <r_lp_Energy>
44.6294

> <b_lp_Chiralities_Consistent>
1

> <s_lp_Variant>
AV-unprocessed.smi:2865-2

> <Gold.Version>
5.8.1

> <Gold.Id.Protein>
6NUR|6NUR_protein|mol2

> <Gold.PLP.Fitness>
37.2643

> <Gold.PLP.PLP>
-26.9055

> <Gold.PLP.part.hbond>
-3.0000

> <Gold.PLP.part.metal>
0.0000

> <Gold.PLP.part.buried>
-2.7872

> <Gold.PLP.part.nonpolar>
-21.4744

> <Gold.PLP.part.repulsive>
0.3247

> <Gold.PLP.ligand.clash>
0.0000

> <Gold.PLP.ligand.torsion>
0.1702

> <Gold.PLP.Chemscore.Hbond>
2.8940

> <Gold.PLP.Chemscore.CHOScore>
0.6245

> <Gold.PLP.Chemscore.Metal>
0.0000

> <Gold.Chemscore.Hbonds>
donor molecule, donor type, donor heavy atom, donor atom, acceptor molecule, acceptor atom, score
      L1  H     3    21       P1  7948  1.00
      L1  H    13    29       P1  7948  0.94
      P1  H  7989  7998       L1    11  0.95
      L1  C    12    28       P1  7957  0.64

> <Gold.PLP.Chemscore.Internal.Correction>
0.1438

> <Gold.Rescore>
     Score         DG    S(hbond)    S(metal)    S(lipo)     H(rot)  DE(clash)    DE(int)     intcor
     16.30     -17.84       2.42        0.00      63.00       1.20       0.37       1.17       ----

> <Gold.Chemscore.Fitness>
16.3013

> <Gold.Chemscore.DG>
-17.8446

> <Gold.Chemscore.ZeroCoef>
-5.4800

> <Gold.Chemscore.Hbond>
2.4159

> <Gold.Chemscore.Metal>
0.0000

> <Gold.Chemscore.Lipo>
62.9974

> <Gold.Chemscore.Internal_Hbond>
0.0000

> <Gold.Chemscore.DEClash>
0.3701

> <Gold.Chemscore.DEInternal>
1.1731

> <Gold.Chemscore.Rot>
1.2012

> <Gold.Chemscore.Internal.Correction>
   9.000000E+99

> <Gold.Chemscore.Hbonds>
donor molecule, donor type, donor heavy atom, donor atom, acceptor molecule, acceptor atom, score
      L1  H     3    21       P1  7948  0.95
      L1  H    13    29       P1  7948  0.91
      P1  H  7989  7998       L1    11  0.21

> <Gold.Chemscore.Hbond.Weighted>
-8.0690

> <Gold.Chemscore.Metal.Weighted>
-0.0000

> <Gold.Chemscore.Lipo.Weighted>
-7.3707

> <Gold.Chemscore.Internal_Hbond.Weighted>
0.0000

> <Gold.Chemscore.DEClash.Weighted>
0.3701

> <Gold.Chemscore.DEInternal.Weighted>
1.1731

> <Gold.Chemscore.Rot.Weighted>
3.0752

> <Gold.Chemscore.Internal.Correction.Weighted>
   9.000000E+99

> <Gold.Protein.RotatedTorsions>
[ 6907 6896 6895 6894 ] final  -42.76 input  -60.11 | X-H torsion
[ 7974 7965 7964 7962 ] final  -25.89 input  175.53 | X-H torsion
[ 8008 7997 7996 7995 ] final -173.99 input   59.86 | X-H torsion
[ 10167 10162 10161 10158 ] final  -10.67 input  -65.29 | X-H torsion
[ 10718 10713 10712 10709 ] final  -34.44 input   66.30 | X-H torsion
[ 10763 10752 10751 10750 ] final  161.15 input  -60.55 | X-H torsion
[ 11005 11000 10999 10996 ] final  -34.94 input  -57.11 | X-H torsion

> <Gold.Protein.ActiveResidues>
 VAL166  LYS551  ARG553  GLY616  TRP617  ASP618  TYR619  PRO620  LYS621  CYS622 
 ASP623  PHE694  ASN695  SER759  ASP760  ASP761  ALA762  ILE779  LEU786  VAL792 
 PHE793  MET794  SER795  GLU796  ALA797  LYS798  CYS799  TRP800  GLU811  SER814 

> <Gold.Protein.RotatedAtoms>
  150.9516  134.8915  159.7674 H   0  0  0  0  0  0  0  0  0  0  0  0  # atno 6907 bound_to 6896
  152.5121  134.3799  159.9357 H   0  0  0  0  0  0  0  0  0  0  0  0  # atno 6908 bound_to 6896
  151.3815  133.3779  159.2745 H   0  0  0  0  0  0  0  0  0  0  0  0  # atno 6909 bound_to 6896
  146.1461  140.4947  142.8631 H   0  0  0  0  0  0  0  0  0  0  0  0  # atno 7974 bound_to 7965
  155.9645  140.1151  157.0867 H   0  0  0  0  0  0  0  0  0  0  0  0  # atno 8008 bound_to 7997
  154.4140  140.1175  156.5290 H   0  0  0  0  0  0  0  0  0  0  0  0  # atno 8009 bound_to 7997
  155.6677  140.3473  155.4809 H   0  0  0  0  0  0  0  0  0  0  0  0  # atno 8010 bound_to 7997
  140.7120  143.5722  150.9080 H   0  0  0  0  0  0  0  0  0  0  0  0  # atno 10167 bound_to 10162
  156.3505  130.4307  149.7708 H   0  0  0  0  0  0  0  0  0  0  0  0  # atno 10718 bound_to 10713
  154.2584  135.2769  155.2788 H   0  0  0  0  0  0  0  0  0  0  0  0  # atno 10763 bound_to 10752
  154.5405  135.5704  153.6838 H   0  0  0  0  0  0  0  0  0  0  0  0  # atno 10764 bound_to 10752
  152.9967  135.6250  154.2734 H   0  0  0  0  0  0  0  0  0  0  0  0  # atno 10765 bound_to 10752
  140.9756  133.7085  156.1597 H   0  0  0  0  0  0  0  0  0  0  0  0  # atno 11005 bound_to 11000
  144.7848  140.5914  143.6581 LP  0  0  0  0  0  0  0  0  0  0  0  0  # atno 17320 bound_to 7965
  145.4933  139.1487  143.3697 LP  0  0  0  0  0  0  0  0  0  0  0  0  # atno 17321 bound_to 7965
  139.9448  143.6340  152.3044 LP  0  0  0  0  0  0  0  0  0  0  0  0  # atno 17342 bound_to 10162
  139.6837  144.7653  151.1562 LP  0  0  0  0  0  0  0  0  0  0  0  0  # atno 17343 bound_to 10162
  156.4910  130.8085  151.3095 LP  0  0  0  0  0  0  0  0  0  0  0  0  # atno 17370 bound_to 10713
  157.7460  130.9975  150.2819 LP  0  0  0  0  0  0  0  0  0  0  0  0  # atno 17371 bound_to 10713
  140.7264  134.4303  157.5570 LP  0  0  0  0  0  0  0  0  0  0  0  0  # atno 17394 bound_to 11000
  139.8929  134.8743  156.2248 LP  0  0  0  0  0  0  0  0  0  0  0  0  # atno 17395 bound_to 11000

$$$$
