AV-unprocessed.smi:1378|AV-procd|sdf|5597|dock5
  -GOLD-   22720 5203D 1   1.00000     0.00000
 Structure written by MMmdl.
 47 49  0  0  0  0  0  0  0  0  2 V2000
  152.9763  138.5754  154.7772 C   0  0  0  0  0  0  0  0  0  0  0  0
  152.9771  139.3268  155.9789 O   0  0  0  0  0  0  0  0  0  0  0  0
  151.7759  139.1725  156.7128 C   0  0  0  0  0  0  0  0  0  0  0  0
  151.8626  140.0169  157.9929 C   0  0  0  0  0  0  0  0  0  0  0  0
  151.5457  141.4333  157.7595 N   0  0  0  0  0  0  0  0  0  0  0  0
  150.8752  142.0465  156.7423 C   0  0  0  0  0  0  0  0  0  0  0  0
  150.1842  141.2906  155.3059 S   0  0  0  0  0  0  0  0  0  0  0  0
  148.4642  141.8676  155.2235 C   0  0  0  0  0  0  0  0  0  0  0  0
  147.7141  141.6827  156.5423 C   0  0  0  0  0  0  0  0  0  0  0  0
  147.6343  140.5696  157.0597 O   0  0  0  0  0  0  0  0  0  0  0  0
  147.1903  142.7926  157.0818 N   0  0  0  0  0  0  0  0  0  0  0  0
  146.4802  142.8780  158.3525 C   0  0  0  0  0  0  0  0  0  0  0  0
  145.1067  143.5583  158.1783 C   0  0  0  0  0  0  0  0  0  0  0  0
  145.1091  144.7814  159.1010 C   0  0  0  0  0  0  0  0  0  0  0  0
  146.5837  145.1230  159.2958 C   0  0  0  0  0  0  0  0  0  0  0  0
  147.2720  143.7604  159.3313 C   0  0  0  0  0  0  0  0  0  0  0  0
  150.8440  143.3801  157.0104 N   0  3  0  0  0  0  0  0  0  0  0  0
  151.5012  143.6290  158.2155 C   0  0  0  0  0  0  0  0  0  0  0  0
  151.7340  144.8195  158.8970 C   0  0  0  0  0  0  0  0  0  0  0  0
  152.4400  144.7240  160.1141 C   0  0  0  0  0  0  0  0  0  0  0  0
  152.8829  143.4809  160.6107 C   0  0  0  0  0  0  0  0  0  0  0  0
  152.6412  142.2805  159.9110 C   0  0  0  0  0  0  0  0  0  0  0  0
  151.9464  142.3834  158.7064 C   0  0  0  0  0  0  0  0  0  0  0  0
  153.9166  138.7295  154.2480 H   0  0  0  0  0  0  0  0  0  0  0  0
  152.1644  138.8857  154.1182 H   0  0  0  0  0  0  0  0  0  0  0  0
  152.8744  137.5082  154.9790 H   0  0  0  0  0  0  0  0  0  0  0  0
  150.9279  139.4822  156.1008 H   0  0  0  0  0  0  0  0  0  0  0  0
  151.6332  138.1219  156.9608 H   0  0  0  0  0  0  0  0  0  0  0  0
  151.1717  139.6340  158.7443 H   0  0  0  0  0  0  0  0  0  0  0  0
  152.8603  139.9586  158.4297 H   0  0  0  0  0  0  0  0  0  0  0  0
  148.4559  142.9184  154.9334 H   0  0  0  0  0  0  0  0  0  0  0  0
  147.9486  141.3213  154.4335 H   0  0  0  0  0  0  0  0  0  0  0  0
  147.3042  143.6574  156.5735 H   0  0  0  0  0  0  0  0  0  0  0  0
  146.3662  141.8805  158.7810 H   0  0  0  0  0  0  0  0  0  0  0  0
  144.9574  143.8803  157.1463 H   0  0  0  0  0  0  0  0  0  0  0  0
  144.2873  142.8811  158.4208 H   0  0  0  0  0  0  0  0  0  0  0  0
  144.5362  145.6146  158.6930 H   0  0  0  0  0  0  0  0  0  0  0  0
  144.6675  144.5151  160.0620 H   0  0  0  0  0  0  0  0  0  0  0  0
  146.9467  145.6972  158.4421 H   0  0  0  0  0  0  0  0  0  0  0  0
  146.7645  145.7099  160.1966 H   0  0  0  0  0  0  0  0  0  0  0  0
  147.1907  143.3452  160.3367 H   0  0  0  0  0  0  0  0  0  0  0  0
  148.3350  143.8259  159.0966 H   0  0  0  0  0  0  0  0  0  0  0  0
  151.3939  145.7729  158.5200 H   0  0  0  0  0  0  0  0  0  0  0  0
  152.6443  145.6221  160.6789 H   0  0  0  0  0  0  0  0  0  0  0  0
  153.4195  143.4469  161.5479 H   0  0  0  0  0  0  0  0  0  0  0  0
  152.9860  141.3335  160.2994 H   0  0  0  0  0  0  0  0  0  0  0  0
  150.4088  144.0669  156.4078 H   0  0  0  0  0  0  0  0  0  0  0  0
  1  2  1  0  0  0  0
  1 24  1  0  0  0  0
  1 25  1  0  0  0  0
  1 26  1  0  0  0  0
  2  3  1  0  0  0  0
  3  4  1  0  0  0  0
  3 27  1  0  0  0  0
  3 28  1  0  0  0  0
  4  5  1  0  0  0  0
  4 29  1  0  0  0  0
  4 30  1  0  0  0  0
  5 23  1  0  0  0  0
  5  6  1  0  0  0  0
  6  7  1  0  0  0  0
  6 17  2  0  0  0  0
  7  8  1  0  0  0  0
  8  9  1  0  0  0  0
  8 31  1  0  0  0  0
  8 32  1  0  0  0  0
  9 10  2  0  0  0  0
  9 11  1  0  0  0  0
 11 12  1  0  0  0  0
 11 33  1  0  0  0  0
 12 16  1  0  0  0  0
 12 13  1  0  0  0  0
 12 34  1  0  0  0  0
 13 14  1  0  0  0  0
 13 35  1  0  0  0  0
 13 36  1  0  0  0  0
 14 15  1  0  0  0  0
 14 37  1  0  0  0  0
 14 38  1  0  0  0  0
 15 16  1  0  0  0  0
 15 39  1  0  0  0  0
 15 40  1  0  0  0  0
 16 41  1  0  0  0  0
 16 42  1  0  0  0  0
 17 18  1  0  0  0  0
 17 47  1  0  0  0  0
 18 23  2  0  0  0  0
 18 19  1  0  0  0  0
 19 20  2  0  0  0  0
 19 43  1  0  0  0  0
 20 21  1  0  0  0  0
 20 44  1  0  0  0  0
 21 22  2  0  0  0  0
 21 45  1  0  0  0  0
 22 23  1  0  0  0  0
 22 46  1  0  0  0  0
M  CHG  1  17   1
M  END
> <s_m_source_file>
AV-unprocessed.smi

> <i_m_source_file_index>
1378

> <i_lp_mmshare_version>
43012

> <i_f3d_flags>
0

> <s_epik_input>
W2NIXTFbY0hdW2NIXVtjSF1jKGMxMiluKFtDSDJdW0NIMl1PW0NIM10pYyhuMilTW0NIMl1DKD1PKVtOSF1bQ0hdM1tDSDJdW0NIMl1bQ0gyXVtDSDJdMw==

> <s_epik_cmdline>
J2VwaWtfcHl0aG9uJywgJy1waCcsICc3LjAnLCAnLXRuJywgJzgnLCAnLW1hJywgJzIwMCcsICctbWV0YWxfYmluZGluZycsICctaW1hZScsICc8aW5maWxlLm1hZT4nLCAnLW9tYWUnLCAnPG91dGZpbGUubWFlPic=

> <r_epik_Ionization_Penalty>
1.66257

> <r_epik_Ionization_Penalty_Charging>
1.66257

> <r_epik_Ionization_Penalty_Neutral>
9.72138e-08

> <r_epik_State_Penalty>
1.76557

> <r_epik_Charging_Adjusted_Penalty>
3.42813

> <i_epik_Tot_Q>
1

> <i_epik_Tot_abs_Q>
1

> <r_epik_Metal_State_Penalty>
1.80074

> <b_epik_Metal_Only>
0

> <s_lp_Force_Field>
OPLS_2005

> <r_lp_Energy>
23.1428

> <b_lp_Chiralities_Consistent>
1

> <s_lp_Variant>
AV-unprocessed.smi:1378-2

> <Gold.Version>
5.8.1

> <Gold.Id.Protein>
6NUR|6NUR_protein|mol2

> <Gold.PLP.Fitness>
51.0068

> <Gold.PLP.PLP>
-42.8858

> <Gold.PLP.part.hbond>
-1.8814

> <Gold.PLP.part.metal>
0.0000

> <Gold.PLP.part.buried>
-5.6614

> <Gold.PLP.part.nonpolar>
-35.5201

> <Gold.PLP.part.repulsive>
0.0408

> <Gold.PLP.ligand.clash>
0.0038

> <Gold.PLP.ligand.torsion>
0.4979

> <Gold.PLP.Chemscore.Hbond>
3.0000

> <Gold.PLP.Chemscore.CHOScore>
0.0000

> <Gold.PLP.Chemscore.Metal>
0.0000

> <Gold.Chemscore.Hbonds>
donor molecule, donor type, donor heavy atom, donor atom, acceptor molecule, acceptor atom, score
      L1  H    17    47       P1  8028  1.98
      P1  H  7997  8010       L1     2  1.00

> <Gold.PLP.Chemscore.Internal.Correction>
0.1205

> <Gold.Rescore>
     Score         DG    S(hbond)    S(metal)    S(lipo)     H(rot)  DE(clash)    DE(int)     intcor
     17.21     -19.69       1.91        0.00     111.95       2.06       0.40       2.08       ----

> <Gold.Chemscore.Fitness>
17.2059

> <Gold.Chemscore.DG>
-19.6874

> <Gold.Chemscore.ZeroCoef>
-5.4800

> <Gold.Chemscore.Hbond>
1.9086

> <Gold.Chemscore.Metal>
0.0000

> <Gold.Chemscore.Lipo>
111.9488

> <Gold.Chemscore.Internal_Hbond>
0.0000

> <Gold.Chemscore.DEClash>
0.4006

> <Gold.Chemscore.DEInternal>
2.0810

> <Gold.Chemscore.Rot>
2.0567

> <Gold.Chemscore.Internal.Correction>
   9.000000E+99

> <Gold.Chemscore.Hbonds>
donor molecule, donor type, donor heavy atom, donor atom, acceptor molecule, acceptor atom, score
      L1  H    17    47       P1  8028  0.93
      P1  H  7997  8010       L1     2  0.47

> <Gold.Chemscore.Hbond.Weighted>
-6.3746

> <Gold.Chemscore.Metal.Weighted>
-0.0000

> <Gold.Chemscore.Lipo.Weighted>
-13.0980

> <Gold.Chemscore.Internal_Hbond.Weighted>
0.0000

> <Gold.Chemscore.DEClash.Weighted>
0.4006

> <Gold.Chemscore.DEInternal.Weighted>
2.0810

> <Gold.Chemscore.Rot.Weighted>
5.2652

> <Gold.Chemscore.Internal.Correction.Weighted>
   9.000000E+99

> <Gold.Protein.RotatedTorsions>
[ 6907 6896 6895 6894 ] final  -16.08 input  -60.11 | X-H torsion
[ 7974 7965 7964 7962 ] final   87.71 input  175.53 | X-H torsion
[ 8008 7997 7996 7995 ] final  101.86 input   59.86 | X-H torsion
[ 10167 10162 10161 10158 ] final -137.97 input  -65.29 | X-H torsion
[ 10718 10713 10712 10709 ] final  146.78 input   66.30 | X-H torsion
[ 10763 10752 10751 10750 ] final   46.88 input  -60.55 | X-H torsion
[ 11005 11000 10999 10996 ] final -153.80 input  -57.11 | X-H torsion

> <Gold.Protein.ActiveResidues>
 VAL166  LYS551  ARG553  GLY616  TRP617  ASP618  TYR619  PRO620  LYS621  CYS622 
 ASP623  PHE694  ASN695  SER759  ASP760  ASP761  ALA762  ILE779  LEU786  VAL792 
 PHE793  MET794  SER795  GLU796  ALA797  LYS798  CYS799  TRP800  GLU811  SER814 

> <Gold.Protein.RotatedAtoms>
  151.3141  135.0802  159.9282 H   0  0  0  0  0  0  0  0  0  0  0  0  # atno 6907 bound_to 6896
  152.5271  133.9705  159.7770 H   0  0  0  0  0  0  0  0  0  0  0  0  # atno 6908 bound_to 6896
  151.0014  133.6000  159.2724 H   0  0  0  0  0  0  0  0  0  0  0  0  # atno 6909 bound_to 6896
  145.5553  139.2299  143.2490 H   0  0  0  0  0  0  0  0  0  0  0  0  # atno 7974 bound_to 7965
  156.1339  140.3190  155.8390 H   0  0  0  0  0  0  0  0  0  0  0  0  # atno 8008 bound_to 7997
  155.4281  140.0517  157.3038 H   0  0  0  0  0  0  0  0  0  0  0  0  # atno 8009 bound_to 7997
  154.4921  140.2096  155.9539 H   0  0  0  0  0  0  0  0  0  0  0  0  # atno 8010 bound_to 7997
  139.8524  143.7181  152.2657 H   0  0  0  0  0  0  0  0  0  0  0  0  # atno 10167 bound_to 10162
  157.3290  131.0917  151.1178 H   0  0  0  0  0  0  0  0  0  0  0  0  # atno 10718 bound_to 10713
  152.9806  135.5994  154.3672 H   0  0  0  0  0  0  0  0  0  0  0  0  # atno 10763 bound_to 10752
  154.3348  135.2768  155.2455 H   0  0  0  0  0  0  0  0  0  0  0  0  # atno 10764 bound_to 10752
  154.4562  135.5977  153.6280 H   0  0  0  0  0  0  0  0  0  0  0  0  # atno 10765 bound_to 10752
  140.7042  134.3904  157.5206 H   0  0  0  0  0  0  0  0  0  0  0  0  # atno 11005 bound_to 11000
  146.1888  140.6377  142.9155 LP  0  0  0  0  0  0  0  0  0  0  0  0  # atno 17320 bound_to 7965
  144.7509  140.5188  143.6802 LP  0  0  0  0  0  0  0  0  0  0  0  0  # atno 17321 bound_to 7965
  139.7452  144.7549  151.0590 LP  0  0  0  0  0  0  0  0  0  0  0  0  # atno 17342 bound_to 10162
  140.7786  143.4924  150.9875 LP  0  0  0  0  0  0  0  0  0  0  0  0  # atno 17343 bound_to 10162
  157.2434  130.6580  149.5899 LP  0  0  0  0  0  0  0  0  0  0  0  0  # atno 17370 bound_to 10713
  155.9693  130.4561  150.5913 LP  0  0  0  0  0  0  0  0  0  0  0  0  # atno 17371 bound_to 10713
  139.8888  134.8845  156.2452 LP  0  0  0  0  0  0  0  0  0  0  0  0  # atno 17394 bound_to 11000
  141.0138  133.7080  156.1155 LP  0  0  0  0  0  0  0  0  0  0  0  0  # atno 17395 bound_to 11000

$$$$
