AV-unprocessed.smi:486|AV-procd|sdf|2698|dock2
  -GOLD-   2262023133D 1   1.00000     0.00000
 Structure written by MMmdl.
 44 46  0  0  0  0  0  0  0  0  2 V2000
  150.9597  130.5506  155.1202 C   0  0  0  0  0  0  0  0  0  0  0  0
  150.0857  131.5395  154.5959 O   0  0  0  0  0  0  0  0  0  0  0  0
  150.2631  132.8443  155.0035 C   0  0  0  0  0  0  0  0  0  0  0  0
  149.4701  133.8260  154.3777 C   0  0  0  0  0  0  0  0  0  0  0  0
  149.5867  135.1824  154.7356 C   0  0  0  0  0  0  0  0  0  0  0  0
  150.4979  135.5906  155.7291 C   0  0  0  0  0  0  0  0  0  0  0  0
  150.5467  136.9372  156.0200 O   0  0  0  0  0  0  0  0  0  0  0  0
  151.4562  137.3780  157.0196 C   0  0  0  0  0  0  0  0  0  0  0  0
  150.9938  138.7477  157.5406 C   0  0  1  0  0  0  0  0  0  0  0  0
  150.6301  138.6099  158.9000 O   0  0  0  0  0  0  0  0  0  0  0  0
  152.1026  139.8118  157.4168 C   0  0  0  0  0  0  0  0  0  0  0  0
  151.5766  141.1862  157.3770 N   0  0  0  0  0  0  0  0  0  0  0  0
  150.7152  141.7661  156.4931 C   0  0  0  0  0  0  0  0  0  0  0  0
  150.0776  141.1138  155.3128 C   0  0  0  0  0  0  0  0  0  0  0  0
  150.5432  143.0599  156.8846 N   0  3  0  0  0  0  0  0  0  0  0  0
  151.2986  143.3104  158.0306 C   0  0  0  0  0  0  0  0  0  0  0  0
  151.4444  144.4678  158.7891 C   0  0  0  0  0  0  0  0  0  0  0  0
  152.2946  144.3861  159.9113 C   0  0  0  0  0  0  0  0  0  0  0  0
  152.9599  143.1878  160.2424 C   0  0  0  0  0  0  0  0  0  0  0  0
  152.8058  142.0213  159.4645 C   0  0  0  0  0  0  0  0  0  0  0  0
  151.9645  142.1104  158.3551 C   0  0  0  0  0  0  0  0  0  0  0  0
  151.2987  134.6072  156.3607 C   0  0  0  0  0  0  0  0  0  0  0  0
  151.1832  133.2501  156.0014 C   0  0  0  0  0  0  0  0  0  0  0  0
  150.6879  129.5776  154.7118 H   0  0  0  0  0  0  0  0  0  0  0  0
  150.8825  130.4848  156.2062 H   0  0  0  0  0  0  0  0  0  0  0  0
  151.9960  130.7470  154.8423 H   0  0  0  0  0  0  0  0  0  0  0  0
  148.7628  133.5365  153.6144 H   0  0  0  0  0  0  0  0  0  0  0  0
  148.9678  135.9173  154.2421 H   0  0  0  0  0  0  0  0  0  0  0  0
  151.5375  136.6598  157.8378 H   0  0  0  0  0  0  0  0  0  0  0  0
  152.4433  137.4799  156.5655 H   0  0  0  0  0  0  0  0  0  0  0  0
  150.1219  139.0777  156.9744 H   0  0  0  0  0  0  0  0  0  0  0  0
  149.7067  138.7960  158.9816 H   0  0  0  0  0  0  0  0  0  0  0  0
  152.8290  139.7242  158.2250 H   0  0  0  0  0  0  0  0  0  0  0  0
  152.6615  139.6580  156.4930 H   0  0  0  0  0  0  0  0  0  0  0  0
  149.3800  141.7964  154.8269 H   0  0  0  0  0  0  0  0  0  0  0  0
  149.5308  140.2235  155.6235 H   0  0  0  0  0  0  0  0  0  0  0  0
  150.8388  140.8214  154.5894 H   0  0  0  0  0  0  0  0  0  0  0  0
  150.9339  145.3861  158.5382 H   0  0  0  0  0  0  0  0  0  0  0  0
  152.4376  145.2591  160.5316 H   0  0  0  0  0  0  0  0  0  0  0  0
  153.6003  143.1615  161.1120 H   0  0  0  0  0  0  0  0  0  0  0  0
  153.3154  141.1077  159.7322 H   0  0  0  0  0  0  0  0  0  0  0  0
  152.0130  134.8674  157.1267 H   0  0  0  0  0  0  0  0  0  0  0  0
  151.8140  132.5370  156.5096 H   0  0  0  0  0  0  0  0  0  0  0  0
  149.9503  143.7221  156.4011 H   0  0  0  0  0  0  0  0  0  0  0  0
  1  2  1  0  0  0  0
  1 24  1  0  0  0  0
  1 25  1  0  0  0  0
  1 26  1  0  0  0  0
  2  3  1  0  0  0  0
  3 23  1  0  0  0  0
  3  4  2  0  0  0  0
  4  5  1  0  0  0  0
  4 27  1  0  0  0  0
  5  6  2  0  0  0  0
  5 28  1  0  0  0  0
  6  7  1  0  0  0  0
  6 22  1  0  0  0  0
  7  8  1  0  0  0  0
  8  9  1  0  0  0  0
  8 29  1  0  0  0  0
  8 30  1  0  0  0  0
  9 10  1  0  0  0  0
  9 11  1  0  0  0  0
  9 31  1  0  0  0  0
 10 32  1  0  0  0  0
 11 12  1  0  0  0  0
 11 33  1  0  0  0  0
 11 34  1  0  0  0  0
 12 21  1  0  0  0  0
 12 13  1  0  0  0  0
 13 14  1  0  0  0  0
 13 15  2  0  0  0  0
 14 35  1  0  0  0  0
 14 36  1  0  0  0  0
 14 37  1  0  0  0  0
 15 16  1  0  0  0  0
 15 44  1  0  0  0  0
 16 21  2  0  0  0  0
 16 17  1  0  0  0  0
 17 18  2  0  0  0  0
 17 38  1  0  0  0  0
 18 19  1  0  0  0  0
 18 39  1  0  0  0  0
 19 20  2  0  0  0  0
 19 40  1  0  0  0  0
 20 21  1  0  0  0  0
 20 41  1  0  0  0  0
 22 23  2  0  0  0  0
 22 42  1  0  0  0  0
 23 43  1  0  0  0  0
M  CHG  1  15   1
M  END
> <s_m_source_file>
AV-unprocessed.smi

> <i_m_source_file_index>
486

> <i_lp_mmshare_version>
43012

> <i_f3d_flags>
0

> <s_epik_input>
W0NIM11PYzFbY0hdW2NIXWMoW2NIXVtjSF0xKU9bQ0gyXVtDQEhdKFtPSF0pW0NIMl1uKGMobjIpW0NIM10pYyhjMjMpW2NIXVtjSF1bY0hdW2NIXTM=

> <s_epik_cmdline>
J2VwaWtfcHl0aG9uJywgJy1waCcsICc3LjAnLCAnLXRuJywgJzgnLCAnLW1hJywgJzIwMCcsICctbWV0YWxfYmluZGluZycsICctaW1hZScsICc8aW5maWxlLm1hZT4nLCAnLW9tYWUnLCAnPG91dGZpbGUubWFlPic=

> <r_lp_tautomer_probability>
1

> <r_epik_Ionization_Penalty>
1.03234

> <r_epik_Ionization_Penalty_Charging>
1.03234

> <r_epik_Ionization_Penalty_Neutral>
2.3993e-06

> <r_epik_State_Penalty>
1.0836

> <r_epik_Charging_Adjusted_Penalty>
2.11594

> <i_epik_Tot_Q>
1

> <i_epik_Tot_abs_Q>
1

> <r_epik_Metal_State_Penalty>
5.07275

> <b_epik_Metal_Only>
0

> <s_lp_Force_Field>
OPLS_2005

> <r_lp_Energy>
23.3843

> <b_lp_Chiralities_Consistent>
1

> <s_lp_Variant>
AV-unprocessed.smi:486-4

> <Gold.Version>
5.8.1

> <Gold.Id.Protein>
6NUR|6NUR_protein|mol2

> <Gold.PLP.Fitness>
49.0791

> <Gold.PLP.PLP>
-45.1749

> <Gold.PLP.part.hbond>
-1.1382

> <Gold.PLP.part.metal>
0.0000

> <Gold.PLP.part.buried>
-5.3932

> <Gold.PLP.part.nonpolar>
-38.2307

> <Gold.PLP.part.repulsive>
0.0841

> <Gold.PLP.ligand.clash>
0.0000

> <Gold.PLP.ligand.torsion>
1.1188

> <Gold.PLP.Chemscore.Hbond>
2.0000

> <Gold.PLP.Chemscore.CHOScore>
0.0000

> <Gold.PLP.Chemscore.Metal>
0.0000

> <Gold.Chemscore.Hbonds>
donor molecule, donor type, donor heavy atom, donor atom, acceptor molecule, acceptor atom, score
      L1  H    15    44       P1  8028  2.00

> <Gold.PLP.Chemscore.Internal.Correction>
0.1419

> <Gold.Rescore>
     Score         DG    S(hbond)    S(metal)    S(lipo)     H(rot)  DE(clash)    DE(int)     intcor
     16.22     -17.54       1.00        0.00     127.04       2.40       0.24       1.08       ----

> <Gold.Chemscore.Fitness>
16.2213

> <Gold.Chemscore.DG>
-17.5406

> <Gold.Chemscore.ZeroCoef>
-5.4800

> <Gold.Chemscore.Hbond>
0.9966

> <Gold.Chemscore.Metal>
0.0000

> <Gold.Chemscore.Lipo>
127.0404

> <Gold.Chemscore.Internal_Hbond>
0.0000

> <Gold.Chemscore.DEClash>
0.2417

> <Gold.Chemscore.DEInternal>
1.0777

> <Gold.Chemscore.Rot>
2.3952

> <Gold.Chemscore.Internal.Correction>
   9.000000E+99

> <Gold.Chemscore.Hbonds>
donor molecule, donor type, donor heavy atom, donor atom, acceptor molecule, acceptor atom, score
      L1  H    15    44       P1  8028  0.99

> <Gold.Chemscore.Hbond.Weighted>
-3.3286

> <Gold.Chemscore.Metal.Weighted>
-0.0000

> <Gold.Chemscore.Lipo.Weighted>
-14.8637

> <Gold.Chemscore.Internal_Hbond.Weighted>
0.0000

> <Gold.Chemscore.DEClash.Weighted>
0.2417

> <Gold.Chemscore.DEInternal.Weighted>
1.0777

> <Gold.Chemscore.Rot.Weighted>
6.1316

> <Gold.Chemscore.Internal.Correction.Weighted>
   9.000000E+99

> <Gold.Protein.RotatedTorsions>
[ 6907 6896 6895 6894 ] final   92.59 input  -60.11 | X-H torsion
[ 7974 7965 7964 7962 ] final -152.06 input  175.53 | X-H torsion
[ 8008 7997 7996 7995 ] final   90.00 input   59.86 | X-H torsion
[ 10167 10162 10161 10158 ] final   25.09 input  -65.29 | X-H torsion
[ 10718 10713 10712 10709 ] final  -72.56 input   66.30 | X-H torsion
[ 10763 10752 10751 10750 ] final  -86.80 input  -60.55 | X-H torsion
[ 11005 11000 10999 10996 ] final  151.60 input  -57.11 | X-H torsion

> <Gold.Protein.ActiveResidues>
 VAL166  LYS551  ARG553  GLY616  TRP617  ASP618  TYR619  PRO620  LYS621  CYS622 
 ASP623  PHE694  ASN695  SER759  ASP760  ASP761  ALA762  ILE779  LEU786  VAL792 
 PHE793  MET794  SER795  GLU796  ALA797  LYS798  CYS799  TRP800  GLU811  SER814 

> <Gold.Protein.RotatedAtoms>
  152.5453  134.1478  159.8505 H   0  0  0  0  0  0  0  0  0  0  0  0  # atno 6907 bound_to 6896
  151.1508  133.4902  159.2603 H   0  0  0  0  0  0  0  0  0  0  0  0  # atno 6908 bound_to 6896
  151.1474  135.0221  159.8708 H   0  0  0  0  0  0  0  0  0  0  0  0  # atno 6909 bound_to 6896
  144.7815  140.4713  143.5836 H   0  0  0  0  0  0  0  0  0  0  0  0  # atno 7974 bound_to 7965
  156.0067  140.3354  155.6899 H   0  0  0  0  0  0  0  0  0  0  0  0  # atno 8008 bound_to 7997
  155.6215  140.0675  157.2694 H   0  0  0  0  0  0  0  0  0  0  0  0  # atno 8009 bound_to 7997
  154.4267  140.1776  156.1364 H   0  0  0  0  0  0  0  0  0  0  0  0  # atno 8010 bound_to 7997
  140.5135  144.0121  150.6383 H   0  0  0  0  0  0  0  0  0  0  0  0  # atno 10167 bound_to 10162
  156.0315  130.4375  150.2611 H   0  0  0  0  0  0  0  0  0  0  0  0  # atno 10718 bound_to 10713
  154.6266  135.5436  153.7633 H   0  0  0  0  0  0  0  0  0  0  0  0  # atno 10763 bound_to 10752
  153.0264  135.6425  154.1363 H   0  0  0  0  0  0  0  0  0  0  0  0  # atno 10764 bound_to 10752
  154.1295  135.2915  155.3168 H   0  0  0  0  0  0  0  0  0  0  0  0  # atno 10765 bound_to 10752
  140.1234  134.8849  157.2103 H   0  0  0  0  0  0  0  0  0  0  0  0  # atno 11005 bound_to 11000
  145.6038  139.1506  143.3114 LP  0  0  0  0  0  0  0  0  0  0  0  0  # atno 17320 bound_to 7965
  146.2025  140.6158  142.9096 LP  0  0  0  0  0  0  0  0  0  0  0  0  # atno 17321 bound_to 7965
  140.3450  143.2996  152.0547 LP  0  0  0  0  0  0  0  0  0  0  0  0  # atno 17342 bound_to 10162
  139.4902  144.6415  151.6867 LP  0  0  0  0  0  0  0  0  0  0  0  0  # atno 17343 bound_to 10162
  157.0713  131.0117  151.3189 LP  0  0  0  0  0  0  0  0  0  0  0  0  # atno 17370 bound_to 10713
  157.4997  130.7872  149.7592 LP  0  0  0  0  0  0  0  0  0  0  0  0  # atno 17371 bound_to 10713
  140.2936  134.3212  155.7308 LP  0  0  0  0  0  0  0  0  0  0  0  0  # atno 17394 bound_to 11000
  141.2156  133.7549  156.9539 LP  0  0  0  0  0  0  0  0  0  0  0  0  # atno 17395 bound_to 11000

$$$$
