AV-unprocessed.smi:2880|AV-procd|sdf|11053|dock8
  -GOLD-   2272015523D 1   1.00000     0.00000
 Structure written by MMmdl.
 47 48  0  0  0  0  0  0  0  0  1 V2000
  146.1908  132.6901  150.4524 C   0  0  0  0  0  0  0  0  0  0  0  0
  146.2330  133.3868  151.8262 C   0  0  0  0  0  0  0  0  0  0  0  0
  145.3265  132.6011  152.8035 C   0  0  0  0  0  0  0  0  0  0  0  0
  147.6731  133.3698  152.3750 C   0  0  0  0  0  0  0  0  0  0  0  0
  145.7997  134.7814  151.6656 N   0  0  0  0  0  0  0  0  0  0  0  0
  145.3503  135.4035  150.5128 C   0  0  0  0  0  0  0  0  0  0  0  0
  145.0496  136.7000  150.8192 C   0  0  0  0  0  0  0  0  0  0  0  0
  145.3500  136.7833  152.2048 C   0  0  0  0  0  0  0  0  0  0  0  0
  145.1688  137.9982  152.9134 N   0  0  0  0  0  0  0  0  0  0  0  0
  145.9839  138.5402  153.8343 C   0  0  0  0  0  0  0  0  0  0  0  0
  147.0376  138.0406  154.2296 O   0  0  0  0  0  0  0  0  0  0  0  0
  145.5028  139.7135  154.2713 N   0  0  0  0  0  0  0  0  0  0  0  0
  146.1355  140.5968  155.2539 C   0  0  2  0  0  0  0  0  0  0  0  0
  145.0752  141.5124  155.8988 C   0  0  0  0  0  0  0  0  0  0  0  0
  144.5344  142.5618  154.9128 C   0  0  0  0  0  0  0  0  0  0  0  0
  145.6757  143.3830  154.2957 C   0  0  0  0  0  0  0  0  0  0  0  0
  146.7233  142.4754  153.6316 C   0  0  0  0  0  0  0  0  0  0  0  0
  147.2829  141.4289  154.6190 C   0  0  2  0  0  0  0  0  0  0  0  0
  148.3786  140.5700  153.9524 C   0  0  0  0  0  0  0  0  0  0  0  0
  149.5641  141.3160  153.7736 O   0  0  0  0  0  0  0  0  0  0  0  0
  145.7952  135.6435  152.7111 N   0  0  0  0  0  0  0  0  0  0  0  0
  146.4976  131.6465  150.5276 H   0  0  0  0  0  0  0  0  0  0  0  0
  146.8547  133.1716  149.7336 H   0  0  0  0  0  0  0  0  0  0  0  0
  145.1846  132.7070  150.0320 H   0  0  0  0  0  0  0  0  0  0  0  0
  144.2932  132.5664  152.4556 H   0  0  0  0  0  0  0  0  0  0  0  0
  145.3288  133.0450  153.8000 H   0  0  0  0  0  0  0  0  0  0  0  0
  145.6637  131.5696  152.9106 H   0  0  0  0  0  0  0  0  0  0  0  0
  148.0295  132.3494  152.5202 H   0  0  0  0  0  0  0  0  0  0  0  0
  147.7342  133.8787  153.3378 H   0  0  0  0  0  0  0  0  0  0  0  0
  148.3711  133.8629  151.6979 H   0  0  0  0  0  0  0  0  0  0  0  0
  145.2820  134.8747  149.5735 H   0  0  0  0  0  0  0  0  0  0  0  0
  144.6746  137.4647  150.1557 H   0  0  0  0  0  0  0  0  0  0  0  0
  144.3349  138.5181  152.6840 H   0  0  0  0  0  0  0  0  0  0  0  0
  144.6272  140.0333  153.8845 H   0  0  0  0  0  0  0  0  0  0  0  0
  146.5634  139.9949  156.0572 H   0  0  0  0  0  0  0  0  0  0  0  0
  144.2536  140.9161  156.2978 H   0  0  0  0  0  0  0  0  0  0  0  0
  145.5190  142.0244  156.7536 H   0  0  0  0  0  0  0  0  0  0  0  0
  143.9669  142.0697  154.1220 H   0  0  0  0  0  0  0  0  0  0  0  0
  143.8360  143.2245  155.4244 H   0  0  0  0  0  0  0  0  0  0  0  0
  145.2747  144.0853  153.5643 H   0  0  0  0  0  0  0  0  0  0  0  0
  146.1530  143.9841  155.0706 H   0  0  0  0  0  0  0  0  0  0  0  0
  146.2803  141.9753  152.7693 H   0  0  0  0  0  0  0  0  0  0  0  0
  147.5357  143.0905  153.2432 H   0  0  0  0  0  0  0  0  0  0  0  0
  147.7627  141.9848  155.4266 H   0  0  0  0  0  0  0  0  0  0  0  0
  148.5982  139.6766  154.5373 H   0  0  0  0  0  0  0  0  0  0  0  0
  148.0456  140.2297  152.9715 H   0  0  0  0  0  0  0  0  0  0  0  0
  149.6110  141.9743  154.4500 H   0  0  0  0  0  0  0  0  0  0  0  0
  1  2  1  0  0  0  0
  1 22  1  0  0  0  0
  1 23  1  0  0  0  0
  1 24  1  0  0  0  0
  2  3  1  0  0  0  0
  2  4  1  0  0  0  0
  2  5  1  0  0  0  0
  3 25  1  0  0  0  0
  3 26  1  0  0  0  0
  3 27  1  0  0  0  0
  4 28  1  0  0  0  0
  4 29  1  0  0  0  0
  4 30  1  0  0  0  0
  5 21  1  0  0  0  0
  5  6  1  0  0  0  0
  6  7  2  0  0  0  0
  6 31  1  0  0  0  0
  7  8  1  0  0  0  0
  7 32  1  0  0  0  0
  8  9  1  0  0  0  0
  8 21  2  0  0  0  0
  9 10  1  0  0  0  0
  9 33  1  0  0  0  0
 10 11  2  0  0  0  0
 10 12  1  0  0  0  0
 12 13  1  0  0  0  0
 12 34  1  0  0  0  0
 13 18  1  0  0  0  0
 13 14  1  0  0  0  0
 13 35  1  0  0  0  0
 14 15  1  0  0  0  0
 14 36  1  0  0  0  0
 14 37  1  0  0  0  0
 15 16  1  0  0  0  0
 15 38  1  0  0  0  0
 15 39  1  0  0  0  0
 16 17  1  0  0  0  0
 16 40  1  0  0  0  0
 16 41  1  0  0  0  0
 17 18  1  0  0  0  0
 17 42  1  0  0  0  0
 17 43  1  0  0  0  0
 18 19  1  0  0  0  0
 18 44  1  0  0  0  0
 19 20  1  0  0  0  0
 19 45  1  0  0  0  0
 19 46  1  0  0  0  0
 20 47  1  0  0  0  0
M  END
> <s_m_source_file>
AV-unprocessed.smi

> <i_m_source_file_index>
2880

> <i_lp_mmshare_version>
43012

> <i_f3d_flags>
0

> <s_epik_input>
W0NIM11DKFtDSDNdKShbQ0gzXSluMVtjSF1bY0hdYyhuMSlbTkhdQyg9TylbTkhdW0NAQEhdMltDSDJdW0NIMl1bQ0gyXVtDSDJdW0NASF0yW0NIMl1bT0hd

> <s_epik_cmdline>
J2VwaWtfcHl0aG9uJywgJy1waCcsICc3LjAnLCAnLXRuJywgJzgnLCAnLW1hJywgJzIwMCcsICctbWV0YWxfYmluZGluZycsICctaW1hZScsICc8aW5maWxlLm1hZT4nLCAnLW9tYWUnLCAnPG91dGZpbGUubWFlPic=

> <r_lp_tautomer_probability>
1

> <r_epik_Ionization_Penalty>
3.89283e-05

> <r_epik_Ionization_Penalty_Charging>
0

> <r_epik_Ionization_Penalty_Neutral>
3.89283e-05

> <r_epik_State_Penalty>
-0

> <r_epik_Charging_Adjusted_Penalty>
0

> <i_epik_Tot_Q>
0

> <i_epik_Tot_abs_Q>
0

> <r_epik_Metal_State_Penalty>
-0

> <b_epik_Metal_Only>
0

> <s_lp_Force_Field>
OPLS_2005

> <r_lp_Energy>
20.6401

> <b_lp_Chiralities_Consistent>
1

> <s_lp_Variant>
AV-unprocessed.smi:2880-3

> <Gold.Version>
5.8.1

> <Gold.Id.Protein>
6NUR|6NUR_protein|mol2

> <Gold.PLP.Fitness>
41.9366

> <Gold.PLP.PLP>
-31.8162

> <Gold.PLP.part.hbond>
-5.0000

> <Gold.PLP.part.metal>
0.0000

> <Gold.PLP.part.buried>
2.3271

> <Gold.PLP.part.nonpolar>
-29.3266

> <Gold.PLP.part.repulsive>
0.2279

> <Gold.PLP.ligand.clash>
0.0000

> <Gold.PLP.ligand.torsion>
0.7641

> <Gold.PLP.Chemscore.Hbond>
2.8733

> <Gold.PLP.Chemscore.CHOScore>
1.0000

> <Gold.PLP.Chemscore.Metal>
0.0000

> <Gold.Chemscore.Hbonds>
donor molecule, donor type, donor heavy atom, donor atom, acceptor molecule, acceptor atom, score
      L1  H     9    33       P1 10175  0.78
      L1  H    12    34       P1 10175  0.99
      P1  H  7989  7998       L1    20  0.19
      P1  H  8011  8017       L1    20  0.75
      L1  C     6    31       P1  7921  1.00

> <Gold.PLP.Chemscore.Internal.Correction>
0.0287

> <Gold.Rescore>
     Score         DG    S(hbond)    S(metal)    S(lipo)     H(rot)  DE(clash)    DE(int)     intcor
     13.15     -16.99       2.45        0.00      71.51       1.97       2.96       0.89       ----

> <Gold.Chemscore.Fitness>
13.1476

> <Gold.Chemscore.DG>
-16.9929

> <Gold.Chemscore.ZeroCoef>
-5.4800

> <Gold.Chemscore.Hbond>
2.4499

> <Gold.Chemscore.Metal>
0.0000

> <Gold.Chemscore.Lipo>
71.5065

> <Gold.Chemscore.Internal_Hbond>
0.0000

> <Gold.Chemscore.DEClash>
2.9603

> <Gold.Chemscore.DEInternal>
0.8850

> <Gold.Chemscore.Rot>
1.9672

> <Gold.Chemscore.Internal.Correction>
   9.000000E+99

> <Gold.Chemscore.Hbonds>
donor molecule, donor type, donor heavy atom, donor atom, acceptor molecule, acceptor atom, score
      L1  H     9    33       P1 10175  0.75
      L1  H    12    34       P1 10175  0.94
      P1  H  7989  7998       L1    20  0.06
      P1  H  8011  8017       L1    20  0.15

> <Gold.Chemscore.Hbond.Weighted>
-8.1827

> <Gold.Chemscore.Metal.Weighted>
-0.0000

> <Gold.Chemscore.Lipo.Weighted>
-8.3663

> <Gold.Chemscore.Internal_Hbond.Weighted>
0.0000

> <Gold.Chemscore.DEClash.Weighted>
2.9603

> <Gold.Chemscore.DEInternal.Weighted>
0.8850

> <Gold.Chemscore.Rot.Weighted>
5.0360

> <Gold.Chemscore.Internal.Correction.Weighted>
   9.000000E+99

> <Gold.Protein.RotatedTorsions>
[ 6907 6896 6895 6894 ] final -104.35 input  -60.11 | X-H torsion
[ 7974 7965 7964 7962 ] final   30.31 input  175.53 | X-H torsion
[ 8008 7997 7996 7995 ] final  -70.18 input   59.86 | X-H torsion
[ 10167 10162 10161 10158 ] final   44.31 input  -65.29 | X-H torsion
[ 10718 10713 10712 10709 ] final   67.21 input   66.30 | X-H torsion
[ 10763 10752 10751 10750 ] final -101.92 input  -60.55 | X-H torsion
[ 11005 11000 10999 10996 ] final   88.31 input  -57.11 | X-H torsion

> <Gold.Protein.ActiveResidues>
 VAL166  LYS551  ARG553  GLY616  TRP617  ASP618  TYR619  PRO620  LYS621  CYS622 
 ASP623  PHE694  ASN695  SER759  ASP760  ASP761  ALA762  ILE779  LEU786  VAL792 
 PHE793  MET794  SER795  GLU796  ALA797  LYS798  CYS799  TRP800  GLU811  SER814 

> <Gold.Protein.RotatedAtoms>
  150.7283  134.0291  159.3726 H   0  0  0  0  0  0  0  0  0  0  0  0  # atno 6907 bound_to 6896
  151.8259  135.0635  160.0440 H   0  0  0  0  0  0  0  0  0  0  0  0  # atno 6908 bound_to 6896
  152.2969  133.5580  159.5630 H   0  0  0  0  0  0  0  0  0  0  0  0  # atno 6909 bound_to 6896
  146.1619  139.6805  142.9028 H   0  0  0  0  0  0  0  0  0  0  0  0  # atno 7974 bound_to 7965
  154.4993  140.0839  156.7763 H   0  0  0  0  0  0  0  0  0  0  0  0  # atno 8008 bound_to 7997
  155.4042  140.3438  155.4241 H   0  0  0  0  0  0  0  0  0  0  0  0  # atno 8009 bound_to 7997
  156.1435  140.1536  156.8871 H   0  0  0  0  0  0  0  0  0  0  0  0  # atno 8010 bound_to 7997
  140.3356  144.2534  150.6162 H   0  0  0  0  0  0  0  0  0  0  0  0  # atno 10167 bound_to 10162
  157.6216  130.9309  150.0212 H   0  0  0  0  0  0  0  0  0  0  0  0  # atno 10718 bound_to 10713
  154.7694  135.4880  153.9619 H   0  0  0  0  0  0  0  0  0  0  0  0  # atno 10763 bound_to 10752
  153.1349  135.6760  153.9126 H   0  0  0  0  0  0  0  0  0  0  0  0  # atno 10764 bound_to 10752
  153.8819  135.3131  155.3424 H   0  0  0  0  0  0  0  0  0  0  0  0  # atno 10765 bound_to 10752
  139.8899  134.8479  156.2983 H   0  0  0  0  0  0  0  0  0  0  0  0  # atno 11005 bound_to 11000
  145.4566  141.0431  143.2775 LP  0  0  0  0  0  0  0  0  0  0  0  0  # atno 17320 bound_to 7965
  144.8039  139.6089  143.7059 LP  0  0  0  0  0  0  0  0  0  0  0  0  # atno 17321 bound_to 7965
  140.5356  143.2234  151.8167 LP  0  0  0  0  0  0  0  0  0  0  0  0  # atno 17342 bound_to 10162
  139.4849  144.4665  151.9478 LP  0  0  0  0  0  0  0  0  0  0  0  0  # atno 17343 bound_to 10162
  156.1365  130.3642  149.9648 LP  0  0  0  0  0  0  0  0  0  0  0  0  # atno 17370 bound_to 10713
  156.7698  130.9182  151.3644 LP  0  0  0  0  0  0  0  0  0  0  0  0  # atno 17371 bound_to 10713
  140.9930  133.7197  156.0843 LP  0  0  0  0  0  0  0  0  0  0  0  0  # atno 17394 bound_to 11000
  140.7599  134.3950  157.5527 LP  0  0  0  0  0  0  0  0  0  0  0  0  # atno 17395 bound_to 11000

$$$$
