AV-unprocessed.smi:275|AV-procd|sdf|2062|dock10
  -GOLD-   2262021313D 1   1.00000     0.00000
 Structure written by MMmdl.
 65 69  0  0  0  0  0  0  0  0  1 V2000
  147.6817  135.0424  154.7387 C   0  0  0  0  0  0  0  0  0  0  0  0
  148.6169  133.8153  154.7041 C   0  0  0  0  0  0  0  0  0  0  0  0
  147.8128  132.5532  154.3515 C   0  0  0  0  0  0  0  0  0  0  0  0
  149.4786  133.5758  155.9641 C   0  0  2  0  0  0  0  0  0  0  0  0
  150.7495  134.2904  155.9829 N   0  0  0  0  0  0  0  0  0  0  0  0
  150.7116  135.5970  156.5379 C   0  0  0  0  0  0  0  0  0  0  0  0
  150.1168  135.7167  157.7515 N   0  0  0  0  0  0  0  0  0  0  0  0
  150.0347  136.8985  158.3689 C   0  0  0  0  0  0  0  0  0  0  0  0
  150.4766  138.0862  157.9559 N   0  0  0  0  0  0  0  0  0  0  0  0
  151.0782  137.9851  156.7378 C   0  0  0  0  0  0  0  0  0  0  0  0
  151.2380  136.7963  155.9687 C   0  0  0  0  0  0  0  0  0  0  0  0
  151.9045  137.0959  154.7847 N   0  0  0  0  0  0  0  0  0  0  0  0
  152.1249  138.3802  154.8512 C   0  0  0  0  0  0  0  0  0  0  0  0
  151.6535  138.9946  155.9880 N   0  0  0  0  0  0  0  0  0  0  0  0
  151.7492  140.4047  156.3228 C   0  0  0  0  0  0  0  0  0  0  0  0
  150.6379  140.8764  157.2937 C   0  0  2  0  0  0  0  0  0  0  0  0
  149.2619  141.0223  156.5996 C   0  0  0  0  0  0  0  0  0  0  0  0
  149.3083  141.9715  155.5538 O   0  0  0  0  0  0  0  0  0  0  0  0
  151.0510  142.1616  158.0548 C   0  0  2  0  0  0  0  0  0  0  0  0
  151.4569  143.3247  157.1668 C   0  0  0  0  0  0  0  0  0  0  0  0
  152.2268  144.2170  158.1345 C   0  0  0  0  0  0  0  0  0  0  0  0
  152.8384  143.3353  159.0694 O   0  0  0  0  0  0  0  0  0  0  0  0
  152.3100  142.0217  158.9170 C   0  0  0  0  0  0  0  0  0  0  0  0
  151.3425  133.2678  156.8318 C   0  0  0  0  0  0  0  0  0  0  0  0
  150.2966  132.2941  156.2573 C   0  0  0  0  0  0  0  0  0  0  0  0
  149.6308  131.3416  157.2654 C   0  0  0  0  0  0  0  0  0  0  0  0
  150.5573  130.2093  157.7359 C   0  0  0  0  0  0  0  0  0  0  0  0
  151.0619  129.3832  156.5482 C   0  0  0  0  0  0  0  0  0  0  0  0
  151.7182  130.2852  155.4975 C   0  0  0  0  0  0  0  0  0  0  0  0
  150.7843  131.4323  155.0732 C   0  0  0  0  0  0  0  0  0  0  0  0
  146.9990  135.0124  155.5882 H   0  0  0  0  0  0  0  0  0  0  0  0
  147.0683  135.0801  153.8383 H   0  0  0  0  0  0  0  0  0  0  0  0
  148.2256  135.9826  154.7708 H   0  0  0  0  0  0  0  0  0  0  0  0
  149.3020  133.9730  153.8702 H   0  0  0  0  0  0  0  0  0  0  0  0
  147.0706  132.3276  155.1177 H   0  0  0  0  0  0  0  0  0  0  0  0
  148.4640  131.6842  154.2541 H   0  0  0  0  0  0  0  0  0  0  0  0
  147.2850  132.6725  153.4051 H   0  0  0  0  0  0  0  0  0  0  0  0
  148.8999  133.8046  156.8598 H   0  0  0  0  0  0  0  0  0  0  0  0
  149.5444  136.8901  159.3312 H   0  0  0  0  0  0  0  0  0  0  0  0
  152.6320  138.9195  154.0642 H   0  0  0  0  0  0  0  0  0  0  0  0
  152.7354  140.5728  156.7558 H   0  0  0  0  0  0  0  0  0  0  0  0
  151.7162  140.9833  155.3987 H   0  0  0  0  0  0  0  0  0  0  0  0
  150.5183  140.0897  158.0401 H   0  0  0  0  0  0  0  0  0  0  0  0
  148.9249  140.0689  156.1927 H   0  0  0  0  0  0  0  0  0  0  0  0
  148.4972  141.3268  157.3138 H   0  0  0  0  0  0  0  0  0  0  0  0
  149.1836  142.8326  155.9234 H   0  0  0  0  0  0  0  0  0  0  0  0
  150.2287  142.4895  158.6930 H   0  0  0  0  0  0  0  0  0  0  0  0
  152.1162  142.9836  156.3673 H   0  0  0  0  0  0  0  0  0  0  0  0
  150.6092  143.8392  156.7139 H   0  0  0  0  0  0  0  0  0  0  0  0
  152.9657  144.8395  157.6294 H   0  0  0  0  0  0  0  0  0  0  0  0
  151.5423  144.8728  158.6739 H   0  0  0  0  0  0  0  0  0  0  0  0
  152.1032  141.5697  159.8874 H   0  0  0  0  0  0  0  0  0  0  0  0
  153.0588  141.4097  158.4122 H   0  0  0  0  0  0  0  0  0  0  0  0
  152.3742  133.0329  156.5699 H   0  0  0  0  0  0  0  0  0  0  0  0
  151.2277  133.4479  157.9009 H   0  0  0  0  0  0  0  0  0  0  0  0
  149.2895  131.8963  158.1404 H   0  0  0  0  0  0  0  0  0  0  0  0
  148.7311  130.9090  156.8259 H   0  0  0  0  0  0  0  0  0  0  0  0
  151.4050  130.6301  158.2780 H   0  0  0  0  0  0  0  0  0  0  0  0
  150.0296  129.5638  158.4385 H   0  0  0  0  0  0  0  0  0  0  0  0
  151.7695  128.6270  156.8893 H   0  0  0  0  0  0  0  0  0  0  0  0
  150.2265  128.8466  156.0967 H   0  0  0  0  0  0  0  0  0  0  0  0
  152.6437  130.6977  155.9006 H   0  0  0  0  0  0  0  0  0  0  0  0
  152.0005  129.6941  154.6259 H   0  0  0  0  0  0  0  0  0  0  0  0
  149.9315  131.0218  154.5312 H   0  0  0  0  0  0  0  0  0  0  0  0
  151.3358  132.0451  154.3611 H   0  0  0  0  0  0  0  0  0  0  0  0
  1  2  1  0  0  0  0
  1 31  1  0  0  0  0
  1 32  1  0  0  0  0
  1 33  1  0  0  0  0
  2  3  1  0  0  0  0
  2  4  1  0  0  0  0
  2 34  1  0  0  0  0
  3 35  1  0  0  0  0
  3 36  1  0  0  0  0
  3 37  1  0  0  0  0
  4 25  1  0  0  0  0
  4  5  1  0  0  0  0
  4 38  1  0  0  0  0
  5  6  1  0  0  0  0
  5 24  1  0  0  0  0
  6 11  1  0  0  0  0
  6  7  2  0  0  0  0
  7  8  1  0  0  0  0
  8  9  2  0  0  0  0
  8 39  1  0  0  0  0
  9 10  1  0  0  0  0
 10 14  1  0  0  0  0
 10 11  2  0  0  0  0
 11 12  1  0  0  0  0
 12 13  2  0  0  0  0
 13 14  1  0  0  0  0
 13 40  1  0  0  0  0
 14 15  1  0  0  0  0
 15 16  1  0  0  0  0
 15 41  1  0  0  0  0
 15 42  1  0  0  0  0
 16 17  1  0  0  0  0
 16 19  1  0  0  0  0
 16 43  1  0  0  0  0
 17 18  1  0  0  0  0
 17 44  1  0  0  0  0
 17 45  1  0  0  0  0
 18 46  1  0  0  0  0
 19 23  1  0  0  0  0
 19 20  1  0  0  0  0
 19 47  1  0  0  0  0
 20 21  1  0  0  0  0
 20 48  1  0  0  0  0
 20 49  1  0  0  0  0
 21 22  1  0  0  0  0
 21 50  1  0  0  0  0
 21 51  1  0  0  0  0
 22 23  1  0  0  0  0
 23 52  1  0  0  0  0
 23 53  1  0  0  0  0
 24 25  1  0  0  0  0
 24 54  1  0  0  0  0
 24 55  1  0  0  0  0
 25 30  1  0  0  0  0
 25 26  1  0  0  0  0
 26 27  1  0  0  0  0
 26 56  1  0  0  0  0
 26 57  1  0  0  0  0
 27 28  1  0  0  0  0
 27 58  1  0  0  0  0
 27 59  1  0  0  0  0
 28 29  1  0  0  0  0
 28 60  1  0  0  0  0
 28 61  1  0  0  0  0
 29 30  1  0  0  0  0
 29 62  1  0  0  0  0
 29 63  1  0  0  0  0
 30 64  1  0  0  0  0
 30 65  1  0  0  0  0
M  END
> <s_m_source_file>
AV-unprocessed.smi

> <i_m_source_file_index>
275

> <i_lp_mmshare_version>
43012

> <i_f3d_flags>
0

> <s_epik_input>
W0NIMl0xW0NIMl1bQ0gyXVtDSDJdW0NIMl1DMTJbQ0BIXShbQ0hdKFtDSDNdKVtDSDNdKU4oW0NIMl0yKWMobltjSF1uMyljKGMzNCluW2NIXW40W0NIMl1bQ0BIXShbQ0gyXVtPSF0pW0NAQEhdNVtDSDJdW0NIMl1PW0NIMl01

> <s_epik_cmdline>
J2VwaWtfcHl0aG9uJywgJy1waCcsICc3LjAnLCAnLXRuJywgJzgnLCAnLW1hJywgJzIwMCcsICctbWV0YWxfYmluZGluZycsICctaW1hZScsICc8aW5maWxlLm1hZT4nLCAnLW9tYWUnLCAnPG91dGZpbGUubWFlPic=

> <r_lp_tautomer_probability>
1

> <r_epik_Ionization_Penalty>
0.00375122

> <r_epik_Ionization_Penalty_Charging>
0

> <r_epik_Ionization_Penalty_Neutral>
0.00375122

> <r_epik_State_Penalty>
0.00260593

> <r_epik_Charging_Adjusted_Penalty>
0.00260593

> <i_epik_Tot_Q>
0

> <i_epik_Tot_abs_Q>
0

> <r_epik_Metal_State_Penalty>
-0

> <b_epik_Metal_Only>
0

> <s_lp_Force_Field>
OPLS_2005

> <r_lp_Energy>
69.4255

> <b_lp_Chiralities_Consistent>
1

> <s_lp_Variant>
AV-unprocessed.smi:275-1

> <Gold.Version>
5.8.1

> <Gold.Id.Protein>
6NUR|6NUR_protein|mol2

> <Gold.PLP.Fitness>
45.5904

> <Gold.PLP.PLP>
-41.3065

> <Gold.PLP.part.hbond>
-2.9648

> <Gold.PLP.part.metal>
0.0000

> <Gold.PLP.part.buried>
-7.1797

> <Gold.PLP.part.nonpolar>
-32.2211

> <Gold.PLP.part.repulsive>
0.1432

> <Gold.PLP.ligand.clash>
0.0000

> <Gold.PLP.ligand.torsion>
1.1906

> <Gold.PLP.Chemscore.Hbond>
2.0334

> <Gold.PLP.Chemscore.CHOScore>
0.0000

> <Gold.PLP.Chemscore.Metal>
0.0000

> <Gold.Chemscore.Hbonds>
donor molecule, donor type, donor heavy atom, donor atom, acceptor molecule, acceptor atom, score
      L1  H    18    46       P1  8028  0.98
      P1  H  6896  6908       L1     7  0.28
      P1  H 10752 10763       L1    12  0.78

> <Gold.PLP.Chemscore.Internal.Correction>
0.5649

> <Gold.Rescore>
     Score         DG    S(hbond)    S(metal)    S(lipo)     H(rot)  DE(clash)    DE(int)     intcor
     13.46     -16.96       1.70        0.00     105.04       2.54       0.13       3.37       ----

> <Gold.Chemscore.Fitness>
13.4579

> <Gold.Chemscore.DG>
-16.9581

> <Gold.Chemscore.ZeroCoef>
-5.4800

> <Gold.Chemscore.Hbond>
1.7020

> <Gold.Chemscore.Metal>
0.0000

> <Gold.Chemscore.Lipo>
105.0436

> <Gold.Chemscore.Internal_Hbond>
0.0000

> <Gold.Chemscore.DEClash>
0.1315

> <Gold.Chemscore.DEInternal>
3.3687

> <Gold.Chemscore.Rot>
2.5377

> <Gold.Chemscore.Internal.Correction>
   9.000000E+99

> <Gold.Chemscore.Hbonds>
donor molecule, donor type, donor heavy atom, donor atom, acceptor molecule, acceptor atom, score
      L1  H    18    46       P1  8028  0.93
      P1  H  6896  6908       L1     7  0.12
      P1  H 10752 10763       L1    12  0.70

> <Gold.Chemscore.Hbond.Weighted>
-5.6846

> <Gold.Chemscore.Metal.Weighted>
-0.0000

> <Gold.Chemscore.Lipo.Weighted>
-12.2901

> <Gold.Chemscore.Internal_Hbond.Weighted>
0.0000

> <Gold.Chemscore.DEClash.Weighted>
0.1315

> <Gold.Chemscore.DEInternal.Weighted>
3.3687

> <Gold.Chemscore.Rot.Weighted>
6.4966

> <Gold.Chemscore.Internal.Correction.Weighted>
   9.000000E+99

> <Gold.Protein.RotatedTorsions>
[ 6907 6896 6895 6894 ] final  148.83 input  -60.11 | X-H torsion
[ 7974 7965 7964 7962 ] final -175.89 input  175.53 | X-H torsion
[ 8008 7997 7996 7995 ] final   19.94 input   59.86 | X-H torsion
[ 10167 10162 10161 10158 ] final   67.70 input  -65.29 | X-H torsion
[ 10718 10713 10712 10709 ] final   16.30 input   66.30 | X-H torsion
[ 10763 10752 10751 10750 ] final   29.87 input  -60.55 | X-H torsion
[ 11005 11000 10999 10996 ] final  175.78 input  -57.11 | X-H torsion

> <Gold.Protein.ActiveResidues>
 VAL166  LYS551  ARG553  GLY616  TRP617  ASP618  TYR619  PRO620  LYS621  CYS622 
 ASP623  PHE694  ASN695  SER759  ASP760  ASP761  ALA762  ILE779  LEU786  VAL792 
 PHE793  MET794  SER795  GLU796  ALA797  LYS798  CYS799  TRP800  GLU811  SER814 

> <Gold.Protein.RotatedAtoms>
  152.1363  133.4437  159.4744 H   0  0  0  0  0  0  0  0  0  0  0  0  # atno 6907 bound_to 6896
  150.6882  134.2360  159.4462 H   0  0  0  0  0  0  0  0  0  0  0  0  # atno 6908 bound_to 6896
  152.0248  134.9802  160.0622 H   0  0  0  0  0  0  0  0  0  0  0  0  # atno 6909 bound_to 6896
  144.7127  140.1252  143.6402 H   0  0  0  0  0  0  0  0  0  0  0  0  # atno 7974 bound_to 7965
  154.9282  140.3036  155.5181 H   0  0  0  0  0  0  0  0  0  0  0  0  # atno 8008 bound_to 7997
  156.3005  140.2359  156.4275 H   0  0  0  0  0  0  0  0  0  0  0  0  # atno 8009 bound_to 7997
  154.8264  140.0420  157.1435 H   0  0  0  0  0  0  0  0  0  0  0  0  # atno 8010 bound_to 7997
  140.0866  144.5024  150.7126 H   0  0  0  0  0  0  0  0  0  0  0  0  # atno 10167 bound_to 10162
  157.0659  130.6328  149.5795 H   0  0  0  0  0  0  0  0  0  0  0  0  # atno 10718 bound_to 10713
  153.0405  135.6478  154.0957 H   0  0  0  0  0  0  0  0  0  0  0  0  # atno 10763 bound_to 10752
  154.0664  135.2884  155.3317 H   0  0  0  0  0  0  0  0  0  0  0  0  # atno 10764 bound_to 10752
  154.6623  135.5387  153.8099 H   0  0  0  0  0  0  0  0  0  0  0  0  # atno 10765 bound_to 10752
  140.3659  134.7072  157.4361 H   0  0  0  0  0  0  0  0  0  0  0  0  # atno 11005 bound_to 11000
  145.9335  139.2622  143.1311 LP  0  0  0  0  0  0  0  0  0  0  0  0  # atno 17320 bound_to 7965
  145.9498  140.8917  143.0265 LP  0  0  0  0  0  0  0  0  0  0  0  0  # atno 17321 bound_to 7965
  140.7050  143.2461  151.4753 LP  0  0  0  0  0  0  0  0  0  0  0  0  # atno 17342 bound_to 10162
  139.5748  144.1844  152.1888 LP  0  0  0  0  0  0  0  0  0  0  0  0  # atno 17343 bound_to 10162
  155.9964  130.5034  150.7497 LP  0  0  0  0  0  0  0  0  0  0  0  0  # atno 17370 bound_to 10713
  157.4917  131.0911  151.0419 LP  0  0  0  0  0  0  0  0  0  0  0  0  # atno 17371 bound_to 10713
  140.0590  134.6023  155.8771 LP  0  0  0  0  0  0  0  0  0  0  0  0  # atno 17394 bound_to 11000
  141.1970  133.6594  156.5718 LP  0  0  0  0  0  0  0  0  0  0  0  0  # atno 17395 bound_to 11000

$$$$
