AV-unprocessed.smi:2168|AV-procd|sdf|8819|dock6
  -GOLD-   2272012 13D 1   1.00000     0.00000
 Structure written by MMmdl.
 47 48  0  0  0  0  0  0  0  0  2 V2000
  149.6733  133.7416  154.8373 C   0  0  0  0  0  0  0  0  0  0  0  0
  150.3859  135.0926  154.9979 C   0  0  0  0  0  0  0  0  0  0  0  0
  149.6769  136.0102  155.9102 N   0  0  0  0  0  0  0  0  0  0  0  0
  150.3289  136.3019  157.2022 C   0  0  0  0  0  0  0  0  0  0  0  0
  149.3376  136.3597  158.3758 C   0  0  0  0  0  0  0  0  0  0  0  0
  148.4129  137.0403  155.3094 S   0  0  0  0  0  0  0  0  0  0  0  0
  147.3273  136.2106  154.7652 O   0  0  0  0  0  0  0  0  0  0  0  0
  148.1381  138.0882  156.3049 O   0  0  0  0  0  0  0  0  0  0  0  0
  149.2414  137.7610  153.9808 N   0  0  0  0  0  0  0  0  0  0  0  0
  149.1055  139.1952  153.7398 C   0  0  0  0  0  0  0  0  0  0  0  0
  149.6691  140.0262  154.8764 C   0  0  0  0  0  0  0  0  0  0  0  0
  150.4915  139.4394  155.8603 C   0  0  0  0  0  0  0  0  0  0  0  0
  151.0214  140.2430  156.8909 C   0  0  0  0  0  0  0  0  0  0  0  0
  150.7260  141.6277  156.9296 C   0  0  0  0  0  0  0  0  0  0  0  0
  151.2368  142.4819  157.9309 N   0  0  0  0  0  0  0  0  0  0  0  0
  151.6317  143.8186  157.4941 C   0  0  0  0  0  0  0  0  0  0  0  0
  151.8587  144.7337  158.7094 C   0  0  0  0  0  0  0  0  0  0  0  0
  152.8008  144.1354  159.5928 O   0  0  0  0  0  0  0  0  0  0  0  0
  152.3353  142.8892  160.0983 C   0  0  0  0  0  0  0  0  0  0  0  0
  152.1281  141.9046  158.9351 C   0  0  0  0  0  0  0  0  0  0  0  0
  149.9303  142.1412  155.9580 N   0  3  0  0  0  0  0  0  0  0  0  0
  149.3991  141.4073  154.9569 C   0  0  0  0  0  0  0  0  0  0  0  0
  150.2552  133.0792  154.1963 H   0  0  0  0  0  0  0  0  0  0  0  0
  148.6931  133.8564  154.3755 H   0  0  0  0  0  0  0  0  0  0  0  0
  149.5425  133.2366  155.7937 H   0  0  0  0  0  0  0  0  0  0  0  0
  151.4002  134.9306  155.3616 H   0  0  0  0  0  0  0  0  0  0  0  0
  150.4893  135.5714  154.0237 H   0  0  0  0  0  0  0  0  0  0  0  0
  151.0757  135.5317  157.3963 H   0  0  0  0  0  0  0  0  0  0  0  0
  150.8758  137.2430  157.1343 H   0  0  0  0  0  0  0  0  0  0  0  0
  149.8488  136.6570  159.2915 H   0  0  0  0  0  0  0  0  0  0  0  0
  148.8834  135.3874  158.5643 H   0  0  0  0  0  0  0  0  0  0  0  0
  148.5356  137.0755  158.2003 H   0  0  0  0  0  0  0  0  0  0  0  0
  149.2269  137.1915  153.1348 H   0  0  0  0  0  0  0  0  0  0  0  0
  149.6450  139.4479  152.8268 H   0  0  0  0  0  0  0  0  0  0  0  0
  148.0561  139.4353  153.5638 H   0  0  0  0  0  0  0  0  0  0  0  0
  150.7267  138.3857  155.8222 H   0  0  0  0  0  0  0  0  0  0  0  0
  151.6671  139.7881  157.6267 H   0  0  0  0  0  0  0  0  0  0  0  0
  152.5498  143.7406  156.9104 H   0  0  0  0  0  0  0  0  0  0  0  0
  150.8816  144.2720  156.8481 H   0  0  0  0  0  0  0  0  0  0  0  0
  152.2423  145.7007  158.3839 H   0  0  0  0  0  0  0  0  0  0  0  0
  150.9208  144.9240  159.2337 H   0  0  0  0  0  0  0  0  0  0  0  0
  153.0699  142.4929  160.7992 H   0  0  0  0  0  0  0  0  0  0  0  0
  151.4086  143.0335  160.6563 H   0  0  0  0  0  0  0  0  0  0  0  0
  151.7106  140.9750  159.3237 H   0  0  0  0  0  0  0  0  0  0  0  0
  153.0867  141.6657  158.4726 H   0  0  0  0  0  0  0  0  0  0  0  0
  148.7883  141.9469  154.2476 H   0  0  0  0  0  0  0  0  0  0  0  0
  149.7206  143.1391  155.9838 H   0  0  0  0  0  0  0  0  0  0  0  0
  1  2  1  0  0  0  0
  1 23  1  0  0  0  0
  1 24  1  0  0  0  0
  1 25  1  0  0  0  0
  2  3  1  0  0  0  0
  2 26  1  0  0  0  0
  2 27  1  0  0  0  0
  3  4  1  0  0  0  0
  3  6  1  0  0  0  0
  4  5  1  0  0  0  0
  4 28  1  0  0  0  0
  4 29  1  0  0  0  0
  5 30  1  0  0  0  0
  5 31  1  0  0  0  0
  5 32  1  0  0  0  0
  6  7  2  0  0  0  0
  6  8  2  0  0  0  0
  6  9  1  0  0  0  0
  9 10  1  0  0  0  0
  9 33  1  0  0  0  0
 10 11  1  0  0  0  0
 10 34  1  0  0  0  0
 10 35  1  0  0  0  0
 11 22  1  0  0  0  0
 11 12  2  0  0  0  0
 12 13  1  0  0  0  0
 12 36  1  0  0  0  0
 13 14  2  0  0  0  0
 13 37  1  0  0  0  0
 14 15  1  0  0  0  0
 14 21  1  0  0  0  0
 15 20  1  0  0  0  0
 15 16  1  0  0  0  0
 16 17  1  0  0  0  0
 16 38  1  0  0  0  0
 16 39  1  0  0  0  0
 17 18  1  0  0  0  0
 17 40  1  0  0  0  0
 17 41  1  0  0  0  0
 18 19  1  0  0  0  0
 19 20  1  0  0  0  0
 19 42  1  0  0  0  0
 19 43  1  0  0  0  0
 20 44  1  0  0  0  0
 20 45  1  0  0  0  0
 21 22  2  0  0  0  0
 21 47  1  0  0  0  0
 22 46  1  0  0  0  0
M  CHG  1  21   1
M  END
> <s_m_source_file>
AV-unprocessed.smi

> <i_m_source_file_index>
2168

> <i_lp_mmshare_version>
43012

> <i_f3d_flags>
0

> <s_epik_input>
W0NIM11bQ0gyXU4oW0NIMl1bQ0gzXSlTKD1PKSg9TylbTkhdW0NIMl1jMVtjSF1bY0hdYyhuW2NIXTEpTjJbQ0gyXVtDSDJdT1tDSDJdW0NIMl0y

> <s_epik_cmdline>
J2VwaWtfcHl0aG9uJywgJy1waCcsICc3LjAnLCAnLXRuJywgJzgnLCAnLW1hJywgJzIwMCcsICctbWV0YWxfYmluZGluZycsICctaW1hZScsICc8aW5maWxlLm1hZT4nLCAnLW9tYWUnLCAnPG91dGZpbGUubWFlPic=

> <r_lp_tautomer_probability>
0.999994

> <r_epik_Ionization_Penalty>
2.66893

> <r_epik_Ionization_Penalty_Charging>
2.61323

> <r_epik_Ionization_Penalty_Neutral>
0.0557011

> <r_epik_State_Penalty>
2.68492

> <r_epik_Charging_Adjusted_Penalty>
5.29815

> <i_epik_Tot_Q>
1

> <i_epik_Tot_abs_Q>
1

> <r_epik_Metal_State_Penalty>
5.63236

> <b_epik_Metal_Only>
0

> <s_lp_Force_Field>
OPLS_2005

> <r_lp_Energy>
21.5493

> <b_lp_Chiralities_Consistent>
1

> <s_lp_Variant>
AV-unprocessed.smi:2168-2

> <Gold.Version>
5.8.1

> <Gold.Id.Protein>
6NUR|6NUR_protein|mol2

> <Gold.PLP.Fitness>
43.5056

> <Gold.PLP.PLP>
-36.0865

> <Gold.PLP.part.hbond>
-2.0000

> <Gold.PLP.part.metal>
0.0000

> <Gold.PLP.part.buried>
-2.8592

> <Gold.PLP.part.nonpolar>
-32.6646

> <Gold.PLP.part.repulsive>
0.2794

> <Gold.PLP.ligand.clash>
0.0035

> <Gold.PLP.ligand.torsion>
2.2090

> <Gold.PLP.Chemscore.Hbond>
3.0000

> <Gold.PLP.Chemscore.CHOScore>
0.0000

> <Gold.PLP.Chemscore.Metal>
0.0000

> <Gold.Chemscore.Hbonds>
donor molecule, donor type, donor heavy atom, donor atom, acceptor molecule, acceptor atom, score
      L1  H     9    33       P1  7948  1.00
      L1  H    21    47       P1  8028  2.00

> <Gold.PLP.Chemscore.Internal.Correction>
2.8406

> <Gold.Rescore>
     Score         DG    S(hbond)    S(metal)    S(lipo)     H(rot)  DE(clash)    DE(int)     intcor
     13.08     -18.14       2.00        0.00      94.80       1.99       0.27       4.79       ----

> <Gold.Chemscore.Fitness>
13.0794

> <Gold.Chemscore.DG>
-18.1429

> <Gold.Chemscore.ZeroCoef>
-5.4800

> <Gold.Chemscore.Hbond>
1.9982

> <Gold.Chemscore.Metal>
0.0000

> <Gold.Chemscore.Lipo>
94.7988

> <Gold.Chemscore.Internal_Hbond>
0.0000

> <Gold.Chemscore.DEClash>
0.2728

> <Gold.Chemscore.DEInternal>
4.7907

> <Gold.Chemscore.Rot>
1.9932

> <Gold.Chemscore.Internal.Correction>
   9.000000E+99

> <Gold.Chemscore.Hbonds>
donor molecule, donor type, donor heavy atom, donor atom, acceptor molecule, acceptor atom, score
      L1  H     9    33       P1  7948  0.97
      L1  H    21    47       P1  8028  1.00

> <Gold.Chemscore.Hbond.Weighted>
-6.6740

> <Gold.Chemscore.Metal.Weighted>
-0.0000

> <Gold.Chemscore.Lipo.Weighted>
-11.0915

> <Gold.Chemscore.Internal_Hbond.Weighted>
0.0000

> <Gold.Chemscore.DEClash.Weighted>
0.2728

> <Gold.Chemscore.DEInternal.Weighted>
4.7907

> <Gold.Chemscore.Rot.Weighted>
5.1025

> <Gold.Chemscore.Internal.Correction.Weighted>
   9.000000E+99

> <Gold.Protein.RotatedTorsions>
[ 6907 6896 6895 6894 ] final  163.65 input  -60.11 | X-H torsion
[ 7974 7965 7964 7962 ] final  -72.51 input  175.53 | X-H torsion
[ 8008 7997 7996 7995 ] final  171.67 input   59.86 | X-H torsion
[ 10167 10162 10161 10158 ] final  -33.01 input  -65.29 | X-H torsion
[ 10718 10713 10712 10709 ] final -126.87 input   66.30 | X-H torsion
[ 10763 10752 10751 10750 ] final   51.10 input  -60.55 | X-H torsion
[ 11005 11000 10999 10996 ] final  150.74 input  -57.11 | X-H torsion

> <Gold.Protein.ActiveResidues>
 VAL166  LYS551  ARG553  GLY616  TRP617  ASP618  TYR619  PRO620  LYS621  CYS622 
 ASP623  PHE694  ASN695  SER759  ASP760  ASP761  ALA762  ILE779  LEU786  VAL792 
 PHE793  MET794  SER795  GLU796  ALA797  LYS798  CYS799  TRP800  GLU811  SER814 

> <Gold.Protein.RotatedAtoms>
  151.9220  133.3588  159.3900 H   0  0  0  0  0  0  0  0  0  0  0  0  # atno 6907 bound_to 6896
  150.7035  134.4625  159.5397 H   0  0  0  0  0  0  0  0  0  0  0  0  # atno 6908 bound_to 6896
  152.2251  134.8376  160.0532 H   0  0  0  0  0  0  0  0  0  0  0  0  # atno 6909 bound_to 6896
  145.6642  140.9242  143.0917 H   0  0  0  0  0  0  0  0  0  0  0  0  # atno 7974 bound_to 7965
  156.1249  140.1506  156.9151 H   0  0  0  0  0  0  0  0  0  0  0  0  # atno 8008 bound_to 7997
  154.4864  140.0864  156.7536 H   0  0  0  0  0  0  0  0  0  0  0  0  # atno 8009 bound_to 7997
  155.4362  140.3429  155.4287 H   0  0  0  0  0  0  0  0  0  0  0  0  # atno 8010 bound_to 7997
  140.7211  143.3652  151.1885 H   0  0  0  0  0  0  0  0  0  0  0  0  # atno 10167 bound_to 10162
  156.1804  130.6728  151.0297 H   0  0  0  0  0  0  0  0  0  0  0  0  # atno 10718 bound_to 10713
  152.9785  135.5857  154.4360 H   0  0  0  0  0  0  0  0  0  0  0  0  # atno 10763 bound_to 10752
  154.3967  135.2768  155.2123 H   0  0  0  0  0  0  0  0  0  0  0  0  # atno 10764 bound_to 10752
  154.3972  135.6112  153.5931 H   0  0  0  0  0  0  0  0  0  0  0  0  # atno 10765 bound_to 10752
  140.1158  134.8895  157.2002 H   0  0  0  0  0  0  0  0  0  0  0  0  # atno 11005 bound_to 11000
  144.7079  139.8488  143.7424 LP  0  0  0  0  0  0  0  0  0  0  0  0  # atno 17320 bound_to 7965
  146.1100  139.4103  143.0294 LP  0  0  0  0  0  0  0  0  0  0  0  0  # atno 17321 bound_to 7965
  139.7212  143.9221  152.2986 LP  0  0  0  0  0  0  0  0  0  0  0  0  # atno 17342 bound_to 10162
  139.8978  144.6929  150.8698 LP  0  0  0  0  0  0  0  0  0  0  0  0  # atno 17343 bound_to 10162
  157.6864  131.0823  150.7230 LP  0  0  0  0  0  0  0  0  0  0  0  0  # atno 17370 bound_to 10713
  156.7287  130.4703  149.5505 LP  0  0  0  0  0  0  0  0  0  0  0  0  # atno 17371 bound_to 10713
  140.3030  134.3110  155.7285 LP  0  0  0  0  0  0  0  0  0  0  0  0  # atno 17394 bound_to 11000
  141.2141  133.7604  156.9668 LP  0  0  0  0  0  0  0  0  0  0  0  0  # atno 17395 bound_to 11000

$$$$
