AV-unprocessed.smi:2212|AV-procd|sdf|8951|dock7
  -GOLD-   2272012163D 1   1.00000     0.00000
 Structure written by MMmdl.
 31 32  0  0  0  0  0  0  0  0  1 V2000
  153.3938  141.7834  160.5859 C   0  0  0  0  0  0  0  0  0  0  0  0
  153.4202  142.8688  159.6680 O   0  0  0  0  0  0  0  0  0  0  0  0
  152.2386  143.6689  159.6113 C   0  0  0  0  0  0  0  0  0  0  0  0
  151.0120  142.8493  159.1871 C   0  0  0  0  0  0  0  0  0  0  0  0
  151.2068  142.2764  157.8619 N   0  0  0  0  0  0  0  0  0  0  0  0
  151.1021  140.9718  157.5795 C   0  0  0  0  0  0  0  0  0  0  0  0
  150.8353  140.1130  158.4208 O   0  0  0  0  0  0  0  0  0  0  0  0
  151.3226  140.7318  156.2779 N   0  0  0  0  0  0  0  0  0  0  0  0
  151.2891  139.4695  155.6417 C   0  0  0  0  0  0  0  0  0  0  0  0
  151.0235  139.3238  154.3465 N   0  0  0  0  0  0  0  0  0  0  0  0
  151.0896  137.9538  154.1334 C   0  0  0  0  0  0  0  0  0  0  0  0
  151.3947  137.3473  155.3254 C   0  0  0  0  0  0  0  0  0  0  0  0
  151.5256  138.3013  156.2986 O   0  0  0  0  0  0  0  0  0  0  0  0
  152.1445  144.4724  160.9222 C   0  0  0  0  0  0  0  0  0  0  0  0
  151.8271  145.7174  160.0919 C   0  0  0  0  0  0  0  0  0  0  0  0
  152.5073  145.0178  158.9141 C   0  0  0  0  0  0  0  0  0  0  0  0
  154.2986  141.1888  160.4615 H   0  0  0  0  0  0  0  0  0  0  0  0
  152.5408  141.1262  160.4170 H   0  0  0  0  0  0  0  0  0  0  0  0
  153.3730  142.1276  161.6197 H   0  0  0  0  0  0  0  0  0  0  0  0
  150.8370  142.0379  159.8951 H   0  0  0  0  0  0  0  0  0  0  0  0
  150.1065  143.4570  159.1977 H   0  0  0  0  0  0  0  0  0  0  0  0
  151.4248  142.9189  157.1142 H   0  0  0  0  0  0  0  0  0  0  0  0
  151.5323  141.5225  155.6870 H   0  0  0  0  0  0  0  0  0  0  0  0
  150.9158  137.5207  153.1594 H   0  0  0  0  0  0  0  0  0  0  0  0
  151.5436  136.3215  155.6287 H   0  0  0  0  0  0  0  0  0  0  0  0
  151.3441  144.1642  161.5956 H   0  0  0  0  0  0  0  0  0  0  0  0
  153.0979  144.5538  161.4477 H   0  0  0  0  0  0  0  0  0  0  0  0
  150.7568  145.8648  159.9387 H   0  0  0  0  0  0  0  0  0  0  0  0
  152.3198  146.6299  160.4286 H   0  0  0  0  0  0  0  0  0  0  0  0
  153.5681  145.2652  158.8425 H   0  0  0  0  0  0  0  0  0  0  0  0
  152.0005  145.1475  157.9574 H   0  0  0  0  0  0  0  0  0  0  0  0
  1  2  1  0  0  0  0
  1 17  1  0  0  0  0
  1 18  1  0  0  0  0
  1 19  1  0  0  0  0
  2  3  1  0  0  0  0
  3 16  1  0  0  0  0
  3  4  1  0  0  0  0
  3 14  1  0  0  0  0
  4  5  1  0  0  0  0
  4 20  1  0  0  0  0
  4 21  1  0  0  0  0
  5  6  1  0  0  0  0
  5 22  1  0  0  0  0
  6  7  2  0  0  0  0
  6  8  1  0  0  0  0
  8  9  1  0  0  0  0
  8 23  1  0  0  0  0
  9 13  1  0  0  0  0
  9 10  2  0  0  0  0
 10 11  1  0  0  0  0
 11 12  2  0  0  0  0
 11 24  1  0  0  0  0
 12 13  1  0  0  0  0
 12 25  1  0  0  0  0
 14 15  1  0  0  0  0
 14 26  1  0  0  0  0
 14 27  1  0  0  0  0
 15 16  1  0  0  0  0
 15 28  1  0  0  0  0
 15 29  1  0  0  0  0
 16 30  1  0  0  0  0
 16 31  1  0  0  0  0
M  END
> <s_m_source_file>
AV-unprocessed.smi

> <i_m_source_file_index>
2212

> <i_lp_mmshare_version>
43012

> <i_f3d_flags>
0

> <s_epik_input>
W0NIMl0xW0NIMl1bQ0gyXUMxKE9bQ0gzXSlbQ0gyXVtOSF1DKD1PKVtOSF1jMm5bY0hdW2NIXW8y

> <s_epik_cmdline>
J2VwaWtfcHl0aG9uJywgJy1waCcsICc3LjAnLCAnLXRuJywgJzgnLCAnLW1hJywgJzIwMCcsICctbWV0YWxfYmluZGluZycsICctaW1hZScsICc8aW5maWxlLm1hZT4nLCAnLW9tYWUnLCAnPG91dGZpbGUubWFlPic=

> <r_lp_tautomer_probability>
0.785861

> <r_epik_Ionization_Penalty>
4.58897e-05

> <r_epik_Ionization_Penalty_Charging>
0

> <r_epik_Ionization_Penalty_Neutral>
4.58897e-05

> <r_epik_State_Penalty>
0.0380021

> <r_epik_Charging_Adjusted_Penalty>
0.0380021

> <i_epik_Tot_Q>
0

> <i_epik_Tot_abs_Q>
0

> <r_epik_Metal_State_Penalty>
0.0585611

> <b_epik_Metal_Only>
0

> <s_lp_Force_Field>
OPLS_2005

> <r_lp_Energy>
14.4029

> <b_lp_Chiralities_Consistent>
1

> <s_lp_Variant>
AV-unprocessed.smi:2212-1

> <Gold.Version>
5.8.1

> <Gold.Id.Protein>
6NUR|6NUR_protein|mol2

> <Gold.PLP.Fitness>
39.9950

> <Gold.PLP.PLP>
-34.0635

> <Gold.PLP.part.hbond>
-1.0000

> <Gold.PLP.part.metal>
0.0000

> <Gold.PLP.part.buried>
-5.8594

> <Gold.PLP.part.nonpolar>
-27.4609

> <Gold.PLP.part.repulsive>
0.3192

> <Gold.PLP.ligand.clash>
0.0000

> <Gold.PLP.ligand.torsion>
0.2864

> <Gold.PLP.Chemscore.Hbond>
1.0000

> <Gold.PLP.Chemscore.CHOScore>
1.0799

> <Gold.PLP.Chemscore.Metal>
0.0000

> <Gold.Chemscore.Hbonds>
donor molecule, donor type, donor heavy atom, donor atom, acceptor molecule, acceptor atom, score
      P1  H  7989  7998       L1    10  1.00
      L1  C    11    24       P1  7948  0.13
      L1  C    11    24       P1  7949  0.95

> <Gold.PLP.Chemscore.Internal.Correction>
0.2646

> <Gold.Rescore>
     Score         DG    S(hbond)    S(metal)    S(lipo)     H(rot)  DE(clash)    DE(int)     intcor
     12.77     -14.42       0.98        0.00      84.32       1.64       0.08       1.58       ----

> <Gold.Chemscore.Fitness>
12.7684

> <Gold.Chemscore.DG>
-14.4224

> <Gold.Chemscore.ZeroCoef>
-5.4800

> <Gold.Chemscore.Hbond>
0.9814

> <Gold.Chemscore.Metal>
0.0000

> <Gold.Chemscore.Lipo>
84.3207

> <Gold.Chemscore.Internal_Hbond>
0.0000

> <Gold.Chemscore.DEClash>
0.0779

> <Gold.Chemscore.DEInternal>
1.5761

> <Gold.Chemscore.Rot>
1.6411

> <Gold.Chemscore.Internal.Correction>
   9.000000E+99

> <Gold.Chemscore.Hbonds>
donor molecule, donor type, donor heavy atom, donor atom, acceptor molecule, acceptor atom, score
      P1  H  7989  7998       L1    10  0.60

> <Gold.Chemscore.Hbond.Weighted>
-3.2780

> <Gold.Chemscore.Metal.Weighted>
-0.0000

> <Gold.Chemscore.Lipo.Weighted>
-9.8655

> <Gold.Chemscore.Internal_Hbond.Weighted>
0.0000

> <Gold.Chemscore.DEClash.Weighted>
0.0779

> <Gold.Chemscore.DEInternal.Weighted>
1.5761

> <Gold.Chemscore.Rot.Weighted>
4.2011

> <Gold.Chemscore.Internal.Correction.Weighted>
   9.000000E+99

> <Gold.Protein.RotatedTorsions>
[ 6907 6896 6895 6894 ] final -147.38 input  -60.11 | X-H torsion
[ 7974 7965 7964 7962 ] final  105.74 input  175.53 | X-H torsion
[ 8008 7997 7996 7995 ] final  -22.18 input   59.86 | X-H torsion
[ 10167 10162 10161 10158 ] final -131.91 input  -65.29 | X-H torsion
[ 10718 10713 10712 10709 ] final  143.12 input   66.30 | X-H torsion
[ 10763 10752 10751 10750 ] final  178.32 input  -60.55 | X-H torsion
[ 11005 11000 10999 10996 ] final   81.18 input  -57.11 | X-H torsion

> <Gold.Protein.ActiveResidues>
 VAL166  LYS551  ARG553  GLY616  TRP617  ASP618  TYR619  PRO620  LYS621  CYS622 
 ASP623  PHE694  ASN695  SER759  ASP760  ASP761  ALA762  ILE779  LEU786  VAL792 
 PHE793  MET794  SER795  GLU796  ALA797  LYS798  CYS799  TRP800  GLU811  SER814 

> <Gold.Protein.RotatedAtoms>
  151.1548  133.4883  159.2594 H   0  0  0  0  0  0  0  0  0  0  0  0  # atno 6907 bound_to 6896
  151.1516  135.0229  159.8680 H   0  0  0  0  0  0  0  0  0  0  0  0  # atno 6908 bound_to 6896
  152.5463  134.1432  159.8540 H   0  0  0  0  0  0  0  0  0  0  0  0  # atno 6909 bound_to 6896
  145.3157  139.2527  143.3739 H   0  0  0  0  0  0  0  0  0  0  0  0  # atno 7974 bound_to 7965
  154.4660  140.2015  156.0118 H   0  0  0  0  0  0  0  0  0  0  0  0  # atno 8008 bound_to 7997
  156.0927  140.3255  155.7808 H   0  0  0  0  0  0  0  0  0  0  0  0  # atno 8009 bound_to 7997
  155.4930  140.0547  157.2941 H   0  0  0  0  0  0  0  0  0  0  0  0  # atno 8010 bound_to 7997
  139.9140  143.6460  152.2569 H   0  0  0  0  0  0  0  0  0  0  0  0  # atno 10167 bound_to 10162
  157.3726  131.0981  151.0814 H   0  0  0  0  0  0  0  0  0  0  0  0  # atno 10718 bound_to 10713
  154.5061  135.2786  155.1381 H   0  0  0  0  0  0  0  0  0  0  0  0  # atno 10763 bound_to 10752
  154.2995  135.6251  153.5422 H   0  0  0  0  0  0  0  0  0  0  0  0  # atno 10764 bound_to 10752
  152.9910  135.5693  154.5515 H   0  0  0  0  0  0  0  0  0  0  0  0  # atno 10765 bound_to 10752
  139.9107  134.7977  156.2007 H   0  0  0  0  0  0  0  0  0  0  0  0  # atno 11005 bound_to 11000
  146.3101  140.3704  142.8673 LP  0  0  0  0  0  0  0  0  0  0  0  0  # atno 17320 bound_to 7965
  144.8979  140.7606  143.5885 LP  0  0  0  0  0  0  0  0  0  0  0  0  # atno 17321 bound_to 7965
  139.6918  144.7646  151.1426 LP  0  0  0  0  0  0  0  0  0  0  0  0  # atno 17342 bound_to 10162
  140.7678  143.5579  150.9132 LP  0  0  0  0  0  0  0  0  0  0  0  0  # atno 17343 bound_to 10162
  157.1912  130.6353  149.5705 LP  0  0  0  0  0  0  0  0  0  0  0  0  # atno 17370 bound_to 10713
  155.9759  130.4721  150.6489 LP  0  0  0  0  0  0  0  0  0  0  0  0  # atno 17371 bound_to 10713
  141.0527  133.6881  156.1802 LP  0  0  0  0  0  0  0  0  0  0  0  0  # atno 17394 bound_to 11000
  140.6785  134.4792  157.5588 LP  0  0  0  0  0  0  0  0  0  0  0  0  # atno 17395 bound_to 11000

$$$$
