AV-unprocessed.smi:2956|AV-procd|sdf|11305|dock4
  -GOLD-   2272016203D 1   1.00000     0.00000
 Structure written by MMmdl.
 25 26  0  0  0  0  0  0  0  0  1 V2000
  150.9318  139.4622  154.3040 O   0  0  0  0  0  0  0  0  0  0  0  0
  150.3877  139.9313  155.3049 C   0  0  0  0  0  0  0  0  0  0  0  0
  150.9398  139.6486  156.7107 C   0  0  0  0  0  0  0  0  0  0  0  0
  151.3060  140.8624  157.4564 N   0  0  0  0  0  0  0  0  0  0  0  0
  150.4463  141.9281  157.2550 N   0  0  0  0  0  0  0  0  0  0  0  0
  150.6579  143.0393  157.8717 C   0  0  0  0  0  0  0  0  0  0  0  0
  151.7739  143.2195  158.7735 C   0  0  0  0  0  0  0  0  0  0  0  0
  152.0058  144.7340  159.5739 Cl  0  0  0  0  0  0  0  0  0  0  0  0
  152.6143  142.1707  158.9594 C   0  0  0  0  0  0  0  0  0  0  0  0
  153.9719  142.3101  160.0231 Cl  0  0  0  0  0  0  0  0  0  0  0  0
  152.4049  140.8888  158.2721 C   0  0  0  0  0  0  0  0  0  0  0  0
  153.1461  139.9149  158.4115 O   0  0  0  0  0  0  0  0  0  0  0  0
  149.2863  140.6945  155.2546 N   0  0  0  0  0  0  0  0  0  0  0  0
  148.6045  141.0887  154.0646 C   0  0  0  0  0  0  0  0  0  0  0  0
  147.3661  141.9452  154.2194 C   0  0  0  0  0  0  0  0  0  0  0  0
  147.2319  140.5043  153.8104 C   0  0  0  0  0  0  0  0  0  0  0  0
  150.2063  139.0703  157.2758 H   0  0  0  0  0  0  0  0  0  0  0  0
  151.8082  138.9953  156.6074 H   0  0  0  0  0  0  0  0  0  0  0  0
  150.0063  143.9041  157.7463 H   0  0  0  0  0  0  0  0  0  0  0  0
  148.9055  141.0306  156.1273 H   0  0  0  0  0  0  0  0  0  0  0  0
  149.2121  141.2889  153.1830 H   0  0  0  0  0  0  0  0  0  0  0  0
  147.0526  142.2114  155.2272 H   0  0  0  0  0  0  0  0  0  0  0  0
  147.1803  142.7017  153.4598 H   0  0  0  0  0  0  0  0  0  0  0  0
  146.9595  140.2984  152.7771 H   0  0  0  0  0  0  0  0  0  0  0  0
  146.8308  139.8082  154.5446 H   0  0  0  0  0  0  0  0  0  0  0  0
  1  2  2  0  0  0  0
  2  3  1  0  0  0  0
  2 13  1  0  0  0  0
  3  4  1  0  0  0  0
  3 17  1  0  0  0  0
  3 18  1  0  0  0  0
  4 11  1  0  0  0  0
  4  5  1  0  0  0  0
  5  6  2  0  0  0  0
  6  7  1  0  0  0  0
  6 19  1  0  0  0  0
  7  8  1  0  0  0  0
  7  9  2  0  0  0  0
  9 10  1  0  0  0  0
  9 11  1  0  0  0  0
 11 12  2  0  0  0  0
 13 14  1  0  0  0  0
 13 20  1  0  0  0  0
 14 16  1  0  0  0  0
 14 15  1  0  0  0  0
 14 21  1  0  0  0  0
 15 16  1  0  0  0  0
 15 22  1  0  0  0  0
 15 23  1  0  0  0  0
 16 24  1  0  0  0  0
 16 25  1  0  0  0  0
M  END
> <s_m_source_file>
AV-unprocessed.smi

> <i_m_source_file_index>
2956

> <i_lp_mmshare_version>
43012

> <i_f3d_flags>
0

> <s_epik_input>
W0NIMl0xW0NIMl1bQ0hdMVtOSF1DKD1PKVtDSDJdbjJuW2NIXWMoQ2wpYyhDbCljMj1P

> <s_epik_cmdline>
J2VwaWtfcHl0aG9uJywgJy1waCcsICc3LjAnLCAnLXRuJywgJzgnLCAnLW1hJywgJzIwMCcsICctbWV0YWxfYmluZGluZycsICctaW1hZScsICc8aW5maWxlLm1hZT4nLCAnLW9tYWUnLCAnPG91dGZpbGUubWFlPic=

> <r_lp_tautomer_probability>
1

> <r_epik_Ionization_Penalty>
2.06989e-08

> <r_epik_Ionization_Penalty_Charging>
2.85155e-11

> <r_epik_Ionization_Penalty_Neutral>
2.06703e-08

> <r_epik_State_Penalty>
-0

> <r_epik_Charging_Adjusted_Penalty>
2.85155e-11

> <i_epik_Tot_Q>
0

> <i_epik_Tot_abs_Q>
0

> <r_epik_Metal_State_Penalty>
-0

> <b_epik_Metal_Only>
0

> <s_lp_Force_Field>
OPLS_2005

> <r_lp_Energy>
29.5671

> <b_lp_Chiralities_Consistent>
1

> <s_lp_Variant>
AV-unprocessed.smi:2956-1

> <Gold.Version>
5.8.1

> <Gold.Id.Protein>
6NUR|6NUR_protein|mol2

> <Gold.PLP.Fitness>
41.2292

> <Gold.PLP.PLP>
-32.9761

> <Gold.PLP.part.hbond>
-2.0000

> <Gold.PLP.part.metal>
0.0000

> <Gold.PLP.part.buried>
-4.1265

> <Gold.PLP.part.nonpolar>
-27.0864

> <Gold.PLP.part.repulsive>
0.3371

> <Gold.PLP.ligand.clash>
0.0000

> <Gold.PLP.ligand.torsion>
0.3582

> <Gold.PLP.Chemscore.Hbond>
2.0000

> <Gold.PLP.Chemscore.CHOScore>
0.9781

> <Gold.PLP.Chemscore.Metal>
0.0000

> <Gold.Chemscore.Hbonds>
donor molecule, donor type, donor heavy atom, donor atom, acceptor molecule, acceptor atom, score
      P1  H  7989  7998       L1     1  1.00
      P1  H  7997  8009       L1    12  1.00
      L1  C     6    19       P1  8028  0.99

> <Gold.PLP.Chemscore.Internal.Correction>
0.0354

> <Gold.Rescore>
     Score         DG    S(hbond)    S(metal)    S(lipo)     H(rot)  DE(clash)    DE(int)     intcor
     16.57     -16.82       1.87        0.00      78.43       1.59       0.03       0.22       ----

> <Gold.Chemscore.Fitness>
16.5721

> <Gold.Chemscore.DG>
-16.8200

> <Gold.Chemscore.ZeroCoef>
-5.4800

> <Gold.Chemscore.Hbond>
1.8687

> <Gold.Chemscore.Metal>
0.0000

> <Gold.Chemscore.Lipo>
78.4267

> <Gold.Chemscore.Internal_Hbond>
0.0000

> <Gold.Chemscore.DEClash>
0.0276

> <Gold.Chemscore.DEInternal>
0.2203

> <Gold.Chemscore.Rot>
1.5928

> <Gold.Chemscore.Internal.Correction>
   9.000000E+99

> <Gold.Chemscore.Hbonds>
donor molecule, donor type, donor heavy atom, donor atom, acceptor molecule, acceptor atom, score
      P1  H  7989  7998       L1     1  0.50
      P1  H  7997  8009       L1    12  0.71

> <Gold.Chemscore.Hbond.Weighted>
-6.2415

> <Gold.Chemscore.Metal.Weighted>
-0.0000

> <Gold.Chemscore.Lipo.Weighted>
-9.1759

> <Gold.Chemscore.Internal_Hbond.Weighted>
0.0000

> <Gold.Chemscore.DEClash.Weighted>
0.0276

> <Gold.Chemscore.DEInternal.Weighted>
0.2203

> <Gold.Chemscore.Rot.Weighted>
4.0775

> <Gold.Chemscore.Internal.Correction.Weighted>
   9.000000E+99

> <Gold.Protein.RotatedTorsions>
[ 6907 6896 6895 6894 ] final  -97.12 input  -60.11 | X-H torsion
[ 7974 7965 7964 7962 ] final  -74.06 input  175.53 | X-H torsion
[ 8008 7997 7996 7995 ] final  142.98 input   59.86 | X-H torsion
[ 10167 10162 10161 10158 ] final   89.87 input  -65.29 | X-H torsion
[ 10718 10713 10712 10709 ] final  138.45 input   66.30 | X-H torsion
[ 10763 10752 10751 10750 ] final   27.16 input  -60.55 | X-H torsion
[ 11005 11000 10999 10996 ] final  -44.83 input  -57.11 | X-H torsion

> <Gold.Protein.ActiveResidues>
 VAL166  LYS551  ARG553  GLY616  TRP617  ASP618  TYR619  PRO620  LYS621  CYS622 
 ASP623  PHE694  ASN695  SER759  ASP760  ASP761  ALA762  ILE779  LEU786  VAL792 
 PHE793  MET794  SER795  GLU796  ALA797  LYS798  CYS799  TRP800  GLU811  SER814 

> <Gold.Protein.RotatedAtoms>
  150.7007  134.1398  159.4100 H   0  0  0  0  0  0  0  0  0  0  0  0  # atno 6907 bound_to 6896
  151.9383  135.0223  160.0543 H   0  0  0  0  0  0  0  0  0  0  0  0  # atno 6908 bound_to 6896
  152.2116  133.4880  159.5150 H   0  0  0  0  0  0  0  0  0  0  0  0  # atno 6909 bound_to 6896
  145.6440  140.9302  143.1020 H   0  0  0  0  0  0  0  0  0  0  0  0  # atno 7974 bound_to 7965
  156.2939  140.2274  156.4817 H   0  0  0  0  0  0  0  0  0  0  0  0  # atno 8008 bound_to 7997
  154.7847  140.0458  157.1176 H   0  0  0  0  0  0  0  0  0  0  0  0  # atno 8009 bound_to 7997
  154.9716  140.3067  155.4989 H   0  0  0  0  0  0  0  0  0  0  0  0  # atno 8010 bound_to 7997
  139.8530  144.6584  150.9147 H   0  0  0  0  0  0  0  0  0  0  0  0  # atno 10167 bound_to 10162
  157.4252  131.1043  151.0311 H   0  0  0  0  0  0  0  0  0  0  0  0  # atno 10718 bound_to 10713
  153.0574  135.6543  154.0544 H   0  0  0  0  0  0  0  0  0  0  0  0  # atno 10763 bound_to 10752
  154.0219  135.2919  155.3381 H   0  0  0  0  0  0  0  0  0  0  0  0  # atno 10764 bound_to 10752
  154.6896  135.5288  153.8441 H   0  0  0  0  0  0  0  0  0  0  0  0  # atno 10765 bound_to 10752
  141.0476  133.6755  156.2927 H   0  0  0  0  0  0  0  0  0  0  0  0  # atno 11005 bound_to 11000
  144.7147  139.8242  143.7403 LP  0  0  0  0  0  0  0  0  0  0  0  0  # atno 17320 bound_to 7965
  146.1257  139.4283  143.0200 LP  0  0  0  0  0  0  0  0  0  0  0  0  # atno 17321 bound_to 7965
  140.7785  143.3811  151.1476 LP  0  0  0  0  0  0  0  0  0  0  0  0  # atno 17342 bound_to 10162
  139.7447  143.8870  152.3060 LP  0  0  0  0  0  0  0  0  0  0  0  0  # atno 17343 bound_to 10162
  157.1227  130.6068  149.5509 LP  0  0  0  0  0  0  0  0  0  0  0  0  # atno 17370 bound_to 10713
  155.9894  130.4941  150.7212 LP  0  0  0  0  0  0  0  0  0  0  0  0  # atno 17371 bound_to 10713
  140.6117  134.5451  157.5534 LP  0  0  0  0  0  0  0  0  0  0  0  0  # atno 17394 bound_to 11000
  139.9324  134.7939  156.0895 LP  0  0  0  0  0  0  0  0  0  0  0  0  # atno 17395 bound_to 11000

$$$$
