AV-unprocessed.smi:55|AV-procd|sdf|574|dock8
  -GOLD-   2262016473D 1   1.00000     0.00000
 Structure written by MMmdl.
 30 31  0  0  0  0  0  0  0  0  2 V2000
  151.2947  142.2723  158.3356 C   0  0  0  0  0  0  0  0  0  0  0  0
  151.0801  141.3721  157.1315 C   0  0  0  0  0  0  0  0  0  0  0  0
  150.1297  141.6228  156.2036 C   0  0  0  0  0  0  0  0  0  0  0  0
  149.9374  140.7973  155.1098 N   0  0  0  0  0  0  0  0  0  0  0  0
  148.8510  141.0920  154.1039 C   0  0  1  0  0  0  0  0  0  0  0  0
  147.8735  139.9286  153.9967 C   0  0  0  0  0  0  0  0  0  0  0  0
  146.5772  140.6346  153.6169 C   0  0  1  0  0  0  0  0  0  0  0  0
  145.5007  140.1106  154.3726 O   0  0  0  0  0  0  0  0  0  0  0  0
  146.8550  142.1403  153.8512 C   0  0  1  0  0  0  0  0  0  0  0  0
  145.7938  142.9120  154.6582 C   0  0  0  0  0  0  0  0  0  0  0  0
  144.9207  143.5961  153.7846 O   0  0  0  0  0  0  0  0  0  0  0  0
  148.0967  142.1711  154.5447 O   0  0  0  0  0  0  0  0  0  0  0  0
  150.7309  139.6307  154.9608 C   0  0  0  0  0  0  0  0  0  0  0  0
  150.5047  138.8935  154.0010 O   0  0  0  0  0  0  0  0  0  0  0  0
  151.6985  139.3744  155.8870 N   0  5  0  0  0  0  0  0  0  0  0  0
  151.9231  140.1818  156.9635 C   0  0  0  0  0  0  0  0  0  0  0  0
  152.8022  139.9396  157.7904 O   0  0  0  0  0  0  0  0  0  0  0  0
  149.3330  141.3564  153.1608 H   0  0  0  0  0  0  0  0  0  0  0  0
  146.3577  140.4694  152.5614 H   0  0  0  0  0  0  0  0  0  0  0  0
  146.9980  142.6113  152.8766 H   0  0  0  0  0  0  0  0  0  0  0  0
  150.5981  143.1110  158.3332 H   0  0  0  0  0  0  0  0  0  0  0  0
  152.3080  142.6746  158.3346 H   0  0  0  0  0  0  0  0  0  0  0  0
  151.1462  141.7128  159.2596 H   0  0  0  0  0  0  0  0  0  0  0  0
  149.4992  142.4908  156.3274 H   0  0  0  0  0  0  0  0  0  0  0  0
  148.2138  139.1986  153.2618 H   0  0  0  0  0  0  0  0  0  0  0  0
  147.7891  139.4419  154.9702 H   0  0  0  0  0  0  0  0  0  0  0  0
  144.7407  140.0537  153.8142 H   0  0  0  0  0  0  0  0  0  0  0  0
  145.1796  142.2245  155.2402 H   0  0  0  0  0  0  0  0  0  0  0  0
  146.2580  143.6098  155.3561 H   0  0  0  0  0  0  0  0  0  0  0  0
  144.2158  143.0132  153.5472 H   0  0  0  0  0  0  0  0  0  0  0  0
  1  2  1  0  0  0  0
  1 21  1  0  0  0  0
  1 22  1  0  0  0  0
  1 23  1  0  0  0  0
  2 16  1  0  0  0  0
  2  3  2  0  0  0  0
  3  4  1  0  0  0  0
  3 24  1  0  0  0  0
  4  5  1  0  0  0  0
  4 13  1  0  0  0  0
  5 18  1  0  0  0  0
  5 12  1  0  0  0  0
  5  6  1  0  0  0  0
  6  7  1  0  0  0  0
  6 25  1  0  0  0  0
  6 26  1  0  0  0  0
  7 19  1  0  0  0  0
  7  8  1  0  0  0  0
  7  9  1  0  0  0  0
  8 27  1  0  0  0  0
  9 20  1  0  0  0  0
  9 10  1  0  0  0  0
  9 12  1  0  0  0  0
 10 11  1  0  0  0  0
 10 28  1  0  0  0  0
 10 29  1  0  0  0  0
 11 30  1  0  0  0  0
 13 14  2  0  0  0  0
 13 15  1  0  0  0  0
 15 16  1  0  0  0  0
 16 17  2  0  0  0  0
M  CHG  1  15  -1
M  END
> <s_m_source_file>
AV-unprocessed.smi

> <i_m_source_file_index>
55

> <i_lp_mmshare_version>
43012

> <i_f3d_flags>
0

> <s_epik_input>
Tz1jMVtuSF1jKD1PKW4oW2NIXWMxW0NIM10pW0NAQEhdMltDSDJdW0NAQEhdKFtPSF0pW0NAQEhdKE8yKVtDSDJdW09IXQ==

> <s_epik_cmdline>
J2VwaWtfcHl0aG9uJywgJy1waCcsICc3LjAnLCAnLXRuJywgJzgnLCAnLW1hJywgJzIwMCcsICctbWV0YWxfYmluZGluZycsICctaW1hZScsICc8aW5maWxlLm1hZT4nLCAnLW9tYWUnLCAnPG91dGZpbGUubWFlPic=

> <r_lp_tautomer_probability>
0.999537

> <r_epik_Ionization_Penalty>
3.66603

> <r_epik_Ionization_Penalty_Charging>
1.09773e-07

> <r_epik_Ionization_Penalty_Neutral>
3.66603

> <r_epik_State_Penalty>
3.66562

> <r_epik_Charging_Adjusted_Penalty>
3.66562

> <i_epik_Tot_Q>
-1

> <i_epik_Tot_abs_Q>
1

> <r_epik_Metal_State_Penalty>
0.234536

> <b_epik_Metal_Only>
1

> <s_epik_Chemistry_Notes>
This compound contains an acetal/aminal-like group ( X-CH(R)-Y where X, Y are N, S, or O) that may be acid/base labile, releasing an aldehyde.

> <s_lp_Force_Field>
OPLS_2005

> <r_lp_Energy>
40.7451

> <b_lp_Chiralities_Consistent>
1

> <s_lp_Variant>
AV-unprocessed.smi:55-14

> <Gold.Version>
5.8.1

> <Gold.Id.Protein>
6NUR|6NUR_protein|mol2

> <Gold.PLP.Fitness>
37.4137

> <Gold.PLP.PLP>
-28.6575

> <Gold.PLP.part.hbond>
-3.2395

> <Gold.PLP.part.metal>
0.0000

> <Gold.PLP.part.buried>
-2.9207

> <Gold.PLP.part.nonpolar>
-24.5903

> <Gold.PLP.part.repulsive>
2.0220

> <Gold.PLP.ligand.clash>
0.0000

> <Gold.PLP.ligand.torsion>
0.5606

> <Gold.PLP.Chemscore.Hbond>
2.2844

> <Gold.PLP.Chemscore.CHOScore>
1.0000

> <Gold.PLP.Chemscore.Metal>
0.0000

> <Gold.Chemscore.Hbonds>
donor molecule, donor type, donor heavy atom, donor atom, acceptor molecule, acceptor atom, score
      L1  H     8    27       P1 10175  1.00
      L1  H    11    30       P1 10174  0.34
      P1  H  7997  8008       L1    17  1.00
      L1  C     3    24       P1  8028  1.00

> <Gold.PLP.Chemscore.Internal.Correction>
0.0242

> <Gold.Rescore>
     Score         DG    S(hbond)    S(metal)    S(lipo)     H(rot)  DE(clash)    DE(int)     intcor
      7.18     -10.06       1.81        0.00      46.26       2.69       1.44       1.44       ----

> <Gold.Chemscore.Fitness>
7.1824

> <Gold.Chemscore.DG>
-10.0596

> <Gold.Chemscore.ZeroCoef>
-5.4800

> <Gold.Chemscore.Hbond>
1.8101

> <Gold.Chemscore.Metal>
0.0000

> <Gold.Chemscore.Lipo>
46.2647

> <Gold.Chemscore.Internal_Hbond>
0.0000

> <Gold.Chemscore.DEClash>
1.4369

> <Gold.Chemscore.DEInternal>
1.4403

> <Gold.Chemscore.Rot>
2.6871

> <Gold.Chemscore.Internal.Correction>
   9.000000E+99

> <Gold.Chemscore.Hbonds>
donor molecule, donor type, donor heavy atom, donor atom, acceptor molecule, acceptor atom, score
      L1  H     8    27       P1 10175  0.99
      L1  H    11    30       P1 10174  0.01
      P1  H  7997  8008       L1    17  0.80

> <Gold.Chemscore.Hbond.Weighted>
-6.0457

> <Gold.Chemscore.Metal.Weighted>
-0.0000

> <Gold.Chemscore.Lipo.Weighted>
-5.4130

> <Gold.Chemscore.Internal_Hbond.Weighted>
0.0000

> <Gold.Chemscore.DEClash.Weighted>
1.4369

> <Gold.Chemscore.DEInternal.Weighted>
1.4403

> <Gold.Chemscore.Rot.Weighted>
6.8791

> <Gold.Chemscore.Internal.Correction.Weighted>
   9.000000E+99

> <Gold.Protein.RotatedTorsions>
[ 6907 6896 6895 6894 ] final   32.18 input  -60.11 | X-H torsion
[ 7974 7965 7964 7962 ] final   75.50 input  175.53 | X-H torsion
[ 8008 7997 7996 7995 ] final  -87.02 input   59.86 | X-H torsion
[ 10167 10162 10161 10158 ] final   33.47 input  -65.29 | X-H torsion
[ 10718 10713 10712 10709 ] final   91.67 input   66.30 | X-H torsion
[ 10763 10752 10751 10750 ] final   94.94 input  -60.55 | X-H torsion
[ 11005 11000 10999 10996 ] final   82.05 input  -57.11 | X-H torsion

> <Gold.Protein.ActiveResidues>
 VAL166  LYS551  ARG553  GLY616  TRP617  ASP618  TYR619  PRO620  LYS621  CYS622 
 ASP623  PHE694  ASN695  SER759  ASP760  ASP761  ALA762  ILE779  LEU786  VAL792 
 PHE793  MET794  SER795  GLU796  ALA797  LYS798  CYS799  TRP800  GLU811  SER814 

> <Gold.Protein.RotatedAtoms>
  152.0708  134.9535  160.0574 H   0  0  0  0  0  0  0  0  0  0  0  0  # atno 6907 bound_to 6896
  152.0861  133.4172  159.4531 H   0  0  0  0  0  0  0  0  0  0  0  0  # atno 6908 bound_to 6896
  150.6836  134.2845  159.4684 H   0  0  0  0  0  0  0  0  0  0  0  0  # atno 6909 bound_to 6896
  145.7148  139.2627  143.1630 H   0  0  0  0  0  0  0  0  0  0  0  0  # atno 7974 bound_to 7965
  154.6585  140.0571  157.0035 H   0  0  0  0  0  0  0  0  0  0  0  0  # atno 8008 bound_to 7997
  155.1265  140.3252  155.4466 H   0  0  0  0  0  0  0  0  0  0  0  0  # atno 8009 bound_to 7997
  156.2607  140.1988  156.6385 H   0  0  0  0  0  0  0  0  0  0  0  0  # atno 8010 bound_to 7997
  140.4404  144.1195  150.6173 H   0  0  0  0  0  0  0  0  0  0  0  0  # atno 10167 bound_to 10162
  157.6960  131.0416  150.3766 H   0  0  0  0  0  0  0  0  0  0  0  0  # atno 10718 bound_to 10713
  153.2474  135.4272  155.0762 H   0  0  0  0  0  0  0  0  0  0  0  0  # atno 10763 bound_to 10752
  154.8367  135.3417  154.6561 H   0  0  0  0  0  0  0  0  0  0  0  0  # atno 10764 bound_to 10752
  153.6984  135.7030  153.5127 H   0  0  0  0  0  0  0  0  0  0  0  0  # atno 10765 bound_to 10752
  139.9077  134.8042  156.2123 H   0  0  0  0  0  0  0  0  0  0  0  0  # atno 11005 bound_to 11000
  146.0680  140.7900  142.9702 LP  0  0  0  0  0  0  0  0  0  0  0  0  # atno 17320 bound_to 7965
  144.6932  140.3298  143.7218 LP  0  0  0  0  0  0  0  0  0  0  0  0  # atno 17321 bound_to 7965
  140.4325  143.2562  151.9578 LP  0  0  0  0  0  0  0  0  0  0  0  0  # atno 17342 bound_to 10162
  139.4789  144.5731  151.8056 LP  0  0  0  0  0  0  0  0  0  0  0  0  # atno 17343 bound_to 10162
  156.4184  130.3948  149.6842 LP  0  0  0  0  0  0  0  0  0  0  0  0  # atno 17370 bound_to 10713
  156.4101  130.7718  151.2730 LP  0  0  0  0  0  0  0  0  0  0  0  0  # atno 17371 bound_to 10713
  141.0458  133.6914  156.1680 LP  0  0  0  0  0  0  0  0  0  0  0  0  # atno 17394 bound_to 11000
  140.6886  134.4690  157.5589 LP  0  0  0  0  0  0  0  0  0  0  0  0  # atno 17395 bound_to 11000

$$$$
