AV-unprocessed.smi:3100|AV-procd|sdf|11804|dock2
  -GOLD-   2272017183D 1   1.00000     0.00000
 Structure written by MMmdl.
 28 29  0  0  0  0  0  0  0  0  1 V2000
  151.3958  145.2842  160.1044 C   0  0  0  0  0  0  0  0  0  0  0  0
  151.7193  143.7883  160.0387 C   0  0  2  0  0  0  0  0  0  0  0  0
  152.2408  143.2018  161.3447 C   0  0  0  0  0  0  0  0  0  0  0  0
  152.9650  141.9501  160.8812 C   0  0  0  0  0  0  0  0  0  0  0  0
  153.3444  142.2524  159.4166 C   0  0  1  0  0  0  0  0  0  0  0  0
  152.7960  141.2220  158.4126 C   0  0  0  0  0  0  0  0  0  0  0  0
  153.2042  140.0610  158.4540 O   0  0  0  0  0  0  0  0  0  0  0  0
  151.9009  141.6774  157.5151 N   0  0  0  0  0  0  0  0  0  0  0  0
  151.2316  140.9532  156.4944 C   0  0  0  0  0  0  0  0  0  0  0  0
  150.3374  141.7034  155.6948 C   0  0  0  0  0  0  0  0  0  0  0  0
  149.6265  141.1550  154.6844 N   0  0  0  0  0  0  0  0  0  0  0  0
  149.8081  139.8352  154.4653 C   0  0  0  0  0  0  0  0  0  0  0  0
  150.6941  139.0721  155.2518 C   0  0  0  0  0  0  0  0  0  0  0  0
  151.4016  139.6267  156.2600 N   0  0  0  0  0  0  0  0  0  0  0  0
  152.7981  143.5465  159.1483 O   0  0  0  0  0  0  0  0  0  0  0  0
  150.5944  145.4796  160.8172 H   0  0  0  0  0  0  0  0  0  0  0  0
  151.0739  145.6552  159.1311 H   0  0  0  0  0  0  0  0  0  0  0  0
  152.2665  145.8646  160.4106 H   0  0  0  0  0  0  0  0  0  0  0  0
  150.8460  143.2289  159.6990 H   0  0  0  0  0  0  0  0  0  0  0  0
  152.9513  143.8867  161.8097 H   0  0  0  0  0  0  0  0  0  0  0  0
  151.4482  142.9944  162.0645 H   0  0  0  0  0  0  0  0  0  0  0  0
  153.8411  141.7431  161.4964 H   0  0  0  0  0  0  0  0  0  0  0  0
  152.2976  141.0910  160.9651 H   0  0  0  0  0  0  0  0  0  0  0  0
  154.4275  142.3044  159.3010 H   0  0  0  0  0  0  0  0  0  0  0  0
  151.6642  142.6568  157.5842 H   0  0  0  0  0  0  0  0  0  0  0  0
  150.1885  142.7599  155.8659 H   0  0  0  0  0  0  0  0  0  0  0  0
  149.2452  139.3861  153.6606 H   0  0  0  0  0  0  0  0  0  0  0  0
  150.8350  138.0164  155.0726 H   0  0  0  0  0  0  0  0  0  0  0  0
  1  2  1  0  0  0  0
  1 16  1  0  0  0  0
  1 17  1  0  0  0  0
  1 18  1  0  0  0  0
  2 15  1  0  0  0  0
  2  3  1  0  0  0  0
  2 19  1  0  0  0  0
  3  4  1  0  0  0  0
  3 20  1  0  0  0  0
  3 21  1  0  0  0  0
  4  5  1  0  0  0  0
  4 22  1  0  0  0  0
  4 23  1  0  0  0  0
  5  6  1  0  0  0  0
  5 15  1  0  0  0  0
  5 24  1  0  0  0  0
  6  7  2  0  0  0  0
  6  8  1  0  0  0  0
  8  9  1  0  0  0  0
  8 25  1  0  0  0  0
  9 14  1  0  0  0  0
  9 10  2  0  0  0  0
 10 11  1  0  0  0  0
 10 26  1  0  0  0  0
 11 12  2  0  0  0  0
 12 13  1  0  0  0  0
 12 27  1  0  0  0  0
 13 14  2  0  0  0  0
 13 28  1  0  0  0  0
M  END
> <s_m_source_file>
AV-unprocessed.smi

> <i_m_source_file_index>
3100

> <i_lp_mmshare_version>
43012

> <i_f3d_flags>
0

> <s_epik_input>
W0NIM11bQ0BASF0xW0NIMl1bQ0gyXVtDQEhdKE8xKUMoPU8pW05IXWMyW2NIXW5bY0hdW2NIXW4y

> <s_epik_cmdline>
J2VwaWtfcHl0aG9uJywgJy1waCcsICc3LjAnLCAnLXRuJywgJzgnLCAnLW1hJywgJzIwMCcsICctbWV0YWxfYmluZGluZycsICctaW1hZScsICc8aW5maWxlLm1hZT4nLCAnLW9tYWUnLCAnPG91dGZpbGUubWFlPic=

> <r_lp_tautomer_probability>
1

> <r_epik_Ionization_Penalty>
2.81186e-06

> <r_epik_Ionization_Penalty_Charging>
0

> <r_epik_Ionization_Penalty_Neutral>
2.81186e-06

> <r_epik_State_Penalty>
-0

> <r_epik_Charging_Adjusted_Penalty>
0

> <i_epik_Tot_Q>
0

> <i_epik_Tot_abs_Q>
0

> <r_epik_Metal_State_Penalty>
-0

> <b_epik_Metal_Only>
0

> <s_lp_Force_Field>
OPLS_2005

> <r_lp_Energy>
25.8402

> <b_lp_Chiralities_Consistent>
1

> <s_lp_Variant>
AV-unprocessed.smi:3100-1

> <Gold.Version>
5.8.1

> <Gold.Id.Protein>
6NUR|6NUR_protein|mol2

> <Gold.PLP.Fitness>
39.7435

> <Gold.PLP.PLP>
-31.1254

> <Gold.PLP.part.hbond>
-2.0000

> <Gold.PLP.part.metal>
0.0000

> <Gold.PLP.part.buried>
-1.3076

> <Gold.PLP.part.nonpolar>
-24.9775

> <Gold.PLP.part.repulsive>
0.2260

> <Gold.PLP.ligand.clash>
0.0000

> <Gold.PLP.ligand.torsion>
0.0313

> <Gold.PLP.Chemscore.Hbond>
1.0000

> <Gold.PLP.Chemscore.CHOScore>
1.8912

> <Gold.PLP.Chemscore.Metal>
0.0000

> <Gold.Chemscore.Hbonds>
donor molecule, donor type, donor heavy atom, donor atom, acceptor molecule, acceptor atom, score
      P1  H  7997  8010       L1     7  1.00
      L1  C    10    26       P1  8028  1.00
      L1  C    12    27       P1  7957  0.69

> <Gold.PLP.Chemscore.Internal.Correction>
0.0071

> <Gold.Rescore>
     Score         DG    S(hbond)    S(metal)    S(lipo)     H(rot)  DE(clash)    DE(int)     intcor
     12.84     -14.33       0.82        0.00      74.03       1.00       0.05       1.44       ----

> <Gold.Chemscore.Fitness>
12.8406

> <Gold.Chemscore.DG>
-14.3309

> <Gold.Chemscore.ZeroCoef>
-5.4800

> <Gold.Chemscore.Hbond>
0.8231

> <Gold.Chemscore.Metal>
0.0000

> <Gold.Chemscore.Lipo>
74.0322

> <Gold.Chemscore.Internal_Hbond>
0.0000

> <Gold.Chemscore.DEClash>
0.0473

> <Gold.Chemscore.DEInternal>
1.4430

> <Gold.Chemscore.Rot>
1.0000

> <Gold.Chemscore.Internal.Correction>
   9.000000E+99

> <Gold.Chemscore.Hbonds>
donor molecule, donor type, donor heavy atom, donor atom, acceptor molecule, acceptor atom, score
      P1  H  7997  8010       L1     7  0.32

> <Gold.Chemscore.Hbond.Weighted>
-2.7491

> <Gold.Chemscore.Metal.Weighted>
-0.0000

> <Gold.Chemscore.Lipo.Weighted>
-8.6618

> <Gold.Chemscore.Internal_Hbond.Weighted>
0.0000

> <Gold.Chemscore.DEClash.Weighted>
0.0473

> <Gold.Chemscore.DEInternal.Weighted>
1.4430

> <Gold.Chemscore.Rot.Weighted>
2.5600

> <Gold.Chemscore.Internal.Correction.Weighted>
   9.000000E+99

> <Gold.Protein.RotatedTorsions>
[ 6907 6896 6895 6894 ] final    2.83 input  -60.11 | X-H torsion
[ 7974 7965 7964 7962 ] final  105.07 input  175.53 | X-H torsion
[ 8008 7997 7996 7995 ] final   34.53 input   59.86 | X-H torsion
[ 10167 10162 10161 10158 ] final  141.29 input  -65.29 | X-H torsion
[ 10718 10713 10712 10709 ] final  131.23 input   66.30 | X-H torsion
[ 10763 10752 10751 10750 ] final  125.67 input  -60.55 | X-H torsion
[ 11005 11000 10999 10996 ] final -134.03 input  -57.11 | X-H torsion

> <Gold.Protein.ActiveResidues>
 VAL166  LYS551  ARG553  GLY616  TRP617  ASP618  TYR619  PRO620  LYS621  CYS622 
 ASP623  PHE694  ASN695  SER759  ASP760  ASP761  ALA762  ILE779  LEU786  VAL792 
 PHE793  MET794  SER795  GLU796  ALA797  LYS798  CYS799  TRP800  GLU811  SER814 

> <Gold.Protein.RotatedAtoms>
  151.6153  135.1037  160.0089 H   0  0  0  0  0  0  0  0  0  0  0  0  # atno 6907 bound_to 6896
  152.4187  133.7076  159.6470 H   0  0  0  0  0  0  0  0  0  0  0  0  # atno 6908 bound_to 6896
  150.8074  133.8411  159.3220 H   0  0  0  0  0  0  0  0  0  0  0  0  # atno 6909 bound_to 6896
  145.3245  139.2503  143.3694 H   0  0  0  0  0  0  0  0  0  0  0  0  # atno 7974 bound_to 7965
  155.1562  140.3279  155.4421 H   0  0  0  0  0  0  0  0  0  0  0  0  # atno 8008 bound_to 7997
  156.2558  140.1968  156.6622 H   0  0  0  0  0  0  0  0  0  0  0  0  # atno 8009 bound_to 7997
  154.6437  140.0567  156.9862 H   0  0  0  0  0  0  0  0  0  0  0  0  # atno 8010 bound_to 7997
  139.5024  144.6180  151.6117 H   0  0  0  0  0  0  0  0  0  0  0  0  # atno 10167 bound_to 10162
  157.4987  131.1093  150.9457 H   0  0  0  0  0  0  0  0  0  0  0  0  # atno 10718 bound_to 10713
  153.6810  135.3314  155.3178 H   0  0  0  0  0  0  0  0  0  0  0  0  # atno 10763 bound_to 10752
  154.8466  135.4409  154.1606 H   0  0  0  0  0  0  0  0  0  0  0  0  # atno 10764 bound_to 10752
  153.2622  135.6992  153.7643 H   0  0  0  0  0  0  0  0  0  0  0  0  # atno 10765 bound_to 10752
  140.9027  134.1670  157.4448 H   0  0  0  0  0  0  0  0  0  0  0  0  # atno 11005 bound_to 11000
  146.3070  140.3809  142.8684 LP  0  0  0  0  0  0  0  0  0  0  0  0  # atno 17320 bound_to 7965
  144.8913  140.7527  143.5925 LP  0  0  0  0  0  0  0  0  0  0  0  0  # atno 17321 bound_to 7965
  140.5874  143.9839  150.6304 LP  0  0  0  0  0  0  0  0  0  0  0  0  # atno 17342 bound_to 10162
  140.3009  143.3261  152.0973 LP  0  0  0  0  0  0  0  0  0  0  0  0  # atno 17343 bound_to 10162
  157.0135  130.5646  149.5323 LP  0  0  0  0  0  0  0  0  0  0  0  0  # atno 17370 bound_to 10713
  156.0216  130.5311  150.8291 LP  0  0  0  0  0  0  0  0  0  0  0  0  # atno 17371 bound_to 10713
  139.8744  134.9904  156.5503 LP  0  0  0  0  0  0  0  0  0  0  0  0  # atno 17394 bound_to 11000
  140.8210  133.8354  155.8895 LP  0  0  0  0  0  0  0  0  0  0  0  0  # atno 17395 bound_to 11000

$$$$
