AV-unprocessed.smi:2802|AV-procd|sdf|10805|dock6
  -GOLD-   2272015243D 1   1.00000     0.00000
 Structure written by MMmdl.
 47 48  0  0  0  0  0  0  0  0  1 V2000
  146.0046  143.1824  153.7385 C   0  0  0  0  0  0  0  0  0  0  0  0
  146.4925  141.8912  154.4119 C   0  0  2  0  0  0  0  0  0  0  0  0
  145.6375  141.5521  155.6447 C   0  0  0  0  0  0  0  0  0  0  0  0
  146.0647  140.2444  156.3482 C   0  0  0  0  0  0  0  0  0  0  0  0
  145.3416  140.1672  157.7099 C   0  0  0  0  0  0  0  0  0  0  0  0
  145.6143  139.0079  155.5385 C   0  0  0  0  0  0  0  0  0  0  0  0
  147.5971  140.2457  156.6167 C   0  0  0  0  0  0  0  0  0  0  0  0
  148.5490  140.7177  155.4710 C   0  0  2  0  0  0  0  0  0  0  0  0
  148.8025  139.6070  154.4094 C   0  0  0  0  0  0  0  0  0  0  0  0
  149.9005  139.9095  153.5695 O   0  0  0  0  0  0  0  0  0  0  0  0
  149.8288  141.1210  156.0787 N   0  0  0  0  0  0  0  0  0  0  0  0
  150.0389  141.9555  157.1127 C   0  0  0  0  0  0  0  0  0  0  0  0
  149.1348  142.5188  157.7313 O   0  0  0  0  0  0  0  0  0  0  0  0
  151.5058  142.1745  157.5003 C   0  0  0  0  0  0  0  0  0  0  0  0
  151.6564  143.2685  158.5445 C   0  0  0  0  0  0  0  0  0  0  0  0
  152.1408  142.9749  159.8360 C   0  0  0  0  0  0  0  0  0  0  0  0
  152.2521  144.0203  160.7727 C   0  0  0  0  0  0  0  0  0  0  0  0
  151.8729  145.3186  160.3769 C   0  0  0  0  0  0  0  0  0  0  0  0
  151.4103  145.6123  159.1426 N   0  0  0  0  0  0  0  0  0  0  0  0
  151.3065  144.6040  158.2504 C   0  0  0  0  0  0  0  0  0  0  0  0
  147.9737  141.9996  154.8150 C   0  0  0  0  0  0  0  0  0  0  0  0
  146.0792  144.0363  154.4124 H   0  0  0  0  0  0  0  0  0  0  0  0
  144.9631  143.0934  153.4278 H   0  0  0  0  0  0  0  0  0  0  0  0
  146.5936  143.4077  152.8489 H   0  0  0  0  0  0  0  0  0  0  0  0
  146.3854  141.0972  153.6745 H   0  0  0  0  0  0  0  0  0  0  0  0
  145.7080  142.3815  156.3502 H   0  0  0  0  0  0  0  0  0  0  0  0
  144.5857  141.4916  155.3610 H   0  0  0  0  0  0  0  0  0  0  0  0
  145.6109  139.2596  158.2517 H   0  0  0  0  0  0  0  0  0  0  0  0
  144.2577  140.1673  157.5879 H   0  0  0  0  0  0  0  0  0  0  0  0
  145.5932  141.0140  158.3494 H   0  0  0  0  0  0  0  0  0  0  0  0
  145.9924  138.0855  155.9806 H   0  0  0  0  0  0  0  0  0  0  0  0
  145.9340  139.0304  154.5011 H   0  0  0  0  0  0  0  0  0  0  0  0
  144.5267  138.9313  155.5158 H   0  0  0  0  0  0  0  0  0  0  0  0
  147.7661  140.9144  157.4630 H   0  0  0  0  0  0  0  0  0  0  0  0
  147.8981  139.2610  156.9760 H   0  0  0  0  0  0  0  0  0  0  0  0
  148.9865  138.6429  154.8830 H   0  0  0  0  0  0  0  0  0  0  0  0
  147.9456  139.4659  153.7582 H   0  0  0  0  0  0  0  0  0  0  0  0
  149.5762  140.0600  152.6947 H   0  0  0  0  0  0  0  0  0  0  0  0
  150.6509  140.7116  155.6596 H   0  0  0  0  0  0  0  0  0  0  0  0
  151.9162  141.2384  157.8806 H   0  0  0  0  0  0  0  0  0  0  0  0
  152.0881  142.4413  156.6171 H   0  0  0  0  0  0  0  0  0  0  0  0
  152.4181  141.9668  160.1069 H   0  0  0  0  0  0  0  0  0  0  0  0
  152.6172  143.8313  161.7712 H   0  0  0  0  0  0  0  0  0  0  0  0
  151.9433  146.1431  161.0709 H   0  0  0  0  0  0  0  0  0  0  0  0
  150.9282  144.8694  157.2740 H   0  0  0  0  0  0  0  0  0  0  0  0
  148.5724  142.2804  153.9474 H   0  0  0  0  0  0  0  0  0  0  0  0
  148.0685  142.8325  155.5145 H   0  0  0  0  0  0  0  0  0  0  0  0
  1  2  1  0  0  0  0
  1 22  1  0  0  0  0
  1 23  1  0  0  0  0
  1 24  1  0  0  0  0
  2 21  1  0  0  0  0
  2  3  1  0  0  0  0
  2 25  1  0  0  0  0
  3  4  1  0  0  0  0
  3 26  1  0  0  0  0
  3 27  1  0  0  0  0
  4  5  1  0  0  0  0
  4  6  1  0  0  0  0
  4  7  1  0  0  0  0
  5 28  1  0  0  0  0
  5 29  1  0  0  0  0
  5 30  1  0  0  0  0
  6 31  1  0  0  0  0
  6 32  1  0  0  0  0
  6 33  1  0  0  0  0
  7  8  1  0  0  0  0
  7 34  1  0  0  0  0
  7 35  1  0  0  0  0
  8  9  1  0  0  0  0
  8 11  1  0  0  0  0
  8 21  1  0  0  0  0
  9 10  1  0  0  0  0
  9 36  1  0  0  0  0
  9 37  1  0  0  0  0
 10 38  1  0  0  0  0
 11 12  1  0  0  0  0
 11 39  1  0  0  0  0
 12 13  2  0  0  0  0
 12 14  1  0  0  0  0
 14 15  1  0  0  0  0
 14 40  1  0  0  0  0
 14 41  1  0  0  0  0
 15 20  1  0  0  0  0
 15 16  2  0  0  0  0
 16 17  1  0  0  0  0
 16 42  1  0  0  0  0
 17 18  2  0  0  0  0
 17 43  1  0  0  0  0
 18 19  1  0  0  0  0
 18 44  1  0  0  0  0
 19 20  2  0  0  0  0
 20 45  1  0  0  0  0
 21 46  1  0  0  0  0
 21 47  1  0  0  0  0
M  END
> <s_m_source_file>
AV-unprocessed.smi

> <i_m_source_file_index>
2802

> <i_lp_mmshare_version>
43012

> <i_f3d_flags>
0

> <s_epik_input>
W0NIM11DMShbQ0gzXSlbQ0gyXVtDQEBIXShbQ0gzXSlbQ0gyXVtDQF0oW0NIMl0xKShbQ0gyXVtPSF0pW05IXUMoPU8pW0NIMl1jMltjSF1bY0hdW2NIXW5bY0hdMg==

> <s_epik_cmdline>
J2VwaWtfcHl0aG9uJywgJy1waCcsICc3LjAnLCAnLXRuJywgJzgnLCAnLW1hJywgJzIwMCcsICctbWV0YWxfYmluZGluZycsICctaW1hZScsICc8aW5maWxlLm1hZT4nLCAnLW9tYWUnLCAnPG91dGZpbGUubWFlPic=

> <r_epik_Ionization_Penalty>
0.004793

> <r_epik_Ionization_Penalty_Charging>
0

> <r_epik_Ionization_Penalty_Neutral>
0.004793

> <r_epik_State_Penalty>
0.00347421

> <r_epik_Charging_Adjusted_Penalty>
0.00347421

> <i_epik_Tot_Q>
0

> <i_epik_Tot_abs_Q>
0

> <r_epik_Metal_State_Penalty>
-0

> <b_epik_Metal_Only>
0

> <s_lp_Force_Field>
OPLS_2005

> <r_lp_Energy>
22.6418

> <b_lp_Chiralities_Consistent>
1

> <s_lp_Variant>
AV-unprocessed.smi:2802-3

> <Gold.Version>
5.8.1

> <Gold.Id.Protein>
6NUR|6NUR_protein|mol2

> <Gold.PLP.Fitness>
45.5271

> <Gold.PLP.PLP>
-38.0851

> <Gold.PLP.part.hbond>
-2.5549

> <Gold.PLP.part.metal>
0.0000

> <Gold.PLP.part.buried>
-5.7610

> <Gold.PLP.part.nonpolar>
-30.9284

> <Gold.PLP.part.repulsive>
1.0247

> <Gold.PLP.ligand.clash>
0.0000

> <Gold.PLP.ligand.torsion>
0.3046

> <Gold.PLP.Chemscore.Hbond>
1.6793

> <Gold.PLP.Chemscore.CHOScore>
1.0000

> <Gold.PLP.Chemscore.Metal>
0.0000

> <Gold.Chemscore.Hbonds>
donor molecule, donor type, donor heavy atom, donor atom, acceptor molecule, acceptor atom, score
      L1  H    10    38       P1  7957  1.00
      P1  H  7989  7998       L1    10  0.68
      L1  C    20    45       P1  8028  0.92

> <Gold.PLP.Chemscore.Internal.Correction>
0.0135

> <Gold.Rescore>
     Score         DG    S(hbond)    S(metal)    S(lipo)     H(rot)  DE(clash)    DE(int)     intcor
     13.39     -15.21       1.02        0.00      97.78       2.00       0.11       1.71       ----

> <Gold.Chemscore.Fitness>
13.3928

> <Gold.Chemscore.DG>
-15.2131

> <Gold.Chemscore.ZeroCoef>
-5.4800

> <Gold.Chemscore.Hbond>
1.0237

> <Gold.Chemscore.Metal>
0.0000

> <Gold.Chemscore.Lipo>
97.7829

> <Gold.Chemscore.Internal_Hbond>
0.0000

> <Gold.Chemscore.DEClash>
0.1093

> <Gold.Chemscore.DEInternal>
1.7110

> <Gold.Chemscore.Rot>
2.0026

> <Gold.Chemscore.Internal.Correction>
   9.000000E+99

> <Gold.Chemscore.Hbonds>
donor molecule, donor type, donor heavy atom, donor atom, acceptor molecule, acceptor atom, score
      L1  H    10    38       P1  7957  0.92
      P1  H  7989  7998       L1    10  0.15

> <Gold.Chemscore.Hbond.Weighted>
-3.4192

> <Gold.Chemscore.Metal.Weighted>
-0.0000

> <Gold.Chemscore.Lipo.Weighted>
-11.4406

> <Gold.Chemscore.Internal_Hbond.Weighted>
0.0000

> <Gold.Chemscore.DEClash.Weighted>
0.1093

> <Gold.Chemscore.DEInternal.Weighted>
1.7110

> <Gold.Chemscore.Rot.Weighted>
5.1267

> <Gold.Chemscore.Internal.Correction.Weighted>
   9.000000E+99

> <Gold.Protein.RotatedTorsions>
[ 6907 6896 6895 6894 ] final -121.11 input  -60.11 | X-H torsion
[ 7974 7965 7964 7962 ] final  -97.83 input  175.53 | X-H torsion
[ 8008 7997 7996 7995 ] final -102.00 input   59.86 | X-H torsion
[ 10167 10162 10161 10158 ] final    4.64 input  -65.29 | X-H torsion
[ 10718 10713 10712 10709 ] final  -15.09 input   66.30 | X-H torsion
[ 10763 10752 10751 10750 ] final   14.95 input  -60.55 | X-H torsion
[ 11005 11000 10999 10996 ] final  143.66 input  -57.11 | X-H torsion

> <Gold.Protein.ActiveResidues>
 VAL166  LYS551  ARG553  GLY616  TRP617  ASP618  TYR619  PRO620  LYS621  CYS622 
 ASP623  PHE694  ASN695  SER759  ASP760  ASP761  ALA762  ILE779  LEU786  VAL792 
 PHE793  MET794  SER795  GLU796  ALA797  LYS798  CYS799  TRP800  GLU811  SER814 

> <Gold.Protein.RotatedAtoms>
  150.8454  133.7870  159.3045 H   0  0  0  0  0  0  0  0  0  0  0  0  # atno 6907 bound_to 6896
  151.5559  135.1065  159.9970 H   0  0  0  0  0  0  0  0  0  0  0  0  # atno 6908 bound_to 6896
  152.4509  133.7584  159.6789 H   0  0  0  0  0  0  0  0  0  0  0  0  # atno 6909 bound_to 6896
  145.3286  140.9437  143.2674 H   0  0  0  0  0  0  0  0  0  0  0  0  # atno 7974 bound_to 7965
  154.8505  140.0431  157.1601 H   0  0  0  0  0  0  0  0  0  0  0  0  # atno 8008 bound_to 7997
  154.8948  140.2991  155.5330 H   0  0  0  0  0  0  0  0  0  0  0  0  # atno 8009 bound_to 7997
  156.2996  140.2387  156.3968 H   0  0  0  0  0  0  0  0  0  0  0  0  # atno 8010 bound_to 7997
  140.6524  143.7511  150.7597 H   0  0  0  0  0  0  0  0  0  0  0  0  # atno 10167 bound_to 10162
  156.6067  130.4838  149.6218 H   0  0  0  0  0  0  0  0  0  0  0  0  # atno 10718 bound_to 10713
  153.1572  135.6789  153.8795 H   0  0  0  0  0  0  0  0  0  0  0  0  # atno 10763 bound_to 10752
  153.8203  135.3131  155.3411 H   0  0  0  0  0  0  0  0  0  0  0  0  # atno 10764 bound_to 10752
  154.7906  135.4837  154.0132 H   0  0  0  0  0  0  0  0  0  0  0  0  # atno 10765 bound_to 10752
  140.0571  134.9224  157.1120 H   0  0  0  0  0  0  0  0  0  0  0  0  # atno 11005 bound_to 11000
  144.8882  139.4811  143.6690 LP  0  0  0  0  0  0  0  0  0  0  0  0  # atno 17320 bound_to 7965
  146.3054  139.7564  142.9060 LP  0  0  0  0  0  0  0  0  0  0  0  0  # atno 17321 bound_to 7965
  140.1165  143.4651  152.2339 LP  0  0  0  0  0  0  0  0  0  0  0  0  # atno 17342 bound_to 10162
  139.5741  144.7478  151.3811 LP  0  0  0  0  0  0  0  0  0  0  0  0  # atno 17343 bound_to 10162
  156.2424  130.6859  151.1568 LP  0  0  0  0  0  0  0  0  0  0  0  0  # atno 17370 bound_to 10713
  157.7265  131.0646  150.5906 LP  0  0  0  0  0  0  0  0  0  0  0  0  # atno 17371 bound_to 10713
  140.3827  134.2270  155.7170 LP  0  0  0  0  0  0  0  0  0  0  0  0  # atno 17394 bound_to 11000
  141.1957  133.8099  157.0704 LP  0  0  0  0  0  0  0  0  0  0  0  0  # atno 17395 bound_to 11000

$$$$
