AV-unprocessed.smi:3032|AV-procd|sdf|11568|dock4
  -GOLD-   2272016533D 1   1.00000     0.00000
 Structure written by MMmdl.
 37 38  0  0  0  0  0  0  0  0  1 V2000
  153.0840  143.0245  162.5688 C   0  0  0  0  0  0  0  0  0  0  0  0
  152.4052  143.2548  161.2111 C   0  0  1  0  0  0  0  0  0  0  0  0
  152.1872  144.7549  160.9406 C   0  0  0  0  0  0  0  0  0  0  0  0
  151.5046  144.9912  159.5850 C   0  0  0  0  0  0  0  0  0  0  0  0
  152.3022  144.3490  158.4354 C   0  0  0  0  0  0  0  0  0  0  0  0
  152.6120  142.8503  158.6584 C   0  0  2  0  0  0  0  0  0  0  0  0
  151.4027  141.9392  158.3738 C   0  0  0  0  0  0  0  0  0  0  0  0
  150.9709  141.1713  159.2333 O   0  0  0  0  0  0  0  0  0  0  0  0
  150.8636  142.0331  157.1480 N   0  0  0  0  0  0  0  0  0  0  0  0
  149.7329  141.2477  156.6668 C   0  0  0  0  0  0  0  0  0  0  0  0
  149.6730  141.2277  155.1307 C   0  0  0  0  0  0  0  0  0  0  0  0
  148.3020  140.9357  154.6154 C   0  0  0  0  0  0  0  0  0  0  0  0
  147.2021  140.8547  155.3739 N   0  0  0  0  0  0  0  0  0  0  0  0
  146.1631  140.5871  154.4960 N   0  0  0  0  0  0  0  0  0  0  0  0
  146.7370  140.5376  153.2928 C   0  0  0  0  0  0  0  0  0  0  0  0
  148.0582  140.7489  153.3092 N   0  0  0  0  0  0  0  0  0  0  0  0
  153.2157  142.6133  160.0635 C   0  0  0  0  0  0  0  0  0  0  0  0
  148.7059  140.7630  152.5349 H   0  0  0  0  0  0  0  0  0  0  0  0
  154.0724  143.4839  162.6022 H   0  0  0  0  0  0  0  0  0  0  0  0
  153.2043  141.9599  162.7715 H   0  0  0  0  0  0  0  0  0  0  0  0
  152.4922  143.4484  163.3805 H   0  0  0  0  0  0  0  0  0  0  0  0
  151.4279  142.7750  161.2603 H   0  0  0  0  0  0  0  0  0  0  0  0
  151.5814  145.1935  161.7342 H   0  0  0  0  0  0  0  0  0  0  0  0
  153.1453  145.2762  160.9600 H   0  0  0  0  0  0  0  0  0  0  0  0
  150.4895  144.5957  159.6102 H   0  0  0  0  0  0  0  0  0  0  0  0
  151.4044  146.0621  159.4065 H   0  0  0  0  0  0  0  0  0  0  0  0
  151.7665  144.4885  157.4954 H   0  0  0  0  0  0  0  0  0  0  0  0
  153.2444  144.8867  158.3209 H   0  0  0  0  0  0  0  0  0  0  0  0
  153.3810  142.5777  157.9334 H   0  0  0  0  0  0  0  0  0  0  0  0
  151.2723  142.6906  156.4997 H   0  0  0  0  0  0  0  0  0  0  0  0
  149.7850  140.2318  157.0624 H   0  0  0  0  0  0  0  0  0  0  0  0
  148.8205  141.6899  157.0671 H   0  0  0  0  0  0  0  0  0  0  0  0
  150.0042  142.1868  154.7302 H   0  0  0  0  0  0  0  0  0  0  0  0
  150.3557  140.4746  154.7352 H   0  0  0  0  0  0  0  0  0  0  0  0
  146.1832  140.3454  152.3856 H   0  0  0  0  0  0  0  0  0  0  0  0
  154.2291  143.0166  160.0773 H   0  0  0  0  0  0  0  0  0  0  0  0
  153.3233  141.5426  160.2441 H   0  0  0  0  0  0  0  0  0  0  0  0
  1  2  1  0  0  0  0
  1 19  1  0  0  0  0
  1 20  1  0  0  0  0
  1 21  1  0  0  0  0
  2 17  1  0  0  0  0
  2  3  1  0  0  0  0
  2 22  1  0  0  0  0
  3  4  1  0  0  0  0
  3 23  1  0  0  0  0
  3 24  1  0  0  0  0
  4  5  1  0  0  0  0
  4 25  1  0  0  0  0
  4 26  1  0  0  0  0
  5  6  1  0  0  0  0
  5 27  1  0  0  0  0
  5 28  1  0  0  0  0
  6  7  1  0  0  0  0
  6 17  1  0  0  0  0
  6 29  1  0  0  0  0
  7  8  2  0  0  0  0
  7  9  1  0  0  0  0
  9 10  1  0  0  0  0
  9 30  1  0  0  0  0
 10 11  1  0  0  0  0
 10 31  1  0  0  0  0
 10 32  1  0  0  0  0
 11 12  1  0  0  0  0
 11 33  1  0  0  0  0
 11 34  1  0  0  0  0
 12 16  1  0  0  0  0
 12 13  2  0  0  0  0
 13 14  1  0  0  0  0
 14 15  2  0  0  0  0
 15 16  1  0  0  0  0
 15 35  1  0  0  0  0
 16 18  1  0  0  0  0
 17 36  1  0  0  0  0
 17 37  1  0  0  0  0
M  END
> <s_m_source_file>
AV-unprocessed.smi

> <i_m_source_file_index>
3032

> <i_lp_mmshare_version>
43012

> <i_f3d_flags>
0

> <s_epik_input>
W0NIM11bQ0BASF0xW0NIMl1bQ0gyXVtDSDJdW0NASF0oW0NIMl0xKUMoPU8pW05IXVtDSDJdW0NIMl1jMm5uW2NIXVtuSF0y

> <s_epik_cmdline>
J2VwaWtfcHl0aG9uJywgJy1waCcsICc3LjAnLCAnLXRuJywgJzgnLCAnLW1hJywgJzIwMCcsICctbWV0YWxfYmluZGluZycsICctaW1hZScsICc8aW5maWxlLm1hZT4nLCAnLW9tYWUnLCAnPG91dGZpbGUubWFlPic=

> <r_lp_tautomer_probability>
0.0517155

> <r_epik_Ionization_Penalty>
0.00149837

> <r_epik_Ionization_Penalty_Charging>
0

> <r_epik_Ionization_Penalty_Neutral>
0.00149837

> <r_epik_State_Penalty>
2.1109

> <r_epik_Charging_Adjusted_Penalty>
2.1109

> <i_epik_Tot_Q>
0

> <i_epik_Tot_abs_Q>
0

> <r_epik_Metal_State_Penalty>
2.23635

> <b_epik_Metal_Only>
0

> <s_lp_Force_Field>
OPLS_2005

> <r_lp_Energy>
9.23597

> <b_lp_Chiralities_Consistent>
1

> <s_lp_Variant>
AV-unprocessed.smi:3032-12

> <Gold.Version>
5.8.1

> <Gold.Id.Protein>
6NUR|6NUR_protein|mol2

> <Gold.PLP.Fitness>
45.1522

> <Gold.PLP.PLP>
-40.5311

> <Gold.PLP.part.hbond>
-1.5277

> <Gold.PLP.part.metal>
0.0000

> <Gold.PLP.part.buried>
-5.4371

> <Gold.PLP.part.nonpolar>
-33.9359

> <Gold.PLP.part.repulsive>
0.3810

> <Gold.PLP.ligand.clash>
0.0000

> <Gold.PLP.ligand.torsion>
0.3293

> <Gold.PLP.Chemscore.Hbond>
1.0000

> <Gold.PLP.Chemscore.CHOScore>
0.7412

> <Gold.PLP.Chemscore.Metal>
0.0000

> <Gold.Chemscore.Hbonds>
donor molecule, donor type, donor heavy atom, donor atom, acceptor molecule, acceptor atom, score
      L1  H    16    18       P1  7957  1.00
      L1  C    15    35       P1 10175  0.78

> <Gold.PLP.Chemscore.Internal.Correction>
0.0561

> <Gold.Rescore>
     Score         DG    S(hbond)    S(metal)    S(lipo)     H(rot)  DE(clash)    DE(int)     intcor
     14.22     -14.60       0.98        0.00      99.18       2.25       0.05       0.34       ----

> <Gold.Chemscore.Fitness>
14.2157

> <Gold.Chemscore.DG>
-14.5993

> <Gold.Chemscore.ZeroCoef>
-5.4800

> <Gold.Chemscore.Hbond>
0.9807

> <Gold.Chemscore.Metal>
0.0000

> <Gold.Chemscore.Lipo>
99.1808

> <Gold.Chemscore.Internal_Hbond>
0.0000

> <Gold.Chemscore.DEClash>
0.0457

> <Gold.Chemscore.DEInternal>
0.3379

> <Gold.Chemscore.Rot>
2.2501

> <Gold.Chemscore.Internal.Correction>
   9.000000E+99

> <Gold.Chemscore.Hbonds>
donor molecule, donor type, donor heavy atom, donor atom, acceptor molecule, acceptor atom, score
      L1  H    16    18       P1  7957  0.98

> <Gold.Chemscore.Hbond.Weighted>
-3.2755

> <Gold.Chemscore.Metal.Weighted>
-0.0000

> <Gold.Chemscore.Lipo.Weighted>
-11.6042

> <Gold.Chemscore.Internal_Hbond.Weighted>
0.0000

> <Gold.Chemscore.DEClash.Weighted>
0.0457

> <Gold.Chemscore.DEInternal.Weighted>
0.3379

> <Gold.Chemscore.Rot.Weighted>
5.7603

> <Gold.Chemscore.Internal.Correction.Weighted>
   9.000000E+99

> <Gold.Protein.RotatedTorsions>
[ 6907 6896 6895 6894 ] final   47.39 input  -60.11 | X-H torsion
[ 7974 7965 7964 7962 ] final   55.04 input  175.53 | X-H torsion
[ 8008 7997 7996 7995 ] final   69.73 input   59.86 | X-H torsion
[ 10167 10162 10161 10158 ] final  131.35 input  -65.29 | X-H torsion
[ 10718 10713 10712 10709 ] final  -32.74 input   66.30 | X-H torsion
[ 10763 10752 10751 10750 ] final -103.61 input  -60.55 | X-H torsion
[ 11005 11000 10999 10996 ] final  -17.11 input  -57.11 | X-H torsion

> <Gold.Protein.ActiveResidues>
 VAL166  LYS551  ARG553  GLY616  TRP617  ASP618  TYR619  PRO620  LYS621  CYS622 
 ASP623  PHE694  ASN695  SER759  ASP760  ASP761  ALA762  ILE779  LEU786  VAL792 
 PHE793  MET794  SER795  GLU796  ALA797  LYS798  CYS799  TRP800  GLU811  SER814 

> <Gold.Protein.RotatedAtoms>
  152.2674  134.7969  160.0419 H   0  0  0  0  0  0  0  0  0  0  0  0  # atno 6907 bound_to 6896
  151.8594  133.3449  159.3707 H   0  0  0  0  0  0  0  0  0  0  0  0  # atno 6908 bound_to 6896
  150.7139  134.5149  159.5669 H   0  0  0  0  0  0  0  0  0  0  0  0  # atno 6909 bound_to 6896
  145.9545  139.4002  143.0285 H   0  0  0  0  0  0  0  0  0  0  0  0  # atno 7974 bound_to 7965
  155.7281  140.3492  155.5047 H   0  0  0  0  0  0  0  0  0  0  0  0  # atno 8008 bound_to 7997
  155.9208  140.1067  157.1230 H   0  0  0  0  0  0  0  0  0  0  0  0  # atno 8009 bound_to 7997
  154.4069  140.1250  156.4663 H   0  0  0  0  0  0  0  0  0  0  0  0  # atno 8010 bound_to 7997
  139.5388  144.6710  151.4695 H   0  0  0  0  0  0  0  0  0  0  0  0  # atno 10167 bound_to 10162
  156.3712  130.4340  149.7544 H   0  0  0  0  0  0  0  0  0  0  0  0  # atno 10718 bound_to 10713
  154.7819  135.4817  153.9863 H   0  0  0  0  0  0  0  0  0  0  0  0  # atno 10763 bound_to 10752
  153.1506  135.6790  153.8895 H   0  0  0  0  0  0  0  0  0  0  0  0  # atno 10764 bound_to 10752
  153.8540  135.3163  155.3412 H   0  0  0  0  0  0  0  0  0  0  0  0  # atno 10765 bound_to 10752
  140.8136  133.8122  155.9588 H   0  0  0  0  0  0  0  0  0  0  0  0  # atno 11005 bound_to 11000
  145.8125  140.9719  143.0941 LP  0  0  0  0  0  0  0  0  0  0  0  0  # atno 17320 bound_to 7965
  144.6802  139.9939  143.7484 LP  0  0  0  0  0  0  0  0  0  0  0  0  # atno 17321 bound_to 7965
  140.6608  143.8503  150.6885 LP  0  0  0  0  0  0  0  0  0  0  0  0  # atno 17342 bound_to 10162
  140.1897  143.4047  152.1872 LP  0  0  0  0  0  0  0  0  0  0  0  0  # atno 17343 bound_to 10162
  156.4670  130.7979  151.2998 LP  0  0  0  0  0  0  0  0  0  0  0  0  # atno 17370 bound_to 10713
  157.7484  131.0048  150.3088 LP  0  0  0  0  0  0  0  0  0  0  0  0  # atno 17371 bound_to 10713
  140.9172  134.2187  157.4949 LP  0  0  0  0  0  0  0  0  0  0  0  0  # atno 17394 bound_to 11000
  139.8712  134.9776  156.4967 LP  0  0  0  0  0  0  0  0  0  0  0  0  # atno 17395 bound_to 11000

$$$$
