AV-unprocessed.smi:45|AV-procd|sdf|407|dock1
  -GOLD-   2262016263D 1   1.00000     0.00000
 Structure written by MMmdl.
 60 63  0  0  0  0  0  0  0  0  1 V2000
  152.7150  129.8581  155.6359 C   0  0  0  0  0  0  0  0  0  0  0  0
  151.5413  130.1027  154.8747 O   0  0  0  0  0  0  0  0  0  0  0  0
  151.0405  131.3877  154.8438 C   0  0  0  0  0  0  0  0  0  0  0  0
  151.5994  132.4675  155.5730 C   0  0  0  0  0  0  0  0  0  0  0  0
  151.0288  133.7518  155.5024 C   0  0  0  0  0  0  0  0  0  0  0  0
  149.8946  133.9800  154.6993 C   0  0  0  0  0  0  0  0  0  0  0  0
  149.2488  135.3548  154.6665 C   0  0  0  0  0  0  0  0  0  0  0  0
  147.8704  135.3650  155.1411 N   0  0  0  0  0  0  0  0  0  0  0  0
  146.9039  135.7357  154.1924 C   0  0  0  0  0  0  0  0  0  0  0  0
  146.5865  134.8174  153.2498 N   0  0  0  0  0  0  0  0  0  0  0  0
  145.6316  135.1222  152.3649 C   0  0  0  0  0  0  0  0  0  0  0  0
  145.3134  134.1441  151.4236 N   0  0  0  0  0  0  0  0  0  0  0  0
  144.3354  134.3871  150.3691 C   0  0  0  0  0  0  0  0  0  0  0  0
  143.7125  133.0287  150.0532 C   0  0  0  0  0  0  0  0  0  0  0  0
  144.8331  132.0538  150.3893 C   0  0  0  0  0  0  0  0  0  0  0  0
  145.5274  132.7061  151.5940 C   0  0  1  0  0  0  0  0  0  0  0  0
  147.0180  132.3193  151.6962 C   0  0  0  0  0  0  0  0  0  0  0  0
  147.1526  130.9145  151.7376 O   0  0  0  0  0  0  0  0  0  0  0  0
  144.9646  136.2795  152.3146 N   0  0  0  0  0  0  0  0  0  0  0  0
  145.2655  137.2102  153.2438 C   0  0  0  0  0  0  0  0  0  0  0  0
  146.2385  136.9900  154.2453 C   0  0  0  0  0  0  0  0  0  0  0  0
  146.5252  138.0349  155.2898 C   0  0  0  0  0  0  0  0  0  0  0  0
  146.0610  139.1721  155.2039 O   0  0  0  0  0  0  0  0  0  0  0  0
  147.3593  137.6470  156.2677 N   0  0  0  0  0  0  0  0  0  0  0  0
  147.8649  138.5100  157.3281 C   0  0  0  0  0  0  0  0  0  0  0  0
  148.9264  139.4730  156.8270 C   0  0  0  0  0  0  0  0  0  0  0  0
  149.9415  138.9407  156.1381 N   0  0  0  0  0  0  0  0  0  0  0  0
  150.8953  139.7910  155.7007 C   0  0  0  0  0  0  0  0  0  0  0  0
  150.8234  141.1768  155.9476 C   0  0  0  0  0  0  0  0  0  0  0  0
  149.7030  141.6228  156.6772 C   0  0  0  0  0  0  0  0  0  0  0  0
  148.7551  140.7672  157.1171 N   0  0  0  0  0  0  0  0  0  0  0  0
  149.3375  132.9154  153.9646 C   0  0  0  0  0  0  0  0  0  0  0  0
  149.9043  131.6285  154.0385 C   0  0  0  0  0  0  0  0  0  0  0  0
  149.1837  130.3407  153.1411 Cl  0  0  0  0  0  0  0  0  0  0  0  0
  145.0081  132.4069  152.5058 H   0  0  0  0  0  0  0  0  0  0  0  0
  152.9725  128.8012  155.5692 H   0  0  0  0  0  0  0  0  0  0  0  0
  152.5618  130.0939  156.6899 H   0  0  0  0  0  0  0  0  0  0  0  0
  153.5644  130.4283  155.2570 H   0  0  0  0  0  0  0  0  0  0  0  0
  152.4659  132.3354  156.2003 H   0  0  0  0  0  0  0  0  0  0  0  0
  151.4575  134.5597  156.0773 H   0  0  0  0  0  0  0  0  0  0  0  0
  149.8321  136.0262  155.2969 H   0  0  0  0  0  0  0  0  0  0  0  0
  149.2922  135.7662  153.6572 H   0  0  0  0  0  0  0  0  0  0  0  0
  147.6226  134.5427  155.6736 H   0  0  0  0  0  0  0  0  0  0  0  0
  143.5726  135.1057  150.6718 H   0  0  0  0  0  0  0  0  0  0  0  0
  144.8534  134.7879  149.4971 H   0  0  0  0  0  0  0  0  0  0  0  0
  142.8603  132.8500  150.7102 H   0  0  0  0  0  0  0  0  0  0  0  0
  143.3688  132.9485  149.0217 H   0  0  0  0  0  0  0  0  0  0  0  0
  144.4710  131.0480  150.6041 H   0  0  0  0  0  0  0  0  0  0  0  0
  145.5184  131.9890  149.5426 H   0  0  0  0  0  0  0  0  0  0  0  0
  147.5816  132.7107  150.8487 H   0  0  0  0  0  0  0  0  0  0  0  0
  147.4792  132.7230  152.5963 H   0  0  0  0  0  0  0  0  0  0  0  0
  147.8808  130.6665  151.1888 H   0  0  0  0  0  0  0  0  0  0  0  0
  144.7095  138.1347  153.1888 H   0  0  0  0  0  0  0  0  0  0  0  0
  147.7116  136.7011  156.2492 H   0  0  0  0  0  0  0  0  0  0  0  0
  147.0517  139.0642  157.8010 H   0  0  0  0  0  0  0  0  0  0  0  0
  148.2898  137.8772  158.1083 H   0  0  0  0  0  0  0  0  0  0  0  0
  151.7171  139.3647  155.1447 H   0  0  0  0  0  0  0  0  0  0  0  0
  151.5823  141.8589  155.5947 H   0  0  0  0  0  0  0  0  0  0  0  0
  149.5668  142.6689  156.9080 H   0  0  0  0  0  0  0  0  0  0  0  0
  148.4600  133.0798  153.3561 H   0  0  0  0  0  0  0  0  0  0  0  0
  1  2  1  0  0  0  0
  1 36  1  0  0  0  0
  1 37  1  0  0  0  0
  1 38  1  0  0  0  0
  2  3  1  0  0  0  0
  3 33  1  0  0  0  0
  3  4  2  0  0  0  0
  4  5  1  0  0  0  0
  4 39  1  0  0  0  0
  5  6  2  0  0  0  0
  5 40  1  0  0  0  0
  6  7  1  0  0  0  0
  6 32  1  0  0  0  0
  7  8  1  0  0  0  0
  7 41  1  0  0  0  0
  7 42  1  0  0  0  0
  8  9  1  0  0  0  0
  8 43  1  0  0  0  0
  9 21  1  0  0  0  0
  9 10  2  0  0  0  0
 10 11  1  0  0  0  0
 11 12  1  0  0  0  0
 11 19  2  0  0  0  0
 12 16  1  0  0  0  0
 12 13  1  0  0  0  0
 13 14  1  0  0  0  0
 13 44  1  0  0  0  0
 13 45  1  0  0  0  0
 14 15  1  0  0  0  0
 14 46  1  0  0  0  0
 14 47  1  0  0  0  0
 15 16  1  0  0  0  0
 15 48  1  0  0  0  0
 15 49  1  0  0  0  0
 16 35  1  0  0  0  0
 16 17  1  0  0  0  0
 17 18  1  0  0  0  0
 17 50  1  0  0  0  0
 17 51  1  0  0  0  0
 18 52  1  0  0  0  0
 19 20  1  0  0  0  0
 20 21  2  0  0  0  0
 20 53  1  0  0  0  0
 21 22  1  0  0  0  0
 22 23  2  0  0  0  0
 22 24  1  0  0  0  0
 24 25  1  0  0  0  0
 24 54  1  0  0  0  0
 25 26  1  0  0  0  0
 25 55  1  0  0  0  0
 25 56  1  0  0  0  0
 26 31  1  0  0  0  0
 26 27  2  0  0  0  0
 27 28  1  0  0  0  0
 28 29  2  0  0  0  0
 28 57  1  0  0  0  0
 29 30  1  0  0  0  0
 29 58  1  0  0  0  0
 30 31  2  0  0  0  0
 30 59  1  0  0  0  0
 32 33  2  0  0  0  0
 32 60  1  0  0  0  0
 33 34  1  0  0  0  0
M  END
> <s_m_source_file>
AV-unprocessed.smi

> <i_m_source_file_index>
45

> <i_lp_mmshare_version>
43012

> <i_f3d_flags>
0

> <s_epik_input>
W0NIM11PYzFbY0hdW2NIXWMoW2NIXWMxQ2wpW0NIMl1bTkhdYzJuYyhOM1tDSDJdW0NIMl1bQ0gyXVtDQEhdM1tDSDJdW09IXSluW2NIXWMyQyg9TylbTkhdW0NIMl1jNG5bY0hdW2NIXVtjSF1uNA==

> <s_epik_cmdline>
J2VwaWtfcHl0aG9uJywgJy1waCcsICc3LjAnLCAnLXRuJywgJzgnLCAnLW1hJywgJzIwMCcsICctbWV0YWxfYmluZGluZycsICctaW1hZScsICc8aW5maWxlLm1hZT4nLCAnLW9tYWUnLCAnPG91dGZpbGUubWFlPic=

> <r_lp_tautomer_probability>
1

> <r_epik_Ionization_Penalty>
0.0522664

> <r_epik_Ionization_Penalty_Charging>
0

> <r_epik_Ionization_Penalty_Neutral>
0.0522664

> <r_epik_State_Penalty>
0.0369431

> <r_epik_Charging_Adjusted_Penalty>
0.0369431

> <i_epik_Tot_Q>
0

> <i_epik_Tot_abs_Q>
0

> <r_epik_Metal_State_Penalty>
0.0404664

> <b_epik_Metal_Only>
0

> <s_epik_Chemistry_Notes>
This compound contains an electron-poor aromatic ring that is susceptible to covalent hydrolysis at low pH, typically resulting in measured values for nitrogen ring protonation that are around two units higher than predicted values.

> <s_lp_Force_Field>
OPLS_2005

> <r_lp_Energy>
30.7934

> <b_lp_Chiralities_Consistent>
1

> <s_lp_Variant>
AV-unprocessed.smi:45-1

> <Gold.Version>
5.8.1

> <Gold.Id.Protein>
6NUR|6NUR_protein|mol2

> <Gold.PLP.Fitness>
49.6870

> <Gold.PLP.PLP>
-41.3960

> <Gold.PLP.part.hbond>
-1.0000

> <Gold.PLP.part.metal>
0.0000

> <Gold.PLP.part.buried>
-0.9941

> <Gold.PLP.part.nonpolar>
-38.2671

> <Gold.PLP.part.repulsive>
0.4689

> <Gold.PLP.ligand.clash>
0.0000

> <Gold.PLP.ligand.torsion>
0.8730

> <Gold.PLP.Chemscore.Hbond>
1.0000

> <Gold.PLP.Chemscore.CHOScore>
2.0000

> <Gold.PLP.Chemscore.Metal>
0.0000

> <Gold.Chemscore.Hbonds>
donor molecule, donor type, donor heavy atom, donor atom, acceptor molecule, acceptor atom, score
      L1  H    18    52       P1 10747  0.75
      L1  C    20    53       P1 10175  0.73
      L1  C    30    59       P1  8028  1.00

> <Gold.PLP.Chemscore.Internal.Correction>
1.0370

> <Gold.Rescore>
     Score         DG    S(hbond)    S(metal)    S(lipo)     H(rot)  DE(clash)    DE(int)     intcor
      9.94     -13.09       0.97        0.00     106.41       3.16       1.09       2.05       ----

> <Gold.Chemscore.Fitness>
9.9444

> <Gold.Chemscore.DG>
-13.0853

> <Gold.Chemscore.ZeroCoef>
-5.4800

> <Gold.Chemscore.Hbond>
0.9693

> <Gold.Chemscore.Metal>
0.0000

> <Gold.Chemscore.Lipo>
106.4108

> <Gold.Chemscore.Internal_Hbond>
0.0000

> <Gold.Chemscore.DEClash>
1.0901

> <Gold.Chemscore.DEInternal>
2.0508

> <Gold.Chemscore.Rot>
3.1571

> <Gold.Chemscore.Internal.Correction>
   9.000000E+99

> <Gold.Chemscore.Hbonds>
donor molecule, donor type, donor heavy atom, donor atom, acceptor molecule, acceptor atom, score
      L1  H    18    52       P1 10747  0.74

> <Gold.Chemscore.Hbond.Weighted>
-3.2373

> <Gold.Chemscore.Metal.Weighted>
-0.0000

> <Gold.Chemscore.Lipo.Weighted>
-12.4501

> <Gold.Chemscore.Internal_Hbond.Weighted>
0.0000

> <Gold.Chemscore.DEClash.Weighted>
1.0901

> <Gold.Chemscore.DEInternal.Weighted>
2.0508

> <Gold.Chemscore.Rot.Weighted>
8.0822

> <Gold.Chemscore.Internal.Correction.Weighted>
   9.000000E+99

> <Gold.Protein.RotatedTorsions>
[ 6907 6896 6895 6894 ] final  129.84 input  -60.11 | X-H torsion
[ 7974 7965 7964 7962 ] final  109.75 input  175.53 | X-H torsion
[ 8008 7997 7996 7995 ] final -159.32 input   59.86 | X-H torsion
[ 10167 10162 10161 10158 ] final -174.88 input  -65.29 | X-H torsion
[ 10718 10713 10712 10709 ] final  166.49 input   66.30 | X-H torsion
[ 10763 10752 10751 10750 ] final   39.77 input  -60.55 | X-H torsion
[ 11005 11000 10999 10996 ] final   12.26 input  -57.11 | X-H torsion

> <Gold.Protein.ActiveResidues>
 VAL166  LYS551  ARG553  GLY616  TRP617  ASP618  TYR619  PRO620  LYS621  CYS622 
 ASP623  PHE694  ASN695  SER759  ASP760  ASP761  ALA762  ILE779  LEU786  VAL792 
 PHE793  MET794  SER795  GLU796  ALA797  LYS798  CYS799  TRP800  GLU811  SER814 

> <Gold.Protein.RotatedAtoms>
  152.3585  133.6267  159.5997 H   0  0  0  0  0  0  0  0  0  0  0  0  # atno 6907 bound_to 6896
  150.7585  133.9461  159.3480 H   0  0  0  0  0  0  0  0  0  0  0  0  # atno 6908 bound_to 6896
  151.7303  135.0877  160.0350 H   0  0  0  0  0  0  0  0  0  0  0  0  # atno 6909 bound_to 6896
  145.2638  139.2692  143.4003 H   0  0  0  0  0  0  0  0  0  0  0  0  # atno 7974 bound_to 7965
  155.7607  140.0839  157.2156 H   0  0  0  0  0  0  0  0  0  0  0  0  # atno 8008 bound_to 7997
  154.4004  140.1543  156.2886 H   0  0  0  0  0  0  0  0  0  0  0  0  # atno 8009 bound_to 7997
  155.8842  140.3419  155.5912 H   0  0  0  0  0  0  0  0  0  0  0  0  # atno 8010 bound_to 7997
  139.5610  144.1870  152.1238 H   0  0  0  0  0  0  0  0  0  0  0  0  # atno 10167 bound_to 10162
  157.0650  131.0350  151.2633 H   0  0  0  0  0  0  0  0  0  0  0  0  # atno 10718 bound_to 10713
  152.9957  135.6211  154.2518 H   0  0  0  0  0  0  0  0  0  0  0  0  # atno 10763 bound_to 10752
  154.2257  135.2794  155.2910 H   0  0  0  0  0  0  0  0  0  0  0  0  # atno 10764 bound_to 10752
  154.5492  135.5738  153.6965 H   0  0  0  0  0  0  0  0  0  0  0  0  # atno 10765 bound_to 10752
  140.4940  134.0812  155.7778 H   0  0  0  0  0  0  0  0  0  0  0  0  # atno 11005 bound_to 11000
  146.3267  140.3062  142.8624 LP  0  0  0  0  0  0  0  0  0  0  0  0  # atno 17320 bound_to 7965
  144.9395  140.8063  143.5639 LP  0  0  0  0  0  0  0  0  0  0  0  0  # atno 17321 bound_to 7965
  140.1383  144.5225  150.6759 LP  0  0  0  0  0  0  0  0  0  0  0  0  # atno 17342 bound_to 10162
  140.6890  143.2365  151.5184 LP  0  0  0  0  0  0  0  0  0  0  0  0  # atno 17343 bound_to 10162
  157.4924  130.7830  149.7521 LP  0  0  0  0  0  0  0  0  0  0  0  0  # atno 17370 bound_to 10713
  155.9967  130.3904  150.2769 LP  0  0  0  0  0  0  0  0  0  0  0  0  # atno 17371 bound_to 10713
  141.1469  133.9038  157.2192 LP  0  0  0  0  0  0  0  0  0  0  0  0  # atno 17394 bound_to 11000
  139.9752  135.0116  156.9613 LP  0  0  0  0  0  0  0  0  0  0  0  0  # atno 17395 bound_to 11000

$$$$
