AV-unprocessed.smi:91|AV-procd|sdf|840|dock6
  -GOLD-   2262017273D 1   1.00000     0.00000
 Structure written by MMmdl.
 60 63  0  0  0  0  0  0  0  0  1 V2000
  154.1931  132.2303  157.8121 C   0  0  0  0  0  0  0  0  0  0  0  0
  153.0101  132.9924  157.6498 O   0  0  0  0  0  0  0  0  0  0  0  0
  151.9909  132.2774  156.9708 C   0  0  0  0  0  0  0  0  0  0  0  0
  150.8717  133.2472  156.5720 C   0  0  1  0  0  0  0  0  0  0  0  0
  151.4070  134.6543  156.2568 C   0  0  0  0  0  0  0  0  0  0  0  0
  150.3209  135.4944  155.7751 N   0  0  0  0  0  0  0  0  0  0  0  0
  150.6199  136.8038  155.6489 C   0  0  0  0  0  0  0  0  0  0  0  0
  150.6464  137.3084  154.3913 N   0  0  0  0  0  0  0  0  0  0  0  0
  150.9491  138.5953  154.1946 C   0  0  0  0  0  0  0  0  0  0  0  0
  151.2554  139.5294  155.0979 N   0  0  0  0  0  0  0  0  0  0  0  0
  151.2335  139.0209  156.3636 C   0  0  0  0  0  0  0  0  0  0  0  0
  150.9310  137.6789  156.7282 C   0  0  0  0  0  0  0  0  0  0  0  0
  151.0245  137.5305  158.1072 N   0  0  0  0  0  0  0  0  0  0  0  0
  151.3553  138.7189  158.5338 C   0  0  0  0  0  0  0  0  0  0  0  0
  151.4954  139.6755  157.5539 N   0  0  0  0  0  0  0  0  0  0  0  0
  151.8638  141.0675  157.7397 C   0  0  0  0  0  0  0  0  0  0  0  0
  152.1309  141.4417  159.2238 C   0  0  1  0  0  0  0  0  0  0  0  0
  153.5431  141.0317  159.7024 C   0  0  0  0  0  0  0  0  0  0  0  0
  154.0591  139.9460  158.9610 O   0  0  0  0  0  0  0  0  0  0  0  0
  151.8709  142.9404  159.5291 C   0  0  1  0  0  0  0  0  0  0  0  0
  152.8682  143.9282  158.9256 C   0  0  0  0  0  0  0  0  0  0  0  0
  152.0024  145.1442  158.6242 C   0  0  0  0  0  0  0  0  0  0  0  0
  150.7856  144.5571  158.1968 O   0  0  0  0  0  0  0  0  0  0  0  0
  150.5010  143.4752  159.0739 C   0  0  0  0  0  0  0  0  0  0  0  0
  149.6622  134.9397  154.6014 C   0  0  0  0  0  0  0  0  0  0  0  0
  149.1532  133.5072  154.8800 C   0  0  0  0  0  0  0  0  0  0  0  0
  147.9360  133.5034  155.8290 C   0  0  0  0  0  0  0  0  0  0  0  0
  148.7650  132.8292  153.5572 C   0  0  0  0  0  0  0  0  0  0  0  0
  150.2235  132.7177  155.4136 O   0  0  0  0  0  0  0  0  0  0  0  0
  154.9423  132.8247  158.3349 H   0  0  0  0  0  0  0  0  0  0  0  0
  154.6089  131.9372  156.8472 H   0  0  0  0  0  0  0  0  0  0  0  0
  154.0054  131.3316  158.4009 H   0  0  0  0  0  0  0  0  0  0  0  0
  152.3921  131.7738  156.0897 H   0  0  0  0  0  0  0  0  0  0  0  0
  151.5894  131.5079  157.6324 H   0  0  0  0  0  0  0  0  0  0  0  0
  150.1587  133.2967  157.3952 H   0  0  0  0  0  0  0  0  0  0  0  0
  151.8525  135.0986  157.1479 H   0  0  0  0  0  0  0  0  0  0  0  0
  152.1898  134.5865  155.5010 H   0  0  0  0  0  0  0  0  0  0  0  0
  150.9468  138.9235  153.1658 H   0  0  0  0  0  0  0  0  0  0  0  0
  151.5036  138.9324  159.5823 H   0  0  0  0  0  0  0  0  0  0  0  0
  152.7417  141.2706  157.1264 H   0  0  0  0  0  0  0  0  0  0  0  0
  151.0575  141.6687  157.3211 H   0  0  0  0  0  0  0  0  0  0  0  0
  151.4143  140.8965  159.8400 H   0  0  0  0  0  0  0  0  0  0  0  0
  154.2335  141.8736  159.6443 H   0  0  0  0  0  0  0  0  0  0  0  0
  153.5152  140.7177  160.7461 H   0  0  0  0  0  0  0  0  0  0  0  0
  153.3800  139.2956  158.8676 H   0  0  0  0  0  0  0  0  0  0  0  0
  151.8991  143.0681  160.6127 H   0  0  0  0  0  0  0  0  0  0  0  0
  153.6951  144.1583  159.5978 H   0  0  0  0  0  0  0  0  0  0  0  0
  153.2929  143.5580  157.9940 H   0  0  0  0  0  0  0  0  0  0  0  0
  151.8315  145.7382  159.5234 H   0  0  0  0  0  0  0  0  0  0  0  0
  152.4317  145.7896  157.8577 H   0  0  0  0  0  0  0  0  0  0  0  0
  149.8773  142.7290  158.5815 H   0  0  0  0  0  0  0  0  0  0  0  0
  149.9390  143.8524  159.9297 H   0  0  0  0  0  0  0  0  0  0  0  0
  148.8343  135.5820  154.2962 H   0  0  0  0  0  0  0  0  0  0  0  0
  150.3746  134.9273  153.7749 H   0  0  0  0  0  0  0  0  0  0  0  0
  147.0823  134.0020  155.3690 H   0  0  0  0  0  0  0  0  0  0  0  0
  148.1356  134.0223  156.7661 H   0  0  0  0  0  0  0  0  0  0  0  0
  147.6308  132.4854  156.0726 H   0  0  0  0  0  0  0  0  0  0  0  0
  147.9669  133.3737  153.0513 H   0  0  0  0  0  0  0  0  0  0  0  0
  148.4177  131.8089  153.7229 H   0  0  0  0  0  0  0  0  0  0  0  0
  149.6146  132.7792  152.8753 H   0  0  0  0  0  0  0  0  0  0  0  0
  1  2  1  0  0  0  0
  1 30  1  0  0  0  0
  1 31  1  0  0  0  0
  1 32  1  0  0  0  0
  2  3  1  0  0  0  0
  3  4  1  0  0  0  0
  3 33  1  0  0  0  0
  3 34  1  0  0  0  0
  4 29  1  0  0  0  0
  4  5  1  0  0  0  0
  4 35  1  0  0  0  0
  5  6  1  0  0  0  0
  5 36  1  0  0  0  0
  5 37  1  0  0  0  0
  6  7  1  0  0  0  0
  6 25  1  0  0  0  0
  7 12  1  0  0  0  0
  7  8  2  0  0  0  0
  8  9  1  0  0  0  0
  9 10  2  0  0  0  0
  9 38  1  0  0  0  0
 10 11  1  0  0  0  0
 11 15  1  0  0  0  0
 11 12  2  0  0  0  0
 12 13  1  0  0  0  0
 13 14  2  0  0  0  0
 14 15  1  0  0  0  0
 14 39  1  0  0  0  0
 15 16  1  0  0  0  0
 16 17  1  0  0  0  0
 16 40  1  0  0  0  0
 16 41  1  0  0  0  0
 17 18  1  0  0  0  0
 17 20  1  0  0  0  0
 17 42  1  0  0  0  0
 18 19  1  0  0  0  0
 18 43  1  0  0  0  0
 18 44  1  0  0  0  0
 19 45  1  0  0  0  0
 20 24  1  0  0  0  0
 20 21  1  0  0  0  0
 20 46  1  0  0  0  0
 21 22  1  0  0  0  0
 21 47  1  0  0  0  0
 21 48  1  0  0  0  0
 22 23  1  0  0  0  0
 22 49  1  0  0  0  0
 22 50  1  0  0  0  0
 23 24  1  0  0  0  0
 24 51  1  0  0  0  0
 24 52  1  0  0  0  0
 25 26  1  0  0  0  0
 25 53  1  0  0  0  0
 25 54  1  0  0  0  0
 26 27  1  0  0  0  0
 26 28  1  0  0  0  0
 26 29  1  0  0  0  0
 27 55  1  0  0  0  0
 27 56  1  0  0  0  0
 27 57  1  0  0  0  0
 28 58  1  0  0  0  0
 28 59  1  0  0  0  0
 28 60  1  0  0  0  0
M  END
> <s_m_source_file>
AV-unprocessed.smi

> <i_m_source_file_index>
91

> <i_lp_mmshare_version>
43012

> <i_f3d_flags>
0

> <s_epik_input>
W0NIM11PW0NIMl1bQ0BASF0oTzEpW0NIMl1OKFtDSDJdQzEoW0NIM10pW0NIM10pYyhuW2NIXW4yKWMoYzIzKW5bY0hdbjNbQ0gyXVtDQEhdKFtDSDJdW09IXSlbQ0BASF00W0NIMl1bQ0gyXU9bQ0gyXTQ=

> <s_epik_cmdline>
J2VwaWtfcHl0aG9uJywgJy1waCcsICc3LjAnLCAnLXRuJywgJzgnLCAnLW1hJywgJzIwMCcsICctbWV0YWxfYmluZGluZycsICctaW1hZScsICc8aW5maWxlLm1hZT4nLCAnLW9tYWUnLCAnPG91dGZpbGUubWFlPic=

> <r_lp_tautomer_probability>
1

> <r_epik_Ionization_Penalty>
8.63591e-05

> <r_epik_Ionization_Penalty_Charging>
0

> <r_epik_Ionization_Penalty_Neutral>
8.63591e-05

> <r_epik_State_Penalty>
-0

> <r_epik_Charging_Adjusted_Penalty>
0

> <i_epik_Tot_Q>
0

> <i_epik_Tot_abs_Q>
0

> <r_epik_Metal_State_Penalty>
-0

> <b_epik_Metal_Only>
0

> <s_lp_Force_Field>
OPLS_2005

> <r_lp_Energy>
49.4407

> <b_lp_Chiralities_Consistent>
1

> <s_lp_Variant>
AV-unprocessed.smi:91-8

> <Gold.Version>
5.8.1

> <Gold.Id.Protein>
6NUR|6NUR_protein|mol2

> <Gold.PLP.Fitness>
51.2528

> <Gold.PLP.PLP>
-44.1992

> <Gold.PLP.part.hbond>
-2.7833

> <Gold.PLP.part.metal>
0.0000

> <Gold.PLP.part.buried>
-5.9610

> <Gold.PLP.part.nonpolar>
-35.0514

> <Gold.PLP.part.repulsive>
0.5133

> <Gold.PLP.ligand.clash>
0.0073

> <Gold.PLP.ligand.torsion>
1.3355

> <Gold.PLP.Chemscore.Hbond>
2.2616

> <Gold.PLP.Chemscore.CHOScore>
0.8682

> <Gold.PLP.Chemscore.Metal>
0.0000

> <Gold.Chemscore.Hbonds>
donor molecule, donor type, donor heavy atom, donor atom, acceptor molecule, acceptor atom, score
      P1  H  6896  6908       L1     2  0.90
      P1  H  7989  7998       L1    10  0.31
      P1  H  7997  8009       L1    19  1.00
      L1  C     9    38       P1  7957  0.74

> <Gold.PLP.Chemscore.Internal.Correction>
0.3422

> <Gold.Rescore>
     Score         DG    S(hbond)    S(metal)    S(lipo)     H(rot)  DE(clash)    DE(int)     intcor
     13.65     -16.09       1.62        0.00     110.76       3.03       0.03       2.41       ----

> <Gold.Chemscore.Fitness>
13.6464

> <Gold.Chemscore.DG>
-16.0852

> <Gold.Chemscore.ZeroCoef>
-5.4800

> <Gold.Chemscore.Hbond>
1.6165

> <Gold.Chemscore.Metal>
0.0000

> <Gold.Chemscore.Lipo>
110.7589

> <Gold.Chemscore.Internal_Hbond>
0.0000

> <Gold.Chemscore.DEClash>
0.0256

> <Gold.Chemscore.DEInternal>
2.4132

> <Gold.Chemscore.Rot>
3.0284

> <Gold.Chemscore.Internal.Correction>
   9.000000E+99

> <Gold.Chemscore.Hbonds>
donor molecule, donor type, donor heavy atom, donor atom, acceptor molecule, acceptor atom, score
      P1  H  6896  6908       L1     2  0.18
      P1  H  7989  7998       L1    10  0.01
      P1  H  7997  8009       L1    19  0.62

> <Gold.Chemscore.Hbond.Weighted>
-5.3992

> <Gold.Chemscore.Metal.Weighted>
-0.0000

> <Gold.Chemscore.Lipo.Weighted>
-12.9588

> <Gold.Chemscore.Internal_Hbond.Weighted>
0.0000

> <Gold.Chemscore.DEClash.Weighted>
0.0256

> <Gold.Chemscore.DEInternal.Weighted>
2.4132

> <Gold.Chemscore.Rot.Weighted>
7.7528

> <Gold.Chemscore.Internal.Correction.Weighted>
   9.000000E+99

> <Gold.Protein.RotatedTorsions>
[ 6907 6896 6895 6894 ] final   35.56 input  -60.11 | X-H torsion
[ 7974 7965 7964 7962 ] final  -99.66 input  175.53 | X-H torsion
[ 8008 7997 7996 7995 ] final  124.32 input   59.86 | X-H torsion
[ 10167 10162 10161 10158 ] final -164.15 input  -65.29 | X-H torsion
[ 10718 10713 10712 10709 ] final  -99.79 input   66.30 | X-H torsion
[ 10763 10752 10751 10750 ] final   24.03 input  -60.55 | X-H torsion
[ 11005 11000 10999 10996 ] final   67.36 input  -57.11 | X-H torsion

> <Gold.Protein.ActiveResidues>
 VAL166  LYS551  ARG553  GLY616  TRP617  ASP618  TYR619  PRO620  LYS621  CYS622 
 ASP623  PHE694  ASN695  SER759  ASP760  ASP761  ALA762  ILE779  LEU786  VAL792 
 PHE793  MET794  SER795  GLU796  ALA797  LYS798  CYS799  TRP800  GLU811  SER814 

> <Gold.Protein.RotatedAtoms>
  152.1178  134.9227  160.0564 H   0  0  0  0  0  0  0  0  0  0  0  0  # atno 6907 bound_to 6896
  152.0380  133.3960  159.4333 H   0  0  0  0  0  0  0  0  0  0  0  0  # atno 6908 bound_to 6896
  150.6847  134.3367  159.4894 H   0  0  0  0  0  0  0  0  0  0  0  0  # atno 6909 bound_to 6896
  145.3046  140.9386  143.2804 H   0  0  0  0  0  0  0  0  0  0  0  0  # atno 7974 bound_to 7965
  156.2797  140.2742  156.1769 H   0  0  0  0  0  0  0  0  0  0  0  0  # atno 8008 bound_to 7997
  155.0597  140.0386  157.2590 H   0  0  0  0  0  0  0  0  0  0  0  0  # atno 8009 bound_to 7997
  154.7127  140.2672  155.6619 H   0  0  0  0  0  0  0  0  0  0  0  0  # atno 8010 bound_to 7997
  139.6271  144.0511  152.1984 H   0  0  0  0  0  0  0  0  0  0  0  0  # atno 10167 bound_to 10162
  156.0144  130.5298  150.6721 H   0  0  0  0  0  0  0  0  0  0  0  0  # atno 10718 bound_to 10713
  153.0794  135.6614  154.0077 H   0  0  0  0  0  0  0  0  0  0  0  0  # atno 10763 bound_to 10752
  153.9702  135.2965  155.3429 H   0  0  0  0  0  0  0  0  0  0  0  0  # atno 10764 bound_to 10752
  154.7190  135.5173  153.8853 H   0  0  0  0  0  0  0  0  0  0  0  0  # atno 10765 bound_to 10752
  139.9776  134.6797  156.0324 H   0  0  0  0  0  0  0  0  0  0  0  0  # atno 11005 bound_to 11000
  144.9065  139.4582  143.6607 LP  0  0  0  0  0  0  0  0  0  0  0  0  # atno 17320 bound_to 7965
  146.3140  139.7849  142.8998 LP  0  0  0  0  0  0  0  0  0  0  0  0  # atno 17321 bound_to 7965
  140.0167  144.6183  150.7601 LP  0  0  0  0  0  0  0  0  0  0  0  0  # atno 17342 bound_to 10162
  140.7417  143.2822  151.3566 LP  0  0  0  0  0  0  0  0  0  0  0  0  # atno 17343 bound_to 10162
  157.4442  131.0865  151.0913 LP  0  0  0  0  0  0  0  0  0  0  0  0  # atno 17370 bound_to 10713
  157.1448  130.6158  149.5565 LP  0  0  0  0  0  0  0  0  0  0  0  0  # atno 17371 bound_to 10713
  141.1451  133.6557  156.3844 LP  0  0  0  0  0  0  0  0  0  0  0  0  # atno 17394 bound_to 11000
  140.5163  134.6347  157.5302 LP  0  0  0  0  0  0  0  0  0  0  0  0  # atno 17395 bound_to 11000

$$$$
