AV-unprocessed.smi:1356|AV-procd|sdf|5541|dock9
  -GOLD-   22720 5133D 1   1.00000     0.00000
 Structure written by MMmdl.
 41 42  0  0  0  0  0  0  0  0  1 V2000
  147.4034  134.0292  162.5921 C   0  0  0  0  0  0  0  0  0  0  0  0
  146.0205  134.2709  162.0124 C   0  0  1  0  0  0  0  0  0  0  0  0
  145.1452  135.3562  162.5893 C   0  0  0  0  0  0  0  0  0  0  0  0
  145.6452  135.4800  161.1644 C   0  0  1  0  0  0  0  0  0  0  0  0
  146.6889  136.5030  160.8668 C   0  0  0  0  0  0  0  0  0  0  0  0
  147.1977  137.1992  161.7453 O   0  0  0  0  0  0  0  0  0  0  0  0
  147.0595  136.5562  159.5780 N   0  0  0  0  0  0  0  0  0  0  0  0
  148.0697  137.4571  159.0354 C   0  0  0  0  0  0  0  0  0  0  0  0
  149.4342  136.7529  158.8972 C   0  0  0  0  0  0  0  0  0  0  0  0
  150.6170  137.6118  159.3566 C   0  0  0  0  0  0  0  0  0  0  0  0
  151.3575  137.2377  160.2668 O   0  0  0  0  0  0  0  0  0  0  0  0
  150.7814  138.7745  158.7076 N   0  0  0  0  0  0  0  0  0  0  0  0
  151.8230  139.7550  158.9913 C   0  0  0  0  0  0  0  0  0  0  0  0
  151.7867  140.9321  158.0020 C   0  0  0  0  0  0  0  0  0  0  0  0
  151.7865  142.2734  158.7103 C   0  0  0  0  0  0  0  0  0  0  0  0
  152.7480  142.5644  159.7014 C   0  0  0  0  0  0  0  0  0  0  0  0
  152.6965  143.8197  160.3380 C   0  0  0  0  0  0  0  0  0  0  0  0
  151.6906  144.7303  159.9613 C   0  0  0  0  0  0  0  0  0  0  0  0
  150.7766  144.3432  158.9611 C   0  0  0  0  0  0  0  0  0  0  0  0
  150.8163  143.1418  158.3453 N   0  0  0  0  0  0  0  0  0  0  0  0
  147.8411  134.9521  162.9740 H   0  0  0  0  0  0  0  0  0  0  0  0
  148.0639  133.6191  161.8279 H   0  0  0  0  0  0  0  0  0  0  0  0
  147.3416  133.3165  163.4142 H   0  0  0  0  0  0  0  0  0  0  0  0
  145.5218  133.3477  161.7238 H   0  0  0  0  0  0  0  0  0  0  0  0
  144.0876  135.1403  162.7257 H   0  0  0  0  0  0  0  0  0  0  0  0
  145.5816  136.0063  163.3460 H   0  0  0  0  0  0  0  0  0  0  0  0
  144.9429  135.2839  160.3565 H   0  0  0  0  0  0  0  0  0  0  0  0
  146.6038  135.9331  158.9270 H   0  0  0  0  0  0  0  0  0  0  0  0
  147.7360  137.8521  158.0739 H   0  0  0  0  0  0  0  0  0  0  0  0
  148.1542  138.3103  159.7095 H   0  0  0  0  0  0  0  0  0  0  0  0
  149.4331  135.8268  159.4732 H   0  0  0  0  0  0  0  0  0  0  0  0
  149.6010  136.4738  157.8555 H   0  0  0  0  0  0  0  0  0  0  0  0
  150.1284  139.0035  157.9725 H   0  0  0  0  0  0  0  0  0  0  0  0
  151.6709  140.1191  160.0077 H   0  0  0  0  0  0  0  0  0  0  0  0
  152.8024  139.2737  158.9772 H   0  0  0  0  0  0  0  0  0  0  0  0
  152.6440  140.8875  157.3290 H   0  0  0  0  0  0  0  0  0  0  0  0
  150.8990  140.8643  157.3714 H   0  0  0  0  0  0  0  0  0  0  0  0
  153.5054  141.8431  159.9710 H   0  0  0  0  0  0  0  0  0  0  0  0
  153.4142  144.0791  161.1018 H   0  0  0  0  0  0  0  0  0  0  0  0
  151.6202  145.7016  160.4281 H   0  0  0  0  0  0  0  0  0  0  0  0
  149.9919  145.0162  158.6486 H   0  0  0  0  0  0  0  0  0  0  0  0
  1  2  1  0  0  0  0
  1 21  1  0  0  0  0
  1 22  1  0  0  0  0
  1 23  1  0  0  0  0
  2  4  1  0  0  0  0
  2  3  1  0  0  0  0
  2 24  1  0  0  0  0
  3  4  1  0  0  0  0
  3 25  1  0  0  0  0
  3 26  1  0  0  0  0
  4  5  1  0  0  0  0
  4 27  1  0  0  0  0
  5  6  2  0  0  0  0
  5  7  1  0  0  0  0
  7  8  1  0  0  0  0
  7 28  1  0  0  0  0
  8  9  1  0  0  0  0
  8 29  1  0  0  0  0
  8 30  1  0  0  0  0
  9 10  1  0  0  0  0
  9 31  1  0  0  0  0
  9 32  1  0  0  0  0
 10 11  2  0  0  0  0
 10 12  1  0  0  0  0
 12 13  1  0  0  0  0
 12 33  1  0  0  0  0
 13 14  1  0  0  0  0
 13 34  1  0  0  0  0
 13 35  1  0  0  0  0
 14 15  1  0  0  0  0
 14 36  1  0  0  0  0
 14 37  1  0  0  0  0
 15 20  1  0  0  0  0
 15 16  2  0  0  0  0
 16 17  1  0  0  0  0
 16 38  1  0  0  0  0
 17 18  2  0  0  0  0
 17 39  1  0  0  0  0
 18 19  1  0  0  0  0
 18 40  1  0  0  0  0
 19 20  2  0  0  0  0
 19 41  1  0  0  0  0
M  END
> <s_m_source_file>
AV-unprocessed.smi

> <i_m_source_file_index>
1356

> <i_lp_mmshare_version>
43012

> <i_f3d_flags>
0

> <s_epik_input>
W0NIM11bQ0BASF0xW0NIMl1bQ0BIXTFDKD1PKVtOSF1bQ0gyXVtDSDJdQyg9TylbTkhdW0NIMl1bQ0gyXWMyW2NIXVtjSF1bY0hdW2NIXW4y

> <s_epik_cmdline>
J2VwaWtfcHl0aG9uJywgJy1waCcsICc3LjAnLCAnLXRuJywgJzgnLCAnLW1hJywgJzIwMCcsICctbWV0YWxfYmluZGluZycsICctaW1hZScsICc8aW5maWxlLm1hZT4nLCAnLW9tYWUnLCAnPG91dGZpbGUubWFlPic=

> <r_epik_Ionization_Penalty>
0.0258005

> <r_epik_Ionization_Penalty_Charging>
0

> <r_epik_Ionization_Penalty_Neutral>
0.0258005

> <r_epik_State_Penalty>
0.0210245

> <r_epik_Charging_Adjusted_Penalty>
0.0210245

> <i_epik_Tot_Q>
0

> <i_epik_Tot_abs_Q>
0

> <r_epik_Metal_State_Penalty>
0.0201445

> <b_epik_Metal_Only>
0

> <s_lp_Force_Field>
OPLS_2005

> <r_lp_Energy>
8.2515

> <b_lp_Chiralities_Consistent>
1

> <s_lp_Variant>
AV-unprocessed.smi:1356-2

> <Gold.Version>
5.8.1

> <Gold.Id.Protein>
6NUR|6NUR_protein|mol2

> <Gold.PLP.Fitness>
47.7171

> <Gold.PLP.PLP>
-37.7836

> <Gold.PLP.part.hbond>
-3.0000

> <Gold.PLP.part.metal>
0.0000

> <Gold.PLP.part.buried>
-6.3305

> <Gold.PLP.part.nonpolar>
-28.6378

> <Gold.PLP.part.repulsive>
0.3154

> <Gold.PLP.ligand.clash>
0.0000

> <Gold.PLP.ligand.torsion>
0.9504

> <Gold.PLP.Chemscore.Hbond>
2.8400

> <Gold.PLP.Chemscore.CHOScore>
1.0564

> <Gold.PLP.Chemscore.Metal>
0.0000

> <Gold.Chemscore.Hbonds>
donor molecule, donor type, donor heavy atom, donor atom, acceptor molecule, acceptor atom, score
      P1  H  6896  6909       L1    11  0.84
      P1  H  6931  6943       L1     6  0.68
      P1  H  6934  6947       L1     6  0.88
      L1  C    19    41       P1  8029  0.67

> <Gold.PLP.Chemscore.Internal.Correction>
0.1451

> <Gold.Rescore>
     Score         DG    S(hbond)    S(metal)    S(lipo)     H(rot)  DE(clash)    DE(int)     intcor
     19.30     -20.53       2.58        0.00     102.45       2.18       0.08       1.15       ----

> <Gold.Chemscore.Fitness>
19.3046

> <Gold.Chemscore.DG>
-20.5297

> <Gold.Chemscore.ZeroCoef>
-5.4800

> <Gold.Chemscore.Hbond>
2.5845

> <Gold.Chemscore.Metal>
0.0000

> <Gold.Chemscore.Lipo>
102.4463

> <Gold.Chemscore.Internal_Hbond>
0.0000

> <Gold.Chemscore.DEClash>
0.0759

> <Gold.Chemscore.DEInternal>
1.1492

> <Gold.Chemscore.Rot>
2.1753

> <Gold.Chemscore.Internal.Correction>
   9.000000E+99

> <Gold.Chemscore.Hbonds>
donor molecule, donor type, donor heavy atom, donor atom, acceptor molecule, acceptor atom, score
      P1  H  6896  6909       L1    11  0.29
      P1  H  6931  6943       L1     6  0.67
      P1  H  6934  6947       L1     6  0.37

> <Gold.Chemscore.Hbond.Weighted>
-8.6321

> <Gold.Chemscore.Metal.Weighted>
-0.0000

> <Gold.Chemscore.Lipo.Weighted>
-11.9862

> <Gold.Chemscore.Internal_Hbond.Weighted>
0.0000

> <Gold.Chemscore.DEClash.Weighted>
0.0759

> <Gold.Chemscore.DEInternal.Weighted>
1.1492

> <Gold.Chemscore.Rot.Weighted>
5.5687

> <Gold.Chemscore.Internal.Correction.Weighted>
   9.000000E+99

> <Gold.Protein.RotatedTorsions>
[ 6907 6896 6895 6894 ] final  108.52 input  -60.11 | X-H torsion
[ 7974 7965 7964 7962 ] final   61.60 input  175.53 | X-H torsion
[ 8008 7997 7996 7995 ] final  -20.66 input   59.86 | X-H torsion
[ 10167 10162 10161 10158 ] final  109.10 input  -65.29 | X-H torsion
[ 10718 10713 10712 10709 ] final   44.59 input   66.30 | X-H torsion
[ 10763 10752 10751 10750 ] final   28.60 input  -60.55 | X-H torsion
[ 11005 11000 10999 10996 ] final -158.31 input  -57.11 | X-H torsion

> <Gold.Protein.ActiveResidues>
 VAL166  LYS551  ARG553  GLY616  TRP617  ASP618  TYR619  PRO620  LYS621  CYS622 
 ASP623  PHE694  ASN695  SER759  ASP760  ASP761  ALA762  ILE779  LEU786  VAL792 
 PHE793  MET794  SER795  GLU796  ALA797  LYS798  CYS799  TRP800  GLU811  SER814 

> <Gold.Protein.RotatedAtoms>
  152.5108  133.9077  159.7472 H   0  0  0  0  0  0  0  0  0  0  0  0  # atno 6907 bound_to 6896
  150.9478  133.6575  159.2785 H   0  0  0  0  0  0  0  0  0  0  0  0  # atno 6908 bound_to 6896
  151.3864  135.0954  159.9565 H   0  0  0  0  0  0  0  0  0  0  0  0  # atno 6909 bound_to 6896
  145.8829  139.3456  143.0695 H   0  0  0  0  0  0  0  0  0  0  0  0  # atno 7974 bound_to 7965
  154.4755  140.2056  155.9889 H   0  0  0  0  0  0  0  0  0  0  0  0  # atno 8008 bound_to 7997
  156.1082  140.3233  155.8005 H   0  0  0  0  0  0  0  0  0  0  0  0  # atno 8009 bound_to 7997
  155.4681  140.0529  157.2973 H   0  0  0  0  0  0  0  0  0  0  0  0  # atno 8010 bound_to 7997
  139.6793  144.7119  151.1545 H   0  0  0  0  0  0  0  0  0  0  0  0  # atno 10167 bound_to 10162
  157.4284  130.8010  149.7580 H   0  0  0  0  0  0  0  0  0  0  0  0  # atno 10718 bound_to 10713
  153.0482  135.6509  154.0762 H   0  0  0  0  0  0  0  0  0  0  0  0  # atno 10763 bound_to 10752
  154.0456  135.2900  155.3350 H   0  0  0  0  0  0  0  0  0  0  0  0  # atno 10764 bound_to 10752
  154.6753  135.5340  153.8258 H   0  0  0  0  0  0  0  0  0  0  0  0  # atno 10765 bound_to 10752
  140.6550  134.4410  157.5235 H   0  0  0  0  0  0  0  0  0  0  0  0  # atno 11005 bound_to 11000
  145.9002  140.9248  143.0507 LP  0  0  0  0  0  0  0  0  0  0  0  0  # atno 17320 bound_to 7965
  144.6728  140.1022  143.7460 LP  0  0  0  0  0  0  0  0  0  0  0  0  # atno 17321 bound_to 7965
  140.7646  143.5724  150.8982 LP  0  0  0  0  0  0  0  0  0  0  0  0  # atno 17342 bound_to 10162
  139.9395  143.6399  152.3057 LP  0  0  0  0  0  0  0  0  0  0  0  0  # atno 17343 bound_to 10162
  155.9904  130.3944  150.3028 LP  0  0  0  0  0  0  0  0  0  0  0  0  # atno 17370 bound_to 10713
  157.1182  131.0239  151.3020 LP  0  0  0  0  0  0  0  0  0  0  0  0  # atno 17371 bound_to 10713
  139.9032  134.8507  156.1809 LP  0  0  0  0  0  0  0  0  0  0  0  0  # atno 17394 bound_to 11000
  141.0508  133.6890  156.1768 LP  0  0  0  0  0  0  0  0  0  0  0  0  # atno 17395 bound_to 11000

$$$$
