AV-unprocessed.smi:1952|AV-procd|sdf|7889|dock9
  -GOLD-   2272010 43D 1   1.00000     0.00000
 Structure written by MMmdl.
 39 40  0  0  0  0  0  0  0  0  3 V2000
  152.8931  141.6521  159.6814 C   0  0  0  0  0  0  0  0  0  0  0  0
  152.0645  141.2675  158.5041 C   0  0  0  0  0  0  0  0  0  0  0  0
  150.9101  141.7709  157.9748 C   0  0  0  0  0  0  0  0  0  0  0  0
  150.6764  140.9332  156.8508 C   0  0  0  0  0  0  0  0  0  0  0  0
  149.6411  141.0246  156.0020 N   0  5  0  0  0  0  0  0  0  0  0  0
  149.5451  140.1745  154.9558 C   0  0  0  0  0  0  0  0  0  0  0  0
  150.4846  139.6851  154.3251 O   0  0  0  0  0  0  0  0  0  0  0  0
  148.2822  139.8459  154.6433 N   0  0  0  0  0  0  0  0  0  0  0  0
  147.8540  138.8751  153.6343 C   0  0  2  0  0  0  0  0  0  0  0  0
  147.0590  139.5994  152.5398 C   0  0  0  0  0  0  0  0  0  0  0  0
  147.0243  137.7429  154.2818 C   0  0  0  0  0  0  0  0  0  0  0  0
  146.7967  136.6026  153.3590 N   0  3  0  0  0  0  0  0  0  0  0  0
  146.4709  135.3351  154.0512 C   0  0  0  0  0  0  0  0  0  0  0  0
  146.3638  134.1918  153.0274 C   0  0  0  0  0  0  0  0  0  0  0  0
  145.3852  134.5170  152.0466 O   0  0  0  0  0  0  0  0  0  0  0  0
  145.7226  135.6968  151.3255 C   0  0  0  0  0  0  0  0  0  0  0  0
  145.8025  136.8856  152.2969 C   0  0  0  0  0  0  0  0  0  0  0  0
  151.5993  139.9946  156.7176 N   0  0  0  0  0  0  0  0  0  0  0  0
  152.4973  140.2070  157.7706 O   0  0  0  0  0  0  0  0  0  0  0  0
  153.1224  140.7811  160.2952 H   0  0  0  0  0  0  0  0  0  0  0  0
  152.3698  142.3767  160.3053 H   0  0  0  0  0  0  0  0  0  0  0  0
  153.8345  142.0986  159.3611 H   0  0  0  0  0  0  0  0  0  0  0  0
  150.3267  142.6062  158.3321 H   0  0  0  0  0  0  0  0  0  0  0  0
  147.5515  140.2859  155.1838 H   0  0  0  0  0  0  0  0  0  0  0  0
  148.7313  138.4412  153.1526 H   0  0  0  0  0  0  0  0  0  0  0  0
  146.7481  138.9066  151.7574 H   0  0  0  0  0  0  0  0  0  0  0  0
  147.6597  140.3785  152.0692 H   0  0  0  0  0  0  0  0  0  0  0  0
  146.1617  140.0700  152.9437 H   0  0  0  0  0  0  0  0  0  0  0  0
  147.5689  137.3858  155.1572 H   0  0  0  0  0  0  0  0  0  0  0  0
  146.0696  138.1200  154.6515 H   0  0  0  0  0  0  0  0  0  0  0  0
  147.2471  135.0992  154.7803 H   0  0  0  0  0  0  0  0  0  0  0  0
  145.5335  135.4441  154.5988 H   0  0  0  0  0  0  0  0  0  0  0  0
  147.3272  134.0069  152.5491 H   0  0  0  0  0  0  0  0  0  0  0  0
  146.0724  133.2668  153.5252 H   0  0  0  0  0  0  0  0  0  0  0  0
  146.6685  135.5600  150.7985 H   0  0  0  0  0  0  0  0  0  0  0  0
  144.9593  135.8797  150.5691 H   0  0  0  0  0  0  0  0  0  0  0  0
  144.8254  137.0703  152.7459 H   0  0  0  0  0  0  0  0  0  0  0  0
  146.0776  137.7866  151.7494 H   0  0  0  0  0  0  0  0  0  0  0  0
  147.6812  136.4453  152.8952 H   0  0  0  0  0  0  0  0  0  0  0  0
  1  2  1  0  0  0  0
  1 20  1  0  0  0  0
  1 21  1  0  0  0  0
  1 22  1  0  0  0  0
  2 19  1  0  0  0  0
  2  3  2  0  0  0  0
  3  4  1  0  0  0  0
  3 23  1  0  0  0  0
  4  5  1  0  0  0  0
  4 18  2  0  0  0  0
  5  6  1  0  0  0  0
  6  7  2  0  0  0  0
  6  8  1  0  0  0  0
  8  9  1  0  0  0  0
  8 24  1  0  0  0  0
  9 10  1  0  0  0  0
  9 11  1  0  0  0  0
  9 25  1  0  0  0  0
 10 26  1  0  0  0  0
 10 27  1  0  0  0  0
 10 28  1  0  0  0  0
 11 12  1  0  0  0  0
 11 29  1  0  0  0  0
 11 30  1  0  0  0  0
 12 17  1  0  0  0  0
 12 13  1  0  0  0  0
 12 39  1  0  0  0  0
 13 14  1  0  0  0  0
 13 31  1  0  0  0  0
 13 32  1  0  0  0  0
 14 15  1  0  0  0  0
 14 33  1  0  0  0  0
 14 34  1  0  0  0  0
 15 16  1  0  0  0  0
 16 17  1  0  0  0  0
 16 35  1  0  0  0  0
 16 36  1  0  0  0  0
 17 37  1  0  0  0  0
 17 38  1  0  0  0  0
 18 19  1  0  0  0  0
M  CHG  1   5  -1
M  CHG  1  12   1
M  END
> <s_m_source_file>
AV-unprocessed.smi

> <i_m_source_file_index>
1952

> <i_lp_mmshare_version>
43012

> <i_f3d_flags>
0

> <s_epik_input>
W0NIM11jMVtjSF1jKG5vMSlbTkhdQyg9TylbTkhdW0NASF0oW0NIM10pW0NIMl1OMltDSDJdW0NIMl1PW0NIMl1bQ0gyXTI=

> <s_epik_cmdline>
J2VwaWtfcHl0aG9uJywgJy1waCcsICc3LjAnLCAnLXRuJywgJzgnLCAnLW1hJywgJzIwMCcsICctbWV0YWxfYmluZGluZycsICctaW1hZScsICc8aW5maWxlLm1hZT4nLCAnLW9tYWUnLCAnPG91dGZpbGUubWFlPic=

> <r_epik_Ionization_Penalty>
6.62152

> <r_epik_Ionization_Penalty_Charging>
6.62142

> <r_epik_Ionization_Penalty_Neutral>
9.8734e-05

> <r_epik_State_Penalty>
6.82189

> <r_epik_Charging_Adjusted_Penalty>
13.4433

> <i_epik_Tot_Q>
0

> <i_epik_Tot_abs_Q>
2

> <r_epik_Metal_State_Penalty>
2.76365

> <b_epik_Metal_Only>
1

> <s_lp_Force_Field>
OPLS_2005

> <r_lp_Energy>
7.85486

> <b_lp_Chiralities_Consistent>
1

> <s_lp_Variant>
AV-unprocessed.smi:1952-7

> <Gold.Version>
5.8.1

> <Gold.Id.Protein>
6NUR|6NUR_protein|mol2

> <Gold.PLP.Fitness>
37.7202

> <Gold.PLP.PLP>
-26.5332

> <Gold.PLP.part.hbond>
-3.0000

> <Gold.PLP.part.metal>
0.0000

> <Gold.PLP.part.buried>
-1.9169

> <Gold.PLP.part.nonpolar>
-22.3475

> <Gold.PLP.part.repulsive>
0.9799

> <Gold.PLP.ligand.clash>
0.0000

> <Gold.PLP.ligand.torsion>
0.4421

> <Gold.PLP.Chemscore.Hbond>
4.0000

> <Gold.PLP.Chemscore.CHOScore>
0.0000

> <Gold.PLP.Chemscore.Metal>
0.0000

> <Gold.Chemscore.Hbonds>
donor molecule, donor type, donor heavy atom, donor atom, acceptor molecule, acceptor atom, score
      L1  H    12    39       P1  7948  2.00
      P1  H  7989  7998       L1     7  1.00
      P1  H  7997  8010       L1    19  0.59

> <Gold.PLP.Chemscore.Internal.Correction>
0.0712

> <Gold.Rescore>
     Score         DG    S(hbond)    S(metal)    S(lipo)     H(rot)  DE(clash)    DE(int)     intcor
     15.32     -17.67       2.90        0.00      56.09       1.58       0.11       2.24       ----

> <Gold.Chemscore.Fitness>
15.3227

> <Gold.Chemscore.DG>
-17.6727

> <Gold.Chemscore.ZeroCoef>
-5.4800

> <Gold.Chemscore.Hbond>
2.8965

> <Gold.Chemscore.Metal>
0.0000

> <Gold.Chemscore.Lipo>
56.0912

> <Gold.Chemscore.Internal_Hbond>
0.0000

> <Gold.Chemscore.DEClash>
0.1107

> <Gold.Chemscore.DEInternal>
2.2393

> <Gold.Chemscore.Rot>
1.5798

> <Gold.Chemscore.Internal.Correction>
   9.000000E+99

> <Gold.Chemscore.Hbonds>
donor molecule, donor type, donor heavy atom, donor atom, acceptor molecule, acceptor atom, score
      L1  H    12    39       P1  7948  1.00
      P1  H  7989  7998       L1     7  0.94
      P1  H  7997  8010       L1    19  0.14

> <Gold.Chemscore.Hbond.Weighted>
-9.6743

> <Gold.Chemscore.Metal.Weighted>
-0.0000

> <Gold.Chemscore.Lipo.Weighted>
-6.5627

> <Gold.Chemscore.Internal_Hbond.Weighted>
0.0000

> <Gold.Chemscore.DEClash.Weighted>
0.1107

> <Gold.Chemscore.DEInternal.Weighted>
2.2393

> <Gold.Chemscore.Rot.Weighted>
4.0442

> <Gold.Chemscore.Internal.Correction.Weighted>
   9.000000E+99

> <Gold.Protein.RotatedTorsions>
[ 6907 6896 6895 6894 ] final  -34.82 input  -60.11 | X-H torsion
[ 7974 7965 7964 7962 ] final  -70.45 input  175.53 | X-H torsion
[ 8008 7997 7996 7995 ] final   58.96 input   59.86 | X-H torsion
[ 10167 10162 10161 10158 ] final  -47.58 input  -65.29 | X-H torsion
[ 10718 10713 10712 10709 ] final  -94.26 input   66.30 | X-H torsion
[ 10763 10752 10751 10750 ] final  -49.42 input  -60.55 | X-H torsion
[ 11005 11000 10999 10996 ] final  -11.22 input  -57.11 | X-H torsion

> <Gold.Protein.ActiveResidues>
 VAL166  LYS551  ARG553  GLY616  TRP617  ASP618  TYR619  PRO620  LYS621  CYS622 
 ASP623  PHE694  ASN695  SER759  ASP760  ASP761  ALA762  ILE779  LEU786  VAL792 
 PHE793  MET794  SER795  GLU796  ALA797  LYS798  CYS799  TRP800  GLU811  SER814 

> <Gold.Protein.RotatedAtoms>
  151.0477  134.9651  159.8194 H   0  0  0  0  0  0  0  0  0  0  0  0  # atno 6907 bound_to 6896
  152.5375  134.2577  159.8933 H   0  0  0  0  0  0  0  0  0  0  0  0  # atno 6908 bound_to 6896
  151.2591  133.4268  159.2649 H   0  0  0  0  0  0  0  0  0  0  0  0  # atno 6909 bound_to 6896
  145.6908  140.9153  143.0782 H   0  0  0  0  0  0  0  0  0  0  0  0  # atno 7974 bound_to 7965
  155.5585  140.3488  155.4485 H   0  0  0  0  0  0  0  0  0  0  0  0  # atno 8008 bound_to 7997
  156.0532  140.1322  157.0053 H   0  0  0  0  0  0  0  0  0  0  0  0  # atno 8009 bound_to 7997
  154.4444  140.1000  156.6391 H   0  0  0  0  0  0  0  0  0  0  0  0  # atno 8010 bound_to 7997
  140.6769  143.2778  151.3948 H   0  0  0  0  0  0  0  0  0  0  0  0  # atno 10167 bound_to 10162
  156.0024  130.5060  150.5900 H   0  0  0  0  0  0  0  0  0  0  0  0  # atno 10718 bound_to 10713
  154.0938  135.6573  153.4857 H   0  0  0  0  0  0  0  0  0  0  0  0  # atno 10763 bound_to 10752
  153.0312  135.5209  154.7354 H   0  0  0  0  0  0  0  0  0  0  0  0  # atno 10764 bound_to 10752
  154.6485  135.2998  154.9984 H   0  0  0  0  0  0  0  0  0  0  0  0  # atno 10765 bound_to 10752
  140.7530  133.8577  155.9061 H   0  0  0  0  0  0  0  0  0  0  0  0  # atno 11005 bound_to 11000
  144.6997  139.8820  143.7447 LP  0  0  0  0  0  0  0  0  0  0  0  0  # atno 17320 bound_to 7965
  146.0883  139.3872  143.0422 LP  0  0  0  0  0  0  0  0  0  0  0  0  # atno 17321 bound_to 7965
  139.6066  144.1184  152.2255 LP  0  0  0  0  0  0  0  0  0  0  0  0  # atno 17342 bound_to 10162
  140.0585  144.5875  150.7281 LP  0  0  0  0  0  0  0  0  0  0  0  0  # atno 17343 bound_to 10162
  157.3767  131.0774  151.1512 LP  0  0  0  0  0  0  0  0  0  0  0  0  # atno 17370 bound_to 10713
  157.2248  130.6498  149.5825 LP  0  0  0  0  0  0  0  0  0  0  0  0  # atno 17371 bound_to 10713
  140.9733  134.1502  157.4557 LP  0  0  0  0  0  0  0  0  0  0  0  0  # atno 17394 bound_to 11000
  139.8784  134.9986  156.5909 LP  0  0  0  0  0  0  0  0  0  0  0  0  # atno 17395 bound_to 11000

$$$$
