AV-unprocessed.smi:2518|AV-procd|sdf|9901|dock4
  -GOLD-   2272013533D 1   1.00000     0.00000
 Structure written by MMmdl.
 41 43  0  0  0  0  0  0  0  0  1 V2000
  152.2806  144.9773  158.3451 C   0  0  0  0  0  0  0  0  0  0  0  0
  152.0863  143.4777  158.4327 C   0  0  0  0  0  0  0  0  0  0  0  0
  152.7589  142.7251  159.4158 C   0  0  0  0  0  0  0  0  0  0  0  0
  152.5723  141.3314  159.4878 C   0  0  0  0  0  0  0  0  0  0  0  0
  151.7169  140.6684  158.5841 C   0  0  0  0  0  0  0  0  0  0  0  0
  151.5959  139.3028  158.7253 O   0  0  0  0  0  0  0  0  0  0  0  0
  150.4059  138.6795  158.2594 C   0  0  0  0  0  0  0  0  0  0  0  0
  150.0189  137.5597  159.2376 C   0  0  2  0  0  0  0  0  0  0  0  0
  150.9288  136.4894  159.0700 O   0  0  0  0  0  0  0  0  0  0  0  0
  148.5841  137.0523  158.9911 C   0  0  0  0  0  0  0  0  0  0  0  0
  147.9715  136.5032  160.1916 N   0  0  0  0  0  0  0  0  0  0  0  0
  147.5604  137.3453  161.1748 N   0  0  0  0  0  0  0  0  0  0  0  0
  147.0612  136.5675  162.1330 C   0  0  0  0  0  0  0  0  0  0  0  0
  147.1382  135.1889  161.7940 C   0  0  0  0  0  0  0  0  0  0  0  0
  146.7601  133.9413  162.4486 C   0  0  0  0  0  0  0  0  0  0  0  0
  146.9934  132.8279  161.8277 N   0  0  0  0  0  0  0  0  0  0  0  0
  147.5912  132.8083  160.5626 N   0  0  0  0  0  0  0  0  0  0  0  0
  147.7753  131.4605  160.0255 C   0  0  0  0  0  0  0  0  0  0  0  0
  147.9728  133.9200  159.8603 C   0  0  0  0  0  0  0  0  0  0  0  0
  148.4857  133.8922  158.7416 O   0  0  0  0  0  0  0  0  0  0  0  0
  147.7141  135.1987  160.5666 C   0  0  0  0  0  0  0  0  0  0  0  0
  151.0413  141.4322  157.5989 C   0  0  0  0  0  0  0  0  0  0  0  0
  151.2277  142.8265  157.5256 C   0  0  0  0  0  0  0  0  0  0  0  0
  152.9508  145.3387  159.1258 H   0  0  0  0  0  0  0  0  0  0  0  0
  151.3241  145.4892  158.4539 H   0  0  0  0  0  0  0  0  0  0  0  0
  152.7065  145.2468  157.3783 H   0  0  0  0  0  0  0  0  0  0  0  0
  153.4204  143.2117  160.1175 H   0  0  0  0  0  0  0  0  0  0  0  0
  153.0938  140.7637  160.2445 H   0  0  0  0  0  0  0  0  0  0  0  0
  149.6126  139.4286  158.2351 H   0  0  0  0  0  0  0  0  0  0  0  0
  150.5248  138.2847  157.2484 H   0  0  0  0  0  0  0  0  0  0  0  0
  150.0919  137.9275  160.2620 H   0  0  0  0  0  0  0  0  0  0  0  0
  150.8133  136.1335  158.2020 H   0  0  0  0  0  0  0  0  0  0  0  0
  147.9579  137.8727  158.6374 H   0  0  0  0  0  0  0  0  0  0  0  0
  148.5680  136.3024  158.2010 H   0  0  0  0  0  0  0  0  0  0  0  0
  146.6680  137.0241  163.0291 H   0  0  0  0  0  0  0  0  0  0  0  0
  146.2945  133.9519  163.4340 H   0  0  0  0  0  0  0  0  0  0  0  0
  148.3189  131.4330  159.0805 H   0  0  0  0  0  0  0  0  0  0  0  0
  146.8061  130.9882  159.8616 H   0  0  0  0  0  0  0  0  0  0  0  0
  148.3311  130.8464  160.7353 H   0  0  0  0  0  0  0  0  0  0  0  0
  150.3732  140.9724  156.8869 H   0  0  0  0  0  0  0  0  0  0  0  0
  150.7081  143.3961  156.7689 H   0  0  0  0  0  0  0  0  0  0  0  0
  1  2  1  0  0  0  0
  1 24  1  0  0  0  0
  1 25  1  0  0  0  0
  1 26  1  0  0  0  0
  2 23  1  0  0  0  0
  2  3  2  0  0  0  0
  3  4  1  0  0  0  0
  3 27  1  0  0  0  0
  4  5  2  0  0  0  0
  4 28  1  0  0  0  0
  5  6  1  0  0  0  0
  5 22  1  0  0  0  0
  6  7  1  0  0  0  0
  7  8  1  0  0  0  0
  7 29  1  0  0  0  0
  7 30  1  0  0  0  0
  8  9  1  0  0  0  0
  8 10  1  0  0  0  0
  8 31  1  0  0  0  0
  9 32  1  0  0  0  0
 10 11  1  0  0  0  0
 10 33  1  0  0  0  0
 10 34  1  0  0  0  0
 11 21  1  0  0  0  0
 11 12  1  0  0  0  0
 12 13  2  0  0  0  0
 13 14  1  0  0  0  0
 13 35  1  0  0  0  0
 14 21  2  0  0  0  0
 14 15  1  0  0  0  0
 15 16  2  0  0  0  0
 15 36  1  0  0  0  0
 16 17  1  0  0  0  0
 17 18  1  0  0  0  0
 17 19  1  0  0  0  0
 18 37  1  0  0  0  0
 18 38  1  0  0  0  0
 18 39  1  0  0  0  0
 19 20  2  0  0  0  0
 19 21  1  0  0  0  0
 22 23  2  0  0  0  0
 22 40  1  0  0  0  0
 23 41  1  0  0  0  0
M  END
> <s_m_source_file>
AV-unprocessed.smi

> <i_m_source_file_index>
2518

> <i_lp_mmshare_version>
43012

> <i_f3d_flags>
0

> <s_epik_input>
W0NIM11jMVtjSF1bY0hdYyhbY0hdW2NIXTEpT1tDSDJdW0NASF0oW09IXSlbQ0gyXW4obltjSF0yKWMoYzIzKWMoPU8pbihbQ0gzXSluW2NIXTM=

> <s_epik_cmdline>
J2VwaWtfcHl0aG9uJywgJy1waCcsICc3LjAnLCAnLXRuJywgJzgnLCAnLW1hJywgJzIwMCcsICctbWV0YWxfYmluZGluZycsICctaW1hZScsICc8aW5maWxlLm1hZT4nLCAnLW9tYWUnLCAnPG91dGZpbGUubWFlPic=

> <r_lp_tautomer_probability>
1

> <r_epik_Ionization_Penalty>
2.246e-06

> <r_epik_Ionization_Penalty_Charging>
1.41975e-10

> <r_epik_Ionization_Penalty_Neutral>
2.24586e-06

> <r_epik_State_Penalty>
-0

> <r_epik_Charging_Adjusted_Penalty>
1.41975e-10

> <i_epik_Tot_Q>
0

> <i_epik_Tot_abs_Q>
0

> <r_epik_Metal_State_Penalty>
-0

> <b_epik_Metal_Only>
0

> <s_lp_Force_Field>
OPLS_2005

> <r_lp_Energy>
32.1328

> <b_lp_Chiralities_Consistent>
1

> <s_lp_Variant>
AV-unprocessed.smi:2518-1

> <Gold.Version>
5.8.1

> <Gold.Id.Protein>
6NUR|6NUR_protein|mol2

> <Gold.PLP.Fitness>
53.4550

> <Gold.PLP.PLP>
-47.4740

> <Gold.PLP.part.hbond>
-3.0915

> <Gold.PLP.part.metal>
0.0000

> <Gold.PLP.part.buried>
-5.6160

> <Gold.PLP.part.nonpolar>
-39.5672

> <Gold.PLP.part.repulsive>
0.0000

> <Gold.PLP.ligand.clash>
0.0000

> <Gold.PLP.ligand.torsion>
1.1822

> <Gold.PLP.Chemscore.Hbond>
2.7680

> <Gold.PLP.Chemscore.CHOScore>
0.0000

> <Gold.PLP.Chemscore.Metal>
0.0000

> <Gold.Chemscore.Hbonds>
donor molecule, donor type, donor heavy atom, donor atom, acceptor molecule, acceptor atom, score
      P1  H  6896  6907       L1     9  0.90
      P1  H  6931  6943       L1    12  0.83
      P1  H  6934  6947       L1    12  0.91

> <Gold.PLP.Chemscore.Internal.Correction>
0.0414

> <Gold.Rescore>
     Score         DG    S(hbond)    S(metal)    S(lipo)     H(rot)  DE(clash)    DE(int)     intcor
     20.02     -21.02       2.49        0.00     113.16       2.35       0.00       1.00       ----

> <Gold.Chemscore.Fitness>
20.0186

> <Gold.Chemscore.DG>
-21.0188

> <Gold.Chemscore.ZeroCoef>
-5.4800

> <Gold.Chemscore.Hbond>
2.4890

> <Gold.Chemscore.Metal>
0.0000

> <Gold.Chemscore.Lipo>
113.1561

> <Gold.Chemscore.Internal_Hbond>
0.0000

> <Gold.Chemscore.DEClash>
0.0009

> <Gold.Chemscore.DEInternal>
0.9994

> <Gold.Chemscore.Rot>
2.3490

> <Gold.Chemscore.Internal.Correction>
   9.000000E+99

> <Gold.Chemscore.Hbonds>
donor molecule, donor type, donor heavy atom, donor atom, acceptor molecule, acceptor atom, score
      P1  H  6896  6907       L1     9  0.17
      P1  H  6931  6943       L1    12  0.37
      P1  H  6934  6947       L1    12  0.88

> <Gold.Chemscore.Hbond.Weighted>
-8.3131

> <Gold.Chemscore.Metal.Weighted>
-0.0000

> <Gold.Chemscore.Lipo.Weighted>
-13.2393

> <Gold.Chemscore.Internal_Hbond.Weighted>
0.0000

> <Gold.Chemscore.DEClash.Weighted>
0.0009

> <Gold.Chemscore.DEInternal.Weighted>
0.9994

> <Gold.Chemscore.Rot.Weighted>
6.0136

> <Gold.Chemscore.Internal.Correction.Weighted>
   9.000000E+99

> <Gold.Protein.RotatedTorsions>
[ 6907 6896 6895 6894 ] final  -25.65 input  -60.11 | X-H torsion
[ 7974 7965 7964 7962 ] final -118.73 input  175.53 | X-H torsion
[ 8008 7997 7996 7995 ] final  164.75 input   59.86 | X-H torsion
[ 10167 10162 10161 10158 ] final  172.99 input  -65.29 | X-H torsion
[ 10718 10713 10712 10709 ] final  -26.23 input   66.30 | X-H torsion
[ 10763 10752 10751 10750 ] final   25.92 input  -60.55 | X-H torsion
[ 11005 11000 10999 10996 ] final  -44.76 input  -57.11 | X-H torsion

> <Gold.Protein.ActiveResidues>
 VAL166  LYS551  ARG553  GLY616  TRP617  ASP618  TYR619  PRO620  LYS621  CYS622 
 ASP623  PHE694  ASN695  SER759  ASP760  ASP761  ALA762  ILE779  LEU786  VAL792 
 PHE793  MET794  SER795  GLU796  ALA797  LYS798  CYS799  TRP800  GLU811  SER814 

> <Gold.Protein.RotatedAtoms>
  151.1721  135.0322  159.8755 H   0  0  0  0  0  0  0  0  0  0  0  0  # atno 6907 bound_to 6896
  152.5448  134.1159  159.8388 H   0  0  0  0  0  0  0  0  0  0  0  0  # atno 6908 bound_to 6896
  151.1266  133.5020  159.2633 H   0  0  0  0  0  0  0  0  0  0  0  0  # atno 6909 bound_to 6896
  145.0705  140.8355  143.4098 H   0  0  0  0  0  0  0  0  0  0  0  0  # atno 7974 bound_to 7965
  156.1855  140.1688  156.8193 H   0  0  0  0  0  0  0  0  0  0  0  0  # atno 8008 bound_to 7997
  154.5409  140.0737  156.8540 H   0  0  0  0  0  0  0  0  0  0  0  0  # atno 8009 bound_to 7997
  155.3217  140.3374  155.4243 H   0  0  0  0  0  0  0  0  0  0  0  0  # atno 8010 bound_to 7997
  139.5094  144.3311  152.0110 H   0  0  0  0  0  0  0  0  0  0  0  0  # atno 10167 bound_to 10162
  156.4540  130.4490  149.6971 H   0  0  0  0  0  0  0  0  0  0  0  0  # atno 10718 bound_to 10713
  153.0658  135.6572  154.0357 H   0  0  0  0  0  0  0  0  0  0  0  0  # atno 10763 bound_to 10752
  154.0015  135.2936  155.3403 H   0  0  0  0  0  0  0  0  0  0  0  0  # atno 10764 bound_to 10752
  154.7015  135.5242  153.8603 H   0  0  0  0  0  0  0  0  0  0  0  0  # atno 10765 bound_to 10752
  141.0472  133.6757  156.2918 H   0  0  0  0  0  0  0  0  0  0  0  0  # atno 11005 bound_to 11000
  145.1299  139.2639  143.5545 LP  0  0  0  0  0  0  0  0  0  0  0  0  # atno 17320 bound_to 7965
  146.3528  140.0946  142.8611 LP  0  0  0  0  0  0  0  0  0  0  0  0  # atno 17321 bound_to 7965
  140.2750  144.3922  150.6138 LP  0  0  0  0  0  0  0  0  0  0  0  0  # atno 17342 bound_to 10162
  140.6060  143.2168  151.6980 LP  0  0  0  0  0  0  0  0  0  0  0  0  # atno 17343 bound_to 10162
  156.3786  130.7567  151.2558 LP  0  0  0  0  0  0  0  0  0  0  0  0  # atno 17370 bound_to 10713
  157.7501  131.0302  150.4127 LP  0  0  0  0  0  0  0  0  0  0  0  0  # atno 17371 bound_to 10713
  140.6125  134.5444  157.5535 LP  0  0  0  0  0  0  0  0  0  0  0  0  # atno 17394 bound_to 11000
  139.9321  134.7944  156.0902 LP  0  0  0  0  0  0  0  0  0  0  0  0  # atno 17395 bound_to 11000

$$$$
