AV-unprocessed.smi:1028|AV-procd|sdf|4473|dock8
  -GOLD-   22720 2453D 1   1.00000     0.00000
 Structure written by MMmdl.
 43 44  0  0  0  0  0  0  0  0  1 V2000
  150.6624  142.9267  158.4785 C   0  0  0  0  0  0  0  0  0  0  0  0
  151.6740  143.9310  159.0651 C   0  0  0  0  0  0  0  0  0  0  0  0
  152.5709  144.4875  157.9421 C   0  0  0  0  0  0  0  0  0  0  0  0
  150.8799  145.1092  159.6687 C   0  0  0  0  0  0  0  0  0  0  0  0
  152.5269  143.2489  160.1167 C   0  0  0  0  0  0  0  0  0  0  0  0
  152.6604  143.5771  161.4467 C   0  0  0  0  0  0  0  0  0  0  0  0
  153.7432  142.5029  162.2890 S   0  0  0  0  0  0  0  0  0  0  0  0
  154.0024  141.6363  160.7832 C   0  0  0  0  0  0  0  0  0  0  0  0
  154.8717  140.4296  160.6711 C   0  0  0  0  0  0  0  0  0  0  0  0
  154.1552  139.1494  161.1280 C   0  0  0  0  0  0  0  0  0  0  0  0
  155.0241  138.3104  161.9449 N   0  0  0  0  0  0  0  0  0  0  0  0
  155.0763  136.9706  161.8901 C   0  0  0  0  0  0  0  0  0  0  0  0
  154.3788  136.3003  161.1278 O   0  0  0  0  0  0  0  0  0  0  0  0
  156.0646  136.2849  162.8478 C   0  0  0  0  0  0  0  0  0  0  0  0
  155.9326  134.7442  162.8102 C   0  0  0  0  0  0  0  0  0  0  0  0
  155.5906  134.2908  164.2347 C   0  0  0  0  0  0  0  0  0  0  0  0
  155.0098  135.5246  164.9183 C   0  0  0  0  0  0  0  0  0  0  0  0
  155.8045  136.6811  164.3146 C   0  0  0  0  0  0  0  0  0  0  0  0
  153.2990  142.1338  159.7637 N   0  0  0  0  0  0  0  0  0  0  0  0
  150.0229  143.3972  157.7309 H   0  0  0  0  0  0  0  0  0  0  0  0
  150.0147  142.5176  159.2547 H   0  0  0  0  0  0  0  0  0  0  0  0
  151.1635  142.0881  157.9937 H   0  0  0  0  0  0  0  0  0  0  0  0
  153.1284  143.6946  157.4426 H   0  0  0  0  0  0  0  0  0  0  0  0
  153.2963  145.2023  158.3322 H   0  0  0  0  0  0  0  0  0  0  0  0
  151.9824  144.9982  157.1791 H   0  0  0  0  0  0  0  0  0  0  0  0
  150.2638  145.5997  158.9142 H   0  0  0  0  0  0  0  0  0  0  0  0
  151.5428  145.8677  160.0867 H   0  0  0  0  0  0  0  0  0  0  0  0
  150.2120  144.7765  160.4643 H   0  0  0  0  0  0  0  0  0  0  0  0
  152.1858  144.3815  161.9887 H   0  0  0  0  0  0  0  0  0  0  0  0
  155.1993  140.3286  159.6356 H   0  0  0  0  0  0  0  0  0  0  0  0
  155.7695  140.5961  161.2675 H   0  0  0  0  0  0  0  0  0  0  0  0
  153.2448  139.3954  161.6774 H   0  0  0  0  0  0  0  0  0  0  0  0
  153.8454  138.5682  160.2591 H   0  0  0  0  0  0  0  0  0  0  0  0
  155.6307  138.7827  162.5994 H   0  0  0  0  0  0  0  0  0  0  0  0
  157.0808  136.5765  162.5762 H   0  0  0  0  0  0  0  0  0  0  0  0
  155.1464  134.4209  162.1255 H   0  0  0  0  0  0  0  0  0  0  0  0
  156.8550  134.2749  162.4664 H   0  0  0  0  0  0  0  0  0  0  0  0
  154.9061  133.4423  164.2511 H   0  0  0  0  0  0  0  0  0  0  0  0
  156.5035  133.9876  164.7492 H   0  0  0  0  0  0  0  0  0  0  0  0
  153.9535  135.6265  164.6655 H   0  0  0  0  0  0  0  0  0  0  0  0
  155.0913  135.4810  166.0048 H   0  0  0  0  0  0  0  0  0  0  0  0
  156.7570  136.7809  164.8368 H   0  0  0  0  0  0  0  0  0  0  0  0
  155.2807  137.6324  164.4239 H   0  0  0  0  0  0  0  0  0  0  0  0
  1  2  1  0  0  0  0
  1 20  1  0  0  0  0
  1 21  1  0  0  0  0
  1 22  1  0  0  0  0
  2  3  1  0  0  0  0
  2  4  1  0  0  0  0
  2  5  1  0  0  0  0
  3 23  1  0  0  0  0
  3 24  1  0  0  0  0
  3 25  1  0  0  0  0
  4 26  1  0  0  0  0
  4 27  1  0  0  0  0
  4 28  1  0  0  0  0
  5 19  1  0  0  0  0
  5  6  2  0  0  0  0
  6  7  1  0  0  0  0
  6 29  1  0  0  0  0
  7  8  1  0  0  0  0
  8  9  1  0  0  0  0
  8 19  2  0  0  0  0
  9 10  1  0  0  0  0
  9 30  1  0  0  0  0
  9 31  1  0  0  0  0
 10 11  1  0  0  0  0
 10 32  1  0  0  0  0
 10 33  1  0  0  0  0
 11 12  1  0  0  0  0
 11 34  1  0  0  0  0
 12 13  2  0  0  0  0
 12 14  1  0  0  0  0
 14 18  1  0  0  0  0
 14 15  1  0  0  0  0
 14 35  1  0  0  0  0
 15 16  1  0  0  0  0
 15 36  1  0  0  0  0
 15 37  1  0  0  0  0
 16 17  1  0  0  0  0
 16 38  1  0  0  0  0
 16 39  1  0  0  0  0
 17 18  1  0  0  0  0
 17 40  1  0  0  0  0
 17 41  1  0  0  0  0
 18 42  1  0  0  0  0
 18 43  1  0  0  0  0
M  END
> <s_m_source_file>
AV-unprocessed.smi

> <i_m_source_file_index>
1028

> <i_lp_mmshare_version>
43012

> <i_f3d_flags>
0

> <s_epik_input>
W0NIM11DKFtDSDNdKShbQ0gzXSljMVtjSF1zYyhuMSlbQ0gyXVtDSDJdW05IXUMoPU8pW0NIXTJbQ0gyXVtDSDJdW0NIMl1bQ0gyXTI=

> <s_epik_cmdline>
J2VwaWtfcHl0aG9uJywgJy1waCcsICc3LjAnLCAnLXRuJywgJzgnLCAnLW1hJywgJzIwMCcsICctbWV0YWxfYmluZGluZycsICctaW1hZScsICc8aW5maWxlLm1hZT4nLCAnLW9tYWUnLCAnPG91dGZpbGUubWFlPic=

> <r_epik_Ionization_Penalty>
0.000842107

> <r_epik_Ionization_Penalty_Charging>
0

> <r_epik_Ionization_Penalty_Neutral>
0.000842107

> <r_epik_State_Penalty>
0.000542609

> <r_epik_Charging_Adjusted_Penalty>
0.000542609

> <i_epik_Tot_Q>
0

> <i_epik_Tot_abs_Q>
0

> <r_epik_Metal_State_Penalty>
-0

> <b_epik_Metal_Only>
0

> <s_lp_Force_Field>
OPLS_2005

> <r_lp_Energy>
10.9616

> <b_lp_Chiralities_Consistent>
1

> <s_lp_Variant>
AV-unprocessed.smi:1028-1

> <Gold.Version>
5.8.1

> <Gold.Id.Protein>
6NUR|6NUR_protein|mol2

> <Gold.PLP.Fitness>
49.1033

> <Gold.PLP.PLP>
-47.7447

> <Gold.PLP.part.hbond>
-1.0000

> <Gold.PLP.part.metal>
0.0000

> <Gold.PLP.part.buried>
-6.1628

> <Gold.PLP.part.nonpolar>
-40.9257

> <Gold.PLP.part.repulsive>
0.0000

> <Gold.PLP.ligand.clash>
0.0000

> <Gold.PLP.ligand.torsion>
0.8286

> <Gold.PLP.Chemscore.Hbond>
1.0000

> <Gold.PLP.Chemscore.CHOScore>
0.0000

> <Gold.PLP.Chemscore.Metal>
0.0000

> <Gold.PLP.Chemscore.Internal.Correction>
0.0158

> <Gold.Rescore>
     Score         DG    S(hbond)    S(metal)    S(lipo)     H(rot)  DE(clash)    DE(int)     intcor
     21.48     -22.28       1.00        0.00     146.23       1.42       0.05       0.75       ----

> <Gold.Chemscore.Fitness>
21.4759

> <Gold.Chemscore.DG>
-22.2769

> <Gold.Chemscore.ZeroCoef>
-5.4800

> <Gold.Chemscore.Hbond>
0.9968

> <Gold.Chemscore.Metal>
0.0000

> <Gold.Chemscore.Lipo>
146.2337

> <Gold.Chemscore.Internal_Hbond>
0.0000

> <Gold.Chemscore.DEClash>
0.0511

> <Gold.Chemscore.DEInternal>
0.7500

> <Gold.Chemscore.Rot>
1.4226

> <Gold.Chemscore.Internal.Correction>
   9.000000E+99

> <Gold.Chemscore.Hbond.Weighted>
-3.3294

> <Gold.Chemscore.Metal.Weighted>
-0.0000

> <Gold.Chemscore.Lipo.Weighted>
-17.1093

> <Gold.Chemscore.Internal_Hbond.Weighted>
0.0000

> <Gold.Chemscore.DEClash.Weighted>
0.0511

> <Gold.Chemscore.DEInternal.Weighted>
0.7500

> <Gold.Chemscore.Rot.Weighted>
3.6419

> <Gold.Chemscore.Internal.Correction.Weighted>
   9.000000E+99

> <Gold.Protein.RotatedTorsions>
[ 6907 6896 6895 6894 ] final  163.74 input  -60.11 | X-H torsion
[ 7974 7965 7964 7962 ] final   59.13 input  175.53 | X-H torsion
[ 8008 7997 7996 7995 ] final   13.12 input   59.86 | X-H torsion
[ 10167 10162 10161 10158 ] final  136.09 input  -65.29 | X-H torsion
[ 10718 10713 10712 10709 ] final  -97.17 input   66.30 | X-H torsion
[ 10763 10752 10751 10750 ] final   -8.60 input  -60.55 | X-H torsion
[ 11005 11000 10999 10996 ] final  -32.55 input  -57.11 | X-H torsion

> <Gold.Protein.ActiveResidues>
 VAL166  LYS551  ARG553  GLY616  TRP617  ASP618  TYR619  PRO620  LYS621  CYS622 
 ASP623  PHE694  ASN695  SER759  ASP760  ASP761  ALA762  ILE779  LEU786  VAL792 
 PHE793  MET794  SER795  GLU796  ALA797  LYS798  CYS799  TRP800  GLU811  SER814 

> <Gold.Protein.RotatedAtoms>
  151.9206  133.3584  159.3895 H   0  0  0  0  0  0  0  0  0  0  0  0  # atno 6907 bound_to 6896
  150.7038  134.4639  159.5403 H   0  0  0  0  0  0  0  0  0  0  0  0  # atno 6908 bound_to 6896
  152.2262  134.8366  160.0530 H   0  0  0  0  0  0  0  0  0  0  0  0  # atno 6909 bound_to 6896
  145.9105  139.3650  143.0538 H   0  0  0  0  0  0  0  0  0  0  0  0  # atno 7974 bound_to 7965
  154.8301  140.2898  155.5728 H   0  0  0  0  0  0  0  0  0  0  0  0  # atno 8008 bound_to 7997
  156.3005  140.2534  156.3155 H   0  0  0  0  0  0  0  0  0  0  0  0  # atno 8009 bound_to 7997
  154.9241  140.0385  157.2003 H   0  0  0  0  0  0  0  0  0  0  0  0  # atno 8010 bound_to 7997
  139.5193  144.6483  151.5376 H   0  0  0  0  0  0  0  0  0  0  0  0  # atno 10167 bound_to 10162
  156.0078  130.5183  150.6335 H   0  0  0  0  0  0  0  0  0  0  0  0  # atno 10718 bound_to 10713
  153.4428  135.7014  153.6158 H   0  0  0  0  0  0  0  0  0  0  0  0  # atno 10763 bound_to 10752
  153.4526  135.3754  155.2293 H   0  0  0  0  0  0  0  0  0  0  0  0  # atno 10764 bound_to 10752
  154.8727  135.4000  154.3829 H   0  0  0  0  0  0  0  0  0  0  0  0  # atno 10765 bound_to 10752
  140.9561  133.7192  156.1296 H   0  0  0  0  0  0  0  0  0  0  0  0  # atno 11005 bound_to 11000
  145.8677  140.9438  143.0667 LP  0  0  0  0  0  0  0  0  0  0  0  0  # atno 17320 bound_to 7965
  144.6743  140.0614  143.7476 LP  0  0  0  0  0  0  0  0  0  0  0  0  # atno 17321 bound_to 7965
  140.6277  143.9137  150.6579 LP  0  0  0  0  0  0  0  0  0  0  0  0  # atno 17342 bound_to 10162
  140.2431  143.3649  152.1470 LP  0  0  0  0  0  0  0  0  0  0  0  0  # atno 17343 bound_to 10162
  157.4128  131.0826  151.1204 LP  0  0  0  0  0  0  0  0  0  0  0  0  # atno 17370 bound_to 10713
  157.1830  130.6318  149.5678 LP  0  0  0  0  0  0  0  0  0  0  0  0  # atno 17371 bound_to 10713
  140.7534  134.4020  157.5538 LP  0  0  0  0  0  0  0  0  0  0  0  0  # atno 17394 bound_to 11000
  139.8863  134.8914  156.2595 LP  0  0  0  0  0  0  0  0  0  0  0  0  # atno 17395 bound_to 11000

$$$$
