AV-unprocessed.smi:37|AV-procd|sdf|320|dock1
  -GOLD-   2262016143D 1   1.00000     0.00000
 Structure written by MMmdl.
 43 44  0  0  0  0  0  0  0  0  2 V2000
  151.9248  143.7605  161.5715 C   0  0  0  0  0  0  0  0  0  0  0  0
  152.4778  144.4382  160.3090 C   0  0  0  0  0  0  0  0  0  0  0  0
  151.6785  144.1220  159.0432 C   0  0  0  0  0  0  0  0  0  0  0  0
  151.9427  144.6250  157.9497 O   0  0  0  0  0  0  0  0  0  0  0  0
  150.6874  143.2542  159.2854 O   0  0  0  0  0  0  0  0  0  0  0  0
  149.9430  142.7071  158.2092 C   0  0  0  0  0  0  0  0  0  0  0  0
  150.8794  142.1119  157.1431 C   0  0  1  0  0  0  0  0  0  0  0  0
  151.6300  141.0333  157.6956 O   0  0  0  0  0  0  0  0  0  0  0  0
  151.9629  140.1859  156.6422 C   0  0  1  0  0  0  0  0  0  0  0  0
  152.5354  138.8834  157.1769 N   0  0  0  0  0  0  0  0  0  0  0  0
  152.6774  138.6590  158.5378 C   0  0  0  0  0  0  0  0  0  0  0  0
  153.1398  137.4860  159.0160 C   0  0  0  0  0  0  0  0  0  0  0  0
  153.2677  137.3075  160.3421 F   0  0  0  0  0  0  0  0  0  0  0  0
  153.4803  136.4117  158.0874 C   0  0  0  0  0  0  0  0  0  0  0  0
  153.9358  135.3562  158.5251 O   0  0  0  0  0  0  0  0  0  0  0  0
  153.2637  136.6295  156.7588 N   0  5  0  0  0  0  0  0  0  0  0  0
  152.7748  137.8085  156.2731 C   0  0  0  0  0  0  0  0  0  0  0  0
  152.5171  137.9797  155.0817 O   0  0  0  0  0  0  0  0  0  0  0  0
  150.6302  140.0757  155.8874 C   0  0  1  0  0  0  0  0  0  0  0  0
  149.2625  139.0373  156.9237 Br  0  0  0  0  0  0  0  0  0  0  0  0
  150.2332  141.5513  155.8561 C   0  0  1  0  0  0  0  0  0  0  0  0
  148.8273  141.7613  155.7650 O   0  0  0  0  0  0  0  0  0  0  0  0
  148.1837  141.5679  154.6011 C   0  0  0  0  0  0  0  0  0  0  0  0
  148.7084  141.2344  153.5371 O   0  0  0  0  0  0  0  0  0  0  0  0
  146.6782  141.8028  154.7366 C   0  0  0  0  0  0  0  0  0  0  0  0
  146.1527  142.9458  153.8549 C   0  0  0  0  0  0  0  0  0  0  0  0
  152.5223  144.0278  162.4429 H   0  0  0  0  0  0  0  0  0  0  0  0
  151.9426  142.6738  161.4805 H   0  0  0  0  0  0  0  0  0  0  0  0
  150.8972  144.0677  161.7701 H   0  0  0  0  0  0  0  0  0  0  0  0
  152.4880  145.5197  160.4483 H   0  0  0  0  0  0  0  0  0  0  0  0
  153.5123  144.1327  160.1500 H   0  0  0  0  0  0  0  0  0  0  0  0
  149.2697  141.9319  158.5779 H   0  0  0  0  0  0  0  0  0  0  0  0
  149.3244  143.4886  157.7664 H   0  0  0  0  0  0  0  0  0  0  0  0
  151.5900  142.8859  156.8503 H   0  0  0  0  0  0  0  0  0  0  0  0
  152.7636  140.6138  156.0352 H   0  0  0  0  0  0  0  0  0  0  0  0
  152.4058  139.4227  159.2492 H   0  0  0  0  0  0  0  0  0  0  0  0
  150.7505  139.6327  154.8986 H   0  0  0  0  0  0  0  0  0  0  0  0
  150.7311  142.0327  155.0124 H   0  0  0  0  0  0  0  0  0  0  0  0
  146.1614  140.8767  154.4832 H   0  0  0  0  0  0  0  0  0  0  0  0
  146.4543  142.0129  155.7825 H   0  0  0  0  0  0  0  0  0  0  0  0
  145.0757  143.0610  153.9768 H   0  0  0  0  0  0  0  0  0  0  0  0
  146.3453  142.7547  152.7984 H   0  0  0  0  0  0  0  0  0  0  0  0
  146.6173  143.8969  154.1178 H   0  0  0  0  0  0  0  0  0  0  0  0
  1  2  1  0  0  0  0
  1 27  1  0  0  0  0
  1 28  1  0  0  0  0
  1 29  1  0  0  0  0
  2  3  1  0  0  0  0
  2 30  1  0  0  0  0
  2 31  1  0  0  0  0
  3  4  2  0  0  0  0
  3  5  1  0  0  0  0
  5  6  1  0  0  0  0
  6  7  1  0  0  0  0
  6 32  1  0  0  0  0
  6 33  1  0  0  0  0
  7 21  1  0  0  0  0
  7  8  1  0  0  0  0
  7 34  1  0  0  0  0
  8  9  1  0  0  0  0
  9 10  1  0  0  0  0
  9 19  1  0  0  0  0
  9 35  1  0  0  0  0
 10 17  1  0  0  0  0
 10 11  1  0  0  0  0
 11 12  2  0  0  0  0
 11 36  1  0  0  0  0
 12 13  1  0  0  0  0
 12 14  1  0  0  0  0
 14 15  2  0  0  0  0
 14 16  1  0  0  0  0
 16 17  1  0  0  0  0
 17 18  2  0  0  0  0
 19 20  1  0  0  0  0
 19 21  1  0  0  0  0
 19 37  1  0  0  0  0
 21 22  1  0  0  0  0
 21 38  1  0  0  0  0
 22 23  1  0  0  0  0
 23 24  2  0  0  0  0
 23 25  1  0  0  0  0
 25 26  1  0  0  0  0
 25 39  1  0  0  0  0
 25 40  1  0  0  0  0
 26 41  1  0  0  0  0
 26 42  1  0  0  0  0
 26 43  1  0  0  0  0
M  CHG  1  16  -1
M  END
> <s_m_source_file>
AV-unprocessed.smi

> <i_m_source_file_index>
37

> <i_lp_mmshare_version>
43012

> <i_f3d_flags>
0

> <s_epik_input>
W0NIM11bQ0gyXUMoPU8pT1tDSDJdW0NAQEhdMU9bQ0BASF0objJbY0hdYyhGKWMoPU8pW25IXWMyPU8pW0NAQEhdKEJyKVtDQEhdMU9DKD1PKVtDSDJdW0NIM10=

> <s_epik_cmdline>
J2VwaWtfcHl0aG9uJywgJy1waCcsICc3LjAnLCAnLXRuJywgJzgnLCAnLW1hJywgJzIwMCcsICctbWV0YWxfYmluZGluZycsICctaW1hZScsICc8aW5maWxlLm1hZT4nLCAnLW9tYWUnLCAnPG91dGZpbGUubWFlPic=

> <r_epik_Ionization_Penalty>
1.08158

> <r_epik_Ionization_Penalty_Charging>
9.05154e-09

> <r_epik_Ionization_Penalty_Neutral>
1.08158

> <r_epik_State_Penalty>
1.13706

> <r_epik_Charging_Adjusted_Penalty>
1.13706

> <i_epik_Tot_Q>
-1

> <i_epik_Tot_abs_Q>
1

> <r_epik_Metal_State_Penalty>
0.00343535

> <b_epik_Metal_Only>
0

> <s_epik_Chemistry_Notes>
This compound has an ester and may undergo hydrolysis at high or low pH. This compound contains an acetal/aminal-like group ( X-CH(R)-Y where X, Y are N, S, or O) that may be acid/base labile, releasing an aldehyde.

> <s_lp_Force_Field>
OPLS_2005

> <r_lp_Energy>
41.8028

> <b_lp_Chiralities_Consistent>
1

> <s_lp_Variant>
AV-unprocessed.smi:37-18

> <Gold.Version>
5.8.1

> <Gold.Id.Protein>
6NUR|6NUR_protein|mol2

> <Gold.PLP.Fitness>
51.9973

> <Gold.PLP.PLP>
-41.3715

> <Gold.PLP.part.hbond>
-3.5603

> <Gold.PLP.part.metal>
0.0000

> <Gold.PLP.part.buried>
-8.8431

> <Gold.PLP.part.nonpolar>
-32.8282

> <Gold.PLP.part.repulsive>
3.9509

> <Gold.PLP.ligand.clash>
0.0000

> <Gold.PLP.ligand.torsion>
0.2563

> <Gold.PLP.Chemscore.Hbond>
3.6413

> <Gold.PLP.Chemscore.CHOScore>
0.0000

> <Gold.PLP.Chemscore.Metal>
0.0000

> <Gold.Chemscore.Hbonds>
donor molecule, donor type, donor heavy atom, donor atom, acceptor molecule, acceptor atom, score
      P1  H  6896  6907       L1    15  0.52
      P1  H  8011  8017       L1    24  0.90
      P1  H 10752 10764       L1    16  1.86

> <Gold.PLP.Chemscore.Internal.Correction>
0.2145

> <Gold.Rescore>
     Score         DG    S(hbond)    S(metal)    S(lipo)     H(rot)  DE(clash)    DE(int)     intcor
      8.10     -12.93       2.11        0.00      75.05       3.27       2.84       1.98       ----

> <Gold.Chemscore.Fitness>
8.1023

> <Gold.Chemscore.DG>
-12.9281

> <Gold.Chemscore.ZeroCoef>
-5.4800

> <Gold.Chemscore.Hbond>
2.1051

> <Gold.Chemscore.Metal>
0.0000

> <Gold.Chemscore.Lipo>
75.0477

> <Gold.Chemscore.Internal_Hbond>
0.0000

> <Gold.Chemscore.DEClash>
2.8439

> <Gold.Chemscore.DEInternal>
1.9818

> <Gold.Chemscore.Rot>
3.2669

> <Gold.Chemscore.Internal.Correction>
   9.000000E+99

> <Gold.Chemscore.Hbonds>
donor molecule, donor type, donor heavy atom, donor atom, acceptor molecule, acceptor atom, score
      P1  H  6896  6907       L1    15  0.36
      P1  H  8011  8017       L1    24  0.84
      P1  H 10752 10764       L1    16  0.55

> <Gold.Chemscore.Hbond.Weighted>
-7.0309

> <Gold.Chemscore.Metal.Weighted>
-0.0000

> <Gold.Chemscore.Lipo.Weighted>
-8.7806

> <Gold.Chemscore.Internal_Hbond.Weighted>
0.0000

> <Gold.Chemscore.DEClash.Weighted>
2.8439

> <Gold.Chemscore.DEInternal.Weighted>
1.9818

> <Gold.Chemscore.Rot.Weighted>
8.3634

> <Gold.Chemscore.Internal.Correction.Weighted>
   9.000000E+99

> <Gold.Protein.RotatedTorsions>
[ 6907 6896 6895 6894 ] final   70.14 input  -60.11 | X-H torsion
[ 7974 7965 7964 7962 ] final -127.71 input  175.53 | X-H torsion
[ 8008 7997 7996 7995 ] final    0.32 input   59.86 | X-H torsion
[ 10167 10162 10161 10158 ] final  -84.88 input  -65.29 | X-H torsion
[ 10718 10713 10712 10709 ] final  106.10 input   66.30 | X-H torsion
[ 10763 10752 10751 10750 ] final  -11.15 input  -60.55 | X-H torsion
[ 11005 11000 10999 10996 ] final -177.71 input  -57.11 | X-H torsion

> <Gold.Protein.ActiveResidues>
 VAL166  LYS551  ARG553  GLY616  TRP617  ASP618  TYR619  PRO620  LYS621  CYS622 
 ASP623  PHE694  ASN695  SER759  ASP760  ASP761  ALA762  ILE779  LEU786  VAL792 
 PHE793  MET794  SER795  GLU796  ALA797  LYS798  CYS799  TRP800  GLU811  SER814 

> <Gold.Protein.RotatedAtoms>
  152.4731  134.4912  159.9695 H   0  0  0  0  0  0  0  0  0  0  0  0  # atno 6907 bound_to 6896
  151.4934  133.3514  159.2865 H   0  0  0  0  0  0  0  0  0  0  0  0  # atno 6908 bound_to 6896
  150.8752  134.8161  159.7246 H   0  0  0  0  0  0  0  0  0  0  0  0  # atno 6909 bound_to 6896
  144.9744  140.7577  143.4651 H   0  0  0  0  0  0  0  0  0  0  0  0  # atno 7974 bound_to 7965
  154.6667  140.2603  155.7051 H   0  0  0  0  0  0  0  0  0  0  0  0  # atno 8008 bound_to 7997
  156.2642  140.2837  156.1082 H   0  0  0  0  0  0  0  0  0  0  0  0  # atno 8009 bound_to 7997
  155.1228  140.0377  157.2745 H   0  0  0  0  0  0  0  0  0  0  0  0  # atno 8010 bound_to 7997
  140.4090  143.2630  151.9042 H   0  0  0  0  0  0  0  0  0  0  0  0  # atno 10167 bound_to 10162
  157.6681  131.0843  150.5956 H   0  0  0  0  0  0  0  0  0  0  0  0  # atno 10718 bound_to 10713
  153.4796  135.7017  153.5946 H   0  0  0  0  0  0  0  0  0  0  0  0  # atno 10763 bound_to 10752
  153.4165  135.3836  155.2084 H   0  0  0  0  0  0  0  0  0  0  0  0  # atno 10764 bound_to 10752
  154.8722  135.3917  154.4244 H   0  0  0  0  0  0  0  0  0  0  0  0  # atno 10765 bound_to 10752
  140.4379  134.6459  157.4743 H   0  0  0  0  0  0  0  0  0  0  0  0  # atno 11005 bound_to 11000
  145.2512  139.2031  143.4941 LP  0  0  0  0  0  0  0  0  0  0  0  0  # atno 17320 bound_to 7965
  146.3391  140.2425  142.8596 LP  0  0  0  0  0  0  0  0  0  0  0  0  # atno 17321 bound_to 7965
  139.4783  144.5556  151.8319 LP  0  0  0  0  0  0  0  0  0  0  0  0  # atno 17342 bound_to 10162
  140.4658  144.1657  150.5911 LP  0  0  0  0  0  0  0  0  0  0  0  0  # atno 17343 bound_to 10162
  156.6256  130.4418  149.5805 LP  0  0  0  0  0  0  0  0  0  0  0  0  # atno 17370 bound_to 10713
  156.2321  130.6801  151.1474 LP  0  0  0  0  0  0  0  0  0  0  0  0  # atno 17371 bound_to 10713
  140.0090  134.6720  155.9410 LP  0  0  0  0  0  0  0  0  0  0  0  0  # atno 17394 bound_to 11000
  141.1718  133.6538  156.4680 LP  0  0  0  0  0  0  0  0  0  0  0  0  # atno 17395 bound_to 11000

$$$$
