AV-unprocessed.smi:2623|AV-procd|sdf|10231|dock7
  -GOLD-   2272014243D 1   1.00000     0.00000
 Structure written by MMmdl.
 41 43  0  0  0  0  0  0  0  0  2 V2000
  151.5932  136.6570  153.9255 O   0  0  0  0  0  0  0  0  0  0  0  0
  151.8748  138.0284  154.0926 C   0  0  0  0  0  0  0  0  0  0  0  0
  150.6345  138.8502  154.2148 C   0  0  0  0  0  0  0  0  0  0  0  0
  149.4765  138.6561  153.5233 N   0  3  0  0  0  0  0  0  0  0  0  0
  148.5405  139.6248  153.8874 C   0  0  0  0  0  0  0  0  0  0  0  0
  147.2334  139.8346  153.4583 C   0  0  0  0  0  0  0  0  0  0  0  0
  146.5452  140.9223  154.0346 C   0  0  0  0  0  0  0  0  0  0  0  0
  147.1568  141.7507  154.9978 C   0  0  0  0  0  0  0  0  0  0  0  0
  148.4824  141.5281  155.4250 C   0  0  0  0  0  0  0  0  0  0  0  0
  149.1575  140.4515  154.8492 C   0  0  0  0  0  0  0  0  0  0  0  0
  150.4481  139.9356  155.0195 N   0  0  0  0  0  0  0  0  0  0  0  0
  151.3772  140.5804  155.9614 C   0  0  0  0  0  0  0  0  0  0  0  0
  151.6433  139.7271  157.2177 C   0  0  2  0  0  0  0  0  0  0  0  0
  150.4876  139.6876  158.0301 O   0  0  0  0  0  0  0  0  0  0  0  0
  152.8135  140.2643  158.0542 C   0  0  0  0  0  0  0  0  0  0  0  0
  152.4693  141.5519  158.5488 O   0  0  0  0  0  0  0  0  0  0  0  0
  152.7782  141.8529  159.8577 C   0  0  0  0  0  0  0  0  0  0  0  0
  152.0565  142.9048  160.4594 C   0  0  0  0  0  0  0  0  0  0  0  0
  152.3058  143.2796  161.7936 C   0  0  0  0  0  0  0  0  0  0  0  0
  153.2855  142.6025  162.5429 C   0  0  0  0  0  0  0  0  0  0  0  0
  154.0141  141.5520  161.9550 C   0  0  0  0  0  0  0  0  0  0  0  0
  153.7644  141.1767  160.6204 C   0  0  0  0  0  0  0  0  0  0  0  0
  151.3257  136.5114  153.0307 H   0  0  0  0  0  0  0  0  0  0  0  0
  152.4870  138.1606  154.9849 H   0  0  0  0  0  0  0  0  0  0  0  0
  152.4647  138.3774  153.2450 H   0  0  0  0  0  0  0  0  0  0  0  0
  146.7624  139.2008  152.7212 H   0  0  0  0  0  0  0  0  0  0  0  0
  145.5278  141.1250  153.7327 H   0  0  0  0  0  0  0  0  0  0  0  0
  146.5976  142.5741  155.4185 H   0  0  0  0  0  0  0  0  0  0  0  0
  148.9378  142.1674  156.1667 H   0  0  0  0  0  0  0  0  0  0  0  0
  152.3099  140.7517  155.4228 H   0  0  0  0  0  0  0  0  0  0  0  0
  150.9997  141.5685  156.2251 H   0  0  0  0  0  0  0  0  0  0  0  0
  151.8661  138.7009  156.9235 H   0  0  0  0  0  0  0  0  0  0  0  0
  150.2435  138.7838  158.1579 H   0  0  0  0  0  0  0  0  0  0  0  0
  153.0349  139.5794  158.8748 H   0  0  0  0  0  0  0  0  0  0  0  0
  153.7045  140.3442  157.4286 H   0  0  0  0  0  0  0  0  0  0  0  0
  151.3025  143.4306  159.8920 H   0  0  0  0  0  0  0  0  0  0  0  0
  151.7451  144.0867  162.2415 H   0  0  0  0  0  0  0  0  0  0  0  0
  153.4778  142.8883  163.5667 H   0  0  0  0  0  0  0  0  0  0  0  0
  154.7671  141.0321  162.5287 H   0  0  0  0  0  0  0  0  0  0  0  0
  154.3446  140.3668  160.2049 H   0  0  0  0  0  0  0  0  0  0  0  0
  149.3425  137.9154  152.8468 H   0  0  0  0  0  0  0  0  0  0  0  0
  1  2  1  0  0  0  0
  1 23  1  0  0  0  0
  2  3  1  0  0  0  0
  2 24  1  0  0  0  0
  2 25  1  0  0  0  0
  3 11  1  0  0  0  0
  3  4  2  0  0  0  0
  4  5  1  0  0  0  0
  4 41  1  0  0  0  0
  5 10  2  0  0  0  0
  5  6  1  0  0  0  0
  6  7  2  0  0  0  0
  6 26  1  0  0  0  0
  7  8  1  0  0  0  0
  7 27  1  0  0  0  0
  8  9  2  0  0  0  0
  8 28  1  0  0  0  0
  9 10  1  0  0  0  0
  9 29  1  0  0  0  0
 10 11  1  0  0  0  0
 11 12  1  0  0  0  0
 12 13  1  0  0  0  0
 12 30  1  0  0  0  0
 12 31  1  0  0  0  0
 13 14  1  0  0  0  0
 13 15  1  0  0  0  0
 13 32  1  0  0  0  0
 14 33  1  0  0  0  0
 15 16  1  0  0  0  0
 15 34  1  0  0  0  0
 15 35  1  0  0  0  0
 16 17  1  0  0  0  0
 17 22  1  0  0  0  0
 17 18  2  0  0  0  0
 18 19  1  0  0  0  0
 18 36  1  0  0  0  0
 19 20  2  0  0  0  0
 19 37  1  0  0  0  0
 20 21  1  0  0  0  0
 20 38  1  0  0  0  0
 21 22  2  0  0  0  0
 21 39  1  0  0  0  0
 22 40  1  0  0  0  0
M  CHG  1   4   1
M  END
> <s_m_source_file>
AV-unprocessed.smi

> <i_m_source_file_index>
2623

> <i_lp_mmshare_version>
43012

> <i_f3d_flags>
0

> <s_epik_input>
W2NIXTFbY0hdW2NIXVtjSF1jKGMxMiluKGMobjIpW0NIMl1bT0hdKVtDSDJdW0NASF0oW09IXSlbQ0gyXU9jM1tjSF1bY0hdW2NIXVtjSF1bY0hdMw==

> <s_epik_cmdline>
J2VwaWtfcHl0aG9uJywgJy1waCcsICc3LjAnLCAnLXRuJywgJzgnLCAnLW1hJywgJzIwMCcsICctbWV0YWxfYmluZGluZycsICctaW1hZScsICc8aW5maWxlLm1hZT4nLCAnLW9tYWUnLCAnPG91dGZpbGUubWFlPic=

> <r_lp_tautomer_probability>
1

> <r_epik_Ionization_Penalty>
1.40416

> <r_epik_Ionization_Penalty_Charging>
1.4033

> <r_epik_Ionization_Penalty_Neutral>
0.000858184

> <r_epik_State_Penalty>
1.48564

> <r_epik_Charging_Adjusted_Penalty>
2.88894

> <i_epik_Tot_Q>
1

> <i_epik_Tot_abs_Q>
1

> <r_epik_Metal_State_Penalty>
5.52809

> <b_epik_Metal_Only>
0

> <s_lp_Force_Field>
OPLS_2005

> <r_lp_Energy>
17.9205

> <b_lp_Chiralities_Consistent>
1

> <s_lp_Variant>
AV-unprocessed.smi:2623-3

> <Gold.Version>
5.8.1

> <Gold.Id.Protein>
6NUR|6NUR_protein|mol2

> <Gold.PLP.Fitness>
64.1631

> <Gold.PLP.PLP>
-54.2211

> <Gold.PLP.part.hbond>
-4.0000

> <Gold.PLP.part.metal>
0.0000

> <Gold.PLP.part.buried>
0.9307

> <Gold.PLP.part.nonpolar>
-50.0248

> <Gold.PLP.part.repulsive>
0.0734

> <Gold.PLP.ligand.clash>
0.0000

> <Gold.PLP.ligand.torsion>
1.0886

> <Gold.PLP.Chemscore.Hbond>
4.0000

> <Gold.PLP.Chemscore.CHOScore>
0.0000

> <Gold.PLP.Chemscore.Metal>
0.0000

> <Gold.Chemscore.Hbonds>
donor molecule, donor type, donor heavy atom, donor atom, acceptor molecule, acceptor atom, score
      L1  H     1    23       P1  7949  1.00
      L1  H     4    41       P1  7948  2.00
      P1  H 10752 10763       L1     1  0.99

> <Gold.PLP.Chemscore.Internal.Correction>
0.1192

> <Gold.Rescore>
     Score         DG    S(hbond)    S(metal)    S(lipo)     H(rot)  DE(clash)    DE(int)     intcor
     18.95     -20.20       2.39        0.00     126.14       3.13       0.11       1.13       ----

> <Gold.Chemscore.Fitness>
18.9540

> <Gold.Chemscore.DG>
-20.2008

> <Gold.Chemscore.ZeroCoef>
-5.4800

> <Gold.Chemscore.Hbond>
2.3882

> <Gold.Chemscore.Metal>
0.0000

> <Gold.Chemscore.Lipo>
126.1402

> <Gold.Chemscore.Internal_Hbond>
0.0000

> <Gold.Chemscore.DEClash>
0.1128

> <Gold.Chemscore.DEInternal>
1.1340

> <Gold.Chemscore.Rot>
3.1305

> <Gold.Chemscore.Internal.Correction>
   9.000000E+99

> <Gold.Chemscore.Hbonds>
donor molecule, donor type, donor heavy atom, donor atom, acceptor molecule, acceptor atom, score
      L1  H     1    23       P1  7949  0.74
      L1  H     4    41       P1  7948  0.92
      P1  H 10752 10763       L1     1  0.73

> <Gold.Chemscore.Hbond.Weighted>
-7.9765

> <Gold.Chemscore.Metal.Weighted>
-0.0000

> <Gold.Chemscore.Lipo.Weighted>
-14.7584

> <Gold.Chemscore.Internal_Hbond.Weighted>
0.0000

> <Gold.Chemscore.DEClash.Weighted>
0.1128

> <Gold.Chemscore.DEInternal.Weighted>
1.1340

> <Gold.Chemscore.Rot.Weighted>
8.0141

> <Gold.Chemscore.Internal.Correction.Weighted>
   9.000000E+99

> <Gold.Protein.RotatedTorsions>
[ 6907 6896 6895 6894 ] final  125.42 input  -60.11 | X-H torsion
[ 7974 7965 7964 7962 ] final -169.86 input  175.53 | X-H torsion
[ 8008 7997 7996 7995 ] final  -17.81 input   59.86 | X-H torsion
[ 10167 10162 10161 10158 ] final  -59.96 input  -65.29 | X-H torsion
[ 10718 10713 10712 10709 ] final  108.55 input   66.30 | X-H torsion
[ 10763 10752 10751 10750 ] final   55.09 input  -60.55 | X-H torsion
[ 11005 11000 10999 10996 ] final   36.94 input  -57.11 | X-H torsion

> <Gold.Protein.ActiveResidues>
 VAL166  LYS551  ARG553  GLY616  TRP617  ASP618  TYR619  PRO620  LYS621  CYS622 
 ASP623  PHE694  ASN695  SER759  ASP760  ASP761  ALA762  ILE779  LEU786  VAL792 
 PHE793  MET794  SER795  GLU796  ALA797  LYS798  CYS799  TRP800  GLU811  SER814 

> <Gold.Protein.RotatedAtoms>
  152.3993  133.6794  159.6302 H   0  0  0  0  0  0  0  0  0  0  0  0  # atno 6907 bound_to 6896
  150.7887  133.8819  159.3297 H   0  0  0  0  0  0  0  0  0  0  0  0  # atno 6908 bound_to 6896
  151.6588  135.0993  160.0227 H   0  0  0  0  0  0  0  0  0  0  0  0  # atno 6909 bound_to 6896
  144.7179  140.2158  143.6322 H   0  0  0  0  0  0  0  0  0  0  0  0  # atno 7974 bound_to 7965
  154.4951  140.2132  155.9465 H   0  0  0  0  0  0  0  0  0  0  0  0  # atno 8008 bound_to 7997
  156.1359  140.3188  155.8388 H   0  0  0  0  0  0  0  0  0  0  0  0  # atno 8009 bound_to 7997
  155.4211  140.0497  157.3016 H   0  0  0  0  0  0  0  0  0  0  0  0  # atno 8010 bound_to 7997
  140.6102  143.2385  151.5728 H   0  0  0  0  0  0  0  0  0  0  0  0  # atno 10167 bound_to 10162
  157.6581  131.0896  150.6322 H   0  0  0  0  0  0  0  0  0  0  0  0  # atno 10718 bound_to 10713
  152.9812  135.5722  154.5010 H   0  0  0  0  0  0  0  0  0  0  0  0  # atno 10763 bound_to 10752
  154.4529  135.2779  155.1770 H   0  0  0  0  0  0  0  0  0  0  0  0  # atno 10764 bound_to 10752
  154.3390  135.6233  153.5641 H   0  0  0  0  0  0  0  0  0  0  0  0  # atno 10765 bound_to 10752
  140.2276  134.3566  155.7978 H   0  0  0  0  0  0  0  0  0  0  0  0  # atno 11005 bound_to 11000
  145.8548  139.2193  143.1751 LP  0  0  0  0  0  0  0  0  0  0  0  0  # atno 17320 bound_to 7965
  146.0228  140.8332  142.9915 LP  0  0  0  0  0  0  0  0  0  0  0  0  # atno 17321 bound_to 7965
  139.5355  144.2793  152.1242 LP  0  0  0  0  0  0  0  0  0  0  0  0  # atno 17342 bound_to 10162
  140.1991  144.4676  150.6440 LP  0  0  0  0  0  0  0  0  0  0  0  0  # atno 17343 bound_to 10162
  156.6627  130.4517  149.5682 LP  0  0  0  0  0  0  0  0  0  0  0  0  # atno 17370 bound_to 10713
  156.2055  130.6646  151.1214 LP  0  0  0  0  0  0  0  0  0  0  0  0  # atno 17371 bound_to 10713
  141.2220  133.7227  156.8678 LP  0  0  0  0  0  0  0  0  0  0  0  0  # atno 17394 bound_to 11000
  140.1784  134.9050  157.2919 LP  0  0  0  0  0  0  0  0  0  0  0  0  # atno 17395 bound_to 11000

$$$$
