AV-unprocessed.smi:171|AV-procd|sdf|1415|dock3
  -GOLD-   2262019183D 1   1.00000     0.00000
 Structure written by MMmdl.
 56 59  0  0  0  0  0  0  0  0  1 V2000
  152.4065  142.1363  159.0040 C   0  0  0  0  0  0  0  0  0  0  0  0
  151.2095  142.6278  158.1747 C   0  0  0  0  0  0  0  0  0  0  0  0
  150.4431  143.7156  158.9433 C   0  0  0  0  0  0  0  0  0  0  0  0
  150.2506  141.4948  157.7397 C   0  0  0  0  0  0  0  0  0  0  0  0
  150.5972  140.8128  156.3809 C   0  0  1  0  0  0  0  0  0  0  0  0
  151.8050  139.8426  156.4148 C   0  0  0  0  0  0  0  0  0  0  0  0
  152.6995  139.9770  157.2468 O   0  0  0  0  0  0  0  0  0  0  0  0
  151.8469  138.8534  155.5039 N   0  0  0  0  0  0  0  0  0  0  0  0
  150.8192  138.5639  154.5006 C   0  0  0  0  0  0  0  0  0  0  0  0
  149.7155  139.6395  154.4151 C   0  0  0  0  0  0  0  0  0  0  0  0
  149.4247  140.1962  155.7341 N   0  0  0  0  0  0  0  0  0  0  0  0
  148.5654  139.4203  156.4496 C   0  0  0  0  0  0  0  0  0  0  0  0
  147.2271  139.6595  156.4228 N   0  0  0  0  0  0  0  0  0  0  0  0
  146.3916  138.9010  157.1375 C   0  0  0  0  0  0  0  0  0  0  0  0
  146.6767  137.8678  157.9317 N   0  0  0  0  0  0  0  0  0  0  0  0
  148.0179  137.6197  157.9615 C   0  0  0  0  0  0  0  0  0  0  0  0
  149.0217  138.3474  157.2636 C   0  0  0  0  0  0  0  0  0  0  0  0
  150.2733  137.8171  157.5454 N   0  0  0  0  0  0  0  0  0  0  0  0
  150.0235  136.8319  158.3641 C   0  0  0  0  0  0  0  0  0  0  0  0
  148.6902  136.6188  158.6445 N   0  0  0  0  0  0  0  0  0  0  0  0
  148.1126  135.6077  159.5240 C   0  0  0  0  0  0  0  0  0  0  0  0
  147.5407  136.1266  160.8738 C   0  0  1  0  0  0  0  0  0  0  0  0
  148.5106  136.9701  161.4720 O   0  0  0  0  0  0  0  0  0  0  0  0
  146.2879  136.9690  160.6670 C   0  0  0  0  0  0  0  0  0  0  0  0
  145.5989  136.8876  162.0199 C   0  0  0  0  0  0  0  0  0  0  0  0
  145.8037  135.5376  162.3951 O   0  0  0  0  0  0  0  0  0  0  0  0
  147.0848  135.0937  161.9475 C   0  0  1  0  0  0  0  0  0  0  0  0
  146.8808  133.6412  161.4926 C   0  0  0  0  0  0  0  0  0  0  0  0
  152.0782  141.6080  159.8997 H   0  0  0  0  0  0  0  0  0  0  0  0
  153.0317  142.9706  159.3225 H   0  0  0  0  0  0  0  0  0  0  0  0
  153.0424  141.4643  158.4286 H   0  0  0  0  0  0  0  0  0  0  0  0
  151.6043  143.0958  157.2720 H   0  0  0  0  0  0  0  0  0  0  0  0
  150.0119  143.3201  159.8635 H   0  0  0  0  0  0  0  0  0  0  0  0
  149.6297  144.1254  158.3438 H   0  0  0  0  0  0  0  0  0  0  0  0
  151.0984  144.5446  159.2127 H   0  0  0  0  0  0  0  0  0  0  0  0
  150.1652  140.7520  158.5344 H   0  0  0  0  0  0  0  0  0  0  0  0
  149.2600  141.9458  157.6705 H   0  0  0  0  0  0  0  0  0  0  0  0
  150.8944  141.6096  155.6978 H   0  0  0  0  0  0  0  0  0  0  0  0
  152.6429  138.2326  155.5277 H   0  0  0  0  0  0  0  0  0  0  0  0
  151.2863  138.4181  153.5266 H   0  0  0  0  0  0  0  0  0  0  0  0
  150.3686  137.6095  154.7749 H   0  0  0  0  0  0  0  0  0  0  0  0
  150.0550  140.4561  153.7763 H   0  0  0  0  0  0  0  0  0  0  0  0
  148.8265  139.2352  153.9293 H   0  0  0  0  0  0  0  0  0  0  0  0
  145.3454  139.1581  157.0607 H   0  0  0  0  0  0  0  0  0  0  0  0
  150.8184  136.2337  158.7835 H   0  0  0  0  0  0  0  0  0  0  0  0
  147.3261  135.0990  158.9645 H   0  0  0  0  0  0  0  0  0  0  0  0
  148.8707  134.8484  159.7168 H   0  0  0  0  0  0  0  0  0  0  0  0
  148.9923  136.4658  162.1097 H   0  0  0  0  0  0  0  0  0  0  0  0
  146.4924  137.9926  160.3505 H   0  0  0  0  0  0  0  0  0  0  0  0
  145.6453  136.5113  159.9134 H   0  0  0  0  0  0  0  0  0  0  0  0
  146.0758  137.5465  162.7471 H   0  0  0  0  0  0  0  0  0  0  0  0
  144.5383  137.1350  161.9709 H   0  0  0  0  0  0  0  0  0  0  0  0
  147.7655  135.0971  162.8005 H   0  0  0  0  0  0  0  0  0  0  0  0
  147.8298  133.1448  161.3020 H   0  0  0  0  0  0  0  0  0  0  0  0
  146.2672  133.5811  160.5936 H   0  0  0  0  0  0  0  0  0  0  0  0
  146.3808  133.0637  162.2704 H   0  0  0  0  0  0  0  0  0  0  0  0
  1  2  1  0  0  0  0
  1 29  1  0  0  0  0
  1 30  1  0  0  0  0
  1 31  1  0  0  0  0
  2  3  1  0  0  0  0
  2  4  1  0  0  0  0
  2 32  1  0  0  0  0
  3 33  1  0  0  0  0
  3 34  1  0  0  0  0
  3 35  1  0  0  0  0
  4  5  1  0  0  0  0
  4 36  1  0  0  0  0
  4 37  1  0  0  0  0
  5 11  1  0  0  0  0
  5  6  1  0  0  0  0
  5 38  1  0  0  0  0
  6  7  2  0  0  0  0
  6  8  1  0  0  0  0
  8  9  1  0  0  0  0
  8 39  1  0  0  0  0
  9 10  1  0  0  0  0
  9 40  1  0  0  0  0
  9 41  1  0  0  0  0
 10 11  1  0  0  0  0
 10 42  1  0  0  0  0
 10 43  1  0  0  0  0
 11 12  1  0  0  0  0
 12 17  1  0  0  0  0
 12 13  2  0  0  0  0
 13 14  1  0  0  0  0
 14 15  2  0  0  0  0
 14 44  1  0  0  0  0
 15 16  1  0  0  0  0
 16 20  1  0  0  0  0
 16 17  2  0  0  0  0
 17 18  1  0  0  0  0
 18 19  2  0  0  0  0
 19 20  1  0  0  0  0
 19 45  1  0  0  0  0
 20 21  1  0  0  0  0
 21 22  1  0  0  0  0
 21 46  1  0  0  0  0
 21 47  1  0  0  0  0
 22 27  1  0  0  0  0
 22 23  1  0  0  0  0
 22 24  1  0  0  0  0
 23 48  1  0  0  0  0
 24 25  1  0  0  0  0
 24 49  1  0  0  0  0
 24 50  1  0  0  0  0
 25 26  1  0  0  0  0
 25 51  1  0  0  0  0
 25 52  1  0  0  0  0
 26 27  1  0  0  0  0
 27 28  1  0  0  0  0
 27 53  1  0  0  0  0
 28 54  1  0  0  0  0
 28 55  1  0  0  0  0
 28 56  1  0  0  0  0
M  END
> <s_m_source_file>
AV-unprocessed.smi

> <i_m_source_file_index>
171

> <i_lp_mmshare_version>
43012

> <i_f3d_flags>
0

> <s_epik_input>
W0NIM11bQ0hdKFtDSDNdKVtDSDJdW0NAQEhdMUMoPU8pW05IXVtDSDJdW0NIMl1OMWMobltjSF1uMiljKGMyMyluW2NIXW4zW0NIMl1bQ0BAXTQoW09IXSlbQ0gyXVtDSDJdT1tDQEhdNFtDSDNd

> <s_epik_cmdline>
J2VwaWtfcHl0aG9uJywgJy1waCcsICc3LjAnLCAnLXRuJywgJzgnLCAnLW1hJywgJzIwMCcsICctbWV0YWxfYmluZGluZycsICctaW1hZScsICc8aW5maWxlLm1hZT4nLCAnLW9tYWUnLCAnPG91dGZpbGUubWFlPic=

> <r_lp_tautomer_probability>
1

> <r_epik_Ionization_Penalty>
0.000670584

> <r_epik_Ionization_Penalty_Charging>
0

> <r_epik_Ionization_Penalty_Neutral>
0.000670584

> <r_epik_State_Penalty>
0.000304767

> <r_epik_Charging_Adjusted_Penalty>
0.000304767

> <i_epik_Tot_Q>
0

> <i_epik_Tot_abs_Q>
0

> <r_epik_Metal_State_Penalty>
-0

> <b_epik_Metal_Only>
0

> <s_lp_Force_Field>
OPLS_2005

> <r_lp_Energy>
47.4038

> <b_lp_Chiralities_Consistent>
1

> <s_lp_Variant>
AV-unprocessed.smi:171-2

> <Gold.Version>
5.8.1

> <Gold.Id.Protein>
6NUR|6NUR_protein|mol2

> <Gold.PLP.Fitness>
41.4626

> <Gold.PLP.PLP>
-37.9735

> <Gold.PLP.part.hbond>
-1.8953

> <Gold.PLP.part.metal>
0.0000

> <Gold.PLP.part.buried>
-6.4739

> <Gold.PLP.part.nonpolar>
-30.2971

> <Gold.PLP.part.repulsive>
0.1903

> <Gold.PLP.ligand.clash>
0.0000

> <Gold.PLP.ligand.torsion>
1.2051

> <Gold.PLP.Chemscore.Hbond>
1.8288

> <Gold.PLP.Chemscore.CHOScore>
0.0000

> <Gold.PLP.Chemscore.Metal>
0.0000

> <Gold.Chemscore.Hbonds>
donor molecule, donor type, donor heavy atom, donor atom, acceptor molecule, acceptor atom, score
      P1  H  6931  6943       L1    23  0.55
      P1  H  7997  8010       L1     7  1.00

> <Gold.PLP.Chemscore.Internal.Correction>
0.4131

> <Gold.Rescore>
     Score         DG    S(hbond)    S(metal)    S(lipo)     H(rot)  DE(clash)    DE(int)     intcor
      9.79     -16.14       1.96        0.00      92.10       2.61       0.80       5.56       ----

> <Gold.Chemscore.Fitness>
9.7866

> <Gold.Chemscore.DG>
-16.1434

> <Gold.Chemscore.ZeroCoef>
-5.4800

> <Gold.Chemscore.Hbond>
1.9649

> <Gold.Chemscore.Metal>
0.0000

> <Gold.Chemscore.Lipo>
92.0968

> <Gold.Chemscore.Internal_Hbond>
0.0000

> <Gold.Chemscore.DEClash>
0.7976

> <Gold.Chemscore.DEInternal>
5.5592

> <Gold.Chemscore.Rot>
2.6074

> <Gold.Chemscore.Internal.Correction>
   9.000000E+99

> <Gold.Chemscore.Hbonds>
donor molecule, donor type, donor heavy atom, donor atom, acceptor molecule, acceptor atom, score
      P1  H  6931  6943       L1    23  0.06
      P1  H  7997  8010       L1     7  0.96

> <Gold.Chemscore.Hbond.Weighted>
-6.5628

> <Gold.Chemscore.Metal.Weighted>
-0.0000

> <Gold.Chemscore.Lipo.Weighted>
-10.7753

> <Gold.Chemscore.Internal_Hbond.Weighted>
0.0000

> <Gold.Chemscore.DEClash.Weighted>
0.7976

> <Gold.Chemscore.DEInternal.Weighted>
5.5592

> <Gold.Chemscore.Rot.Weighted>
6.6748

> <Gold.Chemscore.Internal.Correction.Weighted>
   9.000000E+99

> <Gold.Protein.RotatedTorsions>
[ 6907 6896 6895 6894 ] final  -55.02 input  -60.11 | X-H torsion
[ 7974 7965 7964 7962 ] final   10.48 input  175.53 | X-H torsion
[ 8008 7997 7996 7995 ] final   46.67 input   59.86 | X-H torsion
[ 10167 10162 10161 10158 ] final  135.56 input  -65.29 | X-H torsion
[ 10718 10713 10712 10709 ] final  154.78 input   66.30 | X-H torsion
[ 10763 10752 10751 10750 ] final  164.53 input  -60.55 | X-H torsion
[ 11005 11000 10999 10996 ] final  122.57 input  -57.11 | X-H torsion

> <Gold.Protein.ActiveResidues>
 VAL166  LYS551  ARG553  GLY616  TRP617  ASP618  TYR619  PRO620  LYS621  CYS622 
 ASP623  PHE694  ASN695  SER759  ASP760  ASP761  ALA762  ILE779  LEU786  VAL792 
 PHE793  MET794  SER795  GLU796  ALA797  LYS798  CYS799  TRP800  GLU811  SER814 

> <Gold.Protein.RotatedAtoms>
  150.8287  134.7530  159.6834 H   0  0  0  0  0  0  0  0  0  0  0  0  # atno 6907 bound_to 6896
  152.4394  134.5617  159.9906 H   0  0  0  0  0  0  0  0  0  0  0  0  # atno 6908 bound_to 6896
  151.5783  133.3343  159.3039 H   0  0  0  0  0  0  0  0  0  0  0  0  # atno 6909 bound_to 6896
  146.2387  139.9627  142.8456 H   0  0  0  0  0  0  0  0  0  0  0  0  # atno 7974 bound_to 7965
  155.3564  140.3416  155.4240 H   0  0  0  0  0  0  0  0  0  0  0  0  # atno 8008 bound_to 7997
  156.1737  140.1640  156.8436 H   0  0  0  0  0  0  0  0  0  0  0  0  # atno 8009 bound_to 7997
  154.5259  140.0756  156.8241 H   0  0  0  0  0  0  0  0  0  0  0  0  # atno 8010 bound_to 7997
  139.5212  144.6510  151.5301 H   0  0  0  0  0  0  0  0  0  0  0  0  # atno 10167 bound_to 10162
  157.2270  131.0731  151.1877 H   0  0  0  0  0  0  0  0  0  0  0  0  # atno 10718 bound_to 10713
  154.3102  135.2757  155.2569 H   0  0  0  0  0  0  0  0  0  0  0  0  # atno 10763 bound_to 10752
  154.4968  135.5819  153.6504 H   0  0  0  0  0  0  0  0  0  0  0  0  # atno 10764 bound_to 10752
  152.9889  135.6148  154.3279 H   0  0  0  0  0  0  0  0  0  0  0  0  # atno 10765 bound_to 10752
  139.9274  134.9641  156.8129 H   0  0  0  0  0  0  0  0  0  0  0  0  # atno 11005 bound_to 11000
  145.1755  140.9742  143.4296 LP  0  0  0  0  0  0  0  0  0  0  0  0  # atno 17320 bound_to 7965
  144.9989  139.3617  143.6177 LP  0  0  0  0  0  0  0  0  0  0  0  0  # atno 17321 bound_to 7965
  140.6315  143.9066  150.6610 LP  0  0  0  0  0  0  0  0  0  0  0  0  # atno 17342 bound_to 10162
  140.2372  143.3691  152.1517 LP  0  0  0  0  0  0  0  0  0  0  0  0  # atno 17343 bound_to 10162
  157.3517  130.7085  149.6445 LP  0  0  0  0  0  0  0  0  0  0  0  0  # atno 17370 bound_to 10713
  155.9678  130.4250  150.4636 LP  0  0  0  0  0  0  0  0  0  0  0  0  # atno 17371 bound_to 10713
  140.6297  133.9917  155.7656 LP  0  0  0  0  0  0  0  0  0  0  0  0  # atno 17394 bound_to 11000
  141.0841  134.0017  157.3341 LP  0  0  0  0  0  0  0  0  0  0  0  0  # atno 17395 bound_to 11000

$$$$
