AV-unprocessed.smi:266|AV-procd|sdf|2037|dock1
  -GOLD-   2262021253D 1   1.00000     0.00000
 Structure written by MMmdl.
 52 55  0  0  0  0  0  0  0  0  1 V2000
  145.7700  129.9475  151.9262 C   0  0  0  0  0  0  0  0  0  0  0  0
  147.2503  129.5285  151.9509 C   0  0  2  0  0  0  0  0  0  0  0  0
  147.3903  128.4640  151.0078 O   0  0  0  0  0  0  0  0  0  0  0  0
  148.0267  127.3452  151.6084 C   0  0  0  0  0  0  0  0  0  0  0  0
  147.6767  127.4743  153.0826 C   0  0  0  0  0  0  0  0  0  0  0  0
  147.7724  128.9799  153.3035 C   0  0  2  0  0  0  0  0  0  0  0  0
  146.9449  129.3366  154.3969 O   0  0  0  0  0  0  0  0  0  0  0  0
  149.2105  129.4892  153.5918 C   0  0  0  0  0  0  0  0  0  0  0  0
  149.2874  130.8944  153.9628 N   0  0  0  0  0  0  0  0  0  0  0  0
  148.8422  131.9645  153.2210 C   0  0  0  0  0  0  0  0  0  0  0  0
  149.0225  133.1343  153.7692 N   0  0  0  0  0  0  0  0  0  0  0  0
  149.6183  132.8525  154.9935 C   0  0  0  0  0  0  0  0  0  0  0  0
  150.0750  133.6406  156.0912 C   0  0  0  0  0  0  0  0  0  0  0  0
  150.0045  134.9916  156.1755 N   0  0  0  0  0  0  0  0  0  0  0  0
  148.6539  135.4668  156.4423 C   0  0  0  0  0  0  0  0  0  0  0  0
  151.1012  135.7260  156.8058 C   0  0  0  0  0  0  0  0  0  0  0  0
  151.0510  137.2513  156.5720 C   0  0  1  0  0  0  0  0  0  0  0  0
  151.8823  138.0495  157.5972 C   0  0  0  0  0  0  0  0  0  0  0  0
  152.0070  139.4955  157.1066 C   0  0  0  0  0  0  0  0  0  0  0  0
  152.0538  139.3957  155.2783 S   0  0  0  0  0  0  0  0  0  0  0  0
  150.9863  140.2436  154.7264 O   0  0  0  0  0  0  0  0  0  0  0  0
  153.4426  139.5270  154.8123 O   0  0  0  0  0  0  0  0  0  0  0  0
  151.5532  137.6358  155.1727 C   0  0  0  0  0  0  0  0  0  0  0  0
  150.6394  132.9906  157.1403 N   0  0  0  0  0  0  0  0  0  0  0  0
  150.7357  131.6582  157.1350 C   0  0  0  0  0  0  0  0  0  0  0  0
  150.3447  130.7978  156.1937 N   0  0  0  0  0  0  0  0  0  0  0  0
  149.7917  131.4449  155.1286 C   0  0  0  0  0  0  0  0  0  0  0  0
  145.5848  130.7917  152.5908 H   0  0  0  0  0  0  0  0  0  0  0  0
  145.1188  129.1275  152.2307 H   0  0  0  0  0  0  0  0  0  0  0  0
  145.4715  130.2521  150.9228 H   0  0  0  0  0  0  0  0  0  0  0  0
  147.8552  130.3739  151.6201 H   0  0  0  0  0  0  0  0  0  0  0  0
  147.6801  126.4076  151.1733 H   0  0  0  0  0  0  0  0  0  0  0  0
  149.1044  127.4142  151.4561 H   0  0  0  0  0  0  0  0  0  0  0  0
  146.6509  127.1330  153.2319 H   0  0  0  0  0  0  0  0  0  0  0  0
  148.3141  126.8742  153.7303 H   0  0  0  0  0  0  0  0  0  0  0  0
  146.6026  130.2041  154.2441 H   0  0  0  0  0  0  0  0  0  0  0  0
  149.6633  128.9079  154.3961 H   0  0  0  0  0  0  0  0  0  0  0  0
  149.8452  129.3319  152.7186 H   0  0  0  0  0  0  0  0  0  0  0  0
  148.3851  131.8497  152.2488 H   0  0  0  0  0  0  0  0  0  0  0  0
  147.9589  135.1338  155.6706 H   0  0  0  0  0  0  0  0  0  0  0  0
  148.6256  136.5566  156.4632 H   0  0  0  0  0  0  0  0  0  0  0  0
  148.3015  135.0993  157.4069 H   0  0  0  0  0  0  0  0  0  0  0  0
  151.0699  135.5339  157.8787 H   0  0  0  0  0  0  0  0  0  0  0  0
  152.0528  135.3202  156.4631 H   0  0  0  0  0  0  0  0  0  0  0  0
  150.0218  137.6041  156.6416 H   0  0  0  0  0  0  0  0  0  0  0  0
  151.4444  138.0079  158.5951 H   0  0  0  0  0  0  0  0  0  0  0  0
  152.8795  137.6129  157.6690 H   0  0  0  0  0  0  0  0  0  0  0  0
  151.1297  140.0771  157.3902 H   0  0  0  0  0  0  0  0  0  0  0  0
  152.8978  139.9993  157.4820 H   0  0  0  0  0  0  0  0  0  0  0  0
  152.4353  137.0561  154.8986 H   0  0  0  0  0  0  0  0  0  0  0  0
  150.7973  137.5045  154.3983 H   0  0  0  0  0  0  0  0  0  0  0  0
  151.1910  131.2185  158.0101 H   0  0  0  0  0  0  0  0  0  0  0  0
  1  2  1  0  0  0  0
  1 28  1  0  0  0  0
  1 29  1  0  0  0  0
  1 30  1  0  0  0  0
  2  6  1  0  0  0  0
  2  3  1  0  0  0  0
  2 31  1  0  0  0  0
  3  4  1  0  0  0  0
  4  5  1  0  0  0  0
  4 32  1  0  0  0  0
  4 33  1  0  0  0  0
  5  6  1  0  0  0  0
  5 34  1  0  0  0  0
  5 35  1  0  0  0  0
  6  7  1  0  0  0  0
  6  8  1  0  0  0  0
  7 36  1  0  0  0  0
  8  9  1  0  0  0  0
  8 37  1  0  0  0  0
  8 38  1  0  0  0  0
  9 27  1  0  0  0  0
  9 10  1  0  0  0  0
 10 11  2  0  0  0  0
 10 39  1  0  0  0  0
 11 12  1  0  0  0  0
 12 27  2  0  0  0  0
 12 13  1  0  0  0  0
 13 14  1  0  0  0  0
 13 24  2  0  0  0  0
 14 15  1  0  0  0  0
 14 16  1  0  0  0  0
 15 40  1  0  0  0  0
 15 41  1  0  0  0  0
 15 42  1  0  0  0  0
 16 17  1  0  0  0  0
 16 43  1  0  0  0  0
 16 44  1  0  0  0  0
 17 23  1  0  0  0  0
 17 18  1  0  0  0  0
 17 45  1  0  0  0  0
 18 19  1  0  0  0  0
 18 46  1  0  0  0  0
 18 47  1  0  0  0  0
 19 20  1  0  0  0  0
 19 48  1  0  0  0  0
 19 49  1  0  0  0  0
 20 21  2  0  0  0  0
 20 22  2  0  0  0  0
 20 23  1  0  0  0  0
 23 50  1  0  0  0  0
 23 51  1  0  0  0  0
 24 25  1  0  0  0  0
 25 26  2  0  0  0  0
 25 52  1  0  0  0  0
 26 27  1  0  0  0  0
M  END
> <s_m_source_file>
AV-unprocessed.smi

> <i_m_source_file_index>
266

> <i_lp_mmshare_version>
43012

> <i_f3d_flags>
0

> <s_epik_input>
W0NIMl0xW0NIMl1PW0NAQEhdKFtDSDNdKVtDQEBdMShbT0hdKVtDSDJdbihbY0hdbjIpYyhjMjMpbltjSF1uYzNOKFtDSDNdKVtDSDJdW0NAQEhdKFtDSDJdNClbQ0gyXVtDSDJdUzQoPU8pPU8=

> <s_epik_cmdline>
J2VwaWtfcHl0aG9uJywgJy1waCcsICc3LjAnLCAnLXRuJywgJzgnLCAnLW1hJywgJzIwMCcsICctbWV0YWxfYmluZGluZycsICctaW1hZScsICc8aW5maWxlLm1hZT4nLCAnLW9tYWUnLCAnPG91dGZpbGUubWFlPic=

> <r_lp_tautomer_probability>
1

> <r_epik_Ionization_Penalty>
0.00155497

> <r_epik_Ionization_Penalty_Charging>
0

> <r_epik_Ionization_Penalty_Neutral>
0.00155497

> <r_epik_State_Penalty>
-0

> <r_epik_Charging_Adjusted_Penalty>
0

> <i_epik_Tot_Q>
0

> <i_epik_Tot_abs_Q>
0

> <r_epik_Metal_State_Penalty>
-0

> <b_epik_Metal_Only>
0

> <s_lp_Force_Field>
OPLS_2005

> <r_lp_Energy>
32.6677

> <b_lp_Chiralities_Consistent>
1

> <s_lp_Variant>
AV-unprocessed.smi:266-7

> <Gold.Version>
5.8.1

> <Gold.Id.Protein>
6NUR|6NUR_protein|mol2

> <Gold.PLP.Fitness>
48.8859

> <Gold.PLP.PLP>
-38.5296

> <Gold.PLP.part.hbond>
-3.8762

> <Gold.PLP.part.metal>
0.0000

> <Gold.PLP.part.buried>
-4.8766

> <Gold.PLP.part.nonpolar>
-30.6253

> <Gold.PLP.part.repulsive>
0.6531

> <Gold.PLP.ligand.clash>
0.0000

> <Gold.PLP.ligand.torsion>
0.8066

> <Gold.PLP.Chemscore.Hbond>
2.7150

> <Gold.PLP.Chemscore.CHOScore>
0.9979

> <Gold.PLP.Chemscore.Metal>
0.0000

> <Gold.Chemscore.Hbonds>
donor molecule, donor type, donor heavy atom, donor atom, acceptor molecule, acceptor atom, score
      P1  H  6896  6909       L1    24  0.65
      P1  H  7989  7998       L1    21  0.98
      P1  H  7997  8009       L1    22  1.00
      L1  C    10    39       P1 10747  1.00

> <Gold.PLP.Chemscore.Internal.Correction>
0.8308

> <Gold.Rescore>
     Score         DG    S(hbond)    S(metal)    S(lipo)     H(rot)  DE(clash)    DE(int)     intcor
     13.98     -15.07       2.51        0.00      70.78       2.76       0.29       0.80       ----

> <Gold.Chemscore.Fitness>
13.9771

> <Gold.Chemscore.DG>
-15.0708

> <Gold.Chemscore.ZeroCoef>
-5.4800

> <Gold.Chemscore.Hbond>
2.5104

> <Gold.Chemscore.Metal>
0.0000

> <Gold.Chemscore.Lipo>
70.7780

> <Gold.Chemscore.Internal_Hbond>
0.0000

> <Gold.Chemscore.DEClash>
0.2920

> <Gold.Chemscore.DEInternal>
0.8017

> <Gold.Chemscore.Rot>
2.7637

> <Gold.Chemscore.Internal.Correction>
   9.000000E+99

> <Gold.Chemscore.Hbonds>
donor molecule, donor type, donor heavy atom, donor atom, acceptor molecule, acceptor atom, score
      P1  H  6896  6909       L1    24  0.18
      P1  H  7989  7998       L1    21  0.37
      P1  H  7997  8009       L1    22  0.90

> <Gold.Chemscore.Hbond.Weighted>
-8.3848

> <Gold.Chemscore.Metal.Weighted>
-0.0000

> <Gold.Chemscore.Lipo.Weighted>
-8.2810

> <Gold.Chemscore.Internal_Hbond.Weighted>
0.0000

> <Gold.Chemscore.DEClash.Weighted>
0.2920

> <Gold.Chemscore.DEInternal.Weighted>
0.8017

> <Gold.Chemscore.Rot.Weighted>
7.0750

> <Gold.Chemscore.Internal.Correction.Weighted>
   9.000000E+99

> <Gold.Protein.RotatedTorsions>
[ 6907 6896 6895 6894 ] final  -30.03 input  -60.11 | X-H torsion
[ 7974 7965 7964 7962 ] final -124.29 input  175.53 | X-H torsion
[ 8008 7997 7996 7995 ] final -136.79 input   59.86 | X-H torsion
[ 10167 10162 10161 10158 ] final -117.36 input  -65.29 | X-H torsion
[ 10718 10713 10712 10709 ] final  -42.59 input   66.30 | X-H torsion
[ 10763 10752 10751 10750 ] final  -40.54 input  -60.55 | X-H torsion
[ 11005 11000 10999 10996 ] final  -52.33 input  -57.11 | X-H torsion

> <Gold.Protein.ActiveResidues>
 VAL166  LYS551  ARG553  GLY616  TRP617  ASP618  TYR619  PRO620  LYS621  CYS622 
 ASP623  PHE694  ASN695  SER759  ASP760  ASP761  ALA762  ILE779  LEU786  VAL792 
 PHE793  MET794  SER795  GLU796  ALA797  LYS798  CYS799  TRP800  GLU811  SER814 

> <Gold.Protein.RotatedAtoms>
  151.1111  135.0027  159.8494 H   0  0  0  0  0  0  0  0  0  0  0  0  # atno 6907 bound_to 6896
  152.5443  134.1834  159.8655 H   0  0  0  0  0  0  0  0  0  0  0  0  # atno 6908 bound_to 6896
  151.1885  133.4637  159.2628 H   0  0  0  0  0  0  0  0  0  0  0  0  # atno 6909 bound_to 6896
  145.0096  140.7894  143.4446 H   0  0  0  0  0  0  0  0  0  0  0  0  # atno 7974 bound_to 7965
  155.4010  140.0506  157.3036 H   0  0  0  0  0  0  0  0  0  0  0  0  # atno 8008 bound_to 7997
  154.4991  140.2149  155.9346 H   0  0  0  0  0  0  0  0  0  0  0  0  # atno 8009 bound_to 7997
  156.1444  140.3148  155.8551 H   0  0  0  0  0  0  0  0  0  0  0  0  # atno 8010 bound_to 7997
  140.0692  143.4894  152.1989 H   0  0  0  0  0  0  0  0  0  0  0  0  # atno 10167 bound_to 10162
  156.2580  130.4194  149.8574 H   0  0  0  0  0  0  0  0  0  0  0  0  # atno 10718 bound_to 10713
  153.9476  135.6754  153.4744 H   0  0  0  0  0  0  0  0  0  0  0  0  # atno 10763 bound_to 10752
  153.0900  135.4879  154.8669 H   0  0  0  0  0  0  0  0  0  0  0  0  # atno 10764 bound_to 10752
  154.7343  135.3145  154.8797 H   0  0  0  0  0  0  0  0  0  0  0  0  # atno 10765 bound_to 10752
  141.0918  133.6631  156.4008 H   0  0  0  0  0  0  0  0  0  0  0  0  # atno 11005 bound_to 11000
  145.2041  139.2237  143.5177 LP  0  0  0  0  0  0  0  0  0  0  0  0  # atno 17320 bound_to 7965
  146.3467  140.1865  142.8589 LP  0  0  0  0  0  0  0  0  0  0  0  0  # atno 17321 bound_to 7965
  139.5846  144.7525  151.3552 LP  0  0  0  0  0  0  0  0  0  0  0  0  # atno 17342 bound_to 10162
  140.7134  143.7330  150.7609 LP  0  0  0  0  0  0  0  0  0  0  0  0  # atno 17343 bound_to 10162
  156.6099  130.8582  151.3452 LP  0  0  0  0  0  0  0  0  0  0  0  0  # atno 17370 bound_to 10713
  157.7240  130.9597  150.1555 LP  0  0  0  0  0  0  0  0  0  0  0  0  # atno 17371 bound_to 10713
  140.5233  134.6283  157.5325 LP  0  0  0  0  0  0  0  0  0  0  0  0  # atno 17394 bound_to 11000
  139.9746  134.7236  155.9975 LP  0  0  0  0  0  0  0  0  0  0  0  0  # atno 17395 bound_to 11000

$$$$
