AV-unprocessed.smi:2768|AV-procd|sdf|10650|dock1
  -GOLD-   2272015103D 1   1.00000     0.00000
 Structure written by MMmdl.
 35 36  0  0  0  0  0  0  0  0  1 V2000
  152.5915  139.6289  155.5101 O   0  0  0  0  0  0  0  0  0  0  0  0
  151.4029  139.7147  155.8211 C   0  0  0  0  0  0  0  0  0  0  0  0
  150.9448  140.5979  156.7241 N   0  0  0  0  0  0  0  0  0  0  0  0
  151.7483  141.5989  157.4207 C   0  0  2  0  0  0  0  0  0  0  0  0
  151.7137  141.3415  158.9398 C   0  0  0  0  0  0  0  0  0  0  0  0
  152.5508  142.3810  159.7017 C   0  0  0  0  0  0  0  0  0  0  0  0
  152.0901  143.8113  159.3805 C   0  0  0  0  0  0  0  0  0  0  0  0
  152.1118  144.0826  157.8654 C   0  0  0  0  0  0  0  0  0  0  0  0
  151.2976  143.0405  157.0740 C   0  0  2  0  0  0  0  0  0  0  0  0
  149.9200  143.2206  157.3496 O   0  0  0  0  0  0  0  0  0  0  0  0
  150.3581  138.7951  155.1694 C   0  0  0  0  0  0  0  0  0  0  0  0
  150.9720  137.9363  154.3520 F   0  0  0  0  0  0  0  0  0  0  0  0
  149.7665  138.0902  156.1359 F   0  0  0  0  0  0  0  0  0  0  0  0
  149.3322  139.6065  154.3786 C   0  0  0  0  0  0  0  0  0  0  0  0
  148.2662  138.9742  153.6977 C   0  0  0  0  0  0  0  0  0  0  0  0
  147.3400  139.7742  153.0014 C   0  0  0  0  0  0  0  0  0  0  0  0
  147.5080  141.1716  153.0104 C   0  0  0  0  0  0  0  0  0  0  0  0
  148.6009  141.7095  153.7171 C   0  0  0  0  0  0  0  0  0  0  0  0
  149.4943  140.9516  154.3879 N   0  0  0  0  0  0  0  0  0  0  0  0
  152.7839  141.4805  157.0953 H   0  0  0  0  0  0  0  0  0  0  0  0
  151.4387  143.2249  156.0083 H   0  0  0  0  0  0  0  0  0  0  0  0
  149.9549  140.5956  156.9239 H   0  0  0  0  0  0  0  0  0  0  0  0
  150.6845  141.3693  159.3005 H   0  0  0  0  0  0  0  0  0  0  0  0
  152.0890  140.3410  159.1578 H   0  0  0  0  0  0  0  0  0  0  0  0
  152.4800  142.2006  160.7746 H   0  0  0  0  0  0  0  0  0  0  0  0
  153.6030  142.2676  159.4378 H   0  0  0  0  0  0  0  0  0  0  0  0
  151.0822  143.9654  159.7678 H   0  0  0  0  0  0  0  0  0  0  0  0
  152.7286  144.5304  159.8942 H   0  0  0  0  0  0  0  0  0  0  0  0
  151.7416  145.0875  157.6594 H   0  0  0  0  0  0  0  0  0  0  0  0
  153.1454  144.0636  157.5178 H   0  0  0  0  0  0  0  0  0  0  0  0
  149.5936  143.9139  156.7966 H   0  0  0  0  0  0  0  0  0  0  0  0
  148.1516  137.9006  153.7082 H   0  0  0  0  0  0  0  0  0  0  0  0
  146.5140  139.3236  152.4711 H   0  0  0  0  0  0  0  0  0  0  0  0
  146.8161  141.8159  152.4882 H   0  0  0  0  0  0  0  0  0  0  0  0
  148.7606  142.7772  153.7457 H   0  0  0  0  0  0  0  0  0  0  0  0
  1  2  2  0  0  0  0
  2  3  1  0  0  0  0
  2 11  1  0  0  0  0
  3  4  1  0  0  0  0
  3 22  1  0  0  0  0
  4 20  1  0  0  0  0
  4  9  1  0  0  0  0
  4  5  1  0  0  0  0
  5  6  1  0  0  0  0
  5 23  1  0  0  0  0
  5 24  1  0  0  0  0
  6  7  1  0  0  0  0
  6 25  1  0  0  0  0
  6 26  1  0  0  0  0
  7  8  1  0  0  0  0
  7 27  1  0  0  0  0
  7 28  1  0  0  0  0
  8  9  1  0  0  0  0
  8 29  1  0  0  0  0
  8 30  1  0  0  0  0
  9 21  1  0  0  0  0
  9 10  1  0  0  0  0
 10 31  1  0  0  0  0
 11 12  1  0  0  0  0
 11 13  1  0  0  0  0
 11 14  1  0  0  0  0
 14 19  1  0  0  0  0
 14 15  2  0  0  0  0
 15 16  1  0  0  0  0
 15 32  1  0  0  0  0
 16 17  2  0  0  0  0
 16 33  1  0  0  0  0
 17 18  1  0  0  0  0
 17 34  1  0  0  0  0
 18 19  2  0  0  0  0
 18 35  1  0  0  0  0
M  END
> <s_m_source_file>
AV-unprocessed.smi

> <i_m_source_file_index>
2768

> <i_lp_mmshare_version>
43012

> <i_f3d_flags>
0

> <s_epik_input>
bjFbY0hdW2NIXVtjSF1bY0hdYzFDKEYpKEYpQyg9TylbTkhdW0NAQEhdMltDSDJdW0NIMl1bQ0gyXVtDSDJdW0NASF0yW09IXQ==

> <s_epik_cmdline>
J2VwaWtfcHl0aG9uJywgJy1waCcsICc3LjAnLCAnLXRuJywgJzgnLCAnLW1hJywgJzIwMCcsICctbWV0YWxfYmluZGluZycsICctaW1hZScsICc8aW5maWxlLm1hZT4nLCAnLW9tYWUnLCAnPG91dGZpbGUubWFlPic=

> <r_lp_tautomer_probability>
1

> <r_epik_Ionization_Penalty>
4.19456e-05

> <r_epik_Ionization_Penalty_Charging>
0

> <r_epik_Ionization_Penalty_Neutral>
4.19456e-05

> <r_epik_State_Penalty>
-0

> <r_epik_Charging_Adjusted_Penalty>
0

> <i_epik_Tot_Q>
0

> <i_epik_Tot_abs_Q>
0

> <r_epik_Metal_State_Penalty>
0.0354684

> <b_epik_Metal_Only>
0

> <s_lp_Force_Field>
OPLS_2005

> <r_lp_Energy>
19.5253

> <b_lp_Chiralities_Consistent>
1

> <s_lp_Variant>
AV-unprocessed.smi:2768-3

> <Gold.Version>
5.8.1

> <Gold.Id.Protein>
6NUR|6NUR_protein|mol2

> <Gold.PLP.Fitness>
51.1936

> <Gold.PLP.PLP>
-41.9227

> <Gold.PLP.part.hbond>
-3.1204

> <Gold.PLP.part.metal>
0.0000

> <Gold.PLP.part.buried>
-4.1386

> <Gold.PLP.part.nonpolar>
-34.2436

> <Gold.PLP.part.repulsive>
0.2214

> <Gold.PLP.ligand.clash>
0.0000

> <Gold.PLP.ligand.torsion>
0.0236

> <Gold.PLP.Chemscore.Hbond>
2.0983

> <Gold.PLP.Chemscore.CHOScore>
1.0000

> <Gold.PLP.Chemscore.Metal>
0.0000

> <Gold.Chemscore.Hbonds>
donor molecule, donor type, donor heavy atom, donor atom, acceptor molecule, acceptor atom, score
      L1  H    10    31       P1  8028  1.00
      P1  H  7989  7998       L1    19  0.14
      P1  H  7997  8010       L1     1  1.00
      L1  C    18    35       P1  8028  0.59

> <Gold.PLP.Chemscore.Internal.Correction>
0.0233

> <Gold.Rescore>
     Score         DG    S(hbond)    S(metal)    S(lipo)     H(rot)  DE(clash)    DE(int)     intcor
     15.11     -19.44       1.91        0.00     108.58       2.00       2.75       1.57       ----

> <Gold.Chemscore.Fitness>
15.1133

> <Gold.Chemscore.DG>
-19.4391

> <Gold.Chemscore.ZeroCoef>
-5.4800

> <Gold.Chemscore.Hbond>
1.9063

> <Gold.Chemscore.Metal>
0.0000

> <Gold.Chemscore.Lipo>
108.5841

> <Gold.Chemscore.Internal_Hbond>
0.0000

> <Gold.Chemscore.DEClash>
2.7532

> <Gold.Chemscore.DEInternal>
1.5727

> <Gold.Chemscore.Rot>
1.9969

> <Gold.Chemscore.Internal.Correction>
   9.000000E+99

> <Gold.Chemscore.Hbonds>
donor molecule, donor type, donor heavy atom, donor atom, acceptor molecule, acceptor atom, score
      L1  H    10    31       P1  8028  0.88
      P1  H  7989  7998       L1    19  0.02
      P1  H  7997  8010       L1     1  0.98

> <Gold.Chemscore.Hbond.Weighted>
-6.3670

> <Gold.Chemscore.Metal.Weighted>
-0.0000

> <Gold.Chemscore.Lipo.Weighted>
-12.7043

> <Gold.Chemscore.Internal_Hbond.Weighted>
0.0000

> <Gold.Chemscore.DEClash.Weighted>
2.7532

> <Gold.Chemscore.DEInternal.Weighted>
1.5727

> <Gold.Chemscore.Rot.Weighted>
5.1122

> <Gold.Chemscore.Internal.Correction.Weighted>
   9.000000E+99

> <Gold.Protein.RotatedTorsions>
[ 6907 6896 6895 6894 ] final  -67.98 input  -60.11 | X-H torsion
[ 7974 7965 7964 7962 ] final  -24.68 input  175.53 | X-H torsion
[ 8008 7997 7996 7995 ] final  103.91 input   59.86 | X-H torsion
[ 10167 10162 10161 10158 ] final -150.43 input  -65.29 | X-H torsion
[ 10718 10713 10712 10709 ] final  164.67 input   66.30 | X-H torsion
[ 10763 10752 10751 10750 ] final  -86.64 input  -60.55 | X-H torsion
[ 11005 11000 10999 10996 ] final   -9.85 input  -57.11 | X-H torsion

> <Gold.Protein.ActiveResidues>
 VAL166  LYS551  ARG553  GLY616  TRP617  ASP618  TYR619  PRO620  LYS621  CYS622 
 ASP623  PHE694  ASN695  SER759  ASP760  ASP761  ALA762  ILE779  LEU786  VAL792 
 PHE793  MET794  SER795  GLU796  ALA797  LYS798  CYS799  TRP800  GLU811  SER814 

> <Gold.Protein.RotatedAtoms>
  150.7380  134.5805  159.5935 H   0  0  0  0  0  0  0  0  0  0  0  0  # atno 6907 bound_to 6896
  152.3220  134.7366  160.0320 H   0  0  0  0  0  0  0  0  0  0  0  0  # atno 6908 bound_to 6896
  151.7878  133.3320  159.3527 H   0  0  0  0  0  0  0  0  0  0  0  0  # atno 6909 bound_to 6896
  146.1539  140.4784  142.8599 H   0  0  0  0  0  0  0  0  0  0  0  0  # atno 7974 bound_to 7965
  156.1526  140.3157  155.8673 H   0  0  0  0  0  0  0  0  0  0  0  0  # atno 8008 bound_to 7997
  155.3942  140.0495  157.3056 H   0  0  0  0  0  0  0  0  0  0  0  0  # atno 8009 bound_to 7997
  154.5072  140.2151  155.9239 H   0  0  0  0  0  0  0  0  0  0  0  0  # atno 8010 bound_to 7997
  139.7355  143.8742  152.2547 H   0  0  0  0  0  0  0  0  0  0  0  0  # atno 10167 bound_to 10162
  157.0911  131.0418  151.2537 H   0  0  0  0  0  0  0  0  0  0  0  0  # atno 10718 bound_to 10713
  154.6247  135.5442  153.7614 H   0  0  0  0  0  0  0  0  0  0  0  0  # atno 10763 bound_to 10752
  153.0255  135.6421  154.1389 H   0  0  0  0  0  0  0  0  0  0  0  0  # atno 10764 bound_to 10752
  154.1322  135.2913  155.3162 H   0  0  0  0  0  0  0  0  0  0  0  0  # atno 10765 bound_to 10752
  140.7386  133.8689  155.8949 H   0  0  0  0  0  0  0  0  0  0  0  0  # atno 11005 bound_to 11000
  144.7939  140.6085  143.6523 LP  0  0  0  0  0  0  0  0  0  0  0  0  # atno 17320 bound_to 7965
  145.4755  139.1499  143.3790 LP  0  0  0  0  0  0  0  0  0  0  0  0  # atno 17321 bound_to 7965
  139.8678  144.7084  150.9023 LP  0  0  0  0  0  0  0  0  0  0  0  0  # atno 17342 bound_to 10162
  140.7778  143.3764  151.1556 LP  0  0  0  0  0  0  0  0  0  0  0  0  # atno 17343 bound_to 10162
  157.4720  130.7714  149.7333 LP  0  0  0  0  0  0  0  0  0  0  0  0  # atno 17370 bound_to 10713
  155.9898  130.3949  150.3058 LP  0  0  0  0  0  0  0  0  0  0  0  0  # atno 17371 bound_to 10713
  140.9857  134.1346  157.4454 LP  0  0  0  0  0  0  0  0  0  0  0  0  # atno 17394 bound_to 11000
  139.8811  135.0025  156.6129 LP  0  0  0  0  0  0  0  0  0  0  0  0  # atno 17395 bound_to 11000

$$$$
