AV-unprocessed.smi:2605|AV-procd|sdf|10195|dock8
  -GOLD-   2272014203D 1   1.00000     0.00000
 Structure written by MMmdl.
 26 27  0  0  0  0  0  0  0  0  2 V2000
  152.4442  143.7820  161.9930 C   0  0  0  0  0  0  0  0  0  0  0  0
  152.1131  143.6650  160.6280 C   0  0  0  0  0  0  0  0  0  0  0  0
  152.6150  142.5639  159.9023 C   0  0  0  0  0  0  0  0  0  0  0  0
  152.2936  142.4053  158.4245 C   0  0  2  0  0  0  0  0  0  0  0  0
  151.2532  143.4317  157.9188 C   0  0  0  0  0  0  0  0  0  0  0  0
  151.0151  143.2395  156.4910 N   0  0  0  0  0  0  0  0  0  0  0  0
  150.4672  141.9032  156.2791 C   0  0  0  0  0  0  0  0  0  0  0  0
  151.4886  140.8428  156.7313 C   0  0  0  0  0  0  0  0  0  0  0  0
  151.8184  141.0312  158.1584 N   0  3  0  0  0  0  0  0  0  0  0  0
  153.4346  141.6339  160.5793 C   0  0  0  0  0  0  0  0  0  0  0  0
  153.7053  141.8436  161.9465 C   0  0  0  0  0  0  0  0  0  0  0  0
  153.2241  142.8936  162.6449 N   0  0  0  0  0  0  0  0  0  0  0  0
  152.0738  144.6125  162.5755 H   0  0  0  0  0  0  0  0  0  0  0  0
  151.4857  144.4069  160.1559 H   0  0  0  0  0  0  0  0  0  0  0  0
  153.2189  142.5486  157.8628 H   0  0  0  0  0  0  0  0  0  0  0  0
  150.3095  143.3453  158.4585 H   0  0  0  0  0  0  0  0  0  0  0  0
  151.6210  144.4459  158.0773 H   0  0  0  0  0  0  0  0  0  0  0  0
  150.3555  143.9314  156.1622 H   0  0  0  0  0  0  0  0  0  0  0  0
  149.5265  141.7946  156.8208 H   0  0  0  0  0  0  0  0  0  0  0  0
  150.2425  141.7777  155.2196 H   0  0  0  0  0  0  0  0  0  0  0  0
  151.0841  139.8406  156.5889 H   0  0  0  0  0  0  0  0  0  0  0  0
  152.3996  140.9079  156.1345 H   0  0  0  0  0  0  0  0  0  0  0  0
  152.5324  140.3710  158.4307 H   0  0  0  0  0  0  0  0  0  0  0  0
  153.8532  140.7784  160.0704 H   0  0  0  0  0  0  0  0  0  0  0  0
  154.3283  141.1505  162.4923 H   0  0  0  0  0  0  0  0  0  0  0  0
  150.9880  140.8671  158.7093 H   0  0  0  0  0  0  0  0  0  0  0  0
  1 12  1  0  0  0  0
  1  2  2  0  0  0  0
  1 13  1  0  0  0  0
  2  3  1  0  0  0  0
  2 14  1  0  0  0  0
  3  4  1  0  0  0  0
  3 10  2  0  0  0  0
  4  9  1  0  0  0  0
  4  5  1  0  0  0  0
  4 15  1  0  0  0  0
  5  6  1  0  0  0  0
  5 16  1  0  0  0  0
  5 17  1  0  0  0  0
  6  7  1  0  0  0  0
  6 18  1  0  0  0  0
  7  8  1  0  0  0  0
  7 19  1  0  0  0  0
  7 20  1  0  0  0  0
  8  9  1  0  0  0  0
  8 21  1  0  0  0  0
  8 22  1  0  0  0  0
  9 23  1  0  0  0  0
  9 26  1  0  0  0  0
 10 11  1  0  0  0  0
 10 24  1  0  0  0  0
 11 12  2  0  0  0  0
 11 25  1  0  0  0  0
M  CHG  1   9   1
M  END
> <s_m_source_file>
AV-unprocessed.smi

> <i_m_source_file_index>
2605

> <i_lp_mmshare_version>
43012

> <i_f3d_flags>
0

> <s_epik_input>
W2NIXTFbY0hdbltjSF1bY0hdYzFbQ0BASF0yW0NIMl1bTkhdW0NIMl1bQ0gyXVtOSF0y

> <s_epik_cmdline>
J2VwaWtfcHl0aG9uJywgJy1waCcsICc3LjAnLCAnLXRuJywgJzgnLCAnLW1hJywgJzIwMCcsICctbWV0YWxfYmluZGluZycsICctaW1hZScsICc8aW5maWxlLm1hZT4nLCAnLW9tYWUnLCAnPG91dGZpbGUubWFlPic=

> <r_epik_Ionization_Penalty>
0.0246915

> <r_epik_Ionization_Penalty_Charging>
0.015072

> <r_epik_Ionization_Penalty_Neutral>
0.00961942

> <r_epik_State_Penalty>
0.518662

> <r_epik_Charging_Adjusted_Penalty>
0.533734

> <i_epik_Tot_Q>
1

> <i_epik_Tot_abs_Q>
1

> <r_epik_Metal_State_Penalty>
0.520249

> <b_epik_Metal_Only>
0

> <s_lp_Force_Field>
OPLS_2005

> <r_lp_Energy>
7.08803

> <b_lp_Chiralities_Consistent>
1

> <s_lp_Variant>
AV-unprocessed.smi:2605-3

> <Gold.Version>
5.8.1

> <Gold.Id.Protein>
6NUR|6NUR_protein|mol2

> <Gold.PLP.Fitness>
33.3758

> <Gold.PLP.PLP>
-30.6649

> <Gold.PLP.part.hbond>
-1.0000

> <Gold.PLP.part.metal>
0.0000

> <Gold.PLP.part.buried>
-3.3378

> <Gold.PLP.part.nonpolar>
-25.5274

> <Gold.PLP.part.repulsive>
0.1879

> <Gold.PLP.ligand.clash>
0.0000

> <Gold.PLP.ligand.torsion>
0.1505

> <Gold.PLP.Chemscore.Hbond>
1.0000

> <Gold.PLP.Chemscore.CHOScore>
0.0000

> <Gold.PLP.Chemscore.Metal>
0.0000

> <Gold.Chemscore.Hbonds>
donor molecule, donor type, donor heavy atom, donor atom, acceptor molecule, acceptor atom, score
      L1  H     6    18       P1  8028  1.00

> <Gold.PLP.Chemscore.Internal.Correction>
0.0118

> <Gold.Rescore>
     Score         DG    S(hbond)    S(metal)    S(lipo)     H(rot)  DE(clash)    DE(int)     intcor
     16.79     -16.90       1.00        0.00      90.97       1.00       0.00       0.10       ----

> <Gold.Chemscore.Fitness>
16.7927

> <Gold.Chemscore.DG>
-16.8984

> <Gold.Chemscore.ZeroCoef>
-5.4800

> <Gold.Chemscore.Hbond>
0.9986

> <Gold.Chemscore.Metal>
0.0000

> <Gold.Chemscore.Lipo>
90.9677

> <Gold.Chemscore.Internal_Hbond>
0.0000

> <Gold.Chemscore.DEClash>
0.0009

> <Gold.Chemscore.DEInternal>
0.1047

> <Gold.Chemscore.Rot>
1.0000

> <Gold.Chemscore.Internal.Correction>
   9.000000E+99

> <Gold.Chemscore.Hbonds>
donor molecule, donor type, donor heavy atom, donor atom, acceptor molecule, acceptor atom, score
      L1  H     6    18       P1  8028  1.00

> <Gold.Chemscore.Hbond.Weighted>
-3.3352

> <Gold.Chemscore.Metal.Weighted>
-0.0000

> <Gold.Chemscore.Lipo.Weighted>
-10.6432

> <Gold.Chemscore.Internal_Hbond.Weighted>
0.0000

> <Gold.Chemscore.DEClash.Weighted>
0.0009

> <Gold.Chemscore.DEInternal.Weighted>
0.1047

> <Gold.Chemscore.Rot.Weighted>
2.5600

> <Gold.Chemscore.Internal.Correction.Weighted>
   9.000000E+99

> <Gold.Protein.RotatedTorsions>
[ 6907 6896 6895 6894 ] final   60.01 input  -60.11 | X-H torsion
[ 7974 7965 7964 7962 ] final  148.84 input  175.53 | X-H torsion
[ 8008 7997 7996 7995 ] final  -56.79 input   59.86 | X-H torsion
[ 10167 10162 10161 10158 ] final -115.30 input  -65.29 | X-H torsion
[ 10718 10713 10712 10709 ] final  146.07 input   66.30 | X-H torsion
[ 10763 10752 10751 10750 ] final  -58.43 input  -60.55 | X-H torsion
[ 11005 11000 10999 10996 ] final  -52.61 input  -57.11 | X-H torsion

> <Gold.Protein.ActiveResidues>
 VAL166  LYS551  ARG553  GLY616  TRP617  ASP618  TYR619  PRO620  LYS621  CYS622 
 ASP623  PHE694  ASN695  SER759  ASP760  ASP761  ALA762  ILE779  LEU786  VAL792 
 PHE793  MET794  SER795  GLU796  ALA797  LYS798  CYS799  TRP800  GLU811  SER814 

> <Gold.Protein.RotatedAtoms>
  152.3966  134.6356  160.0086 H   0  0  0  0  0  0  0  0  0  0  0  0  # atno 6907 bound_to 6896
  151.6574  133.3313  159.3174 H   0  0  0  0  0  0  0  0  0  0  0  0  # atno 6908 bound_to 6896
  150.7872  134.6910  159.6541 H   0  0  0  0  0  0  0  0  0  0  0  0  # atno 6909 bound_to 6896
  144.8483  139.6205  143.5985 H   0  0  0  0  0  0  0  0  0  0  0  0  # atno 7974 bound_to 7965
  154.4243  140.1121  156.5694 H   0  0  0  0  0  0  0  0  0  0  0  0  # atno 8008 bound_to 7997
  155.6228  140.3495  155.4638 H   0  0  0  0  0  0  0  0  0  0  0  0  # atno 8009 bound_to 7997
  156.0011  140.1199  157.0536 H   0  0  0  0  0  0  0  0  0  0  0  0  # atno 8010 bound_to 7997
  140.0916  143.4694  152.1866 H   0  0  0  0  0  0  0  0  0  0  0  0  # atno 10167 bound_to 10162
  157.3377  131.0930  151.1109 H   0  0  0  0  0  0  0  0  0  0  0  0  # atno 10718 bound_to 10713
  154.2380  135.6348  153.5197 H   0  0  0  0  0  0  0  0  0  0  0  0  # atno 10763 bound_to 10752
  152.9935  135.5535  154.5941 H   0  0  0  0  0  0  0  0  0  0  0  0  # atno 10764 bound_to 10752
  154.5440  135.2897  155.1044 H   0  0  0  0  0  0  0  0  0  0  0  0  # atno 10765 bound_to 10752
  141.0933  133.6629  156.4050 H   0  0  0  0  0  0  0  0  0  0  0  0  # atno 11005 bound_to 11000
  146.2763  139.6761  142.9261 LP  0  0  0  0  0  0  0  0  0  0  0  0  # atno 17320 bound_to 7965
  145.4552  141.0430  143.2782 LP  0  0  0  0  0  0  0  0  0  0  0  0  # atno 17321 bound_to 7965
  139.5721  144.7468  151.3862 LP  0  0  0  0  0  0  0  0  0  0  0  0  # atno 17342 bound_to 10162
  140.7025  143.7595  150.7427 LP  0  0  0  0  0  0  0  0  0  0  0  0  # atno 17343 bound_to 10162
  157.2333  130.6535  149.5859 LP  0  0  0  0  0  0  0  0  0  0  0  0  # atno 17370 bound_to 10713
  155.9703  130.4591  150.6026 LP  0  0  0  0  0  0  0  0  0  0  0  0  # atno 17371 bound_to 10713
  140.5199  134.6314  157.5314 LP  0  0  0  0  0  0  0  0  0  0  0  0  # atno 17394 bound_to 11000
  139.9764  134.7208  155.9942 LP  0  0  0  0  0  0  0  0  0  0  0  0  # atno 17395 bound_to 11000

$$$$
