AV-unprocessed.smi:3112|AV-procd|sdf|11839|dock5
  -GOLD-   2272017213D 1   1.00000     0.00000
 Structure written by MMmdl.
 37 37  0  0  0  0  0  0  0  0  2 V2000
  144.4807  136.2169  151.5727 C   0  0  0  0  0  0  0  0  0  0  0  0
  144.9268  137.4770  152.3271 C   0  0  0  0  0  0  0  0  0  0  0  0
  146.4281  137.7826  152.1752 C   0  0  1  0  0  0  0  0  0  0  0  0
  146.6825  138.1795  150.8417 O   0  0  0  0  0  0  0  0  0  0  0  0
  146.8808  138.9161  153.1101 C   0  0  0  0  0  0  0  0  0  0  0  0
  148.3529  139.0476  153.1145 N   0  3  0  0  0  0  0  0  0  0  0  0
  148.9215  139.7816  154.2689 C   0  0  1  0  0  0  0  0  0  0  0  0
  148.3752  139.1717  155.5705 C   0  0  0  0  0  0  0  0  0  0  0  0
  150.4750  139.8046  154.2370 C   0  0  2  0  0  0  0  0  0  0  0  0
  151.1164  138.4061  154.1745 C   0  0  0  0  0  0  0  0  0  0  0  0
  151.0576  140.6156  155.3017 N   0  0  0  0  0  0  0  0  0  0  0  0
  150.8370  141.9514  155.5706 C   0  0  0  0  0  0  0  0  0  0  0  0
  151.5817  142.2776  156.6674 C   0  0  0  0  0  0  0  0  0  0  0  0
  152.2331  141.0600  157.0080 C   0  0  0  0  0  0  0  0  0  0  0  0
  151.9154  140.0676  156.1927 N   0  0  0  0  0  0  0  0  0  0  0  0
  143.4210  136.0222  151.7393 H   0  0  0  0  0  0  0  0  0  0  0  0
  145.0349  135.3400  151.9084 H   0  0  0  0  0  0  0  0  0  0  0  0
  144.6313  136.3189  150.4977 H   0  0  0  0  0  0  0  0  0  0  0  0
  144.3354  138.3317  151.9956 H   0  0  0  0  0  0  0  0  0  0  0  0
  144.6947  137.3406  153.3840 H   0  0  0  0  0  0  0  0  0  0  0  0
  147.0027  136.8802  152.3900 H   0  0  0  0  0  0  0  0  0  0  0  0
  145.9086  138.6014  150.4996 H   0  0  0  0  0  0  0  0  0  0  0  0
  146.4137  139.8569  152.8172 H   0  0  0  0  0  0  0  0  0  0  0  0
  146.5567  138.7066  154.1304 H   0  0  0  0  0  0  0  0  0  0  0  0
  148.7438  138.1167  153.1084 H   0  0  0  0  0  0  0  0  0  0  0  0
  148.5681  140.8136  154.2338 H   0  0  0  0  0  0  0  0  0  0  0  0
  148.7739  139.6880  156.4441 H   0  0  0  0  0  0  0  0  0  0  0  0
  148.6309  138.1156  155.6625 H   0  0  0  0  0  0  0  0  0  0  0  0
  147.2884  139.2504  155.6122 H   0  0  0  0  0  0  0  0  0  0  0  0
  150.7516  140.2954  153.3025 H   0  0  0  0  0  0  0  0  0  0  0  0
  150.7241  137.8325  153.3343 H   0  0  0  0  0  0  0  0  0  0  0  0
  150.9365  137.8316  155.0835 H   0  0  0  0  0  0  0  0  0  0  0  0
  152.1966  138.4799  154.0438 H   0  0  0  0  0  0  0  0  0  0  0  0
  150.1746  142.5534  154.9659 H   0  0  0  0  0  0  0  0  0  0  0  0
  151.6506  143.2401  157.1524 H   0  0  0  0  0  0  0  0  0  0  0  0
  152.9206  140.8683  157.8187 H   0  0  0  0  0  0  0  0  0  0  0  0
  148.6417  139.5183  152.2675 H   0  0  0  0  0  0  0  0  0  0  0  0
  1  2  1  0  0  0  0
  1 16  1  0  0  0  0
  1 17  1  0  0  0  0
  1 18  1  0  0  0  0
  2  3  1  0  0  0  0
  2 19  1  0  0  0  0
  2 20  1  0  0  0  0
  3  4  1  0  0  0  0
  3  5  1  0  0  0  0
  3 21  1  0  0  0  0
  4 22  1  0  0  0  0
  5  6  1  0  0  0  0
  5 23  1  0  0  0  0
  5 24  1  0  0  0  0
  6  7  1  0  0  0  0
  6 25  1  0  0  0  0
  6 37  1  0  0  0  0
  7  8  1  0  0  0  0
  7  9  1  0  0  0  0
  7 26  1  0  0  0  0
  8 27  1  0  0  0  0
  8 28  1  0  0  0  0
  8 29  1  0  0  0  0
  9 10  1  0  0  0  0
  9 11  1  0  0  0  0
  9 30  1  0  0  0  0
 10 31  1  0  0  0  0
 10 32  1  0  0  0  0
 10 33  1  0  0  0  0
 11 15  1  0  0  0  0
 11 12  1  0  0  0  0
 12 13  2  0  0  0  0
 12 34  1  0  0  0  0
 13 14  1  0  0  0  0
 13 35  1  0  0  0  0
 14 15  2  0  0  0  0
 14 36  1  0  0  0  0
M  CHG  1   6   1
M  END
> <s_m_source_file>
AV-unprocessed.smi

> <i_m_source_file_index>
3112

> <i_lp_mmshare_version>
43012

> <i_f3d_flags>
0

> <s_epik_input>
W0NIM11bQ0gyXVtDQEhdKFtPSF0pW0NIMl1bTkhdW0NASF0oW0NIM10pW0NASF0oW0NIM10pbjFbY0hdW2NIXVtjSF1uMQ==

> <s_epik_cmdline>
J2VwaWtfcHl0aG9uJywgJy1waCcsICc3LjAnLCAnLXRuJywgJzgnLCAnLW1hJywgJzIwMCcsICctbWV0YWxfYmluZGluZycsICctaW1hZScsICc8aW5maWxlLm1hZT4nLCAnLW9tYWUnLCAnPG91dGZpbGUubWFlPic=

> <r_lp_tautomer_probability>
1

> <r_epik_Ionization_Penalty>
0.0154842

> <r_epik_Ionization_Penalty_Charging>
0.0154724

> <r_epik_Ionization_Penalty_Neutral>
1.17979e-05

> <r_epik_State_Penalty>
0.0121607

> <r_epik_Charging_Adjusted_Penalty>
0.0276331

> <i_epik_Tot_Q>
1

> <i_epik_Tot_abs_Q>
1

> <r_epik_Metal_State_Penalty>
0.0121863

> <b_epik_Metal_Only>
0

> <s_lp_Force_Field>
OPLS_2005

> <r_lp_Energy>
13.0282

> <b_lp_Chiralities_Consistent>
1

> <s_lp_Variant>
AV-unprocessed.smi:3112-4

> <Gold.Version>
5.8.1

> <Gold.Id.Protein>
6NUR|6NUR_protein|mol2

> <Gold.PLP.Fitness>
46.1659

> <Gold.PLP.PLP>
-29.3615

> <Gold.PLP.part.hbond>
-4.7189

> <Gold.PLP.part.metal>
0.0000

> <Gold.PLP.part.buried>
0.2196

> <Gold.PLP.part.nonpolar>
-24.5996

> <Gold.PLP.part.repulsive>
0.0465

> <Gold.PLP.ligand.clash>
0.0000

> <Gold.PLP.ligand.torsion>
0.2738

> <Gold.PLP.Chemscore.Hbond>
4.8560

> <Gold.PLP.Chemscore.CHOScore>
0.8729

> <Gold.PLP.Chemscore.Metal>
0.0000

> <Gold.Chemscore.Hbonds>
donor molecule, donor type, donor heavy atom, donor atom, acceptor molecule, acceptor atom, score
      L1  H     4    22       P1 10171  0.75
      L1  H     6    25       P1  7948  0.79
      L1  H     6    37       P1  7957  1.00
      P1  H  7954  7966       L1     4  1.00
      L1  C    12    34       P1  8028  0.79

> <Gold.PLP.Chemscore.Internal.Correction>
0.1652

> <Gold.Rescore>
     Score         DG    S(hbond)    S(metal)    S(lipo)     H(rot)  DE(clash)    DE(int)     intcor
     17.63     -19.91       3.79        0.00      67.84       2.41       2.02       0.25       ----

> <Gold.Chemscore.Fitness>
17.6339

> <Gold.Chemscore.DG>
-19.9067

> <Gold.Chemscore.ZeroCoef>
-5.4800

> <Gold.Chemscore.Hbond>
3.7892

> <Gold.Chemscore.Metal>
0.0000

> <Gold.Chemscore.Lipo>
67.8418

> <Gold.Chemscore.Internal_Hbond>
0.0000

> <Gold.Chemscore.DEClash>
2.0181

> <Gold.Chemscore.DEInternal>
0.2547

> <Gold.Chemscore.Rot>
2.4089

> <Gold.Chemscore.Internal.Correction>
   9.000000E+99

> <Gold.Chemscore.Hbonds>
donor molecule, donor type, donor heavy atom, donor atom, acceptor molecule, acceptor atom, score
      L1  H     4    22       P1 10171  0.73
      L1  H     6    25       P1  7948  0.39
      L1  H     6    37       P1  7957  0.95
      P1  H  7954  7966       L1     4  0.98

> <Gold.Chemscore.Hbond.Weighted>
-12.6559

> <Gold.Chemscore.Metal.Weighted>
-0.0000

> <Gold.Chemscore.Lipo.Weighted>
-7.9375

> <Gold.Chemscore.Internal_Hbond.Weighted>
0.0000

> <Gold.Chemscore.DEClash.Weighted>
2.0181

> <Gold.Chemscore.DEInternal.Weighted>
0.2547

> <Gold.Chemscore.Rot.Weighted>
6.1667

> <Gold.Chemscore.Internal.Correction.Weighted>
   9.000000E+99

> <Gold.Protein.RotatedTorsions>
[ 6907 6896 6895 6894 ] final   28.87 input  -60.11 | X-H torsion
[ 7974 7965 7964 7962 ] final  106.28 input  175.53 | X-H torsion
[ 8008 7997 7996 7995 ] final  161.14 input   59.86 | X-H torsion
[ 10167 10162 10161 10158 ] final -105.11 input  -65.29 | X-H torsion
[ 10718 10713 10712 10709 ] final   97.96 input   66.30 | X-H torsion
[ 10763 10752 10751 10750 ] final  -89.60 input  -60.55 | X-H torsion
[ 11005 11000 10999 10996 ] final -176.77 input  -57.11 | X-H torsion

> <Gold.Protein.ActiveResidues>
 VAL166  LYS551  ARG553  GLY616  TRP617  ASP618  TYR619  PRO620  LYS621  CYS622 
 ASP623  PHE694  ASN695  SER759  ASP760  ASP761  ALA762  ILE779  LEU786  VAL792 
 PHE793  MET794  SER795  GLU796  ALA797  LYS798  CYS799  TRP800  GLU811  SER814 

> <Gold.Protein.RotatedAtoms>
  152.0232  134.9810  160.0570 H   0  0  0  0  0  0  0  0  0  0  0  0  # atno 6907 bound_to 6896
  152.1316  133.4406  159.4732 H   0  0  0  0  0  0  0  0  0  0  0  0  # atno 6908 bound_to 6896
  150.6857  134.2332  159.4486 H   0  0  0  0  0  0  0  0  0  0  0  0  # atno 6909 bound_to 6896
  145.3087  139.2547  143.3775 H   0  0  0  0  0  0  0  0  0  0  0  0  # atno 7974 bound_to 7965
  156.2123  140.1785  156.7666 H   0  0  0  0  0  0  0  0  0  0  0  0  # atno 8008 bound_to 7997
  154.5741  140.0677  156.9037 H   0  0  0  0  0  0  0  0  0  0  0  0  # atno 8009 bound_to 7997
  155.2620  140.3336  155.4275 H   0  0  0  0  0  0  0  0  0  0  0  0  # atno 8010 bound_to 7997
  140.2020  143.3811  152.1121 H   0  0  0  0  0  0  0  0  0  0  0  0  # atno 10167 bound_to 10162
  157.6904  131.0625  150.4724 H   0  0  0  0  0  0  0  0  0  0  0  0  # atno 10718 bound_to 10713
  154.6570  135.5335  153.7971 H   0  0  0  0  0  0  0  0  0  0  0  0  # atno 10763 bound_to 10752
  153.0419  135.6496  154.0930 H   0  0  0  0  0  0  0  0  0  0  0  0  # atno 10764 bound_to 10752
  154.0842  135.2945  155.3264 H   0  0  0  0  0  0  0  0  0  0  0  0  # atno 10765 bound_to 10752
  140.4484  134.6366  157.4790 H   0  0  0  0  0  0  0  0  0  0  0  0  # atno 11005 bound_to 11000
  146.3126  140.3618  142.8665 LP  0  0  0  0  0  0  0  0  0  0  0  0  # atno 17320 bound_to 7965
  144.9034  140.7670  143.5853 LP  0  0  0  0  0  0  0  0  0  0  0  0  # atno 17321 bound_to 7965
  139.5213  144.7044  151.5397 LP  0  0  0  0  0  0  0  0  0  0  0  0  # atno 17342 bound_to 10162
  140.6383  143.8939  150.6668 LP  0  0  0  0  0  0  0  0  0  0  0  0  # atno 17343 bound_to 10162
  156.5061  130.4128  149.6326 LP  0  0  0  0  0  0  0  0  0  0  0  0  # atno 17370 bound_to 10713
  156.3283  130.7318  151.2243 LP  0  0  0  0  0  0  0  0  0  0  0  0  # atno 17371 bound_to 10713
  140.0023  134.6817  155.9511 LP  0  0  0  0  0  0  0  0  0  0  0  0  # atno 17394 bound_to 11000
  141.1675  133.6537  156.4531 LP  0  0  0  0  0  0  0  0  0  0  0  0  # atno 17395 bound_to 11000

$$$$
