AV-unprocessed.smi:3260|AV-procd|sdf|12477|dock4
  -GOLD-   2272018373D 1   1.00000     0.00000
 Structure written by MMmdl.
 38 39  0  0  0  0  0  0  0  0  1 V2000
  151.6900  138.2874  154.7443 C   0  0  0  0  0  0  0  0  0  0  0  0
  150.5108  139.0994  154.5327 N   0  0  0  0  0  0  0  0  0  0  0  0
  149.2581  138.7054  154.1146 C   0  0  0  0  0  0  0  0  0  0  0  0
  148.4739  139.8233  154.0594 C   0  0  0  0  0  0  0  0  0  0  0  0
  147.0298  139.9431  153.6597 C   0  0  0  0  0  0  0  0  0  0  0  0
  146.7983  139.4526  152.2211 C   0  0  0  0  0  0  0  0  0  0  0  0
  146.8791  137.9995  152.1312 N   0  0  0  0  0  0  0  0  0  0  0  0
  145.8467  137.1635  152.3085 C   0  0  0  0  0  0  0  0  0  0  0  0
  144.7013  137.5299  152.5726 O   0  0  0  0  0  0  0  0  0  0  0  0
  146.2128  135.8826  152.1621 N   0  0  0  0  0  0  0  0  0  0  0  0
  145.3121  134.7397  152.2584 C   0  0  0  0  0  0  0  0  0  0  0  0
  145.1035  134.0754  150.8878 C   0  0  1  0  0  0  0  0  0  0  0  0
  146.2017  133.0846  150.5097 C   0  0  0  0  0  0  0  0  0  0  0  0
  145.5182  132.1665  149.5089 C   0  0  0  0  0  0  0  0  0  0  0  0
  144.0235  132.4148  149.7349 C   0  0  0  0  0  0  0  0  0  0  0  0
  143.9497  133.2496  150.8825 O   0  0  0  0  0  0  0  0  0  0  0  0
  149.3537  140.8644  154.4720 C   0  0  0  0  0  0  0  0  0  0  0  0
  150.5704  140.4283  154.7553 N   0  0  0  0  0  0  0  0  0  0  0  0
  151.5094  137.2689  154.3995 H   0  0  0  0  0  0  0  0  0  0  0  0
  151.9355  138.2649  155.8063 H   0  0  0  0  0  0  0  0  0  0  0  0
  152.5315  138.7042  154.1898 H   0  0  0  0  0  0  0  0  0  0  0  0
  149.0300  137.6738  153.8900 H   0  0  0  0  0  0  0  0  0  0  0  0
  146.3984  139.3715  154.3407 H   0  0  0  0  0  0  0  0  0  0  0  0
  146.6982  140.9785  153.7484 H   0  0  0  0  0  0  0  0  0  0  0  0
  145.8315  139.7976  151.8500 H   0  0  0  0  0  0  0  0  0  0  0  0
  147.5533  139.8742  151.5568 H   0  0  0  0  0  0  0  0  0  0  0  0
  147.7823  137.6041  151.9152 H   0  0  0  0  0  0  0  0  0  0  0  0
  147.1790  135.6841  151.9478 H   0  0  0  0  0  0  0  0  0  0  0  0
  145.7622  134.0229  152.9456 H   0  0  0  0  0  0  0  0  0  0  0  0
  144.3563  135.0295  152.6988 H   0  0  0  0  0  0  0  0  0  0  0  0
  145.0049  134.8326  150.1072 H   0  0  0  0  0  0  0  0  0  0  0  0
  147.0883  133.5724  150.1037 H   0  0  0  0  0  0  0  0  0  0  0  0
  146.5052  132.5075  151.3844 H   0  0  0  0  0  0  0  0  0  0  0  0
  145.7960  132.4197  148.4852 H   0  0  0  0  0  0  0  0  0  0  0  0
  145.7891  131.1247  149.6823 H   0  0  0  0  0  0  0  0  0  0  0  0
  143.5886  132.9372  148.8816 H   0  0  0  0  0  0  0  0  0  0  0  0
  143.4640  131.4919  149.8897 H   0  0  0  0  0  0  0  0  0  0  0  0
  149.1443  141.9193  154.5723 H   0  0  0  0  0  0  0  0  0  0  0  0
  1  2  1  0  0  0  0
  1 19  1  0  0  0  0
  1 20  1  0  0  0  0
  1 21  1  0  0  0  0
  2 18  1  0  0  0  0
  2  3  1  0  0  0  0
  3  4  2  0  0  0  0
  3 22  1  0  0  0  0
  4  5  1  0  0  0  0
  4 17  1  0  0  0  0
  5  6  1  0  0  0  0
  5 23  1  0  0  0  0
  5 24  1  0  0  0  0
  6  7  1  0  0  0  0
  6 25  1  0  0  0  0
  6 26  1  0  0  0  0
  7  8  1  0  0  0  0
  7 27  1  0  0  0  0
  8  9  2  0  0  0  0
  8 10  1  0  0  0  0
 10 11  1  0  0  0  0
 10 28  1  0  0  0  0
 11 12  1  0  0  0  0
 11 29  1  0  0  0  0
 11 30  1  0  0  0  0
 12 16  1  0  0  0  0
 12 13  1  0  0  0  0
 12 31  1  0  0  0  0
 13 14  1  0  0  0  0
 13 32  1  0  0  0  0
 13 33  1  0  0  0  0
 14 15  1  0  0  0  0
 14 34  1  0  0  0  0
 14 35  1  0  0  0  0
 15 16  1  0  0  0  0
 15 36  1  0  0  0  0
 15 37  1  0  0  0  0
 17 18  2  0  0  0  0
 17 38  1  0  0  0  0
M  END
> <s_m_source_file>
AV-unprocessed.smi

> <i_m_source_file_index>
3260

> <i_lp_mmshare_version>
43012

> <i_f3d_flags>
0

> <s_epik_input>
W0NIM11uMVtjSF1jKFtjSF1uMSlbQ0gyXVtDSDJdW05IXUMoPU8pW05IXVtDSDJdW0NAQEhdMltDSDJdW0NIMl1bQ0gyXU8y

> <s_epik_cmdline>
J2VwaWtfcHl0aG9uJywgJy1waCcsICc3LjAnLCAnLXRuJywgJzgnLCAnLW1hJywgJzIwMCcsICctbWV0YWxfYmluZGluZycsICctaW1hZScsICc8aW5maWxlLm1hZT4nLCAnLW9tYWUnLCAnPG91dGZpbGUubWFlPic=

> <r_lp_tautomer_probability>
1

> <r_epik_Ionization_Penalty>
0.000550106

> <r_epik_Ionization_Penalty_Charging>
0

> <r_epik_Ionization_Penalty_Neutral>
0.000550106

> <r_epik_State_Penalty>
-0

> <r_epik_Charging_Adjusted_Penalty>
0

> <i_epik_Tot_Q>
0

> <i_epik_Tot_abs_Q>
0

> <r_epik_Metal_State_Penalty>
-0

> <b_epik_Metal_Only>
0

> <s_lp_Force_Field>
OPLS_2005

> <r_lp_Energy>
10.8429

> <b_lp_Chiralities_Consistent>
1

> <s_lp_Variant>
AV-unprocessed.smi:3260-2

> <Gold.Version>
5.8.1

> <Gold.Id.Protein>
6NUR|6NUR_protein|mol2

> <Gold.PLP.Fitness>
48.7478

> <Gold.PLP.PLP>
-37.6574

> <Gold.PLP.part.hbond>
-3.0000

> <Gold.PLP.part.metal>
0.0000

> <Gold.PLP.part.buried>
-2.5909

> <Gold.PLP.part.nonpolar>
-32.5389

> <Gold.PLP.part.repulsive>
0.7764

> <Gold.PLP.ligand.clash>
0.0000

> <Gold.PLP.ligand.torsion>
0.4737

> <Gold.PLP.Chemscore.Hbond>
3.0000

> <Gold.PLP.Chemscore.CHOScore>
1.0000

> <Gold.PLP.Chemscore.Metal>
0.0000

> <Gold.Chemscore.Hbonds>
donor molecule, donor type, donor heavy atom, donor atom, acceptor molecule, acceptor atom, score
      L1  H     7    27       P1  7948  1.00
      L1  H    10    28       P1  7948  1.00
      P1  H  7989  7998       L1    18  1.00
      L1  C     3    22       P1  7948  1.00

> <Gold.PLP.Chemscore.Internal.Correction>
0.0377

> <Gold.Rescore>
     Score         DG    S(hbond)    S(metal)    S(lipo)     H(rot)  DE(clash)    DE(int)     intcor
     18.63     -19.26       2.49        0.00      87.17       1.85       0.20       0.43       ----

> <Gold.Chemscore.Fitness>
18.6308

> <Gold.Chemscore.DG>
-19.2594

> <Gold.Chemscore.ZeroCoef>
-5.4800

> <Gold.Chemscore.Hbond>
2.4921

> <Gold.Chemscore.Metal>
0.0000

> <Gold.Chemscore.Lipo>
87.1703

> <Gold.Chemscore.Internal_Hbond>
0.0000

> <Gold.Chemscore.DEClash>
0.2004

> <Gold.Chemscore.DEInternal>
0.4281

> <Gold.Chemscore.Rot>
1.8528

> <Gold.Chemscore.Internal.Correction>
   9.000000E+99

> <Gold.Chemscore.Hbonds>
donor molecule, donor type, donor heavy atom, donor atom, acceptor molecule, acceptor atom, score
      L1  H     7    27       P1  7948  0.97
      L1  H    10    28       P1  7948  0.95
      P1  H  7989  7998       L1    18  0.17

> <Gold.Chemscore.Hbond.Weighted>
-8.3237

> <Gold.Chemscore.Metal.Weighted>
-0.0000

> <Gold.Chemscore.Lipo.Weighted>
-10.1989

> <Gold.Chemscore.Internal_Hbond.Weighted>
0.0000

> <Gold.Chemscore.DEClash.Weighted>
0.2004

> <Gold.Chemscore.DEInternal.Weighted>
0.4281

> <Gold.Chemscore.Rot.Weighted>
4.7433

> <Gold.Chemscore.Internal.Correction.Weighted>
   9.000000E+99

> <Gold.Protein.RotatedTorsions>
[ 6907 6896 6895 6894 ] final  174.83 input  -60.11 | X-H torsion
[ 7974 7965 7964 7962 ] final  -69.70 input  175.53 | X-H torsion
[ 8008 7997 7996 7995 ] final   -9.97 input   59.86 | X-H torsion
[ 10167 10162 10161 10158 ] final  -45.80 input  -65.29 | X-H torsion
[ 10718 10713 10712 10709 ] final  -57.12 input   66.30 | X-H torsion
[ 10763 10752 10751 10750 ] final -169.18 input  -60.55 | X-H torsion
[ 11005 11000 10999 10996 ] final  168.89 input  -57.11 | X-H torsion

> <Gold.Protein.ActiveResidues>
 VAL166  LYS551  ARG553  GLY616  TRP617  ASP618  TYR619  PRO620  LYS621  CYS622 
 ASP623  PHE694  ASN695  SER759  ASP760  ASP761  ALA762  ILE779  LEU786  VAL792 
 PHE793  MET794  SER795  GLU796  ALA797  LYS798  CYS799  TRP800  GLU811  SER814 

> <Gold.Protein.RotatedAtoms>
  151.7460  133.3324  159.3378 H   0  0  0  0  0  0  0  0  0  0  0  0  # atno 6907 bound_to 6896
  150.7554  134.6235  159.6158 H   0  0  0  0  0  0  0  0  0  0  0  0  # atno 6908 bound_to 6896
  152.3499  134.7021  160.0291 H   0  0  0  0  0  0  0  0  0  0  0  0  # atno 6909 bound_to 6896
  145.7004  140.9119  143.0734 H   0  0  0  0  0  0  0  0  0  0  0  0  # atno 7974 bound_to 7965
  154.5597  140.2341  155.8355 H   0  0  0  0  0  0  0  0  0  0  0  0  # atno 8008 bound_to 7997
  156.2019  140.3050  155.9503 H   0  0  0  0  0  0  0  0  0  0  0  0  # atno 8009 bound_to 7997
  155.2912  140.0427  157.3013 H   0  0  0  0  0  0  0  0  0  0  0  0  # atno 8010 bound_to 7997
  140.6843  143.2861  151.3691 H   0  0  0  0  0  0  0  0  0  0  0  0  # atno 10167 bound_to 10162
  156.1235  130.4164  150.0397 H   0  0  0  0  0  0  0  0  0  0  0  0  # atno 10718 bound_to 10713
  154.6550  135.2917  154.9939 H   0  0  0  0  0  0  0  0  0  0  0  0  # atno 10763 bound_to 10752
  154.1018  135.6575  153.4873 H   0  0  0  0  0  0  0  0  0  0  0  0  # atno 10764 bound_to 10752
  153.0397  135.5244  154.7475 H   0  0  0  0  0  0  0  0  0  0  0  0  # atno 10765 bound_to 10752
  140.2920  134.7665  157.3846 H   0  0  0  0  0  0  0  0  0  0  0  0  # atno 11005 bound_to 11000
  144.6970  139.8940  143.7455 LP  0  0  0  0  0  0  0  0  0  0  0  0  # atno 17320 bound_to 7965
  146.0803  139.3790  143.0469 LP  0  0  0  0  0  0  0  0  0  0  0  0  # atno 17321 bound_to 7965
  139.6189  144.0946  152.2372 LP  0  0  0  0  0  0  0  0  0  0  0  0  # atno 17342 bound_to 10162
  140.0384  144.6026  150.7431 LP  0  0  0  0  0  0  0  0  0  0  0  0  # atno 17343 bound_to 10162
  156.8329  130.9398  151.3636 LP  0  0  0  0  0  0  0  0  0  0  0  0  # atno 17370 bound_to 10713
  157.6418  130.8812  149.9463 LP  0  0  0  0  0  0  0  0  0  0  0  0  # atno 17371 bound_to 10713
  140.1187  134.5249  155.8202 LP  0  0  0  0  0  0  0  0  0  0  0  0  # atno 17394 bound_to 11000
  141.2144  133.6749  156.6825 LP  0  0  0  0  0  0  0  0  0  0  0  0  # atno 17395 bound_to 11000

$$$$
