AV-unprocessed.smi:3287|AV-procd|sdf|12594|dock6
  -GOLD-   2272018513D 1   1.00000     0.00000
 Structure written by MMmdl.
 43 44  0  0  0  0  0  0  0  0  2 V2000
  153.0852  142.8591  161.4045 C   0  0  0  0  0  0  0  0  0  0  0  0
  152.1383  142.6583  160.2079 C   0  0  2  0  0  0  0  0  0  0  0  0
  152.7267  141.6038  159.2489 C   0  0  0  0  0  0  0  0  0  0  0  0
  151.8173  141.3563  158.0384 C   0  0  0  0  0  0  0  0  0  0  0  0
  151.5529  142.6601  157.2704 C   0  0  1  0  0  0  0  0  0  0  0  0
  150.6761  142.3878  156.1100 N   0  3  0  0  0  0  0  0  0  0  0  0
  149.5793  141.4266  156.3575 C   0  0  0  0  0  0  0  0  0  0  0  0
  149.2600  140.5992  155.1003 C   0  0  1  0  0  0  0  0  0  0  0  0
  149.3412  141.4408  153.9664 O   0  0  0  0  0  0  0  0  0  0  0  0
  150.1908  139.4020  154.9836 C   0  0  0  0  0  0  0  0  0  0  0  0
  149.6843  138.0889  154.8688 C   0  0  0  0  0  0  0  0  0  0  0  0
  150.5974  137.0216  154.7548 C   0  0  0  0  0  0  0  0  0  0  0  0
  151.9368  137.1902  154.7466 N   0  0  0  0  0  0  0  0  0  0  0  0
  152.4158  138.4478  154.8539 C   0  0  0  0  0  0  0  0  0  0  0  0
  151.5896  139.5833  154.9732 C   0  0  0  0  0  0  0  0  0  0  0  0
  150.9393  143.7093  158.2191 C   0  0  0  0  0  0  0  0  0  0  0  0
  151.8313  143.9773  159.4502 C   0  0  1  0  0  0  0  0  0  0  0  0
  151.1758  145.0435  160.3463 C   0  0  0  0  0  0  0  0  0  0  0  0
  154.0218  143.3247  161.0964 H   0  0  0  0  0  0  0  0  0  0  0  0
  153.3293  141.9058  161.8742 H   0  0  0  0  0  0  0  0  0  0  0  0
  152.6365  143.4842  162.1759 H   0  0  0  0  0  0  0  0  0  0  0  0
  151.1981  142.2634  160.5961 H   0  0  0  0  0  0  0  0  0  0  0  0
  153.7096  141.9269  158.9029 H   0  0  0  0  0  0  0  0  0  0  0  0
  152.8829  140.6637  159.7796 H   0  0  0  0  0  0  0  0  0  0  0  0
  152.2802  140.6202  157.3800 H   0  0  0  0  0  0  0  0  0  0  0  0
  150.8746  140.9217  158.3751 H   0  0  0  0  0  0  0  0  0  0  0  0
  152.5081  143.0314  156.8955 H   0  0  0  0  0  0  0  0  0  0  0  0
  150.2515  143.2625  155.8371 H   0  0  0  0  0  0  0  0  0  0  0  0
  149.8377  140.7654  157.1848 H   0  0  0  0  0  0  0  0  0  0  0  0
  148.6909  141.9839  156.6584 H   0  0  0  0  0  0  0  0  0  0  0  0
  148.2341  140.2327  155.1609 H   0  0  0  0  0  0  0  0  0  0  0  0
  148.4814  141.7948  153.7939 H   0  0  0  0  0  0  0  0  0  0  0  0
  148.6212  137.8983  154.8663 H   0  0  0  0  0  0  0  0  0  0  0  0
  150.2417  136.0058  154.6665 H   0  0  0  0  0  0  0  0  0  0  0  0
  153.4906  138.5533  154.8435 H   0  0  0  0  0  0  0  0  0  0  0  0
  152.0261  140.5678  155.0538 H   0  0  0  0  0  0  0  0  0  0  0  0
  150.7797  144.6477  157.6881 H   0  0  0  0  0  0  0  0  0  0  0  0
  149.9550  143.3728  158.5490 H   0  0  0  0  0  0  0  0  0  0  0  0
  152.7757  144.3888  159.0901 H   0  0  0  0  0  0  0  0  0  0  0  0
  150.2563  144.6703  160.7984 H   0  0  0  0  0  0  0  0  0  0  0  0
  150.9233  145.9360  159.7731 H   0  0  0  0  0  0  0  0  0  0  0  0
  151.8393  145.3630  161.1493 H   0  0  0  0  0  0  0  0  0  0  0  0
  151.2391  142.0539  155.3404 H   0  0  0  0  0  0  0  0  0  0  0  0
  1  2  1  0  0  0  0
  1 19  1  0  0  0  0
  1 20  1  0  0  0  0
  1 21  1  0  0  0  0
  2 17  1  0  0  0  0
  2  3  1  0  0  0  0
  2 22  1  0  0  0  0
  3  4  1  0  0  0  0
  3 23  1  0  0  0  0
  3 24  1  0  0  0  0
  4  5  1  0  0  0  0
  4 25  1  0  0  0  0
  4 26  1  0  0  0  0
  5  6  1  0  0  0  0
  5 16  1  0  0  0  0
  5 27  1  0  0  0  0
  6  7  1  0  0  0  0
  6 28  1  0  0  0  0
  6 43  1  0  0  0  0
  7  8  1  0  0  0  0
  7 29  1  0  0  0  0
  7 30  1  0  0  0  0
  8  9  1  0  0  0  0
  8 10  1  0  0  0  0
  8 31  1  0  0  0  0
  9 32  1  0  0  0  0
 10 15  1  0  0  0  0
 10 11  2  0  0  0  0
 11 12  1  0  0  0  0
 11 33  1  0  0  0  0
 12 13  2  0  0  0  0
 12 34  1  0  0  0  0
 13 14  1  0  0  0  0
 14 15  2  0  0  0  0
 14 35  1  0  0  0  0
 15 36  1  0  0  0  0
 16 17  1  0  0  0  0
 16 37  1  0  0  0  0
 16 38  1  0  0  0  0
 17 18  1  0  0  0  0
 17 39  1  0  0  0  0
 18 40  1  0  0  0  0
 18 41  1  0  0  0  0
 18 42  1  0  0  0  0
M  CHG  1   6   1
M  END
> <s_m_source_file>
AV-unprocessed.smi

> <i_m_source_file_index>
3287

> <i_lp_mmshare_version>
43012

> <i_f3d_flags>
0

> <s_epik_input>
W0NIM11bQ0BASF0xW0NIMl1bQ0gyXVtDQEhdKFtDSDJdW0NASF0xW0NIM10pW05IXVtDSDJdW0NASF0oW09IXSljMltjSF1bY0hdbltjSF1bY0hdMg==

> <s_epik_cmdline>
J2VwaWtfcHl0aG9uJywgJy1waCcsICc3LjAnLCAnLXRuJywgJzgnLCAnLW1hJywgJzIwMCcsICctbWV0YWxfYmluZGluZycsICctaW1hZScsICc8aW5maWxlLm1hZT4nLCAnLW9tYWUnLCAnPG91dGZpbGUubWFlPic=

> <r_lp_tautomer_probability>
1

> <r_epik_Ionization_Penalty>
0.00537262

> <r_epik_Ionization_Penalty_Charging>
0.00321624

> <r_epik_Ionization_Penalty_Neutral>
0.00215638

> <r_epik_State_Penalty>
-0

> <r_epik_Charging_Adjusted_Penalty>
0.00321624

> <i_epik_Tot_Q>
1

> <i_epik_Tot_abs_Q>
1

> <r_epik_Metal_State_Penalty>
-0

> <b_epik_Metal_Only>
0

> <s_lp_Force_Field>
OPLS_2005

> <r_lp_Energy>
16.1009

> <b_lp_Chiralities_Consistent>
1

> <s_lp_Variant>
AV-unprocessed.smi:3287-5

> <Gold.Version>
5.8.1

> <Gold.Id.Protein>
6NUR|6NUR_protein|mol2

> <Gold.PLP.Fitness>
49.7379

> <Gold.PLP.PLP>
-41.8498

> <Gold.PLP.part.hbond>
-4.6159

> <Gold.PLP.part.metal>
0.0000

> <Gold.PLP.part.buried>
-3.5616

> <Gold.PLP.part.nonpolar>
-34.6656

> <Gold.PLP.part.repulsive>
0.2301

> <Gold.PLP.ligand.clash>
0.0000

> <Gold.PLP.ligand.torsion>
0.7091

> <Gold.PLP.Chemscore.Hbond>
3.0964

> <Gold.PLP.Chemscore.CHOScore>
0.0000

> <Gold.PLP.Chemscore.Metal>
0.0000

> <Gold.Chemscore.Hbonds>
donor molecule, donor type, donor heavy atom, donor atom, acceptor molecule, acceptor atom, score
      L1  H     6    28       P1  8028  2.00
      P1  H  7989  7998       L1     9  0.03
      P1  H  8011  8017       L1     9  0.11
      P1  H 10752 10765       L1    13  0.98

> <Gold.PLP.Chemscore.Internal.Correction>
0.0172

> <Gold.Rescore>
     Score         DG    S(hbond)    S(metal)    S(lipo)     H(rot)  DE(clash)    DE(int)     intcor
     20.41     -21.64       1.94        0.00     124.51       1.90       0.47       0.76       ----

> <Gold.Chemscore.Fitness>
20.4103

> <Gold.Chemscore.DG>
-21.6391

> <Gold.Chemscore.ZeroCoef>
-5.4800

> <Gold.Chemscore.Hbond>
1.9354

> <Gold.Chemscore.Metal>
0.0000

> <Gold.Chemscore.Lipo>
124.5101

> <Gold.Chemscore.Internal_Hbond>
0.0000

> <Gold.Chemscore.DEClash>
0.4723

> <Gold.Chemscore.DEInternal>
0.7566

> <Gold.Chemscore.Rot>
1.9035

> <Gold.Chemscore.Internal.Correction>
   9.000000E+99

> <Gold.Chemscore.Hbonds>
donor molecule, donor type, donor heavy atom, donor atom, acceptor molecule, acceptor atom, score
      L1  H     6    28       P1  8028  0.96
      P1  H 10752 10765       L1    13  0.86

> <Gold.Chemscore.Hbond.Weighted>
-6.4643

> <Gold.Chemscore.Metal.Weighted>
-0.0000

> <Gold.Chemscore.Lipo.Weighted>
-14.5677

> <Gold.Chemscore.Internal_Hbond.Weighted>
0.0000

> <Gold.Chemscore.DEClash.Weighted>
0.4723

> <Gold.Chemscore.DEInternal.Weighted>
0.7566

> <Gold.Chemscore.Rot.Weighted>
4.8729

> <Gold.Chemscore.Internal.Correction.Weighted>
   9.000000E+99

> <Gold.Protein.RotatedTorsions>
[ 6907 6896 6895 6894 ] final  160.53 input  -60.11 | X-H torsion
[ 7974 7965 7964 7962 ] final  141.62 input  175.53 | X-H torsion
[ 8008 7997 7996 7995 ] final  123.89 input   59.86 | X-H torsion
[ 10167 10162 10161 10158 ] final    6.68 input  -65.29 | X-H torsion
[ 10718 10713 10712 10709 ] final   85.40 input   66.30 | X-H torsion
[ 10763 10752 10751 10750 ] final  170.50 input  -60.55 | X-H torsion
[ 11005 11000 10999 10996 ] final -145.95 input  -57.11 | X-H torsion

> <Gold.Protein.ActiveResidues>
 VAL166  LYS551  ARG553  GLY616  TRP617  ASP618  TYR619  PRO620  LYS621  CYS622 
 ASP623  PHE694  ASN695  SER759  ASP760  ASP761  ALA762  ILE779  LEU786  VAL792 
 PHE793  MET794  SER795  GLU796  ALA797  LYS798  CYS799  TRP800  GLU811  SER814 

> <Gold.Protein.RotatedAtoms>
  151.9692  133.3720  159.4064 H   0  0  0  0  0  0  0  0  0  0  0  0  # atno 6907 bound_to 6896
  150.6951  134.4158  159.5192 H   0  0  0  0  0  0  0  0  0  0  0  0  # atno 6908 bound_to 6896
  152.1859  134.8713  160.0573 H   0  0  0  0  0  0  0  0  0  0  0  0  # atno 6909 bound_to 6896
  144.9080  139.5332  143.5722 H   0  0  0  0  0  0  0  0  0  0  0  0  # atno 7974 bound_to 7965
  156.2782  140.2752  156.1700 H   0  0  0  0  0  0  0  0  0  0  0  0  # atno 8008 bound_to 7997
  155.0665  140.0387  157.2612 H   0  0  0  0  0  0  0  0  0  0  0  0  # atno 8009 bound_to 7997
  154.7075  140.2662  155.6666 H   0  0  0  0  0  0  0  0  0  0  0  0  # atno 8010 bound_to 7997
  140.6414  143.7764  150.7434 H   0  0  0  0  0  0  0  0  0  0  0  0  # atno 10167 bound_to 10162
  157.6914  131.0173  150.2817 H   0  0  0  0  0  0  0  0  0  0  0  0  # atno 10718 bound_to 10713
  154.3985  135.2754  155.2111 H   0  0  0  0  0  0  0  0  0  0  0  0  # atno 10763 bound_to 10752
  154.4147  135.6014  153.5977 H   0  0  0  0  0  0  0  0  0  0  0  0  # atno 10764 bound_to 10752
  152.9831  135.5958  154.4249 H   0  0  0  0  0  0  0  0  0  0  0  0  # atno 10765 bound_to 10752
  140.7870  134.3013  157.5026 H   0  0  0  0  0  0  0  0  0  0  0  0  # atno 11005 bound_to 11000
  146.3144  139.7863  142.8995 LP  0  0  0  0  0  0  0  0  0  0  0  0  # atno 17320 bound_to 7965
  145.3503  141.0306  143.3342 LP  0  0  0  0  0  0  0  0  0  0  0  0  # atno 17321 bound_to 7965
  140.1397  143.4452  152.2202 LP  0  0  0  0  0  0  0  0  0  0  0  0  # atno 17342 bound_to 10162
  139.5624  144.7414  151.4118 LP  0  0  0  0  0  0  0  0  0  0  0  0  # atno 17343 bound_to 10162
  156.3363  130.3808  149.7448 LP  0  0  0  0  0  0  0  0  0  0  0  0  # atno 17370 bound_to 10713
  156.4971  130.8112  151.3118 LP  0  0  0  0  0  0  0  0  0  0  0  0  # atno 17371 bound_to 10713
  139.8735  134.9352  156.3627 LP  0  0  0  0  0  0  0  0  0  0  0  0  # atno 17394 bound_to 11000
  140.9427  133.7503  156.0168 LP  0  0  0  0  0  0  0  0  0  0  0  0  # atno 17395 bound_to 11000

$$$$
