AV-unprocessed.smi:3193|AV-procd|sdf|12203|dock4
  -GOLD-   2272018 43D 1   1.00000     0.00000
 Structure written by MMmdl.
 40 41  0  0  0  0  0  0  0  0  2 V2000
  150.2373  137.0228  155.1374 C   0  0  0  0  0  0  0  0  0  0  0  0
  150.6199  138.2236  154.2479 C   0  0  2  0  0  0  0  0  0  0  0  0
  152.0478  138.7249  154.5537 C   0  0  0  0  0  0  0  0  0  0  0  0
  152.1309  139.4757  155.8935 C   0  0  0  0  0  0  0  0  0  0  0  0
  151.1230  140.6329  155.9446 C   0  0  0  0  0  0  0  0  0  0  0  0
  149.6939  140.1485  155.6524 C   0  0  0  0  0  0  0  0  0  0  0  0
  149.6115  139.4028  154.3010 C   0  0  2  0  0  0  0  0  0  0  0  0
  148.1717  138.9697  153.9581 C   0  0  0  0  0  0  0  0  0  0  0  0
  148.0422  138.5855  152.5384 N   0  3  0  0  0  0  0  0  0  0  0  0
  146.6557  138.6188  152.0305 C   0  0  0  0  0  0  0  0  0  0  0  0
  145.7654  137.5884  152.7425 C   0  0  0  0  0  0  0  0  0  0  0  0
  145.8717  136.2685  152.1494 N   0  0  0  0  0  0  0  0  0  0  0  0
  145.7615  135.9425  150.8039 C   0  0  0  0  0  0  0  0  0  0  0  0
  145.9266  134.5787  150.7151 C   0  0  0  0  0  0  0  0  0  0  0  0
  146.1431  134.0496  151.9853 N   0  0  0  0  0  0  0  0  0  0  0  0
  146.1034  135.1096  152.7815 C   0  0  0  0  0  0  0  0  0  0  0  0
  150.1485  137.2993  156.1876 H   0  0  0  0  0  0  0  0  0  0  0  0
  150.9883  136.2354  155.0700 H   0  0  0  0  0  0  0  0  0  0  0  0
  149.2899  136.5810  154.8293 H   0  0  0  0  0  0  0  0  0  0  0  0
  150.6315  137.8504  153.2228 H   0  0  0  0  0  0  0  0  0  0  0  0
  152.7510  137.8912  154.5507 H   0  0  0  0  0  0  0  0  0  0  0  0
  152.3721  139.3923  153.7541 H   0  0  0  0  0  0  0  0  0  0  0  0
  151.9441  138.7884  156.7189 H   0  0  0  0  0  0  0  0  0  0  0  0
  153.1413  139.8589  156.0401 H   0  0  0  0  0  0  0  0  0  0  0  0
  151.1603  141.1152  156.9219 H   0  0  0  0  0  0  0  0  0  0  0  0
  151.4053  141.3932  155.2155 H   0  0  0  0  0  0  0  0  0  0  0  0
  149.3533  139.5025  156.4619 H   0  0  0  0  0  0  0  0  0  0  0  0
  149.0245  141.0091  155.6499 H   0  0  0  0  0  0  0  0  0  0  0  0
  149.9231  140.1058  153.5262 H   0  0  0  0  0  0  0  0  0  0  0  0
  147.8867  138.1141  154.5720 H   0  0  0  0  0  0  0  0  0  0  0  0
  147.4668  139.7725  154.1783 H   0  0  0  0  0  0  0  0  0  0  0  0
  148.6052  139.2140  151.9833 H   0  0  0  0  0  0  0  0  0  0  0  0
  146.2455  139.6217  152.1563 H   0  0  0  0  0  0  0  0  0  0  0  0
  146.6663  138.4112  150.9598 H   0  0  0  0  0  0  0  0  0  0  0  0
  146.0513  137.5124  153.7923 H   0  0  0  0  0  0  0  0  0  0  0  0
  144.7213  137.9045  152.7239 H   0  0  0  0  0  0  0  0  0  0  0  0
  145.5783  136.6854  150.0413 H   0  0  0  0  0  0  0  0  0  0  0  0
  145.9086  133.9427  149.8422 H   0  0  0  0  0  0  0  0  0  0  0  0
  146.2397  135.0394  153.8510 H   0  0  0  0  0  0  0  0  0  0  0  0
  148.4005  137.6474  152.4274 H   0  0  0  0  0  0  0  0  0  0  0  0
  1  2  1  0  0  0  0
  1 17  1  0  0  0  0
  1 18  1  0  0  0  0
  1 19  1  0  0  0  0
  2  7  1  0  0  0  0
  2  3  1  0  0  0  0
  2 20  1  0  0  0  0
  3  4  1  0  0  0  0
  3 21  1  0  0  0  0
  3 22  1  0  0  0  0
  4  5  1  0  0  0  0
  4 23  1  0  0  0  0
  4 24  1  0  0  0  0
  5  6  1  0  0  0  0
  5 25  1  0  0  0  0
  5 26  1  0  0  0  0
  6  7  1  0  0  0  0
  6 27  1  0  0  0  0
  6 28  1  0  0  0  0
  7  8  1  0  0  0  0
  7 29  1  0  0  0  0
  8  9  1  0  0  0  0
  8 30  1  0  0  0  0
  8 31  1  0  0  0  0
  9 10  1  0  0  0  0
  9 32  1  0  0  0  0
  9 40  1  0  0  0  0
 10 11  1  0  0  0  0
 10 33  1  0  0  0  0
 10 34  1  0  0  0  0
 11 12  1  0  0  0  0
 11 35  1  0  0  0  0
 11 36  1  0  0  0  0
 12 16  1  0  0  0  0
 12 13  1  0  0  0  0
 13 14  2  0  0  0  0
 13 37  1  0  0  0  0
 14 15  1  0  0  0  0
 14 38  1  0  0  0  0
 15 16  2  0  0  0  0
 16 39  1  0  0  0  0
M  CHG  1   9   1
M  END
> <s_m_source_file>
AV-unprocessed.smi

> <i_m_source_file_index>
3193

> <i_lp_mmshare_version>
43012

> <i_f3d_flags>
0

> <s_epik_input>
W0NIM11bQ0BASF0xW0NIMl1bQ0gyXVtDSDJdW0NIMl1bQ0BIXTFbQ0gyXVtOSF1bQ0gyXVtDSDJdbjJbY0hdW2NIXW5bY0hdMg==

> <s_epik_cmdline>
J2VwaWtfcHl0aG9uJywgJy1waCcsICc3LjAnLCAnLXRuJywgJzgnLCAnLW1hJywgJzIwMCcsICctbWV0YWxfYmluZGluZycsICctaW1hZScsICc8aW5maWxlLm1hZT4nLCAnLW9tYWUnLCAnPG91dGZpbGUubWFlPic=

> <r_lp_tautomer_probability>
1

> <r_epik_Ionization_Penalty>
0.0503046

> <r_epik_Ionization_Penalty_Charging>
0.0503046

> <r_epik_Ionization_Penalty_Neutral>
0

> <r_epik_State_Penalty>
0.0981804

> <r_epik_Charging_Adjusted_Penalty>
0.148485

> <i_epik_Tot_Q>
1

> <i_epik_Tot_abs_Q>
1

> <r_epik_Metal_State_Penalty>
0.000105854

> <b_epik_Metal_Only>
0

> <s_lp_Force_Field>
OPLS_2005

> <r_lp_Energy>
20.9297

> <b_lp_Chiralities_Consistent>
1

> <s_lp_Variant>
AV-unprocessed.smi:3193-3

> <Gold.Version>
5.8.1

> <Gold.Id.Protein>
6NUR|6NUR_protein|mol2

> <Gold.PLP.Fitness>
47.9109

> <Gold.PLP.PLP>
-34.0518

> <Gold.PLP.part.hbond>
-2.0000

> <Gold.PLP.part.metal>
0.0000

> <Gold.PLP.part.buried>
-3.0125

> <Gold.PLP.part.nonpolar>
-30.4956

> <Gold.PLP.part.repulsive>
0.1748

> <Gold.PLP.ligand.clash>
0.0000

> <Gold.PLP.ligand.torsion>
0.3907

> <Gold.PLP.Chemscore.Hbond>
2.9913

> <Gold.PLP.Chemscore.CHOScore>
1.8715

> <Gold.PLP.Chemscore.Metal>
0.0000

> <Gold.Chemscore.Hbonds>
donor molecule, donor type, donor heavy atom, donor atom, acceptor molecule, acceptor atom, score
      L1  H     9    32       P1  7957  0.96
      L1  H     9    40       P1  7948  2.00
      L1  C    13    37       P1 10171  0.95
      L1  C    14    38       P1  7921  0.85

> <Gold.PLP.Chemscore.Internal.Correction>
0.0523

> <Gold.Rescore>
     Score         DG    S(hbond)    S(metal)    S(lipo)     H(rot)  DE(clash)    DE(int)     intcor
     16.00     -16.37       1.98        0.00      78.04       1.89       0.05       0.33       ----

> <Gold.Chemscore.Fitness>
15.9991

> <Gold.Chemscore.DG>
-16.3709

> <Gold.Chemscore.ZeroCoef>
-5.4800

> <Gold.Chemscore.Hbond>
1.9752

> <Gold.Chemscore.Metal>
0.0000

> <Gold.Chemscore.Lipo>
78.0420

> <Gold.Chemscore.Internal_Hbond>
0.0000

> <Gold.Chemscore.DEClash>
0.0456

> <Gold.Chemscore.DEInternal>
0.3262

> <Gold.Chemscore.Rot>
1.8895

> <Gold.Chemscore.Internal.Correction>
   9.000000E+99

> <Gold.Chemscore.Hbonds>
donor molecule, donor type, donor heavy atom, donor atom, acceptor molecule, acceptor atom, score
      L1  H     9    32       P1  7957  0.91
      L1  H     9    40       P1  7948  0.99

> <Gold.Chemscore.Hbond.Weighted>
-6.5971

> <Gold.Chemscore.Metal.Weighted>
-0.0000

> <Gold.Chemscore.Lipo.Weighted>
-9.1309

> <Gold.Chemscore.Internal_Hbond.Weighted>
0.0000

> <Gold.Chemscore.DEClash.Weighted>
0.0456

> <Gold.Chemscore.DEInternal.Weighted>
0.3262

> <Gold.Chemscore.Rot.Weighted>
4.8371

> <Gold.Chemscore.Internal.Correction.Weighted>
   9.000000E+99

> <Gold.Protein.RotatedTorsions>
[ 6907 6896 6895 6894 ] final -141.88 input  -60.11 | X-H torsion
[ 7974 7965 7964 7962 ] final   62.65 input  175.53 | X-H torsion
[ 8008 7997 7996 7995 ] final   58.83 input   59.86 | X-H torsion
[ 10167 10162 10161 10158 ] final -165.90 input  -65.29 | X-H torsion
[ 10718 10713 10712 10709 ] final   80.92 input   66.30 | X-H torsion
[ 10763 10752 10751 10750 ] final  -88.12 input  -60.55 | X-H torsion
[ 11005 11000 10999 10996 ] final -100.18 input  -57.11 | X-H torsion

> <Gold.Protein.ActiveResidues>
 VAL166  LYS551  ARG553  GLY616  TRP617  ASP618  TYR619  PRO620  LYS621  CYS622 
 ASP623  PHE694  ASN695  SER759  ASP760  ASP761  ALA762  ILE779  LEU786  VAL792 
 PHE793  MET794  SER795  GLU796  ALA797  LYS798  CYS799  TRP800  GLU811  SER814 

> <Gold.Protein.RotatedAtoms>
  151.0797  133.5400  159.2621 H   0  0  0  0  0  0  0  0  0  0  0  0  # atno 6907 bound_to 6896
  151.2308  135.0553  159.8997 H   0  0  0  0  0  0  0  0  0  0  0  0  # atno 6908 bound_to 6896
  152.5422  134.0586  159.8196 H   0  0  0  0  0  0  0  0  0  0  0  0  # atno 6909 bound_to 6896
  145.8709  139.3377  143.0763 H   0  0  0  0  0  0  0  0  0  0  0  0  # atno 7974 bound_to 7965
  155.5563  140.3487  155.4480 H   0  0  0  0  0  0  0  0  0  0  0  0  # atno 8008 bound_to 7997
  156.0546  140.1326  157.0037 H   0  0  0  0  0  0  0  0  0  0  0  0  # atno 8009 bound_to 7997
  154.4450  140.0997  156.6412 H   0  0  0  0  0  0  0  0  0  0  0  0  # atno 8010 bound_to 7997
  139.6151  144.0737  152.1879 H   0  0  0  0  0  0  0  0  0  0  0  0  # atno 10167 bound_to 10162
  157.6819  130.9981  150.2150 H   0  0  0  0  0  0  0  0  0  0  0  0  # atno 10718 bound_to 10713
  154.6411  135.5388  153.7790 H   0  0  0  0  0  0  0  0  0  0  0  0  # atno 10763 bound_to 10752
  153.0334  135.6459  154.1159 H   0  0  0  0  0  0  0  0  0  0  0  0  # atno 10764 bound_to 10752
  154.1083  135.2928  155.3216 H   0  0  0  0  0  0  0  0  0  0  0  0  # atno 10765 bound_to 10752
  141.1280  133.8379  157.1069 H   0  0  0  0  0  0  0  0  0  0  0  0  # atno 11005 bound_to 11000
  145.9138  140.9162  143.0440 LP  0  0  0  0  0  0  0  0  0  0  0  0  # atno 17320 bound_to 7965
  144.6726  140.1196  143.7450 LP  0  0  0  0  0  0  0  0  0  0  0  0  # atno 17321 bound_to 7965
  140.0365  144.6041  150.7446 LP  0  0  0  0  0  0  0  0  0  0  0  0  # atno 17342 bound_to 10162
  140.7345  143.2730  151.3830 LP  0  0  0  0  0  0  0  0  0  0  0  0  # atno 17343 bound_to 10162
  156.2813  130.3734  149.7932 LP  0  0  0  0  0  0  0  0  0  0  0  0  # atno 17370 bound_to 10713
  156.5619  130.8387  151.3331 LP  0  0  0  0  0  0  0  0  0  0  0  0  # atno 17371 bound_to 10713
  140.0299  134.9906  157.0760 LP  0  0  0  0  0  0  0  0  0  0  0  0  # atno 17394 bound_to 11000
  140.4302  134.1789  155.7168 LP  0  0  0  0  0  0  0  0  0  0  0  0  # atno 17395 bound_to 11000

$$$$
