AV-unprocessed.smi:2083|AV-procd|sdf|8506|dock9
  -GOLD-   2272011223D 1   1.00000     0.00000
 Structure written by MMmdl.
 44 45  0  0  0  0  0  0  0  0  3 V2000
  153.4306  140.6592  160.3207 C   0  0  0  0  0  0  0  0  0  0  0  0
  152.8703  139.6817  159.3452 C   0  0  0  0  0  0  0  0  0  0  0  0
  151.5985  139.2608  159.0773 C   0  0  0  0  0  0  0  0  0  0  0  0
  151.7859  138.3149  158.0344 C   0  0  0  0  0  0  0  0  0  0  0  0
  150.6763  137.6313  157.4711 N   0  0  0  0  0  0  0  0  0  0  0  0
  150.6633  136.6994  156.5006 C   0  0  0  0  0  0  0  0  0  0  0  0
  151.7186  136.3414  155.9636 O   0  0  0  0  0  0  0  0  0  0  0  0
  149.4050  136.2551  156.2336 N   0  5  0  0  0  0  0  0  0  0  0  0
  149.0536  135.3877  155.1104 C   0  0  0  0  0  0  0  0  0  0  0  0
  147.5247  135.4875  154.8035 C   0  0  2  0  0  0  0  0  0  0  0  0
  146.6394  134.7838  155.8596 C   0  0  0  0  0  0  0  0  0  0  0  0
  147.1096  135.0622  153.4226 N   0  3  1  0  0  0  0  0  0  0  0  0
  147.3207  133.6193  153.1155 C   0  0  0  0  0  0  0  0  0  0  0  0
  147.2305  133.3696  151.6022 C   0  0  0  0  0  0  0  0  0  0  0  0
  145.8902  133.8644  151.0417 C   0  0  0  0  0  0  0  0  0  0  0  0
  145.6749  135.3470  151.3937 C   0  0  1  0  0  0  0  0  0  0  0  0
  144.3308  135.8609  150.8587 C   0  0  0  0  0  0  0  0  0  0  0  0
  145.7935  135.5565  152.9165 C   0  0  0  0  0  0  0  0  0  0  0  0
  153.0586  138.1754  157.6935 N   0  0  0  0  0  0  0  0  0  0  0  0
  153.7598  139.0507  158.5315 O   0  0  0  0  0  0  0  0  0  0  0  0
  152.6829  140.9418  161.0619 H   0  0  0  0  0  0  0  0  0  0  0  0
  153.7626  141.5641  159.8122 H   0  0  0  0  0  0  0  0  0  0  0  0
  154.2841  140.2335  160.8487 H   0  0  0  0  0  0  0  0  0  0  0  0
  150.6826  139.5771  159.5536 H   0  0  0  0  0  0  0  0  0  0  0  0
  149.7760  137.8697  157.8593 H   0  0  0  0  0  0  0  0  0  0  0  0
  149.6116  135.6704  154.2175 H   0  0  0  0  0  0  0  0  0  0  0  0
  149.3088  134.3439  155.2976 H   0  0  0  0  0  0  0  0  0  0  0  0
  147.2596  136.5444  154.8660 H   0  0  0  0  0  0  0  0  0  0  0  0
  146.7610  135.2198  156.8530 H   0  0  0  0  0  0  0  0  0  0  0  0
  146.8497  133.7170  155.9467 H   0  0  0  0  0  0  0  0  0  0  0  0
  145.5840  134.8861  155.6051 H   0  0  0  0  0  0  0  0  0  0  0  0
  148.3008  133.2993  153.4709 H   0  0  0  0  0  0  0  0  0  0  0  0
  146.5793  133.0101  153.6342 H   0  0  0  0  0  0  0  0  0  0  0  0
  148.0508  133.8815  151.0973 H   0  0  0  0  0  0  0  0  0  0  0  0
  147.3531  132.3067  151.3920 H   0  0  0  0  0  0  0  0  0  0  0  0
  145.8674  133.7246  149.9605 H   0  0  0  0  0  0  0  0  0  0  0  0
  145.0775  133.2630  151.4517 H   0  0  0  0  0  0  0  0  0  0  0  0
  146.4633  135.9269  150.9115 H   0  0  0  0  0  0  0  0  0  0  0  0
  143.4940  135.3242  151.3070 H   0  0  0  0  0  0  0  0  0  0  0  0
  144.2652  135.7366  149.7776 H   0  0  0  0  0  0  0  0  0  0  0  0
  144.2012  136.9215  151.0761 H   0  0  0  0  0  0  0  0  0  0  0  0
  144.9761  135.0379  153.4203 H   0  0  0  0  0  0  0  0  0  0  0  0
  145.6786  136.6169  153.1384 H   0  0  0  0  0  0  0  0  0  0  0  0
  147.7864  135.5285  152.8362 H   0  0  0  0  0  0  0  0  0  0  0  0
  1  2  1  0  0  0  0
  1 21  1  0  0  0  0
  1 22  1  0  0  0  0
  1 23  1  0  0  0  0
  2 20  1  0  0  0  0
  2  3  2  0  0  0  0
  3  4  1  0  0  0  0
  3 24  1  0  0  0  0
  4  5  1  0  0  0  0
  4 19  2  0  0  0  0
  5  6  1  0  0  0  0
  5 25  1  0  0  0  0
  6  7  2  0  0  0  0
  6  8  1  0  0  0  0
  8  9  1  0  0  0  0
  9 10  1  0  0  0  0
  9 26  1  0  0  0  0
  9 27  1  0  0  0  0
 10 11  1  0  0  0  0
 10 12  1  0  0  0  0
 10 28  1  0  0  0  0
 11 29  1  0  0  0  0
 11 30  1  0  0  0  0
 11 31  1  0  0  0  0
 12 18  1  0  0  0  0
 12 13  1  0  0  0  0
 12 44  1  0  0  0  0
 13 14  1  0  0  0  0
 13 32  1  0  0  0  0
 13 33  1  0  0  0  0
 14 15  1  0  0  0  0
 14 34  1  0  0  0  0
 14 35  1  0  0  0  0
 15 16  1  0  0  0  0
 15 36  1  0  0  0  0
 15 37  1  0  0  0  0
 16 17  1  0  0  0  0
 16 18  1  0  0  0  0
 16 38  1  0  0  0  0
 17 39  1  0  0  0  0
 17 40  1  0  0  0  0
 17 41  1  0  0  0  0
 18 42  1  0  0  0  0
 18 43  1  0  0  0  0
 19 20  1  0  0  0  0
M  CHG  1   8  -1
M  CHG  1  12   1
M  END
> <s_m_source_file>
AV-unprocessed.smi

> <i_m_source_file_index>
2083

> <i_lp_mmshare_version>
43012

> <i_f3d_flags>
0

> <s_epik_input>
W0NIM11jMVtjSF1jKG5vMSlbTkhdQyg9TylbTkhdW0NIMl1bQ0BIXShbQ0gzXSlOMltDSDJdW0NIMl1bQ0gyXVtDQEBIXShbQ0gzXSlbQ0gyXTI=

> <s_epik_cmdline>
J2VwaWtfcHl0aG9uJywgJy1waCcsICc3LjAnLCAnLXRuJywgJzgnLCAnLW1hJywgJzIwMCcsICctbWV0YWxfYmluZGluZycsICctaW1hZScsICc8aW5maWxlLm1hZT4nLCAnLW9tYWUnLCAnPG91dGZpbGUubWFlPic=

> <r_epik_Ionization_Penalty>
6.76934

> <r_epik_Ionization_Penalty_Charging>
6.76934

> <r_epik_Ionization_Penalty_Neutral>
5.77849e-06

> <r_epik_State_Penalty>
6.79457

> <r_epik_Charging_Adjusted_Penalty>
13.5639

> <i_epik_Tot_Q>
0

> <i_epik_Tot_abs_Q>
2

> <r_epik_Metal_State_Penalty>
2.72837

> <b_epik_Metal_Only>
1

> <s_lp_Force_Field>
OPLS_2005

> <r_lp_Energy>
20.364

> <b_lp_Chiralities_Consistent>
1

> <s_lp_Variant>
AV-unprocessed.smi:2083-17

> <Gold.Version>
5.8.1

> <Gold.Id.Protein>
6NUR|6NUR_protein|mol2

> <Gold.PLP.Fitness>
36.7083

> <Gold.PLP.PLP>
-25.3609

> <Gold.PLP.part.hbond>
-3.6053

> <Gold.PLP.part.metal>
0.0000

> <Gold.PLP.part.buried>
-1.7821

> <Gold.PLP.part.nonpolar>
-19.9294

> <Gold.PLP.part.repulsive>
0.0843

> <Gold.PLP.ligand.clash>
0.0000

> <Gold.PLP.ligand.torsion>
0.4389

> <Gold.PLP.Chemscore.Hbond>
4.0000

> <Gold.PLP.Chemscore.CHOScore>
0.0000

> <Gold.PLP.Chemscore.Metal>
0.0000

> <Gold.Chemscore.Hbonds>
donor molecule, donor type, donor heavy atom, donor atom, acceptor molecule, acceptor atom, score
      L1  H    12    44       P1  7948  2.00
      P1  H  7997  8008       L1    20  1.00
      P1  H 10752 10764       L1     7  1.00

> <Gold.PLP.Chemscore.Internal.Correction>
0.2251

> <Gold.Rescore>
     Score         DG    S(hbond)    S(metal)    S(lipo)     H(rot)  DE(clash)    DE(int)     intcor
     15.73     -17.42       2.75        0.00      56.89       1.52       0.02       1.66       ----

> <Gold.Chemscore.Fitness>
15.7318

> <Gold.Chemscore.DG>
-17.4192

> <Gold.Chemscore.ZeroCoef>
-5.4800

> <Gold.Chemscore.Hbond>
2.7461

> <Gold.Chemscore.Metal>
0.0000

> <Gold.Chemscore.Lipo>
56.8865

> <Gold.Chemscore.Internal_Hbond>
0.0000

> <Gold.Chemscore.DEClash>
0.0234

> <Gold.Chemscore.DEInternal>
1.6640

> <Gold.Chemscore.Rot>
1.5190

> <Gold.Chemscore.Internal.Correction>
   9.000000E+99

> <Gold.Chemscore.Hbonds>
donor molecule, donor type, donor heavy atom, donor atom, acceptor molecule, acceptor atom, score
      L1  H    12    44       P1  7948  1.00
      P1  H  7997  8008       L1    20  0.29
      P1  H 10752 10764       L1     7  1.00

> <Gold.Chemscore.Hbond.Weighted>
-9.1721

> <Gold.Chemscore.Metal.Weighted>
-0.0000

> <Gold.Chemscore.Lipo.Weighted>
-6.6557

> <Gold.Chemscore.Internal_Hbond.Weighted>
0.0000

> <Gold.Chemscore.DEClash.Weighted>
0.0234

> <Gold.Chemscore.DEInternal.Weighted>
1.6640

> <Gold.Chemscore.Rot.Weighted>
3.8886

> <Gold.Chemscore.Internal.Correction.Weighted>
   9.000000E+99

> <Gold.Protein.RotatedTorsions>
[ 6907 6896 6895 6894 ] final  114.50 input  -60.11 | X-H torsion
[ 7974 7965 7964 7962 ] final -119.19 input  175.53 | X-H torsion
[ 8008 7997 7996 7995 ] final -106.36 input   59.86 | X-H torsion
[ 10167 10162 10161 10158 ] final   -4.38 input  -65.29 | X-H torsion
[ 10718 10713 10712 10709 ] final   77.21 input   66.30 | X-H torsion
[ 10763 10752 10751 10750 ] final  -45.54 input  -60.55 | X-H torsion
[ 11005 11000 10999 10996 ] final  -35.24 input  -57.11 | X-H torsion

> <Gold.Protein.ActiveResidues>
 VAL166  LYS551  ARG553  GLY616  TRP617  ASP618  TYR619  PRO620  LYS621  CYS622 
 ASP623  PHE694  ASN695  SER759  ASP760  ASP761  ALA762  ILE779  LEU786  VAL792 
 PHE793  MET794  SER795  GLU796  ALA797  LYS798  CYS799  TRP800  GLU811  SER814 

> <Gold.Protein.RotatedAtoms>
  152.4798  133.8227  159.7061 H   0  0  0  0  0  0  0  0  0  0  0  0  # atno 6907 bound_to 6896
  150.8840  133.7323  159.2930 H   0  0  0  0  0  0  0  0  0  0  0  0  # atno 6908 bound_to 6896
  151.4818  135.1056  159.9832 H   0  0  0  0  0  0  0  0  0  0  0  0  # atno 6909 bound_to 6896
  145.0654  140.8320  143.4127 H   0  0  0  0  0  0  0  0  0  0  0  0  # atno 7974 bound_to 7965
  154.9135  140.0409  157.1959 H   0  0  0  0  0  0  0  0  0  0  0  0  # atno 8008 bound_to 7997
  154.8325  140.2901  155.5691 H   0  0  0  0  0  0  0  0  0  0  0  0  # atno 8009 bound_to 7997
  156.2987  140.2498  156.3253 H   0  0  0  0  0  0  0  0  0  0  0  0  # atno 8010 bound_to 7997
  140.6925  143.6430  150.8418 H   0  0  0  0  0  0  0  0  0  0  0  0  # atno 10167 bound_to 10162
  157.6702  130.9811  150.1608 H   0  0  0  0  0  0  0  0  0  0  0  0  # atno 10718 bound_to 10713
  154.0302  135.6657  153.4780 H   0  0  0  0  0  0  0  0  0  0  0  0  # atno 10763 bound_to 10752
  153.0543  135.5065  154.7940 H   0  0  0  0  0  0  0  0  0  0  0  0  # atno 10764 bound_to 10752
  154.6883  135.3057  154.9481 H   0  0  0  0  0  0  0  0  0  0  0  0  # atno 10765 bound_to 10752
  140.9780  133.7072  156.1636 H   0  0  0  0  0  0  0  0  0  0  0  0  # atno 11005 bound_to 11000
  145.1358  139.2603  143.5516 LP  0  0  0  0  0  0  0  0  0  0  0  0  # atno 17320 bound_to 7965
  146.3526  140.1021  142.8607 LP  0  0  0  0  0  0  0  0  0  0  0  0  # atno 17321 bound_to 7965
  140.0144  143.5608  152.2826 LP  0  0  0  0  0  0  0  0  0  0  0  0  # atno 17342 bound_to 10162
  139.6344  144.7648  151.2469 LP  0  0  0  0  0  0  0  0  0  0  0  0  # atno 17343 bound_to 10162
  156.2385  130.3688  149.8364 LP  0  0  0  0  0  0  0  0  0  0  0  0  # atno 17370 bound_to 10713
  156.6170  130.8610  151.3467 LP  0  0  0  0  0  0  0  0  0  0  0  0  # atno 17371 bound_to 10713
  140.7229  134.4338  157.5573 LP  0  0  0  0  0  0  0  0  0  0  0  0  # atno 17394 bound_to 11000
  139.8938  134.8721  156.2204 LP  0  0  0  0  0  0  0  0  0  0  0  0  # atno 17395 bound_to 11000

$$$$
