AV-unprocessed.smi:3099|AV-procd|sdf|11802|dock2
  -GOLD-   2272017173D 1   1.00000     0.00000
 Structure written by MMmdl.
 33 34  0  0  0  0  0  0  0  0  2 V2000
  153.0794  138.2846  155.6364 C   0  0  0  0  0  0  0  0  0  0  0  0
  151.7465  138.4949  155.0669 N   0  0  0  0  0  0  0  0  0  0  0  0
  151.1424  137.5702  154.3101 C   0  0  0  0  0  0  0  0  0  0  0  0
  149.9566  138.0723  153.9596 N   0  3  0  0  0  0  0  0  0  0  0  0
  149.8008  139.3220  154.4930 C   0  0  0  0  0  0  0  0  0  0  0  0
  150.9429  139.6039  155.2048 C   0  0  0  0  0  0  0  0  0  0  0  0
  151.3548  140.8076  155.9968 C   0  0  0  0  0  0  0  0  0  0  0  0
  150.1616  141.5376  156.6393 C   0  0  0  0  0  0  0  0  0  0  0  0
  150.5230  142.8853  157.0626 N   0  0  0  0  0  0  0  0  0  0  0  0
  151.5308  143.1857  157.8959 C   0  0  0  0  0  0  0  0  0  0  0  0
  152.2674  142.3346  158.3955 O   0  0  0  0  0  0  0  0  0  0  0  0
  151.7319  144.6721  158.2052 C   0  0  0  0  0  0  0  0  0  0  0  0
  151.8600  144.9622  159.6916 C   0  0  0  0  0  0  0  0  0  0  0  0
  152.5316  143.9738  160.6195 C   0  0  0  0  0  0  0  0  0  0  0  0
  151.0422  144.1967  160.7073 C   0  0  0  0  0  0  0  0  0  0  0  0
  153.4791  137.3217  155.3156 H   0  0  0  0  0  0  0  0  0  0  0  0
  153.0091  138.3030  156.7242 H   0  0  0  0  0  0  0  0  0  0  0  0
  153.7430  139.0811  155.2985 H   0  0  0  0  0  0  0  0  0  0  0  0
  151.5336  136.6068  154.0348 H   0  0  0  0  0  0  0  0  0  0  0  0
  148.9075  139.9073  154.3296 H   0  0  0  0  0  0  0  0  0  0  0  0
  152.0565  140.4938  156.7705 H   0  0  0  0  0  0  0  0  0  0  0  0
  151.8961  141.4857  155.3358 H   0  0  0  0  0  0  0  0  0  0  0  0
  149.3185  141.5816  155.9474 H   0  0  0  0  0  0  0  0  0  0  0  0
  149.8179  140.9913  157.5179 H   0  0  0  0  0  0  0  0  0  0  0  0
  149.9695  143.6457  156.6944 H   0  0  0  0  0  0  0  0  0  0  0  0
  152.6281  145.0267  157.6956 H   0  0  0  0  0  0  0  0  0  0  0  0
  150.8910  145.2391  157.8021 H   0  0  0  0  0  0  0  0  0  0  0  0
  152.0342  146.0129  159.9178 H   0  0  0  0  0  0  0  0  0  0  0  0
  152.8743  143.0323  160.1949 H   0  0  0  0  0  0  0  0  0  0  0  0
  153.1497  144.3770  161.4190 H   0  0  0  0  0  0  0  0  0  0  0  0
  150.6663  144.7490  161.5661 H   0  0  0  0  0  0  0  0  0  0  0  0
  150.3942  143.4007  160.3457 H   0  0  0  0  0  0  0  0  0  0  0  0
  149.2749  137.5959  153.3824 H   0  0  0  0  0  0  0  0  0  0  0  0
  1  2  1  0  0  0  0
  1 16  1  0  0  0  0
  1 17  1  0  0  0  0
  1 18  1  0  0  0  0
  2  6  1  0  0  0  0
  2  3  1  0  0  0  0
  3  4  2  0  0  0  0
  3 19  1  0  0  0  0
  4  5  1  0  0  0  0
  4 33  1  0  0  0  0
  5  6  2  0  0  0  0
  5 20  1  0  0  0  0
  6  7  1  0  0  0  0
  7  8  1  0  0  0  0
  7 21  1  0  0  0  0
  7 22  1  0  0  0  0
  8  9  1  0  0  0  0
  8 23  1  0  0  0  0
  8 24  1  0  0  0  0
  9 10  1  0  0  0  0
  9 25  1  0  0  0  0
 10 11  2  0  0  0  0
 10 12  1  0  0  0  0
 12 13  1  0  0  0  0
 12 26  1  0  0  0  0
 12 27  1  0  0  0  0
 13 15  1  0  0  0  0
 13 14  1  0  0  0  0
 13 28  1  0  0  0  0
 14 15  1  0  0  0  0
 14 29  1  0  0  0  0
 14 30  1  0  0  0  0
 15 31  1  0  0  0  0
 15 32  1  0  0  0  0
M  CHG  1   4   1
M  END
> <s_m_source_file>
AV-unprocessed.smi

> <i_m_source_file_index>
3099

> <i_lp_mmshare_version>
43012

> <i_f3d_flags>
0

> <s_epik_input>
W0NIM11uMVtjSF1uW2NIXWMxW0NIMl1bQ0gyXVtOSF1DKD1PKVtDSDJdW0NIXTJbQ0gyXVtDSDJdMg==

> <s_epik_cmdline>
J2VwaWtfcHl0aG9uJywgJy1waCcsICc3LjAnLCAnLXRuJywgJzgnLCAnLW1hJywgJzIwMCcsICctbWV0YWxfYmluZGluZycsICctaW1hZScsICc8aW5maWxlLm1hZT4nLCAnLW9tYWUnLCAnPG91dGZpbGUubWFlPic=

> <r_lp_tautomer_probability>
1

> <r_epik_Ionization_Penalty>
0.156092

> <r_epik_Ionization_Penalty_Charging>
0

> <r_epik_Ionization_Penalty_Neutral>
0.156092

> <r_epik_State_Penalty>
0.145389

> <r_epik_Charging_Adjusted_Penalty>
0.145389

> <i_epik_Tot_Q>
1

> <i_epik_Tot_abs_Q>
1

> <r_epik_Metal_State_Penalty>
0.466304

> <b_epik_Metal_Only>
0

> <s_lp_Force_Field>
OPLS_2005

> <r_lp_Energy>
10.1208

> <b_lp_Chiralities_Consistent>
1

> <s_lp_Variant>
AV-unprocessed.smi:3099-1

> <Gold.Version>
5.8.1

> <Gold.Id.Protein>
6NUR|6NUR_protein|mol2

> <Gold.PLP.Fitness>
47.4877

> <Gold.PLP.PLP>
-37.8961

> <Gold.PLP.part.hbond>
-2.4532

> <Gold.PLP.part.metal>
0.0000

> <Gold.PLP.part.buried>
-0.7875

> <Gold.PLP.part.nonpolar>
-33.6304

> <Gold.PLP.part.repulsive>
0.0748

> <Gold.PLP.ligand.clash>
0.0000

> <Gold.PLP.ligand.torsion>
0.8252

> <Gold.PLP.Chemscore.Hbond>
2.7600

> <Gold.PLP.Chemscore.CHOScore>
0.8009

> <Gold.PLP.Chemscore.Metal>
0.0000

> <Gold.Chemscore.Hbonds>
donor molecule, donor type, donor heavy atom, donor atom, acceptor molecule, acceptor atom, score
      L1  H     4    33       P1  7948  1.78
      L1  H     9    25       P1  8028  1.00
      L1  C     3    19       P1  7949  0.50

> <Gold.PLP.Chemscore.Internal.Correction>
0.5594

> <Gold.Rescore>
     Score         DG    S(hbond)    S(metal)    S(lipo)     H(rot)  DE(clash)    DE(int)     intcor
     14.75     -16.47       1.93        0.00      82.44       1.99       0.02       1.70       ----

> <Gold.Chemscore.Fitness>
14.7531

> <Gold.Chemscore.DG>
-16.4746

> <Gold.Chemscore.ZeroCoef>
-5.4800

> <Gold.Chemscore.Hbond>
1.9295

> <Gold.Chemscore.Metal>
0.0000

> <Gold.Chemscore.Lipo>
82.4406

> <Gold.Chemscore.Internal_Hbond>
0.0000

> <Gold.Chemscore.DEClash>
0.0202

> <Gold.Chemscore.DEInternal>
1.7012

> <Gold.Chemscore.Rot>
1.9905

> <Gold.Chemscore.Internal.Correction>
   9.000000E+99

> <Gold.Chemscore.Hbonds>
donor molecule, donor type, donor heavy atom, donor atom, acceptor molecule, acceptor atom, score
      L1  H     4    33       P1  7948  0.79
      L1  H     9    25       P1  8028  1.00

> <Gold.Chemscore.Hbond.Weighted>
-6.4447

> <Gold.Chemscore.Metal.Weighted>
-0.0000

> <Gold.Chemscore.Lipo.Weighted>
-9.6455

> <Gold.Chemscore.Internal_Hbond.Weighted>
0.0000

> <Gold.Chemscore.DEClash.Weighted>
0.0202

> <Gold.Chemscore.DEInternal.Weighted>
1.7012

> <Gold.Chemscore.Rot.Weighted>
5.0957

> <Gold.Chemscore.Internal.Correction.Weighted>
   9.000000E+99

> <Gold.Protein.RotatedTorsions>
[ 6907 6896 6895 6894 ] final  150.93 input  -60.11 | X-H torsion
[ 7974 7965 7964 7962 ] final  -12.08 input  175.53 | X-H torsion
[ 8008 7997 7996 7995 ] final  163.22 input   59.86 | X-H torsion
[ 10167 10162 10161 10158 ] final -177.70 input  -65.29 | X-H torsion
[ 10718 10713 10712 10709 ] final   44.84 input   66.30 | X-H torsion
[ 10763 10752 10751 10750 ] final   29.25 input  -60.55 | X-H torsion
[ 11005 11000 10999 10996 ] final  113.05 input  -57.11 | X-H torsion

> <Gold.Protein.ActiveResidues>
 VAL166  LYS551  ARG553  GLY616  TRP617  ASP618  TYR619  PRO620  LYS621  CYS622 
 ASP623  PHE694  ASN695  SER759  ASP760  ASP761  ALA762  ILE779  LEU786  VAL792 
 PHE793  MET794  SER795  GLU796  ALA797  LYS798  CYS799  TRP800  GLU811  SER814 

> <Gold.Protein.RotatedAtoms>
  152.1077  133.4283  159.4616 H   0  0  0  0  0  0  0  0  0  0  0  0  # atno 6907 bound_to 6896
  150.6866  134.2685  159.4588 H   0  0  0  0  0  0  0  0  0  0  0  0  # atno 6908 bound_to 6896
  152.0551  134.9629  160.0625 H   0  0  0  0  0  0  0  0  0  0  0  0  # atno 6909 bound_to 6896
  146.2165  140.3006  142.8375 H   0  0  0  0  0  0  0  0  0  0  0  0  # atno 7974 bound_to 7965
  156.1973  140.1729  156.7971 H   0  0  0  0  0  0  0  0  0  0  0  0  # atno 8008 bound_to 7997
  154.5546  140.0711  156.8754 H   0  0  0  0  0  0  0  0  0  0  0  0  # atno 8009 bound_to 7997
  155.2962  140.3358  155.4252 H   0  0  0  0  0  0  0  0  0  0  0  0  # atno 8010 bound_to 7997
  139.5468  144.2215  152.1002 H   0  0  0  0  0  0  0  0  0  0  0  0  # atno 10167 bound_to 10162
  157.4311  130.8025  149.7604 H   0  0  0  0  0  0  0  0  0  0  0  0  # atno 10718 bound_to 10713
  153.0442  135.6493  154.0861 H   0  0  0  0  0  0  0  0  0  0  0  0  # atno 10763 bound_to 10752
  154.0562  135.2891  155.3334 H   0  0  0  0  0  0  0  0  0  0  0  0  # atno 10764 bound_to 10752
  154.6687  135.5364  153.8176 H   0  0  0  0  0  0  0  0  0  0  0  0  # atno 10765 bound_to 10752
  139.8943  134.9542  156.6680 H   0  0  0  0  0  0  0  0  0  0  0  0  # atno 11005 bound_to 11000
  144.9060  140.7700  143.5837 LP  0  0  0  0  0  0  0  0  0  0  0  0  # atno 17320 bound_to 7965
  145.2934  139.1875  143.4728 LP  0  0  0  0  0  0  0  0  0  0  0  0  # atno 17321 bound_to 7965
  140.1703  144.4942  150.6583 LP  0  0  0  0  0  0  0  0  0  0  0  0  # atno 17342 bound_to 10162
  140.6718  143.2289  151.5606 LP  0  0  0  0  0  0  0  0  0  0  0  0  # atno 17343 bound_to 10162
  155.9914  130.3938  150.2988 LP  0  0  0  0  0  0  0  0  0  0  0  0  # atno 17370 bound_to 10713
  157.1145  131.0230  151.3034 LP  0  0  0  0  0  0  0  0  0  0  0  0  # atno 17371 bound_to 10713
  140.7395  133.8989  155.8268 LP  0  0  0  0  0  0  0  0  0  0  0  0  # atno 17394 bound_to 11000
  141.0089  134.1048  157.4242 LP  0  0  0  0  0  0  0  0  0  0  0  0  # atno 17395 bound_to 11000

$$$$
