AV-unprocessed.smi:417|AV-procd|sdf|2527|dock6
  -GOLD-   2262022483D 1   1.00000     0.00000
 Structure written by MMmdl.
 37 38  0  0  0  0  0  0  0  0  1 V2000
  153.8294  135.7363  163.1578 C   0  0  0  0  0  0  0  0  0  0  0  0
  153.9928  135.6221  161.6331 C   0  0  0  0  0  0  0  0  0  0  0  0
  155.4668  135.4183  161.2446 C   0  0  0  0  0  0  0  0  0  0  0  0
  153.4114  136.8561  160.9289 C   0  0  0  0  0  0  0  0  0  0  0  0
  152.5261  136.7135  160.0844 O   0  0  0  0  0  0  0  0  0  0  0  0
  153.9306  138.0424  161.2981 N   0  0  0  0  0  0  0  0  0  0  0  0
  153.5771  139.3398  160.8406 C   0  0  0  0  0  0  0  0  0  0  0  0
  154.1363  140.4071  161.5745 C   0  0  0  0  0  0  0  0  0  0  0  0
  153.8373  141.7333  161.2088 C   0  0  0  0  0  0  0  0  0  0  0  0
  152.9768  141.9779  160.1119 C   0  0  0  0  0  0  0  0  0  0  0  0
  152.6268  143.2789  159.6896 N   0  0  0  0  0  0  0  0  0  0  0  0
  152.0949  144.2069  160.6836 C   0  0  0  0  0  0  0  0  0  0  0  0
  152.0543  145.6362  160.1163 C   0  0  0  0  0  0  0  0  0  0  0  0
  151.3135  145.6488  158.9010 O   0  0  0  0  0  0  0  0  0  0  0  0
  151.9151  144.8254  157.9074 C   0  0  0  0  0  0  0  0  0  0  0  0
  151.9568  143.3662  158.3939 C   0  0  0  0  0  0  0  0  0  0  0  0
  152.4750  140.8417  159.4361 C   0  0  0  0  0  0  0  0  0  0  0  0
  152.7615  139.5699  159.7842 N   0  0  0  0  0  0  0  0  0  0  0  0
  152.7876  135.9012  163.4351 H   0  0  0  0  0  0  0  0  0  0  0  0
  154.4174  136.5602  163.5644 H   0  0  0  0  0  0  0  0  0  0  0  0
  154.1572  134.8219  163.6528 H   0  0  0  0  0  0  0  0  0  0  0  0
  153.4361  134.7432  161.3035 H   0  0  0  0  0  0  0  0  0  0  0  0
  155.5840  135.3340  160.1634 H   0  0  0  0  0  0  0  0  0  0  0  0
  155.8639  134.5048  161.6879 H   0  0  0  0  0  0  0  0  0  0  0  0
  156.0903  136.2467  161.5838 H   0  0  0  0  0  0  0  0  0  0  0  0
  154.6587  138.0116  161.9966 H   0  0  0  0  0  0  0  0  0  0  0  0
  154.7868  140.2174  162.4160 H   0  0  0  0  0  0  0  0  0  0  0  0
  154.2658  142.5380  161.7869 H   0  0  0  0  0  0  0  0  0  0  0  0
  151.0902  143.8934  160.9704 H   0  0  0  0  0  0  0  0  0  0  0  0
  152.7141  144.1939  161.5813 H   0  0  0  0  0  0  0  0  0  0  0  0
  151.5782  146.3092  160.8295 H   0  0  0  0  0  0  0  0  0  0  0  0
  153.0629  146.0159  159.9444 H   0  0  0  0  0  0  0  0  0  0  0  0
  151.3342  144.8972  156.9879 H   0  0  0  0  0  0  0  0  0  0  0  0
  152.9187  145.1873  157.6785 H   0  0  0  0  0  0  0  0  0  0  0  0
  152.4524  142.7562  157.6398 H   0  0  0  0  0  0  0  0  0  0  0  0
  150.9419  142.9797  158.4969 H   0  0  0  0  0  0  0  0  0  0  0  0
  151.8320  140.9440  158.5747 H   0  0  0  0  0  0  0  0  0  0  0  0
  1  2  1  0  0  0  0
  1 19  1  0  0  0  0
  1 20  1  0  0  0  0
  1 21  1  0  0  0  0
  2  3  1  0  0  0  0
  2  4  1  0  0  0  0
  2 22  1  0  0  0  0
  3 23  1  0  0  0  0
  3 24  1  0  0  0  0
  3 25  1  0  0  0  0
  4  5  2  0  0  0  0
  4  6  1  0  0  0  0
  6  7  1  0  0  0  0
  6 26  1  0  0  0  0
  7 18  1  0  0  0  0
  7  8  2  0  0  0  0
  8  9  1  0  0  0  0
  8 27  1  0  0  0  0
  9 10  2  0  0  0  0
  9 28  1  0  0  0  0
 10 11  1  0  0  0  0
 10 17  1  0  0  0  0
 11 16  1  0  0  0  0
 11 12  1  0  0  0  0
 12 13  1  0  0  0  0
 12 29  1  0  0  0  0
 12 30  1  0  0  0  0
 13 14  1  0  0  0  0
 13 31  1  0  0  0  0
 13 32  1  0  0  0  0
 14 15  1  0  0  0  0
 15 16  1  0  0  0  0
 15 33  1  0  0  0  0
 15 34  1  0  0  0  0
 16 35  1  0  0  0  0
 16 36  1  0  0  0  0
 17 18  2  0  0  0  0
 17 37  1  0  0  0  0
M  END
> <s_m_source_file>
AV-unprocessed.smi

> <i_m_source_file_index>
417

> <i_lp_mmshare_version>
43012

> <i_f3d_flags>
0

> <s_epik_input>
W0NIM11bQ0hdKFtDSDNdKUMoPU8pW05IXWMxW2NIXVtjSF1jKFtjSF1uMSlOMltDSDJdW0NIMl1PW0NIMl1bQ0gyXTI=

> <s_epik_cmdline>
J2VwaWtfcHl0aG9uJywgJy1waCcsICc3LjAnLCAnLXRuJywgJzgnLCAnLW1hJywgJzIwMCcsICctbWV0YWxfYmluZGluZycsICctaW1hZScsICc8aW5maWxlLm1hZT4nLCAnLW9tYWUnLCAnPG91dGZpbGUubWFlPic=

> <r_lp_tautomer_probability>
1

> <r_epik_Ionization_Penalty>
0.00384847

> <r_epik_Ionization_Penalty_Charging>
0

> <r_epik_Ionization_Penalty_Neutral>
0.00384847

> <r_epik_State_Penalty>
0.00343319

> <r_epik_Charging_Adjusted_Penalty>
0.00343319

> <i_epik_Tot_Q>
0

> <i_epik_Tot_abs_Q>
0

> <r_epik_Metal_State_Penalty>
-0

> <b_epik_Metal_Only>
0

> <s_lp_Force_Field>
OPLS_2005

> <r_lp_Energy>
26.2331

> <b_lp_Chiralities_Consistent>
1

> <s_lp_Variant>
AV-unprocessed.smi:417-1

> <Gold.Version>
5.8.1

> <Gold.Id.Protein>
6NUR|6NUR_protein|mol2

> <Gold.PLP.Fitness>
41.7655

> <Gold.PLP.PLP>
-38.8959

> <Gold.PLP.part.hbond>
-1.9230

> <Gold.PLP.part.metal>
0.0000

> <Gold.PLP.part.buried>
-5.1335

> <Gold.PLP.part.nonpolar>
-31.2412

> <Gold.PLP.part.repulsive>
0.1509

> <Gold.PLP.ligand.clash>
0.0000

> <Gold.PLP.ligand.torsion>
0.2519

> <Gold.PLP.Chemscore.Hbond>
1.0000

> <Gold.PLP.Chemscore.CHOScore>
0.0000

> <Gold.PLP.Chemscore.Metal>
0.0000

> <Gold.Chemscore.Hbonds>
donor molecule, donor type, donor heavy atom, donor atom, acceptor molecule, acceptor atom, score
      P1  H  6896  6909       L1     5  1.00

> <Gold.PLP.Chemscore.Internal.Correction>
0.3735

> <Gold.Rescore>
     Score         DG    S(hbond)    S(metal)    S(lipo)     H(rot)  DE(clash)    DE(int)     intcor
     16.44     -17.93       1.00        0.00     103.62       1.18       0.00       1.49       ----

> <Gold.Chemscore.Fitness>
16.4434

> <Gold.Chemscore.DG>
-17.9343

> <Gold.Chemscore.ZeroCoef>
-5.4800

> <Gold.Chemscore.Hbond>
0.9997

> <Gold.Chemscore.Metal>
0.0000

> <Gold.Chemscore.Lipo>
103.6186

> <Gold.Chemscore.Internal_Hbond>
0.0000

> <Gold.Chemscore.DEClash>
0.0009

> <Gold.Chemscore.DEInternal>
1.4900

> <Gold.Chemscore.Rot>
1.1750

> <Gold.Chemscore.Internal.Correction>
   9.000000E+99

> <Gold.Chemscore.Hbonds>
donor molecule, donor type, donor heavy atom, donor atom, acceptor molecule, acceptor atom, score
      P1  H  6896  6909       L1     5  0.82

> <Gold.Chemscore.Hbond.Weighted>
-3.3390

> <Gold.Chemscore.Metal.Weighted>
-0.0000

> <Gold.Chemscore.Lipo.Weighted>
-12.1234

> <Gold.Chemscore.Internal_Hbond.Weighted>
0.0000

> <Gold.Chemscore.DEClash.Weighted>
0.0009

> <Gold.Chemscore.DEInternal.Weighted>
1.4900

> <Gold.Chemscore.Rot.Weighted>
3.0080

> <Gold.Chemscore.Internal.Correction.Weighted>
   9.000000E+99

> <Gold.Protein.RotatedTorsions>
[ 6907 6896 6895 6894 ] final  140.52 input  -60.11 | X-H torsion
[ 7974 7965 7964 7962 ] final   69.38 input  175.53 | X-H torsion
[ 8008 7997 7996 7995 ] final  145.30 input   59.86 | X-H torsion
[ 10167 10162 10161 10158 ] final -177.23 input  -65.29 | X-H torsion
[ 10718 10713 10712 10709 ] final -137.42 input   66.30 | X-H torsion
[ 10763 10752 10751 10750 ] final  -87.17 input  -60.55 | X-H torsion
[ 11005 11000 10999 10996 ] final  -67.39 input  -57.11 | X-H torsion

> <Gold.Protein.ActiveResidues>
 VAL166  LYS551  ARG553  GLY616  TRP617  ASP618  TYR619  PRO620  LYS621  CYS622 
 ASP623  PHE694  ASN695  SER759  ASP760  ASP761  ALA762  ILE779  LEU786  VAL792 
 PHE793  MET794  SER795  GLU796  ALA797  LYS798  CYS799  TRP800  GLU811  SER814 

> <Gold.Protein.RotatedAtoms>
  152.2420  133.5143  159.5275 H   0  0  0  0  0  0  0  0  0  0  0  0  # atno 6907 bound_to 6896
  150.7067  134.1075  159.3997 H   0  0  0  0  0  0  0  0  0  0  0  0  # atno 6908 bound_to 6896
  151.8996  135.0383  160.0556 H   0  0  0  0  0  0  0  0  0  0  0  0  # atno 6909 bound_to 6896
  145.7911  139.2934  143.1209 H   0  0  0  0  0  0  0  0  0  0  0  0  # atno 7974 bound_to 7965
  156.2886  140.2213  156.5193 H   0  0  0  0  0  0  0  0  0  0  0  0  # atno 8008 bound_to 7997
  154.7542  140.0478  157.0941 H   0  0  0  0  0  0  0  0  0  0  0  0  # atno 8009 bound_to 7997
  155.0072  140.3108  155.4847 H   0  0  0  0  0  0  0  0  0  0  0  0  # atno 8010 bound_to 7997
  139.5490  144.2158  152.1042 H   0  0  0  0  0  0  0  0  0  0  0  0  # atno 10167 bound_to 10162
  156.2879  130.7358  151.1375 H   0  0  0  0  0  0  0  0  0  0  0  0  # atno 10718 bound_to 10713
  154.6307  135.5423  153.7677 H   0  0  0  0  0  0  0  0  0  0  0  0  # atno 10763 bound_to 10752
  153.0283  135.6435  154.1305 H   0  0  0  0  0  0  0  0  0  0  0  0  # atno 10764 bound_to 10752
  154.1235  135.2919  155.3182 H   0  0  0  0  0  0  0  0  0  0  0  0  # atno 10765 bound_to 10752
  141.1507  133.6718  156.6285 H   0  0  0  0  0  0  0  0  0  0  0  0  # atno 11005 bound_to 11000
  145.9975  140.8549  143.0035 LP  0  0  0  0  0  0  0  0  0  0  0  0  # atno 17320 bound_to 7965
  144.6781  140.2305  143.7356 LP  0  0  0  0  0  0  0  0  0  0  0  0  # atno 17321 bound_to 7965
  140.1650  144.4990  150.6611 LP  0  0  0  0  0  0  0  0  0  0  0  0  # atno 17342 bound_to 10162
  140.6747  143.2300  151.5536 LP  0  0  0  0  0  0  0  0  0  0  0  0  # atno 17343 bound_to 10162
  157.7334  131.0591  150.5580 LP  0  0  0  0  0  0  0  0  0  0  0  0  # atno 17370 bound_to 10713
  156.5693  130.4275  149.6027 LP  0  0  0  0  0  0  0  0  0  0  0  0  # atno 17371 bound_to 10713
  140.3485  134.7789  157.4449 LP  0  0  0  0  0  0  0  0  0  0  0  0  # atno 17394 bound_to 11000
  140.0880  134.5640  155.8473 LP  0  0  0  0  0  0  0  0  0  0  0  0  # atno 17395 bound_to 11000

$$$$
