AV-unprocessed.smi:2402|AV-procd|sdf|9505|dock5
  -GOLD-   2272013133D 1   1.00000     0.00000
 Structure written by MMmdl.
 38 39  0  0  0  0  0  0  0  0  1 V2000
  152.1130  145.8940  160.3403 C   0  0  0  0  0  0  0  0  0  0  0  0
  152.1042  144.5340  159.6745 C   0  0  0  0  0  0  0  0  0  0  0  0
  152.9253  143.4925  160.1474 C   0  0  0  0  0  0  0  0  0  0  0  0
  152.8709  142.2503  159.4853 C   0  0  0  0  0  0  0  0  0  0  0  0
  153.7312  141.0890  159.9371 C   0  0  0  0  0  0  0  0  0  0  0  0
  152.0712  142.0163  158.4227 N   0  0  0  0  0  0  0  0  0  0  0  0
  151.2756  143.0116  157.9586 C   0  0  0  0  0  0  0  0  0  0  0  0
  150.4048  142.8702  156.8452 N   0  0  0  0  0  0  0  0  0  0  0  0
  150.1954  141.7794  156.0869 C   0  0  0  0  0  0  0  0  0  0  0  0
  150.7101  140.6753  156.2675 O   0  0  0  0  0  0  0  0  0  0  0  0
  149.3383  142.0393  155.0891 N   0  0  0  0  0  0  0  0  0  0  0  0
  148.9049  141.0683  154.0904 C   0  0  2  0  0  0  0  0  0  0  0  0
  147.6884  141.5669  153.3599 C   0  0  0  0  0  0  0  0  0  0  0  0
  146.6770  140.7022  153.3965 C   0  0  0  0  0  0  0  0  0  0  0  0
  147.0053  139.4498  154.1659 C   0  0  2  0  0  0  0  0  0  0  0  0
  145.9590  139.1462  155.2510 C   0  0  0  0  0  0  0  0  0  0  0  0
  144.6900  138.9497  154.6643 O   0  0  0  0  0  0  0  0  0  0  0  0
  148.4268  139.7334  154.7197 C   0  0  0  0  0  0  0  0  0  0  0  0
  151.2695  144.2877  158.5658 C   0  0  0  0  0  0  0  0  0  0  0  0
  149.6947  140.8939  153.3574 H   0  0  0  0  0  0  0  0  0  0  0  0
  147.0415  138.6292  153.4479 H   0  0  0  0  0  0  0  0  0  0  0  0
  152.9116  145.9686  161.0790 H   0  0  0  0  0  0  0  0  0  0  0  0
  151.1630  146.0730  160.8443 H   0  0  0  0  0  0  0  0  0  0  0  0
  152.2625  146.6787  159.5982 H   0  0  0  0  0  0  0  0  0  0  0  0
  153.5801  143.6417  160.9936 H   0  0  0  0  0  0  0  0  0  0  0  0
  154.1838  141.2876  160.9090 H   0  0  0  0  0  0  0  0  0  0  0  0
  154.5308  140.9108  159.2177 H   0  0  0  0  0  0  0  0  0  0  0  0
  153.1344  140.1803  160.0205 H   0  0  0  0  0  0  0  0  0  0  0  0
  149.8939  143.7009  156.5864 H   0  0  0  0  0  0  0  0  0  0  0  0
  148.9588  142.9716  155.0139 H   0  0  0  0  0  0  0  0  0  0  0  0
  147.6718  142.5203  152.8526 H   0  0  0  0  0  0  0  0  0  0  0  0
  145.7170  140.8512  152.9243 H   0  0  0  0  0  0  0  0  0  0  0  0
  146.2349  138.2600  155.8239 H   0  0  0  0  0  0  0  0  0  0  0  0
  145.8883  139.9765  155.9542 H   0  0  0  0  0  0  0  0  0  0  0  0
  144.6615  139.4178  153.8440 H   0  0  0  0  0  0  0  0  0  0  0  0
  149.1115  138.9194  154.4792 H   0  0  0  0  0  0  0  0  0  0  0  0
  148.4029  139.8079  155.8082 H   0  0  0  0  0  0  0  0  0  0  0  0
  150.6315  145.0731  158.1861 H   0  0  0  0  0  0  0  0  0  0  0  0
  1  2  1  0  0  0  0
  1 22  1  0  0  0  0
  1 23  1  0  0  0  0
  1 24  1  0  0  0  0
  2 19  1  0  0  0  0
  2  3  2  0  0  0  0
  3  4  1  0  0  0  0
  3 25  1  0  0  0  0
  4  5  1  0  0  0  0
  4  6  2  0  0  0  0
  5 26  1  0  0  0  0
  5 27  1  0  0  0  0
  5 28  1  0  0  0  0
  6  7  1  0  0  0  0
  7  8  1  0  0  0  0
  7 19  2  0  0  0  0
  8  9  1  0  0  0  0
  8 29  1  0  0  0  0
  9 10  2  0  0  0  0
  9 11  1  0  0  0  0
 11 12  1  0  0  0  0
 11 30  1  0  0  0  0
 12 20  1  0  0  0  0
 12 18  1  0  0  0  0
 12 13  1  0  0  0  0
 13 14  2  0  0  0  0
 13 31  1  0  0  0  0
 14 15  1  0  0  0  0
 14 32  1  0  0  0  0
 15 21  1  0  0  0  0
 15 16  1  0  0  0  0
 15 18  1  0  0  0  0
 16 17  1  0  0  0  0
 16 33  1  0  0  0  0
 16 34  1  0  0  0  0
 17 35  1  0  0  0  0
 18 36  1  0  0  0  0
 18 37  1  0  0  0  0
 19 38  1  0  0  0  0
M  END
> <s_m_source_file>
AV-unprocessed.smi

> <i_m_source_file_index>
2402

> <i_lp_mmshare_version>
43012

> <i_f3d_flags>
0

> <s_epik_input>
W0NIM11jMVtjSF1jKFtDSDNdKW5jKFtjSF0xKVtOSF1DKD1PKVtOSF1bQ0BASF0yW0NIXT1bQ0hdW0NAQEhdKFtDSDJdMilbQ0gyXVtPSF0=

> <s_epik_cmdline>
J2VwaWtfcHl0aG9uJywgJy1waCcsICc3LjAnLCAnLXRuJywgJzgnLCAnLW1hJywgJzIwMCcsICctbWV0YWxfYmluZGluZycsICctaW1hZScsICc8aW5maWxlLm1hZT4nLCAnLW9tYWUnLCAnPG91dGZpbGUubWFlPic=

> <r_lp_tautomer_probability>
1

> <r_epik_Ionization_Penalty>
0.000257495

> <r_epik_Ionization_Penalty_Charging>
0

> <r_epik_Ionization_Penalty_Neutral>
0.000257495

> <r_epik_State_Penalty>
-0

> <r_epik_Charging_Adjusted_Penalty>
0

> <i_epik_Tot_Q>
0

> <i_epik_Tot_abs_Q>
0

> <r_epik_Metal_State_Penalty>
-0

> <b_epik_Metal_Only>
0

> <s_lp_Force_Field>
OPLS_2005

> <r_lp_Energy>
18.4158

> <b_lp_Chiralities_Consistent>
1

> <s_lp_Variant>
AV-unprocessed.smi:2402-1

> <Gold.Version>
5.8.1

> <Gold.Id.Protein>
6NUR|6NUR_protein|mol2

> <Gold.PLP.Fitness>
46.7633

> <Gold.PLP.PLP>
-38.0478

> <Gold.PLP.part.hbond>
-3.0000

> <Gold.PLP.part.metal>
0.0000

> <Gold.PLP.part.buried>
-3.4213

> <Gold.PLP.part.nonpolar>
-31.8009

> <Gold.PLP.part.repulsive>
0.2646

> <Gold.PLP.ligand.clash>
0.0000

> <Gold.PLP.ligand.torsion>
0.1493

> <Gold.PLP.Chemscore.Hbond>
3.0000

> <Gold.PLP.Chemscore.CHOScore>
0.0000

> <Gold.PLP.Chemscore.Metal>
0.0000

> <Gold.Chemscore.Hbonds>
donor molecule, donor type, donor heavy atom, donor atom, acceptor molecule, acceptor atom, score
      L1  H     8    29       P1  8028  1.00
      L1  H    11    30       P1  8028  0.99
      L1  H    17    35       P1 10175  1.00

> <Gold.PLP.Chemscore.Internal.Correction>
0.0141

> <Gold.Rescore>
     Score         DG    S(hbond)    S(metal)    S(lipo)     H(rot)  DE(clash)    DE(int)     intcor
     17.96     -22.24       2.82        0.00     101.67       1.78       1.65       2.63       ----

> <Gold.Chemscore.Fitness>
17.9577

> <Gold.Chemscore.DG>
-22.2414

> <Gold.Chemscore.ZeroCoef>
-5.4800

> <Gold.Chemscore.Hbond>
2.8244

> <Gold.Chemscore.Metal>
0.0000

> <Gold.Chemscore.Lipo>
101.6745

> <Gold.Chemscore.Internal_Hbond>
0.0000

> <Gold.Chemscore.DEClash>
1.6514

> <Gold.Chemscore.DEInternal>
2.6322

> <Gold.Chemscore.Rot>
1.7844

> <Gold.Chemscore.Internal.Correction>
   9.000000E+99

> <Gold.Chemscore.Hbonds>
donor molecule, donor type, donor heavy atom, donor atom, acceptor molecule, acceptor atom, score
      L1  H     8    29       P1  8028  0.99
      L1  H    11    30       P1  8028  0.94
      L1  H    17    35       P1 10175  0.92

> <Gold.Chemscore.Hbond.Weighted>
-9.4336

> <Gold.Chemscore.Metal.Weighted>
-0.0000

> <Gold.Chemscore.Lipo.Weighted>
-11.8959

> <Gold.Chemscore.Internal_Hbond.Weighted>
0.0000

> <Gold.Chemscore.DEClash.Weighted>
1.6514

> <Gold.Chemscore.DEInternal.Weighted>
2.6322

> <Gold.Chemscore.Rot.Weighted>
4.5681

> <Gold.Chemscore.Internal.Correction.Weighted>
   9.000000E+99

> <Gold.Protein.RotatedTorsions>
[ 6907 6896 6895 6894 ] final -121.46 input  -60.11 | X-H torsion
[ 7974 7965 7964 7962 ] final  174.76 input  175.53 | X-H torsion
[ 8008 7997 7996 7995 ] final -162.94 input   59.86 | X-H torsion
[ 10167 10162 10161 10158 ] final  171.53 input  -65.29 | X-H torsion
[ 10718 10713 10712 10709 ] final  -11.58 input   66.30 | X-H torsion
[ 10763 10752 10751 10750 ] final  108.06 input  -60.55 | X-H torsion
[ 11005 11000 10999 10996 ] final   96.12 input  -57.11 | X-H torsion

> <Gold.Protein.ActiveResidues>
 VAL166  LYS551  ARG553  GLY616  TRP617  ASP618  TYR619  PRO620  LYS621  CYS622 
 ASP623  PHE694  ASN695  SER759  ASP760  ASP761  ALA762  ILE779  LEU786  VAL792 
 PHE793  MET794  SER795  GLU796  ALA797  LYS798  CYS799  TRP800  GLU811  SER814 

> <Gold.Protein.RotatedAtoms>
  150.8486  133.7823  159.3033 H   0  0  0  0  0  0  0  0  0  0  0  0  # atno 6907 bound_to 6896
  151.5502  135.1066  159.9957 H   0  0  0  0  0  0  0  0  0  0  0  0  # atno 6908 bound_to 6896
  152.4534  133.7631  159.6813 H   0  0  0  0  0  0  0  0  0  0  0  0  # atno 6909 bound_to 6896
  144.7215  139.9845  143.6439 H   0  0  0  0  0  0  0  0  0  0  0  0  # atno 7974 bound_to 7965
  155.8141  140.0910  157.1887 H   0  0  0  0  0  0  0  0  0  0  0  0  # atno 8008 bound_to 7997
  154.3979  140.1449  156.3481 H   0  0  0  0  0  0  0  0  0  0  0  0  # atno 8009 bound_to 7997
  155.8334  140.3441  155.5589 H   0  0  0  0  0  0  0  0  0  0  0  0  # atno 8010 bound_to 7997
  139.5049  144.3475  151.9956 H   0  0  0  0  0  0  0  0  0  0  0  0  # atno 10167 bound_to 10162
  156.6570  130.4971  149.6043 H   0  0  0  0  0  0  0  0  0  0  0  0  # atno 10718 bound_to 10713
  153.4154  135.3824  155.2077 H   0  0  0  0  0  0  0  0  0  0  0  0  # atno 10763 bound_to 10752
  154.8741  135.3804  154.4449 H   0  0  0  0  0  0  0  0  0  0  0  0  # atno 10764 bound_to 10752
  153.4963  135.7088  153.5919 H   0  0  0  0  0  0  0  0  0  0  0  0  # atno 10765 bound_to 10752
  139.8784  134.8934  156.4112 H   0  0  0  0  0  0  0  0  0  0  0  0  # atno 11005 bound_to 11000
  146.0461  139.3467  143.0668 LP  0  0  0  0  0  0  0  0  0  0  0  0  # atno 17320 bound_to 7965
  145.8274  140.9648  143.0867 LP  0  0  0  0  0  0  0  0  0  0  0  0  # atno 17321 bound_to 7965
  140.2912  144.3752  150.6088 LP  0  0  0  0  0  0  0  0  0  0  0  0  # atno 17342 bound_to 10162
  140.5945  143.2167  151.7190 LP  0  0  0  0  0  0  0  0  0  0  0  0  # atno 17343 bound_to 10162
  156.2040  130.6637  151.1198 LP  0  0  0  0  0  0  0  0  0  0  0  0  # atno 17370 bound_to 10713
  157.7122  131.0728  150.6459 LP  0  0  0  0  0  0  0  0  0  0  0  0  # atno 17371 bound_to 10713
  140.9199  133.7652  155.9893 LP  0  0  0  0  0  0  0  0  0  0  0  0  # atno 17394 bound_to 11000
  140.8452  134.3020  157.5298 LP  0  0  0  0  0  0  0  0  0  0  0  0  # atno 17395 bound_to 11000

$$$$
