AV-unprocessed.smi:1395|AV-procd|sdf|5669|dock8
  -GOLD-   22720 5293D 1   1.00000     0.00000
 Structure written by MMmdl.
 42 43  0  0  0  0  0  0  0  0  1 V2000
  148.0256  133.2446  152.9177 C   0  0  0  0  0  0  0  0  0  0  0  0
  148.9287  132.8698  154.0817 C   0  0  0  0  0  0  0  0  0  0  0  0
  149.0688  131.5114  154.4372 C   0  0  0  0  0  0  0  0  0  0  0  0
  149.9036  131.1667  155.5139 C   0  0  0  0  0  0  0  0  0  0  0  0
  150.5676  132.2020  156.1936 C   0  0  0  0  0  0  0  0  0  0  0  0
  150.4393  133.5026  155.8610 N   0  0  0  0  0  0  0  0  0  0  0  0
  149.6372  133.8526  154.8241 C   0  0  0  0  0  0  0  0  0  0  0  0
  149.4518  135.2043  154.4177 N   0  0  0  0  0  0  0  0  0  0  0  0
  149.4422  136.3142  155.1769 C   0  0  0  0  0  0  0  0  0  0  0  0
  149.6029  136.3464  156.3973 O   0  0  0  0  0  0  0  0  0  0  0  0
  149.2348  137.4079  154.4294 N   0  0  0  0  0  0  0  0  0  0  0  0
  149.1710  138.7755  154.9357 C   0  0  0  0  0  0  0  0  0  0  0  0
  150.5911  139.3183  155.1485 C   0  0  0  0  0  0  0  0  0  0  0  0
  150.5681  140.7098  155.8052 C   0  0  0  0  0  0  0  0  0  0  0  0
  149.8571  140.6598  157.0912 N   0  0  0  0  0  0  0  0  0  0  0  0
  149.8764  141.9578  157.8034 C   0  0  0  0  0  0  0  0  0  0  0  0
  151.1844  142.7462  157.6565 C   0  0  0  0  0  0  0  0  0  0  0  0
  151.1890  143.7647  156.7931 N   0  0  0  0  0  0  0  0  0  0  0  0
  152.1777  142.4375  158.3116 O   0  0  0  0  0  0  0  0  0  0  0  0
  148.4668  140.2408  156.8842 C   0  0  0  0  0  0  0  0  0  0  0  0
  148.4101  138.8310  156.2705 C   0  0  0  0  0  0  0  0  0  0  0  0
  147.5714  132.3618  152.4670 H   0  0  0  0  0  0  0  0  0  0  0  0
  148.5944  133.7608  152.1436 H   0  0  0  0  0  0  0  0  0  0  0  0
  147.2223  133.9004  153.2546 H   0  0  0  0  0  0  0  0  0  0  0  0
  148.5437  130.7399  153.8933 H   0  0  0  0  0  0  0  0  0  0  0  0
  150.0318  130.1363  155.8107 H   0  0  0  0  0  0  0  0  0  0  0  0
  151.2186  131.9813  157.0265 H   0  0  0  0  0  0  0  0  0  0  0  0
  149.3099  135.3406  153.4281 H   0  0  0  0  0  0  0  0  0  0  0  0
  149.1154  137.2881  153.4343 H   0  0  0  0  0  0  0  0  0  0  0  0
  148.6645  139.4107  154.2063 H   0  0  0  0  0  0  0  0  0  0  0  0
  151.1621  138.6339  155.7781 H   0  0  0  0  0  0  0  0  0  0  0  0
  151.1168  139.3708  154.1943 H   0  0  0  0  0  0  0  0  0  0  0  0
  151.5998  141.0336  155.9419 H   0  0  0  0  0  0  0  0  0  0  0  0
  150.0951  141.4354  155.1414 H   0  0  0  0  0  0  0  0  0  0  0  0
  149.0358  142.5704  157.4710 H   0  0  0  0  0  0  0  0  0  0  0  0
  149.7308  141.7861  158.8709 H   0  0  0  0  0  0  0  0  0  0  0  0
  152.0270  144.3118  156.6615 H   0  0  0  0  0  0  0  0  0  0  0  0
  150.3514  143.9826  156.2730 H   0  0  0  0  0  0  0  0  0  0  0  0
  147.9376  140.2293  157.8380 H   0  0  0  0  0  0  0  0  0  0  0  0
  147.9459  140.9532  156.2418 H   0  0  0  0  0  0  0  0  0  0  0  0
  147.3701  138.5381  156.1227 H   0  0  0  0  0  0  0  0  0  0  0  0
  148.8363  138.1133  156.9731 H   0  0  0  0  0  0  0  0  0  0  0  0
  1  2  1  0  0  0  0
  1 22  1  0  0  0  0
  1 23  1  0  0  0  0
  1 24  1  0  0  0  0
  2  7  1  0  0  0  0
  2  3  2  0  0  0  0
  3  4  1  0  0  0  0
  3 25  1  0  0  0  0
  4  5  2  0  0  0  0
  4 26  1  0  0  0  0
  5  6  1  0  0  0  0
  5 27  1  0  0  0  0
  6  7  2  0  0  0  0
  7  8  1  0  0  0  0
  8  9  1  0  0  0  0
  8 28  1  0  0  0  0
  9 10  2  0  0  0  0
  9 11  1  0  0  0  0
 11 12  1  0  0  0  0
 11 29  1  0  0  0  0
 12 21  1  0  0  0  0
 12 13  1  0  0  0  0
 12 30  1  0  0  0  0
 13 14  1  0  0  0  0
 13 31  1  0  0  0  0
 13 32  1  0  0  0  0
 14 15  1  0  0  0  0
 14 33  1  0  0  0  0
 14 34  1  0  0  0  0
 15 16  1  0  0  0  0
 15 20  1  0  0  0  0
 16 17  1  0  0  0  0
 16 35  1  0  0  0  0
 16 36  1  0  0  0  0
 17 18  1  0  0  0  0
 17 19  2  0  0  0  0
 18 37  1  0  0  0  0
 18 38  1  0  0  0  0
 20 21  1  0  0  0  0
 20 39  1  0  0  0  0
 20 40  1  0  0  0  0
 21 41  1  0  0  0  0
 21 42  1  0  0  0  0
M  END
> <s_m_source_file>
AV-unprocessed.smi

> <i_m_source_file_index>
1395

> <i_lp_mmshare_version>
43012

> <i_f3d_flags>
0

> <s_epik_input>
W0NIM11jMVtjSF1bY0hdW2NIXW5jMVtOSF1DKD1PKVtOSF1bQ0hdMltDSDJdW0NIMl1OKFtDSDJdW0NIMl0yKVtDSDJdQyg9TylbTkgyXQ==

> <s_epik_cmdline>
J2VwaWtfcHl0aG9uJywgJy1waCcsICc3LjAnLCAnLXRuJywgJzgnLCAnLW1hJywgJzIwMCcsICctbWV0YWxfYmluZGluZycsICctaW1hZScsICc8aW5maWxlLm1hZT4nLCAnLW9tYWUnLCAnPG91dGZpbGUubWFlPic=

> <r_epik_Ionization_Penalty>
0.164795

> <r_epik_Ionization_Penalty_Charging>
0

> <r_epik_Ionization_Penalty_Neutral>
0.164795

> <r_epik_State_Penalty>
0.154069

> <r_epik_Charging_Adjusted_Penalty>
0.154069

> <i_epik_Tot_Q>
0

> <i_epik_Tot_abs_Q>
0

> <r_epik_Metal_State_Penalty>
0.171366

> <b_epik_Metal_Only>
0

> <s_lp_Force_Field>
OPLS_2005

> <r_lp_Energy>
15.3703

> <b_lp_Chiralities_Consistent>
1

> <s_lp_Variant>
AV-unprocessed.smi:1395-1

> <Gold.Version>
5.8.1

> <Gold.Id.Protein>
6NUR|6NUR_protein|mol2

> <Gold.PLP.Fitness>
37.7532

> <Gold.PLP.PLP>
-30.9971

> <Gold.PLP.part.hbond>
-3.0000

> <Gold.PLP.part.metal>
0.0000

> <Gold.PLP.part.buried>
-3.8102

> <Gold.PLP.part.nonpolar>
-24.3808

> <Gold.PLP.part.repulsive>
0.1209

> <Gold.PLP.ligand.clash>
0.0000

> <Gold.PLP.ligand.torsion>
0.9751

> <Gold.PLP.Chemscore.Hbond>
2.9000

> <Gold.PLP.Chemscore.CHOScore>
0.0000

> <Gold.PLP.Chemscore.Metal>
0.0000

> <Gold.Chemscore.Hbonds>
donor molecule, donor type, donor heavy atom, donor atom, acceptor molecule, acceptor atom, score
      L1  H     8    28       P1  7948  0.95
      L1  H    11    29       P1  7948  1.00
      L1  H    18    38       P1  8028  1.00

> <Gold.PLP.Chemscore.Internal.Correction>
0.0065

> <Gold.Rescore>
     Score         DG    S(hbond)    S(metal)    S(lipo)     H(rot)  DE(clash)    DE(int)     intcor
     10.23     -13.39       2.03        0.00      52.13       1.94       0.01       3.15       ----

> <Gold.Chemscore.Fitness>
10.2340

> <Gold.Chemscore.DG>
-13.3886

> <Gold.Chemscore.ZeroCoef>
-5.4800

> <Gold.Chemscore.Hbond>
2.0275

> <Gold.Chemscore.Metal>
0.0000

> <Gold.Chemscore.Lipo>
52.1255

> <Gold.Chemscore.Internal_Hbond>
0.0000

> <Gold.Chemscore.DEClash>
0.0073

> <Gold.Chemscore.DEInternal>
3.1473

> <Gold.Chemscore.Rot>
1.9383

> <Gold.Chemscore.Internal.Correction>
   9.000000E+99

> <Gold.Chemscore.Hbonds>
donor molecule, donor type, donor heavy atom, donor atom, acceptor molecule, acceptor atom, score
      L1  H     8    28       P1  7948  0.21
      L1  H    11    29       P1  7948  0.97
      L1  H    18    38       P1  8028  1.00

> <Gold.Chemscore.Hbond.Weighted>
-6.7720

> <Gold.Chemscore.Metal.Weighted>
-0.0000

> <Gold.Chemscore.Lipo.Weighted>
-6.0987

> <Gold.Chemscore.Internal_Hbond.Weighted>
0.0000

> <Gold.Chemscore.DEClash.Weighted>
0.0073

> <Gold.Chemscore.DEInternal.Weighted>
3.1473

> <Gold.Chemscore.Rot.Weighted>
4.9620

> <Gold.Chemscore.Internal.Correction.Weighted>
   9.000000E+99

> <Gold.Protein.RotatedTorsions>
[ 6907 6896 6895 6894 ] final   72.02 input  -60.11 | X-H torsion
[ 7974 7965 7964 7962 ] final  109.13 input  175.53 | X-H torsion
[ 8008 7997 7996 7995 ] final  177.99 input   59.86 | X-H torsion
[ 10167 10162 10161 10158 ] final  -83.35 input  -65.29 | X-H torsion
[ 10718 10713 10712 10709 ] final -113.92 input   66.30 | X-H torsion
[ 10763 10752 10751 10750 ] final -120.12 input  -60.55 | X-H torsion
[ 11005 11000 10999 10996 ] final -140.84 input  -57.11 | X-H torsion

> <Gold.Protein.ActiveResidues>
 VAL166  LYS551  ARG553  GLY616  TRP617  ASP618  TYR619  PRO620  LYS621  CYS622 
 ASP623  PHE694  ASN695  SER759  ASP760  ASP761  ALA762  ILE779  LEU786  VAL792 
 PHE793  MET794  SER795  GLU796  ALA797  LYS798  CYS799  TRP800  GLU811  SER814 

> <Gold.Protein.RotatedAtoms>
  152.4844  134.4634  159.9612 H   0  0  0  0  0  0  0  0  0  0  0  0  # atno 6907 bound_to 6896
  151.4633  133.3581  159.2820 H   0  0  0  0  0  0  0  0  0  0  0  0  # atno 6908 bound_to 6896
  150.8942  134.8373  159.7375 H   0  0  0  0  0  0  0  0  0  0  0  0  # atno 6909 bound_to 6896
  145.2717  139.2664  143.3962 H   0  0  0  0  0  0  0  0  0  0  0  0  # atno 7974 bound_to 7965
  156.0595  140.1344  156.9957 H   0  0  0  0  0  0  0  0  0  0  0  0  # atno 8008 bound_to 7997
  154.4475  140.0994  156.6567 H   0  0  0  0  0  0  0  0  0  0  0  0  # atno 8009 bound_to 7997
  155.5399  140.3460  155.4446 H   0  0  0  0  0  0  0  0  0  0  0  0  # atno 8010 bound_to 7997
  140.4235  143.2575  151.8858 H   0  0  0  0  0  0  0  0  0  0  0  0  # atno 10167 bound_to 10162
  156.0797  130.5999  150.8706 H   0  0  0  0  0  0  0  0  0  0  0  0  # atno 10718 bound_to 10713
  154.8636  135.4214  154.2408 H   0  0  0  0  0  0  0  0  0  0  0  0  # atno 10763 bound_to 10752
  153.3374  135.6991  153.6902 H   0  0  0  0  0  0  0  0  0  0  0  0  # atno 10764 bound_to 10752
  153.5894  135.3557  155.2878 H   0  0  0  0  0  0  0  0  0  0  0  0  # atno 10765 bound_to 10752
  140.8383  134.2433  157.4823 H   0  0  0  0  0  0  0  0  0  0  0  0  # atno 11005 bound_to 11000
  146.3244  140.3162  142.8630 LP  0  0  0  0  0  0  0  0  0  0  0  0  # atno 17320 bound_to 7965
  144.9329  140.7995  143.5678 LP  0  0  0  0  0  0  0  0  0  0  0  0  # atno 17321 bound_to 7965
  139.4783  144.5412  151.8525 LP  0  0  0  0  0  0  0  0  0  0  0  0  # atno 17342 bound_to 10162
  140.4507  144.1859  150.5897 LP  0  0  0  0  0  0  0  0  0  0  0  0  # atno 17343 bound_to 10162
  157.5908  131.0944  150.9122 LP  0  0  0  0  0  0  0  0  0  0  0  0  # atno 17370 bound_to 10713
  156.9298  130.5345  149.5279 LP  0  0  0  0  0  0  0  0  0  0  0  0  # atno 17371 bound_to 10713
  139.8703  134.9622  156.4422 LP  0  0  0  0  0  0  0  0  0  0  0  0  # atno 17394 bound_to 11000
  140.8923  133.7839  155.9585 LP  0  0  0  0  0  0  0  0  0  0  0  0  # atno 17395 bound_to 11000

$$$$
