AV-unprocessed.smi:1528|AV-procd|sdf|6151|dock5
  -GOLD-   22720 6303D 1   1.00000     0.00000
 Structure written by MMmdl.
 34 35  0  0  0  0  0  0  0  0  1 V2000
  147.3079  140.1934  153.3528 C   0  0  0  0  0  0  0  0  0  0  0  0
  147.9014  141.5556  153.7365 C   0  0  0  0  0  0  0  0  0  0  0  0
  148.7914  141.4479  154.8865 N   0  0  0  0  0  0  0  0  0  0  0  0
  149.8921  140.6803  154.9420 C   0  0  0  0  0  0  0  0  0  0  0  0
  150.2620  139.9545  154.0189 O   0  0  0  0  0  0  0  0  0  0  0  0
  150.6343  140.7024  156.2470 C   0  0  0  0  0  0  0  0  0  0  0  0
  150.0727  141.2669  157.4131 C   0  0  0  0  0  0  0  0  0  0  0  0
  150.8272  141.2782  158.6019 C   0  0  0  0  0  0  0  0  0  0  0  0
  152.1331  140.7333  158.5975 C   0  0  0  0  0  0  0  0  0  0  0  0
  152.9075  140.7337  159.7781 N   0  0  0  0  0  0  0  0  0  0  0  0
  153.0208  142.0197  160.4621 C   0  0  0  0  0  0  0  0  0  0  0  0
  153.6122  141.8275  161.8694 C   0  0  0  0  0  0  0  0  0  0  0  0
  154.8536  141.1359  161.7814 O   0  0  0  0  0  0  0  0  0  0  0  0
  154.6981  139.8395  161.2145 C   0  0  0  0  0  0  0  0  0  0  0  0
  154.1502  139.9638  159.7830 C   0  0  0  0  0  0  0  0  0  0  0  0
  152.6721  140.1967  157.4753 N   0  0  0  0  0  0  0  0  0  0  0  0
  151.9461  140.1897  156.3373 C   0  0  0  0  0  0  0  0  0  0  0  0
  146.6696  140.2832  152.4738 H   0  0  0  0  0  0  0  0  0  0  0  0
  146.7014  139.7824  154.1605 H   0  0  0  0  0  0  0  0  0  0  0  0
  148.0925  139.4724  153.1214 H   0  0  0  0  0  0  0  0  0  0  0  0
  148.4746  141.9561  152.8999 H   0  0  0  0  0  0  0  0  0  0  0  0
  147.1050  142.2737  153.9391 H   0  0  0  0  0  0  0  0  0  0  0  0
  148.5514  141.9930  155.7017 H   0  0  0  0  0  0  0  0  0  0  0  0
  149.0779  141.6880  157.4094 H   0  0  0  0  0  0  0  0  0  0  0  0
  150.3929  141.6910  159.4999 H   0  0  0  0  0  0  0  0  0  0  0  0
  153.6648  142.6746  159.8736 H   0  0  0  0  0  0  0  0  0  0  0  0
  152.0568  142.5184  160.5489 H   0  0  0  0  0  0  0  0  0  0  0  0
  153.7783  142.7955  162.3424 H   0  0  0  0  0  0  0  0  0  0  0  0
  152.9211  141.2756  162.5088 H   0  0  0  0  0  0  0  0  0  0  0  0
  155.6656  139.3380  161.2035 H   0  0  0  0  0  0  0  0  0  0  0  0
  154.0332  139.2360  161.8346 H   0  0  0  0  0  0  0  0  0  0  0  0
  153.9794  138.9671  159.3745 H   0  0  0  0  0  0  0  0  0  0  0  0
  154.8839  140.4577  159.1445 H   0  0  0  0  0  0  0  0  0  0  0  0
  152.4324  139.7538  155.4766 H   0  0  0  0  0  0  0  0  0  0  0  0
  1  2  1  0  0  0  0
  1 18  1  0  0  0  0
  1 19  1  0  0  0  0
  1 20  1  0  0  0  0
  2  3  1  0  0  0  0
  2 21  1  0  0  0  0
  2 22  1  0  0  0  0
  3  4  1  0  0  0  0
  3 23  1  0  0  0  0
  4  5  2  0  0  0  0
  4  6  1  0  0  0  0
  6 17  1  0  0  0  0
  6  7  2  0  0  0  0
  7  8  1  0  0  0  0
  7 24  1  0  0  0  0
  8  9  2  0  0  0  0
  8 25  1  0  0  0  0
  9 10  1  0  0  0  0
  9 16  1  0  0  0  0
 10 15  1  0  0  0  0
 10 11  1  0  0  0  0
 11 12  1  0  0  0  0
 11 26  1  0  0  0  0
 11 27  1  0  0  0  0
 12 13  1  0  0  0  0
 12 28  1  0  0  0  0
 12 29  1  0  0  0  0
 13 14  1  0  0  0  0
 14 15  1  0  0  0  0
 14 30  1  0  0  0  0
 14 31  1  0  0  0  0
 15 32  1  0  0  0  0
 15 33  1  0  0  0  0
 16 17  2  0  0  0  0
 17 34  1  0  0  0  0
M  END
> <s_m_source_file>
AV-unprocessed.smi

> <i_m_source_file_index>
1528

> <i_lp_mmshare_version>
43012

> <i_f3d_flags>
0

> <s_epik_input>
W0NIM11bQ0gyXVtOSF1DKD1PKWMxW2NIXVtjSF1jKG5bY0hdMSlOMltDSDJdW0NIMl1PW0NIMl1bQ0gyXTI=

> <s_epik_cmdline>
J2VwaWtfcHl0aG9uJywgJy1waCcsICc3LjAnLCAnLXRuJywgJzgnLCAnLW1hJywgJzIwMCcsICctbWV0YWxfYmluZGluZycsICctaW1hZScsICc8aW5maWxlLm1hZT4nLCAnLW9tYWUnLCAnPG91dGZpbGUubWFlPic=

> <r_lp_tautomer_probability>
1

> <r_epik_Ionization_Penalty>
1.55122e-05

> <r_epik_Ionization_Penalty_Charging>
0

> <r_epik_Ionization_Penalty_Neutral>
1.55122e-05

> <r_epik_State_Penalty>
-0

> <r_epik_Charging_Adjusted_Penalty>
0

> <i_epik_Tot_Q>
0

> <i_epik_Tot_abs_Q>
0

> <r_epik_Metal_State_Penalty>
-0

> <b_epik_Metal_Only>
0

> <s_lp_Force_Field>
OPLS_2005

> <r_lp_Energy>
18.5854

> <b_lp_Chiralities_Consistent>
1

> <s_lp_Variant>
AV-unprocessed.smi:1528-1

> <Gold.Version>
5.8.1

> <Gold.Id.Protein>
6NUR|6NUR_protein|mol2

> <Gold.PLP.Fitness>
39.7632

> <Gold.PLP.PLP>
-33.9838

> <Gold.PLP.part.hbond>
-3.3667

> <Gold.PLP.part.metal>
0.0000

> <Gold.PLP.part.buried>
-4.4654

> <Gold.PLP.part.nonpolar>
-26.2865

> <Gold.PLP.part.repulsive>
1.2633

> <Gold.PLP.ligand.clash>
0.0000

> <Gold.PLP.ligand.torsion>
0.2693

> <Gold.PLP.Chemscore.Hbond>
1.9920

> <Gold.PLP.Chemscore.CHOScore>
0.0000

> <Gold.PLP.Chemscore.Metal>
0.0000

> <Gold.Chemscore.Hbonds>
donor molecule, donor type, donor heavy atom, donor atom, acceptor molecule, acceptor atom, score
      P1  H  7989  7998       L1     5  0.95
      P1  H  7997  8008       L1    16  1.00

> <Gold.PLP.Chemscore.Internal.Correction>
0.3419

> <Gold.Rescore>
     Score         DG    S(hbond)    S(metal)    S(lipo)     H(rot)  DE(clash)    DE(int)     intcor
     13.96     -15.70       1.75        0.00      63.40       1.18       0.13       1.62       ----

> <Gold.Chemscore.Fitness>
13.9559

> <Gold.Chemscore.DG>
-15.7040

> <Gold.Chemscore.ZeroCoef>
-5.4800

> <Gold.Chemscore.Hbond>
1.7483

> <Gold.Chemscore.Metal>
0.0000

> <Gold.Chemscore.Lipo>
63.3986

> <Gold.Chemscore.Internal_Hbond>
0.0000

> <Gold.Chemscore.DEClash>
0.1309

> <Gold.Chemscore.DEInternal>
1.6172

> <Gold.Chemscore.Rot>
1.1848

> <Gold.Chemscore.Internal.Correction>
   9.000000E+99

> <Gold.Chemscore.Hbonds>
donor molecule, donor type, donor heavy atom, donor atom, acceptor molecule, acceptor atom, score
      P1  H  7989  7998       L1     5  0.21
      P1  H  7997  8008       L1    16  0.33

> <Gold.Chemscore.Hbond.Weighted>
-5.8394

> <Gold.Chemscore.Metal.Weighted>
-0.0000

> <Gold.Chemscore.Lipo.Weighted>
-7.4176

> <Gold.Chemscore.Internal_Hbond.Weighted>
0.0000

> <Gold.Chemscore.DEClash.Weighted>
0.1309

> <Gold.Chemscore.DEInternal.Weighted>
1.6172

> <Gold.Chemscore.Rot.Weighted>
3.0331

> <Gold.Chemscore.Internal.Correction.Weighted>
   9.000000E+99

> <Gold.Protein.RotatedTorsions>
[ 6907 6896 6895 6894 ] final  111.49 input  -60.11 | X-H torsion
[ 7974 7965 7964 7962 ] final  116.22 input  175.53 | X-H torsion
[ 8008 7997 7996 7995 ] final  -70.52 input   59.86 | X-H torsion
[ 10167 10162 10161 10158 ] final   80.94 input  -65.29 | X-H torsion
[ 10718 10713 10712 10709 ] final  177.68 input   66.30 | X-H torsion
[ 10763 10752 10751 10750 ] final  139.92 input  -60.55 | X-H torsion
[ 11005 11000 10999 10996 ] final  -49.78 input  -57.11 | X-H torsion

> <Gold.Protein.ActiveResidues>
 VAL166  LYS551  ARG553  GLY616  TRP617  ASP618  TYR619  PRO620  LYS621  CYS622 
 ASP623  PHE694  ASN695  SER759  ASP760  ASP761  ALA762  ILE779  LEU786  VAL792 
 PHE793  MET794  SER795  GLU796  ALA797  LYS798  CYS799  TRP800  GLU811  SER814 

> <Gold.Protein.RotatedAtoms>
  152.4966  133.8650  159.7269 H   0  0  0  0  0  0  0  0  0  0  0  0  # atno 6907 bound_to 6896
  150.9151  133.6940  159.2852 H   0  0  0  0  0  0  0  0  0  0  0  0  # atno 6908 bound_to 6896
  151.4336  135.1016  159.9702 H   0  0  0  0  0  0  0  0  0  0  0  0  # atno 6909 bound_to 6896
  145.1823  139.3043  143.4411 H   0  0  0  0  0  0  0  0  0  0  0  0  # atno 7974 bound_to 7965
  154.5018  140.0833  156.7814 H   0  0  0  0  0  0  0  0  0  0  0  0  # atno 8008 bound_to 7997
  155.3985  140.3436  155.4237 H   0  0  0  0  0  0  0  0  0  0  0  0  # atno 8009 bound_to 7997
  156.1466  140.1545  156.8824 H   0  0  0  0  0  0  0  0  0  0  0  0  # atno 8010 bound_to 7997
  139.9445  144.6068  150.8220 H   0  0  0  0  0  0  0  0  0  0  0  0  # atno 10167 bound_to 10162
  156.9017  130.9881  151.3034 H   0  0  0  0  0  0  0  0  0  0  0  0  # atno 10718 bound_to 10713
  153.9141  135.3008  155.3448 H   0  0  0  0  0  0  0  0  0  0  0  0  # atno 10763 bound_to 10752
  154.7608  135.4935  153.9464 H   0  0  0  0  0  0  0  0  0  0  0  0  # atno 10764 bound_to 10752
  153.1177  135.6774  153.9492 H   0  0  0  0  0  0  0  0  0  0  0  0  # atno 10765 bound_to 10752
  141.0778  133.6661  156.3635 H   0  0  0  0  0  0  0  0  0  0  0  0  # atno 11005 bound_to 11000
  146.3451  140.2007  142.8589 LP  0  0  0  0  0  0  0  0  0  0  0  0  # atno 17320 bound_to 7965
  145.0124  140.8725  143.5216 LP  0  0  0  0  0  0  0  0  0  0  0  0  # atno 17321 bound_to 7965
  140.7601  143.3144  151.2768 LP  0  0  0  0  0  0  0  0  0  0  0  0  # atno 17342 bound_to 10162
  139.6678  144.0074  152.2734 LP  0  0  0  0  0  0  0  0  0  0  0  0  # atno 17343 bound_to 10162
  157.6022  130.8521  149.8819 LP  0  0  0  0  0  0  0  0  0  0  0  0  # atno 17370 bound_to 10713
  156.0579  130.3705  150.1050 LP  0  0  0  0  0  0  0  0  0  0  0  0  # atno 17371 bound_to 10713
  140.5534  134.6005  157.5414 LP  0  0  0  0  0  0  0  0  0  0  0  0  # atno 17394 bound_to 11000
  139.9591  134.7483  156.0276 LP  0  0  0  0  0  0  0  0  0  0  0  0  # atno 17395 bound_to 11000

$$$$
