AV-unprocessed.smi:140|AV-procd|sdf|1185|dock8
  -GOLD-   2262018343D 1   1.00000     0.00000
 Structure written by MMmdl.
 52 55  0  0  0  0  0  0  0  0  1 V2000
  146.8311  139.7966  153.8373 C   0  0  0  0  0  0  0  0  0  0  0  0
  147.8540  138.7939  154.2655 C   0  0  0  0  0  0  0  0  0  0  0  0
  149.2032  138.9318  154.4044 C   0  0  0  0  0  0  0  0  0  0  0  0
  149.7452  137.6869  154.8301 C   0  0  0  0  0  0  0  0  0  0  0  0
  151.1606  137.3562  155.1334 C   0  0  0  0  0  0  0  0  0  0  0  0
  151.5558  136.2087  155.3452 O   0  0  0  0  0  0  0  0  0  0  0  0
  152.1303  138.5519  155.1820 C   0  0  0  0  0  0  0  0  0  0  0  0
  152.1531  139.2167  156.4791 N   0  0  0  0  0  0  0  0  0  0  0  0
  152.7890  138.5509  157.5568 C   0  0  0  0  0  0  0  0  0  0  0  0
  153.3131  137.4435  157.4257 O   0  0  0  0  0  0  0  0  0  0  0  0
  152.7786  139.2893  158.8151 C   0  0  0  0  0  0  0  0  0  0  0  0
  153.3468  138.7492  159.9065 F   0  0  0  0  0  0  0  0  0  0  0  0
  152.2086  140.5106  158.9041 C   0  0  0  0  0  0  0  0  0  0  0  0
  151.6050  141.1427  157.8294 N   0  0  0  0  0  0  0  0  0  0  0  0
  150.9881  142.5187  157.9503 C   0  0  2  0  0  0  0  0  0  0  0  0
  151.7139  143.5179  157.0324 C   0  0  0  0  0  0  0  0  0  0  0  0
  151.9791  144.6855  157.9603 C   0  0  0  0  0  0  0  0  0  0  0  0
  152.1314  143.9882  159.3042 C   0  0  0  0  0  0  0  0  0  0  0  0
  151.1227  142.9868  159.2624 O   0  0  0  0  0  0  0  0  0  0  0  0
  151.5669  140.5018  156.5724 C   0  0  0  0  0  0  0  0  0  0  0  0
  151.0516  141.0552  155.5979 O   0  0  0  0  0  0  0  0  0  0  0  0
  148.6999  136.7965  154.9270 C   0  0  0  0  0  0  0  0  0  0  0  0
  148.6735  135.3402  155.3002 C   0  0  0  0  0  0  0  0  0  0  0  0
  147.5296  137.4857  154.6041 N   0  0  0  0  0  0  0  0  0  0  0  0
  146.1769  136.9329  154.6070 C   0  0  0  0  0  0  0  0  0  0  0  0
  145.8144  136.1651  153.3694 C   0  0  0  0  0  0  0  0  0  0  0  0
  145.6797  136.6819  152.1057 C   0  0  0  0  0  0  0  0  0  0  0  0
  145.3354  135.7039  151.1269 C   0  0  0  0  0  0  0  0  0  0  0  0
  145.2098  134.4466  151.6538 C   0  0  0  0  0  0  0  0  0  0  0  0
  145.5162  134.4393  153.3681 S   0  0  0  0  0  0  0  0  0  0  0  0
  147.3080  140.7126  153.4883 H   0  0  0  0  0  0  0  0  0  0  0  0
  146.1720  140.0585  154.6650 H   0  0  0  0  0  0  0  0  0  0  0  0
  146.2202  139.4091  153.0216 H   0  0  0  0  0  0  0  0  0  0  0  0
  149.7473  139.8465  154.2199 H   0  0  0  0  0  0  0  0  0  0  0  0
  153.1492  138.2403  154.9469 H   0  0  0  0  0  0  0  0  0  0  0  0
  151.8729  139.2930  154.4239 H   0  0  0  0  0  0  0  0  0  0  0  0
  152.2374  140.9997  159.8654 H   0  0  0  0  0  0  0  0  0  0  0  0
  149.9273  142.3942  157.7250 H   0  0  0  0  0  0  0  0  0  0  0  0
  152.6550  143.0916  156.6807 H   0  0  0  0  0  0  0  0  0  0  0  0
  151.0985  143.7787  156.1713 H   0  0  0  0  0  0  0  0  0  0  0  0
  152.8578  145.2660  157.6779 H   0  0  0  0  0  0  0  0  0  0  0  0
  151.1170  145.3536  157.9804 H   0  0  0  0  0  0  0  0  0  0  0  0
  153.1160  143.5272  159.3913 H   0  0  0  0  0  0  0  0  0  0  0  0
  151.9909  144.6633  160.1485 H   0  0  0  0  0  0  0  0  0  0  0  0
  149.5291  134.8120  154.8808 H   0  0  0  0  0  0  0  0  0  0  0  0
  147.7897  134.8282  154.9223 H   0  0  0  0  0  0  0  0  0  0  0  0
  148.6988  135.2188  156.3831 H   0  0  0  0  0  0  0  0  0  0  0  0
  146.0605  136.2980  155.4855 H   0  0  0  0  0  0  0  0  0  0  0  0
  145.4619  137.7421  154.7519 H   0  0  0  0  0  0  0  0  0  0  0  0
  145.8169  137.7225  151.8511 H   0  0  0  0  0  0  0  0  0  0  0  0
  145.1940  135.9534  150.0856 H   0  0  0  0  0  0  0  0  0  0  0  0
  144.9586  133.5288  151.1431 H   0  0  0  0  0  0  0  0  0  0  0  0
  1  2  1  0  0  0  0
  1 31  1  0  0  0  0
  1 32  1  0  0  0  0
  1 33  1  0  0  0  0
  2 24  1  0  0  0  0
  2  3  2  0  0  0  0
  3  4  1  0  0  0  0
  3 34  1  0  0  0  0
  4  5  1  0  0  0  0
  4 22  2  0  0  0  0
  5  6  2  0  0  0  0
  5  7  1  0  0  0  0
  7  8  1  0  0  0  0
  7 35  1  0  0  0  0
  7 36  1  0  0  0  0
  8 20  1  0  0  0  0
  8  9  1  0  0  0  0
  9 10  2  0  0  0  0
  9 11  1  0  0  0  0
 11 12  1  0  0  0  0
 11 13  2  0  0  0  0
 13 14  1  0  0  0  0
 13 37  1  0  0  0  0
 14 15  1  0  0  0  0
 14 20  1  0  0  0  0
 15 19  1  0  0  0  0
 15 16  1  0  0  0  0
 15 38  1  0  0  0  0
 16 17  1  0  0  0  0
 16 39  1  0  0  0  0
 16 40  1  0  0  0  0
 17 18  1  0  0  0  0
 17 41  1  0  0  0  0
 17 42  1  0  0  0  0
 18 19  1  0  0  0  0
 18 43  1  0  0  0  0
 18 44  1  0  0  0  0
 20 21  2  0  0  0  0
 22 23  1  0  0  0  0
 22 24  1  0  0  0  0
 23 45  1  0  0  0  0
 23 46  1  0  0  0  0
 23 47  1  0  0  0  0
 24 25  1  0  0  0  0
 25 26  1  0  0  0  0
 25 48  1  0  0  0  0
 25 49  1  0  0  0  0
 26 30  1  0  0  0  0
 26 27  2  0  0  0  0
 27 28  1  0  0  0  0
 27 50  1  0  0  0  0
 28 29  2  0  0  0  0
 28 51  1  0  0  0  0
 29 30  1  0  0  0  0
 29 52  1  0  0  0  0
M  END
> <s_m_source_file>
AV-unprocessed.smi

> <i_m_source_file_index>
140

> <i_lp_mmshare_version>
43012

> <i_f3d_flags>
0

> <s_epik_input>
czFbY0hdW2NIXVtjSF1jMVtDSDJdbjJjKFtDSDNdKWMoW2NIXWMyW0NIM10pQyg9TylbQ0gyXW4zYyg9TyljKEYpW2NIXW4oYzM9TylbQ0BASF00W0NIMl1bQ0gyXVtDSDJdTzQ=

> <s_epik_cmdline>
J2VwaWtfcHl0aG9uJywgJy1waCcsICc3LjAnLCAnLXRuJywgJzgnLCAnLW1hJywgJzIwMCcsICctbWV0YWxfYmluZGluZycsICctaW1hZScsICc8aW5maWxlLm1hZT4nLCAnLW9tYWUnLCAnPG91dGZpbGUubWFlPic=

> <r_lp_tautomer_probability>
1

> <r_epik_Ionization_Penalty>
5.024e-09

> <r_epik_Ionization_Penalty_Charging>
5.01743e-09

> <r_epik_Ionization_Penalty_Neutral>
6.5712e-12

> <r_epik_State_Penalty>
-0

> <r_epik_Charging_Adjusted_Penalty>
5.01743e-09

> <i_epik_Tot_Q>
0

> <i_epik_Tot_abs_Q>
0

> <r_epik_Metal_State_Penalty>
-0

> <b_epik_Metal_Only>
0

> <s_epik_Chemistry_Notes>
This compound contains an acetal/aminal-like group ( X-CH(R)-Y where X, Y are N, S, or O) that may be acid/base labile, releasing an aldehyde.

> <s_lp_Force_Field>
OPLS_2005

> <r_lp_Energy>
39.7817

> <b_lp_Chiralities_Consistent>
1

> <s_lp_Variant>
AV-unprocessed.smi:140-1

> <Gold.Version>
5.8.1

> <Gold.Id.Protein>
6NUR|6NUR_protein|mol2

> <Gold.PLP.Fitness>
49.6690

> <Gold.PLP.PLP>
-47.2603

> <Gold.PLP.part.hbond>
-2.0000

> <Gold.PLP.part.metal>
0.0000

> <Gold.PLP.part.buried>
-3.3697

> <Gold.PLP.part.nonpolar>
-41.9234

> <Gold.PLP.part.repulsive>
0.1881

> <Gold.PLP.ligand.clash>
0.0000

> <Gold.PLP.ligand.torsion>
0.8751

> <Gold.PLP.Chemscore.Hbond>
1.3458

> <Gold.PLP.Chemscore.CHOScore>
0.0000

> <Gold.PLP.Chemscore.Metal>
0.0000

> <Gold.Chemscore.Hbonds>
donor molecule, donor type, donor heavy atom, donor atom, acceptor molecule, acceptor atom, score
      P1  H  7989  7998       L1    21  0.42
      P1  H 10752 10764       L1     6  1.00

> <Gold.PLP.Chemscore.Internal.Correction>
0.1215

> <Gold.Rescore>
     Score         DG    S(hbond)    S(metal)    S(lipo)     H(rot)  DE(clash)    DE(int)     intcor
     12.39     -17.68       1.50        0.00     102.34       1.87       1.16       4.12       ----

> <Gold.Chemscore.Fitness>
12.3949

> <Gold.Chemscore.DG>
-17.6754

> <Gold.Chemscore.ZeroCoef>
-5.4800

> <Gold.Chemscore.Hbond>
1.5005

> <Gold.Chemscore.Metal>
0.0000

> <Gold.Chemscore.Lipo>
102.3421

> <Gold.Chemscore.Internal_Hbond>
0.0000

> <Gold.Chemscore.DEClash>
1.1610

> <Gold.Chemscore.DEInternal>
4.1195

> <Gold.Chemscore.Rot>
1.8713

> <Gold.Chemscore.Internal.Correction>
   9.000000E+99

> <Gold.Chemscore.Hbonds>
donor molecule, donor type, donor heavy atom, donor atom, acceptor molecule, acceptor atom, score
      P1  H  7989  7998       L1    21  0.41
      P1  H 10752 10764       L1     6  1.00

> <Gold.Chemscore.Hbond.Weighted>
-5.0118

> <Gold.Chemscore.Metal.Weighted>
-0.0000

> <Gold.Chemscore.Lipo.Weighted>
-11.9740

> <Gold.Chemscore.Internal_Hbond.Weighted>
0.0000

> <Gold.Chemscore.DEClash.Weighted>
1.1610

> <Gold.Chemscore.DEInternal.Weighted>
4.1195

> <Gold.Chemscore.Rot.Weighted>
4.7905

> <Gold.Chemscore.Internal.Correction.Weighted>
   9.000000E+99

> <Gold.Protein.RotatedTorsions>
[ 6907 6896 6895 6894 ] final  -23.97 input  -60.11 | X-H torsion
[ 7974 7965 7964 7962 ] final   33.72 input  175.53 | X-H torsion
[ 8008 7997 7996 7995 ] final   61.75 input   59.86 | X-H torsion
[ 10167 10162 10161 10158 ] final  -24.62 input  -65.29 | X-H torsion
[ 10718 10713 10712 10709 ] final   58.68 input   66.30 | X-H torsion
[ 10763 10752 10751 10750 ] final  -39.58 input  -60.55 | X-H torsion
[ 11005 11000 10999 10996 ] final -138.03 input  -57.11 | X-H torsion

> <Gold.Protein.ActiveResidues>
 VAL166  LYS551  ARG553  GLY616  TRP617  ASP618  TYR619  PRO620  LYS621  CYS622 
 ASP623  PHE694  ASN695  SER759  ASP760  ASP761  ALA762  ILE779  LEU786  VAL792 
 PHE793  MET794  SER795  GLU796  ALA797  LYS798  CYS799  TRP800  GLU811  SER814 

> <Gold.Protein.RotatedAtoms>
  151.1963  135.0424  159.8853 H   0  0  0  0  0  0  0  0  0  0  0  0  # atno 6907 bound_to 6896
  152.5436  134.0900  159.8283 H   0  0  0  0  0  0  0  0  0  0  0  0  # atno 6908 bound_to 6896
  151.1035  133.5178  159.2641 H   0  0  0  0  0  0  0  0  0  0  0  0  # atno 6909 bound_to 6896
  146.1402  139.6361  142.9168 H   0  0  0  0  0  0  0  0  0  0  0  0  # atno 7974 bound_to 7965
  155.6034  140.3494  155.4600 H   0  0  0  0  0  0  0  0  0  0  0  0  # atno 8008 bound_to 7997
  156.0210  140.1254  157.0381 H   0  0  0  0  0  0  0  0  0  0  0  0  # atno 8009 bound_to 7997
  154.4315  140.1062  156.5950 H   0  0  0  0  0  0  0  0  0  0  0  0  # atno 8010 bound_to 7997
  140.7288  143.4337  151.0763 H   0  0  0  0  0  0  0  0  0  0  0  0  # atno 10167 bound_to 10162
  157.5616  130.8839  149.9120 H   0  0  0  0  0  0  0  0  0  0  0  0  # atno 10718 bound_to 10713
  153.9318  135.6771  153.4745 H   0  0  0  0  0  0  0  0  0  0  0  0  # atno 10763 bound_to 10752
  153.0976  135.4844  154.8804 H   0  0  0  0  0  0  0  0  0  0  0  0  # atno 10764 bound_to 10752
  154.7424  135.3164  154.8662 H   0  0  0  0  0  0  0  0  0  0  0  0  # atno 10765 bound_to 10752
  140.8654  134.2117  157.4683 H   0  0  0  0  0  0  0  0  0  0  0  0  # atno 11005 bound_to 11000
  145.5065  141.0436  143.2512 LP  0  0  0  0  0  0  0  0  0  0  0  0  # atno 17320 bound_to 7965
  144.7784  139.6580  143.7165 LP  0  0  0  0  0  0  0  0  0  0  0  0  # atno 17321 bound_to 7965
  139.7996  143.8102  152.3161 LP  0  0  0  0  0  0  0  0  0  0  0  0  # atno 17342 bound_to 10162
  139.8114  144.7334  150.9692 LP  0  0  0  0  0  0  0  0  0  0  0  0  # atno 17343 bound_to 10162
  156.0668  130.3691  150.0862 LP  0  0  0  0  0  0  0  0  0  0  0  0  # atno 17370 bound_to 10713
  156.9025  130.9625  151.3574 LP  0  0  0  0  0  0  0  0  0  0  0  0  # atno 17371 bound_to 10713
  139.8709  134.9749  156.4865 LP  0  0  0  0  0  0  0  0  0  0  0  0  # atno 17394 bound_to 11000
  140.8634  133.8042  155.9289 LP  0  0  0  0  0  0  0  0  0  0  0  0  # atno 17395 bound_to 11000

$$$$
