AV-unprocessed.smi:2021|AV-procd|sdf|8180|dock4
  -GOLD-   2272010433D 1   1.00000     0.00000
 Structure written by MMmdl.
 41 42  0  0  0  0  0  0  0  0  1 V2000
  153.4556  141.9793  159.5657 C   0  0  0  0  0  0  0  0  0  0  0  0
  152.4282  142.8079  158.7783 C   0  0  0  0  0  0  0  0  0  0  0  0
  152.3994  144.2500  159.3132 C   0  0  0  0  0  0  0  0  0  0  0  0
  151.0292  142.1498  158.8261 C   0  0  0  0  0  0  0  0  0  0  0  0
  150.7192  141.2429  157.7197 N   0  0  0  0  0  0  0  0  0  0  0  0
  151.9137  140.7134  157.0671 C   0  0  0  0  0  0  0  0  0  0  0  0
  151.5629  139.7930  155.8860 C   0  0  0  0  0  0  0  0  0  0  0  0
  150.7381  140.4945  154.9623 O   0  0  0  0  0  0  0  0  0  0  0  0
  149.5289  140.9707  155.5490 C   0  0  2  0  0  0  0  0  0  0  0  0
  148.7100  141.6923  154.4649 C   0  0  0  0  0  0  0  0  0  0  0  0
  148.3385  140.7902  153.3802 N   0  0  0  0  0  0  0  0  0  0  0  0
  147.3368  139.9008  153.4279 C   0  0  0  0  0  0  0  0  0  0  0  0
  146.5924  139.7698  154.3994 O   0  0  0  0  0  0  0  0  0  0  0  0
  147.2661  139.1876  152.2925 N   0  0  0  0  0  0  0  0  0  0  0  0
  146.3673  138.1380  151.9770 C   0  0  0  0  0  0  0  0  0  0  0  0
  146.4773  137.5563  150.7767 N   0  0  0  0  0  0  0  0  0  0  0  0
  145.5418  136.5440  150.6013 N   0  0  0  0  0  0  0  0  0  0  0  0
  144.7617  136.4021  151.6772 C   0  0  0  0  0  0  0  0  0  0  0  0
  145.0911  137.4912  153.0129 S   0  0  0  0  0  0  0  0  0  0  0  0
  149.8868  141.9055  156.7208 C   0  0  0  0  0  0  0  0  0  0  0  0
  153.1796  141.8991  160.6175 H   0  0  0  0  0  0  0  0  0  0  0  0
  154.4474  142.4296  159.5147 H   0  0  0  0  0  0  0  0  0  0  0  0
  153.5358  140.9687  159.1639 H   0  0  0  0  0  0  0  0  0  0  0  0
  152.7722  142.8324  157.7433 H   0  0  0  0  0  0  0  0  0  0  0  0
  152.1029  144.2759  160.3622 H   0  0  0  0  0  0  0  0  0  0  0  0
  151.6997  144.8742  158.7590 H   0  0  0  0  0  0  0  0  0  0  0  0
  153.3819  144.7163  159.2360 H   0  0  0  0  0  0  0  0  0  0  0  0
  150.9602  141.5767  159.7518 H   0  0  0  0  0  0  0  0  0  0  0  0
  150.2565  142.9156  158.9100 H   0  0  0  0  0  0  0  0  0  0  0  0
  152.5380  141.5352  156.7130 H   0  0  0  0  0  0  0  0  0  0  0  0
  152.5115  140.1463  157.7797 H   0  0  0  0  0  0  0  0  0  0  0  0
  152.4697  139.4656  155.3775 H   0  0  0  0  0  0  0  0  0  0  0  0
  151.0491  138.8958  156.2346 H   0  0  0  0  0  0  0  0  0  0  0  0
  148.9579  140.1223  155.9310 H   0  0  0  0  0  0  0  0  0  0  0  0
  147.8121  142.1359  154.8988 H   0  0  0  0  0  0  0  0  0  0  0  0
  149.2885  142.5152  154.0446 H   0  0  0  0  0  0  0  0  0  0  0  0
  148.9028  140.8298  152.5442 H   0  0  0  0  0  0  0  0  0  0  0  0
  147.9412  139.4103  151.5762 H   0  0  0  0  0  0  0  0  0  0  0  0
  143.9870  135.6497  151.6844 H   0  0  0  0  0  0  0  0  0  0  0  0
  148.9676  142.2623  157.1872 H   0  0  0  0  0  0  0  0  0  0  0  0
  150.4032  142.7871  156.3370 H   0  0  0  0  0  0  0  0  0  0  0  0
  1  2  1  0  0  0  0
  1 21  1  0  0  0  0
  1 22  1  0  0  0  0
  1 23  1  0  0  0  0
  2  3  1  0  0  0  0
  2  4  1  0  0  0  0
  2 24  1  0  0  0  0
  3 25  1  0  0  0  0
  3 26  1  0  0  0  0
  3 27  1  0  0  0  0
  4  5  1  0  0  0  0
  4 28  1  0  0  0  0
  4 29  1  0  0  0  0
  5 20  1  0  0  0  0
  5  6  1  0  0  0  0
  6  7  1  0  0  0  0
  6 30  1  0  0  0  0
  6 31  1  0  0  0  0
  7  8  1  0  0  0  0
  7 32  1  0  0  0  0
  7 33  1  0  0  0  0
  8  9  1  0  0  0  0
  9 10  1  0  0  0  0
  9 20  1  0  0  0  0
  9 34  1  0  0  0  0
 10 11  1  0  0  0  0
 10 35  1  0  0  0  0
 10 36  1  0  0  0  0
 11 12  1  0  0  0  0
 11 37  1  0  0  0  0
 12 13  2  0  0  0  0
 12 14  1  0  0  0  0
 14 15  1  0  0  0  0
 14 38  1  0  0  0  0
 15 19  1  0  0  0  0
 15 16  2  0  0  0  0
 16 17  1  0  0  0  0
 17 18  2  0  0  0  0
 18 19  1  0  0  0  0
 18 39  1  0  0  0  0
 20 40  1  0  0  0  0
 20 41  1  0  0  0  0
M  END
> <s_m_source_file>
AV-unprocessed.smi

> <i_m_source_file_index>
2021

> <i_lp_mmshare_version>
43012

> <i_f3d_flags>
0

> <s_epik_input>
W0NIM11bQ0hdKFtDSDNdKVtDSDJdTjFbQ0gyXVtDSDJdT1tDQEhdKFtDSDJdMSlbQ0gyXVtOSF1DKD1PKVtOSF1jMm5uW2NIXXMy

> <s_epik_cmdline>
J2VwaWtfcHl0aG9uJywgJy1waCcsICc3LjAnLCAnLXRuJywgJzgnLCAnLW1hJywgJzIwMCcsICctbWV0YWxfYmluZGluZycsICctaW1hZScsICc8aW5maWxlLm1hZT4nLCAnLW9tYWUnLCAnPG91dGZpbGUubWFlPic=

> <r_lp_tautomer_probability>
1

> <r_epik_Ionization_Penalty>
1.11451

> <r_epik_Ionization_Penalty_Charging>
0

> <r_epik_Ionization_Penalty_Neutral>
1.11451

> <r_epik_State_Penalty>
1.17021

> <r_epik_Charging_Adjusted_Penalty>
1.17021

> <i_epik_Tot_Q>
0

> <i_epik_Tot_abs_Q>
0

> <r_epik_Metal_State_Penalty>
1.53642

> <b_epik_Metal_Only>
0

> <s_lp_Force_Field>
OPLS_2005

> <r_lp_Energy>
23.4775

> <b_lp_Chiralities_Consistent>
1

> <s_lp_Variant>
AV-unprocessed.smi:2021-6

> <Gold.Version>
5.8.1

> <Gold.Id.Protein>
6NUR|6NUR_protein|mol2

> <Gold.PLP.Fitness>
44.8821

> <Gold.PLP.PLP>
-35.1777

> <Gold.PLP.part.hbond>
-4.1412

> <Gold.PLP.part.metal>
0.0000

> <Gold.PLP.part.buried>
-3.3809

> <Gold.PLP.part.nonpolar>
-30.5378

> <Gold.PLP.part.repulsive>
4.3074

> <Gold.PLP.ligand.clash>
0.0000

> <Gold.PLP.ligand.torsion>
1.1258

> <Gold.PLP.Chemscore.Hbond>
3.9600

> <Gold.PLP.Chemscore.CHOScore>
0.0000

> <Gold.PLP.Chemscore.Metal>
0.0000

> <Gold.Chemscore.Hbonds>
donor molecule, donor type, donor heavy atom, donor atom, acceptor molecule, acceptor atom, score
      L1  H    11    37       P1  7957  1.00
      L1  H    14    38       P1  7957  0.99
      P1  H  7954  7966       L1    16  1.00
      P1  H  7989  7998       L1     8  1.00

> <Gold.PLP.Chemscore.Internal.Correction>
0.0760

> <Gold.Rescore>
     Score         DG    S(hbond)    S(metal)    S(lipo)     H(rot)  DE(clash)    DE(int)     intcor
     19.61     -23.04       3.78        0.00      82.35       1.84       1.54       1.89       ----

> <Gold.Chemscore.Fitness>
19.6096

> <Gold.Chemscore.DG>
-23.0355

> <Gold.Chemscore.ZeroCoef>
-5.4800

> <Gold.Chemscore.Hbond>
3.7828

> <Gold.Chemscore.Metal>
0.0000

> <Gold.Chemscore.Lipo>
82.3491

> <Gold.Chemscore.Internal_Hbond>
0.0000

> <Gold.Chemscore.DEClash>
1.5392

> <Gold.Chemscore.DEInternal>
1.8868

> <Gold.Chemscore.Rot>
1.8413

> <Gold.Chemscore.Internal.Correction>
   9.000000E+99

> <Gold.Chemscore.Hbonds>
donor molecule, donor type, donor heavy atom, donor atom, acceptor molecule, acceptor atom, score
      L1  H    11    37       P1  7957  0.95
      L1  H    14    38       P1  7957  0.93
      P1  H  7954  7966       L1    16  0.88
      P1  H  7989  7998       L1     8  0.75

> <Gold.Chemscore.Hbond.Weighted>
-12.6345

> <Gold.Chemscore.Metal.Weighted>
-0.0000

> <Gold.Chemscore.Lipo.Weighted>
-9.6348

> <Gold.Chemscore.Internal_Hbond.Weighted>
0.0000

> <Gold.Chemscore.DEClash.Weighted>
1.5392

> <Gold.Chemscore.DEInternal.Weighted>
1.8868

> <Gold.Chemscore.Rot.Weighted>
4.7138

> <Gold.Chemscore.Internal.Correction.Weighted>
   9.000000E+99

> <Gold.Protein.RotatedTorsions>
[ 6907 6896 6895 6894 ] final  129.20 input  -60.11 | X-H torsion
[ 7974 7965 7964 7962 ] final -161.53 input  175.53 | X-H torsion
[ 8008 7997 7996 7995 ] final   47.29 input   59.86 | X-H torsion
[ 10167 10162 10161 10158 ] final  127.26 input  -65.29 | X-H torsion
[ 10718 10713 10712 10709 ] final  -72.91 input   66.30 | X-H torsion
[ 10763 10752 10751 10750 ] final  -50.54 input  -60.55 | X-H torsion
[ 11005 11000 10999 10996 ] final -163.82 input  -57.11 | X-H torsion

> <Gold.Protein.ActiveResidues>
 VAL166  LYS551  ARG553  GLY616  TRP617  ASP618  TYR619  PRO620  LYS621  CYS622 
 ASP623  PHE694  ASN695  SER759  ASP760  ASP761  ALA762  ILE779  LEU786  VAL792 
 PHE793  MET794  SER795  GLU796  ALA797  LYS798  CYS799  TRP800  GLU811  SER814 

> <Gold.Protein.RotatedAtoms>
  152.3647  133.6341  159.6040 H   0  0  0  0  0  0  0  0  0  0  0  0  # atno 6907 bound_to 6896
  150.7625  133.9368  159.3452 H   0  0  0  0  0  0  0  0  0  0  0  0  # atno 6908 bound_to 6896
  151.7200  135.0897  160.0333 H   0  0  0  0  0  0  0  0  0  0  0  0  # atno 6909 bound_to 6896
  144.7388  140.3384  143.6139 H   0  0  0  0  0  0  0  0  0  0  0  0  # atno 7974 bound_to 7965
  155.3666  140.3421  155.4242 H   0  0  0  0  0  0  0  0  0  0  0  0  # atno 8008 bound_to 7997
  156.1685  140.1624  156.8524 H   0  0  0  0  0  0  0  0  0  0  0  0  # atno 8009 bound_to 7997
  154.5209  140.0767  156.8152 H   0  0  0  0  0  0  0  0  0  0  0  0  # atno 8010 bound_to 7997
  139.5587  144.6867  151.4105 H   0  0  0  0  0  0  0  0  0  0  0  0  # atno 10167 bound_to 10162
  156.0301  130.4382  150.2663 H   0  0  0  0  0  0  0  0  0  0  0  0  # atno 10718 bound_to 10713
  154.1120  135.6547  153.4887 H   0  0  0  0  0  0  0  0  0  0  0  0  # atno 10763 bound_to 10752
  153.0253  135.5250  154.7182 H   0  0  0  0  0  0  0  0  0  0  0  0  # atno 10764 bound_to 10752
  154.6365  135.2983  155.0124 H   0  0  0  0  0  0  0  0  0  0  0  0  # atno 10765 bound_to 10752
  140.5938  134.5017  157.5196 H   0  0  0  0  0  0  0  0  0  0  0  0  # atno 11005 bound_to 11000
  145.7400  139.1761  143.2381 LP  0  0  0  0  0  0  0  0  0  0  0  0  # atno 17320 bound_to 7965
  146.1141  140.7391  142.9489 LP  0  0  0  0  0  0  0  0  0  0  0  0  # atno 17321 bound_to 7965
  140.6864  143.7963  150.7193 LP  0  0  0  0  0  0  0  0  0  0  0  0  # atno 17342 bound_to 10162
  140.1432  143.4422  152.2180 LP  0  0  0  0  0  0  0  0  0  0  0  0  # atno 17343 bound_to 10162
  157.0766  131.0131  151.3171 LP  0  0  0  0  0  0  0  0  0  0  0  0  # atno 17370 bound_to 10713
  157.4959  130.7850  149.7555 LP  0  0  0  0  0  0  0  0  0  0  0  0  # atno 17371 bound_to 10713
  139.9262  134.8051  156.1062 LP  0  0  0  0  0  0  0  0  0  0  0  0  # atno 17394 bound_to 11000
  141.0917  133.6711  156.2555 LP  0  0  0  0  0  0  0  0  0  0  0  0  # atno 17395 bound_to 11000

$$$$
