AV-unprocessed.smi:1285|AV-procd|sdf|5368|dock5
  -GOLD-   22720 4513D 1   1.00000     0.00000
 Structure written by MMmdl.
 46 47  0  0  0  0  0  0  0  0  1 V2000
  146.3457  138.3538  151.7997 C   0  0  0  0  0  0  0  0  0  0  0  0
  146.0906  136.9382  151.2512 C   0  0  0  0  0  0  0  0  0  0  0  0
  145.4133  135.9402  152.2446 C   0  0  2  0  0  0  0  0  0  0  0  0
  143.9292  136.3824  152.3594 C   0  0  0  0  0  0  0  0  0  0  0  0
  146.0930  136.1021  153.6441 C   0  0  0  0  0  0  0  0  0  0  0  0
  147.4529  135.5691  153.6939 N   0  0  0  0  0  0  0  0  0  0  0  0
  147.9593  134.7801  154.6551 C   0  0  0  0  0  0  0  0  0  0  0  0
  147.2842  134.3243  155.5788 O   0  0  0  0  0  0  0  0  0  0  0  0
  149.4670  134.4923  154.5608 C   0  0  2  0  0  0  0  0  0  0  0  0
  149.7927  132.9876  154.4693 C   0  0  0  0  0  0  0  0  0  0  0  0
  150.1677  135.1348  155.6672 N   0  0  0  0  0  0  0  0  0  0  0  0
  149.9185  135.0988  156.9782 C   0  0  0  0  0  0  0  0  0  0  0  0
  150.8051  135.7546  157.7136 N   0  0  0  0  0  0  0  0  0  0  0  0
  151.6371  136.1986  156.7253 C   0  0  0  0  0  0  0  0  0  0  0  0
  151.3063  135.8490  155.4825 N   0  0  0  0  0  0  0  0  0  0  0  0
  145.4989  134.5399  151.7411 N   0  0  0  0  0  0  0  0  0  0  0  0
  144.7723  134.2788  150.4924 C   0  0  0  0  0  0  0  0  0  0  0  0
  145.0263  132.8565  149.9644 C   0  0  0  0  0  0  0  0  0  0  0  0
  144.6716  131.9041  150.9596 O   0  0  0  0  0  0  0  0  0  0  0  0
  145.3970  132.0875  152.1694 C   0  0  0  0  0  0  0  0  0  0  0  0
  145.1416  133.5020  152.7157 C   0  0  0  0  0  0  0  0  0  0  0  0
  146.8078  138.9801  151.0366 H   0  0  0  0  0  0  0  0  0  0  0  0
  147.0184  138.3406  152.6566 H   0  0  0  0  0  0  0  0  0  0  0  0
  145.4216  138.8441  152.1055 H   0  0  0  0  0  0  0  0  0  0  0  0
  145.5041  137.0167  150.3358 H   0  0  0  0  0  0  0  0  0  0  0  0
  147.0530  136.5436  150.9233 H   0  0  0  0  0  0  0  0  0  0  0  0
  143.8297  137.4615  152.4791 H   0  0  0  0  0  0  0  0  0  0  0  0
  143.4354  135.9310  153.2202 H   0  0  0  0  0  0  0  0  0  0  0  0
  143.3563  136.1060  151.4741 H   0  0  0  0  0  0  0  0  0  0  0  0
  146.0943  137.1446  153.9628 H   0  0  0  0  0  0  0  0  0  0  0  0
  145.5318  135.5615  154.4053 H   0  0  0  0  0  0  0  0  0  0  0  0
  148.0823  135.8868  152.9714 H   0  0  0  0  0  0  0  0  0  0  0  0
  149.8223  134.9591  153.6406 H   0  0  0  0  0  0  0  0  0  0  0  0
  149.3137  132.5333  153.6014 H   0  0  0  0  0  0  0  0  0  0  0  0
  149.4603  132.4425  155.3537 H   0  0  0  0  0  0  0  0  0  0  0  0
  150.8666  132.8284  154.3683 H   0  0  0  0  0  0  0  0  0  0  0  0
  149.0770  134.5728  157.4048 H   0  0  0  0  0  0  0  0  0  0  0  0
  152.5167  136.7913  156.9285 H   0  0  0  0  0  0  0  0  0  0  0  0
  143.7006  134.4081  150.6428 H   0  0  0  0  0  0  0  0  0  0  0  0
  145.0694  134.9793  149.7138 H   0  0  0  0  0  0  0  0  0  0  0  0
  144.4322  132.6732  149.0689 H   0  0  0  0  0  0  0  0  0  0  0  0
  146.0736  132.7295  149.6856 H   0  0  0  0  0  0  0  0  0  0  0  0
  145.0764  131.3382  152.8932 H   0  0  0  0  0  0  0  0  0  0  0  0
  146.4621  131.9280  151.9931 H   0  0  0  0  0  0  0  0  0  0  0  0
  145.7153  133.6127  153.6339 H   0  0  0  0  0  0  0  0  0  0  0  0
  144.0893  133.5838  152.9876 H   0  0  0  0  0  0  0  0  0  0  0  0
  1  2  1  0  0  0  0
  1 22  1  0  0  0  0
  1 23  1  0  0  0  0
  1 24  1  0  0  0  0
  2  3  1  0  0  0  0
  2 25  1  0  0  0  0
  2 26  1  0  0  0  0
  3  4  1  0  0  0  0
  3  5  1  0  0  0  0
  3 16  1  0  0  0  0
  4 27  1  0  0  0  0
  4 28  1  0  0  0  0
  4 29  1  0  0  0  0
  5  6  1  0  0  0  0
  5 30  1  0  0  0  0
  5 31  1  0  0  0  0
  6  7  1  0  0  0  0
  6 32  1  0  0  0  0
  7  8  2  0  0  0  0
  7  9  1  0  0  0  0
  9 10  1  0  0  0  0
  9 11  1  0  0  0  0
  9 33  1  0  0  0  0
 10 34  1  0  0  0  0
 10 35  1  0  0  0  0
 10 36  1  0  0  0  0
 11 15  1  0  0  0  0
 11 12  1  0  0  0  0
 12 13  2  0  0  0  0
 12 37  1  0  0  0  0
 13 14  1  0  0  0  0
 14 15  2  0  0  0  0
 14 38  1  0  0  0  0
 16 21  1  0  0  0  0
 16 17  1  0  0  0  0
 17 18  1  0  0  0  0
 17 39  1  0  0  0  0
 17 40  1  0  0  0  0
 18 19  1  0  0  0  0
 18 41  1  0  0  0  0
 18 42  1  0  0  0  0
 19 20  1  0  0  0  0
 20 21  1  0  0  0  0
 20 43  1  0  0  0  0
 20 44  1  0  0  0  0
 21 45  1  0  0  0  0
 21 46  1  0  0  0  0
M  END
> <s_m_source_file>
AV-unprocessed.smi

> <i_m_source_file_index>
1285

> <i_lp_mmshare_version>
43012

> <i_f3d_flags>
0

> <s_epik_input>
W0NIMl0xW0NIMl1PW0NIMl1bQ0gyXU4xW0NAQF0oW0NIM10pKFtDSDJdW0NIM10pW0NIMl1bTkhdQyg9TylbQ0BIXShbQ0gzXSluMltjSF1uW2NIXW4y

> <s_epik_cmdline>
J2VwaWtfcHl0aG9uJywgJy1waCcsICc3LjAnLCAnLXRuJywgJzgnLCAnLW1hJywgJzIwMCcsICctbWV0YWxfYmluZGluZycsICctaW1hZScsICc8aW5maWxlLm1hZT4nLCAnLW9tYWUnLCAnPG91dGZpbGUubWFlPic=

> <r_lp_tautomer_probability>
1

> <r_epik_Ionization_Penalty>
0.285697

> <r_epik_Ionization_Penalty_Charging>
0

> <r_epik_Ionization_Penalty_Neutral>
0.285697

> <r_epik_State_Penalty>
0.278478

> <r_epik_Charging_Adjusted_Penalty>
0.278478

> <i_epik_Tot_Q>
0

> <i_epik_Tot_abs_Q>
0

> <r_epik_Metal_State_Penalty>
0.278477

> <b_epik_Metal_Only>
0

> <s_lp_Force_Field>
OPLS_2005

> <r_lp_Energy>
47.2582

> <b_lp_Chiralities_Consistent>
1

> <s_lp_Variant>
AV-unprocessed.smi:1285-2

> <Gold.Version>
5.8.1

> <Gold.Id.Protein>
6NUR|6NUR_protein|mol2

> <Gold.PLP.Fitness>
34.5397

> <Gold.PLP.PLP>
-28.5981

> <Gold.PLP.part.hbond>
-2.9353

> <Gold.PLP.part.metal>
0.0000

> <Gold.PLP.part.buried>
-0.7557

> <Gold.PLP.part.nonpolar>
-26.0144

> <Gold.PLP.part.repulsive>
0.3532

> <Gold.PLP.ligand.clash>
0.0000

> <Gold.PLP.ligand.torsion>
0.8848

> <Gold.PLP.Chemscore.Hbond>
2.4545

> <Gold.PLP.Chemscore.CHOScore>
0.0000

> <Gold.PLP.Chemscore.Metal>
0.0000

> <Gold.Chemscore.Hbonds>
donor molecule, donor type, donor heavy atom, donor atom, acceptor molecule, acceptor atom, score
      L1  H     6    32       P1  7948  0.78
      P1  H  6896  6907       L1    13  0.34
      P1  H 10752 10765       L1    15  0.90

> <Gold.PLP.Chemscore.Internal.Correction>
0.3478

> <Gold.Rescore>
     Score         DG    S(hbond)    S(metal)    S(lipo)     H(rot)  DE(clash)    DE(int)     intcor
     11.21     -13.44       2.27        0.00      61.93       2.68       0.55       1.68       ----

> <Gold.Chemscore.Fitness>
11.2061

> <Gold.Chemscore.DG>
-13.4430

> <Gold.Chemscore.ZeroCoef>
-5.4800

> <Gold.Chemscore.Hbond>
2.2706

> <Gold.Chemscore.Metal>
0.0000

> <Gold.Chemscore.Lipo>
61.9258

> <Gold.Chemscore.Internal_Hbond>
0.0000

> <Gold.Chemscore.DEClash>
0.5522

> <Gold.Chemscore.DEInternal>
1.6847

> <Gold.Chemscore.Rot>
2.6821

> <Gold.Chemscore.Internal.Correction>
   9.000000E+99

> <Gold.Chemscore.Hbonds>
donor molecule, donor type, donor heavy atom, donor atom, acceptor molecule, acceptor atom, score
      L1  H     6    32       P1  7948  0.79
      P1  H  6896  6907       L1    13  0.13
      P1  H 10752 10765       L1    15  0.18

> <Gold.Chemscore.Hbond.Weighted>
-7.5838

> <Gold.Chemscore.Metal.Weighted>
-0.0000

> <Gold.Chemscore.Lipo.Weighted>
-7.2453

> <Gold.Chemscore.Internal_Hbond.Weighted>
0.0000

> <Gold.Chemscore.DEClash.Weighted>
0.5522

> <Gold.Chemscore.DEInternal.Weighted>
1.6847

> <Gold.Chemscore.Rot.Weighted>
6.8661

> <Gold.Chemscore.Internal.Correction.Weighted>
   9.000000E+99

> <Gold.Protein.RotatedTorsions>
[ 6907 6896 6895 6894 ] final  -62.83 input  -60.11 | X-H torsion
[ 7974 7965 7964 7962 ] final  153.48 input  175.53 | X-H torsion
[ 8008 7997 7996 7995 ] final   88.92 input   59.86 | X-H torsion
[ 10167 10162 10161 10158 ] final  119.41 input  -65.29 | X-H torsion
[ 10718 10713 10712 10709 ] final -109.98 input   66.30 | X-H torsion
[ 10763 10752 10751 10750 ] final -163.95 input  -60.55 | X-H torsion
[ 11005 11000 10999 10996 ] final  135.59 input  -57.11 | X-H torsion

> <Gold.Protein.ActiveResidues>
 VAL166  LYS551  ARG553  GLY616  TRP617  ASP618  TYR619  PRO620  LYS621  CYS622 
 ASP623  PHE694  ASN695  SER759  ASP760  ASP761  ALA762  ILE779  LEU786  VAL792 
 PHE793  MET794  SER795  GLU796  ALA797  LYS798  CYS799  TRP800  GLU811  SER814 

> <Gold.Protein.RotatedAtoms>
  150.7689  134.6518  159.6291 H   0  0  0  0  0  0  0  0  0  0  0  0  # atno 6907 bound_to 6896
  152.3733  134.6697  160.0177 H   0  0  0  0  0  0  0  0  0  0  0  0  # atno 6908 bound_to 6896
  151.7050  133.3275  159.3312 H   0  0  0  0  0  0  0  0  0  0  0  0  # atno 6909 bound_to 6896
  144.8152  139.6806  143.6124 H   0  0  0  0  0  0  0  0  0  0  0  0  # atno 7974 bound_to 7965
  155.9937  140.3366  155.6778 H   0  0  0  0  0  0  0  0  0  0  0  0  # atno 8008 bound_to 7997
  155.6386  140.0692  157.2644 H   0  0  0  0  0  0  0  0  0  0  0  0  # atno 8009 bound_to 7997
  154.4227  140.1747  156.1536 H   0  0  0  0  0  0  0  0  0  0  0  0  # atno 8010 bound_to 7997
  139.6048  144.7067  151.2980 H   0  0  0  0  0  0  0  0  0  0  0  0  # atno 10167 bound_to 10162
  156.0566  130.5792  150.8175 H   0  0  0  0  0  0  0  0  0  0  0  0  # atno 10718 bound_to 10713
  154.7074  135.2999  154.9249 H   0  0  0  0  0  0  0  0  0  0  0  0  # atno 10763 bound_to 10752
  154.0161  135.6688  153.4773 H   0  0  0  0  0  0  0  0  0  0  0  0  # atno 10764 bound_to 10752
  153.0728  135.5051  154.8253 H   0  0  0  0  0  0  0  0  0  0  0  0  # atno 10765 bound_to 10752
  139.9990  134.9486  157.0029 H   0  0  0  0  0  0  0  0  0  0  0  0  # atno 11005 bound_to 11000
  146.2454  139.6087  142.9463 LP  0  0  0  0  0  0  0  0  0  0  0  0  # atno 17320 bound_to 7965
  145.5232  141.0431  143.2424 LP  0  0  0  0  0  0  0  0  0  0  0  0  # atno 17321 bound_to 7965
  140.7276  143.6958  150.7885 LP  0  0  0  0  0  0  0  0  0  0  0  0  # atno 17342 bound_to 10162
  140.0541  143.5220  152.2659 LP  0  0  0  0  0  0  0  0  0  0  0  0  # atno 17343 bound_to 10162
  157.5541  131.0944  150.9654 LP  0  0  0  0  0  0  0  0  0  0  0  0  # atno 17370 bound_to 10713
  156.9907  130.5562  149.5303 LP  0  0  0  0  0  0  0  0  0  0  0  0  # atno 17371 bound_to 10713
  140.4764  134.1334  155.7210 LP  0  0  0  0  0  0  0  0  0  0  0  0  # atno 17394 bound_to 11000
  141.1627  133.8762  157.1803 LP  0  0  0  0  0  0  0  0  0  0  0  0  # atno 17395 bound_to 11000

$$$$
