AV-unprocessed.smi:84|AV-procd|sdf|808|dock1
  -GOLD-   2262017203D 1   1.00000     0.00000
 Structure written by MMmdl.
 51 55  0  0  0  0  0  0  0  0  1 V2000
  151.0358  142.8252  156.9509 O   0  0  0  0  0  0  0  0  0  0  0  0
  150.7017  141.6947  156.6045 C   0  0  0  0  0  0  0  0  0  0  0  0
  149.2819  141.3165  156.2152 C   0  0  0  0  0  0  0  0  0  0  0  0
  149.3116  139.7762  156.2575 C   0  0  1  0  0  0  0  0  0  0  0  0
  148.8077  139.2006  157.5943 C   0  0  0  0  0  0  0  0  0  0  0  0
  148.3895  137.7758  157.2349 C   0  0  0  0  0  0  0  0  0  0  0  0
  147.9163  137.8679  155.8621 N   0  0  0  0  0  0  0  0  0  0  0  0
  147.5566  136.7718  155.1455 C   0  0  0  0  0  0  0  0  0  0  0  0
  148.0020  135.5540  155.5540 N   0  0  0  0  0  0  0  0  0  0  0  0
  147.6768  134.4494  154.8774 C   0  0  0  0  0  0  0  0  0  0  0  0
  146.9207  134.3340  153.7853 N   0  0  0  0  0  0  0  0  0  0  0  0
  146.4537  135.5479  153.3763 C   0  0  0  0  0  0  0  0  0  0  0  0
  146.7230  136.8064  153.9882 C   0  0  0  0  0  0  0  0  0  0  0  0
  146.0759  137.8147  153.2812 N   0  0  0  0  0  0  0  0  0  0  0  0
  145.4757  137.1921  152.3045 C   0  0  0  0  0  0  0  0  0  0  0  0
  145.6250  135.8246  152.3032 N   0  0  0  0  0  0  0  0  0  0  0  0
  145.1070  134.9053  151.3329 C   0  0  0  0  0  0  0  0  0  0  0  0
  144.3125  133.6672  151.7561 C   0  0  0  0  0  0  0  0  0  0  0  0
  144.8800  132.8983  150.5411 C   0  0  0  0  0  0  0  0  0  0  0  0
  145.2948  131.4428  150.8125 C   0  0  0  0  0  0  0  0  0  0  0  0
  146.4470  131.3820  151.6288 O   0  0  0  0  0  0  0  0  0  0  0  0
  144.0140  132.9494  149.2660 C   0  0  0  0  0  0  0  0  0  0  0  0
  142.8852  132.1062  149.3740 O   0  0  0  0  0  0  0  0  0  0  0  0
  146.0277  133.9302  150.5954 C   0  0  0  0  0  0  0  0  0  0  0  0
  148.3985  139.0868  155.2270 C   0  0  0  0  0  0  0  0  0  0  0  0
  150.8100  139.4471  156.0530 C   0  0  0  0  0  0  0  0  0  0  0  0
  151.5042  140.6361  156.5093 N   0  0  0  0  0  0  0  0  0  0  0  0
  148.5452  141.7530  156.8904 H   0  0  0  0  0  0  0  0  0  0  0  0
  149.0867  141.6851  155.2073 H   0  0  0  0  0  0  0  0  0  0  0  0
  149.5474  139.2355  158.3952 H   0  0  0  0  0  0  0  0  0  0  0  0
  147.9294  139.7514  157.9340 H   0  0  0  0  0  0  0  0  0  0  0  0
  149.2439  137.0996  157.2851 H   0  0  0  0  0  0  0  0  0  0  0  0
  147.6136  137.4031  157.9045 H   0  0  0  0  0  0  0  0  0  0  0  0
  148.0789  133.5261  155.2677 H   0  0  0  0  0  0  0  0  0  0  0  0
  144.8977  137.7179  151.5583 H   0  0  0  0  0  0  0  0  0  0  0  0
  144.5353  135.5076  150.6247 H   0  0  0  0  0  0  0  0  0  0  0  0
  144.6511  133.2610  152.7113 H   0  0  0  0  0  0  0  0  0  0  0  0
  143.2308  133.8053  151.7548 H   0  0  0  0  0  0  0  0  0  0  0  0
  144.4976  130.9020  151.3238 H   0  0  0  0  0  0  0  0  0  0  0  0
  145.4861  130.8997  149.8869 H   0  0  0  0  0  0  0  0  0  0  0  0
  147.2040  131.2826  151.0718 H   0  0  0  0  0  0  0  0  0  0  0  0
  143.6553  133.9603  149.0725 H   0  0  0  0  0  0  0  0  0  0  0  0
  144.5851  132.6598  148.3837 H   0  0  0  0  0  0  0  0  0  0  0  0
  142.1103  132.6462  149.4107 H   0  0  0  0  0  0  0  0  0  0  0  0
  146.3736  134.2831  149.6233 H   0  0  0  0  0  0  0  0  0  0  0  0
  146.8670  133.6023  151.2123 H   0  0  0  0  0  0  0  0  0  0  0  0
  147.5366  139.7134  154.9956 H   0  0  0  0  0  0  0  0  0  0  0  0
  148.9270  138.8846  154.2948 H   0  0  0  0  0  0  0  0  0  0  0  0
  151.1357  138.5623  156.6012 H   0  0  0  0  0  0  0  0  0  0  0  0
  151.0507  139.2951  155.0000 H   0  0  0  0  0  0  0  0  0  0  0  0
  152.4924  140.6488  156.7167 H   0  0  0  0  0  0  0  0  0  0  0  0
  1  2  2  0  0  0  0
  2 27  1  0  0  0  0
  2  3  1  0  0  0  0
  3  4  1  0  0  0  0
  3 28  1  0  0  0  0
  3 29  1  0  0  0  0
  4 25  1  0  0  0  0
  4  5  1  0  0  0  0
  4 26  1  0  0  0  0
  5  6  1  0  0  0  0
  5 30  1  0  0  0  0
  5 31  1  0  0  0  0
  6  7  1  0  0  0  0
  6 32  1  0  0  0  0
  6 33  1  0  0  0  0
  7  8  1  0  0  0  0
  7 25  1  0  0  0  0
  8 13  1  0  0  0  0
  8  9  2  0  0  0  0
  9 10  1  0  0  0  0
 10 11  2  0  0  0  0
 10 34  1  0  0  0  0
 11 12  1  0  0  0  0
 12 16  1  0  0  0  0
 12 13  2  0  0  0  0
 13 14  1  0  0  0  0
 14 15  2  0  0  0  0
 15 16  1  0  0  0  0
 15 35  1  0  0  0  0
 16 17  1  0  0  0  0
 17 24  1  0  0  0  0
 17 18  1  0  0  0  0
 17 36  1  0  0  0  0
 18 19  1  0  0  0  0
 18 37  1  0  0  0  0
 18 38  1  0  0  0  0
 19 20  1  0  0  0  0
 19 22  1  0  0  0  0
 19 24  1  0  0  0  0
 20 21  1  0  0  0  0
 20 39  1  0  0  0  0
 20 40  1  0  0  0  0
 21 41  1  0  0  0  0
 22 23  1  0  0  0  0
 22 42  1  0  0  0  0
 22 43  1  0  0  0  0
 23 44  1  0  0  0  0
 24 45  1  0  0  0  0
 24 46  1  0  0  0  0
 25 47  1  0  0  0  0
 25 48  1  0  0  0  0
 26 27  1  0  0  0  0
 26 49  1  0  0  0  0
 26 50  1  0  0  0  0
 27 51  1  0  0  0  0
M  END
> <s_m_source_file>
AV-unprocessed.smi

> <i_m_source_file_index>
84

> <i_lp_mmshare_version>
43012

> <i_f3d_flags>
0

> <s_epik_input>
W0NIMl0xW05IXUMoPU8pW0NIMl1bQ0BdMTJbQ0gyXVtDSDJdTihbQ0gyXTIpYyhuW2NIXW4zKWMoYzM0KW5bY0hdbjRbQ0hdKFtDSDJdNSlbQ0gyXUM1KFtDSDJdW09IXSlbQ0gyXVtPSF0=

> <s_epik_cmdline>
J2VwaWtfcHl0aG9uJywgJy1waCcsICc3LjAnLCAnLXRuJywgJzgnLCAnLW1hJywgJzIwMCcsICctbWV0YWxfYmluZGluZycsICctaW1hZScsICc8aW5maWxlLm1hZT4nLCAnLW9tYWUnLCAnPG91dGZpbGUubWFlPic=

> <r_lp_tautomer_probability>
1

> <r_epik_Ionization_Penalty>
0.00201507

> <r_epik_Ionization_Penalty_Charging>
0

> <r_epik_Ionization_Penalty_Neutral>
0.00201507

> <r_epik_State_Penalty>
0.00133787

> <r_epik_Charging_Adjusted_Penalty>
0.00133787

> <i_epik_Tot_Q>
0

> <i_epik_Tot_abs_Q>
0

> <r_epik_Metal_State_Penalty>
-0

> <b_epik_Metal_Only>
0

> <s_lp_Force_Field>
OPLS_2005

> <r_lp_Energy>
65.4538

> <b_lp_Chiralities_Consistent>
1

> <s_lp_Variant>
AV-unprocessed.smi:84-1

> <Gold.Version>
5.8.1

> <Gold.Id.Protein>
6NUR|6NUR_protein|mol2

> <Gold.PLP.Fitness>
41.2237

> <Gold.PLP.PLP>
-31.3438

> <Gold.PLP.part.hbond>
-3.8798

> <Gold.PLP.part.metal>
0.0000

> <Gold.PLP.part.buried>
-3.8801

> <Gold.PLP.part.nonpolar>
-24.0051

> <Gold.PLP.part.repulsive>
0.7616

> <Gold.PLP.ligand.clash>
0.0000

> <Gold.PLP.ligand.torsion>
1.0121

> <Gold.PLP.Chemscore.Hbond>
2.7388

> <Gold.PLP.Chemscore.CHOScore>
1.0000

> <Gold.PLP.Chemscore.Metal>
0.0000

> <Gold.Chemscore.Hbonds>
donor molecule, donor type, donor heavy atom, donor atom, acceptor molecule, acceptor atom, score
      L1  H    21    41       P1 10747  1.00
      L1  H    23    44       P1 10186  0.88
      P1  H 10785 10796       L1    23  0.86
      L1  C    15    35       P1 10171  1.00

> <Gold.PLP.Chemscore.Internal.Correction>
0.6878

> <Gold.Rescore>
     Score         DG    S(hbond)    S(metal)    S(lipo)     H(rot)  DE(clash)    DE(int)     intcor
     12.52     -13.67       2.52        0.00      62.99       2.96       0.05       1.10       ----

> <Gold.Chemscore.Fitness>
12.5215

> <Gold.Chemscore.DG>
-13.6737

> <Gold.Chemscore.ZeroCoef>
-5.4800

> <Gold.Chemscore.Hbond>
2.5192

> <Gold.Chemscore.Metal>
0.0000

> <Gold.Chemscore.Lipo>
62.9884

> <Gold.Chemscore.Internal_Hbond>
0.0000

> <Gold.Chemscore.DEClash>
0.0515

> <Gold.Chemscore.DEInternal>
1.1007

> <Gold.Chemscore.Rot>
2.9649

> <Gold.Chemscore.Internal.Correction>
   9.000000E+99

> <Gold.Chemscore.Hbonds>
donor molecule, donor type, donor heavy atom, donor atom, acceptor molecule, acceptor atom, score
      L1  H    21    41       P1 10747  0.97
      L1  H    23    44       P1 10186  0.85
      P1  H 10785 10796       L1    23  0.76

> <Gold.Chemscore.Hbond.Weighted>
-8.4143

> <Gold.Chemscore.Metal.Weighted>
-0.0000

> <Gold.Chemscore.Lipo.Weighted>
-7.3696

> <Gold.Chemscore.Internal_Hbond.Weighted>
0.0000

> <Gold.Chemscore.DEClash.Weighted>
0.0515

> <Gold.Chemscore.DEInternal.Weighted>
1.1007

> <Gold.Chemscore.Rot.Weighted>
7.5902

> <Gold.Chemscore.Internal.Correction.Weighted>
   9.000000E+99

> <Gold.Protein.RotatedTorsions>
[ 6907 6896 6895 6894 ] final -164.03 input  -60.11 | X-H torsion
[ 7974 7965 7964 7962 ] final  -67.35 input  175.53 | X-H torsion
[ 8008 7997 7996 7995 ] final  -42.48 input   59.86 | X-H torsion
[ 10167 10162 10161 10158 ] final   26.56 input  -65.29 | X-H torsion
[ 10718 10713 10712 10709 ] final  137.94 input   66.30 | X-H torsion
[ 10763 10752 10751 10750 ] final  154.15 input  -60.55 | X-H torsion
[ 11005 11000 10999 10996 ] final   -2.29 input  -57.11 | X-H torsion

> <Gold.Protein.ActiveResidues>
 VAL166  LYS551  ARG553  GLY616  TRP617  ASP618  TYR619  PRO620  LYS621  CYS622 
 ASP623  PHE694  ASN695  SER759  ASP760  ASP761  ALA762  ILE779  LEU786  VAL792 
 PHE793  MET794  SER795  GLU796  ALA797  LYS798  CYS799  TRP800  GLU811  SER814 

> <Gold.Protein.RotatedAtoms>
  151.4053  133.3744  159.2736 H   0  0  0  0  0  0  0  0  0  0  0  0  # atno 6907 bound_to 6896
  150.9403  134.8814  159.7618 H   0  0  0  0  0  0  0  0  0  0  0  0  # atno 6908 bound_to 6896
  152.5068  134.4003  159.9466 H   0  0  0  0  0  0  0  0  0  0  0  0  # atno 6909 bound_to 6896
  145.7302  140.9000  143.0584 H   0  0  0  0  0  0  0  0  0  0  0  0  # atno 7974 bound_to 7965
  154.3999  140.1472  156.3362 H   0  0  0  0  0  0  0  0  0  0  0  0  # atno 8008 bound_to 7997
  155.8398  140.3462  155.5603 H   0  0  0  0  0  0  0  0  0  0  0  0  # atno 8009 bound_to 7997
  155.8099  140.0882  157.1900 H   0  0  0  0  0  0  0  0  0  0  0  0  # atno 8010 bound_to 7997
  140.5012  144.0312  150.6333 H   0  0  0  0  0  0  0  0  0  0  0  0  # atno 10167 bound_to 10162
  157.4306  131.1048  151.0254 H   0  0  0  0  0  0  0  0  0  0  0  0  # atno 10718 bound_to 10713
  154.1477  135.2817  155.3144 H   0  0  0  0  0  0  0  0  0  0  0  0  # atno 10763 bound_to 10752
  154.6240  135.5458  153.7610 H   0  0  0  0  0  0  0  0  0  0  0  0  # atno 10764 bound_to 10752
  153.0230  135.6446  154.1622 H   0  0  0  0  0  0  0  0  0  0  0  0  # atno 10765 bound_to 10752
  140.6567  133.9356  155.8412 H   0  0  0  0  0  0  0  0  0  0  0  0  # atno 11005 bound_to 11000
  144.6895  139.9321  143.7472 LP  0  0  0  0  0  0  0  0  0  0  0  0  # atno 17320 bound_to 7965
  146.0544  139.3542  143.0619 LP  0  0  0  0  0  0  0  0  0  0  0  0  # atno 17321 bound_to 7965
  140.3608  143.2909  152.0385 LP  0  0  0  0  0  0  0  0  0  0  0  0  # atno 17342 bound_to 10162
  139.4872  144.6304  151.7081 LP  0  0  0  0  0  0  0  0  0  0  0  0  # atno 17343 bound_to 10162
  157.1152  130.6038  149.5491 LP  0  0  0  0  0  0  0  0  0  0  0  0  # atno 17370 bound_to 10713
  155.9912  130.4966  150.7289 LP  0  0  0  0  0  0  0  0  0  0  0  0  # atno 17371 bound_to 10713
  141.0496  134.0504  157.3800 LP  0  0  0  0  0  0  0  0  0  0  0  0  # atno 17394 bound_to 11000
  139.9027  135.0170  156.7344 LP  0  0  0  0  0  0  0  0  0  0  0  0  # atno 17395 bound_to 11000

$$$$
