AV-unprocessed.smi:249|AV-procd|sdf|1925|dock4
  -GOLD-   2262021 33D 1   1.00000     0.00000
 Structure written by MMmdl.
 64 67  0  0  0  0  0  0  0  0  2 V2000
  150.4955  145.1832  160.1970 C   0  0  0  0  0  0  0  0  0  0  0  0
  151.6118  144.9587  159.1608 C   0  0  0  0  0  0  0  0  0  0  0  0
  152.1357  143.5642  159.1143 N   0  3  1  0  0  0  0  0  0  0  0  0
  152.9196  143.2163  160.3305 C   0  0  0  0  0  0  0  0  0  0  0  0
  153.6732  141.8914  160.1518 C   0  0  0  0  0  0  0  0  0  0  0  0
  152.6887  140.7609  159.7976 C   0  0  2  0  0  0  0  0  0  0  0  0
  153.3131  139.4327  159.7112 N   0  0  0  0  0  0  0  0  0  0  0  0
  154.6968  139.3046  160.1560 C   0  0  0  0  0  0  0  0  0  0  0  0
  152.9565  138.5172  158.7709 C   0  0  0  0  0  0  0  0  0  0  0  0
  153.6343  138.4394  157.5957 N   0  0  0  0  0  0  0  0  0  0  0  0
  153.3011  137.5264  156.6790 C   0  0  0  0  0  0  0  0  0  0  0  0
  152.3412  136.6022  156.7337 N   0  0  0  0  0  0  0  0  0  0  0  0
  151.6595  136.6681  157.9124 C   0  0  0  0  0  0  0  0  0  0  0  0
  151.8970  137.5873  158.9735 C   0  0  0  0  0  0  0  0  0  0  0  0
  150.9916  137.3617  160.0037 N   0  0  0  0  0  0  0  0  0  0  0  0
  150.2661  136.3633  159.5799 C   0  0  0  0  0  0  0  0  0  0  0  0
  150.6134  135.8703  158.3423 N   0  0  0  0  0  0  0  0  0  0  0  0
  149.9738  134.7760  157.6331 C   0  0  0  0  0  0  0  0  0  0  0  0
  149.4627  135.1275  156.2075 C   0  0  2  0  0  0  0  0  0  0  0  0
  148.3701  136.2186  156.3170 C   0  0  0  0  0  0  0  0  0  0  0  0
  147.8356  136.5417  155.0494 O   0  0  0  0  0  0  0  0  0  0  0  0
  148.9509  133.8859  155.4165 C   0  0  1  0  0  0  0  0  0  0  0  0
  149.9216  132.7152  155.3527 C   0  0  0  0  0  0  0  0  0  0  0  0
  149.0130  131.5588  154.9637 C   0  0  0  0  0  0  0  0  0  0  0  0
  147.8130  131.7982  155.6808 O   0  0  0  0  0  0  0  0  0  0  0  0
  147.7131  133.1829  156.0017 C   0  0  0  0  0  0  0  0  0  0  0  0
  151.8582  141.1502  158.5576 C   0  0  0  0  0  0  0  0  0  0  0  0
  151.1425  142.5035  158.7540 C   0  0  2  0  0  0  0  0  0  0  0  0
  150.3370  142.8439  157.4844 C   0  0  0  0  0  0  0  0  0  0  0  0
  150.1731  146.2245  160.1854 H   0  0  0  0  0  0  0  0  0  0  0  0
  150.8299  144.9620  161.2101 H   0  0  0  0  0  0  0  0  0  0  0  0
  149.6165  144.5733  159.9902 H   0  0  0  0  0  0  0  0  0  0  0  0
  151.2617  145.2526  158.1717 H   0  0  0  0  0  0  0  0  0  0  0  0
  152.4398  145.6350  159.3766 H   0  0  0  0  0  0  0  0  0  0  0  0
  153.6382  144.0076  160.5467 H   0  0  0  0  0  0  0  0  0  0  0  0
  152.2568  143.1464  161.1935 H   0  0  0  0  0  0  0  0  0  0  0  0
  154.4283  142.0158  159.3767 H   0  0  0  0  0  0  0  0  0  0  0  0
  154.2104  141.6533  161.0702 H   0  0  0  0  0  0  0  0  0  0  0  0
  151.9809  140.6870  160.6247 H   0  0  0  0  0  0  0  0  0  0  0  0
  154.7877  138.5192  160.9066 H   0  0  0  0  0  0  0  0  0  0  0  0
  155.0551  140.2309  160.6064 H   0  0  0  0  0  0  0  0  0  0  0  0
  155.3575  139.0635  159.3219 H   0  0  0  0  0  0  0  0  0  0  0  0
  153.8900  137.5347  155.7738 H   0  0  0  0  0  0  0  0  0  0  0  0
  149.4600  135.9494  160.1683 H   0  0  0  0  0  0  0  0  0  0  0  0
  150.6746  133.9419  157.5791 H   0  0  0  0  0  0  0  0  0  0  0  0
  149.1503  134.4374  158.2623 H   0  0  0  0  0  0  0  0  0  0  0  0
  150.2865  135.5618  155.6398 H   0  0  0  0  0  0  0  0  0  0  0  0
  147.5310  135.8858  156.9261 H   0  0  0  0  0  0  0  0  0  0  0  0
  148.7673  137.1205  156.7835 H   0  0  0  0  0  0  0  0  0  0  0  0
  148.1303  135.8961  154.4252 H   0  0  0  0  0  0  0  0  0  0  0  0
  148.7269  134.1854  154.3913 H   0  0  0  0  0  0  0  0  0  0  0  0
  150.7274  132.8601  154.6327 H   0  0  0  0  0  0  0  0  0  0  0  0
  150.3633  132.5293  156.3330 H   0  0  0  0  0  0  0  0  0  0  0  0
  148.7984  131.5838  153.8943 H   0  0  0  0  0  0  0  0  0  0  0  0
  149.4398  130.5851  155.2052 H   0  0  0  0  0  0  0  0  0  0  0  0
  147.6823  133.2719  157.0881 H   0  0  0  0  0  0  0  0  0  0  0  0
  146.7839  133.5870  155.6023 H   0  0  0  0  0  0  0  0  0  0  0  0
  152.4847  141.2148  157.6686 H   0  0  0  0  0  0  0  0  0  0  0  0
  151.1222  140.3702  158.3571 H   0  0  0  0  0  0  0  0  0  0  0  0
  150.4409  142.3954  159.5825 H   0  0  0  0  0  0  0  0  0  0  0  0
  149.6895  142.0134  157.2020 H   0  0  0  0  0  0  0  0  0  0  0  0
  150.9944  143.0494  156.6388 H   0  0  0  0  0  0  0  0  0  0  0  0
  149.6880  143.7076  157.6266 H   0  0  0  0  0  0  0  0  0  0  0  0
  152.8071  143.5666  158.3597 H   0  0  0  0  0  0  0  0  0  0  0  0
  1  2  1  0  0  0  0
  1 30  1  0  0  0  0
  1 31  1  0  0  0  0
  1 32  1  0  0  0  0
  2  3  1  0  0  0  0
  2 33  1  0  0  0  0
  2 34  1  0  0  0  0
  3 28  1  0  0  0  0
  3  4  1  0  0  0  0
  3 64  1  0  0  0  0
  4  5  1  0  0  0  0
  4 35  1  0  0  0  0
  4 36  1  0  0  0  0
  5  6  1  0  0  0  0
  5 37  1  0  0  0  0
  5 38  1  0  0  0  0
  6  7  1  0  0  0  0
  6 27  1  0  0  0  0
  6 39  1  0  0  0  0
  7  8  1  0  0  0  0
  7  9  1  0  0  0  0
  8 40  1  0  0  0  0
  8 41  1  0  0  0  0
  8 42  1  0  0  0  0
  9 14  1  0  0  0  0
  9 10  2  0  0  0  0
 10 11  1  0  0  0  0
 11 12  2  0  0  0  0
 11 43  1  0  0  0  0
 12 13  1  0  0  0  0
 13 17  1  0  0  0  0
 13 14  2  0  0  0  0
 14 15  1  0  0  0  0
 15 16  2  0  0  0  0
 16 17  1  0  0  0  0
 16 44  1  0  0  0  0
 17 18  1  0  0  0  0
 18 19  1  0  0  0  0
 18 45  1  0  0  0  0
 18 46  1  0  0  0  0
 19 20  1  0  0  0  0
 19 22  1  0  0  0  0
 19 47  1  0  0  0  0
 20 21  1  0  0  0  0
 20 48  1  0  0  0  0
 20 49  1  0  0  0  0
 21 50  1  0  0  0  0
 22 26  1  0  0  0  0
 22 23  1  0  0  0  0
 22 51  1  0  0  0  0
 23 24  1  0  0  0  0
 23 52  1  0  0  0  0
 23 53  1  0  0  0  0
 24 25  1  0  0  0  0
 24 54  1  0  0  0  0
 24 55  1  0  0  0  0
 25 26  1  0  0  0  0
 26 56  1  0  0  0  0
 26 57  1  0  0  0  0
 27 28  1  0  0  0  0
 27 58  1  0  0  0  0
 27 59  1  0  0  0  0
 28 29  1  0  0  0  0
 28 60  1  0  0  0  0
 29 61  1  0  0  0  0
 29 62  1  0  0  0  0
 29 63  1  0  0  0  0
M  CHG  1   3   1
M  END
> <s_m_source_file>
AV-unprocessed.smi

> <i_m_source_file_index>
249

> <i_lp_mmshare_version>
43012

> <i_f3d_flags>
0

> <s_epik_input>
W0NIM11bQ0gyXU4xW0NIMl1bQ0gyXVtDQEhdKFtDSDJdW0NASF0xW0NIM10pTihbQ0gzXSljKG5bY0hdbjIpYyhjMjMpbltjSF1uM1tDSDJdW0NASF0oW0NIMl1bT0hdKVtDQEBIXTRbQ0gyXVtDSDJdT1tDSDJdNA==

> <s_epik_cmdline>
J2VwaWtfcHl0aG9uJywgJy1waCcsICc3LjAnLCAnLXRuJywgJzgnLCAnLW1hJywgJzIwMCcsICctbWV0YWxfYmluZGluZycsICctaW1hZScsICc8aW5maWxlLm1hZT4nLCAnLW9tYWUnLCAnPG91dGZpbGUubWFlPic=

> <r_lp_tautomer_probability>
1

> <r_epik_Ionization_Penalty>
0.00294688

> <r_epik_Ionization_Penalty_Charging>
0.00169971

> <r_epik_Ionization_Penalty_Neutral>
0.00124717

> <r_epik_State_Penalty>
-0

> <r_epik_Charging_Adjusted_Penalty>
0.00169971

> <i_epik_Tot_Q>
1

> <i_epik_Tot_abs_Q>
1

> <r_epik_Metal_State_Penalty>
-0

> <b_epik_Metal_Only>
0

> <s_lp_Force_Field>
OPLS_2005

> <r_lp_Energy>
53.7488

> <b_lp_Chiralities_Consistent>
1

> <s_lp_Variant>
AV-unprocessed.smi:249-28

> <Gold.Version>
5.8.1

> <Gold.Id.Protein>
6NUR|6NUR_protein|mol2

> <Gold.PLP.Fitness>
51.3530

> <Gold.PLP.PLP>
-45.2539

> <Gold.PLP.part.hbond>
-3.3132

> <Gold.PLP.part.metal>
0.0000

> <Gold.PLP.part.buried>
-3.6986

> <Gold.PLP.part.nonpolar>
-39.4003

> <Gold.PLP.part.repulsive>
0.0482

> <Gold.PLP.ligand.clash>
0.0000

> <Gold.PLP.ligand.torsion>
1.7948

> <Gold.PLP.Chemscore.Hbond>
2.8344

> <Gold.PLP.Chemscore.CHOScore>
0.0000

> <Gold.PLP.Chemscore.Metal>
0.0000

> <Gold.Chemscore.Hbonds>
donor molecule, donor type, donor heavy atom, donor atom, acceptor molecule, acceptor atom, score
      P1  H  7997  8008       L1    10  1.00
      P1  H 10752 10763       L1    12  0.36

> <Gold.PLP.Chemscore.Internal.Correction>
1.1855

> <Gold.Rescore>
     Score         DG    S(hbond)    S(metal)    S(lipo)     H(rot)  DE(clash)    DE(int)     intcor
     17.33     -19.91       2.02        0.00     123.56       2.65       0.84       1.74       ----

> <Gold.Chemscore.Fitness>
17.3295

> <Gold.Chemscore.DG>
-19.9104

> <Gold.Chemscore.ZeroCoef>
-5.4800

> <Gold.Chemscore.Hbond>
2.0246

> <Gold.Chemscore.Metal>
0.0000

> <Gold.Chemscore.Lipo>
123.5580

> <Gold.Chemscore.Internal_Hbond>
0.0000

> <Gold.Chemscore.DEClash>
0.8377

> <Gold.Chemscore.DEInternal>
1.7432

> <Gold.Chemscore.Rot>
2.6515

> <Gold.Chemscore.Internal.Correction>
   9.000000E+99

> <Gold.Chemscore.Hbonds>
donor molecule, donor type, donor heavy atom, donor atom, acceptor molecule, acceptor atom, score
      P1  H  7997  8008       L1    10  0.88
      P1  H 10752 10763       L1    12  0.04

> <Gold.Chemscore.Hbond.Weighted>
-6.7621

> <Gold.Chemscore.Metal.Weighted>
-0.0000

> <Gold.Chemscore.Lipo.Weighted>
-14.4563

> <Gold.Chemscore.Internal_Hbond.Weighted>
0.0000

> <Gold.Chemscore.DEClash.Weighted>
0.8377

> <Gold.Chemscore.DEInternal.Weighted>
1.7432

> <Gold.Chemscore.Rot.Weighted>
6.7880

> <Gold.Chemscore.Internal.Correction.Weighted>
   9.000000E+99

> <Gold.Protein.RotatedTorsions>
[ 6907 6896 6895 6894 ] final   28.40 input  -60.11 | X-H torsion
[ 7974 7965 7964 7962 ] final  -63.72 input  175.53 | X-H torsion
[ 8008 7997 7996 7995 ] final  -84.42 input   59.86 | X-H torsion
[ 10167 10162 10161 10158 ] final -101.69 input  -65.29 | X-H torsion
[ 10718 10713 10712 10709 ] final  -98.60 input   66.30 | X-H torsion
[ 10763 10752 10751 10750 ] final   80.38 input  -60.55 | X-H torsion
[ 11005 11000 10999 10996 ] final  -63.99 input  -57.11 | X-H torsion

> <Gold.Protein.ActiveResidues>
 VAL166  LYS551  ARG553  GLY616  TRP617  ASP618  TYR619  PRO620  LYS621  CYS622 
 ASP623  PHE694  ASN695  SER759  ASP760  ASP761  ALA762  ILE779  LEU786  VAL792 
 PHE793  MET794  SER795  GLU796  ALA797  LYS798  CYS799  TRP800  GLU811  SER814 

> <Gold.Protein.RotatedAtoms>
  152.0163  134.9848  160.0569 H   0  0  0  0  0  0  0  0  0  0  0  0  # atno 6907 bound_to 6896
  152.1380  133.4442  159.4761 H   0  0  0  0  0  0  0  0  0  0  0  0  # atno 6908 bound_to 6896
  150.6862  134.2258  159.4458 H   0  0  0  0  0  0  0  0  0  0  0  0  # atno 6909 bound_to 6896
  145.7756  140.8789  143.0357 H   0  0  0  0  0  0  0  0  0  0  0  0  # atno 7974 bound_to 7965
  154.6296  140.0605  156.9715 H   0  0  0  0  0  0  0  0  0  0  0  0  # atno 8008 bound_to 7997
  155.1687  140.3289  155.4378 H   0  0  0  0  0  0  0  0  0  0  0  0  # atno 8009 bound_to 7997
  156.2475  140.1918  156.6790 H   0  0  0  0  0  0  0  0  0  0  0  0  # atno 8010 bound_to 7997
  140.2386  143.3555  152.0822 H   0  0  0  0  0  0  0  0  0  0  0  0  # atno 10167 bound_to 10162
  156.0112  130.5245  150.6546 H   0  0  0  0  0  0  0  0  0  0  0  0  # atno 10718 bound_to 10713
  153.1029  135.4805  154.8899 H   0  0  0  0  0  0  0  0  0  0  0  0  # atno 10763 bound_to 10752
  154.7398  135.3079  154.8750 H   0  0  0  0  0  0  0  0  0  0  0  0  # atno 10764 bound_to 10752
  153.9361  135.6839  153.4798 H   0  0  0  0  0  0  0  0  0  0  0  0  # atno 10765 bound_to 10752
  141.1410  133.6659  156.5764 H   0  0  0  0  0  0  0  0  0  0  0  0  # atno 11005 bound_to 11000
  144.6805  139.9917  143.7484 LP  0  0  0  0  0  0  0  0  0  0  0  0  # atno 17320 bound_to 7965
  146.0126  139.3182  143.0861 LP  0  0  0  0  0  0  0  0  0  0  0  0  # atno 17321 bound_to 7965
  139.5085  144.6851  151.5909 LP  0  0  0  0  0  0  0  0  0  0  0  0  # atno 17342 bound_to 10162
  140.6130  143.9400  150.6468 LP  0  0  0  0  0  0  0  0  0  0  0  0  # atno 17343 bound_to 10162
  157.4301  131.0848  151.1047 LP  0  0  0  0  0  0  0  0  0  0  0  0  # atno 17370 bound_to 10713
  157.1622  130.6231  149.5614 LP  0  0  0  0  0  0  0  0  0  0  0  0  # atno 17371 bound_to 10713
  140.3872  134.7472  157.4699 LP  0  0  0  0  0  0  0  0  0  0  0  0  # atno 17394 bound_to 11000
  140.0593  134.6018  155.8768 LP  0  0  0  0  0  0  0  0  0  0  0  0  # atno 17395 bound_to 11000

$$$$
