AV-unprocessed.smi:2652|AV-procd|sdf|10294|dock1
  -GOLD-   2272014303D 1   1.00000     0.00000
 Structure written by MMmdl.
 37 38  0  0  0  0  0  0  0  0  2 V2000
  151.7620  144.6236  159.4656 C   0  0  0  0  0  0  0  0  0  0  0  0
  152.4041  143.8907  160.6312 C   0  0  0  0  0  0  0  0  0  0  0  0
  152.2817  144.2242  161.9204 C   0  0  0  0  0  0  0  0  0  0  0  0
  153.1301  143.1300  162.9850 S   0  0  0  0  0  0  0  0  0  0  0  0
  153.6771  142.1621  161.5690 C   0  0  0  0  0  0  0  0  0  0  0  0
  154.3803  141.1590  161.6798 O   0  0  0  0  0  0  0  0  0  0  0  0
  153.1805  142.7453  160.4031 N   0  0  0  0  0  0  0  0  0  0  0  0
  153.4579  142.2069  159.0646 C   0  0  0  0  0  0  0  0  0  0  0  0
  152.7150  140.8976  158.7645 C   0  0  0  0  0  0  0  0  0  0  0  0
  152.8665  139.9155  159.4913 O   0  0  0  0  0  0  0  0  0  0  0  0
  151.9172  140.9392  157.6810 N   0  0  0  0  0  0  0  0  0  0  0  0
  151.0376  139.9344  157.0601 C   0  0  0  0  0  0  0  0  0  0  0  0
  151.6168  139.7146  155.6385 C   0  0  0  0  0  0  0  0  0  0  0  0
  150.8663  139.9248  154.6594 O   0  0  0  0  0  0  0  0  0  0  0  0
  152.7921  139.2939  155.5449 O   0  5  0  0  0  0  0  0  0  0  0  0
  150.9285  138.5849  157.8412 C   0  0  0  0  0  0  0  0  0  0  0  0
  149.8716  137.6263  157.2585 C   0  0  0  0  0  0  0  0  0  0  0  0
  148.4908  138.2947  157.1980 C   0  0  0  0  0  0  0  0  0  0  0  0
  148.5485  139.6136  156.4143 C   0  0  0  0  0  0  0  0  0  0  0  0
  149.6151  140.5624  156.9960 C   0  0  0  0  0  0  0  0  0  0  0  0
  150.9330  145.2386  159.8172 H   0  0  0  0  0  0  0  0  0  0  0  0
  151.3615  143.9342  158.7223 H   0  0  0  0  0  0  0  0  0  0  0  0
  152.4885  145.2778  158.9832 H   0  0  0  0  0  0  0  0  0  0  0  0
  151.7230  145.0598  162.3158 H   0  0  0  0  0  0  0  0  0  0  0  0
  153.2191  142.9434  158.2971 H   0  0  0  0  0  0  0  0  0  0  0  0
  154.5287  142.0227  158.9620 H   0  0  0  0  0  0  0  0  0  0  0  0
  151.9259  141.8179  157.1840 H   0  0  0  0  0  0  0  0  0  0  0  0
  151.8914  138.0738  157.8881 H   0  0  0  0  0  0  0  0  0  0  0  0
  150.6443  138.7866  158.8747 H   0  0  0  0  0  0  0  0  0  0  0  0
  150.1667  137.2980  156.2617 H   0  0  0  0  0  0  0  0  0  0  0  0
  149.8164  136.7256  157.8703 H   0  0  0  0  0  0  0  0  0  0  0  0
  147.7688  137.6190  156.7390 H   0  0  0  0  0  0  0  0  0  0  0  0
  148.1349  138.4877  158.2107 H   0  0  0  0  0  0  0  0  0  0  0  0
  148.7590  139.4080  155.3642 H   0  0  0  0  0  0  0  0  0  0  0  0
  147.5725  140.0986  156.4382 H   0  0  0  0  0  0  0  0  0  0  0  0
  149.3085  140.8475  158.0036 H   0  0  0  0  0  0  0  0  0  0  0  0
  149.6215  141.4929  156.4264 H   0  0  0  0  0  0  0  0  0  0  0  0
  1  2  1  0  0  0  0
  1 21  1  0  0  0  0
  1 22  1  0  0  0  0
  1 23  1  0  0  0  0
  2  7  1  0  0  0  0
  2  3  2  0  0  0  0
  3  4  1  0  0  0  0
  3 24  1  0  0  0  0
  4  5  1  0  0  0  0
  5  6  2  0  0  0  0
  5  7  1  0  0  0  0
  7  8  1  0  0  0  0
  8  9  1  0  0  0  0
  8 25  1  0  0  0  0
  8 26  1  0  0  0  0
  9 10  2  0  0  0  0
  9 11  1  0  0  0  0
 11 12  1  0  0  0  0
 11 27  1  0  0  0  0
 12 20  1  0  0  0  0
 12 13  1  0  0  0  0
 12 16  1  0  0  0  0
 13 14  2  0  0  0  0
 13 15  1  0  0  0  0
 16 17  1  0  0  0  0
 16 28  1  0  0  0  0
 16 29  1  0  0  0  0
 17 18  1  0  0  0  0
 17 30  1  0  0  0  0
 17 31  1  0  0  0  0
 18 19  1  0  0  0  0
 18 32  1  0  0  0  0
 18 33  1  0  0  0  0
 19 20  1  0  0  0  0
 19 34  1  0  0  0  0
 19 35  1  0  0  0  0
 20 36  1  0  0  0  0
 20 37  1  0  0  0  0
M  CHG  1  15  -1
M  END
> <s_m_source_file>
AV-unprocessed.smi

> <i_m_source_file_index>
2652

> <i_lp_mmshare_version>
43012

> <i_f3d_flags>
0

> <s_epik_input>
W0NIM11jMVtjSF1zYyg9TyluMVtDSDJdQyg9TylbTkhdQzIoQyg9TylbT0hdKVtDSDJdW0NIMl1bQ0gyXVtDSDJdW0NIMl0y

> <s_epik_cmdline>
J2VwaWtfcHl0aG9uJywgJy1waCcsICc3LjAnLCAnLXRuJywgJzgnLCAnLW1hJywgJzIwMCcsICctbWV0YWxfYmluZGluZycsICctaW1hZScsICc8aW5maWxlLm1hZT4nLCAnLW9tYWUnLCAnPG91dGZpbGUubWFlPic=

> <r_epik_Ionization_Penalty>
0.000325241

> <r_epik_Ionization_Penalty_Charging>
0.000325125

> <r_epik_Ionization_Penalty_Neutral>
1.16183e-07

> <r_epik_State_Penalty>
0.000195685

> <r_epik_Charging_Adjusted_Penalty>
0.00052081

> <i_epik_Tot_Q>
-1

> <i_epik_Tot_abs_Q>
1

> <r_epik_Metal_State_Penalty>
-0

> <b_epik_Metal_Only>
0

> <s_lp_Force_Field>
OPLS_2005

> <r_lp_Energy>
9.07631

> <b_lp_Chiralities_Consistent>
1

> <s_lp_Variant>
AV-unprocessed.smi:2652-1

> <Gold.Version>
5.8.1

> <Gold.Id.Protein>
6NUR|6NUR_protein|mol2

> <Gold.PLP.Fitness>
47.0607

> <Gold.PLP.PLP>
-38.4439

> <Gold.PLP.part.hbond>
-2.2672

> <Gold.PLP.part.metal>
0.0000

> <Gold.PLP.part.buried>
-6.8162

> <Gold.PLP.part.nonpolar>
-29.2999

> <Gold.PLP.part.repulsive>
0.1587

> <Gold.PLP.ligand.clash>
0.0000

> <Gold.PLP.ligand.torsion>
0.2218

> <Gold.PLP.Chemscore.Hbond>
3.0000

> <Gold.PLP.Chemscore.CHOScore>
0.0000

> <Gold.PLP.Chemscore.Metal>
0.0000

> <Gold.Chemscore.Hbonds>
donor molecule, donor type, donor heavy atom, donor atom, acceptor molecule, acceptor atom, score
      P1  H  7989  7998       L1    14  1.00
      P1  H  7997  8008       L1    15  2.00

> <Gold.PLP.Chemscore.Internal.Correction>
0.0604

> <Gold.Rescore>
     Score         DG    S(hbond)    S(metal)    S(lipo)     H(rot)  DE(clash)    DE(int)     intcor
     12.07     -15.67       1.95        0.00      76.53       2.05       0.19       3.41       ----

> <Gold.Chemscore.Fitness>
12.0681

> <Gold.Chemscore.DG>
-15.6706

> <Gold.Chemscore.ZeroCoef>
-5.4800

> <Gold.Chemscore.Hbond>
1.9453

> <Gold.Chemscore.Metal>
0.0000

> <Gold.Chemscore.Lipo>
76.5312

> <Gold.Chemscore.Internal_Hbond>
0.0000

> <Gold.Chemscore.DEClash>
0.1940

> <Gold.Chemscore.DEInternal>
3.4085

> <Gold.Chemscore.Rot>
2.0550

> <Gold.Chemscore.Internal.Correction>
   9.000000E+99

> <Gold.Chemscore.Hbonds>
donor molecule, donor type, donor heavy atom, donor atom, acceptor molecule, acceptor atom, score
      P1  H  7989  7998       L1    14  0.78
      P1  H  7997  8008       L1    15  1.00

> <Gold.Chemscore.Hbond.Weighted>
-6.4972

> <Gold.Chemscore.Metal.Weighted>
-0.0000

> <Gold.Chemscore.Lipo.Weighted>
-8.9541

> <Gold.Chemscore.Internal_Hbond.Weighted>
0.0000

> <Gold.Chemscore.DEClash.Weighted>
0.1940

> <Gold.Chemscore.DEInternal.Weighted>
3.4085

> <Gold.Chemscore.Rot.Weighted>
5.2607

> <Gold.Chemscore.Internal.Correction.Weighted>
   9.000000E+99

> <Gold.Protein.RotatedTorsions>
[ 6907 6896 6895 6894 ] final   25.01 input  -60.11 | X-H torsion
[ 7974 7965 7964 7962 ] final -149.49 input  175.53 | X-H torsion
[ 8008 7997 7996 7995 ] final  -36.94 input   59.86 | X-H torsion
[ 10167 10162 10161 10158 ] final -173.18 input  -65.29 | X-H torsion
[ 10718 10713 10712 10709 ] final   68.57 input   66.30 | X-H torsion
[ 10763 10752 10751 10750 ] final -171.31 input  -60.55 | X-H torsion
[ 11005 11000 10999 10996 ] final   19.13 input  -57.11 | X-H torsion

> <Gold.Protein.ActiveResidues>
 VAL166  LYS551  ARG553  GLY616  TRP617  ASP618  TYR619  PRO620  LYS621  CYS622 
 ASP623  PHE694  ASN695  SER759  ASP760  ASP761  ALA762  ILE779  LEU786  VAL792 
 PHE793  MET794  SER795  GLU796  ALA797  LYS798  CYS799  TRP800  GLU811  SER814 

> <Gold.Protein.RotatedAtoms>
  151.9661  135.0100  160.0550 H   0  0  0  0  0  0  0  0  0  0  0  0  # atno 6907 bound_to 6896
  152.1825  133.4712  159.4974 H   0  0  0  0  0  0  0  0  0  0  0  0  # atno 6908 bound_to 6896
  150.6920  134.1733  159.4263 H   0  0  0  0  0  0  0  0  0  0  0  0  # atno 6909 bound_to 6896
  144.7964  140.5058  143.5737 H   0  0  0  0  0  0  0  0  0  0  0  0  # atno 7974 bound_to 7965
  154.4063  140.1617  156.2456 H   0  0  0  0  0  0  0  0  0  0  0  0  # atno 8008 bound_to 7997
  155.9163  140.3424  155.6115 H   0  0  0  0  0  0  0  0  0  0  0  0  # atno 8009 bound_to 7997
  155.7275  140.0776  157.2294 H   0  0  0  0  0  0  0  0  0  0  0  0  # atno 8010 bound_to 7997
  139.5703  144.1658  152.1373 H   0  0  0  0  0  0  0  0  0  0  0  0  # atno 10167 bound_to 10162
  157.6297  130.9380  150.0395 H   0  0  0  0  0  0  0  0  0  0  0  0  # atno 10718 bound_to 10713
  154.6319  135.2887  155.0206 H   0  0  0  0  0  0  0  0  0  0  0  0  # atno 10763 bound_to 10752
  154.1363  135.6525  153.4936 H   0  0  0  0  0  0  0  0  0  0  0  0  # atno 10764 bound_to 10752
  153.0284  135.5322  154.7150 H   0  0  0  0  0  0  0  0  0  0  0  0  # atno 10765 bound_to 10752
  140.4171  134.1558  155.7670 H   0  0  0  0  0  0  0  0  0  0  0  0  # atno 11005 bound_to 11000
  145.5662  139.1481  143.3314 LP  0  0  0  0  0  0  0  0  0  0  0  0  # atno 17320 bound_to 7965
  146.2234  140.5796  142.9007 LP  0  0  0  0  0  0  0  0  0  0  0  0  # atno 17321 bound_to 7965
  140.1190  144.5390  150.6875 LP  0  0  0  0  0  0  0  0  0  0  0  0  # atno 17342 bound_to 10162
  140.6987  143.2420  151.4927 LP  0  0  0  0  0  0  0  0  0  0  0  0  # atno 17343 bound_to 10162
  156.1492  130.3642  149.9464 LP  0  0  0  0  0  0  0  0  0  0  0  0  # atno 17370 bound_to 10713
  156.7488  130.9107  151.3636 LP  0  0  0  0  0  0  0  0  0  0  0  0  # atno 17371 bound_to 10713
  141.1799  133.8436  157.1295 LP  0  0  0  0  0  0  0  0  0  0  0  0  # atno 17394 bound_to 11000
  140.0226  134.9938  157.0623 LP  0  0  0  0  0  0  0  0  0  0  0  0  # atno 17395 bound_to 11000

$$$$
