AV-unprocessed.smi:1934|AV-procd|sdf|7826|dock5
  -GOLD-   22720 9573D 1   1.00000     0.00000
 Structure written by MMmdl.
 46 47  0  0  0  0  0  0  0  0  2 V2000
  151.7399  141.6411  158.0924 C   0  0  0  0  0  0  0  0  0  0  0  0
  151.4113  140.8759  156.8444 C   0  0  0  0  0  0  0  0  0  0  0  0
  150.2342  140.9654  156.0463 C   0  0  0  0  0  0  0  0  0  0  0  0
  150.4725  140.0534  155.0548 C   0  0  0  0  0  0  0  0  0  0  0  0
  149.6835  139.7105  154.0019 N   0  0  0  0  0  0  0  0  0  0  0  0
  148.3736  139.4077  153.9997 C   0  0  0  0  0  0  0  0  0  0  0  0
  147.6388  139.3998  154.9875 O   0  0  0  0  0  0  0  0  0  0  0  0
  147.9485  139.0967  152.7667 N   0  0  0  0  0  0  0  0  0  0  0  0
  146.5836  138.7091  152.4293 C   0  0  0  0  0  0  0  0  0  0  0  0
  146.5605  137.5619  151.3999 C   0  0  0  0  0  0  0  0  0  0  0  0
  145.3332  136.7319  151.4971 N   0  3  2  0  0  0  0  0  0  0  0  0
  144.8328  136.6401  152.8935 C   0  0  0  0  0  0  0  0  0  0  0  0
  143.4920  135.8921  152.9558 C   0  0  0  0  0  0  0  0  0  0  0  0
  143.6123  134.4977  152.3289 C   0  0  0  0  0  0  0  0  0  0  0  0
  144.1538  134.6048  150.8937 C   0  0  2  0  0  0  0  0  0  0  0  0
  144.3095  133.2200  150.2494 C   0  0  0  0  0  0  0  0  0  0  0  0
  145.4837  135.3854  150.8813 C   0  0  0  0  0  0  0  0  0  0  0  0
  151.7087  139.4823  155.2632 N   0  0  0  0  0  0  0  0  0  0  0  0
  152.3993  138.4683  154.4898 C   0  0  0  0  0  0  0  0  0  0  0  0
  152.2839  139.9915  156.3741 N   0  0  0  0  0  0  0  0  0  0  0  0
  150.9469  142.3466  158.3416 H   0  0  0  0  0  0  0  0  0  0  0  0
  152.6630  142.2091  157.9739 H   0  0  0  0  0  0  0  0  0  0  0  0
  151.8657  140.9705  158.9427 H   0  0  0  0  0  0  0  0  0  0  0  0
  149.3731  141.5991  156.1956 H   0  0  0  0  0  0  0  0  0  0  0  0
  150.1552  139.6592  153.1110 H   0  0  0  0  0  0  0  0  0  0  0  0
  148.6155  139.1306  152.0091 H   0  0  0  0  0  0  0  0  0  0  0  0
  146.0436  138.4237  153.3337 H   0  0  0  0  0  0  0  0  0  0  0  0
  146.0865  139.5955  152.0374 H   0  0  0  0  0  0  0  0  0  0  0  0
  146.6671  137.9488  150.3850 H   0  0  0  0  0  0  0  0  0  0  0  0
  147.4287  136.9253  151.5770 H   0  0  0  0  0  0  0  0  0  0  0  0
  145.5751  136.1367  153.5151 H   0  0  0  0  0  0  0  0  0  0  0  0
  144.6998  137.6410  153.3059 H   0  0  0  0  0  0  0  0  0  0  0  0
  143.1610  135.8072  153.9914 H   0  0  0  0  0  0  0  0  0  0  0  0
  142.7261  136.4662  152.4324 H   0  0  0  0  0  0  0  0  0  0  0  0
  144.2780  133.8801  152.9337 H   0  0  0  0  0  0  0  0  0  0  0  0
  142.6396  134.0045  152.3321 H   0  0  0  0  0  0  0  0  0  0  0  0
  143.4285  135.1636  150.2995 H   0  0  0  0  0  0  0  0  0  0  0  0
  145.0342  132.6097  150.7895 H   0  0  0  0  0  0  0  0  0  0  0  0
  144.6486  133.3032  149.2164 H   0  0  0  0  0  0  0  0  0  0  0  0
  143.3613  132.6813  150.2418 H   0  0  0  0  0  0  0  0  0  0  0  0
  145.8242  135.4813  149.8511 H   0  0  0  0  0  0  0  0  0  0  0  0
  146.2541  134.8266  151.4158 H   0  0  0  0  0  0  0  0  0  0  0  0
  152.3509  138.7153  153.4291 H   0  0  0  0  0  0  0  0  0  0  0  0
  151.9258  137.5000  154.6532 H   0  0  0  0  0  0  0  0  0  0  0  0
  153.4469  138.4064  154.7880 H   0  0  0  0  0  0  0  0  0  0  0  0
  144.6175  137.2173  150.9752 H   0  0  0  0  0  0  0  0  0  0  0  0
  1  2  1  0  0  0  0
  1 21  1  0  0  0  0
  1 22  1  0  0  0  0
  1 23  1  0  0  0  0
  2 20  2  0  0  0  0
  2  3  1  0  0  0  0
  3  4  2  0  0  0  0
  3 24  1  0  0  0  0
  4  5  1  0  0  0  0
  4 18  1  0  0  0  0
  5  6  1  0  0  0  0
  5 25  1  0  0  0  0
  6  7  2  0  0  0  0
  6  8  1  0  0  0  0
  8  9  1  0  0  0  0
  8 26  1  0  0  0  0
  9 10  1  0  0  0  0
  9 27  1  0  0  0  0
  9 28  1  0  0  0  0
 10 11  1  0  0  0  0
 10 29  1  0  0  0  0
 10 30  1  0  0  0  0
 11 17  1  0  0  0  0
 11 12  1  0  0  0  0
 11 46  1  0  0  0  0
 12 13  1  0  0  0  0
 12 31  1  0  0  0  0
 12 32  1  0  0  0  0
 13 14  1  0  0  0  0
 13 33  1  0  0  0  0
 13 34  1  0  0  0  0
 14 15  1  0  0  0  0
 14 35  1  0  0  0  0
 14 36  1  0  0  0  0
 15 16  1  0  0  0  0
 15 17  1  0  0  0  0
 15 37  1  0  0  0  0
 16 38  1  0  0  0  0
 16 39  1  0  0  0  0
 16 40  1  0  0  0  0
 17 41  1  0  0  0  0
 17 42  1  0  0  0  0
 18 19  1  0  0  0  0
 18 20  1  0  0  0  0
 19 43  1  0  0  0  0
 19 44  1  0  0  0  0
 19 45  1  0  0  0  0
M  CHG  1  11   1
M  END
> <s_m_source_file>
AV-unprocessed.smi

> <i_m_source_file_index>
1934

> <i_lp_mmshare_version>
43012

> <i_f3d_flags>
0

> <s_epik_input>
W0NIM11jMVtjSF1jKG4objEpW0NIM10pW05IXUMoPU8pW05IXVtDSDJdW0NIMl1OMltDSDJdW0NIMl1bQ0gyXVtDQEBIXShbQ0gzXSlbQ0gyXTI=

> <s_epik_cmdline>
J2VwaWtfcHl0aG9uJywgJy1waCcsICc3LjAnLCAnLXRuJywgJzgnLCAnLW1hJywgJzIwMCcsICctbWV0YWxfYmluZGluZycsICctaW1hZScsICc8aW5maWxlLm1hZT4nLCAnLW9tYWUnLCAnPG91dGZpbGUubWFlPic=

> <r_lp_tautomer_probability>
1

> <r_epik_Ionization_Penalty>
0.00202955

> <r_epik_Ionization_Penalty_Charging>
0.00195276

> <r_epik_Ionization_Penalty_Neutral>
7.67968e-05

> <r_epik_State_Penalty>
0.00133177

> <r_epik_Charging_Adjusted_Penalty>
0.00328452

> <i_epik_Tot_Q>
1

> <i_epik_Tot_abs_Q>
1

> <r_epik_Metal_State_Penalty>
-0

> <b_epik_Metal_Only>
0

> <s_lp_Force_Field>
OPLS_2005

> <r_lp_Energy>
17.6546

> <b_lp_Chiralities_Consistent>
1

> <s_lp_Variant>
AV-unprocessed.smi:1934-4

> <Gold.Version>
5.8.1

> <Gold.Id.Protein>
6NUR|6NUR_protein|mol2

> <Gold.PLP.Fitness>
48.5456

> <Gold.PLP.PLP>
-39.3049

> <Gold.PLP.part.hbond>
-4.5151

> <Gold.PLP.part.metal>
0.0000

> <Gold.PLP.part.buried>
-0.9248

> <Gold.PLP.part.nonpolar>
-34.0379

> <Gold.PLP.part.repulsive>
0.3115

> <Gold.PLP.ligand.clash>
0.0075

> <Gold.PLP.ligand.torsion>
0.9559

> <Gold.PLP.Chemscore.Hbond>
3.7120

> <Gold.PLP.Chemscore.CHOScore>
0.0000

> <Gold.PLP.Chemscore.Metal>
0.0000

> <Gold.Chemscore.Hbonds>
donor molecule, donor type, donor heavy atom, donor atom, acceptor molecule, acceptor atom, score
      L1  H     5    25       P1  7957  0.66
      L1  H     8    26       P1  7957  0.96
      L1  H    11    46       P1 10171  1.00
      P1  H  7997  8009       L1    20  0.94

> <Gold.PLP.Chemscore.Internal.Correction>
0.0240

> <Gold.Rescore>
     Score         DG    S(hbond)    S(metal)    S(lipo)     H(rot)  DE(clash)    DE(int)     intcor
     19.52     -22.03       3.27        0.00      80.57       1.48       1.53       0.98       ----

> <Gold.Chemscore.Fitness>
19.5232

> <Gold.Chemscore.DG>
-22.0323

> <Gold.Chemscore.ZeroCoef>
-5.4800

> <Gold.Chemscore.Hbond>
3.2708

> <Gold.Chemscore.Metal>
0.0000

> <Gold.Chemscore.Lipo>
80.5651

> <Gold.Chemscore.Internal_Hbond>
0.0000

> <Gold.Chemscore.DEClash>
1.5326

> <Gold.Chemscore.DEInternal>
0.9764

> <Gold.Chemscore.Rot>
1.4838

> <Gold.Chemscore.Internal.Correction>
   9.000000E+99

> <Gold.Chemscore.Hbonds>
donor molecule, donor type, donor heavy atom, donor atom, acceptor molecule, acceptor atom, score
      L1  H     5    25       P1  7957  0.64
      L1  H     8    26       P1  7957  0.88
      L1  H    11    46       P1 10171  0.98
      P1  H  7997  8009       L1    20  0.81

> <Gold.Chemscore.Hbond.Weighted>
-10.9246

> <Gold.Chemscore.Metal.Weighted>
-0.0000

> <Gold.Chemscore.Lipo.Weighted>
-9.4261

> <Gold.Chemscore.Internal_Hbond.Weighted>
0.0000

> <Gold.Chemscore.DEClash.Weighted>
1.5326

> <Gold.Chemscore.DEInternal.Weighted>
0.9764

> <Gold.Chemscore.Rot.Weighted>
3.7985

> <Gold.Chemscore.Internal.Correction.Weighted>
   9.000000E+99

> <Gold.Protein.RotatedTorsions>
[ 6907 6896 6895 6894 ] final -177.95 input  -60.11 | X-H torsion
[ 7974 7965 7964 7962 ] final  -92.94 input  175.53 | X-H torsion
[ 8008 7997 7996 7995 ] final -160.39 input   59.86 | X-H torsion
[ 10167 10162 10161 10158 ] final  -40.90 input  -65.29 | X-H torsion
[ 10718 10713 10712 10709 ] final  -13.40 input   66.30 | X-H torsion
[ 10763 10752 10751 10750 ] final -169.50 input  -60.55 | X-H torsion
[ 11005 11000 10999 10996 ] final  173.33 input  -57.11 | X-H torsion

> <Gold.Protein.ActiveResidues>
 VAL166  LYS551  ARG553  GLY616  TRP617  ASP618  TYR619  PRO620  LYS621  CYS622 
 ASP623  PHE694  ASN695  SER759  ASP760  ASP761  ALA762  ILE779  LEU786  VAL792 
 PHE793  MET794  SER795  GLU796  ALA797  LYS798  CYS799  TRP800  GLU811  SER814 

> <Gold.Protein.RotatedAtoms>
  151.6292  133.3333  159.3104 H   0  0  0  0  0  0  0  0  0  0  0  0  # atno 6907 bound_to 6896
  150.8065  134.7197  159.6660 H   0  0  0  0  0  0  0  0  0  0  0  0  # atno 6908 bound_to 6896
  152.4161  134.6044  160.0060 H   0  0  0  0  0  0  0  0  0  0  0  0  # atno 6909 bound_to 6896
  145.3931  140.9530  143.2329 H   0  0  0  0  0  0  0  0  0  0  0  0  # atno 7974 bound_to 7965
  155.7767  140.0859  157.2080 H   0  0  0  0  0  0  0  0  0  0  0  0  # atno 8008 bound_to 7997
  154.3992  140.1515  156.3062 H   0  0  0  0  0  0  0  0  0  0  0  0  # atno 8009 bound_to 7997
  155.8694  140.3426  155.5813 H   0  0  0  0  0  0  0  0  0  0  0  0  # atno 8010 bound_to 7997
  140.7020  143.3126  151.2990 H   0  0  0  0  0  0  0  0  0  0  0  0  # atno 10167 bound_to 10162
  156.6308  130.4901  149.6130 H   0  0  0  0  0  0  0  0  0  0  0  0  # atno 10718 bound_to 10713
  154.6517  135.2912  154.9979 H   0  0  0  0  0  0  0  0  0  0  0  0  # atno 10763 bound_to 10752
  154.1070  135.6568  153.4882 H   0  0  0  0  0  0  0  0  0  0  0  0  # atno 10764 bound_to 10752
  153.0380  135.5256  154.7427 H   0  0  0  0  0  0  0  0  0  0  0  0  # atno 10765 bound_to 10752
  140.3393  134.7290  157.4191 H   0  0  0  0  0  0  0  0  0  0  0  0  # atno 11005 bound_to 11000
  144.8426  139.5447  143.6893 LP  0  0  0  0  0  0  0  0  0  0  0  0  # atno 17320 bound_to 7965
  146.2788  139.6822  142.9244 LP  0  0  0  0  0  0  0  0  0  0  0  0  # atno 17321 bound_to 7965
  139.6554  144.0286  152.2656 LP  0  0  0  0  0  0  0  0  0  0  0  0  # atno 17342 bound_to 10162
  139.9836  144.6411  150.7878 LP  0  0  0  0  0  0  0  0  0  0  0  0  # atno 17343 bound_to 10162
  156.2236  130.6752  151.1393 LP  0  0  0  0  0  0  0  0  0  0  0  0  # atno 17370 bound_to 10713
  157.7200  131.0687  150.6173 LP  0  0  0  0  0  0  0  0  0  0  0  0  # atno 17371 bound_to 10713
  140.0794  134.5751  155.8556 LP  0  0  0  0  0  0  0  0  0  0  0  0  # atno 17394 bound_to 11000
  141.2043  133.6638  156.6111 LP  0  0  0  0  0  0  0  0  0  0  0  0  # atno 17395 bound_to 11000

$$$$
