AV-unprocessed.smi:1029|AV-procd|sdf|4475|dock6
  -GOLD-   22720 2453D 1   1.00000     0.00000
 Structure written by MMmdl.
 46 47  0  0  0  0  0  0  0  0  2 V2000
  153.3794  137.4208  157.1249 C   0  0  0  0  0  0  0  0  0  0  0  0
  152.4833  138.1922  156.2016 C   0  0  0  0  0  0  0  0  0  0  0  0
  151.4080  137.7084  155.4050 C   0  0  0  0  0  0  0  0  0  0  0  0
  150.9594  138.8420  154.7811 C   0  0  0  0  0  0  0  0  0  0  0  0
  149.9414  138.9702  153.8906 N   0  0  0  0  0  0  0  0  0  0  0  0
  148.6163  138.9778  154.1183 C   0  0  0  0  0  0  0  0  0  0  0  0
  148.0794  138.8906  155.2230 O   0  0  0  0  0  0  0  0  0  0  0  0
  147.9291  139.0984  152.9732 N   0  0  0  0  0  0  0  0  0  0  0  0
  146.4740  139.1317  152.8699 C   0  0  0  0  0  0  0  0  0  0  0  0
  145.9073  137.8221  152.2842 C   0  0  1  0  0  0  0  0  0  0  0  0
  146.5287  137.5774  151.0371 O   0  0  0  0  0  0  0  0  0  0  0  0
  146.2157  136.6148  153.1939 C   0  0  0  0  0  0  0  0  0  0  0  0
  146.2569  135.3315  152.4456 N   0  3  2  0  0  0  0  0  0  0  0  0
  145.0193  135.0611  151.6665 C   0  0  0  0  0  0  0  0  0  0  0  0
  145.1708  133.7942  150.8078 C   0  0  0  0  0  0  0  0  0  0  0  0
  145.5386  132.5745  151.6693 C   0  0  1  0  0  0  0  0  0  0  0  0
  145.7240  131.3112  150.8169 C   0  0  0  0  0  0  0  0  0  0  0  0
  146.7980  132.8970  152.4905 C   0  0  0  0  0  0  0  0  0  0  0  0
  146.6139  134.1817  153.3157 C   0  0  0  0  0  0  0  0  0  0  0  0
  151.6879  139.9246  155.1463 O   0  0  0  0  0  0  0  0  0  0  0  0
  152.6595  139.4976  156.0590 N   0  0  0  0  0  0  0  0  0  0  0  0
  153.0809  136.3738  157.1796 H   0  0  0  0  0  0  0  0  0  0  0  0
  153.3466  137.8278  158.1358 H   0  0  0  0  0  0  0  0  0  0  0  0
  154.4149  137.4533  156.7850 H   0  0  0  0  0  0  0  0  0  0  0  0
  151.0444  136.6957  155.3196 H   0  0  0  0  0  0  0  0  0  0  0  0
  150.2272  139.0766  152.9285 H   0  0  0  0  0  0  0  0  0  0  0  0
  148.4497  139.1706  152.1112 H   0  0  0  0  0  0  0  0  0  0  0  0
  146.0073  139.3802  153.8251 H   0  0  0  0  0  0  0  0  0  0  0  0
  146.2405  139.9590  152.1989 H   0  0  0  0  0  0  0  0  0  0  0  0
  144.8323  137.9233  152.1369 H   0  0  0  0  0  0  0  0  0  0  0  0
  147.1660  136.8875  151.1450 H   0  0  0  0  0  0  0  0  0  0  0  0
  147.1755  136.7891  153.6834 H   0  0  0  0  0  0  0  0  0  0  0  0
  145.4787  136.5371  153.9946 H   0  0  0  0  0  0  0  0  0  0  0  0
  144.1743  134.9519  152.3483 H   0  0  0  0  0  0  0  0  0  0  0  0
  144.7889  135.9019  151.0132 H   0  0  0  0  0  0  0  0  0  0  0  0
  144.2423  133.6040  150.2683 H   0  0  0  0  0  0  0  0  0  0  0  0
  145.9388  133.9583  150.0503 H   0  0  0  0  0  0  0  0  0  0  0  0
  144.7178  132.3882  152.3637 H   0  0  0  0  0  0  0  0  0  0  0  0
  146.5363  131.4308  150.0992 H   0  0  0  0  0  0  0  0  0  0  0  0
  144.8174  131.0788  150.2576 H   0  0  0  0  0  0  0  0  0  0  0  0
  145.9557  130.4476  151.4409 H   0  0  0  0  0  0  0  0  0  0  0  0
  147.0344  132.0652  153.1552 H   0  0  0  0  0  0  0  0  0  0  0  0
  147.6544  133.0130  151.8247 H   0  0  0  0  0  0  0  0  0  0  0  0
  147.5410  134.3962  153.8488 H   0  0  0  0  0  0  0  0  0  0  0  0
  145.8390  134.0391  154.0706 H   0  0  0  0  0  0  0  0  0  0  0  0
  147.0108  135.4218  151.7789 H   0  0  0  0  0  0  0  0  0  0  0  0
  1  2  1  0  0  0  0
  1 22  1  0  0  0  0
  1 23  1  0  0  0  0
  1 24  1  0  0  0  0
  2 21  2  0  0  0  0
  2  3  1  0  0  0  0
  3  4  2  0  0  0  0
  3 25  1  0  0  0  0
  4  5  1  0  0  0  0
  4 20  1  0  0  0  0
  5  6  1  0  0  0  0
  5 26  1  0  0  0  0
  6  7  2  0  0  0  0
  6  8  1  0  0  0  0
  8  9  1  0  0  0  0
  8 27  1  0  0  0  0
  9 10  1  0  0  0  0
  9 28  1  0  0  0  0
  9 29  1  0  0  0  0
 10 11  1  0  0  0  0
 10 12  1  0  0  0  0
 10 30  1  0  0  0  0
 11 31  1  0  0  0  0
 12 13  1  0  0  0  0
 12 32  1  0  0  0  0
 12 33  1  0  0  0  0
 13 19  1  0  0  0  0
 13 14  1  0  0  0  0
 13 46  1  0  0  0  0
 14 15  1  0  0  0  0
 14 34  1  0  0  0  0
 14 35  1  0  0  0  0
 15 16  1  0  0  0  0
 15 36  1  0  0  0  0
 15 37  1  0  0  0  0
 16 17  1  0  0  0  0
 16 18  1  0  0  0  0
 16 38  1  0  0  0  0
 17 39  1  0  0  0  0
 17 40  1  0  0  0  0
 17 41  1  0  0  0  0
 18 19  1  0  0  0  0
 18 42  1  0  0  0  0
 18 43  1  0  0  0  0
 19 44  1  0  0  0  0
 19 45  1  0  0  0  0
 20 21  1  0  0  0  0
M  CHG  1  13   1
M  END
> <s_m_source_file>
AV-unprocessed.smi

> <i_m_source_file_index>
1029

> <i_lp_mmshare_version>
43012

> <i_f3d_flags>
0

> <s_epik_input>
W0NIM11jMVtjSF1jKG9uMSlbTkhdQyg9TylbTkhdW0NIMl1bQ0BIXShbT0hdKVtDSDJdTjJbQ0gyXVtDSDJdW0NIXShbQ0gzXSlbQ0gyXVtDSDJdMg==

> <s_epik_cmdline>
J2VwaWtfcHl0aG9uJywgJy1waCcsICc3LjAnLCAnLXRuJywgJzgnLCAnLW1hJywgJzIwMCcsICctbWV0YWxfYmluZGluZycsICctaW1hZScsICc8aW5maWxlLm1hZT4nLCAnLW9tYWUnLCAnPG91dGZpbGUubWFlPic=

> <r_lp_tautomer_probability>
1

> <r_epik_Ionization_Penalty>
0.00211787

> <r_epik_Ionization_Penalty_Charging>
0.00153238

> <r_epik_Ionization_Penalty_Neutral>
0.000585488

> <r_epik_State_Penalty>
-0

> <r_epik_Charging_Adjusted_Penalty>
0.00153238

> <i_epik_Tot_Q>
1

> <i_epik_Tot_abs_Q>
1

> <r_epik_Metal_State_Penalty>
-0

> <b_epik_Metal_Only>
0

> <s_lp_Force_Field>
OPLS_2005

> <r_lp_Energy>
20.5913

> <b_lp_Chiralities_Consistent>
1

> <s_lp_Variant>
AV-unprocessed.smi:1029-2

> <Gold.Version>
5.8.1

> <Gold.Id.Protein>
6NUR|6NUR_protein|mol2

> <Gold.PLP.Fitness>
52.1241

> <Gold.PLP.PLP>
-35.8394

> <Gold.PLP.part.hbond>
-8.2941

> <Gold.PLP.part.metal>
0.0000

> <Gold.PLP.part.buried>
-4.6337

> <Gold.PLP.part.nonpolar>
-24.8927

> <Gold.PLP.part.repulsive>
0.2840

> <Gold.PLP.ligand.clash>
0.0000

> <Gold.PLP.ligand.torsion>
1.0808

> <Gold.PLP.Chemscore.Hbond>
6.1120

> <Gold.PLP.Chemscore.CHOScore>
0.0000

> <Gold.PLP.Chemscore.Metal>
0.0000

> <Gold.Chemscore.Hbonds>
donor molecule, donor type, donor heavy atom, donor atom, acceptor molecule, acceptor atom, score
      L1  H     5    26       P1  7957  0.69
      L1  H     8    27       P1  7957  0.99
      L1  H    11    31       P1  7948  1.00
      L1  H    13    46       P1  7948  1.31
      P1  H  7989  7998       L1    20  0.95
      P1  H  7997  8010       L1    21  1.00

> <Gold.PLP.Chemscore.Internal.Correction>
0.1104

> <Gold.Rescore>
     Score         DG    S(hbond)    S(metal)    S(lipo)     H(rot)  DE(clash)    DE(int)     intcor
     19.55     -22.05       4.47        0.00      67.88       2.46       0.49       2.01       ----

> <Gold.Chemscore.Fitness>
19.5518

> <Gold.Chemscore.DG>
-22.0460

> <Gold.Chemscore.ZeroCoef>
-5.4800

> <Gold.Chemscore.Hbond>
4.4694

> <Gold.Chemscore.Metal>
0.0000

> <Gold.Chemscore.Lipo>
67.8786

> <Gold.Chemscore.Internal_Hbond>
0.0000

> <Gold.Chemscore.DEClash>
0.4891

> <Gold.Chemscore.DEInternal>
2.0052

> <Gold.Chemscore.Rot>
2.4624

> <Gold.Chemscore.Internal.Correction>
   9.000000E+99

> <Gold.Chemscore.Hbonds>
donor molecule, donor type, donor heavy atom, donor atom, acceptor molecule, acceptor atom, score
      L1  H     5    26       P1  7957  0.50
      L1  H     8    27       P1  7957  0.94
      L1  H    11    31       P1  7948  0.92
      L1  H    13    46       P1  7948  0.62
      P1  H  7989  7998       L1    20  0.21
      P1  H  7997  8010       L1    21  0.95

> <Gold.Chemscore.Hbond.Weighted>
-14.9279

> <Gold.Chemscore.Metal.Weighted>
-0.0000

> <Gold.Chemscore.Lipo.Weighted>
-7.9418

> <Gold.Chemscore.Internal_Hbond.Weighted>
0.0000

> <Gold.Chemscore.DEClash.Weighted>
0.4891

> <Gold.Chemscore.DEInternal.Weighted>
2.0052

> <Gold.Chemscore.Rot.Weighted>
6.3037

> <Gold.Chemscore.Internal.Correction.Weighted>
   9.000000E+99

> <Gold.Protein.RotatedTorsions>
[ 6907 6896 6895 6894 ] final  -10.17 input  -60.11 | X-H torsion
[ 7974 7965 7964 7962 ] final  -83.86 input  175.53 | X-H torsion
[ 8008 7997 7996 7995 ] final   88.69 input   59.86 | X-H torsion
[ 10167 10162 10161 10158 ] final   70.25 input  -65.29 | X-H torsion
[ 10718 10713 10712 10709 ] final -123.64 input   66.30 | X-H torsion
[ 10763 10752 10751 10750 ] final -108.70 input  -60.55 | X-H torsion
[ 11005 11000 10999 10996 ] final  109.22 input  -57.11 | X-H torsion

> <Gold.Protein.ActiveResidues>
 VAL166  LYS551  ARG553  GLY616  TRP617  ASP618  TYR619  PRO620  LYS621  CYS622 
 ASP623  PHE694  ASN695  SER759  ASP760  ASP761  ALA762  ILE779  LEU786  VAL792 
 PHE793  MET794  SER795  GLU796  ALA797  LYS798  CYS799  TRP800  GLU811  SER814 

> <Gold.Protein.RotatedAtoms>
  151.4062  135.0978  159.9570 H   0  0  0  0  0  0  0  0  0  0  0  0  # atno 6907 bound_to 6896
  152.5034  133.8841  159.7371 H   0  0  0  0  0  0  0  0  0  0  0  0  # atno 6908 bound_to 6896
  150.9325  133.6693  159.2836 H   0  0  0  0  0  0  0  0  0  0  0  0  # atno 6909 bound_to 6896
  145.5143  140.9537  143.1690 H   0  0  0  0  0  0  0  0  0  0  0  0  # atno 7974 bound_to 7965
  155.9908  140.3369  155.6751 H   0  0  0  0  0  0  0  0  0  0  0  0  # atno 8008 bound_to 7997
  155.6423  140.0696  157.2632 H   0  0  0  0  0  0  0  0  0  0  0  0  # atno 8009 bound_to 7997
  154.4219  140.1740  156.1573 H   0  0  0  0  0  0  0  0  0  0  0  0  # atno 8010 bound_to 7997
  140.0589  144.5249  150.7308 H   0  0  0  0  0  0  0  0  0  0  0  0  # atno 10167 bound_to 10162
  156.1519  130.6541  150.9926 H   0  0  0  0  0  0  0  0  0  0  0  0  # atno 10718 bound_to 10713
  154.8151  135.4628  154.0621 H   0  0  0  0  0  0  0  0  0  0  0  0  # atno 10763 bound_to 10752
  153.2020  135.6870  153.8225 H   0  0  0  0  0  0  0  0  0  0  0  0  # atno 10764 bound_to 10752
  153.7707  135.3270  155.3328 H   0  0  0  0  0  0  0  0  0  0  0  0  # atno 10765 bound_to 10752
  139.8858  134.9452  156.6092 H   0  0  0  0  0  0  0  0  0  0  0  0  # atno 11005 bound_to 11000
  144.7710  139.6735  143.7195 LP  0  0  0  0  0  0  0  0  0  0  0  0  # atno 17320 bound_to 7965
  146.2146  139.5527  142.9658 LP  0  0  0  0  0  0  0  0  0  0  0  0  # atno 17321 bound_to 7965
  140.7181  143.2563  151.4368 LP  0  0  0  0  0  0  0  0  0  0  0  0  # atno 17342 bound_to 10162
  139.5906  144.1508  152.2083 LP  0  0  0  0  0  0  0  0  0  0  0  0  # atno 17343 bound_to 10162
  157.6664  131.0871  150.7718 LP  0  0  0  0  0  0  0  0  0  0  0  0  # atno 17370 bound_to 10713
  156.7786  130.4852  149.5405 LP  0  0  0  0  0  0  0  0  0  0  0  0  # atno 17371 bound_to 10713
  140.7825  133.8648  155.8579 LP  0  0  0  0  0  0  0  0  0  0  0  0  # atno 17394 bound_to 11000
  140.9748  134.1483  157.4545 LP  0  0  0  0  0  0  0  0  0  0  0  0  # atno 17395 bound_to 11000

$$$$
