AV-unprocessed.smi:109|AV-procd|sdf|1033|dock6
  -GOLD-   2262018 43D 1   1.00000     0.00000
 Structure written by MMmdl.
 58 61  0  0  0  0  0  0  0  0  1 V2000
  147.7259  138.6363  151.6331 O   0  0  0  0  0  0  0  0  0  0  0  0
  146.9018  139.2040  152.6279 C   0  0  0  0  0  0  0  0  0  0  0  0
  147.7444  139.5651  153.8633 C   0  0  0  0  0  0  0  0  0  0  0  0
  148.4190  138.3505  154.5477 C   0  0  2  0  0  0  0  0  0  0  0  0
  147.4091  137.5793  155.2765 N   0  0  0  0  0  0  0  0  0  0  0  0
  147.1469  136.2829  154.9965 C   0  0  0  0  0  0  0  0  0  0  0  0
  147.5432  135.2822  155.8247 N   0  0  0  0  0  0  0  0  0  0  0  0
  147.2720  134.0112  155.5161 C   0  0  0  0  0  0  0  0  0  0  0  0
  146.6287  133.5320  154.4499 N   0  0  0  0  0  0  0  0  0  0  0  0
  146.2279  134.5315  153.6120 C   0  0  0  0  0  0  0  0  0  0  0  0
  146.4464  135.9227  153.8166 C   0  0  0  0  0  0  0  0  0  0  0  0
  145.8997  136.6454  152.7649 N   0  0  0  0  0  0  0  0  0  0  0  0
  145.3861  135.7304  151.9877 C   0  0  0  0  0  0  0  0  0  0  0  0
  145.5363  134.4313  152.4201 N   0  0  0  0  0  0  0  0  0  0  0  0
  145.0490  133.1893  151.7348 C   0  0  1  0  0  0  0  0  0  0  0  0
  144.3263  133.5431  150.5915 O   0  0  0  0  0  0  0  0  0  0  0  0
  144.9343  132.9965  149.4211 C   0  0  2  0  0  0  0  0  0  0  0  0
  143.8522  132.6823  148.3779 C   0  0  0  0  0  0  0  0  0  0  0  0
  143.6029  133.8243  147.5867 O   0  0  0  0  0  0  0  0  0  0  0  0
  145.6529  131.7573  149.9575 C   0  0  1  0  0  0  0  0  0  0  0  0
  146.6707  131.2848  149.0951 O   0  0  0  0  0  0  0  0  0  0  0  0
  146.1849  132.2434  151.2985 C   0  0  1  0  0  0  0  0  0  0  0  0
  147.4486  132.8803  151.1914 O   0  0  0  0  0  0  0  0  0  0  0  0
  149.5723  138.7393  155.5177 C   0  0  0  0  0  0  0  0  0  0  0  0
  149.1515  139.7914  156.5752 C   0  0  0  0  0  0  0  0  0  0  0  0
  150.3149  140.2085  157.4902 C   0  0  0  0  0  0  0  0  0  0  0  0
  151.5076  140.7292  156.6801 C   0  0  0  0  0  0  0  0  0  0  0  0
  151.9589  139.6816  155.6562 C   0  0  0  0  0  0  0  0  0  0  0  0
  150.7999  139.2727  154.7342 C   0  0  0  0  0  0  0  0  0  0  0  0
  144.3682  132.7279  152.4512 H   0  0  0  0  0  0  0  0  0  0  0  0
  145.6703  133.6969  149.0232 H   0  0  0  0  0  0  0  0  0  0  0  0
  144.9296  130.9579  150.1273 H   0  0  0  0  0  0  0  0  0  0  0  0
  146.2755  131.4265  152.0149 H   0  0  0  0  0  0  0  0  0  0  0  0
  148.5861  139.0220  151.6994 H   0  0  0  0  0  0  0  0  0  0  0  0
  146.4130  140.0834  152.2091 H   0  0  0  0  0  0  0  0  0  0  0  0
  146.1220  138.4890  152.8912 H   0  0  0  0  0  0  0  0  0  0  0  0
  148.5028  140.2694  153.5262 H   0  0  0  0  0  0  0  0  0  0  0  0
  147.1280  140.0997  154.5874 H   0  0  0  0  0  0  0  0  0  0  0  0
  148.8720  137.7438  153.7640 H   0  0  0  0  0  0  0  0  0  0  0  0
  146.9022  138.0917  155.9840 H   0  0  0  0  0  0  0  0  0  0  0  0
  147.6202  133.2732  156.2237 H   0  0  0  0  0  0  0  0  0  0  0  0
  144.8762  135.9807  151.0689 H   0  0  0  0  0  0  0  0  0  0  0  0
  144.1897  131.8891  147.7104 H   0  0  0  0  0  0  0  0  0  0  0  0
  142.9321  132.3386  148.8516 H   0  0  0  0  0  0  0  0  0  0  0  0
  144.4307  134.2297  147.3774 H   0  0  0  0  0  0  0  0  0  0  0  0
  147.3258  130.8457  149.6158 H   0  0  0  0  0  0  0  0  0  0  0  0
  148.0981  132.2205  150.9980 H   0  0  0  0  0  0  0  0  0  0  0  0
  149.8812  137.8400  156.0530 H   0  0  0  0  0  0  0  0  0  0  0  0
  148.7461  140.6728  156.0766 H   0  0  0  0  0  0  0  0  0  0  0  0
  148.3605  139.4043  157.2153 H   0  0  0  0  0  0  0  0  0  0  0  0
  149.9795  140.9749  158.1896 H   0  0  0  0  0  0  0  0  0  0  0  0
  150.6278  139.3561  158.0945 H   0  0  0  0  0  0  0  0  0  0  0  0
  151.2305  141.6509  156.1669 H   0  0  0  0  0  0  0  0  0  0  0  0
  152.3326  140.9799  157.3472 H   0  0  0  0  0  0  0  0  0  0  0  0
  152.7841  140.0754  155.0620 H   0  0  0  0  0  0  0  0  0  0  0  0
  152.3428  138.8021  156.1746 H   0  0  0  0  0  0  0  0  0  0  0  0
  151.1698  138.5215  154.0363 H   0  0  0  0  0  0  0  0  0  0  0  0
  150.5018  140.1292  154.1279 H   0  0  0  0  0  0  0  0  0  0  0  0
  1  2  1  0  0  0  0
  1 34  1  0  0  0  0
  2  3  1  0  0  0  0
  2 35  1  0  0  0  0
  2 36  1  0  0  0  0
  3  4  1  0  0  0  0
  3 37  1  0  0  0  0
  3 38  1  0  0  0  0
  4  5  1  0  0  0  0
  4 24  1  0  0  0  0
  4 39  1  0  0  0  0
  5  6  1  0  0  0  0
  5 40  1  0  0  0  0
  6 11  1  0  0  0  0
  6  7  2  0  0  0  0
  7  8  1  0  0  0  0
  8  9  2  0  0  0  0
  8 41  1  0  0  0  0
  9 10  1  0  0  0  0
 10 14  1  0  0  0  0
 10 11  2  0  0  0  0
 11 12  1  0  0  0  0
 12 13  2  0  0  0  0
 13 14  1  0  0  0  0
 13 42  1  0  0  0  0
 14 15  1  0  0  0  0
 15 30  1  0  0  0  0
 15 22  1  0  0  0  0
 15 16  1  0  0  0  0
 16 17  1  0  0  0  0
 17 31  1  0  0  0  0
 17 18  1  0  0  0  0
 17 20  1  0  0  0  0
 18 19  1  0  0  0  0
 18 43  1  0  0  0  0
 18 44  1  0  0  0  0
 19 45  1  0  0  0  0
 20 32  1  0  0  0  0
 20 21  1  0  0  0  0
 20 22  1  0  0  0  0
 21 46  1  0  0  0  0
 22 33  1  0  0  0  0
 22 23  1  0  0  0  0
 23 47  1  0  0  0  0
 24 29  1  0  0  0  0
 24 25  1  0  0  0  0
 24 48  1  0  0  0  0
 25 26  1  0  0  0  0
 25 49  1  0  0  0  0
 25 50  1  0  0  0  0
 26 27  1  0  0  0  0
 26 51  1  0  0  0  0
 26 52  1  0  0  0  0
 27 28  1  0  0  0  0
 27 53  1  0  0  0  0
 27 54  1  0  0  0  0
 28 29  1  0  0  0  0
 28 55  1  0  0  0  0
 28 56  1  0  0  0  0
 29 57  1  0  0  0  0
 29 58  1  0  0  0  0
M  END
> <s_m_source_file>
AV-unprocessed.smi

> <i_m_source_file_index>
109

> <i_lp_mmshare_version>
43012

> <i_f3d_flags>
0

> <s_epik_input>
W0NIMl0xW0NIMl1bQ0gyXVtDSDJdW0NIMl1bQ0hdMVtDQEhdKFtDSDJdW0NIMl1bT0hdKVtOSF1jKG5bY0hdbjIpYyhjMjMpbltjSF1uM1tDQEBIXTRPW0NASF0oW0NIMl1bT0hdKVtDQEBIXShbT0hdKVtDQEhdNFtPSF0=

> <s_epik_cmdline>
J2VwaWtfcHl0aG9uJywgJy1waCcsICc3LjAnLCAnLXRuJywgJzgnLCAnLW1hJywgJzIwMCcsICctbWV0YWxfYmluZGluZycsICctaW1hZScsICc8aW5maWxlLm1hZT4nLCAnLW9tYWUnLCAnPG91dGZpbGUubWFlPic=

> <r_lp_tautomer_probability>
1

> <r_epik_Ionization_Penalty>
0.000793976

> <r_epik_Ionization_Penalty_Charging>
0

> <r_epik_Ionization_Penalty_Neutral>
0.000793976

> <r_epik_State_Penalty>
-0

> <r_epik_Charging_Adjusted_Penalty>
0

> <i_epik_Tot_Q>
0

> <i_epik_Tot_abs_Q>
0

> <r_epik_Metal_State_Penalty>
-0

> <b_epik_Metal_Only>
0

> <s_epik_Chemistry_Notes>
This compound contains an acetal/aminal-like group ( X-CH(R)-Y where X, Y are N, S, or O) that may be acid/base labile, releasing an aldehyde.

> <s_lp_Force_Field>
OPLS_2005

> <r_lp_Energy>
57.1061

> <b_lp_Chiralities_Consistent>
1

> <s_lp_Variant>
AV-unprocessed.smi:109-3

> <Gold.Version>
5.8.1

> <Gold.Id.Protein>
6NUR|6NUR_protein|mol2

> <Gold.PLP.Fitness>
57.1634

> <Gold.PLP.PLP>
-43.2585

> <Gold.PLP.part.hbond>
-8.3870

> <Gold.PLP.part.metal>
0.0000

> <Gold.PLP.part.buried>
-1.9611

> <Gold.PLP.part.nonpolar>
-31.3357

> <Gold.PLP.part.repulsive>
0.4240

> <Gold.PLP.ligand.clash>
0.0000

> <Gold.PLP.ligand.torsion>
1.2113

> <Gold.PLP.Chemscore.Hbond>
5.3712

> <Gold.PLP.Chemscore.CHOScore>
0.0000

> <Gold.PLP.Chemscore.Metal>
0.0000

> <Gold.Chemscore.Hbonds>
donor molecule, donor type, donor heavy atom, donor atom, acceptor molecule, acceptor atom, score
      L1  H     1    34       P1  7957  0.87
      L1  H    19    45       P1  7921  1.00
      L1  H    21    46       P1 10747  0.94
      L1  H    23    47       P1 10747  1.00
      P1  H  7954  7966       L1     1  0.46
      P1  H 10192 10197       L1    19  0.80

> <Gold.PLP.Chemscore.Internal.Correction>
0.2139

> <Gold.Rescore>
     Score         DG    S(hbond)    S(metal)    S(lipo)     H(rot)  DE(clash)    DE(int)     intcor
     16.04     -18.74       4.78        0.00      96.47       5.47       1.37       1.33       ----

> <Gold.Chemscore.Fitness>
16.0402

> <Gold.Chemscore.DG>
-18.7401

> <Gold.Chemscore.ZeroCoef>
-5.4800

> <Gold.Chemscore.Hbond>
4.7805

> <Gold.Chemscore.Metal>
0.0000

> <Gold.Chemscore.Lipo>
96.4684

> <Gold.Chemscore.Internal_Hbond>
0.0000

> <Gold.Chemscore.DEClash>
1.3679

> <Gold.Chemscore.DEInternal>
1.3320

> <Gold.Chemscore.Rot>
5.4662

> <Gold.Chemscore.Internal.Correction>
   9.000000E+99

> <Gold.Chemscore.Hbonds>
donor molecule, donor type, donor heavy atom, donor atom, acceptor molecule, acceptor atom, score
      L1  H     1    34       P1  7957  0.67
      L1  H    19    45       P1  7921  1.00
      L1  H    21    46       P1 10747  0.92
      L1  H    23    47       P1 10747  1.00
      P1  H  7954  7966       L1     1  0.02
      P1  H 10192 10197       L1    19  0.58

> <Gold.Chemscore.Hbond.Weighted>
-15.9668

> <Gold.Chemscore.Metal.Weighted>
-0.0000

> <Gold.Chemscore.Lipo.Weighted>
-11.2868

> <Gold.Chemscore.Internal_Hbond.Weighted>
0.0000

> <Gold.Chemscore.DEClash.Weighted>
1.3679

> <Gold.Chemscore.DEInternal.Weighted>
1.3320

> <Gold.Chemscore.Rot.Weighted>
13.9935

> <Gold.Chemscore.Internal.Correction.Weighted>
   9.000000E+99

> <Gold.Protein.RotatedTorsions>
[ 6907 6896 6895 6894 ] final -135.21 input  -60.11 | X-H torsion
[ 7974 7965 7964 7962 ] final  -25.57 input  175.53 | X-H torsion
[ 8008 7997 7996 7995 ] final  -34.83 input   59.86 | X-H torsion
[ 10167 10162 10161 10158 ] final    0.07 input  -65.29 | X-H torsion
[ 10718 10713 10712 10709 ] final  153.44 input   66.30 | X-H torsion
[ 10763 10752 10751 10750 ] final   38.47 input  -60.55 | X-H torsion
[ 11005 11000 10999 10996 ] final   68.66 input  -57.11 | X-H torsion

> <Gold.Protein.ActiveResidues>
 VAL166  LYS551  ARG553  GLY616  TRP617  ASP618  TYR619  PRO620  LYS621  CYS622 
 ASP623  PHE694  ASN695  SER759  ASP760  ASP761  ALA762  ILE779  LEU786  VAL792 
 PHE793  MET794  SER795  GLU796  ALA797  LYS798  CYS799  TRP800  GLU811  SER814 

> <Gold.Protein.RotatedAtoms>
  150.9951  133.6111  159.2702 H   0  0  0  0  0  0  0  0  0  0  0  0  # atno 6907 bound_to 6896
  151.3318  135.0842  159.9351 H   0  0  0  0  0  0  0  0  0  0  0  0  # atno 6908 bound_to 6896
  152.5257  133.9579  159.7757 H   0  0  0  0  0  0  0  0  0  0  0  0  # atno 6909 bound_to 6896
  146.1482  140.4904  142.8622 H   0  0  0  0  0  0  0  0  0  0  0  0  # atno 7974 bound_to 7965
  154.4110  140.1673  156.2113 H   0  0  0  0  0  0  0  0  0  0  0  0  # atno 8008 bound_to 7997
  155.9441  140.3406  155.6329 H   0  0  0  0  0  0  0  0  0  0  0  0  # atno 8009 bound_to 7997
  155.6952  140.0738  157.2423 H   0  0  0  0  0  0  0  0  0  0  0  0  # atno 8010 bound_to 7997
  140.6745  143.6956  150.7993 H   0  0  0  0  0  0  0  0  0  0  0  0  # atno 10167 bound_to 10162
  157.2447  131.0766  151.1769 H   0  0  0  0  0  0  0  0  0  0  0  0  # atno 10718 bound_to 10713
  153.0000  135.6248  154.2309 H   0  0  0  0  0  0  0  0  0  0  0  0  # atno 10763 bound_to 10752
  154.2051  135.2802  155.2979 H   0  0  0  0  0  0  0  0  0  0  0  0  # atno 10764 bound_to 10752
  154.5652  135.5693  153.7103 H   0  0  0  0  0  0  0  0  0  0  0  0  # atno 10765 bound_to 10752
  139.9699  134.6918  156.0469 H   0  0  0  0  0  0  0  0  0  0  0  0  # atno 11005 bound_to 11000
  144.7872  140.5960  143.6565 LP  0  0  0  0  0  0  0  0  0  0  0  0  # atno 17320 bound_to 7965
  145.4886  139.1490  143.3722 LP  0  0  0  0  0  0  0  0  0  0  0  0  # atno 17321 bound_to 7965
  140.0646  143.5121  152.2610 LP  0  0  0  0  0  0  0  0  0  0  0  0  # atno 17342 bound_to 10162
  139.6030  144.7588  151.3128 LP  0  0  0  0  0  0  0  0  0  0  0  0  # atno 17343 bound_to 10162
  157.3341  130.7000  149.6342 LP  0  0  0  0  0  0  0  0  0  0  0  0  # atno 17370 bound_to 10713
  155.9668  130.4299  150.4852 LP  0  0  0  0  0  0  0  0  0  0  0  0  # atno 17371 bound_to 10713
  141.1378  133.6571  156.3644 LP  0  0  0  0  0  0  0  0  0  0  0  0  # atno 17394 bound_to 11000
  140.5317  134.6206  157.5352 LP  0  0  0  0  0  0  0  0  0  0  0  0  # atno 17395 bound_to 11000

$$$$
