AV-unprocessed.smi:1235|AV-procd|sdf|5178|dock4
  -GOLD-   22720 4253D 1   1.00000     0.00000
 Structure written by MMmdl.
 50 51  0  0  0  0  0  0  0  0  2 V2000
  149.2175  137.1814  159.4371 C   0  0  0  0  0  0  0  0  0  0  0  0
  150.6061  137.0541  159.1864 O   0  0  0  0  0  0  0  0  0  0  0  0
  151.2666  138.3074  159.1444 C   0  0  0  0  0  0  0  0  0  0  0  0
  152.3829  138.2460  158.0906 C   0  0  0  0  0  0  0  0  0  0  0  0
  151.8615  137.8578  156.7760 N   0  0  0  0  0  0  0  0  0  0  0  0
  151.1797  136.6520  156.7718 N   0  0  0  0  0  0  0  0  0  0  0  0
  150.6785  136.1930  155.6708 C   0  0  0  0  0  0  0  0  0  0  0  0
  149.9345  134.9034  155.6226 C   0  0  0  0  0  0  0  0  0  0  0  0
  149.9615  134.1010  156.5575 O   0  0  0  0  0  0  0  0  0  0  0  0
  149.2413  134.6757  154.4921 N   0  0  0  0  0  0  0  0  0  0  0  0
  148.4497  133.4803  154.2235 C   0  0  0  0  0  0  0  0  0  0  0  0
  149.1139  132.5959  153.1466 C   0  0  0  0  0  0  0  0  0  0  0  0
  148.3635  131.3373  152.8659 N   0  3  1  0  0  0  0  0  0  0  0  0
  148.5684  130.3215  153.9399 C   0  0  0  0  0  0  0  0  0  0  0  0
  147.8991  128.9810  153.6068 C   0  0  0  0  0  0  0  0  0  0  0  0
  146.4034  129.1752  153.3648 C   0  0  0  0  0  0  0  0  0  0  0  0
  146.2048  130.2102  152.2560 C   0  0  0  0  0  0  0  0  0  0  0  0
  146.9057  131.5495  152.5764 C   0  0  2  0  0  0  0  0  0  0  0  0
  146.6494  132.5230  151.4061 C   0  0  0  0  0  0  0  0  0  0  0  0
  150.8208  136.9275  154.4249 C   0  0  0  0  0  0  0  0  0  0  0  0
  151.4897  138.1011  154.4447 C   0  0  0  0  0  0  0  0  0  0  0  0
  152.0682  138.6423  155.6754 C   0  0  0  0  0  0  0  0  0  0  0  0
  152.6885  139.7043  155.7173 O   0  0  0  0  0  0  0  0  0  0  0  0
  148.7577  136.1935  159.4614 H   0  0  0  0  0  0  0  0  0  0  0  0
  148.7264  137.7615  158.6546 H   0  0  0  0  0  0  0  0  0  0  0  0
  149.0319  137.6627  160.3984 H   0  0  0  0  0  0  0  0  0  0  0  0
  150.5528  139.0950  158.8979 H   0  0  0  0  0  0  0  0  0  0  0  0
  151.6882  138.5385  160.1242 H   0  0  0  0  0  0  0  0  0  0  0  0
  152.8712  139.2199  158.0240 H   0  0  0  0  0  0  0  0  0  0  0  0
  153.1626  137.5527  158.4113 H   0  0  0  0  0  0  0  0  0  0  0  0
  149.2655  135.3835  153.7714 H   0  0  0  0  0  0  0  0  0  0  0  0
  148.2999  132.9166  155.1459 H   0  0  0  0  0  0  0  0  0  0  0  0
  147.4680  133.8257  153.9038 H   0  0  0  0  0  0  0  0  0  0  0  0
  149.2492  133.1565  152.2203 H   0  0  0  0  0  0  0  0  0  0  0  0
  150.1112  132.3647  153.5107 H   0  0  0  0  0  0  0  0  0  0  0  0
  149.6282  130.1286  154.0934 H   0  0  0  0  0  0  0  0  0  0  0  0
  148.1794  130.7074  154.8835 H   0  0  0  0  0  0  0  0  0  0  0  0
  148.3650  128.5441  152.7224 H   0  0  0  0  0  0  0  0  0  0  0  0
  148.0550  128.2734  154.4217 H   0  0  0  0  0  0  0  0  0  0  0  0
  145.9383  128.2287  153.0873 H   0  0  0  0  0  0  0  0  0  0  0  0
  145.9156  129.5098  154.2813 H   0  0  0  0  0  0  0  0  0  0  0  0
  146.5865  129.8100  151.3153 H   0  0  0  0  0  0  0  0  0  0  0  0
  145.1364  130.3724  152.1080 H   0  0  0  0  0  0  0  0  0  0  0  0
  146.4444  131.9687  153.4723 H   0  0  0  0  0  0  0  0  0  0  0  0
  145.5990  132.5104  151.1132 H   0  0  0  0  0  0  0  0  0  0  0  0
  147.2362  132.2542  150.5274 H   0  0  0  0  0  0  0  0  0  0  0  0
  146.8720  133.5575  151.6646 H   0  0  0  0  0  0  0  0  0  0  0  0
  150.4050  136.5521  153.5012 H   0  0  0  0  0  0  0  0  0  0  0  0
  151.6027  138.6578  153.5261 H   0  0  0  0  0  0  0  0  0  0  0  0
  148.7613  130.9517  152.0214 H   0  0  0  0  0  0  0  0  0  0  0  0
  1  2  1  0  0  0  0
  1 24  1  0  0  0  0
  1 25  1  0  0  0  0
  1 26  1  0  0  0  0
  2  3  1  0  0  0  0
  3  4  1  0  0  0  0
  3 27  1  0  0  0  0
  3 28  1  0  0  0  0
  4  5  1  0  0  0  0
  4 29  1  0  0  0  0
  4 30  1  0  0  0  0
  5 22  1  0  0  0  0
  5  6  1  0  0  0  0
  6  7  2  0  0  0  0
  7  8  1  0  0  0  0
  7 20  1  0  0  0  0
  8  9  2  0  0  0  0
  8 10  1  0  0  0  0
 10 11  1  0  0  0  0
 10 31  1  0  0  0  0
 11 12  1  0  0  0  0
 11 32  1  0  0  0  0
 11 33  1  0  0  0  0
 12 13  1  0  0  0  0
 12 34  1  0  0  0  0
 12 35  1  0  0  0  0
 13 18  1  0  0  0  0
 13 14  1  0  0  0  0
 13 50  1  0  0  0  0
 14 15  1  0  0  0  0
 14 36  1  0  0  0  0
 14 37  1  0  0  0  0
 15 16  1  0  0  0  0
 15 38  1  0  0  0  0
 15 39  1  0  0  0  0
 16 17  1  0  0  0  0
 16 40  1  0  0  0  0
 16 41  1  0  0  0  0
 17 18  1  0  0  0  0
 17 42  1  0  0  0  0
 17 43  1  0  0  0  0
 18 19  1  0  0  0  0
 18 44  1  0  0  0  0
 19 45  1  0  0  0  0
 19 46  1  0  0  0  0
 19 47  1  0  0  0  0
 20 21  2  0  0  0  0
 20 48  1  0  0  0  0
 21 22  1  0  0  0  0
 21 49  1  0  0  0  0
 22 23  2  0  0  0  0
M  CHG  1  13   1
M  END
> <s_m_source_file>
AV-unprocessed.smi

> <i_m_source_file_index>
1235

> <i_lp_mmshare_version>
43012

> <i_f3d_flags>
0

> <s_epik_input>
W0NIM11PW0NIMl1bQ0gyXW4xbmMoW2NIXVtjSF1jMT1PKUMoPU8pW05IXVtDSDJdW0NIMl1OMltDSDJdW0NIMl1bQ0gyXVtDSDJdW0NASF0yW0NIM10=

> <s_epik_cmdline>
J2VwaWtfcHl0aG9uJywgJy1waCcsICc3LjAnLCAnLXRuJywgJzgnLCAnLW1hJywgJzIwMCcsICctbWV0YWxfYmluZGluZycsICctaW1hZScsICc8aW5maWxlLm1hZT4nLCAnLW9tYWUnLCAnPG91dGZpbGUubWFlPic=

> <r_lp_tautomer_probability>
1

> <r_epik_Ionization_Penalty>
0.00271975

> <r_epik_Ionization_Penalty_Charging>
0.00271407

> <r_epik_Ionization_Penalty_Neutral>
5.6803e-06

> <r_epik_State_Penalty>
0.00189271

> <r_epik_Charging_Adjusted_Penalty>
0.00460678

> <i_epik_Tot_Q>
1

> <i_epik_Tot_abs_Q>
1

> <r_epik_Metal_State_Penalty>
-0

> <b_epik_Metal_Only>
0

> <s_lp_Force_Field>
OPLS_2005

> <r_lp_Energy>
40.1633

> <b_lp_Chiralities_Consistent>
1

> <s_lp_Variant>
AV-unprocessed.smi:1235-4

> <Gold.Version>
5.8.1

> <Gold.Id.Protein>
6NUR|6NUR_protein|mol2

> <Gold.PLP.Fitness>
47.6500

> <Gold.PLP.PLP>
-36.6182

> <Gold.PLP.part.hbond>
-4.0000

> <Gold.PLP.part.metal>
0.0000

> <Gold.PLP.part.buried>
-4.3929

> <Gold.PLP.part.nonpolar>
-28.5864

> <Gold.PLP.part.repulsive>
0.0282

> <Gold.PLP.ligand.clash>
0.0000

> <Gold.PLP.ligand.torsion>
0.4727

> <Gold.PLP.Chemscore.Hbond>
3.9440

> <Gold.PLP.Chemscore.CHOScore>
0.0000

> <Gold.PLP.Chemscore.Metal>
0.0000

> <Gold.Chemscore.Hbonds>
donor molecule, donor type, donor heavy atom, donor atom, acceptor molecule, acceptor atom, score
      L1  H    10    31       P1  7948  0.88
      L1  H    13    50       P1 10747  1.00
      P1  H  6896  6907       L1     2  0.73
      P1  H  7997  8008       L1    23  1.00

> <Gold.PLP.Chemscore.Internal.Correction>
0.1452

> <Gold.Rescore>
     Score         DG    S(hbond)    S(metal)    S(lipo)     H(rot)  DE(clash)    DE(int)     intcor
     20.29     -22.45       3.63        0.00      85.24       2.00       0.10       2.05       ----

> <Gold.Chemscore.Fitness>
20.2945

> <Gold.Chemscore.DG>
-22.4470

> <Gold.Chemscore.ZeroCoef>
-5.4800

> <Gold.Chemscore.Hbond>
3.6284

> <Gold.Chemscore.Metal>
0.0000

> <Gold.Chemscore.Lipo>
85.2438

> <Gold.Chemscore.Internal_Hbond>
0.0000

> <Gold.Chemscore.DEClash>
0.1006

> <Gold.Chemscore.DEInternal>
2.0519

> <Gold.Chemscore.Rot>
2.0020

> <Gold.Chemscore.Internal.Correction>
   9.000000E+99

> <Gold.Chemscore.Hbonds>
donor molecule, donor type, donor heavy atom, donor atom, acceptor molecule, acceptor atom, score
      L1  H    10    31       P1  7948  0.38
      L1  H    13    50       P1 10747  0.77
      P1  H  6896  6907       L1     2  0.44
      P1  H  7997  8008       L1    23  0.98

> <Gold.Chemscore.Hbond.Weighted>
-12.1187

> <Gold.Chemscore.Metal.Weighted>
-0.0000

> <Gold.Chemscore.Lipo.Weighted>
-9.9735

> <Gold.Chemscore.Internal_Hbond.Weighted>
0.0000

> <Gold.Chemscore.DEClash.Weighted>
0.1006

> <Gold.Chemscore.DEInternal.Weighted>
2.0519

> <Gold.Chemscore.Rot.Weighted>
5.1252

> <Gold.Chemscore.Internal.Correction.Weighted>
   9.000000E+99

> <Gold.Protein.RotatedTorsions>
[ 6907 6896 6895 6894 ] final  -23.51 input  -60.11 | X-H torsion
[ 7974 7965 7964 7962 ] final   92.62 input  175.53 | X-H torsion
[ 8008 7997 7996 7995 ] final  -15.08 input   59.86 | X-H torsion
[ 10167 10162 10161 10158 ] final  -77.08 input  -65.29 | X-H torsion
[ 10718 10713 10712 10709 ] final  -11.79 input   66.30 | X-H torsion
[ 10763 10752 10751 10750 ] final -152.68 input  -60.55 | X-H torsion
[ 11005 11000 10999 10996 ] final   44.63 input  -57.11 | X-H torsion

> <Gold.Protein.ActiveResidues>
 VAL166  LYS551  ARG553  GLY616  TRP617  ASP618  TYR619  PRO620  LYS621  CYS622 
 ASP623  PHE694  ASN695  SER759  ASP760  ASP761  ALA762  ILE779  LEU786  VAL792 
 PHE793  MET794  SER795  GLU796  ALA797  LYS798  CYS799  TRP800  GLU811  SER814 

> <Gold.Protein.RotatedAtoms>
  151.2029  135.0450  159.8879 H   0  0  0  0  0  0  0  0  0  0  0  0  # atno 6907 bound_to 6896
  152.5431  134.0830  159.8254 H   0  0  0  0  0  0  0  0  0  0  0  0  # atno 6908 bound_to 6896
  151.0973  133.5223  159.2643 H   0  0  0  0  0  0  0  0  0  0  0  0  # atno 6909 bound_to 6896
  145.4899  139.2276  143.2836 H   0  0  0  0  0  0  0  0  0  0  0  0  # atno 7974 bound_to 7965
  154.5159  140.2206  155.9067 H   0  0  0  0  0  0  0  0  0  0  0  0  # atno 8008 bound_to 7997
  156.1607  140.3143  155.8767 H   0  0  0  0  0  0  0  0  0  0  0  0  # atno 8009 bound_to 7997
  155.3758  140.0469  157.3035 H   0  0  0  0  0  0  0  0  0  0  0  0  # atno 8010 bound_to 7997
  140.4801  143.2404  151.8071 H   0  0  0  0  0  0  0  0  0  0  0  0  # atno 10167 bound_to 10162
  156.6539  130.4963  149.6053 H   0  0  0  0  0  0  0  0  0  0  0  0  # atno 10718 bound_to 10713
  154.7978  135.3230  154.7624 H   0  0  0  0  0  0  0  0  0  0  0  0  # atno 10763 bound_to 10752
  153.8299  135.6880  153.4820 H   0  0  0  0  0  0  0  0  0  0  0  0  # atno 10764 bound_to 10752
  153.1678  135.4635  154.9804 H   0  0  0  0  0  0  0  0  0  0  0  0  # atno 10765 bound_to 10752
  140.1534  134.4432  155.8366 H   0  0  0  0  0  0  0  0  0  0  0  0  # atno 11005 bound_to 11000
  146.2290  140.5692  142.8983 LP  0  0  0  0  0  0  0  0  0  0  0  0  # atno 17320 bound_to 7965
  144.7840  140.5898  143.6586 LP  0  0  0  0  0  0  0  0  0  0  0  0  # atno 17321 bound_to 7965
  139.4832  144.4783  151.9339 LP  0  0  0  0  0  0  0  0  0  0  0  0  # atno 17342 bound_to 10162
  140.3868  144.2666  150.5903 LP  0  0  0  0  0  0  0  0  0  0  0  0  # atno 17343 bound_to 10162
  156.2063  130.6651  151.1221 LP  0  0  0  0  0  0  0  0  0  0  0  0  # atno 17370 bound_to 10713
  157.7132  131.0723  150.6425 LP  0  0  0  0  0  0  0  0  0  0  0  0  # atno 17371 bound_to 10713
  141.2201  133.6882  156.7463 LP  0  0  0  0  0  0  0  0  0  0  0  0  # atno 17394 bound_to 11000
  140.2577  134.8491  157.3728 LP  0  0  0  0  0  0  0  0  0  0  0  0  # atno 17395 bound_to 11000

$$$$
