AV-unprocessed.smi:199|AV-procd|sdf|1561|dock3
  -GOLD-   2262019433D 1   1.00000     0.00000
 Structure written by MMmdl.
 51 55  0  0  0  0  0  0  0  0  1 V2000
  140.4744  141.3247  154.7262 C   0  0  0  0  0  0  0  0  0  0  0  0
  139.6288  140.0620  154.9595 C   0  0  1  0  0  0  0  0  0  0  0  0
  138.2984  140.2599  154.5034 O   0  0  0  0  0  0  0  0  0  0  0  0
  137.7063  138.9788  154.3880 C   0  0  0  0  0  0  0  0  0  0  0  0
  138.8015  138.1606  153.7148 C   0  0  0  0  0  0  0  0  0  0  0  0
  140.1009  138.7554  154.2671 C   0  0  1  0  0  0  0  0  0  0  0  0
  140.9636  139.0227  153.1735 O   0  0  0  0  0  0  0  0  0  0  0  0
  140.8256  137.7797  155.2269 C   0  0  0  0  0  0  0  0  0  0  0  0
  141.5272  136.7051  154.5408 N   0  0  0  0  0  0  0  0  0  0  0  0
  140.9882  135.7979  153.6574 C   0  0  0  0  0  0  0  0  0  0  0  0
  141.8309  134.9300  153.1693 N   0  0  0  0  0  0  0  0  0  0  0  0
  143.0454  135.2580  153.7611 C   0  0  0  0  0  0  0  0  0  0  0  0
  144.3681  134.7334  153.6816 C   0  0  0  0  0  0  0  0  0  0  0  0
  144.7155  133.6811  152.8915 N   0  0  0  0  0  0  0  0  0  0  0  0
  143.8846  133.3165  151.7559 C   0  0  1  0  0  0  0  0  0  0  0  0
  144.1862  134.4044  150.7061 C   0  0  0  0  0  0  0  0  0  0  0  0
  145.6751  134.6748  150.9724 C   0  0  0  0  0  0  0  0  0  0  0  0
  145.9579  133.6920  152.1298 C   0  0  2  0  0  0  0  0  0  0  0  0
  146.0192  132.2592  151.5555 C   0  0  1  0  0  0  0  0  0  0  0  0
  146.6596  131.2385  152.5139 C   0  0  0  0  0  0  0  0  0  0  0  0
  146.7810  129.9807  151.8842 O   0  0  0  0  0  0  0  0  0  0  0  0
  144.5203  131.9899  151.3077 C   0  0  0  0  0  0  0  0  0  0  0  0
  145.3143  135.3126  154.4683 N   0  0  0  0  0  0  0  0  0  0  0  0
  145.0051  136.3488  155.2518 C   0  0  0  0  0  0  0  0  0  0  0  0
  143.8258  136.9509  155.4096 N   0  0  0  0  0  0  0  0  0  0  0  0
  142.8649  136.3640  154.6407 C   0  0  0  0  0  0  0  0  0  0  0  0
  141.5008  141.1795  155.0638 H   0  0  0  0  0  0  0  0  0  0  0  0
  140.0625  142.1701  155.2772 H   0  0  0  0  0  0  0  0  0  0  0  0
  140.4997  141.6020  153.6723 H   0  0  0  0  0  0  0  0  0  0  0  0
  139.5523  139.8930  156.0341 H   0  0  0  0  0  0  0  0  0  0  0  0
  137.4769  138.5871  155.3804 H   0  0  0  0  0  0  0  0  0  0  0  0
  136.7848  139.0102  153.8065 H   0  0  0  0  0  0  0  0  0  0  0  0
  138.6941  137.0927  153.9086 H   0  0  0  0  0  0  0  0  0  0  0  0
  138.7315  138.3032  152.6350 H   0  0  0  0  0  0  0  0  0  0  0  0
  140.5101  139.5844  152.5641 H   0  0  0  0  0  0  0  0  0  0  0  0
  141.5486  138.3256  155.8346 H   0  0  0  0  0  0  0  0  0  0  0  0
  140.1172  137.3343  155.9267 H   0  0  0  0  0  0  0  0  0  0  0  0
  139.9446  135.8036  153.3788 H   0  0  0  0  0  0  0  0  0  0  0  0
  142.8215  133.2075  151.9630 H   0  0  0  0  0  0  0  0  0  0  0  0
  143.9904  134.0705  149.6865 H   0  0  0  0  0  0  0  0  0  0  0  0
  143.5937  135.3015  150.8902 H   0  0  0  0  0  0  0  0  0  0  0  0
  146.3033  134.4923  150.0999 H   0  0  0  0  0  0  0  0  0  0  0  0
  145.8279  135.7089  151.2831 H   0  0  0  0  0  0  0  0  0  0  0  0
  146.8454  133.9552  152.7067 H   0  0  0  0  0  0  0  0  0  0  0  0
  146.5667  132.2430  150.6116 H   0  0  0  0  0  0  0  0  0  0  0  0
  147.6431  131.5729  152.8458 H   0  0  0  0  0  0  0  0  0  0  0  0
  146.0416  131.1168  153.4040 H   0  0  0  0  0  0  0  0  0  0  0  0
  147.6166  129.9447  151.4441 H   0  0  0  0  0  0  0  0  0  0  0  0
  144.1566  131.1672  151.9250 H   0  0  0  0  0  0  0  0  0  0  0  0
  144.3003  131.7489  150.2669 H   0  0  0  0  0  0  0  0  0  0  0  0
  145.8192  136.7523  155.8356 H   0  0  0  0  0  0  0  0  0  0  0  0
  1  2  1  0  0  0  0
  1 27  1  0  0  0  0
  1 28  1  0  0  0  0
  1 29  1  0  0  0  0
  2  6  1  0  0  0  0
  2  3  1  0  0  0  0
  2 30  1  0  0  0  0
  3  4  1  0  0  0  0
  4  5  1  0  0  0  0
  4 31  1  0  0  0  0
  4 32  1  0  0  0  0
  5  6  1  0  0  0  0
  5 33  1  0  0  0  0
  5 34  1  0  0  0  0
  6  7  1  0  0  0  0
  6  8  1  0  0  0  0
  7 35  1  0  0  0  0
  8  9  1  0  0  0  0
  8 36  1  0  0  0  0
  8 37  1  0  0  0  0
  9 26  1  0  0  0  0
  9 10  1  0  0  0  0
 10 11  2  0  0  0  0
 10 38  1  0  0  0  0
 11 12  1  0  0  0  0
 12 26  2  0  0  0  0
 12 13  1  0  0  0  0
 13 14  1  0  0  0  0
 13 23  2  0  0  0  0
 14 18  1  0  0  0  0
 14 15  1  0  0  0  0
 15 22  1  0  0  0  0
 15 16  1  0  0  0  0
 15 39  1  0  0  0  0
 16 17  1  0  0  0  0
 16 40  1  0  0  0  0
 16 41  1  0  0  0  0
 17 18  1  0  0  0  0
 17 42  1  0  0  0  0
 17 43  1  0  0  0  0
 18 19  1  0  0  0  0
 18 44  1  0  0  0  0
 19 20  1  0  0  0  0
 19 22  1  0  0  0  0
 19 45  1  0  0  0  0
 20 21  1  0  0  0  0
 20 46  1  0  0  0  0
 20 47  1  0  0  0  0
 21 48  1  0  0  0  0
 22 49  1  0  0  0  0
 22 50  1  0  0  0  0
 23 24  1  0  0  0  0
 24 25  2  0  0  0  0
 24 51  1  0  0  0  0
 25 26  1  0  0  0  0
M  END
> <s_m_source_file>
AV-unprocessed.smi

> <i_m_source_file_index>
199

> <i_lp_mmshare_version>
43012

> <i_f3d_flags>
0

> <s_epik_input>
W0NIMl0xW0NIMl1PW0NAQEhdKFtDSDNdKVtDQEBdMShbT0hdKVtDSDJdbihbY0hdbjIpYyhjMjMpbltjSF1uYzNOKFtDQEBIXTQ1KVtDQEhdKFtDSDJdW0NIMl00KVtDQEhdKFtDSDJdNSlbQ0gyXVtPSF0=

> <s_epik_cmdline>
J2VwaWtfcHl0aG9uJywgJy1waCcsICc3LjAnLCAnLXRuJywgJzgnLCAnLW1hJywgJzIwMCcsICctbWV0YWxfYmluZGluZycsICctaW1hZScsICc8aW5maWxlLm1hZT4nLCAnLW9tYWUnLCAnPG91dGZpbGUubWFlPic=

> <r_lp_tautomer_probability>
1

> <r_epik_Ionization_Penalty>
0.00583903

> <r_epik_Ionization_Penalty_Charging>
0

> <r_epik_Ionization_Penalty_Neutral>
0.00583903

> <r_epik_State_Penalty>
-0

> <r_epik_Charging_Adjusted_Penalty>
0

> <i_epik_Tot_Q>
0

> <i_epik_Tot_abs_Q>
0

> <r_epik_Metal_State_Penalty>
-0

> <b_epik_Metal_Only>
0

> <s_lp_Force_Field>
OPLS_2005

> <r_lp_Energy>
83.4271

> <b_lp_Chiralities_Consistent>
1

> <s_lp_Variant>
AV-unprocessed.smi:199-2

> <Gold.Version>
5.8.1

> <Gold.Id.Protein>
6NUR|6NUR_protein|mol2

> <Gold.PLP.Fitness>
41.8225

> <Gold.PLP.PLP>
-35.1805

> <Gold.PLP.part.hbond>
-2.0670

> <Gold.PLP.part.metal>
0.0000

> <Gold.PLP.part.buried>
-7.6787

> <Gold.PLP.part.nonpolar>
-26.0906

> <Gold.PLP.part.repulsive>
0.4334

> <Gold.PLP.ligand.clash>
0.0000

> <Gold.PLP.ligand.torsion>
0.7525

> <Gold.PLP.Chemscore.Hbond>
1.8880

> <Gold.PLP.Chemscore.CHOScore>
0.8116

> <Gold.PLP.Chemscore.Metal>
0.0000

> <Gold.Chemscore.Hbonds>
donor molecule, donor type, donor heavy atom, donor atom, acceptor molecule, acceptor atom, score
      L1  H     7    35       P1 10160  0.99
      L1  H    21    48       P1 10747  0.99
      L1  C    10    38       P1 10187  0.29

> <Gold.PLP.Chemscore.Internal.Correction>
0.0481

> <Gold.Rescore>
     Score         DG    S(hbond)    S(metal)    S(lipo)     H(rot)  DE(clash)    DE(int)     intcor
     11.93     -13.60       1.99        0.00      79.93       3.07       0.13       1.54       ----

> <Gold.Chemscore.Fitness>
11.9319

> <Gold.Chemscore.DG>
-13.5968

> <Gold.Chemscore.ZeroCoef>
-5.4800

> <Gold.Chemscore.Hbond>
1.9856

> <Gold.Chemscore.Metal>
0.0000

> <Gold.Chemscore.Lipo>
79.9273

> <Gold.Chemscore.Internal_Hbond>
0.0000

> <Gold.Chemscore.DEClash>
0.1268

> <Gold.Chemscore.DEInternal>
1.5382

> <Gold.Chemscore.Rot>
3.0729

> <Gold.Chemscore.Internal.Correction>
   9.000000E+99

> <Gold.Chemscore.Hbonds>
donor molecule, donor type, donor heavy atom, donor atom, acceptor molecule, acceptor atom, score
      L1  H     7    35       P1 10160  0.93
      L1  H    21    48       P1 10747  0.91

> <Gold.Chemscore.Hbond.Weighted>
-6.6321

> <Gold.Chemscore.Metal.Weighted>
-0.0000

> <Gold.Chemscore.Lipo.Weighted>
-9.3515

> <Gold.Chemscore.Internal_Hbond.Weighted>
0.0000

> <Gold.Chemscore.DEClash.Weighted>
0.1268

> <Gold.Chemscore.DEInternal.Weighted>
1.5382

> <Gold.Chemscore.Rot.Weighted>
7.8667

> <Gold.Chemscore.Internal.Correction.Weighted>
   9.000000E+99

> <Gold.Protein.RotatedTorsions>
[ 6907 6896 6895 6894 ] final   31.33 input  -60.11 | X-H torsion
[ 7974 7965 7964 7962 ] final -124.38 input  175.53 | X-H torsion
[ 8008 7997 7996 7995 ] final    3.57 input   59.86 | X-H torsion
[ 10167 10162 10161 10158 ] final  -28.34 input  -65.29 | X-H torsion
[ 10718 10713 10712 10709 ] final -100.81 input   66.30 | X-H torsion
[ 10763 10752 10751 10750 ] final   74.52 input  -60.55 | X-H torsion
[ 11005 11000 10999 10996 ] final  -35.17 input  -57.11 | X-H torsion

> <Gold.Protein.ActiveResidues>
 VAL166  LYS551  ARG553  GLY616  TRP617  ASP618  TYR619  PRO620  LYS621  CYS622 
 ASP623  PHE694  ASN695  SER759  ASP760  ASP761  ALA762  ILE779  LEU786  VAL792 
 PHE793  MET794  SER795  GLU796  ALA797  LYS798  CYS799  TRP800  GLU811  SER814 

> <Gold.Protein.RotatedAtoms>
  152.0588  134.9607  160.0574 H   0  0  0  0  0  0  0  0  0  0  0  0  # atno 6907 bound_to 6896
  152.0979  133.4229  159.4582 H   0  0  0  0  0  0  0  0  0  0  0  0  # atno 6908 bound_to 6896
  150.6838  134.2714  159.4633 H   0  0  0  0  0  0  0  0  0  0  0  0  # atno 6909 bound_to 6896
  145.0086  140.7886  143.4452 H   0  0  0  0  0  0  0  0  0  0  0  0  # atno 7974 bound_to 7965
  154.7053  140.2681  155.6680 H   0  0  0  0  0  0  0  0  0  0  0  0  # atno 8008 bound_to 7997
  156.2778  140.2764  156.1601 H   0  0  0  0  0  0  0  0  0  0  0  0  # atno 8009 bound_to 7997
  155.0708  140.0372  157.2598 H   0  0  0  0  0  0  0  0  0  0  0  0  # atno 8010 bound_to 7997
  140.7270  143.4018  151.1252 H   0  0  0  0  0  0  0  0  0  0  0  0  # atno 10167 bound_to 10162
  156.0174  130.5344  150.6871 H   0  0  0  0  0  0  0  0  0  0  0  0  # atno 10718 bound_to 10713
  153.0592  135.5022  154.8054 H   0  0  0  0  0  0  0  0  0  0  0  0  # atno 10763 bound_to 10752
  154.6856  135.2975  154.9554 H   0  0  0  0  0  0  0  0  0  0  0  0  # atno 10764 bound_to 10752
  154.0325  135.6727  153.4835 H   0  0  0  0  0  0  0  0  0  0  0  0  # atno 10765 bound_to 10752
  140.9775  133.7075  156.1626 H   0  0  0  0  0  0  0  0  0  0  0  0  # atno 11005 bound_to 11000
  145.2054  139.2231  143.5171 LP  0  0  0  0  0  0  0  0  0  0  0  0  # atno 17320 bound_to 7965
  146.3466  140.1880  142.8589 LP  0  0  0  0  0  0  0  0  0  0  0  0  # atno 17321 bound_to 7965
  139.7639  143.8594  152.3106 LP  0  0  0  0  0  0  0  0  0  0  0  0  # atno 17342 bound_to 10162
  139.8489  144.7174  150.9238 LP  0  0  0  0  0  0  0  0  0  0  0  0  # atno 17343 bound_to 10162
  157.4561  131.0878  151.0795 LP  0  0  0  0  0  0  0  0  0  0  0  0  # atno 17370 bound_to 10713
  157.1297  130.6097  149.5526 LP  0  0  0  0  0  0  0  0  0  0  0  0  # atno 17371 bound_to 10713
  140.7237  134.4330  157.5572 LP  0  0  0  0  0  0  0  0  0  0  0  0  # atno 17394 bound_to 11000
  139.8936  134.8726  156.2214 LP  0  0  0  0  0  0  0  0  0  0  0  0  # atno 17395 bound_to 11000

$$$$
