AV-unprocessed.smi:2663|AV-procd|sdf|10324|dock1
  -GOLD-   2272014343D 1   1.00000     0.00000
 Structure written by MMmdl.
 38 39  0  0  0  0  0  0  0  0  2 V2000
  152.8984  137.2117  158.5739 C   0  0  0  0  0  0  0  0  0  0  0  0
  151.7961  138.2429  158.2177 C   0  0  1  0  0  0  0  0  0  0  0  0
  151.3432  137.9981  156.7483 C   0  0  0  0  0  0  0  0  0  0  0  0
  152.3924  138.2042  155.8231 O   0  0  0  0  0  0  0  0  0  0  0  0
  150.6412  138.0750  159.1143 N   0  0  0  0  0  0  0  0  0  0  0  0
  149.8245  137.0213  159.2810 C   0  0  0  0  0  0  0  0  0  0  0  0
  149.9843  135.9910  158.6237 O   0  0  0  0  0  0  0  0  0  0  0  0
  148.8661  137.2308  160.2119 N   0  5  0  0  0  0  0  0  0  0  0  0
  148.1440  136.1982  160.6774 C   0  0  0  0  0  0  0  0  0  0  0  0
  147.8858  135.1084  159.9367 N   0  0  0  0  0  0  0  0  0  0  0  0
  147.1217  134.1620  160.6063 N   0  0  0  0  0  0  0  0  0  0  0  0
  146.8145  134.5688  161.8379 C   0  0  0  0  0  0  0  0  0  0  0  0
  147.4260  136.1459  162.2896 S   0  0  0  0  0  0  0  0  0  0  0  0
  152.3368  139.7034  158.4225 C   0  0  0  0  0  0  0  0  0  0  0  0
  152.9967  139.9304  159.8108 C   0  0  0  0  0  0  0  0  0  0  0  0
  153.5633  141.3510  159.9642 C   0  0  0  0  0  0  0  0  0  0  0  0
  152.4819  142.4111  159.7234 C   0  0  0  0  0  0  0  0  0  0  0  0
  151.8355  142.2191  158.3463 C   0  0  0  0  0  0  0  0  0  0  0  0
  151.2632  140.8009  158.1902 C   0  0  0  0  0  0  0  0  0  0  0  0
  153.8387  137.4493  158.0758 H   0  0  0  0  0  0  0  0  0  0  0  0
  152.6273  136.2012  158.2683 H   0  0  0  0  0  0  0  0  0  0  0  0
  153.0925  137.1716  159.6454 H   0  0  0  0  0  0  0  0  0  0  0  0
  150.9848  136.9782  156.6111 H   0  0  0  0  0  0  0  0  0  0  0  0
  150.5077  138.6440  156.4783 H   0  0  0  0  0  0  0  0  0  0  0  0
  152.8646  137.3916  155.7247 H   0  0  0  0  0  0  0  0  0  0  0  0
  150.4343  138.8748  159.6943 H   0  0  0  0  0  0  0  0  0  0  0  0
  146.2215  133.9380  162.4830 H   0  0  0  0  0  0  0  0  0  0  0  0
  153.1203  139.8688  157.6816 H   0  0  0  0  0  0  0  0  0  0  0  0
  152.2738  139.7507  160.6076 H   0  0  0  0  0  0  0  0  0  0  0  0
  153.8120  139.2269  159.9719 H   0  0  0  0  0  0  0  0  0  0  0  0
  153.9874  141.4750  160.9611 H   0  0  0  0  0  0  0  0  0  0  0  0
  154.3828  141.4966  159.2592 H   0  0  0  0  0  0  0  0  0  0  0  0
  151.7195  142.3429  160.5006 H   0  0  0  0  0  0  0  0  0  0  0  0
  152.9140  143.4094  159.7980 H   0  0  0  0  0  0  0  0  0  0  0  0
  151.0445  142.9555  158.2020 H   0  0  0  0  0  0  0  0  0  0  0  0
  152.5748  142.4027  157.5657 H   0  0  0  0  0  0  0  0  0  0  0  0
  150.8398  140.7226  157.1901 H   0  0  0  0  0  0  0  0  0  0  0  0
  150.4340  140.6708  158.8866 H   0  0  0  0  0  0  0  0  0  0  0  0
  1  2  1  0  0  0  0
  1 20  1  0  0  0  0
  1 21  1  0  0  0  0
  1 22  1  0  0  0  0
  2  3  1  0  0  0  0
  2  5  1  0  0  0  0
  2 14  1  0  0  0  0
  3  4  1  0  0  0  0
  3 23  1  0  0  0  0
  3 24  1  0  0  0  0
  4 25  1  0  0  0  0
  5  6  1  0  0  0  0
  5 26  1  0  0  0  0
  6  7  2  0  0  0  0
  6  8  1  0  0  0  0
  8  9  1  0  0  0  0
  9 13  1  0  0  0  0
  9 10  2  0  0  0  0
 10 11  1  0  0  0  0
 11 12  2  0  0  0  0
 12 13  1  0  0  0  0
 12 27  1  0  0  0  0
 14 19  1  0  0  0  0
 14 15  1  0  0  0  0
 14 28  1  0  0  0  0
 15 16  1  0  0  0  0
 15 29  1  0  0  0  0
 15 30  1  0  0  0  0
 16 17  1  0  0  0  0
 16 31  1  0  0  0  0
 16 32  1  0  0  0  0
 17 18  1  0  0  0  0
 17 33  1  0  0  0  0
 17 34  1  0  0  0  0
 18 19  1  0  0  0  0
 18 35  1  0  0  0  0
 18 36  1  0  0  0  0
 19 37  1  0  0  0  0
 19 38  1  0  0  0  0
M  CHG  1   8  -1
M  END
> <s_m_source_file>
AV-unprocessed.smi

> <i_m_source_file_index>
2663

> <i_lp_mmshare_version>
43012

> <i_f3d_flags>
0

> <s_epik_input>
W0NIMl0xW0NIMl1bQ0gyXVtDSDJdW0NIMl1bQ0hdMVtDQF0oW0NIM10pKFtDSDJdW09IXSlbTkhdQyg9TylbTkhdYzJubltjSF1zMg==

> <s_epik_cmdline>
J2VwaWtfcHl0aG9uJywgJy1waCcsICc3LjAnLCAnLXRuJywgJzgnLCAnLW1hJywgJzIwMCcsICctbWV0YWxfYmluZGluZycsICctaW1hZScsICc8aW5maWxlLm1hZT4nLCAnLW9tYWUnLCAnPG91dGZpbGUubWFlPic=

> <r_lp_tautomer_probability>
1

> <r_epik_Ionization_Penalty>
4.39194

> <r_epik_Ionization_Penalty_Charging>
4.34423

> <r_epik_Ionization_Penalty_Neutral>
0.047714

> <r_epik_State_Penalty>
4.34384

> <r_epik_Charging_Adjusted_Penalty>
8.68806

> <i_epik_Tot_Q>
-1

> <i_epik_Tot_abs_Q>
1

> <r_epik_Metal_State_Penalty>
0.746645

> <b_epik_Metal_Only>
1

> <s_lp_Force_Field>
OPLS_2005

> <r_lp_Energy>
17.2717

> <b_lp_Chiralities_Consistent>
1

> <s_lp_Variant>
AV-unprocessed.smi:2663-3

> <Gold.Version>
5.8.1

> <Gold.Id.Protein>
6NUR|6NUR_protein|mol2

> <Gold.PLP.Fitness>
39.0578

> <Gold.PLP.PLP>
-33.0531

> <Gold.PLP.part.hbond>
-2.4228

> <Gold.PLP.part.metal>
0.0000

> <Gold.PLP.part.buried>
-5.5707

> <Gold.PLP.part.nonpolar>
-25.7502

> <Gold.PLP.part.repulsive>
0.2098

> <Gold.PLP.ligand.clash>
0.0000

> <Gold.PLP.ligand.torsion>
0.2979

> <Gold.PLP.Chemscore.Hbond>
2.1840

> <Gold.PLP.Chemscore.CHOScore>
0.0000

> <Gold.PLP.Chemscore.Metal>
0.0000

> <Gold.Chemscore.Hbonds>
donor molecule, donor type, donor heavy atom, donor atom, acceptor molecule, acceptor atom, score
      P1  H  6896  6908       L1     7  1.00
      P1  H  6931  6943       L1     8  1.09

> <Gold.PLP.Chemscore.Internal.Correction>
0.0486

> <Gold.Rescore>
     Score         DG    S(hbond)    S(metal)    S(lipo)     H(rot)  DE(clash)    DE(int)     intcor
     11.45     -13.27       1.31        0.00      76.77       2.18       0.01       1.81       ----

> <Gold.Chemscore.Fitness>
11.4531

> <Gold.Chemscore.DG>
-13.2739

> <Gold.Chemscore.ZeroCoef>
-5.4800

> <Gold.Chemscore.Hbond>
1.3138

> <Gold.Chemscore.Metal>
0.0000

> <Gold.Chemscore.Lipo>
76.7726

> <Gold.Chemscore.Internal_Hbond>
0.0000

> <Gold.Chemscore.DEClash>
0.0121

> <Gold.Chemscore.DEInternal>
1.8087

> <Gold.Chemscore.Rot>
2.1783

> <Gold.Chemscore.Internal.Correction>
   9.000000E+99

> <Gold.Chemscore.Hbonds>
donor molecule, donor type, donor heavy atom, donor atom, acceptor molecule, acceptor atom, score
      P1  H  6896  6908       L1     7  0.83
      P1  H  6931  6943       L1     8  0.14

> <Gold.Chemscore.Hbond.Weighted>
-4.3880

> <Gold.Chemscore.Metal.Weighted>
-0.0000

> <Gold.Chemscore.Lipo.Weighted>
-8.9824

> <Gold.Chemscore.Internal_Hbond.Weighted>
0.0000

> <Gold.Chemscore.DEClash.Weighted>
0.0121

> <Gold.Chemscore.DEInternal.Weighted>
1.8087

> <Gold.Chemscore.Rot.Weighted>
5.5765

> <Gold.Chemscore.Internal.Correction.Weighted>
   9.000000E+99

> <Gold.Protein.RotatedTorsions>
[ 6907 6896 6895 6894 ] final  171.09 input  -60.11 | X-H torsion
[ 7974 7965 7964 7962 ] final  112.58 input  175.53 | X-H torsion
[ 8008 7997 7996 7995 ] final   20.42 input   59.86 | X-H torsion
[ 10167 10162 10161 10158 ] final  142.34 input  -65.29 | X-H torsion
[ 10718 10713 10712 10709 ] final   55.97 input   66.30 | X-H torsion
[ 10763 10752 10751 10750 ] final -136.68 input  -60.55 | X-H torsion
[ 11005 11000 10999 10996 ] final  141.83 input  -57.11 | X-H torsion

> <Gold.Protein.ActiveResidues>
 VAL166  LYS551  ARG553  GLY616  TRP617  ASP618  TYR619  PRO620  LYS621  CYS622 
 ASP623  PHE694  ASN695  SER759  ASP760  ASP761  ALA762  ILE779  LEU786  VAL792 
 PHE793  MET794  SER795  GLU796  ALA797  LYS798  CYS799  TRP800  GLU811  SER814 

> <Gold.Protein.RotatedAtoms>
  151.8057  133.3375  159.3539 H   0  0  0  0  0  0  0  0  0  0  0  0  # atno 6907 bound_to 6896
  150.7343  134.5711  159.5900 H   0  0  0  0  0  0  0  0  0  0  0  0  # atno 6908 bound_to 6896
  152.3111  134.7497  160.0387 H   0  0  0  0  0  0  0  0  0  0  0  0  # atno 6909 bound_to 6896
  145.2278  139.2833  143.4184 H   0  0  0  0  0  0  0  0  0  0  0  0  # atno 7974 bound_to 7965
  154.9353  140.3046  155.5147 H   0  0  0  0  0  0  0  0  0  0  0  0  # atno 8008 bound_to 7997
  156.3000  140.2346  156.4354 H   0  0  0  0  0  0  0  0  0  0  0  0  # atno 8009 bound_to 7997
  154.8198  140.0424  157.1391 H   0  0  0  0  0  0  0  0  0  0  0  0  # atno 8010 bound_to 7997
  139.4997  144.6113  151.6264 H   0  0  0  0  0  0  0  0  0  0  0  0  # atno 10167 bound_to 10162
  157.5391  130.8684  149.8796 H   0  0  0  0  0  0  0  0  0  0  0  0  # atno 10718 bound_to 10713
  154.8679  135.3665  154.5099 H   0  0  0  0  0  0  0  0  0  0  0  0  # atno 10763 bound_to 10752
  153.5735  135.7020  153.5499 H   0  0  0  0  0  0  0  0  0  0  0  0  # atno 10764 bound_to 10752
  153.3520  135.4069  155.1616 H   0  0  0  0  0  0  0  0  0  0  0  0  # atno 10765 bound_to 10752
  140.0431  134.9295  157.0879 H   0  0  0  0  0  0  0  0  0  0  0  0  # atno 11005 bound_to 11000
  146.3360  140.2603  142.8601 LP  0  0  0  0  0  0  0  0  0  0  0  0  # atno 17320 bound_to 7965
  144.9705  140.8364  143.5458 LP  0  0  0  0  0  0  0  0  0  0  0  0  # atno 17321 bound_to 7965
  140.5789  143.9980  150.6257 LP  0  0  0  0  0  0  0  0  0  0  0  0  # atno 17342 bound_to 10162
  140.3123  143.3190  152.0867 LP  0  0  0  0  0  0  0  0  0  0  0  0  # atno 17343 bound_to 10162
  156.0482  130.3723  150.1265 LP  0  0  0  0  0  0  0  0  0  0  0  0  # atno 17370 bound_to 10713
  156.9446  130.9755  151.3510 LP  0  0  0  0  0  0  0  0  0  0  0  0  # atno 17371 bound_to 10713
  140.4037  134.2055  155.7163 LP  0  0  0  0  0  0  0  0  0  0  0  0  # atno 17394 bound_to 11000
  141.1893  133.8241  157.0962 LP  0  0  0  0  0  0  0  0  0  0  0  0  # atno 17395 bound_to 11000

$$$$
