AV-unprocessed.smi:2823|AV-procd|sdf|10885|dock4
  -GOLD-   2272015323D 1   1.00000     0.00000
 Structure written by MMmdl.
 41 42  0  0  0  0  0  0  0  0  2 V2000
  145.9069  134.3049  162.4712 C   0  0  0  0  0  0  0  0  0  0  0  0
  146.7472  135.2091  161.6358 C   0  0  0  0  0  0  0  0  0  0  0  0
  146.6345  136.5263  161.7199 N   0  0  0  0  0  0  0  0  0  0  0  0
  147.5829  136.9856  160.7954 O   0  0  0  0  0  0  0  0  0  0  0  0
  148.1608  135.8835  160.2502 C   0  0  0  0  0  0  0  0  0  0  0  0
  149.1253  135.9874  159.3213 N   0  5  0  0  0  0  0  0  0  0  0  0
  148.9843  136.8617  158.2997 C   0  0  0  0  0  0  0  0  0  0  0  0
  148.6183  136.5902  157.1544 O   0  0  0  0  0  0  0  0  0  0  0  0
  149.2804  138.1276  158.6295 N   0  0  0  0  0  0  0  0  0  0  0  0
  149.2065  139.3020  157.7579 C   0  0  0  0  0  0  0  0  0  0  0  0
  150.4676  139.4692  156.8539 C   0  0  0  0  0  0  0  0  0  0  0  0
  151.7337  139.9075  157.6655 C   0  0  0  0  0  0  0  0  0  0  0  0
  152.7397  139.1962  157.5994 O   0  0  0  0  0  0  0  0  0  0  0  0
  151.7473  141.0223  158.4464 N   0  0  0  0  0  0  0  0  0  0  0  0
  152.9244  141.3073  159.2732 C   0  0  0  0  0  0  0  0  0  0  0  0
  150.6961  142.0338  158.5958 C   0  0  0  0  0  0  0  0  0  0  0  0
  150.7108  138.1211  156.1180 C   0  0  0  0  0  0  0  0  0  0  0  0
  151.4901  138.4337  154.8361 C   0  0  0  0  0  0  0  0  0  0  0  0
  151.1723  139.8945  154.5114 C   0  0  0  0  0  0  0  0  0  0  0  0
  150.2431  140.3901  155.6282 C   0  0  0  0  0  0  0  0  0  0  0  0
  147.6749  134.7484  160.7548 N   0  0  0  0  0  0  0  0  0  0  0  0
  144.9439  134.7674  162.6905 H   0  0  0  0  0  0  0  0  0  0  0  0
  146.4115  134.0885  163.4128 H   0  0  0  0  0  0  0  0  0  0  0  0
  145.7252  133.3643  161.9505 H   0  0  0  0  0  0  0  0  0  0  0  0
  149.5735  138.2931  159.5811 H   0  0  0  0  0  0  0  0  0  0  0  0
  148.3277  139.1618  157.1278 H   0  0  0  0  0  0  0  0  0  0  0  0
  148.9743  140.1928  158.3358 H   0  0  0  0  0  0  0  0  0  0  0  0
  153.8001  141.4872  158.6480 H   0  0  0  0  0  0  0  0  0  0  0  0
  153.1418  140.4681  159.9362 H   0  0  0  0  0  0  0  0  0  0  0  0
  152.7865  142.1853  159.9057 H   0  0  0  0  0  0  0  0  0  0  0  0
  149.8861  141.9801  157.8769 H   0  0  0  0  0  0  0  0  0  0  0  0
  151.1229  143.0321  158.4947 H   0  0  0  0  0  0  0  0  0  0  0  0
  150.2546  141.9652  159.5901 H   0  0  0  0  0  0  0  0  0  0  0  0
  151.2113  137.3681  156.7286 H   0  0  0  0  0  0  0  0  0  0  0  0
  149.7549  137.6805  155.8307 H   0  0  0  0  0  0  0  0  0  0  0  0
  152.5611  138.3132  155.0018 H   0  0  0  0  0  0  0  0  0  0  0  0
  151.2084  137.7626  154.0242 H   0  0  0  0  0  0  0  0  0  0  0  0
  152.0943  140.4773  154.5007 H   0  0  0  0  0  0  0  0  0  0  0  0
  150.7068  140.0029  153.5313 H   0  0  0  0  0  0  0  0  0  0  0  0
  149.2081  140.3075  155.2940 H   0  0  0  0  0  0  0  0  0  0  0  0
  150.4276  141.4469  155.8087 H   0  0  0  0  0  0  0  0  0  0  0  0
  1  2  1  0  0  0  0
  1 22  1  0  0  0  0
  1 23  1  0  0  0  0
  1 24  1  0  0  0  0
  2 21  1  0  0  0  0
  2  3  2  0  0  0  0
  3  4  1  0  0  0  0
  4  5  1  0  0  0  0
  5  6  1  0  0  0  0
  5 21  2  0  0  0  0
  6  7  1  0  0  0  0
  7  8  2  0  0  0  0
  7  9  1  0  0  0  0
  9 10  1  0  0  0  0
  9 25  1  0  0  0  0
 10 11  1  0  0  0  0
 10 26  1  0  0  0  0
 10 27  1  0  0  0  0
 11 20  1  0  0  0  0
 11 12  1  0  0  0  0
 11 17  1  0  0  0  0
 12 13  2  0  0  0  0
 12 14  1  0  0  0  0
 14 15  1  0  0  0  0
 14 16  1  0  0  0  0
 15 28  1  0  0  0  0
 15 29  1  0  0  0  0
 15 30  1  0  0  0  0
 16 31  1  0  0  0  0
 16 32  1  0  0  0  0
 16 33  1  0  0  0  0
 17 18  1  0  0  0  0
 17 34  1  0  0  0  0
 17 35  1  0  0  0  0
 18 19  1  0  0  0  0
 18 36  1  0  0  0  0
 18 37  1  0  0  0  0
 19 20  1  0  0  0  0
 19 38  1  0  0  0  0
 19 39  1  0  0  0  0
 20 40  1  0  0  0  0
 20 41  1  0  0  0  0
M  CHG  1   6  -1
M  END
> <s_m_source_file>
AV-unprocessed.smi

> <i_m_source_file_index>
2823

> <i_lp_mmshare_version>
43012

> <i_f3d_flags>
0

> <s_epik_input>
W0NIM11jMW5vYyhuMSlbTkhdQyg9TylbTkhdW0NIMl1DMihDKD1PKU4oW0NIM10pW0NIM10pW0NIMl1bQ0gyXVtDSDJdW0NIMl0y

> <s_epik_cmdline>
J2VwaWtfcHl0aG9uJywgJy1waCcsICc3LjAnLCAnLXRuJywgJzgnLCAnLW1hJywgJzIwMCcsICctbWV0YWxfYmluZGluZycsICctaW1hZScsICc8aW5maWxlLm1hZT4nLCAnLW9tYWUnLCAnPG91dGZpbGUubWFlPic=

> <r_lp_tautomer_probability>
1

> <r_epik_Ionization_Penalty>
6.03325

> <r_epik_Ionization_Penalty_Charging>
6.03318

> <r_epik_Ionization_Penalty_Neutral>
6.91426e-05

> <r_epik_State_Penalty>
6.03316

> <r_epik_Charging_Adjusted_Penalty>
12.0663

> <i_epik_Tot_Q>
-1

> <i_epik_Tot_abs_Q>
1

> <r_epik_Metal_State_Penalty>
1.98358

> <b_epik_Metal_Only>
1

> <s_lp_Force_Field>
OPLS_2005

> <r_lp_Energy>
29.6758

> <b_lp_Chiralities_Consistent>
1

> <s_lp_Variant>
AV-unprocessed.smi:2823-2

> <Gold.Version>
5.8.1

> <Gold.Id.Protein>
6NUR|6NUR_protein|mol2

> <Gold.PLP.Fitness>
40.0375

> <Gold.PLP.PLP>
-28.6370

> <Gold.PLP.part.hbond>
-4.0000

> <Gold.PLP.part.metal>
0.0000

> <Gold.PLP.part.buried>
-1.6728

> <Gold.PLP.part.nonpolar>
-24.6614

> <Gold.PLP.part.repulsive>
0.2069

> <Gold.PLP.ligand.clash>
0.0000

> <Gold.PLP.ligand.torsion>
1.5643

> <Gold.PLP.Chemscore.Hbond>
4.7751

> <Gold.PLP.Chemscore.CHOScore>
0.0000

> <Gold.PLP.Chemscore.Metal>
0.0000

> <Gold.Chemscore.Hbonds>
donor molecule, donor type, donor heavy atom, donor atom, acceptor molecule, acceptor atom, score
      P1  H  6896  6909       L1     6  1.59
      P1  H  6931  6943       L1     4  0.49
      P1  H  6934  6947       L1     4  0.83
      P1  H  7997  8008       L1    13  0.84

> <Gold.PLP.Chemscore.Internal.Correction>
0.2039

> <Gold.Rescore>
     Score         DG    S(hbond)    S(metal)    S(lipo)     H(rot)  DE(clash)    DE(int)     intcor
     12.73     -16.37       2.61        0.00      56.10       1.71       1.78       1.86       ----

> <Gold.Chemscore.Fitness>
12.7296

> <Gold.Chemscore.DG>
-16.3655

> <Gold.Chemscore.ZeroCoef>
-5.4800

> <Gold.Chemscore.Hbond>
2.6085

> <Gold.Chemscore.Metal>
0.0000

> <Gold.Chemscore.Lipo>
56.0967

> <Gold.Chemscore.Internal_Hbond>
0.0000

> <Gold.Chemscore.DEClash>
1.7805

> <Gold.Chemscore.DEInternal>
1.8554

> <Gold.Chemscore.Rot>
1.7149

> <Gold.Chemscore.Internal.Correction>
   9.000000E+99

> <Gold.Chemscore.Hbonds>
donor molecule, donor type, donor heavy atom, donor atom, acceptor molecule, acceptor atom, score
      P1  H  6896  6909       L1     6  0.66
      P1  H  6931  6943       L1     4  0.26
      P1  H  6934  6947       L1     4  0.17
      P1  H  7997  8008       L1    13  0.74

> <Gold.Chemscore.Hbond.Weighted>
-8.7123

> <Gold.Chemscore.Metal.Weighted>
-0.0000

> <Gold.Chemscore.Lipo.Weighted>
-6.5633

> <Gold.Chemscore.Internal_Hbond.Weighted>
0.0000

> <Gold.Chemscore.DEClash.Weighted>
1.7805

> <Gold.Chemscore.DEInternal.Weighted>
1.8554

> <Gold.Chemscore.Rot.Weighted>
4.3901

> <Gold.Chemscore.Internal.Correction.Weighted>
   9.000000E+99

> <Gold.Protein.RotatedTorsions>
[ 6907 6896 6895 6894 ] final   47.63 input  -60.11 | X-H torsion
[ 7974 7965 7964 7962 ] final   91.70 input  175.53 | X-H torsion
[ 8008 7997 7996 7995 ] final  -60.03 input   59.86 | X-H torsion
[ 10167 10162 10161 10158 ] final  168.57 input  -65.29 | X-H torsion
[ 10718 10713 10712 10709 ] final   20.42 input   66.30 | X-H torsion
[ 10763 10752 10751 10750 ] final   96.54 input  -60.55 | X-H torsion
[ 11005 11000 10999 10996 ] final  -52.94 input  -57.11 | X-H torsion

> <Gold.Protein.ActiveResidues>
 VAL166  LYS551  ARG553  GLY616  TRP617  ASP618  TYR619  PRO620  LYS621  CYS622 
 ASP623  PHE694  ASN695  SER759  ASP760  ASP761  ALA762  ILE779  LEU786  VAL792 
 PHE793  MET794  SER795  GLU796  ALA797  LYS798  CYS799  TRP800  GLU811  SER814 

> <Gold.Protein.RotatedAtoms>
  152.2702  134.7941  160.0415 H   0  0  0  0  0  0  0  0  0  0  0  0  # atno 6907 bound_to 6896
  151.8556  133.3442  159.3695 H   0  0  0  0  0  0  0  0  0  0  0  0  # atno 6908 bound_to 6896
  150.7149  134.5184  159.5686 H   0  0  0  0  0  0  0  0  0  0  0  0  # atno 6909 bound_to 6896
  145.5021  139.2276  143.2771 H   0  0  0  0  0  0  0  0  0  0  0  0  # atno 7974 bound_to 7965
  154.4380  140.1048  156.6210 H   0  0  0  0  0  0  0  0  0  0  0  0  # atno 8008 bound_to 7997
  155.5708  140.3489  155.4496 H   0  0  0  0  0  0  0  0  0  0  0  0  # atno 8009 bound_to 7997
  156.0391  140.1278  157.0164 H   0  0  0  0  0  0  0  0  0  0  0  0  # atno 8010 bound_to 7997
  139.4971  144.3800  151.9633 H   0  0  0  0  0  0  0  0  0  0  0  0  # atno 10167 bound_to 10162
  157.1243  130.6563  149.5933 H   0  0  0  0  0  0  0  0  0  0  0  0  # atno 10718 bound_to 10713
  153.2661  135.4215  155.0942 H   0  0  0  0  0  0  0  0  0  0  0  0  # atno 10763 bound_to 10752
  154.8439  135.3461  154.6309 H   0  0  0  0  0  0  0  0  0  0  0  0  # atno 10764 bound_to 10752
  153.6729  135.7043  153.5199 H   0  0  0  0  0  0  0  0  0  0  0  0  # atno 10765 bound_to 10752
  141.0950  133.6626  156.4098 H   0  0  0  0  0  0  0  0  0  0  0  0  # atno 11005 bound_to 11000
  146.2219  140.5823  142.9013 LP  0  0  0  0  0  0  0  0  0  0  0  0  # atno 17320 bound_to 7965
  144.7774  140.5768  143.6629 LP  0  0  0  0  0  0  0  0  0  0  0  0  # atno 17321 bound_to 7965
  140.3236  144.3399  150.6003 LP  0  0  0  0  0  0  0  0  0  0  0  0  # atno 17342 bound_to 10162
  140.5702  143.2181  151.7612 LP  0  0  0  0  0  0  0  0  0  0  0  0  # atno 17343 bound_to 10162
  155.9822  130.4833  150.6866 LP  0  0  0  0  0  0  0  0  0  0  0  0  # atno 17370 bound_to 10713
  157.4449  131.0865  151.0906 LP  0  0  0  0  0  0  0  0  0  0  0  0  # atno 17371 bound_to 10713
  140.5161  134.6349  157.5302 LP  0  0  0  0  0  0  0  0  0  0  0  0  # atno 17394 bound_to 11000
  139.9785  134.7176  155.9904 LP  0  0  0  0  0  0  0  0  0  0  0  0  # atno 17395 bound_to 11000

$$$$
