AV-unprocessed.smi:1756|AV-procd|sdf|7073|dock7
  -GOLD-   22720 8293D 1   1.00000     0.00000
 Structure written by MMmdl.
 37 38  0  0  0  0  0  0  0  0  2 V2000
  151.1879  137.9747  157.8322 O   0  0  0  0  0  0  0  0  0  0  0  0
  150.0689  138.4681  157.9701 C   0  0  0  0  0  0  0  0  0  0  0  0
  149.7859  139.7421  157.6631 N   0  0  0  0  0  0  0  0  0  0  0  0
  150.7357  140.7228  157.1463 C   0  0  0  0  0  0  0  0  0  0  0  0
  151.2503  141.6695  158.2457 C   0  0  2  0  0  0  0  0  0  0  0  0
  151.5928  143.0847  157.7318 C   0  0  0  0  0  0  0  0  0  0  0  0
  152.1972  143.9375  158.8529 C   0  0  0  0  0  0  0  0  0  0  0  0
  153.3766  143.1963  159.4901 C   0  0  0  0  0  0  0  0  0  0  0  0
  152.9469  141.7853  159.9196 C   0  0  0  0  0  0  0  0  0  0  0  0
  152.4234  141.0773  158.8001 O   0  0  0  0  0  0  0  0  0  0  0  0
  148.9714  137.8334  158.4206 N   0  0  0  0  0  0  0  0  0  0  0  0
  148.8146  136.5098  158.8681 C   0  0  0  0  0  0  0  0  0  0  0  0
  148.2974  136.1461  160.0749 C   0  0  0  0  0  0  0  0  0  0  0  0
  148.1515  134.7517  160.4737 C   0  0  0  0  0  0  0  0  0  0  0  0
  147.5047  134.3112  161.7751 C   0  0  0  0  0  0  0  0  0  0  0  0
  148.3159  133.5119  162.4684 F   0  0  0  0  0  0  0  0  0  0  0  0
  147.2280  135.3755  162.5269 F   0  0  0  0  0  0  0  0  0  0  0  0
  146.3659  133.6572  161.5454 F   0  0  0  0  0  0  0  0  0  0  0  0
  148.5667  133.8781  159.4876 C   0  0  0  0  0  0  0  0  0  0  0  0
  149.0981  134.1533  158.2763 N   0  5  0  0  0  0  0  0  0  0  0  0
  149.2370  135.4605  157.9169 C   0  0  0  0  0  0  0  0  0  0  0  0
  149.7048  135.7803  156.8232 O   0  0  0  0  0  0  0  0  0  0  0  0
  148.8377  140.0604  157.8009 H   0  0  0  0  0  0  0  0  0  0  0  0
  151.5756  140.1683  156.7269 H   0  0  0  0  0  0  0  0  0  0  0  0
  150.3079  141.2929  156.3199 H   0  0  0  0  0  0  0  0  0  0  0  0
  150.4931  141.7389  159.0288 H   0  0  0  0  0  0  0  0  0  0  0  0
  152.3002  143.0137  156.9046 H   0  0  0  0  0  0  0  0  0  0  0  0
  150.7034  143.5786  157.3406 H   0  0  0  0  0  0  0  0  0  0  0  0
  152.5188  144.9043  158.4647 H   0  0  0  0  0  0  0  0  0  0  0  0
  151.4380  144.1392  159.6095 H   0  0  0  0  0  0  0  0  0  0  0  0
  154.1962  143.1255  158.7737 H   0  0  0  0  0  0  0  0  0  0  0  0
  153.7554  143.7542  160.3467 H   0  0  0  0  0  0  0  0  0  0  0  0
  153.8026  141.2372  160.3141 H   0  0  0  0  0  0  0  0  0  0  0  0
  152.2031  141.8295  160.7167 H   0  0  0  0  0  0  0  0  0  0  0  0
  148.1171  138.3713  158.4266 H   0  0  0  0  0  0  0  0  0  0  0  0
  147.9623  136.8849  160.7831 H   0  0  0  0  0  0  0  0  0  0  0  0
  148.4494  132.7945  159.7021 H   0  0  0  0  0  0  0  0  0  0  0  0
  1  2  2  0  0  0  0
  2  3  1  0  0  0  0
  2 11  1  0  0  0  0
  3  4  1  0  0  0  0
  3 23  1  0  0  0  0
  4  5  1  0  0  0  0
  4 24  1  0  0  0  0
  4 25  1  0  0  0  0
  5 10  1  0  0  0  0
  5  6  1  0  0  0  0
  5 26  1  0  0  0  0
  6  7  1  0  0  0  0
  6 27  1  0  0  0  0
  6 28  1  0  0  0  0
  7  8  1  0  0  0  0
  7 29  1  0  0  0  0
  7 30  1  0  0  0  0
  8  9  1  0  0  0  0
  8 31  1  0  0  0  0
  8 32  1  0  0  0  0
  9 10  1  0  0  0  0
  9 33  1  0  0  0  0
  9 34  1  0  0  0  0
 11 12  1  0  0  0  0
 11 35  1  0  0  0  0
 12 21  1  0  0  0  0
 12 13  2  0  0  0  0
 13 14  1  0  0  0  0
 13 36  1  0  0  0  0
 14 15  1  0  0  0  0
 14 19  2  0  0  0  0
 15 16  1  0  0  0  0
 15 17  1  0  0  0  0
 15 18  1  0  0  0  0
 19 20  1  0  0  0  0
 19 37  1  0  0  0  0
 20 21  1  0  0  0  0
 21 22  2  0  0  0  0
M  CHG  1  20  -1
M  END
> <s_m_source_file>
AV-unprocessed.smi

> <i_m_source_file_index>
1756

> <i_lp_mmshare_version>
43012

> <i_f3d_flags>
0

> <s_epik_input>
Tz1jMVtuSF1bY0hdYyhDKEYpKEYpRilbY0hdYzFbTkhdQyg9TylbTkhdW0NIMl1bQ0BASF0yW0NIMl1bQ0gyXVtDSDJdW0NIMl1PMg==

> <s_epik_cmdline>
J2VwaWtfcHl0aG9uJywgJy1waCcsICc3LjAnLCAnLXRuJywgJzgnLCAnLW1hJywgJzIwMCcsICctbWV0YWxfYmluZGluZycsICctaW1hZScsICc8aW5maWxlLm1hZT4nLCAnLW9tYWUnLCAnPG91dGZpbGUubWFlPic=

> <r_lp_tautomer_probability>
1

> <r_epik_Ionization_Penalty>
3.16985

> <r_epik_Ionization_Penalty_Charging>
0.174782

> <r_epik_Ionization_Penalty_Neutral>
2.99507

> <r_epik_State_Penalty>
2.99125

> <r_epik_Charging_Adjusted_Penalty>
3.16603

> <i_epik_Tot_Q>
-1

> <i_epik_Tot_abs_Q>
1

> <r_epik_Metal_State_Penalty>
0.453096

> <b_epik_Metal_Only>
1

> <s_lp_Force_Field>
OPLS_2005

> <r_lp_Energy>
21.0117

> <b_lp_Chiralities_Consistent>
1

> <s_lp_Variant>
AV-unprocessed.smi:1756-3

> <Gold.Version>
5.8.1

> <Gold.Id.Protein>
6NUR|6NUR_protein|mol2

> <Gold.PLP.Fitness>
42.8566

> <Gold.PLP.PLP>
-38.9955

> <Gold.PLP.part.hbond>
-1.0000

> <Gold.PLP.part.metal>
0.0000

> <Gold.PLP.part.buried>
-5.1426

> <Gold.PLP.part.nonpolar>
-32.7995

> <Gold.PLP.part.repulsive>
0.2550

> <Gold.PLP.ligand.clash>
0.0000

> <Gold.PLP.ligand.torsion>
1.0949

> <Gold.PLP.Chemscore.Hbond>
2.0000

> <Gold.PLP.Chemscore.CHOScore>
0.0000

> <Gold.PLP.Chemscore.Metal>
0.0000

> <Gold.PLP.Chemscore.Internal.Correction>
0.0510

> <Gold.Rescore>
     Score         DG    S(hbond)    S(metal)    S(lipo)     H(rot)  DE(clash)    DE(int)     intcor
     10.25     -13.98       0.41        0.00      90.03       1.32       0.19       3.54       ----

> <Gold.Chemscore.Fitness>
10.2453

> <Gold.Chemscore.DG>
-13.9789

> <Gold.Chemscore.ZeroCoef>
-5.4800

> <Gold.Chemscore.Hbond>
0.4064

> <Gold.Chemscore.Metal>
0.0000

> <Gold.Chemscore.Lipo>
90.0268

> <Gold.Chemscore.Internal_Hbond>
0.0000

> <Gold.Chemscore.DEClash>
0.1887

> <Gold.Chemscore.DEInternal>
3.5450

> <Gold.Chemscore.Rot>
1.3248

> <Gold.Chemscore.Internal.Correction>
   9.000000E+99

> <Gold.Chemscore.Hbond.Weighted>
-1.3573

> <Gold.Chemscore.Metal.Weighted>
-0.0000

> <Gold.Chemscore.Lipo.Weighted>
-10.5331

> <Gold.Chemscore.Internal_Hbond.Weighted>
0.0000

> <Gold.Chemscore.DEClash.Weighted>
0.1887

> <Gold.Chemscore.DEInternal.Weighted>
3.5450

> <Gold.Chemscore.Rot.Weighted>
3.3915

> <Gold.Chemscore.Internal.Correction.Weighted>
   9.000000E+99

> <Gold.Protein.RotatedTorsions>
[ 6907 6896 6895 6894 ] final   14.30 input  -60.11 | X-H torsion
[ 7974 7965 7964 7962 ] final  137.72 input  175.53 | X-H torsion
[ 8008 7997 7996 7995 ] final -132.59 input   59.86 | X-H torsion
[ 10167 10162 10161 10158 ] final  112.18 input  -65.29 | X-H torsion
[ 10718 10713 10712 10709 ] final -138.39 input   66.30 | X-H torsion
[ 10763 10752 10751 10750 ] final  -57.13 input  -60.55 | X-H torsion
[ 11005 11000 10999 10996 ] final -145.42 input  -57.11 | X-H torsion

> <Gold.Protein.ActiveResidues>
 VAL166  LYS551  ARG553  GLY616  TRP617  ASP618  TYR619  PRO620  LYS621  CYS622 
 ASP623  PHE694  ASN695  SER759  ASP760  ASP761  ALA762  ILE779  LEU786  VAL792 
 PHE793  MET794  SER795  GLU796  ALA797  LYS798  CYS799  TRP800  GLU811  SER814 

> <Gold.Protein.RotatedAtoms>
  151.8001  135.0711  160.0398 H   0  0  0  0  0  0  0  0  0  0  0  0  # atno 6907 bound_to 6896
  152.3095  133.5734  159.5680 H   0  0  0  0  0  0  0  0  0  0  0  0  # atno 6908 bound_to 6896
  150.7313  134.0089  159.3705 H   0  0  0  0  0  0  0  0  0  0  0  0  # atno 6909 bound_to 6896
  144.9441  139.4896  143.5558 H   0  0  0  0  0  0  0  0  0  0  0  0  # atno 7974 bound_to 7965
  155.3314  140.0467  157.3042 H   0  0  0  0  0  0  0  0  0  0  0  0  # atno 8008 bound_to 7997
  154.5326  140.2262  155.8743 H   0  0  0  0  0  0  0  0  0  0  0  0  # atno 8009 bound_to 7997
  156.1803  140.3075  155.9143 H   0  0  0  0  0  0  0  0  0  0  0  0  # atno 8010 bound_to 7997
  139.6555  144.7129  151.1965 H   0  0  0  0  0  0  0  0  0  0  0  0  # atno 10167 bound_to 10162
  156.2988  130.7417  151.1463 H   0  0  0  0  0  0  0  0  0  0  0  0  # atno 10718 bound_to 10713
  154.2176  135.6383  153.5134 H   0  0  0  0  0  0  0  0  0  0  0  0  # atno 10763 bound_to 10752
  152.9976  135.5489  154.6148 H   0  0  0  0  0  0  0  0  0  0  0  0  # atno 10764 bound_to 10752
  154.5601  135.2908  155.0901 H   0  0  0  0  0  0  0  0  0  0  0  0  # atno 10765 bound_to 10752
  140.7924  134.2953  157.5009 H   0  0  0  0  0  0  0  0  0  0  0  0  # atno 11005 bound_to 11000
  146.3297  139.8480  142.8878 LP  0  0  0  0  0  0  0  0  0  0  0  0  # atno 17320 bound_to 7965
  145.2946  141.0177  143.3644 LP  0  0  0  0  0  0  0  0  0  0  0  0  # atno 17321 bound_to 7965
  140.7557  143.6080  150.8634 LP  0  0  0  0  0  0  0  0  0  0  0  0  # atno 17342 bound_to 10162
  139.9732  143.6033  152.2967 LP  0  0  0  0  0  0  0  0  0  0  0  0  # atno 17343 bound_to 10162
  157.7362  131.0564  150.5425 LP  0  0  0  0  0  0  0  0  0  0  0  0  # atno 17370 bound_to 10713
  156.5550  130.4241  149.6090 LP  0  0  0  0  0  0  0  0  0  0  0  0  # atno 17371 bound_to 10713
  139.8730  134.9382  156.3708 LP  0  0  0  0  0  0  0  0  0  0  0  0  # atno 17394 bound_to 11000
  140.9376  133.7536  156.0105 LP  0  0  0  0  0  0  0  0  0  0  0  0  # atno 17395 bound_to 11000

$$$$
