AV-unprocessed.smi:67|AV-procd|sdf|630|dock1
  -GOLD-   2262016523D 1   1.00000     0.00000
 Structure written by MMmdl.
 49 51  0  0  0  0  0  0  0  0  3 V2000
  147.0446  134.8260  152.0923 O   0  0  0  0  0  0  0  0  0  0  0  0
  145.9587  135.7085  152.3183 C   0  0  2  0  0  0  0  0  0  0  0  0
  146.0684  136.2644  153.7557 C   0  0  0  0  0  0  0  0  0  0  0  0
  147.2053  137.2125  153.9004 N   0  3  2  0  0  0  0  0  0  0  0  0
  147.7895  137.2201  155.2667 C   0  0  0  0  0  0  0  0  0  0  0  0
  149.0960  138.0300  155.3046 C   0  0  0  0  0  0  0  0  0  0  0  0
  148.8779  139.4514  154.7433 C   0  0  1  0  0  0  0  0  0  0  0  0
  150.0239  140.3039  154.8140 O   0  0  0  0  0  0  0  0  0  0  0  0
  150.6704  140.6113  155.9967 C   0  0  0  0  0  0  0  0  0  0  0  0
  151.4136  139.5639  156.5788 C   0  0  0  0  0  0  0  0  0  0  0  0
  152.1160  139.7538  157.7834 C   0  0  0  0  0  0  0  0  0  0  0  0
  152.0846  141.0036  158.4274 C   0  0  0  0  0  0  0  0  0  0  0  0
  151.3478  142.0670  157.8651 C   0  0  0  0  0  0  0  0  0  0  0  0
  151.2910  143.4308  158.5368 C   0  0  0  0  0  0  0  0  0  0  0  0
  150.0361  143.6933  158.9013 F   0  0  0  0  0  0  0  0  0  0  0  0
  152.0683  143.4905  159.6185 F   0  0  0  0  0  0  0  0  0  0  0  0
  151.6902  144.3662  157.6752 F   0  0  0  0  0  0  0  0  0  0  0  0
  150.6473  141.8656  156.6569 C   0  0  0  0  0  0  0  0  0  0  0  0
  148.1522  139.4591  153.3808 C   0  0  0  0  0  0  0  0  0  0  0  0
  146.8877  138.5869  153.4321 C   0  0  0  0  0  0  0  0  0  0  0  0
  144.6545  134.9465  152.0652 C   0  0  0  0  0  0  0  0  0  0  0  0
  144.4922  134.9737  150.5431 C   0  0  0  0  0  0  0  0  0  0  0  0
  145.1981  136.1811  150.0725 N   0  3  0  0  0  0  0  0  0  0  0  0
  145.9302  136.7737  151.2101 C   0  0  0  0  0  0  0  0  0  0  0  0
  147.8526  135.2784  152.2849 H   0  0  0  0  0  0  0  0  0  0  0  0
  145.1345  136.7500  154.0442 H   0  0  0  0  0  0  0  0  0  0  0  0
  146.1813  135.4291  154.4492 H   0  0  0  0  0  0  0  0  0  0  0  0
  147.0660  137.6326  155.9720 H   0  0  0  0  0  0  0  0  0  0  0  0
  147.9970  136.1976  155.5850 H   0  0  0  0  0  0  0  0  0  0  0  0
  149.4558  138.0941  156.3320 H   0  0  0  0  0  0  0  0  0  0  0  0
  149.8589  137.4811  154.7593 H   0  0  0  0  0  0  0  0  0  0  0  0
  148.1836  139.9270  155.4374 H   0  0  0  0  0  0  0  0  0  0  0  0
  151.4462  138.5989  156.0943 H   0  0  0  0  0  0  0  0  0  0  0  0
  152.6795  138.9388  158.2134 H   0  0  0  0  0  0  0  0  0  0  0  0
  152.6280  141.1356  159.3512 H   0  0  0  0  0  0  0  0  0  0  0  0
  150.1008  142.7062  156.2679 H   0  0  0  0  0  0  0  0  0  0  0  0
  147.8797  140.4817  153.1181 H   0  0  0  0  0  0  0  0  0  0  0  0
  148.7845  139.1051  152.5710 H   0  0  0  0  0  0  0  0  0  0  0  0
  146.4395  138.5497  152.4393 H   0  0  0  0  0  0  0  0  0  0  0  0
  146.1467  139.0354  154.0961 H   0  0  0  0  0  0  0  0  0  0  0  0
  144.6553  133.9348  152.4733 H   0  0  0  0  0  0  0  0  0  0  0  0
  143.8192  135.4807  152.5206 H   0  0  0  0  0  0  0  0  0  0  0  0
  144.9694  134.1009  150.0962 H   0  0  0  0  0  0  0  0  0  0  0  0
  143.4461  134.9785  150.2364 H   0  0  0  0  0  0  0  0  0  0  0  0
  145.8518  135.9136  149.3501 H   0  0  0  0  0  0  0  0  0  0  0  0
  145.3606  137.6431  151.5397 H   0  0  0  0  0  0  0  0  0  0  0  0
  146.9223  137.1198  150.9172 H   0  0  0  0  0  0  0  0  0  0  0  0
  144.5404  136.8521  149.7014 H   0  0  0  0  0  0  0  0  0  0  0  0
  147.9324  136.8605  153.2936 H   0  0  0  0  0  0  0  0  0  0  0  0
  1  2  1  0  0  0  0
  1 25  1  0  0  0  0
  2 24  1  0  0  0  0
  2  3  1  0  0  0  0
  2 21  1  0  0  0  0
  3  4  1  0  0  0  0
  3 26  1  0  0  0  0
  3 27  1  0  0  0  0
  4 20  1  0  0  0  0
  4  5  1  0  0  0  0
  4 49  1  0  0  0  0
  5  6  1  0  0  0  0
  5 28  1  0  0  0  0
  5 29  1  0  0  0  0
  6  7  1  0  0  0  0
  6 30  1  0  0  0  0
  6 31  1  0  0  0  0
  7  8  1  0  0  0  0
  7 19  1  0  0  0  0
  7 32  1  0  0  0  0
  8  9  1  0  0  0  0
  9 18  1  0  0  0  0
  9 10  2  0  0  0  0
 10 11  1  0  0  0  0
 10 33  1  0  0  0  0
 11 12  2  0  0  0  0
 11 34  1  0  0  0  0
 12 13  1  0  0  0  0
 12 35  1  0  0  0  0
 13 14  1  0  0  0  0
 13 18  2  0  0  0  0
 14 15  1  0  0  0  0
 14 16  1  0  0  0  0
 14 17  1  0  0  0  0
 18 36  1  0  0  0  0
 19 20  1  0  0  0  0
 19 37  1  0  0  0  0
 19 38  1  0  0  0  0
 20 39  1  0  0  0  0
 20 40  1  0  0  0  0
 21 22  1  0  0  0  0
 21 41  1  0  0  0  0
 21 42  1  0  0  0  0
 22 23  1  0  0  0  0
 22 43  1  0  0  0  0
 22 44  1  0  0  0  0
 23 24  1  0  0  0  0
 23 45  1  0  0  0  0
 23 48  1  0  0  0  0
 24 46  1  0  0  0  0
 24 47  1  0  0  0  0
M  CHG  1   4   1
M  CHG  1  23   1
M  END
> <s_m_source_file>
AV-unprocessed.smi

> <i_m_source_file_index>
67

> <i_lp_mmshare_version>
43012

> <i_f3d_flags>
0

> <s_epik_input>
W0NIMl0xW05IXVtDSDJdW0NIMl1bQ0BAXTEoW09IXSlbQ0gyXU4yW0NIMl1bQ0gyXVtDSF0oW0NIMl1bQ0gyXTIpT2MzW2NIXVtjSF1bY0hdYyhDKEYpKEYpRilbY0hdMw==

> <s_epik_cmdline>
J2VwaWtfcHl0aG9uJywgJy1waCcsICc3LjAnLCAnLXRuJywgJzgnLCAnLW1hJywgJzIwMCcsICctbWV0YWxfYmluZGluZycsICctaW1hZScsICc8aW5maWxlLm1hZT4nLCAnLW9tYWUnLCAnPG91dGZpbGUubWFlPic=

> <r_lp_tautomer_probability>
1

> <r_epik_Ionization_Penalty>
0.0989853

> <r_epik_Ionization_Penalty_Charging>
0.0989662

> <r_epik_Ionization_Penalty_Neutral>
1.91014e-05

> <r_epik_State_Penalty>
0.0852826

> <r_epik_Charging_Adjusted_Penalty>
0.184249

> <i_epik_Tot_Q>
2

> <i_epik_Tot_abs_Q>
2

> <r_epik_Metal_State_Penalty>
0.0849414

> <b_epik_Metal_Only>
0

> <s_lp_Force_Field>
OPLS_2005

> <r_lp_Energy>
59.8113

> <b_lp_Chiralities_Consistent>
1

> <s_lp_Variant>
AV-unprocessed.smi:67-2

> <Gold.Version>
5.8.1

> <Gold.Id.Protein>
6NUR|6NUR_protein|mol2

> <Gold.PLP.Fitness>
58.9532

> <Gold.PLP.PLP>
-42.3113

> <Gold.PLP.part.hbond>
-4.4750

> <Gold.PLP.part.metal>
0.0000

> <Gold.PLP.part.buried>
1.1200

> <Gold.PLP.part.nonpolar>
-39.9938

> <Gold.PLP.part.repulsive>
0.2349

> <Gold.PLP.ligand.clash>
0.0000

> <Gold.PLP.ligand.torsion>
0.5719

> <Gold.PLP.Chemscore.Hbond>
5.7259

> <Gold.PLP.Chemscore.CHOScore>
0.0000

> <Gold.PLP.Chemscore.Metal>
0.0000

> <Gold.Chemscore.Hbonds>
donor molecule, donor type, donor heavy atom, donor atom, acceptor molecule, acceptor atom, score
      L1  H     1    25       P1  7948  0.86
      L1  H     4    49       P1  7948  2.00
      L1  H    23    45       P1  7921  0.92
      L1  H    23    48       P1 10171  0.96
      P1  H  7989  7998       L1     8  0.59

> <Gold.PLP.Chemscore.Internal.Correction>
0.6081

> <Gold.Rescore>
     Score         DG    S(hbond)    S(metal)    S(lipo)     H(rot)  DE(clash)    DE(int)     intcor
     20.56     -24.12       3.79        0.00      99.99       2.24       2.46       1.11       ----

> <Gold.Chemscore.Fitness>
20.5578

> <Gold.Chemscore.DG>
-24.1233

> <Gold.Chemscore.ZeroCoef>
-5.4800

> <Gold.Chemscore.Hbond>
3.7924

> <Gold.Chemscore.Metal>
0.0000

> <Gold.Chemscore.Lipo>
99.9905

> <Gold.Chemscore.Internal_Hbond>
0.0000

> <Gold.Chemscore.DEClash>
2.4554

> <Gold.Chemscore.DEInternal>
1.1101

> <Gold.Chemscore.Rot>
2.2352

> <Gold.Chemscore.Internal.Correction>
   9.000000E+99

> <Gold.Chemscore.Hbonds>
donor molecule, donor type, donor heavy atom, donor atom, acceptor molecule, acceptor atom, score
      L1  H     1    25       P1  7948  0.79
      L1  H     4    49       P1  7948  1.00
      L1  H    23    45       P1  7921  0.84
      L1  H    23    48       P1 10171  0.92
      P1  H  7989  7998       L1     8  0.10

> <Gold.Chemscore.Hbond.Weighted>
-12.6666

> <Gold.Chemscore.Metal.Weighted>
-0.0000

> <Gold.Chemscore.Lipo.Weighted>
-11.6989

> <Gold.Chemscore.Internal_Hbond.Weighted>
0.0000

> <Gold.Chemscore.DEClash.Weighted>
2.4554

> <Gold.Chemscore.DEInternal.Weighted>
1.1101

> <Gold.Chemscore.Rot.Weighted>
5.7221

> <Gold.Chemscore.Internal.Correction.Weighted>
   9.000000E+99

> <Gold.Protein.RotatedTorsions>
[ 6907 6896 6895 6894 ] final  -28.85 input  -60.11 | X-H torsion
[ 7974 7965 7964 7962 ] final -163.09 input  175.53 | X-H torsion
[ 8008 7997 7996 7995 ] final -152.28 input   59.86 | X-H torsion
[ 10167 10162 10161 10158 ] final    7.31 input  -65.29 | X-H torsion
[ 10718 10713 10712 10709 ] final  -72.36 input   66.30 | X-H torsion
[ 10763 10752 10751 10750 ] final  101.77 input  -60.55 | X-H torsion
[ 11005 11000 10999 10996 ] final   10.34 input  -57.11 | X-H torsion

> <Gold.Protein.ActiveResidues>
 VAL166  LYS551  ARG553  GLY616  TRP617  ASP618  TYR619  PRO620  LYS621  CYS622 
 ASP623  PHE694  ASN695  SER759  ASP760  ASP761  ALA762  ILE779  LEU786  VAL792 
 PHE793  MET794  SER795  GLU796  ALA797  LYS798  CYS799  TRP800  GLU811  SER814 

> <Gold.Protein.RotatedAtoms>
  151.1272  135.0111  159.8565 H   0  0  0  0  0  0  0  0  0  0  0  0  # atno 6907 bound_to 6896
  152.5450  134.1653  159.8584 H   0  0  0  0  0  0  0  0  0  0  0  0  # atno 6908 bound_to 6896
  151.1716  133.4736  159.2627 H   0  0  0  0  0  0  0  0  0  0  0  0  # atno 6909 bound_to 6896
  144.7337  140.3158  143.6180 H   0  0  0  0  0  0  0  0  0  0  0  0  # atno 7974 bound_to 7965
  155.6527  140.0714  157.2581 H   0  0  0  0  0  0  0  0  0  0  0  0  # atno 8008 bound_to 7997
  154.4159  140.1730  156.1741 H   0  0  0  0  0  0  0  0  0  0  0  0  # atno 8009 bound_to 7997
  155.9764  140.3357  155.6625 H   0  0  0  0  0  0  0  0  0  0  0  0  # atno 8010 bound_to 7997
  140.6379  143.7844  150.7385 H   0  0  0  0  0  0  0  0  0  0  0  0  # atno 10167 bound_to 10162
  156.0323  130.4371  150.2582 H   0  0  0  0  0  0  0  0  0  0  0  0  # atno 10718 bound_to 10713
  153.3309  135.4033  155.1495 H   0  0  0  0  0  0  0  0  0  0  0  0  # atno 10763 bound_to 10752
  154.8623  135.3610  154.5471 H   0  0  0  0  0  0  0  0  0  0  0  0  # atno 10764 bound_to 10752
  153.5910  135.7074  153.5482 H   0  0  0  0  0  0  0  0  0  0  0  0  # atno 10765 bound_to 10752
  140.5155  134.0610  155.7830 H   0  0  0  0  0  0  0  0  0  0  0  0  # atno 11005 bound_to 11000
  145.7619  139.1827  143.2262 LP  0  0  0  0  0  0  0  0  0  0  0  0  # atno 17320 bound_to 7965
  146.0980  140.7578  142.9563 LP  0  0  0  0  0  0  0  0  0  0  0  0  # atno 17321 bound_to 7965
  140.1469  143.4392  152.2157 LP  0  0  0  0  0  0  0  0  0  0  0  0  # atno 17342 bound_to 10162
  139.5588  144.7392  151.4215 LP  0  0  0  0  0  0  0  0  0  0  0  0  # atno 17343 bound_to 10162
  157.0683  131.0109  151.3199 LP  0  0  0  0  0  0  0  0  0  0  0  0  # atno 17370 bound_to 10713
  157.5018  130.7885  149.7613 LP  0  0  0  0  0  0  0  0  0  0  0  0  # atno 17371 bound_to 10713
  141.1362  133.9217  157.2428 LP  0  0  0  0  0  0  0  0  0  0  0  0  # atno 17394 bound_to 11000
  139.9635  135.0148  156.9324 LP  0  0  0  0  0  0  0  0  0  0  0  0  # atno 17395 bound_to 11000

$$$$
