AV-unprocessed.smi:14|AV-procd|sdf|78|dock6
  -GOLD-   2262015203D 1   1.00000     0.00000
 Structure written by MMmdl.
 57 60  0  0  0  0  0  0  0  0  1 V2000
  149.2749  141.6692  153.6917 N   0  0  0  0  0  0  0  0  0  0  0  0
  149.6443  140.8810  154.4541 C   0  0  0  0  0  0  0  0  0  0  0  0
  150.1130  139.8799  155.4233 C   0  0  0  0  0  0  0  0  0  0  0  0
  151.4816  140.2431  156.0198 C   0  0  0  0  0  0  0  0  0  0  0  0
  151.7397  139.5802  157.3003 N   0  0  0  0  0  0  0  0  0  0  0  0
  151.8791  140.4419  158.4764 C   0  0  0  0  0  0  0  0  0  0  0  0
  152.0171  141.9425  158.1428 C   0  0  1  0  0  0  0  0  0  0  0  0
  150.7084  142.7018  158.0183 C   0  0  0  0  0  0  0  0  0  0  0  0
  151.1484  144.1481  158.2244 C   0  0  0  0  0  0  0  0  0  0  0  0
  152.3015  144.0935  159.0588 O   0  0  0  0  0  0  0  0  0  0  0  0
  152.6929  142.7396  159.2579 C   0  0  0  0  0  0  0  0  0  0  0  0
  151.1948  138.3527  157.5203 C   0  0  0  0  0  0  0  0  0  0  0  0
  150.6456  138.0705  158.7328 N   0  0  0  0  0  0  0  0  0  0  0  0
  150.1386  136.8611  158.9838 C   0  0  0  0  0  0  0  0  0  0  0  0
  150.0758  135.8010  158.1779 N   0  0  0  0  0  0  0  0  0  0  0  0
  150.6093  136.0763  156.9543 C   0  0  0  0  0  0  0  0  0  0  0  0
  151.1867  137.3129  156.5456 C   0  0  0  0  0  0  0  0  0  0  0  0
  151.6238  137.2129  155.2300 N   0  0  0  0  0  0  0  0  0  0  0  0
  151.3400  135.9863  154.8889 C   0  0  0  0  0  0  0  0  0  0  0  0
  150.7117  135.2366  155.8577 N   0  0  0  0  0  0  0  0  0  0  0  0
  150.2914  133.8461  155.7441 C   0  0  0  0  0  0  0  0  0  0  0  0
  149.3122  133.5366  154.5669 C   0  0  0  0  0  0  0  0  0  0  0  0
  148.5684  134.8447  154.1754 C   0  0  0  0  0  0  0  0  0  0  0  0
  147.8289  134.7364  152.9752 O   0  0  0  0  0  0  0  0  0  0  0  0
  150.1309  133.0075  153.3602 C   0  0  0  0  0  0  0  0  0  0  0  0
  150.6743  131.5846  153.5881 C   0  0  0  0  0  0  0  0  0  0  0  0
  149.6044  130.6999  153.8960 O   0  0  0  0  0  0  0  0  0  0  0  0
  148.9255  131.0504  155.0954 C   0  0  0  0  0  0  0  0  0  0  0  0
  148.2818  132.4417  154.9473 C   0  0  0  0  0  0  0  0  0  0  0  0
  149.3486  139.7905  156.1942 H   0  0  0  0  0  0  0  0  0  0  0  0
  150.1671  138.9199  154.9091 H   0  0  0  0  0  0  0  0  0  0  0  0
  152.2601  139.9585  155.3112 H   0  0  0  0  0  0  0  0  0  0  0  0
  151.5649  141.3242  156.1395 H   0  0  0  0  0  0  0  0  0  0  0  0
  151.0629  140.2906  159.1802 H   0  0  0  0  0  0  0  0  0  0  0  0
  152.7739  140.1187  159.0094 H   0  0  0  0  0  0  0  0  0  0  0  0
  152.5971  142.0748  157.2282 H   0  0  0  0  0  0  0  0  0  0  0  0
  150.2109  142.5545  157.0600 H   0  0  0  0  0  0  0  0  0  0  0  0
  150.0184  142.4034  158.8093 H   0  0  0  0  0  0  0  0  0  0  0  0
  151.4318  144.5992  157.2727 H   0  0  0  0  0  0  0  0  0  0  0  0
  150.3633  144.7600  158.6693 H   0  0  0  0  0  0  0  0  0  0  0  0
  152.3311  142.4180  160.2359 H   0  0  0  0  0  0  0  0  0  0  0  0
  153.7780  142.6347  159.2490 H   0  0  0  0  0  0  0  0  0  0  0  0
  149.7279  136.7214  159.9729 H   0  0  0  0  0  0  0  0  0  0  0  0
  151.5753  135.5938  153.9103 H   0  0  0  0  0  0  0  0  0  0  0  0
  151.1941  133.2435  155.6338 H   0  0  0  0  0  0  0  0  0  0  0  0
  149.8683  133.5534  156.7039 H   0  0  0  0  0  0  0  0  0  0  0  0
  147.8664  135.1408  154.9547 H   0  0  0  0  0  0  0  0  0  0  0  0
  149.2785  135.6642  154.0592 H   0  0  0  0  0  0  0  0  0  0  0  0
  148.1594  135.3731  152.3598 H   0  0  0  0  0  0  0  0  0  0  0  0
  149.5098  132.9752  152.4648 H   0  0  0  0  0  0  0  0  0  0  0  0
  150.9518  133.6870  153.1283 H   0  0  0  0  0  0  0  0  0  0  0  0
  151.1670  131.2294  152.6830 H   0  0  0  0  0  0  0  0  0  0  0  0
  151.4255  131.5591  154.3777 H   0  0  0  0  0  0  0  0  0  0  0  0
  148.1538  130.3050  155.2873 H   0  0  0  0  0  0  0  0  0  0  0  0
  149.6130  131.0088  155.9399 H   0  0  0  0  0  0  0  0  0  0  0  0
  147.7436  132.7088  155.8563 H   0  0  0  0  0  0  0  0  0  0  0  0
  147.5208  132.3646  154.1705 H   0  0  0  0  0  0  0  0  0  0  0  0
  1  2  3  0  0  0  0
  2  3  1  0  0  0  0
  3  4  1  0  0  0  0
  3 30  1  0  0  0  0
  3 31  1  0  0  0  0
  4  5  1  0  0  0  0
  4 32  1  0  0  0  0
  4 33  1  0  0  0  0
  5  6  1  0  0  0  0
  5 12  1  0  0  0  0
  6  7  1  0  0  0  0
  6 34  1  0  0  0  0
  6 35  1  0  0  0  0
  7 11  1  0  0  0  0
  7  8  1  0  0  0  0
  7 36  1  0  0  0  0
  8  9  1  0  0  0  0
  8 37  1  0  0  0  0
  8 38  1  0  0  0  0
  9 10  1  0  0  0  0
  9 39  1  0  0  0  0
  9 40  1  0  0  0  0
 10 11  1  0  0  0  0
 11 41  1  0  0  0  0
 11 42  1  0  0  0  0
 12 17  1  0  0  0  0
 12 13  2  0  0  0  0
 13 14  1  0  0  0  0
 14 15  2  0  0  0  0
 14 43  1  0  0  0  0
 15 16  1  0  0  0  0
 16 20  1  0  0  0  0
 16 17  2  0  0  0  0
 17 18  1  0  0  0  0
 18 19  2  0  0  0  0
 19 20  1  0  0  0  0
 19 44  1  0  0  0  0
 20 21  1  0  0  0  0
 21 22  1  0  0  0  0
 21 45  1  0  0  0  0
 21 46  1  0  0  0  0
 22 29  1  0  0  0  0
 22 23  1  0  0  0  0
 22 25  1  0  0  0  0
 23 24  1  0  0  0  0
 23 47  1  0  0  0  0
 23 48  1  0  0  0  0
 24 49  1  0  0  0  0
 25 26  1  0  0  0  0
 25 50  1  0  0  0  0
 25 51  1  0  0  0  0
 26 27  1  0  0  0  0
 26 52  1  0  0  0  0
 26 53  1  0  0  0  0
 27 28  1  0  0  0  0
 28 29  1  0  0  0  0
 28 54  1  0  0  0  0
 28 55  1  0  0  0  0
 29 56  1  0  0  0  0
 29 57  1  0  0  0  0
M  END
> <s_m_source_file>
AV-unprocessed.smi

> <i_m_source_file_index>
14

> <i_lp_mmshare_version>
43012

> <i_f3d_flags>
0

> <s_epik_input>
W0NIMl0xT1tDSDJdW0NIMl1bQ0BIXTFbQ0gyXU4oW0NIMl1bQ0gyXUMjTiljKG5bY0hdbjIpYyhjMjMpbltjSF1uM1tDSDJdQzQoW0NIMl1bT0hdKVtDSDJdW0NIMl1PW0NIMl1bQ0gyXTQ=

> <s_epik_cmdline>
J2VwaWtfcHl0aG9uJywgJy1waCcsICc3LjAnLCAnLXRuJywgJzgnLCAnLW1hJywgJzIwMCcsICctbWV0YWxfYmluZGluZycsICctaW1hZScsICc8aW5maWxlLm1hZT4nLCAnLW9tYWUnLCAnPG91dGZpbGUubWFlPic=

> <r_lp_tautomer_probability>
1

> <r_epik_Ionization_Penalty>
0.000542547

> <r_epik_Ionization_Penalty_Charging>
0

> <r_epik_Ionization_Penalty_Neutral>
0.000542547

> <r_epik_State_Penalty>
0.000265709

> <r_epik_Charging_Adjusted_Penalty>
0.000265709

> <i_epik_Tot_Q>
0

> <i_epik_Tot_abs_Q>
0

> <r_epik_Metal_State_Penalty>
-0

> <b_epik_Metal_Only>
0

> <s_lp_Force_Field>
OPLS_2005

> <r_lp_Energy>
43.0361

> <b_lp_Chiralities_Consistent>
1

> <s_lp_Variant>
AV-unprocessed.smi:14-2

> <Gold.Version>
5.8.1

> <Gold.Id.Protein>
6NUR|6NUR_protein|mol2

> <Gold.PLP.Fitness>
47.3464

> <Gold.PLP.PLP>
-41.4170

> <Gold.PLP.part.hbond>
-4.0728

> <Gold.PLP.part.metal>
0.0000

> <Gold.PLP.part.buried>
-4.8506

> <Gold.PLP.part.nonpolar>
-31.2999

> <Gold.PLP.part.repulsive>
0.3378

> <Gold.PLP.ligand.clash>
0.0000

> <Gold.PLP.ligand.torsion>
1.9760

> <Gold.PLP.Chemscore.Hbond>
2.6313

> <Gold.PLP.Chemscore.CHOScore>
0.3016

> <Gold.PLP.Chemscore.Metal>
0.0000

> <Gold.Chemscore.Hbonds>
donor molecule, donor type, donor heavy atom, donor atom, acceptor molecule, acceptor atom, score
      L1  H    24    49       P1  7948  0.28
      P1  H  6896  6907       L1    15  0.58
      P1  H  8011  8017       L1     1  0.69
      L1  C    19    44       P1  7949  1.00

> <Gold.PLP.Chemscore.Internal.Correction>
1.0831

> <Gold.Rescore>
     Score         DG    S(hbond)    S(metal)    S(lipo)     H(rot)  DE(clash)    DE(int)     intcor
     10.36     -12.97       1.85        0.00      82.31       3.26       0.07       2.54       ----

> <Gold.Chemscore.Fitness>
10.3592

> <Gold.Chemscore.DG>
-12.9652

> <Gold.Chemscore.ZeroCoef>
-5.4800

> <Gold.Chemscore.Hbond>
1.8529

> <Gold.Chemscore.Metal>
0.0000

> <Gold.Chemscore.Lipo>
82.3069

> <Gold.Chemscore.Internal_Hbond>
0.0000

> <Gold.Chemscore.DEClash>
0.0663

> <Gold.Chemscore.DEInternal>
2.5397

> <Gold.Chemscore.Rot>
3.2553

> <Gold.Chemscore.Internal.Correction>
   9.000000E+99

> <Gold.Chemscore.Hbonds>
donor molecule, donor type, donor heavy atom, donor atom, acceptor molecule, acceptor atom, score
      L1  H    24    49       P1  7948  0.26
      P1  H  6896  6907       L1    15  0.05
      P1  H  8011  8017       L1     1  0.68

> <Gold.Chemscore.Hbond.Weighted>
-6.1888

> <Gold.Chemscore.Metal.Weighted>
-0.0000

> <Gold.Chemscore.Lipo.Weighted>
-9.6299

> <Gold.Chemscore.Internal_Hbond.Weighted>
0.0000

> <Gold.Chemscore.DEClash.Weighted>
0.0663

> <Gold.Chemscore.DEInternal.Weighted>
2.5397

> <Gold.Chemscore.Rot.Weighted>
8.3336

> <Gold.Chemscore.Internal.Correction.Weighted>
   9.000000E+99

> <Gold.Protein.RotatedTorsions>
[ 6907 6896 6895 6894 ] final  -69.01 input  -60.11 | X-H torsion
[ 7974 7965 7964 7962 ] final   71.78 input  175.53 | X-H torsion
[ 8008 7997 7996 7995 ] final  -17.22 input   59.86 | X-H torsion
[ 10167 10162 10161 10158 ] final  172.63 input  -65.29 | X-H torsion
[ 10718 10713 10712 10709 ] final  -16.03 input   66.30 | X-H torsion
[ 10763 10752 10751 10750 ] final   14.33 input  -60.55 | X-H torsion
[ 11005 11000 10999 10996 ] final    2.47 input  -57.11 | X-H torsion

> <Gold.Protein.ActiveResidues>
 VAL166  LYS551  ARG553  GLY616  TRP617  ASP618  TYR619  PRO620  LYS621  CYS622 
 ASP623  PHE694  ASN695  SER759  ASP760  ASP761  ALA762  ILE779  LEU786  VAL792 
 PHE793  MET794  SER795  GLU796  ALA797  LYS798  CYS799  TRP800  GLU811  SER814 

> <Gold.Protein.RotatedAtoms>
  150.7327  134.5657  159.5864 H   0  0  0  0  0  0  0  0  0  0  0  0  # atno 6907 bound_to 6896
  152.3109  134.7495  160.0345 H   0  0  0  0  0  0  0  0  0  0  0  0  # atno 6908 bound_to 6896
  151.8044  133.3338  159.3573 H   0  0  0  0  0  0  0  0  0  0  0  0  # atno 6909 bound_to 6896
  145.7615  139.2803  143.1373 H   0  0  0  0  0  0  0  0  0  0  0  0  # atno 7974 bound_to 7965
  154.4994  140.2148  155.9378 H   0  0  0  0  0  0  0  0  0  0  0  0  # atno 8008 bound_to 7997
  156.1414  140.3179  155.8469 H   0  0  0  0  0  0  0  0  0  0  0  0  # atno 8009 bound_to 7997
  155.4113  140.0490  157.3022 H   0  0  0  0  0  0  0  0  0  0  0  0  # atno 8010 bound_to 7997
  139.5083  144.3352  152.0073 H   0  0  0  0  0  0  0  0  0  0  0  0  # atno 10167 bound_to 10162
  156.5933  130.4804  149.6270 H   0  0  0  0  0  0  0  0  0  0  0  0  # atno 10718 bound_to 10713
  153.1633  135.6799  153.8712 H   0  0  0  0  0  0  0  0  0  0  0  0  # atno 10763 bound_to 10752
  153.8100  135.3144  155.3401 H   0  0  0  0  0  0  0  0  0  0  0  0  # atno 10764 bound_to 10752
  154.7947  135.4814  154.0224 H   0  0  0  0  0  0  0  0  0  0  0  0  # atno 10765 bound_to 10752
  140.6040  133.9810  155.8145 H   0  0  0  0  0  0  0  0  0  0  0  0  # atno 11005 bound_to 11000
  146.0259  140.8304  142.9900 LP  0  0  0  0  0  0  0  0  0  0  0  0  # atno 17320 bound_to 7965
  144.6829  140.2697  143.7307 LP  0  0  0  0  0  0  0  0  0  0  0  0  # atno 17321 bound_to 7965
  140.2791  144.3880  150.6125 LP  0  0  0  0  0  0  0  0  0  0  0  0  # atno 17342 bound_to 10162
  140.6032  143.2167  151.7032 LP  0  0  0  0  0  0  0  0  0  0  0  0  # atno 17343 bound_to 10162
  156.2531  130.6919  151.1663 LP  0  0  0  0  0  0  0  0  0  0  0  0  # atno 17370 bound_to 10713
  157.7298  131.0621  150.5756 LP  0  0  0  0  0  0  0  0  0  0  0  0  # atno 17371 bound_to 10713
  141.0853  134.0000  157.3323 LP  0  0  0  0  0  0  0  0  0  0  0  0  # atno 17394 bound_to 11000
  139.9220  135.0201  156.8099 LP  0  0  0  0  0  0  0  0  0  0  0  0  # atno 17395 bound_to 11000

$$$$
