AV-unprocessed.smi:72|AV-procd|sdf|719|dock3
  -GOLD-   2262017 43D 1   1.00000     0.00000
 Structure written by MMmdl.
 28 29  0  0  0  0  0  0  0  0  2 V2000
  154.1969  137.8630  155.0127 N   0  0  0  0  0  0  0  0  0  0  0  0
  152.9916  138.2302  155.0533 C   0  0  0  0  0  0  0  0  0  0  0  0
  151.9520  137.3690  154.5322 N   0  0  0  0  0  0  0  0  0  0  0  0
  150.7252  137.7841  154.6160 C   0  0  0  0  0  0  0  0  0  0  0  0
  150.3880  139.0646  155.2225 N   0  0  0  0  0  0  0  0  0  0  0  0
  148.9499  139.5353  155.3086 C   0  0  2  0  0  0  0  0  0  0  0  0
  148.1016  138.4469  155.1132 O   0  0  0  0  0  0  0  0  0  0  0  0
  146.9011  138.9108  154.5155 C   0  0  2  0  0  0  0  0  0  0  0  0
  146.1641  137.7414  153.8445 C   0  0  0  0  0  0  0  0  0  0  0  0
  146.8810  136.5400  154.0328 O   0  0  0  0  0  0  0  0  0  0  0  0
  147.4085  139.9631  153.5239 C   0  0  1  0  0  0  0  0  0  0  0  0
  146.4022  140.9205  153.2613 O   0  0  0  0  0  0  0  0  0  0  0  0
  148.5844  140.6055  154.2545 C   0  0  2  0  0  0  0  0  0  0  0  0
  149.6229  140.9149  153.3423 O   0  0  0  0  0  0  0  0  0  0  0  0
  151.4307  139.9046  155.6944 C   0  0  0  0  0  0  0  0  0  0  0  0
  151.1272  141.0048  156.1560 O   0  0  0  0  0  0  0  0  0  0  0  0
  152.7167  139.4637  155.6020 N   0  5  0  0  0  0  0  0  0  0  0  0
  148.7961  139.8837  156.3313 H   0  0  0  0  0  0  0  0  0  0  0  0
  146.2818  139.3863  155.2797 H   0  0  0  0  0  0  0  0  0  0  0  0
  147.7368  139.4836  152.5998 H   0  0  0  0  0  0  0  0  0  0  0  0
  148.2873  141.5086  154.7900 H   0  0  0  0  0  0  0  0  0  0  0  0
  154.3058  136.9497  154.5960 H   0  0  0  0  0  0  0  0  0  0  0  0
  149.8786  137.2107  154.2366 H   0  0  0  0  0  0  0  0  0  0  0  0
  145.1818  137.6083  154.2984 H   0  0  0  0  0  0  0  0  0  0  0  0
  146.0067  137.9293  152.7819 H   0  0  0  0  0  0  0  0  0  0  0  0
  147.3540  136.3448  153.2385 H   0  0  0  0  0  0  0  0  0  0  0  0
  145.6094  140.4605  153.0301 H   0  0  0  0  0  0  0  0  0  0  0  0
  149.6554  140.2341  152.6867 H   0  0  0  0  0  0  0  0  0  0  0  0
  1  2  2  0  0  0  0
  1 22  1  0  0  0  0
  2 17  1  0  0  0  0
  2  3  1  0  0  0  0
  3  4  2  0  0  0  0
  4  5  1  0  0  0  0
  4 23  1  0  0  0  0
  5  6  1  0  0  0  0
  5 15  1  0  0  0  0
  6 18  1  0  0  0  0
  6 13  1  0  0  0  0
  6  7  1  0  0  0  0
  7  8  1  0  0  0  0
  8 19  1  0  0  0  0
  8  9  1  0  0  0  0
  8 11  1  0  0  0  0
  9 10  1  0  0  0  0
  9 24  1  0  0  0  0
  9 25  1  0  0  0  0
 10 26  1  0  0  0  0
 11 20  1  0  0  0  0
 11 12  1  0  0  0  0
 11 13  1  0  0  0  0
 12 27  1  0  0  0  0
 13 21  1  0  0  0  0
 13 14  1  0  0  0  0
 14 28  1  0  0  0  0
 15 16  2  0  0  0  0
 15 17  1  0  0  0  0
M  CHG  1  17  -1
M  END
> <s_m_source_file>
AV-unprocessed.smi

> <i_m_source_file_index>
72

> <i_lp_mmshare_version>
43012

> <i_f3d_flags>
0

> <s_epik_input>
W05IMl1jMW5bY0hdbihjKD1PKW4xKVtDQEBIXTJPW0NASF0oW0NIMl1bT0hdKVtDQEBIXShbT0hdKVtDQEhdMltPSF0=

> <s_epik_cmdline>
J2VwaWtfcHl0aG9uJywgJy1waCcsICc3LjAnLCAnLXRuJywgJzgnLCAnLW1hJywgJzIwMCcsICctbWV0YWxfYmluZGluZycsICctaW1hZScsICc8aW5maWxlLm1hZT4nLCAnLW9tYWUnLCAnPG91dGZpbGUubWFlPic=

> <r_lp_tautomer_probability>
7.17554e-07

> <r_epik_Ionization_Penalty>
12.8705

> <r_epik_Ionization_Penalty_Charging>
5.64144

> <r_epik_Ionization_Penalty_Neutral>
7.22905

> <r_epik_State_Penalty>
3.30104

> <r_epik_Charging_Adjusted_Penalty>
8.94249

> <i_epik_Tot_Q>
-1

> <i_epik_Tot_abs_Q>
1

> <r_epik_Metal_State_Penalty>
0.529074

> <b_epik_Metal_Only>
1

> <s_epik_Chemistry_Notes>
This compound contains an acetal/aminal-like group ( X-CH(R)-Y where X, Y are N, S, or O) that may be acid/base labile, releasing an aldehyde.

> <s_lp_Force_Field>
OPLS_2005

> <r_lp_Energy>
37.3643

> <b_lp_Chiralities_Consistent>
1

> <s_lp_Variant>
AV-unprocessed.smi:72-57

> <Gold.Version>
5.8.1

> <Gold.Id.Protein>
6NUR|6NUR_protein|mol2

> <Gold.PLP.Fitness>
49.4564

> <Gold.PLP.PLP>
-28.7289

> <Gold.PLP.part.hbond>
-8.4776

> <Gold.PLP.part.metal>
0.0000

> <Gold.PLP.part.buried>
-4.6334

> <Gold.PLP.part.nonpolar>
-17.2300

> <Gold.PLP.part.repulsive>
0.2833

> <Gold.PLP.ligand.clash>
0.0000

> <Gold.PLP.ligand.torsion>
1.1603

> <Gold.PLP.Chemscore.Hbond>
6.5872

> <Gold.PLP.Chemscore.CHOScore>
0.9897

> <Gold.PLP.Chemscore.Metal>
0.0000

> <Gold.Chemscore.Hbonds>
donor molecule, donor type, donor heavy atom, donor atom, acceptor molecule, acceptor atom, score
      L1  H    10    26       P1  7948  0.80
      L1  H    12    27       P1 10175  0.99
      L1  H    14    28       P1  7957  0.82
      P1  H  7989  7998       L1    14  0.12
      P1  H  7997  8010       L1    17  2.00
      P1  H  8011  8017       L1    14  1.00
      P1  H 10752 10764       L1     3  0.91
      L1  C     4    23       P1  7948  0.58

> <Gold.PLP.Chemscore.Internal.Correction>
0.3172

> <Gold.Rescore>
     Score         DG    S(hbond)    S(metal)    S(lipo)     H(rot)  DE(clash)    DE(int)     intcor
      8.61     -10.04       3.84        0.00      17.89       4.04       0.27       1.16       ----

> <Gold.Chemscore.Fitness>
8.6147

> <Gold.Chemscore.DG>
-10.0405

> <Gold.Chemscore.ZeroCoef>
-5.4800

> <Gold.Chemscore.Hbond>
3.8355

> <Gold.Chemscore.Metal>
0.0000

> <Gold.Chemscore.Lipo>
17.8895

> <Gold.Chemscore.Internal_Hbond>
0.0000

> <Gold.Chemscore.DEClash>
0.2671

> <Gold.Chemscore.DEInternal>
1.1588

> <Gold.Chemscore.Rot>
4.0403

> <Gold.Chemscore.Internal.Correction>
   9.000000E+99

> <Gold.Chemscore.Hbonds>
donor molecule, donor type, donor heavy atom, donor atom, acceptor molecule, acceptor atom, score
      L1  H    10    26       P1  7948  0.78
      L1  H    12    27       P1 10175  0.80
      L1  H    14    28       P1  7957  0.76
      P1  H  7989  7998       L1    14  0.01
      P1  H  7997  8010       L1    17  0.55
      P1  H  8011  8017       L1    14  0.30
      P1  H 10752 10764       L1     3  0.26

> <Gold.Chemscore.Hbond.Weighted>
-12.8105

> <Gold.Chemscore.Metal.Weighted>
-0.0000

> <Gold.Chemscore.Lipo.Weighted>
-2.0931

> <Gold.Chemscore.Internal_Hbond.Weighted>
0.0000

> <Gold.Chemscore.DEClash.Weighted>
0.2671

> <Gold.Chemscore.DEInternal.Weighted>
1.1588

> <Gold.Chemscore.Rot.Weighted>
10.3431

> <Gold.Chemscore.Internal.Correction.Weighted>
   9.000000E+99

> <Gold.Protein.RotatedTorsions>
[ 6907 6896 6895 6894 ] final  -84.23 input  -60.11 | X-H torsion
[ 7974 7965 7964 7962 ] final  133.57 input  175.53 | X-H torsion
[ 8008 7997 7996 7995 ] final   86.57 input   59.86 | X-H torsion
[ 10167 10162 10161 10158 ] final  122.29 input  -65.29 | X-H torsion
[ 10718 10713 10712 10709 ] final  -29.44 input   66.30 | X-H torsion
[ 10763 10752 10751 10750 ] final  -80.69 input  -60.55 | X-H torsion
[ 11005 11000 10999 10996 ] final   -1.29 input  -57.11 | X-H torsion

> <Gold.Protein.ActiveResidues>
 VAL166  LYS551  ARG553  GLY616  TRP617  ASP618  TYR619  PRO620  LYS621  CYS622 
 ASP623  PHE694  ASN695  SER759  ASP760  ASP761  ALA762  ILE779  LEU786  VAL792 
 PHE793  MET794  SER795  GLU796  ALA797  LYS798  CYS799  TRP800  GLU811  SER814 

> <Gold.Protein.RotatedAtoms>
  150.6878  134.3390  159.4859 H   0  0  0  0  0  0  0  0  0  0  0  0  # atno 6907 bound_to 6896
  152.1245  134.9178  160.0571 H   0  0  0  0  0  0  0  0  0  0  0  0  # atno 6908 bound_to 6896
  152.0371  133.3927  159.4358 H   0  0  0  0  0  0  0  0  0  0  0  0  # atno 6909 bound_to 6896
  144.9852  139.4463  143.5367 H   0  0  0  0  0  0  0  0  0  0  0  0  # atno 7974 bound_to 7965
  155.9644  140.3391  155.6519 H   0  0  0  0  0  0  0  0  0  0  0  0  # atno 8008 bound_to 7997
  155.6756  140.0732  157.2522 H   0  0  0  0  0  0  0  0  0  0  0  0  # atno 8009 bound_to 7997
  154.4151  140.1683  156.1914 H   0  0  0  0  0  0  0  0  0  0  0  0  # atno 8010 bound_to 7997
  139.5868  144.7009  151.3390 H   0  0  0  0  0  0  0  0  0  0  0  0  # atno 10167 bound_to 10162
  156.4124  130.4410  149.7243 H   0  0  0  0  0  0  0  0  0  0  0  0  # atno 10718 bound_to 10713
  154.5544  135.5652  153.6950 H   0  0  0  0  0  0  0  0  0  0  0  0  # atno 10763 bound_to 10752
  152.9999  135.6258  154.2330 H   0  0  0  0  0  0  0  0  0  0  0  0  # atno 10764 bound_to 10752
  154.2266  135.2867  155.2885 H   0  0  0  0  0  0  0  0  0  0  0  0  # atno 10765 bound_to 10752
  140.6457  133.9449  155.8351 H   0  0  0  0  0  0  0  0  0  0  0  0  # atno 11005 bound_to 11000
  146.3418  139.9149  142.8775 LP  0  0  0  0  0  0  0  0  0  0  0  0  # atno 17320 bound_to 7965
  145.2364  140.9993  143.3961 LP  0  0  0  0  0  0  0  0  0  0  0  0  # atno 17321 bound_to 7965
  140.7138  143.7321  150.7616 LP  0  0  0  0  0  0  0  0  0  0  0  0  # atno 17342 bound_to 10162
  140.0867  143.4917  152.2501 LP  0  0  0  0  0  0  0  0  0  0  0  0  # atno 17343 bound_to 10162
  156.4216  130.7771  151.2789 LP  0  0  0  0  0  0  0  0  0  0  0  0  # atno 17370 bound_to 10713
  157.7507  131.0181  150.3612 LP  0  0  0  0  0  0  0  0  0  0  0  0  # atno 17371 bound_to 10713
  141.0574  134.0396  157.3704 LP  0  0  0  0  0  0  0  0  0  0  0  0  # atno 17394 bound_to 11000
  139.9064  135.0180  156.7503 LP  0  0  0  0  0  0  0  0  0  0  0  0  # atno 17395 bound_to 11000

$$$$
