AV-unprocessed.smi:275|AV-procd|sdf|2068|dock7
  -GOLD-   2262021323D 1   1.00000     0.00000
 Structure written by MMmdl.
 65 69  0  0  0  0  0  0  0  0  1 V2000
  153.2630  142.2171  160.6086 C   0  0  0  0  0  0  0  0  0  0  0  0
  152.6209  141.9542  159.2352 C   0  0  0  0  0  0  0  0  0  0  0  0
  151.3876  142.8590  159.0751 C   0  0  0  0  0  0  0  0  0  0  0  0
  152.2537  140.4734  159.0397 C   0  0  2  0  0  0  0  0  0  0  0  0
  153.3876  139.6381  158.6512 N   0  0  0  0  0  0  0  0  0  0  0  0
  154.0905  138.9995  159.7088 C   0  0  0  0  0  0  0  0  0  0  0  0
  154.4909  139.6841  160.8150 N   0  0  0  0  0  0  0  0  0  0  0  0
  155.1583  139.0696  161.7963 C   0  0  0  0  0  0  0  0  0  0  0  0
  155.5295  137.7910  161.8785 N   0  0  0  0  0  0  0  0  0  0  0  0
  155.1320  137.0953  160.7757 C   0  0  0  0  0  0  0  0  0  0  0  0
  154.4169  137.6180  159.6620 C   0  0  0  0  0  0  0  0  0  0  0  0
  154.1921  136.6147  158.7279 N   0  0  0  0  0  0  0  0  0  0  0  0
  154.7446  135.5578  159.2581 C   0  0  0  0  0  0  0  0  0  0  0  0
  155.3374  135.7582  160.4840 N   0  0  0  0  0  0  0  0  0  0  0  0
  156.0202  134.7593  161.2877 C   0  0  0  0  0  0  0  0  0  0  0  0
  155.2050  133.4534  161.4675 C   0  0  1  0  0  0  0  0  0  0  0  0
  155.8375  132.2882  160.6627 C   0  0  0  0  0  0  0  0  0  0  0  0
  156.0171  132.6211  159.3024 O   0  0  0  0  0  0  0  0  0  0  0  0
  155.0540  133.1108  162.9760 C   0  0  1  0  0  0  0  0  0  0  0  0
  154.3247  134.1581  163.8025 C   0  0  0  0  0  0  0  0  0  0  0  0
  153.9411  133.3794  165.0552 C   0  0  0  0  0  0  0  0  0  0  0  0
  153.7147  132.0447  164.6209 O   0  0  0  0  0  0  0  0  0  0  0  0
  154.1976  131.8779  163.2916 C   0  0  0  0  0  0  0  0  0  0  0  0
  152.5082  138.7523  157.9047 C   0  0  0  0  0  0  0  0  0  0  0  0
  151.5589  139.9526  157.7574 C   0  0  0  0  0  0  0  0  0  0  0  0
  150.0599  139.6433  157.8967 C   0  0  0  0  0  0  0  0  0  0  0  0
  149.4966  138.8770  156.6882 C   0  0  0  0  0  0  0  0  0  0  0  0
  149.7275  139.6492  155.3825 C   0  0  0  0  0  0  0  0  0  0  0  0
  151.2046  140.0284  155.2148 C   0  0  0  0  0  0  0  0  0  0  0  0
  151.7332  140.7680  156.4557 C   0  0  0  0  0  0  0  0  0  0  0  0
  152.6140  141.8865  161.4202 H   0  0  0  0  0  0  0  0  0  0  0  0
  153.4613  143.2794  160.7530 H   0  0  0  0  0  0  0  0  0  0  0  0
  154.2164  141.7000  160.7111 H   0  0  0  0  0  0  0  0  0  0  0  0
  153.3435  142.2511  158.4743 H   0  0  0  0  0  0  0  0  0  0  0  0
  150.6313  142.6276  159.8258 H   0  0  0  0  0  0  0  0  0  0  0  0
  150.9210  142.7484  158.0979 H   0  0  0  0  0  0  0  0  0  0  0  0
  151.6543  143.9103  159.1872 H   0  0  0  0  0  0  0  0  0  0  0  0
  151.7443  140.0671  159.9157 H   0  0  0  0  0  0  0  0  0  0  0  0
  155.4354  139.6925  162.6339 H   0  0  0  0  0  0  0  0  0  0  0  0
  154.7393  134.5967  158.7648 H   0  0  0  0  0  0  0  0  0  0  0  0
  156.9867  134.5407  160.8323 H   0  0  0  0  0  0  0  0  0  0  0  0
  156.2317  135.2220  162.2513 H   0  0  0  0  0  0  0  0  0  0  0  0
  154.2100  133.6408  161.0601 H   0  0  0  0  0  0  0  0  0  0  0  0
  156.8257  132.0294  161.0400 H   0  0  0  0  0  0  0  0  0  0  0  0
  155.2277  131.3876  160.7415 H   0  0  0  0  0  0  0  0  0  0  0  0
  156.4766  131.9127  158.8779 H   0  0  0  0  0  0  0  0  0  0  0  0
  156.0440  132.9636  163.4113 H   0  0  0  0  0  0  0  0  0  0  0  0
  154.9367  135.0298  164.0356 H   0  0  0  0  0  0  0  0  0  0  0  0
  153.4274  134.4978  163.2830 H   0  0  0  0  0  0  0  0  0  0  0  0
  154.7659  133.3774  165.7688 H   0  0  0  0  0  0  0  0  0  0  0  0
  153.0634  133.7933  165.5522 H   0  0  0  0  0  0  0  0  0  0  0  0
  153.3365  131.8230  162.6244 H   0  0  0  0  0  0  0  0  0  0  0  0
  154.7572  130.9466  163.1997 H   0  0  0  0  0  0  0  0  0  0  0  0
  152.9439  138.3928  156.9725 H   0  0  0  0  0  0  0  0  0  0  0  0
  152.0873  137.9386  158.4980 H   0  0  0  0  0  0  0  0  0  0  0  0
  149.8774  139.0593  158.7994 H   0  0  0  0  0  0  0  0  0  0  0  0
  149.4984  140.5690  158.0285 H   0  0  0  0  0  0  0  0  0  0  0  0
  149.9728  137.8978  156.6232 H   0  0  0  0  0  0  0  0  0  0  0  0
  148.4310  138.6935  156.8271 H   0  0  0  0  0  0  0  0  0  0  0  0
  149.3933  139.0558  154.5309 H   0  0  0  0  0  0  0  0  0  0  0  0
  149.1201  140.5552  155.3858 H   0  0  0  0  0  0  0  0  0  0  0  0
  151.7955  139.1286  155.0413 H   0  0  0  0  0  0  0  0  0  0  0  0
  151.3289  140.6521  154.3293 H   0  0  0  0  0  0  0  0  0  0  0  0
  151.2176  141.7246  156.5307 H   0  0  0  0  0  0  0  0  0  0  0  0
  152.7835  141.0140  156.2951 H   0  0  0  0  0  0  0  0  0  0  0  0
  1  2  1  0  0  0  0
  1 31  1  0  0  0  0
  1 32  1  0  0  0  0
  1 33  1  0  0  0  0
  2  3  1  0  0  0  0
  2  4  1  0  0  0  0
  2 34  1  0  0  0  0
  3 35  1  0  0  0  0
  3 36  1  0  0  0  0
  3 37  1  0  0  0  0
  4 25  1  0  0  0  0
  4  5  1  0  0  0  0
  4 38  1  0  0  0  0
  5  6  1  0  0  0  0
  5 24  1  0  0  0  0
  6 11  1  0  0  0  0
  6  7  2  0  0  0  0
  7  8  1  0  0  0  0
  8  9  2  0  0  0  0
  8 39  1  0  0  0  0
  9 10  1  0  0  0  0
 10 14  1  0  0  0  0
 10 11  2  0  0  0  0
 11 12  1  0  0  0  0
 12 13  2  0  0  0  0
 13 14  1  0  0  0  0
 13 40  1  0  0  0  0
 14 15  1  0  0  0  0
 15 16  1  0  0  0  0
 15 41  1  0  0  0  0
 15 42  1  0  0  0  0
 16 17  1  0  0  0  0
 16 19  1  0  0  0  0
 16 43  1  0  0  0  0
 17 18  1  0  0  0  0
 17 44  1  0  0  0  0
 17 45  1  0  0  0  0
 18 46  1  0  0  0  0
 19 23  1  0  0  0  0
 19 20  1  0  0  0  0
 19 47  1  0  0  0  0
 20 21  1  0  0  0  0
 20 48  1  0  0  0  0
 20 49  1  0  0  0  0
 21 22  1  0  0  0  0
 21 50  1  0  0  0  0
 21 51  1  0  0  0  0
 22 23  1  0  0  0  0
 23 52  1  0  0  0  0
 23 53  1  0  0  0  0
 24 25  1  0  0  0  0
 24 54  1  0  0  0  0
 24 55  1  0  0  0  0
 25 30  1  0  0  0  0
 25 26  1  0  0  0  0
 26 27  1  0  0  0  0
 26 56  1  0  0  0  0
 26 57  1  0  0  0  0
 27 28  1  0  0  0  0
 27 58  1  0  0  0  0
 27 59  1  0  0  0  0
 28 29  1  0  0  0  0
 28 60  1  0  0  0  0
 28 61  1  0  0  0  0
 29 30  1  0  0  0  0
 29 62  1  0  0  0  0
 29 63  1  0  0  0  0
 30 64  1  0  0  0  0
 30 65  1  0  0  0  0
M  END
> <s_m_source_file>
AV-unprocessed.smi

> <i_m_source_file_index>
275

> <i_lp_mmshare_version>
43012

> <i_f3d_flags>
0

> <s_epik_input>
W0NIMl0xW0NIMl1bQ0gyXVtDSDJdW0NIMl1DMTJbQ0BIXShbQ0hdKFtDSDNdKVtDSDNdKU4oW0NIMl0yKWMobltjSF1uMyljKGMzNCluW2NIXW40W0NIMl1bQ0BIXShbQ0gyXVtPSF0pW0NAQEhdNVtDSDJdW0NIMl1PW0NIMl01

> <s_epik_cmdline>
J2VwaWtfcHl0aG9uJywgJy1waCcsICc3LjAnLCAnLXRuJywgJzgnLCAnLW1hJywgJzIwMCcsICctbWV0YWxfYmluZGluZycsICctaW1hZScsICc8aW5maWxlLm1hZT4nLCAnLW9tYWUnLCAnPG91dGZpbGUubWFlPic=

> <r_lp_tautomer_probability>
1

> <r_epik_Ionization_Penalty>
0.00375122

> <r_epik_Ionization_Penalty_Charging>
0

> <r_epik_Ionization_Penalty_Neutral>
0.00375122

> <r_epik_State_Penalty>
0.00260593

> <r_epik_Charging_Adjusted_Penalty>
0.00260593

> <i_epik_Tot_Q>
0

> <i_epik_Tot_abs_Q>
0

> <r_epik_Metal_State_Penalty>
-0

> <b_epik_Metal_Only>
0

> <s_lp_Force_Field>
OPLS_2005

> <r_lp_Energy>
64.3005

> <b_lp_Chiralities_Consistent>
1

> <s_lp_Variant>
AV-unprocessed.smi:275-7

> <Gold.Version>
5.8.1

> <Gold.Id.Protein>
6NUR|6NUR_protein|mol2

> <Gold.PLP.Fitness>
38.8979

> <Gold.PLP.PLP>
-38.3796

> <Gold.PLP.part.hbond>
-1.0000

> <Gold.PLP.part.metal>
0.0000

> <Gold.PLP.part.buried>
-3.6299

> <Gold.PLP.part.nonpolar>
-32.7114

> <Gold.PLP.part.repulsive>
0.0539

> <Gold.PLP.ligand.clash>
0.0000

> <Gold.PLP.ligand.torsion>
1.5537

> <Gold.PLP.Chemscore.Hbond>
1.0000

> <Gold.PLP.Chemscore.CHOScore>
0.0000

> <Gold.PLP.Chemscore.Metal>
0.0000

> <Gold.Chemscore.Hbonds>
donor molecule, donor type, donor heavy atom, donor atom, acceptor molecule, acceptor atom, score
      P1  H  7997  8010       L1     5  0.86

> <Gold.PLP.Chemscore.Internal.Correction>
0.6256

> <Gold.Rescore>
     Score         DG    S(hbond)    S(metal)    S(lipo)     H(rot)  DE(clash)    DE(int)     intcor
      9.01     -13.39       0.39        0.00     112.07       2.54       0.06       4.31       ----

> <Gold.Chemscore.Fitness>
9.0114

> <Gold.Chemscore.DG>
-13.3886

> <Gold.Chemscore.ZeroCoef>
-5.4800

> <Gold.Chemscore.Hbond>
0.3871

> <Gold.Chemscore.Metal>
0.0000

> <Gold.Chemscore.Lipo>
112.0715

> <Gold.Chemscore.Internal_Hbond>
0.0000

> <Gold.Chemscore.DEClash>
0.0648

> <Gold.Chemscore.DEInternal>
4.3125

> <Gold.Chemscore.Rot>
2.5377

> <Gold.Chemscore.Internal.Correction>
   9.000000E+99

> <Gold.Chemscore.Hbonds>
donor molecule, donor type, donor heavy atom, donor atom, acceptor molecule, acceptor atom, score
      P1  H  7997  8010       L1     5  0.11

> <Gold.Chemscore.Hbond.Weighted>
-1.2929

> <Gold.Chemscore.Metal.Weighted>
-0.0000

> <Gold.Chemscore.Lipo.Weighted>
-13.1124

> <Gold.Chemscore.Internal_Hbond.Weighted>
0.0000

> <Gold.Chemscore.DEClash.Weighted>
0.0648

> <Gold.Chemscore.DEInternal.Weighted>
4.3125

> <Gold.Chemscore.Rot.Weighted>
6.4966

> <Gold.Chemscore.Internal.Correction.Weighted>
   9.000000E+99

> <Gold.Protein.RotatedTorsions>
[ 6907 6896 6895 6894 ] final   -1.09 input  -60.11 | X-H torsion
[ 7974 7965 7964 7962 ] final  159.88 input  175.53 | X-H torsion
[ 8008 7997 7996 7995 ] final   12.83 input   59.86 | X-H torsion
[ 10167 10162 10161 10158 ] final  -45.26 input  -65.29 | X-H torsion
[ 10718 10713 10712 10709 ] final -108.08 input   66.30 | X-H torsion
[ 10763 10752 10751 10750 ] final   45.30 input  -60.55 | X-H torsion
[ 11005 11000 10999 10996 ] final   55.46 input  -57.11 | X-H torsion

> <Gold.Protein.ActiveResidues>
 VAL166  LYS551  ARG553  GLY616  TRP617  ASP618  TYR619  PRO620  LYS621  CYS622 
 ASP623  PHE694  ASN695  SER759  ASP760  ASP761  ALA762  ILE779  LEU786  VAL792 
 PHE793  MET794  SER795  GLU796  ALA797  LYS798  CYS799  TRP800  GLU811  SER814 

> <Gold.Protein.RotatedAtoms>
  151.5517  135.1067  159.9951 H   0  0  0  0  0  0  0  0  0  0  0  0  # atno 6907 bound_to 6896
  152.4488  133.7584  159.6744 H   0  0  0  0  0  0  0  0  0  0  0  0  # atno 6908 bound_to 6896
  150.8411  133.7868  159.3085 H   0  0  0  0  0  0  0  0  0  0  0  0  # atno 6909 bound_to 6896
  144.7766  139.7680  143.6276 H   0  0  0  0  0  0  0  0  0  0  0  0  # atno 7974 bound_to 7965
  154.8261  140.2892  155.5754 H   0  0  0  0  0  0  0  0  0  0  0  0  # atno 8008 bound_to 7997
  156.3002  140.2541  156.3108 H   0  0  0  0  0  0  0  0  0  0  0  0  # atno 8009 bound_to 7997
  154.9284  140.0384  157.2024 H   0  0  0  0  0  0  0  0  0  0  0  0  # atno 8010 bound_to 7997
  140.6865  143.2888  151.3613 H   0  0  0  0  0  0  0  0  0  0  0  0  # atno 10167 bound_to 10162
  156.0468  130.5695  150.7911 H   0  0  0  0  0  0  0  0  0  0  0  0  # atno 10718 bound_to 10713
  152.9827  135.6044  154.3414 H   0  0  0  0  0  0  0  0  0  0  0  0  # atno 10763 bound_to 10752
  154.3111  135.2771  155.2567 H   0  0  0  0  0  0  0  0  0  0  0  0  # atno 10764 bound_to 10752
  154.4776  135.5925  153.6422 H   0  0  0  0  0  0  0  0  0  0  0  0  # atno 10765 bound_to 10752
  140.0605  134.5609  155.9157 H   0  0  0  0  0  0  0  0  0  0  0  0  # atno 11005 bound_to 11000
  146.1949  139.5210  142.9781 LP  0  0  0  0  0  0  0  0  0  0  0  0  # atno 17320 bound_to 7965
  145.6168  141.0330  143.1936 LP  0  0  0  0  0  0  0  0  0  0  0  0  # atno 17321 bound_to 7965
  139.6228  144.0873  152.2407 LP  0  0  0  0  0  0  0  0  0  0  0  0  # atno 17342 bound_to 10162
  140.0323  144.6071  150.7478 LP  0  0  0  0  0  0  0  0  0  0  0  0  # atno 17343 bound_to 10162
  157.5352  131.0938  150.9902 LP  0  0  0  0  0  0  0  0  0  0  0  0  # atno 17370 bound_to 10713
  157.0199  130.5669  149.5330 LP  0  0  0  0  0  0  0  0  0  0  0  0  # atno 17371 bound_to 10713
  141.1971  133.6595  156.5724 LP  0  0  0  0  0  0  0  0  0  0  0  0  # atno 17394 bound_to 11000
  140.3777  134.7550  157.4641 LP  0  0  0  0  0  0  0  0  0  0  0  0  # atno 17395 bound_to 11000

$$$$
