AV-unprocessed.smi:544|AV-procd|sdf|2877|dock10
  -GOLD-   2262023373D 1   1.00000     0.00000
 Structure written by MMmdl.
 49 51  0  0  0  0  0  0  0  0  1 V2000
  150.8927  137.3124  154.4930 C   0  0  0  0  0  0  0  0  0  0  0  0
  152.0850  138.1979  154.8610 C   0  0  0  0  0  0  0  0  0  0  0  0
  151.6938  139.5540  154.7453 O   0  0  0  0  0  0  0  0  0  0  0  0
  150.6358  139.9039  155.6198 C   0  0  0  0  0  0  0  0  0  0  0  0
  150.0614  141.2706  155.2171 C   0  0  0  0  0  0  0  0  0  0  0  0
  148.9660  141.6954  156.0846 N   0  0  0  0  0  0  0  0  0  0  0  0
  149.0359  142.2371  157.3282 C   0  0  0  0  0  0  0  0  0  0  0  0
  150.2602  142.4584  157.9490 N   0  0  0  0  0  0  0  0  0  0  0  0
  151.3005  141.4467  158.1066 C   0  0  0  0  0  0  0  0  0  0  0  0
  151.8289  141.4057  159.5498 C   0  0  0  0  0  0  0  0  0  0  0  0
  152.3637  142.7835  159.9647 C   0  0  0  0  0  0  0  0  0  0  0  0
  151.3001  143.8679  159.7144 C   0  0  1  0  0  0  0  0  0  0  0  0
  151.8357  145.2693  160.0368 C   0  0  0  0  0  0  0  0  0  0  0  0
  150.7878  143.7832  158.2620 C   0  0  0  0  0  0  0  0  0  0  0  0
  147.8571  142.5115  157.8919 N   0  0  0  0  0  0  0  0  0  0  0  0
  146.9526  142.1144  156.9173 C   0  0  0  0  0  0  0  0  0  0  0  0
  147.5974  141.6162  155.8313 C   0  0  0  0  0  0  0  0  0  0  0  0
  146.8840  141.1018  154.6563 C   0  0  0  0  0  0  0  0  0  0  0  0
  147.4509  140.6436  153.6667 O   0  0  0  0  0  0  0  0  0  0  0  0
  145.5363  141.1776  154.7789 N   0  0  0  0  0  0  0  0  0  0  0  0
  144.8240  141.6630  155.8415 C   0  0  0  0  0  0  0  0  0  0  0  0
  143.5935  141.6520  155.8123 O   0  0  0  0  0  0  0  0  0  0  0  0
  145.5289  142.1471  156.9144 N   0  0  0  0  0  0  0  0  0  0  0  0
  144.8231  142.6817  158.0804 C   0  0  0  0  0  0  0  0  0  0  0  0
  144.9962  140.8317  153.9994 H   0  0  0  0  0  0  0  0  0  0  0  0
  151.1526  136.2567  154.5700 H   0  0  0  0  0  0  0  0  0  0  0  0
  150.5643  137.5038  153.4711 H   0  0  0  0  0  0  0  0  0  0  0  0
  150.0482  137.4991  155.1568 H   0  0  0  0  0  0  0  0  0  0  0  0
  152.4085  137.9837  155.8804 H   0  0  0  0  0  0  0  0  0  0  0  0
  152.9236  137.9897  154.1952 H   0  0  0  0  0  0  0  0  0  0  0  0
  149.8597  139.1388  155.5815 H   0  0  0  0  0  0  0  0  0  0  0  0
  150.9985  139.9472  156.6477 H   0  0  0  0  0  0  0  0  0  0  0  0
  150.8416  142.0311  155.2388 H   0  0  0  0  0  0  0  0  0  0  0  0
  149.7147  141.2342  154.1852 H   0  0  0  0  0  0  0  0  0  0  0  0
  150.9085  140.4709  157.8206 H   0  0  0  0  0  0  0  0  0  0  0  0
  152.1153  141.6639  157.4148 H   0  0  0  0  0  0  0  0  0  0  0  0
  151.0303  141.1008  160.2270 H   0  0  0  0  0  0  0  0  0  0  0  0
  152.6146  140.6551  159.6394 H   0  0  0  0  0  0  0  0  0  0  0  0
  152.6566  142.7709  161.0150 H   0  0  0  0  0  0  0  0  0  0  0  0
  153.2640  143.0097  159.3913 H   0  0  0  0  0  0  0  0  0  0  0  0
  150.4585  143.6761  160.3813 H   0  0  0  0  0  0  0  0  0  0  0  0
  152.6815  145.5265  159.3983 H   0  0  0  0  0  0  0  0  0  0  0  0
  152.1676  145.3342  161.0734 H   0  0  0  0  0  0  0  0  0  0  0  0
  151.0652  146.0263  159.8889 H   0  0  0  0  0  0  0  0  0  0  0  0
  151.5879  144.0230  157.5606 H   0  0  0  0  0  0  0  0  0  0  0  0
  150.0030  144.5240  158.1031 H   0  0  0  0  0  0  0  0  0  0  0  0
  144.0187  143.3556  157.7820 H   0  0  0  0  0  0  0  0  0  0  0  0
  145.4818  143.2486  158.7378 H   0  0  0  0  0  0  0  0  0  0  0  0
  144.3890  141.8690  158.6634 H   0  0  0  0  0  0  0  0  0  0  0  0
  1  2  1  0  0  0  0
  1 26  1  0  0  0  0
  1 27  1  0  0  0  0
  1 28  1  0  0  0  0
  2  3  1  0  0  0  0
  2 29  1  0  0  0  0
  2 30  1  0  0  0  0
  3  4  1  0  0  0  0
  4  5  1  0  0  0  0
  4 31  1  0  0  0  0
  4 32  1  0  0  0  0
  5  6  1  0  0  0  0
  5 33  1  0  0  0  0
  5 34  1  0  0  0  0
  6 17  1  0  0  0  0
  6  7  1  0  0  0  0
  7  8  1  0  0  0  0
  7 15  2  0  0  0  0
  8 14  1  0  0  0  0
  8  9  1  0  0  0  0
  9 10  1  0  0  0  0
  9 35  1  0  0  0  0
  9 36  1  0  0  0  0
 10 11  1  0  0  0  0
 10 37  1  0  0  0  0
 10 38  1  0  0  0  0
 11 12  1  0  0  0  0
 11 39  1  0  0  0  0
 11 40  1  0  0  0  0
 12 13  1  0  0  0  0
 12 14  1  0  0  0  0
 12 41  1  0  0  0  0
 13 42  1  0  0  0  0
 13 43  1  0  0  0  0
 13 44  1  0  0  0  0
 14 45  1  0  0  0  0
 14 46  1  0  0  0  0
 15 16  1  0  0  0  0
 16 23  1  0  0  0  0
 16 17  2  0  0  0  0
 17 18  1  0  0  0  0
 18 19  2  0  0  0  0
 18 20  1  0  0  0  0
 20 25  1  0  0  0  0
 20 21  1  0  0  0  0
 21 22  2  0  0  0  0
 21 23  1  0  0  0  0
 23 24  1  0  0  0  0
 24 47  1  0  0  0  0
 24 48  1  0  0  0  0
 24 49  1  0  0  0  0
M  END
> <s_m_source_file>
AV-unprocessed.smi

> <i_m_source_file_index>
544

> <i_lp_mmshare_version>
43012

> <i_f3d_flags>
0

> <s_epik_input>
W0NIM11uMWMoPU8pW25IXWMoPU8pYyhjMTIpbihbQ0gyXVtDSDJdT1tDSDJdW0NIM10pYyhuMilOM1tDSDJdW0NIMl1bQ0gyXVtDQEBIXShbQ0gzXSlbQ0gyXTM=

> <s_epik_cmdline>
J2VwaWtfcHl0aG9uJywgJy1waCcsICc3LjAnLCAnLXRuJywgJzgnLCAnLW1hJywgJzIwMCcsICctbWV0YWxfYmluZGluZycsICctaW1hZScsICc8aW5maWxlLm1hZT4nLCAnLW9tYWUnLCAnPG91dGZpbGUubWFlPic=

> <r_lp_tautomer_probability>
1

> <r_epik_Ionization_Penalty>
0.000382477

> <r_epik_Ionization_Penalty_Charging>
0.000119472

> <r_epik_Ionization_Penalty_Neutral>
0.000263005

> <r_epik_State_Penalty>
-0

> <r_epik_Charging_Adjusted_Penalty>
0.000119472

> <i_epik_Tot_Q>
0

> <i_epik_Tot_abs_Q>
0

> <r_epik_Metal_State_Penalty>
0.0919313

> <b_epik_Metal_Only>
0

> <s_lp_Force_Field>
OPLS_2005

> <r_lp_Energy>
37.8306

> <b_lp_Chiralities_Consistent>
1

> <s_lp_Variant>
AV-unprocessed.smi:544-1

> <Gold.Version>
5.8.1

> <Gold.Id.Protein>
6NUR|6NUR_protein|mol2

> <Gold.PLP.Fitness>
42.3431

> <Gold.PLP.PLP>
-38.4904

> <Gold.PLP.part.hbond>
-1.9126

> <Gold.PLP.part.metal>
0.0000

> <Gold.PLP.part.buried>
-2.6578

> <Gold.PLP.part.nonpolar>
-34.3136

> <Gold.PLP.part.repulsive>
0.5216

> <Gold.PLP.ligand.clash>
0.0000

> <Gold.PLP.ligand.torsion>
1.4143

> <Gold.PLP.Chemscore.Hbond>
1.9100

> <Gold.PLP.Chemscore.CHOScore>
0.0000

> <Gold.PLP.Chemscore.Metal>
0.0000

> <Gold.Chemscore.Hbonds>
donor molecule, donor type, donor heavy atom, donor atom, acceptor molecule, acceptor atom, score
      L1  H    20    25       P1 10175  0.99
      P1  H  7989  7998       L1     3  1.00

> <Gold.PLP.Chemscore.Internal.Correction>
0.9513

> <Gold.Rescore>
     Score         DG    S(hbond)    S(metal)    S(lipo)     H(rot)  DE(clash)    DE(int)     intcor
     14.77     -17.52       1.88        0.00      83.97       1.58       0.31       2.44       ----

> <Gold.Chemscore.Fitness>
14.7654

> <Gold.Chemscore.DG>
-17.5216

> <Gold.Chemscore.ZeroCoef>
-5.4800

> <Gold.Chemscore.Hbond>
1.8753

> <Gold.Chemscore.Metal>
0.0000

> <Gold.Chemscore.Lipo>
83.9691

> <Gold.Chemscore.Internal_Hbond>
0.0000

> <Gold.Chemscore.DEClash>
0.3120

> <Gold.Chemscore.DEInternal>
2.4442

> <Gold.Chemscore.Rot>
1.5806

> <Gold.Chemscore.Internal.Correction>
   9.000000E+99

> <Gold.Chemscore.Hbonds>
donor molecule, donor type, donor heavy atom, donor atom, acceptor molecule, acceptor atom, score
      L1  H    20    25       P1 10175  0.88
      P1  H  7989  7998       L1     3  0.44

> <Gold.Chemscore.Hbond.Weighted>
-6.2635

> <Gold.Chemscore.Metal.Weighted>
-0.0000

> <Gold.Chemscore.Lipo.Weighted>
-9.8244

> <Gold.Chemscore.Internal_Hbond.Weighted>
0.0000

> <Gold.Chemscore.DEClash.Weighted>
0.3120

> <Gold.Chemscore.DEInternal.Weighted>
2.4442

> <Gold.Chemscore.Rot.Weighted>
4.0463

> <Gold.Chemscore.Internal.Correction.Weighted>
   9.000000E+99

> <Gold.Protein.RotatedTorsions>
[ 6907 6896 6895 6894 ] final   68.53 input  -60.11 | X-H torsion
[ 7974 7965 7964 7962 ] final -158.51 input  175.53 | X-H torsion
[ 8008 7997 7996 7995 ] final   29.34 input   59.86 | X-H torsion
[ 10167 10162 10161 10158 ] final  164.52 input  -65.29 | X-H torsion
[ 10718 10713 10712 10709 ] final  141.04 input   66.30 | X-H torsion
[ 10763 10752 10751 10750 ] final   96.66 input  -60.55 | X-H torsion
[ 11005 11000 10999 10996 ] final   96.49 input  -57.11 | X-H torsion

> <Gold.Protein.ActiveResidues>
 VAL166  LYS551  ARG553  GLY616  TRP617  ASP618  TYR619  PRO620  LYS621  CYS622 
 ASP623  PHE694  ASN695  SER759  ASP760  ASP761  ALA762  ILE779  LEU786  VAL792 
 PHE793  MET794  SER795  GLU796  ALA797  LYS798  CYS799  TRP800  GLU811  SER814 

> <Gold.Protein.RotatedAtoms>
  152.4626  134.5149  159.9764 H   0  0  0  0  0  0  0  0  0  0  0  0  # atno 6907 bound_to 6896
  151.5194  133.3463  159.2906 H   0  0  0  0  0  0  0  0  0  0  0  0  # atno 6908 bound_to 6896
  150.8596  134.7974  159.7135 H   0  0  0  0  0  0  0  0  0  0  0  0  # atno 6909 bound_to 6896
  144.7503  140.3818  143.6053 H   0  0  0  0  0  0  0  0  0  0  0  0  # atno 7974 bound_to 7965
  155.0730  140.3202  155.4624 H   0  0  0  0  0  0  0  0  0  0  0  0  # atno 8008 bound_to 7997
  156.2786  140.2108  156.5803 H   0  0  0  0  0  0  0  0  0  0  0  0  # atno 8009 bound_to 7997
  154.7039  140.0504  157.0472 H   0  0  0  0  0  0  0  0  0  0  0  0  # atno 8010 bound_to 7997
  139.4890  144.4227  151.9167 H   0  0  0  0  0  0  0  0  0  0  0  0  # atno 10167 bound_to 10162
  157.3964  131.1011  151.0595 H   0  0  0  0  0  0  0  0  0  0  0  0  # atno 10718 bound_to 10713
  153.2676  135.4210  155.0956 H   0  0  0  0  0  0  0  0  0  0  0  0  # atno 10763 bound_to 10752
  154.8444  135.3464  154.6289 H   0  0  0  0  0  0  0  0  0  0  0  0  # atno 10764 bound_to 10752
  153.6709  135.7043  153.5205 H   0  0  0  0  0  0  0  0  0  0  0  0  # atno 10765 bound_to 10752
  139.8781  134.8953  156.4166 H   0  0  0  0  0  0  0  0  0  0  0  0  # atno 11005 bound_to 11000
  145.6970  139.1652  143.2615 LP  0  0  0  0  0  0  0  0  0  0  0  0  # atno 17320 bound_to 7965
  146.1443  140.7014  142.9352 LP  0  0  0  0  0  0  0  0  0  0  0  0  # atno 17321 bound_to 7965
  140.3672  144.2900  150.5925 LP  0  0  0  0  0  0  0  0  0  0  0  0  # atno 17342 bound_to 10162
  140.5351  143.2235  151.8176 LP  0  0  0  0  0  0  0  0  0  0  0  0  # atno 17343 bound_to 10162
  157.1610  130.6225  149.5610 LP  0  0  0  0  0  0  0  0  0  0  0  0  # atno 17370 bound_to 10713
  155.9811  130.4817  150.6812 LP  0  0  0  0  0  0  0  0  0  0  0  0  # atno 17371 bound_to 10713
  140.9163  133.7676  155.9852 LP  0  0  0  0  0  0  0  0  0  0  0  0  # atno 17394 bound_to 11000
  140.8490  134.2977  157.5283 LP  0  0  0  0  0  0  0  0  0  0  0  0  # atno 17395 bound_to 11000

$$$$
