AV-unprocessed.smi:2159|AV-procd|sdf|8792|dock2
  -GOLD-   2272011573D 1   1.00000     0.00000
 Structure written by MMmdl.
 47 49  0  0  0  0  0  0  0  0  1 V2000
  145.3562  137.9621  154.2322 O   0  0  0  0  0  0  0  0  0  0  0  0
  146.4878  137.7199  153.8119 C   0  0  0  0  0  0  0  0  0  0  0  0
  147.7244  138.1270  154.6187 C   0  0  0  0  0  0  0  0  0  0  0  0
  148.7093  139.0032  153.8191 C   0  0  0  0  0  0  0  0  0  0  0  0
  149.7045  139.6226  154.7012 N   0  0  0  0  0  0  0  0  0  0  0  0
  149.8177  140.9448  154.8905 C   0  0  0  0  0  0  0  0  0  0  0  0
  149.1141  141.8147  154.3771 O   0  0  0  0  0  0  0  0  0  0  0  0
  150.9673  141.2691  155.8414 C   0  0  1  0  0  0  0  0  0  0  0  0
  150.4951  142.0729  157.0713 C   0  0  0  0  0  0  0  0  0  0  0  0
  151.5713  142.0997  158.1707 C   0  0  0  0  0  0  0  0  0  0  0  0
  152.1291  140.7027  158.5244 C   0  0  0  0  0  0  0  0  0  0  0  0
  151.4989  139.5626  157.7053 C   0  0  0  0  0  0  0  0  0  0  0  0
  151.5250  139.8735  156.1940 C   0  0  1  0  0  0  0  0  0  0  0  0
  150.6198  138.9358  155.3991 C   0  0  0  0  0  0  0  0  0  0  0  0
  150.7514  137.7119  155.4161 O   0  0  0  0  0  0  0  0  0  0  0  0
  146.7221  137.1046  152.6428 N   0  0  0  0  0  0  0  0  0  0  0  0
  145.6974  136.6506  151.7094 C   0  0  0  0  0  0  0  0  0  0  0  0
  144.8924  135.4683  152.2739 C   0  0  0  0  0  0  0  0  0  0  0  0
  144.9149  134.2663  151.3480 C   0  0  0  0  0  0  0  0  0  0  0  0
  143.7113  133.6678  150.9178 C   0  0  0  0  0  0  0  0  0  0  0  0
  143.7850  132.5475  150.0677 C   0  0  0  0  0  0  0  0  0  0  0  0
  145.0528  132.0705  149.6827 C   0  0  0  0  0  0  0  0  0  0  0  0
  146.1955  132.7383  150.1669 C   0  0  0  0  0  0  0  0  0  0  0  0
  146.1356  133.8131  150.9827 N   0  0  0  0  0  0  0  0  0  0  0  0
  147.4035  138.6629  155.5134 H   0  0  0  0  0  0  0  0  0  0  0  0
  148.2234  137.2195  154.9601 H   0  0  0  0  0  0  0  0  0  0  0  0
  149.2138  138.4067  153.0567 H   0  0  0  0  0  0  0  0  0  0  0  0
  148.1651  139.7753  153.2716 H   0  0  0  0  0  0  0  0  0  0  0  0
  151.7221  141.8395  155.2981 H   0  0  0  0  0  0  0  0  0  0  0  0
  150.2438  143.0932  156.7785 H   0  0  0  0  0  0  0  0  0  0  0  0
  149.5786  141.6400  157.4765 H   0  0  0  0  0  0  0  0  0  0  0  0
  152.3953  142.7353  157.8437 H   0  0  0  0  0  0  0  0  0  0  0  0
  151.1663  142.5748  159.0647 H   0  0  0  0  0  0  0  0  0  0  0  0
  153.2073  140.7021  158.3604 H   0  0  0  0  0  0  0  0  0  0  0  0
  151.9901  140.5060  159.5879 H   0  0  0  0  0  0  0  0  0  0  0  0
  152.0290  138.6306  157.9054 H   0  0  0  0  0  0  0  0  0  0  0  0
  150.4722  139.4047  158.0408 H   0  0  0  0  0  0  0  0  0  0  0  0
  152.5450  139.7808  155.8181 H   0  0  0  0  0  0  0  0  0  0  0  0
  147.6831  136.9482  152.3748 H   0  0  0  0  0  0  0  0  0  0  0  0
  145.0348  137.4779  151.4487 H   0  0  0  0  0  0  0  0  0  0  0  0
  146.1958  136.3496  150.7876 H   0  0  0  0  0  0  0  0  0  0  0  0
  145.2912  135.1770  153.2466 H   0  0  0  0  0  0  0  0  0  0  0  0
  143.8556  135.7627  152.4439 H   0  0  0  0  0  0  0  0  0  0  0  0
  142.7537  134.0564  151.2323 H   0  0  0  0  0  0  0  0  0  0  0  0
  142.8853  132.0626  149.7187 H   0  0  0  0  0  0  0  0  0  0  0  0
  145.1473  131.2138  149.0321 H   0  0  0  0  0  0  0  0  0  0  0  0
  147.1837  132.3998  149.8924 H   0  0  0  0  0  0  0  0  0  0  0  0
  1  2  2  0  0  0  0
  2  3  1  0  0  0  0
  2 16  1  0  0  0  0
  3  4  1  0  0  0  0
  3 25  1  0  0  0  0
  3 26  1  0  0  0  0
  4  5  1  0  0  0  0
  4 27  1  0  0  0  0
  4 28  1  0  0  0  0
  5 14  1  0  0  0  0
  5  6  1  0  0  0  0
  6  7  2  0  0  0  0
  6  8  1  0  0  0  0
  8 13  1  0  0  0  0
  8  9  1  0  0  0  0
  8 29  1  0  0  0  0
  9 10  1  0  0  0  0
  9 30  1  0  0  0  0
  9 31  1  0  0  0  0
 10 11  1  0  0  0  0
 10 32  1  0  0  0  0
 10 33  1  0  0  0  0
 11 12  1  0  0  0  0
 11 34  1  0  0  0  0
 11 35  1  0  0  0  0
 12 13  1  0  0  0  0
 12 36  1  0  0  0  0
 12 37  1  0  0  0  0
 13 14  1  0  0  0  0
 13 38  1  0  0  0  0
 14 15  2  0  0  0  0
 16 17  1  0  0  0  0
 16 39  1  0  0  0  0
 17 18  1  0  0  0  0
 17 40  1  0  0  0  0
 17 41  1  0  0  0  0
 18 19  1  0  0  0  0
 18 42  1  0  0  0  0
 18 43  1  0  0  0  0
 19 24  1  0  0  0  0
 19 20  2  0  0  0  0
 20 21  1  0  0  0  0
 20 44  1  0  0  0  0
 21 22  2  0  0  0  0
 21 45  1  0  0  0  0
 22 23  1  0  0  0  0
 22 46  1  0  0  0  0
 23 24  2  0  0  0  0
 23 47  1  0  0  0  0
M  END
> <s_m_source_file>
AV-unprocessed.smi

> <i_m_source_file_index>
2159

> <i_lp_mmshare_version>
43012

> <i_f3d_flags>
0

> <s_epik_input>
bjFbY0hdW2NIXVtjSF1bY0hdYzFbQ0gyXVtDSDJdW05IXUMoPU8pW0NIMl1bQ0gyXU4oQzI9TylDKD1PKVtDQEhdKFtDQEBIXTIzKVtDSDJdW0NIMl1bQ0gyXVtDSDJdMw==

> <s_epik_cmdline>
J2VwaWtfcHl0aG9uJywgJy1waCcsICc3LjAnLCAnLXRuJywgJzgnLCAnLW1hJywgJzIwMCcsICctbWV0YWxfYmluZGluZycsICctaW1hZScsICc8aW5maWxlLm1hZT4nLCAnLW9tYWUnLCAnPG91dGZpbGUubWFlPic=

> <r_lp_tautomer_probability>
1

> <r_epik_Ionization_Penalty>
0.026624

> <r_epik_Ionization_Penalty_Charging>
0

> <r_epik_Ionization_Penalty_Neutral>
0.026624

> <r_epik_State_Penalty>
0.0217444

> <r_epik_Charging_Adjusted_Penalty>
0.0217444

> <i_epik_Tot_Q>
0

> <i_epik_Tot_abs_Q>
0

> <r_epik_Metal_State_Penalty>
0.0208054

> <b_epik_Metal_Only>
0

> <s_lp_Force_Field>
OPLS_2005

> <r_lp_Energy>
25.0147

> <b_lp_Chiralities_Consistent>
1

> <s_lp_Variant>
AV-unprocessed.smi:2159-2

> <Gold.Version>
5.8.1

> <Gold.Id.Protein>
6NUR|6NUR_protein|mol2

> <Gold.PLP.Fitness>
46.5562

> <Gold.PLP.PLP>
-40.8250

> <Gold.PLP.part.hbond>
-2.0241

> <Gold.PLP.part.metal>
0.0000

> <Gold.PLP.part.buried>
-2.8350

> <Gold.PLP.part.nonpolar>
-36.3574

> <Gold.PLP.part.repulsive>
0.5980

> <Gold.PLP.ligand.clash>
0.0000

> <Gold.PLP.ligand.torsion>
0.5281

> <Gold.PLP.Chemscore.Hbond>
1.2337

> <Gold.PLP.Chemscore.CHOScore>
1.0000

> <Gold.PLP.Chemscore.Metal>
0.0000

> <Gold.Chemscore.Hbonds>
donor molecule, donor type, donor heavy atom, donor atom, acceptor molecule, acceptor atom, score
      L1  H    16    39       P1  7948  1.00
      P1  H  8011  8017       L1     7  0.23
      L1  C    23    47       P1 10747  1.00

> <Gold.PLP.Chemscore.Internal.Correction>
0.0863

> <Gold.Rescore>
     Score         DG    S(hbond)    S(metal)    S(lipo)     H(rot)  DE(clash)    DE(int)     intcor
     15.36     -15.96       1.14        0.00     100.04       1.97       0.10       0.49       ----

> <Gold.Chemscore.Fitness>
15.3632

> <Gold.Chemscore.DG>
-15.9589

> <Gold.Chemscore.ZeroCoef>
-5.4800

> <Gold.Chemscore.Hbond>
1.1434

> <Gold.Chemscore.Metal>
0.0000

> <Gold.Chemscore.Lipo>
100.0351

> <Gold.Chemscore.Internal_Hbond>
0.0000

> <Gold.Chemscore.DEClash>
0.1031

> <Gold.Chemscore.DEInternal>
0.4926

> <Gold.Chemscore.Rot>
1.9704

> <Gold.Chemscore.Internal.Correction>
   9.000000E+99

> <Gold.Chemscore.Hbonds>
donor molecule, donor type, donor heavy atom, donor atom, acceptor molecule, acceptor atom, score
      L1  H    16    39       P1  7948  0.93
      P1  H  8011  8017       L1     7  0.20

> <Gold.Chemscore.Hbond.Weighted>
-3.8190

> <Gold.Chemscore.Metal.Weighted>
-0.0000

> <Gold.Chemscore.Lipo.Weighted>
-11.7041

> <Gold.Chemscore.Internal_Hbond.Weighted>
0.0000

> <Gold.Chemscore.DEClash.Weighted>
0.1031

> <Gold.Chemscore.DEInternal.Weighted>
0.4926

> <Gold.Chemscore.Rot.Weighted>
5.0443

> <Gold.Chemscore.Internal.Correction.Weighted>
   9.000000E+99

> <Gold.Protein.RotatedTorsions>
[ 6907 6896 6895 6894 ] final  -93.37 input  -60.11 | X-H torsion
[ 7974 7965 7964 7962 ] final  -73.69 input  175.53 | X-H torsion
[ 8008 7997 7996 7995 ] final   95.10 input   59.86 | X-H torsion
[ 10167 10162 10161 10158 ] final  -40.07 input  -65.29 | X-H torsion
[ 10718 10713 10712 10709 ] final -109.49 input   66.30 | X-H torsion
[ 10763 10752 10751 10750 ] final   40.32 input  -60.55 | X-H torsion
[ 11005 11000 10999 10996 ] final  152.27 input  -57.11 | X-H torsion

> <Gold.Protein.ActiveResidues>
 VAL166  LYS551  ARG553  GLY616  TRP617  ASP618  TYR619  PRO620  LYS621  CYS622 
 ASP623  PHE694  ASN695  SER759  ASP760  ASP761  ALA762  ILE779  LEU786  VAL792 
 PHE793  MET794  SER795  GLU796  ALA797  LYS798  CYS799  TRP800  GLU811  SER814 

> <Gold.Protein.RotatedAtoms>
  150.6921  134.1977  159.4309 H   0  0  0  0  0  0  0  0  0  0  0  0  # atno 6907 bound_to 6896
  151.9945  134.9959  160.0572 H   0  0  0  0  0  0  0  0  0  0  0  0  # atno 6908 bound_to 6896
  152.1637  133.4563  159.4910 H   0  0  0  0  0  0  0  0  0  0  0  0  # atno 6909 bound_to 6896
  145.6488  140.9289  143.0996 H   0  0  0  0  0  0  0  0  0  0  0  0  # atno 7974 bound_to 7965
  156.0652  140.3291  155.7510 H   0  0  0  0  0  0  0  0  0  0  0  0  # atno 8008 bound_to 7997
  155.5392  140.0600  157.2891 H   0  0  0  0  0  0  0  0  0  0  0  0  # atno 8009 bound_to 7997
  154.4502  140.1914  156.0562 H   0  0  0  0  0  0  0  0  0  0  0  0  # atno 8010 bound_to 7997
  140.7045  143.3176  151.2871 H   0  0  0  0  0  0  0  0  0  0  0  0  # atno 10167 bound_to 10162
  156.0540  130.5766  150.8107 H   0  0  0  0  0  0  0  0  0  0  0  0  # atno 10718 bound_to 10713
  152.9940  135.6195  154.2607 H   0  0  0  0  0  0  0  0  0  0  0  0  # atno 10763 bound_to 10752
  154.2343  135.2791  155.2880 H   0  0  0  0  0  0  0  0  0  0  0  0  # atno 10764 bound_to 10752
  154.5423  135.5757  153.6908 H   0  0  0  0  0  0  0  0  0  0  0  0  # atno 10765 bound_to 10752
  140.1292  134.8813  157.2181 H   0  0  0  0  0  0  0  0  0  0  0  0  # atno 11005 bound_to 11000
  144.7130  139.8299  143.7408 LP  0  0  0  0  0  0  0  0  0  0  0  0  # atno 17320 bound_to 7965
  146.1221  139.4240  143.0222 LP  0  0  0  0  0  0  0  0  0  0  0  0  # atno 17321 bound_to 7965
  139.6619  144.0173  152.2698 LP  0  0  0  0  0  0  0  0  0  0  0  0  # atno 17342 bound_to 10162
  139.9743  144.6472  150.7959 LP  0  0  0  0  0  0  0  0  0  0  0  0  # atno 17343 bound_to 10162
  157.5493  131.0943  150.9719 LP  0  0  0  0  0  0  0  0  0  0  0  0  # atno 17370 bound_to 10713
  156.9982  130.5590  149.5309 LP  0  0  0  0  0  0  0  0  0  0  0  0  # atno 17371 bound_to 10713
  140.2864  134.3291  155.7328 LP  0  0  0  0  0  0  0  0  0  0  0  0  # atno 17394 bound_to 11000
  141.2167  133.7508  156.9439 LP  0  0  0  0  0  0  0  0  0  0  0  0  # atno 17395 bound_to 11000

$$$$
