AV-unprocessed.smi:1405|AV-procd|sdf|5707|dock4
  -GOLD-   22720 5343D 1   1.00000     0.00000
 Structure written by MMmdl.
 49 52  0  0  0  0  0  0  0  0  1 V2000
  149.5932  141.4773  153.9451 O   0  0  0  0  0  0  0  0  0  0  0  0
  148.6074  141.1772  154.6177 C   0  0  0  0  0  0  0  0  0  0  0  0
  147.2796  140.8724  153.9021 C   0  0  0  0  0  0  0  0  0  0  0  0
  146.1405  141.7017  154.3304 N   0  0  0  0  0  0  0  0  0  0  0  0
  146.0764  143.0404  153.9701 C   0  0  0  0  0  0  0  0  0  0  0  0
  145.0578  143.8598  154.3236 C   0  0  0  0  0  0  0  0  0  0  0  0
  143.9475  143.3551  155.1242 C   0  0  0  0  0  0  0  0  0  0  0  0
  142.9806  144.0177  155.4937 O   0  0  0  0  0  0  0  0  0  0  0  0
  144.0476  142.0038  155.4658 N   0  0  0  0  0  0  0  0  0  0  0  0
  145.0937  141.1536  155.1043 C   0  0  0  0  0  0  0  0  0  0  0  0
  145.0798  139.9735  155.4521 O   0  0  0  0  0  0  0  0  0  0  0  0
  148.6381  141.1072  155.9595 N   0  0  0  0  0  0  0  0  0  0  0  0
  149.7995  141.3911  156.7925 C   0  0  0  0  0  0  0  0  0  0  0  0
  149.4763  142.4720  157.8451 C   0  0  0  0  0  0  0  0  0  0  0  0
  150.6891  143.1119  158.5680 C   0  0  0  0  0  0  0  0  0  0  0  0
  151.5324  143.9914  157.6050 C   0  0  0  0  0  0  0  0  0  0  0  0
  152.6994  144.6576  158.3662 C   0  0  2  0  0  0  0  0  0  0  0  0
  153.6067  143.5681  158.9760 C   0  0  0  0  0  0  0  0  0  0  0  0
  152.7815  142.7085  159.9572 C   0  0  1  0  0  0  0  0  0  0  0  0
  152.2239  143.6013  161.0845 C   0  0  0  0  0  0  0  0  0  0  0  0
  151.3211  144.6891  160.4678 C   0  0  1  0  0  0  0  0  0  0  0  0
  152.1416  145.5548  159.4899 C   0  0  0  0  0  0  0  0  0  0  0  0
  150.1558  144.0206  159.7089 C   0  0  0  0  0  0  0  0  0  0  0  0
  151.6146  142.0371  159.2003 C   0  0  0  0  0  0  0  0  0  0  0  0
  143.3007  141.6094  156.0192 H   0  0  0  0  0  0  0  0  0  0  0  0
  147.4336  140.9693  152.8257 H   0  0  0  0  0  0  0  0  0  0  0  0
  147.0496  139.8176  154.0588 H   0  0  0  0  0  0  0  0  0  0  0  0
  146.8760  143.4568  153.3737 H   0  0  0  0  0  0  0  0  0  0  0  0
  145.0641  144.8942  154.0115 H   0  0  0  0  0  0  0  0  0  0  0  0
  147.7854  140.8542  156.4374 H   0  0  0  0  0  0  0  0  0  0  0  0
  150.0853  140.4577  157.2758 H   0  0  0  0  0  0  0  0  0  0  0  0
  150.6373  141.6867  156.1608 H   0  0  0  0  0  0  0  0  0  0  0  0
  148.8993  143.2646  157.3661 H   0  0  0  0  0  0  0  0  0  0  0  0
  148.8103  142.0361  158.5915 H   0  0  0  0  0  0  0  0  0  0  0  0
  151.9392  143.3930  156.7900 H   0  0  0  0  0  0  0  0  0  0  0  0
  150.9057  144.7545  157.1413 H   0  0  0  0  0  0  0  0  0  0  0  0
  153.2816  145.2660  157.6735 H   0  0  0  0  0  0  0  0  0  0  0  0
  154.0291  142.9429  158.1883 H   0  0  0  0  0  0  0  0  0  0  0  0
  154.4518  144.0254  159.4925 H   0  0  0  0  0  0  0  0  0  0  0  0
  153.4212  141.9387  160.3899 H   0  0  0  0  0  0  0  0  0  0  0  0
  151.6593  143.0002  161.7985 H   0  0  0  0  0  0  0  0  0  0  0  0
  153.0404  144.0595  161.6440 H   0  0  0  0  0  0  0  0  0  0  0  0
  150.9213  145.3203  161.2620 H   0  0  0  0  0  0  0  0  0  0  0  0
  152.9564  146.0528  160.0170 H   0  0  0  0  0  0  0  0  0  0  0  0
  151.5181  146.3446  159.0688 H   0  0  0  0  0  0  0  0  0  0  0  0
  149.4940  144.7877  159.3042 H   0  0  0  0  0  0  0  0  0  0  0  0
  149.5518  143.4372  160.4056 H   0  0  0  0  0  0  0  0  0  0  0  0
  151.0466  141.4005  159.8800 H   0  0  0  0  0  0  0  0  0  0  0  0
  152.0240  141.3793  158.4335 H   0  0  0  0  0  0  0  0  0  0  0  0
  1  2  2  0  0  0  0
  2  3  1  0  0  0  0
  2 12  1  0  0  0  0
  3  4  1  0  0  0  0
  3 26  1  0  0  0  0
  3 27  1  0  0  0  0
  4 10  1  0  0  0  0
  4  5  1  0  0  0  0
  5  6  2  0  0  0  0
  5 28  1  0  0  0  0
  6  7  1  0  0  0  0
  6 29  1  0  0  0  0
  7  8  2  0  0  0  0
  7  9  1  0  0  0  0
  9 25  1  0  0  0  0
  9 10  1  0  0  0  0
 10 11  2  0  0  0  0
 12 13  1  0  0  0  0
 12 30  1  0  0  0  0
 13 14  1  0  0  0  0
 13 31  1  0  0  0  0
 13 32  1  0  0  0  0
 14 15  1  0  0  0  0
 14 33  1  0  0  0  0
 14 34  1  0  0  0  0
 15 23  1  0  0  0  0
 15 24  1  0  0  0  0
 15 16  1  0  0  0  0
 16 17  1  0  0  0  0
 16 35  1  0  0  0  0
 16 36  1  0  0  0  0
 17 22  1  0  0  0  0
 17 18  1  0  0  0  0
 17 37  1  0  0  0  0
 18 19  1  0  0  0  0
 18 38  1  0  0  0  0
 18 39  1  0  0  0  0
 19 20  1  0  0  0  0
 19 24  1  0  0  0  0
 19 40  1  0  0  0  0
 20 21  1  0  0  0  0
 20 41  1  0  0  0  0
 20 42  1  0  0  0  0
 21 22  1  0  0  0  0
 21 23  1  0  0  0  0
 21 43  1  0  0  0  0
 22 44  1  0  0  0  0
 22 45  1  0  0  0  0
 23 46  1  0  0  0  0
 23 47  1  0  0  0  0
 24 48  1  0  0  0  0
 24 49  1  0  0  0  0
M  END
> <s_m_source_file>
AV-unprocessed.smi

> <i_m_source_file_index>
1405

> <i_lp_mmshare_version>
43012

> <i_f3d_flags>
0

> <s_epik_input>
Tz1jMVtuSF1jKD1PKVtjSF1bY0hdbjFbQ0gyXUMoPU8pW05IXVtDSDJdW0NIMl1DMjNbQ0gyXVtDQEBIXTRbQ0gyXVtDQEhdKFtDSDJdMylbQ0gyXVtDQEBIXShbQ0gyXTQpW0NIMl0y

> <s_epik_cmdline>
J2VwaWtfcHl0aG9uJywgJy1waCcsICc3LjAnLCAnLXRuJywgJzgnLCAnLW1hJywgJzIwMCcsICctbWV0YWxfYmluZGluZycsICctaW1hZScsICc8aW5maWxlLm1hZT4nLCAnLW9tYWUnLCAnPG91dGZpbGUubWFlPic=

> <r_lp_tautomer_probability>
0.999537

> <r_epik_Ionization_Penalty>
0.00301971

> <r_epik_Ionization_Penalty_Charging>
0.00301969

> <r_epik_Ionization_Penalty_Neutral>
2.18059e-08

> <r_epik_State_Penalty>
0.00212114

> <r_epik_Charging_Adjusted_Penalty>
0.00514083

> <i_epik_Tot_Q>
0

> <i_epik_Tot_abs_Q>
0

> <r_epik_Metal_State_Penalty>
0.361473

> <b_epik_Metal_Only>
0

> <s_lp_Force_Field>
OPLS_2005

> <r_lp_Energy>
33.2851

> <b_lp_Chiralities_Consistent>
1

> <s_lp_Variant>
AV-unprocessed.smi:1405-1

> <Gold.Version>
5.8.1

> <Gold.Id.Protein>
6NUR|6NUR_protein|mol2

> <Gold.PLP.Fitness>
50.4646

> <Gold.PLP.PLP>
-47.6444

> <Gold.PLP.part.hbond>
-2.2828

> <Gold.PLP.part.metal>
0.0000

> <Gold.PLP.part.buried>
-3.5468

> <Gold.PLP.part.nonpolar>
-41.5148

> <Gold.PLP.part.repulsive>
0.6461

> <Gold.PLP.ligand.clash>
0.0000

> <Gold.PLP.ligand.torsion>
0.2422

> <Gold.PLP.Chemscore.Hbond>
1.0943

> <Gold.PLP.Chemscore.CHOScore>
0.0000

> <Gold.PLP.Chemscore.Metal>
0.0000

> <Gold.Chemscore.Hbonds>
donor molecule, donor type, donor heavy atom, donor atom, acceptor molecule, acceptor atom, score
      P1  H  7989  7998       L1     1  0.15
      P1  H  8011  8017       L1     1  0.69

> <Gold.PLP.Chemscore.Internal.Correction>
0.0217

> <Gold.Rescore>
     Score         DG    S(hbond)    S(metal)    S(lipo)     H(rot)  DE(clash)    DE(int)     intcor
     19.18     -20.02       1.14        0.00     139.32       2.18       0.67       0.17       ----

> <Gold.Chemscore.Fitness>
19.1822

> <Gold.Chemscore.DG>
-20.0207

> <Gold.Chemscore.ZeroCoef>
-5.4800

> <Gold.Chemscore.Hbond>
1.1436

> <Gold.Chemscore.Metal>
0.0000

> <Gold.Chemscore.Lipo>
139.3243

> <Gold.Chemscore.Internal_Hbond>
0.0000

> <Gold.Chemscore.DEClash>
0.6718

> <Gold.Chemscore.DEInternal>
0.1666

> <Gold.Chemscore.Rot>
2.1797

> <Gold.Chemscore.Internal.Correction>
   9.000000E+99

> <Gold.Chemscore.Hbonds>
donor molecule, donor type, donor heavy atom, donor atom, acceptor molecule, acceptor atom, score
      P1  H  7989  7998       L1     1  0.16
      P1  H  8011  8017       L1     1  0.70

> <Gold.Chemscore.Hbond.Weighted>
-3.8197

> <Gold.Chemscore.Metal.Weighted>
-0.0000

> <Gold.Chemscore.Lipo.Weighted>
-16.3009

> <Gold.Chemscore.Internal_Hbond.Weighted>
0.0000

> <Gold.Chemscore.DEClash.Weighted>
0.6718

> <Gold.Chemscore.DEInternal.Weighted>
0.1666

> <Gold.Chemscore.Rot.Weighted>
5.5799

> <Gold.Chemscore.Internal.Correction.Weighted>
   9.000000E+99

> <Gold.Protein.RotatedTorsions>
[ 6907 6896 6895 6894 ] final   38.75 input  -60.11 | X-H torsion
[ 7974 7965 7964 7962 ] final  151.15 input  175.53 | X-H torsion
[ 8008 7997 7996 7995 ] final -139.06 input   59.86 | X-H torsion
[ 10167 10162 10161 10158 ] final  -21.63 input  -65.29 | X-H torsion
[ 10718 10713 10712 10709 ] final  115.15 input   66.30 | X-H torsion
[ 10763 10752 10751 10750 ] final  133.63 input  -60.55 | X-H torsion
[ 11005 11000 10999 10996 ] final  153.95 input  -57.11 | X-H torsion

> <Gold.Protein.ActiveResidues>
 VAL166  LYS551  ARG553  GLY616  TRP617  ASP618  TYR619  PRO620  LYS621  CYS622 
 ASP623  PHE694  ASN695  SER759  ASP760  ASP761  ALA762  ILE779  LEU786  VAL792 
 PHE793  MET794  SER795  GLU796  ALA797  LYS798  CYS799  TRP800  GLU811  SER814 

> <Gold.Protein.RotatedAtoms>
  152.1606  134.8915  160.0541 H   0  0  0  0  0  0  0  0  0  0  0  0  # atno 6907 bound_to 6896
  151.9912  133.3787  159.4153 H   0  0  0  0  0  0  0  0  0  0  0  0  # atno 6908 bound_to 6896
  150.6887  134.3857  159.5098 H   0  0  0  0  0  0  0  0  0  0  0  0  # atno 6909 bound_to 6896
  144.8313  139.6501  143.6057 H   0  0  0  0  0  0  0  0  0  0  0  0  # atno 7974 bound_to 7965
  155.4386  140.0530  157.3012 H   0  0  0  0  0  0  0  0  0  0  0  0  # atno 8008 bound_to 7997
  154.4828  140.2088  155.9681 H   0  0  0  0  0  0  0  0  0  0  0  0  # atno 8009 bound_to 7997
  156.1231  140.3185  155.8242 H   0  0  0  0  0  0  0  0  0  0  0  0  # atno 8010 bound_to 7997
  140.7283  143.4610  151.0380 H   0  0  0  0  0  0  0  0  0  0  0  0  # atno 10167 bound_to 10162
  157.6239  131.1008  150.7288 H   0  0  0  0  0  0  0  0  0  0  0  0  # atno 10718 bound_to 10713
  153.8102  135.3130  155.3400 H   0  0  0  0  0  0  0  0  0  0  0  0  # atno 10763 bound_to 10752
  154.8054  135.4701  154.0383 H   0  0  0  0  0  0  0  0  0  0  0  0  # atno 10764 bound_to 10752
  153.1758  135.6885  153.8633 H   0  0  0  0  0  0  0  0  0  0  0  0  # atno 10765 bound_to 10752
  140.1444  134.8717  157.2374 H   0  0  0  0  0  0  0  0  0  0  0  0  # atno 11005 bound_to 11000
  146.2615  139.6422  142.9358 LP  0  0  0  0  0  0  0  0  0  0  0  0  # atno 17320 bound_to 7965
  145.4890  141.0438  143.2603 LP  0  0  0  0  0  0  0  0  0  0  0  0  # atno 17321 bound_to 7965
  139.8294  143.7711  152.3179 LP  0  0  0  0  0  0  0  0  0  0  0  0  # atno 17342 bound_to 10162
  139.7821  144.7440  151.0073 LP  0  0  0  0  0  0  0  0  0  0  0  0  # atno 17343 bound_to 10162
  156.7640  130.4807  149.5431 LP  0  0  0  0  0  0  0  0  0  0  0  0  # atno 17370 bound_to 10713
  156.1400  130.6238  151.0454 LP  0  0  0  0  0  0  0  0  0  0  0  0  # atno 17371 bound_to 10713
  140.2682  134.3492  155.7383 LP  0  0  0  0  0  0  0  0  0  0  0  0  # atno 17394 bound_to 11000
  141.2190  133.7408  156.9182 LP  0  0  0  0  0  0  0  0  0  0  0  0  # atno 17395 bound_to 11000

$$$$
