AV-unprocessed.smi:1410|AV-procd|sdf|5736|dock1
  -GOLD-   22720 5373D 1   1.00000     0.00000
 Structure written by MMmdl.
 39 40  0  0  0  0  0  0  0  0  3 V2000
  146.2102  138.1833  151.0306 N   0  5  0  0  0  0  0  0  0  0  0  0
  146.1647  138.2956  152.3719 C   0  0  0  0  0  0  0  0  0  0  0  0
  145.4702  137.6589  153.1611 O   0  0  0  0  0  0  0  0  0  0  0  0
  147.1039  139.3848  152.8996 C   0  0  0  0  0  0  0  0  0  0  0  0
  148.2357  138.7765  153.6436 N   0  3  2  0  0  0  0  0  0  0  0  0
  147.8507  138.2802  154.9930 C   0  0  0  0  0  0  0  0  0  0  0  0
  149.0230  137.5537  155.6746 C   0  0  0  0  0  0  0  0  0  0  0  0
  150.2771  138.4446  155.7660 C   0  0  2  0  0  0  0  0  0  0  0  0
  150.0935  139.5424  156.7149 N   0  0  0  0  0  0  0  0  0  0  0  0
  151.0620  140.3606  157.1519 C   0  0  0  0  0  0  0  0  0  0  0  0
  152.2334  140.2793  156.7835 O   0  0  0  0  0  0  0  0  0  0  0  0
  150.5828  141.2441  158.0447 N   0  0  0  0  0  0  0  0  0  0  0  0
  151.2812  142.2535  158.7615 C   0  0  0  0  0  0  0  0  0  0  0  0
  150.6486  143.5047  158.9138 C   0  0  0  0  0  0  0  0  0  0  0  0
  151.3243  144.5274  159.6090 C   0  0  0  0  0  0  0  0  0  0  0  0
  152.5583  144.3770  160.1341 N   0  0  0  0  0  0  0  0  0  0  0  0
  153.1683  143.1835  159.9750 C   0  0  0  0  0  0  0  0  0  0  0  0
  152.5819  142.0954  159.2978 C   0  0  0  0  0  0  0  0  0  0  0  0
  150.6195  138.9915  154.3699 C   0  0  0  0  0  0  0  0  0  0  0  0
  149.4125  139.6808  153.7063 C   0  0  0  0  0  0  0  0  0  0  0  0
  145.3766  138.4370  150.4869 H   0  0  0  0  0  0  0  0  0  0  0  0
  147.4789  139.9246  152.0290 H   0  0  0  0  0  0  0  0  0  0  0  0
  146.5892  140.1217  153.5204 H   0  0  0  0  0  0  0  0  0  0  0  0
  147.5133  139.1157  155.6082 H   0  0  0  0  0  0  0  0  0  0  0  0
  147.0098  137.5908  154.9162 H   0  0  0  0  0  0  0  0  0  0  0  0
  148.7230  137.2070  156.6640 H   0  0  0  0  0  0  0  0  0  0  0  0
  149.2634  136.6558  155.1038 H   0  0  0  0  0  0  0  0  0  0  0  0
  151.1176  137.8383  156.1088 H   0  0  0  0  0  0  0  0  0  0  0  0
  149.1598  139.6836  157.0715 H   0  0  0  0  0  0  0  0  0  0  0  0
  149.6105  141.1372  158.2934 H   0  0  0  0  0  0  0  0  0  0  0  0
  149.6612  143.6812  158.5130 H   0  0  0  0  0  0  0  0  0  0  0  0
  150.8606  145.4933  159.7453 H   0  0  0  0  0  0  0  0  0  0  0  0
  154.1587  143.0930  160.3961 H   0  0  0  0  0  0  0  0  0  0  0  0
  153.1414  141.1787  159.1969 H   0  0  0  0  0  0  0  0  0  0  0  0
  151.4606  139.6835  154.4301 H   0  0  0  0  0  0  0  0  0  0  0  0
  150.9506  138.1682  153.7355 H   0  0  0  0  0  0  0  0  0  0  0  0
  149.6911  139.9894  152.6980 H   0  0  0  0  0  0  0  0  0  0  0  0
  149.1449  140.5876  154.2507 H   0  0  0  0  0  0  0  0  0  0  0  0
  148.5203  137.9715  153.1041 H   0  0  0  0  0  0  0  0  0  0  0  0
  1  2  1  0  0  0  0
  1 21  1  0  0  0  0
  2  3  2  0  0  0  0
  2  4  1  0  0  0  0
  4  5  1  0  0  0  0
  4 22  1  0  0  0  0
  4 23  1  0  0  0  0
  5 20  1  0  0  0  0
  5  6  1  0  0  0  0
  5 39  1  0  0  0  0
  6  7  1  0  0  0  0
  6 24  1  0  0  0  0
  6 25  1  0  0  0  0
  7  8  1  0  0  0  0
  7 26  1  0  0  0  0
  7 27  1  0  0  0  0
  8  9  1  0  0  0  0
  8 19  1  0  0  0  0
  8 28  1  0  0  0  0
  9 10  1  0  0  0  0
  9 29  1  0  0  0  0
 10 11  2  0  0  0  0
 10 12  1  0  0  0  0
 12 13  1  0  0  0  0
 12 30  1  0  0  0  0
 13 18  1  0  0  0  0
 13 14  2  0  0  0  0
 14 15  1  0  0  0  0
 14 31  1  0  0  0  0
 15 16  2  0  0  0  0
 15 32  1  0  0  0  0
 16 17  1  0  0  0  0
 17 18  2  0  0  0  0
 17 33  1  0  0  0  0
 18 34  1  0  0  0  0
 19 20  1  0  0  0  0
 19 35  1  0  0  0  0
 19 36  1  0  0  0  0
 20 37  1  0  0  0  0
 20 38  1  0  0  0  0
M  CHG  1   1  -1
M  CHG  1   5   1
M  END
> <s_m_source_file>
AV-unprocessed.smi

> <i_m_source_file_index>
1410

> <i_lp_mmshare_version>
43012

> <i_f3d_flags>
0

> <s_epik_input>
W05IMl1DKD1PKVtDSDJdTjFbQ0gyXVtDSDJdW0NIXShbQ0gyXVtDSDJdMSlbTkhdQyg9TylbTkhdYzJbY0hdW2NIXW5bY0hdW2NIXTI=

> <s_epik_cmdline>
J2VwaWtfcHl0aG9uJywgJy1waCcsICc3LjAnLCAnLXRuJywgJzgnLCAnLW1hJywgJzIwMCcsICctbWV0YWxfYmluZGluZycsICctaW1hZScsICc8aW5maWxlLm1hZT4nLCAnLW9tYWUnLCAnPG91dGZpbGUubWFlPic=

> <r_epik_Ionization_Penalty>
5.8279

> <r_epik_Ionization_Penalty_Charging>
5.7288

> <r_epik_Ionization_Penalty_Neutral>
0.0990993

> <r_epik_State_Penalty>
6.63321

> <r_epik_Charging_Adjusted_Penalty>
12.362

> <i_epik_Tot_Q>
0

> <i_epik_Tot_abs_Q>
2

> <r_epik_Metal_State_Penalty>
2.69435

> <b_epik_Metal_Only>
1

> <s_lp_Force_Field>
OPLS_2005

> <r_lp_Energy>
12.1382

> <b_lp_Chiralities_Consistent>
1

> <s_lp_Variant>
AV-unprocessed.smi:1410-8

> <Gold.Version>
5.8.1

> <Gold.Id.Protein>
6NUR|6NUR_protein|mol2

> <Gold.PLP.Fitness>
43.7290

> <Gold.PLP.PLP>
-30.6611

> <Gold.PLP.part.hbond>
-5.4632

> <Gold.PLP.part.metal>
0.0000

> <Gold.PLP.part.buried>
2.9277

> <Gold.PLP.part.nonpolar>
-28.1993

> <Gold.PLP.part.repulsive>
0.4019

> <Gold.PLP.ligand.clash>
0.0000

> <Gold.PLP.ligand.torsion>
0.6501

> <Gold.PLP.Chemscore.Hbond>
4.7800

> <Gold.PLP.Chemscore.CHOScore>
0.0000

> <Gold.PLP.Chemscore.Metal>
0.0000

> <Gold.Chemscore.Hbonds>
donor molecule, donor type, donor heavy atom, donor atom, acceptor molecule, acceptor atom, score
      L1  H     1    21       P1 10171  1.00
      L1  H     5    39       P1  7948  1.33
      P1  H  7954  7966       L1     1  0.37
      P1  H  7997  8009       L1    11  0.75

> <Gold.PLP.Chemscore.Internal.Correction>
0.0281

> <Gold.Rescore>
     Score         DG    S(hbond)    S(metal)    S(lipo)     H(rot)  DE(clash)    DE(int)     intcor
     17.96     -23.18       3.79        0.00      85.52       1.94       3.08       2.13       ----

> <Gold.Chemscore.Fitness>
17.9588

> <Gold.Chemscore.DG>
-23.1759

> <Gold.Chemscore.ZeroCoef>
-5.4800

> <Gold.Chemscore.Hbond>
3.7864

> <Gold.Chemscore.Metal>
0.0000

> <Gold.Chemscore.Lipo>
85.5179

> <Gold.Chemscore.Internal_Hbond>
0.0000

> <Gold.Chemscore.DEClash>
3.0832

> <Gold.Chemscore.DEInternal>
2.1340

> <Gold.Chemscore.Rot>
1.9361

> <Gold.Chemscore.Internal.Correction>
   9.000000E+99

> <Gold.Chemscore.Hbonds>
donor molecule, donor type, donor heavy atom, donor atom, acceptor molecule, acceptor atom, score
      L1  H     1    21       P1 10171  1.00
      L1  H     5    39       P1  7948  0.67
      P1  H  7954  7966       L1     1  0.34
      P1  H  7997  8009       L1    11  0.72

> <Gold.Chemscore.Hbond.Weighted>
-12.6466

> <Gold.Chemscore.Metal.Weighted>
-0.0000

> <Gold.Chemscore.Lipo.Weighted>
-10.0056

> <Gold.Chemscore.Internal_Hbond.Weighted>
0.0000

> <Gold.Chemscore.DEClash.Weighted>
3.0832

> <Gold.Chemscore.DEInternal.Weighted>
2.1340

> <Gold.Chemscore.Rot.Weighted>
4.9563

> <Gold.Chemscore.Internal.Correction.Weighted>
   9.000000E+99

> <Gold.Protein.RotatedTorsions>
[ 6907 6896 6895 6894 ] final -163.10 input  -60.11 | X-H torsion
[ 7974 7965 7964 7962 ] final  -45.45 input  175.53 | X-H torsion
[ 8008 7997 7996 7995 ] final -172.82 input   59.86 | X-H torsion
[ 10167 10162 10161 10158 ] final   30.44 input  -65.29 | X-H torsion
[ 10718 10713 10712 10709 ] final  113.41 input   66.30 | X-H torsion
[ 10763 10752 10751 10750 ] final  -97.22 input  -60.55 | X-H torsion
[ 11005 11000 10999 10996 ] final   58.37 input  -57.11 | X-H torsion

> <Gold.Protein.ActiveResidues>
 VAL166  LYS551  ARG553  GLY616  TRP617  ASP618  TYR619  PRO620  LYS621  CYS622 
 ASP623  PHE694  ASN695  SER759  ASP760  ASP761  ALA762  ILE779  LEU786  VAL792 
 PHE793  MET794  SER795  GLU796  ALA797  LYS798  CYS799  TRP800  GLU811  SER814 

> <Gold.Protein.RotatedAtoms>
  151.3907  133.3790  159.2720 H   0  0  0  0  0  0  0  0  0  0  0  0  # atno 6907 bound_to 6896
  150.9507  134.8908  159.7681 H   0  0  0  0  0  0  0  0  0  0  0  0  # atno 6908 bound_to 6896
  152.5110  134.3862  159.9420 H   0  0  0  0  0  0  0  0  0  0  0  0  # atno 6909 bound_to 6896
  145.9819  140.7275  142.9359 H   0  0  0  0  0  0  0  0  0  0  0  0  # atno 7974 bound_to 7965
  155.9496  140.1124  157.0988 H   0  0  0  0  0  0  0  0  0  0  0  0  # atno 8008 bound_to 7997
  154.4106  140.1203  156.5100 H   0  0  0  0  0  0  0  0  0  0  0  0  # atno 8009 bound_to 7997
  155.6859  140.3473  155.4876 H   0  0  0  0  0  0  0  0  0  0  0  0  # atno 8010 bound_to 7997
  140.4678  144.0809  150.6229 H   0  0  0  0  0  0  0  0  0  0  0  0  # atno 10167 bound_to 10162
  157.6340  131.0983  150.7036 H   0  0  0  0  0  0  0  0  0  0  0  0  # atno 10718 bound_to 10713
  154.7309  135.5054  153.8962 H   0  0  0  0  0  0  0  0  0  0  0  0  # atno 10763 bound_to 10752
  153.0949  135.6669  153.9791 H   0  0  0  0  0  0  0  0  0  0  0  0  # atno 10764 bound_to 10752
  153.9592  135.3049  155.3413 H   0  0  0  0  0  0  0  0  0  0  0  0  # atno 10765 bound_to 10752
  140.0383  134.5911  155.9415 H   0  0  0  0  0  0  0  0  0  0  0  0  # atno 11005 bound_to 11000
  144.6864  140.2922  143.7276 LP  0  0  0  0  0  0  0  0  0  0  0  0  # atno 17320 bound_to 7965
  145.7757  139.1873  143.2186 LP  0  0  0  0  0  0  0  0  0  0  0  0  # atno 17321 bound_to 7965
  140.4015  143.2701  151.9942 LP  0  0  0  0  0  0  0  0  0  0  0  0  # atno 17342 bound_to 10162
  139.4814  144.5994  151.7633 LP  0  0  0  0  0  0  0  0  0  0  0  0  # atno 17343 bound_to 10162
  156.7371  130.4727  149.5486 LP  0  0  0  0  0  0  0  0  0  0  0  0  # atno 17370 bound_to 10713
  156.1564  130.6344  151.0662 LP  0  0  0  0  0  0  0  0  0  0  0  0  # atno 17371 bound_to 10713
  141.1869  133.6558  156.5259 LP  0  0  0  0  0  0  0  0  0  0  0  0  # atno 17394 bound_to 11000
  140.4111  134.7271  157.4836 LP  0  0  0  0  0  0  0  0  0  0  0  0  # atno 17395 bound_to 11000

$$$$
