AV-unprocessed.smi:1244|AV-procd|sdf|5228|dock8
  -GOLD-   22720 4333D 1   1.00000     0.00000
 Structure written by MMmdl.
 55 57  0  0  0  0  0  0  0  0  2 V2000
  151.9981  138.1913  154.6576 C   0  0  0  0  0  0  0  0  0  0  0  0
  150.7778  139.0550  154.9928 C   0  0  2  0  0  0  0  0  0  0  0  0
  149.7897  139.1411  153.8160 C   0  0  0  0  0  0  0  0  0  0  0  0
  148.6743  140.0324  154.1055 N   0  0  0  0  0  0  0  0  0  0  0  0
  147.7218  140.0606  152.9950 C   0  0  0  0  0  0  0  0  0  0  0  0
  146.4982  139.1330  153.1464 C   0  0  0  0  0  0  0  0  0  0  0  0
  146.7960  137.7537  152.7735 N   0  0  0  0  0  0  0  0  0  0  0  0
  145.9003  136.7592  152.7141 C   0  0  0  0  0  0  0  0  0  0  0  0
  144.7127  136.8902  153.0101 O   0  0  0  0  0  0  0  0  0  0  0  0
  146.4653  135.6240  152.2711 N   0  0  0  0  0  0  0  0  0  0  0  0
  145.8151  134.4021  151.9431 C   0  0  0  0  0  0  0  0  0  0  0  0
  144.5272  134.3974  151.3486 C   0  0  0  0  0  0  0  0  0  0  0  0
  143.8743  133.1766  151.0957 C   0  0  0  0  0  0  0  0  0  0  0  0
  144.5115  131.9775  151.4572 C   0  0  0  0  0  0  0  0  0  0  0  0
  145.7305  132.0156  152.0336 N   0  3  0  0  0  0  0  0  0  0  0  0
  146.4178  133.1574  152.2884 C   0  0  0  0  0  0  0  0  0  0  0  0
  147.6927  133.0385  152.8885 N   0  0  0  0  0  0  0  0  0  0  0  0
  147.9934  133.7408  154.1304 C   0  0  0  0  0  0  0  0  0  0  0  0
  149.2951  133.1204  154.6305 C   0  0  0  0  0  0  0  0  0  0  0  0
  149.1521  131.6634  154.2002 C   0  0  0  0  0  0  0  0  0  0  0  0
  148.3731  131.7469  152.8831 C   0  0  0  0  0  0  0  0  0  0  0  0
  149.1954  141.3568  154.4330 C   0  0  0  0  0  0  0  0  0  0  0  0
  150.2119  141.3220  155.5918 C   0  0  1  0  0  0  0  0  0  0  0  0
  149.5591  141.0847  156.9641 C   0  0  0  0  0  0  0  0  0  0  0  0
  151.2379  140.3648  155.3221 O   0  0  0  0  0  0  0  0  0  0  0  0
  151.7011  137.1713  154.4121 H   0  0  0  0  0  0  0  0  0  0  0  0
  152.6852  138.1428  155.5027 H   0  0  0  0  0  0  0  0  0  0  0  0
  152.5458  138.5949  153.8056 H   0  0  0  0  0  0  0  0  0  0  0  0
  150.2767  138.6193  155.8575 H   0  0  0  0  0  0  0  0  0  0  0  0
  150.3141  139.4851  152.9229 H   0  0  0  0  0  0  0  0  0  0  0  0
  149.4142  138.1423  153.5904 H   0  0  0  0  0  0  0  0  0  0  0  0
  147.3784  141.0829  152.8297 H   0  0  0  0  0  0  0  0  0  0  0  0
  148.2432  139.7760  152.0800 H   0  0  0  0  0  0  0  0  0  0  0  0
  146.1410  139.1384  154.1758 H   0  0  0  0  0  0  0  0  0  0  0  0
  145.6717  139.5064  152.5401 H   0  0  0  0  0  0  0  0  0  0  0  0
  147.7498  137.5538  152.5104 H   0  0  0  0  0  0  0  0  0  0  0  0
  147.4343  135.6898  151.9961 H   0  0  0  0  0  0  0  0  0  0  0  0
  144.0186  135.3174  151.1021 H   0  0  0  0  0  0  0  0  0  0  0  0
  142.8937  133.1627  150.6431 H   0  0  0  0  0  0  0  0  0  0  0  0
  144.0851  130.9957  151.3095 H   0  0  0  0  0  0  0  0  0  0  0  0
  148.0930  134.8147  153.9682 H   0  0  0  0  0  0  0  0  0  0  0  0
  147.2023  133.5739  154.8627 H   0  0  0  0  0  0  0  0  0  0  0  0
  150.1464  133.5765  154.1227 H   0  0  0  0  0  0  0  0  0  0  0  0
  149.4375  133.2379  155.7050 H   0  0  0  0  0  0  0  0  0  0  0  0
  150.1108  131.1551  154.0940 H   0  0  0  0  0  0  0  0  0  0  0  0
  148.5642  131.1189  154.9406 H   0  0  0  0  0  0  0  0  0  0  0  0
  147.6771  130.9131  152.7808 H   0  0  0  0  0  0  0  0  0  0  0  0
  149.0647  131.7180  152.0406 H   0  0  0  0  0  0  0  0  0  0  0  0
  149.6782  141.7832  153.5523 H   0  0  0  0  0  0  0  0  0  0  0  0
  148.3822  142.0330  154.6953 H   0  0  0  0  0  0  0  0  0  0  0  0
  150.7033  142.2941  155.6364 H   0  0  0  0  0  0  0  0  0  0  0  0
  148.8596  141.8852  157.2052 H   0  0  0  0  0  0  0  0  0  0  0  0
  150.3112  141.0537  157.7528 H   0  0  0  0  0  0  0  0  0  0  0  0
  149.0039  140.1479  156.9949 H   0  0  0  0  0  0  0  0  0  0  0  0
  146.1656  131.1282  152.2864 H   0  0  0  0  0  0  0  0  0  0  0  0
  1  2  1  0  0  0  0
  1 26  1  0  0  0  0
  1 27  1  0  0  0  0
  1 28  1  0  0  0  0
  2 25  1  0  0  0  0
  2  3  1  0  0  0  0
  2 29  1  0  0  0  0
  3  4  1  0  0  0  0
  3 30  1  0  0  0  0
  3 31  1  0  0  0  0
  4  5  1  0  0  0  0
  4 22  1  0  0  0  0
  5  6  1  0  0  0  0
  5 32  1  0  0  0  0
  5 33  1  0  0  0  0
  6  7  1  0  0  0  0
  6 34  1  0  0  0  0
  6 35  1  0  0  0  0
  7  8  1  0  0  0  0
  7 36  1  0  0  0  0
  8  9  2  0  0  0  0
  8 10  1  0  0  0  0
 10 11  1  0  0  0  0
 10 37  1  0  0  0  0
 11 16  1  0  0  0  0
 11 12  2  0  0  0  0
 12 13  1  0  0  0  0
 12 38  1  0  0  0  0
 13 14  2  0  0  0  0
 13 39  1  0  0  0  0
 14 15  1  0  0  0  0
 14 40  1  0  0  0  0
 15 16  2  0  0  0  0
 15 55  1  0  0  0  0
 16 17  1  0  0  0  0
 17 21  1  0  0  0  0
 17 18  1  0  0  0  0
 18 19  1  0  0  0  0
 18 41  1  0  0  0  0
 18 42  1  0  0  0  0
 19 20  1  0  0  0  0
 19 43  1  0  0  0  0
 19 44  1  0  0  0  0
 20 21  1  0  0  0  0
 20 45  1  0  0  0  0
 20 46  1  0  0  0  0
 21 47  1  0  0  0  0
 21 48  1  0  0  0  0
 22 23  1  0  0  0  0
 22 49  1  0  0  0  0
 22 50  1  0  0  0  0
 23 24  1  0  0  0  0
 23 25  1  0  0  0  0
 23 51  1  0  0  0  0
 24 52  1  0  0  0  0
 24 53  1  0  0  0  0
 24 54  1  0  0  0  0
M  CHG  1  15   1
M  END
> <s_m_source_file>
AV-unprocessed.smi

> <i_m_source_file_index>
1244

> <i_lp_mmshare_version>
43012

> <i_f3d_flags>
0

> <s_epik_input>
W0NIM11bQ0BASF0xW0NIMl1OKFtDSDJdW0NASF0oTzEpW0NIM10pW0NIMl1bQ0gyXVtOSF1DKD1PKVtOSF1jMltjSF1bY0hdW2NIXW5jMk4zW0NIMl1bQ0gyXVtDSDJdW0NIMl0z

> <s_epik_cmdline>
J2VwaWtfcHl0aG9uJywgJy1waCcsICc3LjAnLCAnLXRuJywgJzgnLCAnLW1hJywgJzIwMCcsICctbWV0YWxfYmluZGluZycsICctaW1hZScsICc8aW5maWxlLm1hZT4nLCAnLW9tYWUnLCAnPG91dGZpbGUubWFlPic=

> <r_epik_Ionization_Penalty>
1.38385

> <r_epik_Ionization_Penalty_Charging>
1.11784

> <r_epik_Ionization_Penalty_Neutral>
0.26601

> <r_epik_State_Penalty>
1.46794

> <r_epik_Charging_Adjusted_Penalty>
2.58578

> <i_epik_Tot_Q>
1

> <i_epik_Tot_abs_Q>
1

> <r_epik_Metal_State_Penalty>
1.54908

> <b_epik_Metal_Only>
0

> <s_lp_Force_Field>
OPLS_2005

> <r_lp_Energy>
60.0137

> <b_lp_Chiralities_Consistent>
1

> <s_lp_Variant>
AV-unprocessed.smi:1244-8

> <Gold.Version>
5.8.1

> <Gold.Id.Protein>
6NUR|6NUR_protein|mol2

> <Gold.PLP.Fitness>
45.3396

> <Gold.PLP.PLP>
-39.2016

> <Gold.PLP.part.hbond>
-3.0000

> <Gold.PLP.part.metal>
0.0000

> <Gold.PLP.part.buried>
3.0968

> <Gold.PLP.part.nonpolar>
-39.6399

> <Gold.PLP.part.repulsive>
0.7994

> <Gold.PLP.ligand.clash>
0.0000

> <Gold.PLP.ligand.torsion>
1.1665

> <Gold.PLP.Chemscore.Hbond>
2.6819

> <Gold.PLP.Chemscore.CHOScore>
0.0000

> <Gold.PLP.Chemscore.Metal>
0.0000

> <Gold.Chemscore.Hbonds>
donor molecule, donor type, donor heavy atom, donor atom, acceptor molecule, acceptor atom, score
      L1  H     7    36       P1  7948  0.93
      L1  H    10    37       P1  7948  1.00
      P1  H  7989  7998       L1    25  0.74

> <Gold.PLP.Chemscore.Internal.Correction>
0.4254

> <Gold.Rescore>
     Score         DG    S(hbond)    S(metal)    S(lipo)     H(rot)  DE(clash)    DE(int)     intcor
     14.83     -19.19       1.85        0.00      98.95       1.58       1.77       2.59       ----

> <Gold.Chemscore.Fitness>
14.8334

> <Gold.Chemscore.DG>
-19.1854

> <Gold.Chemscore.ZeroCoef>
-5.4800

> <Gold.Chemscore.Hbond>
1.8480

> <Gold.Chemscore.Metal>
0.0000

> <Gold.Chemscore.Lipo>
98.9488

> <Gold.Chemscore.Internal_Hbond>
0.0000

> <Gold.Chemscore.DEClash>
1.7662

> <Gold.Chemscore.DEInternal>
2.5858

> <Gold.Chemscore.Rot>
1.5797

> <Gold.Chemscore.Internal.Correction>
   9.000000E+99

> <Gold.Chemscore.Hbonds>
donor molecule, donor type, donor heavy atom, donor atom, acceptor molecule, acceptor atom, score
      L1  H     7    36       P1  7948  0.89
      L1  H    10    37       P1  7948  0.98
      P1  H  7989  7998       L1    25  0.02

> <Gold.Chemscore.Hbond.Weighted>
-6.1723

> <Gold.Chemscore.Metal.Weighted>
-0.0000

> <Gold.Chemscore.Lipo.Weighted>
-11.5770

> <Gold.Chemscore.Internal_Hbond.Weighted>
0.0000

> <Gold.Chemscore.DEClash.Weighted>
1.7662

> <Gold.Chemscore.DEInternal.Weighted>
2.5858

> <Gold.Chemscore.Rot.Weighted>
4.0439

> <Gold.Chemscore.Internal.Correction.Weighted>
   9.000000E+99

> <Gold.Protein.RotatedTorsions>
[ 6907 6896 6895 6894 ] final -160.13 input  -60.11 | X-H torsion
[ 7974 7965 7964 7962 ] final  162.62 input  175.53 | X-H torsion
[ 8008 7997 7996 7995 ] final  -41.10 input   59.86 | X-H torsion
[ 10167 10162 10161 10158 ] final  -59.37 input  -65.29 | X-H torsion
[ 10718 10713 10712 10709 ] final -101.19 input   66.30 | X-H torsion
[ 10763 10752 10751 10750 ] final   97.31 input  -60.55 | X-H torsion
[ 11005 11000 10999 10996 ] final  -60.02 input  -57.11 | X-H torsion

> <Gold.Protein.ActiveResidues>
 VAL166  LYS551  ARG553  GLY616  TRP617  ASP618  TYR619  PRO620  LYS621  CYS622 
 ASP623  PHE694  ASN695  SER759  ASP760  ASP761  ALA762  ILE779  LEU786  VAL792 
 PHE793  MET794  SER795  GLU796  ALA797  LYS798  CYS799  TRP800  GLU811  SER814 

> <Gold.Protein.RotatedAtoms>
  151.3443  133.3950  159.2673 H   0  0  0  0  0  0  0  0  0  0  0  0  # atno 6907 bound_to 6896
  150.9853  134.9200  159.7878 H   0  0  0  0  0  0  0  0  0  0  0  0  # atno 6908 bound_to 6896
  152.5230  134.3407  159.9268 H   0  0  0  0  0  0  0  0  0  0  0  0  # atno 6909 bound_to 6896
  144.7628  139.8066  143.6326 H   0  0  0  0  0  0  0  0  0  0  0  0  # atno 7974 bound_to 7965
  154.4006  140.1508  156.3136 H   0  0  0  0  0  0  0  0  0  0  0  0  # atno 8008 bound_to 7997
  155.8593  140.3454  155.5724 H   0  0  0  0  0  0  0  0  0  0  0  0  # atno 8009 bound_to 7997
  155.7898  140.0855  157.2005 H   0  0  0  0  0  0  0  0  0  0  0  0  # atno 8010 bound_to 7997
  140.6139  143.2396  151.5644 H   0  0  0  0  0  0  0  0  0  0  0  0  # atno 10167 bound_to 10162
  156.0187  130.5362  150.6927 H   0  0  0  0  0  0  0  0  0  0  0  0  # atno 10718 bound_to 10713
  153.2753  135.4188  155.1027 H   0  0  0  0  0  0  0  0  0  0  0  0  # atno 10763 bound_to 10752
  154.8470  135.3482  154.6187 H   0  0  0  0  0  0  0  0  0  0  0  0  # atno 10764 bound_to 10752
  153.6607  135.7048  153.5236 H   0  0  0  0  0  0  0  0  0  0  0  0  # atno 10765 bound_to 10752
  141.1271  133.6619  156.5160 H   0  0  0  0  0  0  0  0  0  0  0  0  # atno 11005 bound_to 11000
  146.1707  139.4856  142.9929 LP  0  0  0  0  0  0  0  0  0  0  0  0  # atno 17320 bound_to 7965
  145.6566  141.0250  143.1732 LP  0  0  0  0  0  0  0  0  0  0  0  0  # atno 17321 bound_to 7965
  139.5383  144.2719  152.1298 LP  0  0  0  0  0  0  0  0  0  0  0  0  # atno 17342 bound_to 10162
  140.1924  144.4739  150.6472 LP  0  0  0  0  0  0  0  0  0  0  0  0  # atno 17343 bound_to 10162
  157.4605  131.0882  151.0751 LP  0  0  0  0  0  0  0  0  0  0  0  0  # atno 17370 bound_to 10713
  157.1240  130.6074  149.5512 LP  0  0  0  0  0  0  0  0  0  0  0  0  # atno 17371 bound_to 10713
  140.4330  134.7084  157.4952 LP  0  0  0  0  0  0  0  0  0  0  0  0  # atno 17394 bound_to 11000
  140.0281  134.6447  155.9145 LP  0  0  0  0  0  0  0  0  0  0  0  0  # atno 17395 bound_to 11000

$$$$
