AV-unprocessed.smi:3166|AV-procd|sdf|12095|dock6
  -GOLD-   2272017533D 1   1.00000     0.00000
 Structure written by MMmdl.
 40 41  0  0  0  0  0  0  0  0  1 V2000
  147.9247  141.9996  154.0204 C   0  0  0  0  0  0  0  0  0  0  0  0
  149.2531  141.5111  154.6351 C   0  0  2  0  0  0  0  0  0  0  0  0
  149.1947  140.0302  155.0646 C   0  0  0  0  0  0  0  0  0  0  0  0
  150.4242  139.3091  154.7836 N   0  0  0  0  0  0  0  0  0  0  0  0
  150.5994  137.9522  154.6085 C   0  0  0  0  0  0  0  0  0  0  0  0
  151.9256  137.7415  154.3619 C   0  0  0  0  0  0  0  0  0  0  0  0
  152.4876  139.0483  154.3985 C   0  0  0  0  0  0  0  0  0  0  0  0
  151.5865  139.9844  154.6490 N   0  0  0  0  0  0  0  0  0  0  0  0
  149.6549  142.3269  155.7851 N   0  0  0  0  0  0  0  0  0  0  0  0
  150.8199  141.8420  156.5315 C   0  0  0  0  0  0  0  0  0  0  0  0
  150.9944  142.5607  157.8888 C   0  0  0  0  0  0  0  0  0  0  0  0
  149.7040  142.6792  158.4605 O   0  0  0  0  0  0  0  0  0  0  0  0
  151.9322  141.7931  158.8560 C   0  0  0  0  0  0  0  0  0  0  0  0
  152.2270  142.5705  160.1517 C   0  0  0  0  0  0  0  0  0  0  0  0
  152.7806  143.9708  159.8549 C   0  0  0  0  0  0  0  0  0  0  0  0
  151.8205  144.7567  158.9519 C   0  0  0  0  0  0  0  0  0  0  0  0
  151.5309  143.9922  157.6478 C   0  0  0  0  0  0  0  0  0  0  0  0
  147.6186  141.3753  153.1810 H   0  0  0  0  0  0  0  0  0  0  0  0
  148.0030  143.0145  153.6326 H   0  0  0  0  0  0  0  0  0  0  0  0
  147.1195  141.9814  154.7552 H   0  0  0  0  0  0  0  0  0  0  0  0
  150.0235  141.5948  153.8674 H   0  0  0  0  0  0  0  0  0  0  0  0
  149.0036  139.9561  156.1361 H   0  0  0  0  0  0  0  0  0  0  0  0
  148.3647  139.5258  154.5660 H   0  0  0  0  0  0  0  0  0  0  0  0
  149.7753  137.2574  154.6775 H   0  0  0  0  0  0  0  0  0  0  0  0
  152.4190  136.7980  154.1809 H   0  0  0  0  0  0  0  0  0  0  0  0
  153.5163  139.3426  154.2507 H   0  0  0  0  0  0  0  0  0  0  0  0
  148.8684  142.4308  156.4182 H   0  0  0  0  0  0  0  0  0  0  0  0
  150.7085  140.7719  156.7107 H   0  0  0  0  0  0  0  0  0  0  0  0
  151.7302  141.9618  155.9442 H   0  0  0  0  0  0  0  0  0  0  0  0
  149.7353  142.3300  159.3382 H   0  0  0  0  0  0  0  0  0  0  0  0
  151.5088  140.8222  159.1155 H   0  0  0  0  0  0  0  0  0  0  0  0
  152.8759  141.5860  158.3495 H   0  0  0  0  0  0  0  0  0  0  0  0
  151.3159  142.6564  160.7450 H   0  0  0  0  0  0  0  0  0  0  0  0
  152.9383  142.0139  160.7623 H   0  0  0  0  0  0  0  0  0  0  0  0
  152.9421  144.5129  160.7871 H   0  0  0  0  0  0  0  0  0  0  0  0
  153.7547  143.8870  159.3713 H   0  0  0  0  0  0  0  0  0  0  0  0
  150.8882  144.9466  159.4853 H   0  0  0  0  0  0  0  0  0  0  0  0
  152.2457  145.7340  158.7217 H   0  0  0  0  0  0  0  0  0  0  0  0
  152.4537  143.9367  157.0687 H   0  0  0  0  0  0  0  0  0  0  0  0
  150.8285  144.5618  157.0379 H   0  0  0  0  0  0  0  0  0  0  0  0
  1  2  1  0  0  0  0
  1 18  1  0  0  0  0
  1 19  1  0  0  0  0
  1 20  1  0  0  0  0
  2  3  1  0  0  0  0
  2  9  1  0  0  0  0
  2 21  1  0  0  0  0
  3  4  1  0  0  0  0
  3 22  1  0  0  0  0
  3 23  1  0  0  0  0
  4  8  1  0  0  0  0
  4  5  1  0  0  0  0
  5  6  2  0  0  0  0
  5 24  1  0  0  0  0
  6  7  1  0  0  0  0
  6 25  1  0  0  0  0
  7  8  2  0  0  0  0
  7 26  1  0  0  0  0
  9 10  1  0  0  0  0
  9 27  1  0  0  0  0
 10 11  1  0  0  0  0
 10 28  1  0  0  0  0
 10 29  1  0  0  0  0
 11 17  1  0  0  0  0
 11 12  1  0  0  0  0
 11 13  1  0  0  0  0
 12 30  1  0  0  0  0
 13 14  1  0  0  0  0
 13 31  1  0  0  0  0
 13 32  1  0  0  0  0
 14 15  1  0  0  0  0
 14 33  1  0  0  0  0
 14 34  1  0  0  0  0
 15 16  1  0  0  0  0
 15 35  1  0  0  0  0
 15 36  1  0  0  0  0
 16 17  1  0  0  0  0
 16 37  1  0  0  0  0
 16 38  1  0  0  0  0
 17 39  1  0  0  0  0
 17 40  1  0  0  0  0
M  END
> <s_m_source_file>
AV-unprocessed.smi

> <i_m_source_file_index>
3166

> <i_lp_mmshare_version>
43012

> <i_f3d_flags>
0

> <s_epik_input>
bjFbY0hdW2NIXVtjSF1uMVtDSDJdW0NAQEhdKFtDSDNdKVtOSF1bQ0gyXUMyKFtPSF0pW0NIMl1bQ0gyXVtDSDJdW0NIMl1bQ0gyXTI=

> <s_epik_cmdline>
J2VwaWtfcHl0aG9uJywgJy1waCcsICc3LjAnLCAnLXRuJywgJzgnLCAnLW1hJywgJzIwMCcsICctbWV0YWxfYmluZGluZycsICctaW1hZScsICc8aW5maWxlLm1hZT4nLCAnLW9tYWUnLCAnPG91dGZpbGUubWFlPic=

> <r_lp_tautomer_probability>
1

> <r_epik_Ionization_Penalty>
2.35964

> <r_epik_Ionization_Penalty_Charging>
0

> <r_epik_Ionization_Penalty_Neutral>
2.35964

> <r_epik_State_Penalty>
2.51455

> <r_epik_Charging_Adjusted_Penalty>
2.51455

> <i_epik_Tot_Q>
0

> <i_epik_Tot_abs_Q>
0

> <r_epik_Metal_State_Penalty>
2.51451

> <b_epik_Metal_Only>
0

> <s_lp_Force_Field>
OPLS_2005

> <r_lp_Energy>
22.8123

> <b_lp_Chiralities_Consistent>
1

> <s_lp_Variant>
AV-unprocessed.smi:3166-3

> <Gold.Version>
5.8.1

> <Gold.Id.Protein>
6NUR|6NUR_protein|mol2

> <Gold.PLP.Fitness>
43.5893

> <Gold.PLP.PLP>
-42.7966

> <Gold.PLP.part.hbond>
-1.9749

> <Gold.PLP.part.metal>
0.0000

> <Gold.PLP.part.buried>
-3.9123

> <Gold.PLP.part.nonpolar>
-37.2195

> <Gold.PLP.part.repulsive>
0.0677

> <Gold.PLP.ligand.clash>
0.0000

> <Gold.PLP.ligand.torsion>
1.1226

> <Gold.PLP.Chemscore.Hbond>
1.0000

> <Gold.PLP.Chemscore.CHOScore>
0.0000

> <Gold.PLP.Chemscore.Metal>
0.0000

> <Gold.Chemscore.Hbonds>
donor molecule, donor type, donor heavy atom, donor atom, acceptor molecule, acceptor atom, score
      P1  H  7989  7998       L1     8  0.80

> <Gold.PLP.Chemscore.Internal.Correction>
0.0379

> <Gold.Rescore>
     Score         DG    S(hbond)    S(metal)    S(lipo)     H(rot)  DE(clash)    DE(int)     intcor
     15.81     -16.96       0.97        0.00     116.85       2.12       0.02       1.12       ----

> <Gold.Chemscore.Fitness>
15.8133

> <Gold.Chemscore.DG>
-16.9596

> <Gold.Chemscore.ZeroCoef>
-5.4800

> <Gold.Chemscore.Hbond>
0.9693

> <Gold.Chemscore.Metal>
0.0000

> <Gold.Chemscore.Lipo>
116.8522

> <Gold.Chemscore.Internal_Hbond>
0.0000

> <Gold.Chemscore.DEClash>
0.0237

> <Gold.Chemscore.DEInternal>
1.1227

> <Gold.Chemscore.Rot>
2.1209

> <Gold.Chemscore.Internal.Correction>
   9.000000E+99

> <Gold.Chemscore.Hbonds>
donor molecule, donor type, donor heavy atom, donor atom, acceptor molecule, acceptor atom, score
      P1  H  7989  7998       L1     8  0.32

> <Gold.Chemscore.Hbond.Weighted>
-3.2375

> <Gold.Chemscore.Metal.Weighted>
-0.0000

> <Gold.Chemscore.Lipo.Weighted>
-13.6717

> <Gold.Chemscore.Internal_Hbond.Weighted>
0.0000

> <Gold.Chemscore.DEClash.Weighted>
0.0237

> <Gold.Chemscore.DEInternal.Weighted>
1.1227

> <Gold.Chemscore.Rot.Weighted>
5.4296

> <Gold.Chemscore.Internal.Correction.Weighted>
   9.000000E+99

> <Gold.Protein.RotatedTorsions>
[ 6907 6896 6895 6894 ] final  113.96 input  -60.11 | X-H torsion
[ 7974 7965 7964 7962 ] final -172.81 input  175.53 | X-H torsion
[ 8008 7997 7996 7995 ] final  164.62 input   59.86 | X-H torsion
[ 10167 10162 10161 10158 ] final   53.39 input  -65.29 | X-H torsion
[ 10718 10713 10712 10709 ] final  106.28 input   66.30 | X-H torsion
[ 10763 10752 10751 10750 ] final   33.30 input  -60.55 | X-H torsion
[ 11005 11000 10999 10996 ] final -104.04 input  -57.11 | X-H torsion

> <Gold.Protein.ActiveResidues>
 VAL166  LYS551  ARG553  GLY616  TRP617  ASP618  TYR619  PRO620  LYS621  CYS622 
 ASP623  PHE694  ASN695  SER759  ASP760  ASP761  ALA762  ILE779  LEU786  VAL792 
 PHE793  MET794  SER795  GLU796  ALA797  LYS798  CYS799  TRP800  GLU811  SER814 

> <Gold.Protein.RotatedAtoms>
  152.4830  133.8302  159.7099 H   0  0  0  0  0  0  0  0  0  0  0  0  # atno 6907 bound_to 6896
  150.8895  133.7253  159.2915 H   0  0  0  0  0  0  0  0  0  0  0  0  # atno 6908 bound_to 6896
  151.4731  135.1051  159.9809 H   0  0  0  0  0  0  0  0  0  0  0  0  # atno 6909 bound_to 6896
  144.7143  140.1716  143.6367 H   0  0  0  0  0  0  0  0  0  0  0  0  # atno 7974 bound_to 7965
  156.1866  140.1692  156.8174 H   0  0  0  0  0  0  0  0  0  0  0  0  # atno 8008 bound_to 7997
  154.5421  140.0734  156.8560 H   0  0  0  0  0  0  0  0  0  0  0  0  # atno 8009 bound_to 7997
  155.3194  140.3372  155.4244 H   0  0  0  0  0  0  0  0  0  0  0  0  # atno 8010 bound_to 7997
  140.2413  144.3580  150.6379 H   0  0  0  0  0  0  0  0  0  0  0  0  # atno 10167 bound_to 10162
  157.6674  131.0847  150.5983 H   0  0  0  0  0  0  0  0  0  0  0  0  # atno 10718 bound_to 10713
  153.0218  135.6390  154.1490 H   0  0  0  0  0  0  0  0  0  0  0  0  # atno 10763 bound_to 10752
  154.1224  135.2846  155.3207 H   0  0  0  0  0  0  0  0  0  0  0  0  # atno 10764 bound_to 10752
  154.6254  135.5511  153.7683 H   0  0  0  0  0  0  0  0  0  0  0  0  # atno 10765 bound_to 10752
  141.1118  133.8690  157.1562 H   0  0  0  0  0  0  0  0  0  0  0  0  # atno 11005 bound_to 11000
  145.8938  139.2391  143.1534 LP  0  0  0  0  0  0  0  0  0  0  0  0  # atno 17320 bound_to 7965
  145.9877  140.8629  143.0082 LP  0  0  0  0  0  0  0  0  0  0  0  0  # atno 17321 bound_to 7965
  140.6111  143.2169  151.6884 LP  0  0  0  0  0  0  0  0  0  0  0  0  # atno 17342 bound_to 10162
  139.5076  144.3639  152.0535 LP  0  0  0  0  0  0  0  0  0  0  0  0  # atno 17343 bound_to 10162
  156.6284  130.4425  149.5796 LP  0  0  0  0  0  0  0  0  0  0  0  0  # atno 17370 bound_to 10713
  156.2301  130.6789  151.1455 LP  0  0  0  0  0  0  0  0  0  0  0  0  # atno 17371 bound_to 10713
  140.0017  135.0025  157.0204 LP  0  0  0  0  0  0  0  0  0  0  0  0  # atno 17394 bound_to 11000
  140.4754  134.1344  155.7209 LP  0  0  0  0  0  0  0  0  0  0  0  0  # atno 17395 bound_to 11000

$$$$
