AV-unprocessed.smi:153|AV-procd|sdf|1259|dock4
  -GOLD-   2262018503D 1   1.00000     0.00000
 Structure written by MMmdl.
 59 62  0  0  0  0  0  0  0  0  1 V2000
  151.6709  144.2875  157.4598 C   0  0  0  0  0  0  0  0  0  0  0  0
  152.4264  144.3201  158.7980 C   0  0  1  0  0  0  0  0  0  0  0  0
  151.8550  145.3090  159.6459 O   0  0  0  0  0  0  0  0  0  0  0  0
  152.1793  144.9718  160.9822 C   0  0  0  0  0  0  0  0  0  0  0  0
  151.9359  143.4708  161.0039 C   0  0  0  0  0  0  0  0  0  0  0  0
  152.4382  143.0091  159.6316 C   0  0  1  0  0  0  0  0  0  0  0  0
  151.5246  142.0473  159.1295 O   0  0  0  0  0  0  0  0  0  0  0  0
  153.8547  142.3771  159.6586 C   0  0  0  0  0  0  0  0  0  0  0  0
  153.9604  141.1883  160.4919 N   0  0  0  0  0  0  0  0  0  0  0  0
  154.0266  141.1485  161.8639 C   0  0  0  0  0  0  0  0  0  0  0  0
  154.1290  139.9549  162.3762 N   0  0  0  0  0  0  0  0  0  0  0  0
  154.1180  139.0939  161.2824 C   0  0  0  0  0  0  0  0  0  0  0  0
  154.2040  137.6748  161.1109 C   0  0  0  0  0  0  0  0  0  0  0  0
  154.3675  136.7627  162.1175 N   0  0  0  0  0  0  0  0  0  0  0  0
  154.1275  137.1892  163.4952 C   0  0  0  0  0  0  0  0  0  0  0  0
  154.2674  135.3295  161.8440 C   0  0  0  0  0  0  0  0  0  0  0  0
  155.3185  134.4927  162.6100 C   0  0  2  0  0  0  0  0  0  0  0  0
  156.6227  134.8305  162.1840 O   0  0  0  0  0  0  0  0  0  0  0  0
  155.1142  132.9663  162.4838 C   0  0  0  0  0  0  0  0  0  0  0  0
  153.8070  132.4388  162.8839 N   0  0  0  0  0  0  0  0  0  0  0  0
  153.6899  132.3922  164.3378 C   0  0  0  0  0  0  0  0  0  0  0  0
  152.3250  131.8462  164.7899 C   0  0  0  0  0  0  0  0  0  0  0  0
  152.1201  130.5547  164.2277 O   0  0  0  0  0  0  0  0  0  0  0  0
  152.1789  130.5609  162.8054 C   0  0  0  0  0  0  0  0  0  0  0  0
  153.5419  131.1066  162.3454 C   0  0  0  0  0  0  0  0  0  0  0  0
  154.1236  137.2140  159.8322 N   0  0  0  0  0  0  0  0  0  0  0  0
  153.9937  138.0522  158.8016 C   0  0  0  0  0  0  0  0  0  0  0  0
  153.9249  139.3822  158.8152 N   0  0  0  0  0  0  0  0  0  0  0  0
  153.9905  139.8643  160.0880 C   0  0  0  0  0  0  0  0  0  0  0  0
  152.0879  143.5345  156.7905 H   0  0  0  0  0  0  0  0  0  0  0  0
  151.7387  145.2515  156.9554 H   0  0  0  0  0  0  0  0  0  0  0  0
  150.6127  144.0663  157.6030 H   0  0  0  0  0  0  0  0  0  0  0  0
  153.4525  144.6368  158.6039 H   0  0  0  0  0  0  0  0  0  0  0  0
  153.2263  145.2046  161.1836 H   0  0  0  0  0  0  0  0  0  0  0  0
  151.5573  145.5111  161.6967 H   0  0  0  0  0  0  0  0  0  0  0  0
  152.4147  142.9835  161.8516 H   0  0  0  0  0  0  0  0  0  0  0  0
  150.8621  143.2990  161.0996 H   0  0  0  0  0  0  0  0  0  0  0  0
  151.6254  141.2513  159.6286 H   0  0  0  0  0  0  0  0  0  0  0  0
  154.1632  142.1087  158.6472 H   0  0  0  0  0  0  0  0  0  0  0  0
  154.5842  143.1061  160.0137 H   0  0  0  0  0  0  0  0  0  0  0  0
  154.0048  142.0377  162.4774 H   0  0  0  0  0  0  0  0  0  0  0  0
  154.7819  138.0188  163.7647 H   0  0  0  0  0  0  0  0  0  0  0  0
  154.3210  136.3785  164.1979 H   0  0  0  0  0  0  0  0  0  0  0  0
  153.0915  137.5039  163.6266 H   0  0  0  0  0  0  0  0  0  0  0  0
  153.2574  134.9946  162.0688 H   0  0  0  0  0  0  0  0  0  0  0  0
  154.3682  135.1536  160.7724 H   0  0  0  0  0  0  0  0  0  0  0  0
  155.2756  134.7258  163.6744 H   0  0  0  0  0  0  0  0  0  0  0  0
  156.7036  135.7718  162.1893 H   0  0  0  0  0  0  0  0  0  0  0  0
  155.3627  132.6357  161.4739 H   0  0  0  0  0  0  0  0  0  0  0  0
  155.8661  132.5070  163.1268 H   0  0  0  0  0  0  0  0  0  0  0  0
  154.4829  131.7683  164.7530 H   0  0  0  0  0  0  0  0  0  0  0  0
  153.8300  133.3912  164.7525 H   0  0  0  0  0  0  0  0  0  0  0  0
  152.2866  131.7723  165.8769 H   0  0  0  0  0  0  0  0  0  0  0  0
  151.5199  132.5162  164.4844 H   0  0  0  0  0  0  0  0  0  0  0  0
  152.0334  129.5453  162.4375 H   0  0  0  0  0  0  0  0  0  0  0  0
  151.3657  131.1672  162.4034 H   0  0  0  0  0  0  0  0  0  0  0  0
  153.5534  131.1293  161.2568 H   0  0  0  0  0  0  0  0  0  0  0  0
  154.3300  130.4186  162.6549 H   0  0  0  0  0  0  0  0  0  0  0  0
  153.9434  137.5902  157.8266 H   0  0  0  0  0  0  0  0  0  0  0  0
  1  2  1  0  0  0  0
  1 30  1  0  0  0  0
  1 31  1  0  0  0  0
  1 32  1  0  0  0  0
  2  6  1  0  0  0  0
  2  3  1  0  0  0  0
  2 33  1  0  0  0  0
  3  4  1  0  0  0  0
  4  5  1  0  0  0  0
  4 34  1  0  0  0  0
  4 35  1  0  0  0  0
  5  6  1  0  0  0  0
  5 36  1  0  0  0  0
  5 37  1  0  0  0  0
  6  7  1  0  0  0  0
  6  8  1  0  0  0  0
  7 38  1  0  0  0  0
  8  9  1  0  0  0  0
  8 39  1  0  0  0  0
  8 40  1  0  0  0  0
  9 29  1  0  0  0  0
  9 10  1  0  0  0  0
 10 11  2  0  0  0  0
 10 41  1  0  0  0  0
 11 12  1  0  0  0  0
 12 29  2  0  0  0  0
 12 13  1  0  0  0  0
 13 14  1  0  0  0  0
 13 26  2  0  0  0  0
 14 15  1  0  0  0  0
 14 16  1  0  0  0  0
 15 42  1  0  0  0  0
 15 43  1  0  0  0  0
 15 44  1  0  0  0  0
 16 17  1  0  0  0  0
 16 45  1  0  0  0  0
 16 46  1  0  0  0  0
 17 18  1  0  0  0  0
 17 19  1  0  0  0  0
 17 47  1  0  0  0  0
 18 48  1  0  0  0  0
 19 20  1  0  0  0  0
 19 49  1  0  0  0  0
 19 50  1  0  0  0  0
 20 25  1  0  0  0  0
 20 21  1  0  0  0  0
 21 22  1  0  0  0  0
 21 51  1  0  0  0  0
 21 52  1  0  0  0  0
 22 23  1  0  0  0  0
 22 53  1  0  0  0  0
 22 54  1  0  0  0  0
 23 24  1  0  0  0  0
 24 25  1  0  0  0  0
 24 55  1  0  0  0  0
 24 56  1  0  0  0  0
 25 57  1  0  0  0  0
 25 58  1  0  0  0  0
 26 27  1  0  0  0  0
 27 28  2  0  0  0  0
 27 59  1  0  0  0  0
 28 29  1  0  0  0  0
M  END
> <s_m_source_file>
AV-unprocessed.smi

> <i_m_source_file_index>
153

> <i_lp_mmshare_version>
43012

> <i_f3d_flags>
0

> <s_epik_input>
W0NIMl0xW0NIMl1PW0NAQEhdKFtDSDNdKVtDQEBdMShbT0hdKVtDSDJdbihbY0hdbjIpYyhjMjMpbltjSF1uYzNOKFtDSDNdKVtDSDJdW0NASF0oW09IXSlbQ0gyXU40W0NIMl1bQ0gyXU9bQ0gyXVtDSDJdNA==

> <s_epik_cmdline>
J2VwaWtfcHl0aG9uJywgJy1waCcsICc3LjAnLCAnLXRuJywgJzgnLCAnLW1hJywgJzIwMCcsICctbWV0YWxfYmluZGluZycsICctaW1hZScsICc8aW5maWxlLm1hZT4nLCAnLW9tYWUnLCAnPG91dGZpbGUubWFlPic=

> <r_lp_tautomer_probability>
1

> <r_epik_Ionization_Penalty>
0.424123

> <r_epik_Ionization_Penalty_Charging>
0

> <r_epik_Ionization_Penalty_Neutral>
0.424123

> <r_epik_State_Penalty>
0.421495

> <r_epik_Charging_Adjusted_Penalty>
0.421495

> <i_epik_Tot_Q>
0

> <i_epik_Tot_abs_Q>
0

> <r_epik_Metal_State_Penalty>
0.421223

> <b_epik_Metal_Only>
0

> <s_lp_Force_Field>
OPLS_2005

> <r_lp_Energy>
57.6451

> <b_lp_Chiralities_Consistent>
1

> <s_lp_Variant>
AV-unprocessed.smi:153-10

> <Gold.Version>
5.8.1

> <Gold.Id.Protein>
6NUR|6NUR_protein|mol2

> <Gold.PLP.Fitness>
52.7065

> <Gold.PLP.PLP>
-50.2757

> <Gold.PLP.part.hbond>
-1.0000

> <Gold.PLP.part.metal>
0.0000

> <Gold.PLP.part.buried>
-4.3648

> <Gold.PLP.part.nonpolar>
-45.2652

> <Gold.PLP.part.repulsive>
0.1667

> <Gold.PLP.ligand.clash>
0.0000

> <Gold.PLP.ligand.torsion>
0.6127

> <Gold.PLP.Chemscore.Hbond>
1.0000

> <Gold.PLP.Chemscore.CHOScore>
0.0000

> <Gold.PLP.Chemscore.Metal>
0.0000

> <Gold.Chemscore.Hbonds>
donor molecule, donor type, donor heavy atom, donor atom, acceptor molecule, acceptor atom, score
      P1  H  7997  8009       L1    28  1.00

> <Gold.PLP.Chemscore.Internal.Correction>
0.6563

> <Gold.Rescore>
     Score         DG    S(hbond)    S(metal)    S(lipo)     H(rot)  DE(clash)    DE(int)     intcor
     12.58     -14.32       0.81        0.00     129.39       3.52       0.02       1.72       ----

> <Gold.Chemscore.Fitness>
12.5752

> <Gold.Chemscore.DG>
-14.3209

> <Gold.Chemscore.ZeroCoef>
-5.4800

> <Gold.Chemscore.Hbond>
0.8101

> <Gold.Chemscore.Metal>
0.0000

> <Gold.Chemscore.Lipo>
129.3900

> <Gold.Chemscore.Internal_Hbond>
0.0000

> <Gold.Chemscore.DEClash>
0.0240

> <Gold.Chemscore.DEInternal>
1.7217

> <Gold.Chemscore.Rot>
3.5170

> <Gold.Chemscore.Internal.Correction>
   9.000000E+99

> <Gold.Chemscore.Hbonds>
donor molecule, donor type, donor heavy atom, donor atom, acceptor molecule, acceptor atom, score
      P1  H  7997  8009       L1    28  0.60

> <Gold.Chemscore.Hbond.Weighted>
-2.7059

> <Gold.Chemscore.Metal.Weighted>
-0.0000

> <Gold.Chemscore.Lipo.Weighted>
-15.1386

> <Gold.Chemscore.Internal_Hbond.Weighted>
0.0000

> <Gold.Chemscore.DEClash.Weighted>
0.0240

> <Gold.Chemscore.DEInternal.Weighted>
1.7217

> <Gold.Chemscore.Rot.Weighted>
9.0036

> <Gold.Chemscore.Internal.Correction.Weighted>
   9.000000E+99

> <Gold.Protein.RotatedTorsions>
[ 6907 6896 6895 6894 ] final   17.28 input  -60.11 | X-H torsion
[ 7974 7965 7964 7962 ] final   -6.60 input  175.53 | X-H torsion
[ 8008 7997 7996 7995 ] final  136.15 input   59.86 | X-H torsion
[ 10167 10162 10161 10158 ] final -134.77 input  -65.29 | X-H torsion
[ 10718 10713 10712 10709 ] final  -66.59 input   66.30 | X-H torsion
[ 10763 10752 10751 10750 ] final  161.75 input  -60.55 | X-H torsion
[ 11005 11000 10999 10996 ] final   26.20 input  -57.11 | X-H torsion

> <Gold.Protein.ActiveResidues>
 VAL166  LYS551  ARG553  GLY616  TRP617  ASP618  TYR619  PRO620  LYS621  CYS622 
 ASP623  PHE694  ASN695  SER759  ASP760  ASP761  ALA762  ILE779  LEU786  VAL792 
 PHE793  MET794  SER795  GLU796  ALA797  LYS798  CYS799  TRP800  GLU811  SER814 

> <Gold.Protein.RotatedAtoms>
  151.8471  135.0570  160.0454 H   0  0  0  0  0  0  0  0  0  0  0  0  # atno 6907 bound_to 6896
  152.2764  133.5425  159.5479 H   0  0  0  0  0  0  0  0  0  0  0  0  # atno 6908 bound_to 6896
  150.7172  134.0541  159.3851 H   0  0  0  0  0  0  0  0  0  0  0  0  # atno 6909 bound_to 6896
  146.2327  140.2194  142.8337 H   0  0  0  0  0  0  0  0  0  0  0  0  # atno 7974 bound_to 7965
  156.3004  140.2452  156.3698 H   0  0  0  0  0  0  0  0  0  0  0  0  # atno 8008 bound_to 7997
  154.8799  140.0413  157.1795 H   0  0  0  0  0  0  0  0  0  0  0  0  # atno 8009 bound_to 7997
  154.8707  140.2934  155.5487 H   0  0  0  0  0  0  0  0  0  0  0  0  # atno 8010 bound_to 7997
  139.8847  143.6796  152.2622 H   0  0  0  0  0  0  0  0  0  0  0  0  # atno 10167 bound_to 10162
  156.0604  130.4264  150.1731 H   0  0  0  0  0  0  0  0  0  0  0  0  # atno 10718 bound_to 10713
  154.2677  135.2766  155.2751 H   0  0  0  0  0  0  0  0  0  0  0  0  # atno 10763 bound_to 10752
  154.5328  135.5725  153.6777 H   0  0  0  0  0  0  0  0  0  0  0  0  # atno 10764 bound_to 10752
  152.9950  135.6232  154.2831 H   0  0  0  0  0  0  0  0  0  0  0  0  # atno 10765 bound_to 10752
  140.3396  134.2347  155.7691 H   0  0  0  0  0  0  0  0  0  0  0  0  # atno 11005 bound_to 11000
  144.9644  140.8307  143.5494 LP  0  0  0  0  0  0  0  0  0  0  0  0  # atno 17320 bound_to 7965
  145.2168  139.2178  143.5114 LP  0  0  0  0  0  0  0  0  0  0  0  0  # atno 17321 bound_to 7965
  139.7164  144.7611  151.1027 LP  0  0  0  0  0  0  0  0  0  0  0  0  # atno 17342 bound_to 10162
  140.7738  143.5264  150.9475 LP  0  0  0  0  0  0  0  0  0  0  0  0  # atno 17343 bound_to 10162
  156.9800  130.9861  151.3439 LP  0  0  0  0  0  0  0  0  0  0  0  0  # atno 17370 bound_to 10713
  157.5608  130.8244  149.8263 LP  0  0  0  0  0  0  0  0  0  0  0  0  # atno 17371 bound_to 10713
  141.2042  133.7893  157.0300 LP  0  0  0  0  0  0  0  0  0  0  0  0  # atno 17394 bound_to 11000
  140.0792  134.9658  157.1596 LP  0  0  0  0  0  0  0  0  0  0  0  0  # atno 17395 bound_to 11000

$$$$
