AV-unprocessed.smi:767|AV-procd|sdf|3666|dock9
  -GOLD-   22720 1 73D 1   1.00000     0.00000
 Structure written by MMmdl.
 48 50  0  0  0  0  0  0  0  0  2 V2000
  143.7208  132.8101  148.1562 C   0  0  0  0  0  0  0  0  0  0  0  0
  144.2956  132.7829  149.5566 C   0  0  0  0  0  0  0  0  0  0  0  0
  145.4079  131.9848  149.9006 C   0  0  0  0  0  0  0  0  0  0  0  0
  145.8873  132.0065  151.2269 C   0  0  0  0  0  0  0  0  0  0  0  0
  145.2459  132.8257  152.1818 C   0  0  0  0  0  0  0  0  0  0  0  0
  145.7309  132.8608  153.6175 C   0  0  0  0  0  0  0  0  0  0  0  0
  147.2562  133.0295  153.7049 C   0  0  0  0  0  0  0  0  0  0  0  0
  147.6505  134.4280  153.5875 N   0  0  0  0  0  0  0  0  0  0  0  0
  147.5686  135.3299  154.5751 C   0  0  0  0  0  0  0  0  0  0  0  0
  147.1631  135.0748  155.7093 O   0  0  0  0  0  0  0  0  0  0  0  0
  147.9719  136.5435  154.1775 N   0  0  0  0  0  0  0  0  0  0  0  0
  147.9782  137.7348  155.0329 C   0  0  1  0  0  0  0  0  0  0  0  0
  149.3841  138.1199  155.5013 C   0  0  1  0  0  0  0  0  0  0  0  0
  150.7028  137.4403  155.5861 C   0  0  0  0  0  0  0  0  0  0  0  0
  151.5666  138.6314  155.0887 C   0  0  0  0  0  0  0  0  0  0  0  0
  150.6313  139.6249  154.5955 O   0  0  0  0  0  0  0  0  0  0  0  0
  149.5110  138.8644  154.1885 C   0  0  2  0  0  0  0  0  0  0  0  0
  147.9893  139.1194  154.2707 C   0  0  0  0  0  0  0  0  0  0  0  0
  147.2610  139.1835  152.9233 C   0  0  0  0  0  0  0  0  0  0  0  0
  147.5238  140.3579  155.0575 C   0  0  0  0  0  0  0  0  0  0  0  0
  144.1390  133.6035  151.7801 C   0  0  0  0  0  0  0  0  0  0  0  0
  143.7098  133.5543  150.5000 N   0  3  0  0  0  0  0  0  0  0  0  0
  144.2920  132.1688  147.4844 H   0  0  0  0  0  0  0  0  0  0  0  0
  143.7405  133.8245  147.7566 H   0  0  0  0  0  0  0  0  0  0  0  0
  142.6876  132.4615  148.1625 H   0  0  0  0  0  0  0  0  0  0  0  0
  145.8887  131.3614  149.1608 H   0  0  0  0  0  0  0  0  0  0  0  0
  146.7353  131.3982  151.5064 H   0  0  0  0  0  0  0  0  0  0  0  0
  145.2278  133.6760  154.1393 H   0  0  0  0  0  0  0  0  0  0  0  0
  145.4256  131.9411  154.1188 H   0  0  0  0  0  0  0  0  0  0  0  0
  147.6187  132.6551  154.6627 H   0  0  0  0  0  0  0  0  0  0  0  0
  147.7516  132.4374  152.9330 H   0  0  0  0  0  0  0  0  0  0  0  0
  147.9959  134.7333  152.6892 H   0  0  0  0  0  0  0  0  0  0  0  0
  148.2874  136.6592  153.2258 H   0  0  0  0  0  0  0  0  0  0  0  0
  147.2572  137.6965  155.8511 H   0  0  0  0  0  0  0  0  0  0  0  0
  149.2858  138.7899  156.3590 H   0  0  0  0  0  0  0  0  0  0  0  0
  150.9576  137.1318  156.6002 H   0  0  0  0  0  0  0  0  0  0  0  0
  150.7693  136.5791  154.9198 H   0  0  0  0  0  0  0  0  0  0  0  0
  152.1670  139.0621  155.8903 H   0  0  0  0  0  0  0  0  0  0  0  0
  152.2420  138.3160  154.2923 H   0  0  0  0  0  0  0  0  0  0  0  0
  149.7742  138.2272  153.3379 H   0  0  0  0  0  0  0  0  0  0  0  0
  147.4041  140.1477  152.4345 H   0  0  0  0  0  0  0  0  0  0  0  0
  146.1880  139.0300  153.0434 H   0  0  0  0  0  0  0  0  0  0  0  0
  147.6193  138.4246  152.2277 H   0  0  0  0  0  0  0  0  0  0  0  0
  147.8487  141.2783  154.5717 H   0  0  0  0  0  0  0  0  0  0  0  0
  147.9004  140.3924  156.0783 H   0  0  0  0  0  0  0  0  0  0  0  0
  146.4362  140.3939  155.1284 H   0  0  0  0  0  0  0  0  0  0  0  0
  143.5845  134.2553  152.4395 H   0  0  0  0  0  0  0  0  0  0  0  0
  142.9061  134.1238  150.2339 H   0  0  0  0  0  0  0  0  0  0  0  0
  1  2  1  0  0  0  0
  1 23  1  0  0  0  0
  1 24  1  0  0  0  0
  1 25  1  0  0  0  0
  2 22  1  0  0  0  0
  2  3  2  0  0  0  0
  3  4  1  0  0  0  0
  3 26  1  0  0  0  0
  4  5  2  0  0  0  0
  4 27  1  0  0  0  0
  5  6  1  0  0  0  0
  5 21  1  0  0  0  0
  6  7  1  0  0  0  0
  6 28  1  0  0  0  0
  6 29  1  0  0  0  0
  7  8  1  0  0  0  0
  7 30  1  0  0  0  0
  7 31  1  0  0  0  0
  8  9  1  0  0  0  0
  8 32  1  0  0  0  0
  9 10  2  0  0  0  0
  9 11  1  0  0  0  0
 11 12  1  0  0  0  0
 11 33  1  0  0  0  0
 12 18  1  0  0  0  0
 12 13  1  0  0  0  0
 12 34  1  0  0  0  0
 13 17  1  0  0  0  0
 13 14  1  0  0  0  0
 13 35  1  0  0  0  0
 14 15  1  0  0  0  0
 14 36  1  0  0  0  0
 14 37  1  0  0  0  0
 15 16  1  0  0  0  0
 15 38  1  0  0  0  0
 15 39  1  0  0  0  0
 16 17  1  0  0  0  0
 17 18  1  0  0  0  0
 17 40  1  0  0  0  0
 18 19  1  0  0  0  0
 18 20  1  0  0  0  0
 19 41  1  0  0  0  0
 19 42  1  0  0  0  0
 19 43  1  0  0  0  0
 20 44  1  0  0  0  0
 20 45  1  0  0  0  0
 20 46  1  0  0  0  0
 21 22  2  0  0  0  0
 21 47  1  0  0  0  0
 22 48  1  0  0  0  0
M  CHG  1  22   1
M  END
> <s_m_source_file>
AV-unprocessed.smi

> <i_m_source_file_index>
767

> <i_lp_mmshare_version>
43012

> <i_f3d_flags>
0

> <s_epik_input>
W0NIM11jMVtjSF1bY0hdYyhbY0hdbjEpW0NIMl1bQ0gyXVtOSF1DKD1PKVtOSF1bQ0BIXTJDKFtDSDNdKShbQ0gzXSlbQ0BIXShbQ0BASF0yMylPW0NIMl1bQ0gyXTM=

> <s_epik_cmdline>
J2VwaWtfcHl0aG9uJywgJy1waCcsICc3LjAnLCAnLXRuJywgJzgnLCAnLW1hJywgJzIwMCcsICctbWV0YWxfYmluZGluZycsICctaW1hZScsICc8aW5maWxlLm1hZT4nLCAnLW9tYWUnLCAnPG91dGZpbGUubWFlPic=

> <r_epik_Ionization_Penalty>
1.41853

> <r_epik_Ionization_Penalty_Charging>
1.41848

> <r_epik_Ionization_Penalty_Neutral>
5.17407e-05

> <r_epik_State_Penalty>
1.50205

> <r_epik_Charging_Adjusted_Penalty>
2.92053

> <i_epik_Tot_Q>
1

> <i_epik_Tot_abs_Q>
1

> <r_epik_Metal_State_Penalty>
1.5544

> <b_epik_Metal_Only>
0

> <s_lp_Force_Field>
OPLS_2005

> <r_lp_Energy>
64.9812

> <b_lp_Chiralities_Consistent>
1

> <s_lp_Variant>
AV-unprocessed.smi:767-10

> <Gold.Version>
5.8.1

> <Gold.Id.Protein>
6NUR|6NUR_protein|mol2

> <Gold.PLP.Fitness>
48.5239

> <Gold.PLP.PLP>
-35.0702

> <Gold.PLP.part.hbond>
-3.8385

> <Gold.PLP.part.metal>
0.0000

> <Gold.PLP.part.buried>
-3.0701

> <Gold.PLP.part.nonpolar>
-28.1613

> <Gold.PLP.part.repulsive>
0.1594

> <Gold.PLP.ligand.clash>
0.0000

> <Gold.PLP.ligand.torsion>
0.6303

> <Gold.PLP.Chemscore.Hbond>
4.8160

> <Gold.PLP.Chemscore.CHOScore>
0.0000

> <Gold.PLP.Chemscore.Metal>
0.0000

> <Gold.Chemscore.Hbonds>
donor molecule, donor type, donor heavy atom, donor atom, acceptor molecule, acceptor atom, score
      L1  H     8    32       P1  7948  0.85
      L1  H    11    33       P1  7948  1.00
      L1  H    22    48       P1 10186  1.98
      P1  H  7989  7998       L1    16  1.00

> <Gold.PLP.Chemscore.Internal.Correction>
0.2662

> <Gold.Rescore>
     Score         DG    S(hbond)    S(metal)    S(lipo)     H(rot)  DE(clash)    DE(int)     intcor
     23.17     -24.97       3.43        0.00     101.88       1.52       1.22       0.58       ----

> <Gold.Chemscore.Fitness>
23.1718

> <Gold.Chemscore.DG>
-24.9733

> <Gold.Chemscore.ZeroCoef>
-5.4800

> <Gold.Chemscore.Hbond>
3.4348

> <Gold.Chemscore.Metal>
0.0000

> <Gold.Chemscore.Lipo>
101.8849

> <Gold.Chemscore.Internal_Hbond>
0.0000

> <Gold.Chemscore.DEClash>
1.2175

> <Gold.Chemscore.DEInternal>
0.5841

> <Gold.Chemscore.Rot>
1.5233

> <Gold.Chemscore.Internal.Correction>
   9.000000E+99

> <Gold.Chemscore.Hbonds>
donor molecule, donor type, donor heavy atom, donor atom, acceptor molecule, acceptor atom, score
      L1  H     8    32       P1  7948  0.62
      L1  H    11    33       P1  7948  0.96
      L1  H    22    48       P1 10186  0.86
      P1  H  7989  7998       L1    16  0.60

> <Gold.Chemscore.Hbond.Weighted>
-11.4723

> <Gold.Chemscore.Metal.Weighted>
-0.0000

> <Gold.Chemscore.Lipo.Weighted>
-11.9205

> <Gold.Chemscore.Internal_Hbond.Weighted>
0.0000

> <Gold.Chemscore.DEClash.Weighted>
1.2175

> <Gold.Chemscore.DEInternal.Weighted>
0.5841

> <Gold.Chemscore.Rot.Weighted>
3.8995

> <Gold.Chemscore.Internal.Correction.Weighted>
   9.000000E+99

> <Gold.Protein.RotatedTorsions>
[ 6907 6896 6895 6894 ] final   -6.03 input  -60.11 | X-H torsion
[ 7974 7965 7964 7962 ] final   17.24 input  175.53 | X-H torsion
[ 8008 7997 7996 7995 ] final -178.80 input   59.86 | X-H torsion
[ 10167 10162 10161 10158 ] final  156.24 input  -65.29 | X-H torsion
[ 10718 10713 10712 10709 ] final -123.12 input   66.30 | X-H torsion
[ 10763 10752 10751 10750 ] final  162.59 input  -60.55 | X-H torsion
[ 11005 11000 10999 10996 ] final  166.90 input  -57.11 | X-H torsion

> <Gold.Protein.ActiveResidues>
 VAL166  LYS551  ARG553  GLY616  TRP617  ASP618  TYR619  PRO620  LYS621  CYS622 
 ASP623  PHE694  ASN695  SER759  ASP760  ASP761  ALA762  ILE779  LEU786  VAL792 
 PHE793  MET794  SER795  GLU796  ALA797  LYS798  CYS799  TRP800  GLU811  SER814 

> <Gold.Protein.RotatedAtoms>
  151.4721  135.1046  159.9754 H   0  0  0  0  0  0  0  0  0  0  0  0  # atno 6907 bound_to 6896
  152.4812  133.8256  159.7087 H   0  0  0  0  0  0  0  0  0  0  0  0  # atno 6908 bound_to 6896
  150.8886  133.7213  159.2938 H   0  0  0  0  0  0  0  0  0  0  0  0  # atno 6909 bound_to 6896
  146.2225  139.8631  142.8601 H   0  0  0  0  0  0  0  0  0  0  0  0  # atno 7974 bound_to 7965
  156.0231  140.1265  157.0337 H   0  0  0  0  0  0  0  0  0  0  0  0  # atno 8008 bound_to 7997
  154.4319  140.1064  156.6062 H   0  0  0  0  0  0  0  0  0  0  0  0  # atno 8009 bound_to 7997
  155.5916  140.3469  155.4570 H   0  0  0  0  0  0  0  0  0  0  0  0  # atno 8010 bound_to 7997
  139.4821  144.5026  151.8145 H   0  0  0  0  0  0  0  0  0  0  0  0  # atno 10167 bound_to 10162
  156.1475  130.6510  150.9864 H   0  0  0  0  0  0  0  0  0  0  0  0  # atno 10718 bound_to 10713
  154.2807  135.2763  155.2698 H   0  0  0  0  0  0  0  0  0  0  0  0  # atno 10763 bound_to 10752
  154.5221  135.5753  153.6692 H   0  0  0  0  0  0  0  0  0  0  0  0  # atno 10764 bound_to 10752
  152.9929  135.6207  154.2966 H   0  0  0  0  0  0  0  0  0  0  0  0  # atno 10765 bound_to 10752
  140.2712  134.7825  157.3677 H   0  0  0  0  0  0  0  0  0  0  0  0  # atno 11005 bound_to 11000
  145.2684  141.0100  143.3786 LP  0  0  0  0  0  0  0  0  0  0  0  0  # atno 17320 bound_to 7965
  144.9243  139.4374  143.6526 LP  0  0  0  0  0  0  0  0  0  0  0  0  # atno 17321 bound_to 7965
  140.4521  144.1840  150.5898 LP  0  0  0  0  0  0  0  0  0  0  0  0  # atno 17342 bound_to 10162
  140.4574  143.2462  151.9266 LP  0  0  0  0  0  0  0  0  0  0  0  0  # atno 17343 bound_to 10162
  157.6629  131.0877  150.7797 LP  0  0  0  0  0  0  0  0  0  0  0  0  # atno 17370 bound_to 10713
  156.7867  130.4877  149.5391 LP  0  0  0  0  0  0  0  0  0  0  0  0  # atno 17371 bound_to 10713
  140.1371  134.5020  155.8060 LP  0  0  0  0  0  0  0  0  0  0  0  0  # atno 17394 bound_to 11000
  141.2177  133.6811  156.7144 LP  0  0  0  0  0  0  0  0  0  0  0  0  # atno 17395 bound_to 11000

$$$$
