AV-unprocessed.smi:3262|AV-procd|sdf|12484|dock2
  -GOLD-   2272018383D 1   1.00000     0.00000
 Structure written by MMmdl.
 39 40  0  0  0  0  0  0  0  0  1 V2000
  153.1464  139.5393  157.3464 O   0  0  0  0  0  0  0  0  0  0  0  0
  152.2854  140.3742  157.0625 C   0  0  0  0  0  0  0  0  0  0  0  0
  151.7803  140.4747  155.8216 N   0  0  0  0  0  0  0  0  0  0  0  0
  152.1887  139.6530  154.6904 C   0  0  0  0  0  0  0  0  0  0  0  0
  150.9626  139.0560  153.9860 C   0  0  0  0  0  0  0  0  0  0  0  0
  149.8961  140.0977  153.7054 C   0  0  0  0  0  0  0  0  0  0  0  0
  148.6755  139.7336  153.0977 C   0  0  0  0  0  0  0  0  0  0  0  0
  147.7159  140.7379  152.8653 C   0  0  0  0  0  0  0  0  0  0  0  0
  148.0117  142.0603  153.2484 C   0  0  0  0  0  0  0  0  0  0  0  0
  149.2589  142.3205  153.8504 C   0  0  0  0  0  0  0  0  0  0  0  0
  150.1859  141.3650  154.0777 N   0  0  0  0  0  0  0  0  0  0  0  0
  151.7370  141.2190  157.9768 N   0  0  0  0  0  0  0  0  0  0  0  0
  150.7369  142.2611  157.6574 C   0  0  0  0  0  0  0  0  0  0  0  0
  150.9093  143.5867  158.4300 C   0  0  0  0  0  0  0  0  0  0  0  0
  152.3625  144.0831  158.5465 C   0  0  0  0  0  0  0  0  0  0  0  0
  153.1059  143.4916  159.7566 C   0  0  0  0  0  0  0  0  0  0  0  0
  153.3946  141.9845  159.6632 C   0  0  0  0  0  0  0  0  0  0  0  0
  152.1443  141.1296  159.3874 C   0  0  0  0  0  0  0  0  0  0  0  0
  151.0619  141.1640  155.6548 H   0  0  0  0  0  0  0  0  0  0  0  0
  152.7637  140.2581  153.9872 H   0  0  0  0  0  0  0  0  0  0  0  0
  152.8456  138.8572  155.0451 H   0  0  0  0  0  0  0  0  0  0  0  0
  151.2609  138.5934  153.0440 H   0  0  0  0  0  0  0  0  0  0  0  0
  150.5333  138.2597  154.5958 H   0  0  0  0  0  0  0  0  0  0  0  0
  148.4766  138.7094  152.8179 H   0  0  0  0  0  0  0  0  0  0  0  0
  146.7702  140.4983  152.4024 H   0  0  0  0  0  0  0  0  0  0  0  0
  147.2998  142.8560  153.0857 H   0  0  0  0  0  0  0  0  0  0  0  0
  149.5188  143.3227  154.1579 H   0  0  0  0  0  0  0  0  0  0  0  0
  150.7714  142.5300  156.6012 H   0  0  0  0  0  0  0  0  0  0  0  0
  149.7390  141.8575  157.8330 H   0  0  0  0  0  0  0  0  0  0  0  0
  150.3190  144.3478  157.9184 H   0  0  0  0  0  0  0  0  0  0  0  0
  150.4658  143.5072  159.4230 H   0  0  0  0  0  0  0  0  0  0  0  0
  152.9111  143.8953  157.6226 H   0  0  0  0  0  0  0  0  0  0  0  0
  152.3429  145.1666  158.6674 H   0  0  0  0  0  0  0  0  0  0  0  0
  154.0527  144.0178  159.8810 H   0  0  0  0  0  0  0  0  0  0  0  0
  152.5345  143.6938  160.6633 H   0  0  0  0  0  0  0  0  0  0  0  0
  154.1529  141.7991  158.9014 H   0  0  0  0  0  0  0  0  0  0  0  0
  153.8390  141.6635  160.6057 H   0  0  0  0  0  0  0  0  0  0  0  0
  151.3259  141.4192  160.0472 H   0  0  0  0  0  0  0  0  0  0  0  0
  152.3520  140.0913  159.6520 H   0  0  0  0  0  0  0  0  0  0  0  0
  1  2  2  0  0  0  0
  2  3  1  0  0  0  0
  2 12  1  0  0  0  0
  3  4  1  0  0  0  0
  3 19  1  0  0  0  0
  4  5  1  0  0  0  0
  4 20  1  0  0  0  0
  4 21  1  0  0  0  0
  5  6  1  0  0  0  0
  5 22  1  0  0  0  0
  5 23  1  0  0  0  0
  6 11  1  0  0  0  0
  6  7  2  0  0  0  0
  7  8  1  0  0  0  0
  7 24  1  0  0  0  0
  8  9  2  0  0  0  0
  8 25  1  0  0  0  0
  9 10  1  0  0  0  0
  9 26  1  0  0  0  0
 10 11  2  0  0  0  0
 10 27  1  0  0  0  0
 12 18  1  0  0  0  0
 12 13  1  0  0  0  0
 13 14  1  0  0  0  0
 13 28  1  0  0  0  0
 13 29  1  0  0  0  0
 14 15  1  0  0  0  0
 14 30  1  0  0  0  0
 14 31  1  0  0  0  0
 15 16  1  0  0  0  0
 15 32  1  0  0  0  0
 15 33  1  0  0  0  0
 16 17  1  0  0  0  0
 16 34  1  0  0  0  0
 16 35  1  0  0  0  0
 17 18  1  0  0  0  0
 17 36  1  0  0  0  0
 17 37  1  0  0  0  0
 18 38  1  0  0  0  0
 18 39  1  0  0  0  0
M  END
> <s_m_source_file>
AV-unprocessed.smi

> <i_m_source_file_index>
3262

> <i_lp_mmshare_version>
43012

> <i_f3d_flags>
0

> <s_epik_input>
W0NIMl0xW0NIMl1bQ0gyXVtDSDJdW0NIMl1bQ0gyXU4xQyg9TylbTkhdW0NIMl1bQ0gyXWMyW2NIXVtjSF1bY0hdW2NIXW4y

> <s_epik_cmdline>
J2VwaWtfcHl0aG9uJywgJy1waCcsICc3LjAnLCAnLXRuJywgJzgnLCAnLW1hJywgJzIwMCcsICctbWV0YWxfYmluZGluZycsICctaW1hZScsICc8aW5maWxlLm1hZT4nLCAnLW9tYWUnLCAnPG91dGZpbGUubWFlPic=

> <r_epik_Ionization_Penalty>
0.0449498

> <r_epik_Ionization_Penalty_Charging>
0

> <r_epik_Ionization_Penalty_Neutral>
0.0449498

> <r_epik_State_Penalty>
0.0380669

> <r_epik_Charging_Adjusted_Penalty>
0.0380669

> <i_epik_Tot_Q>
0

> <i_epik_Tot_abs_Q>
0

> <r_epik_Metal_State_Penalty>
0.0353734

> <b_epik_Metal_Only>
0

> <s_lp_Force_Field>
OPLS_2005

> <r_lp_Energy>
31.2799

> <b_lp_Chiralities_Consistent>
1

> <s_lp_Variant>
AV-unprocessed.smi:3262-1

> <Gold.Version>
5.8.1

> <Gold.Id.Protein>
6NUR|6NUR_protein|mol2

> <Gold.PLP.Fitness>
49.9999

> <Gold.PLP.PLP>
-42.1008

> <Gold.PLP.part.hbond>
-2.0000

> <Gold.PLP.part.metal>
0.0000

> <Gold.PLP.part.buried>
-0.4543

> <Gold.PLP.part.nonpolar>
-37.7098

> <Gold.PLP.part.repulsive>
0.2734

> <Gold.PLP.ligand.clash>
0.0000

> <Gold.PLP.ligand.torsion>
0.0886

> <Gold.PLP.Chemscore.Hbond>
1.6880

> <Gold.PLP.Chemscore.CHOScore>
1.0000

> <Gold.PLP.Chemscore.Metal>
0.0000

> <Gold.Chemscore.Hbonds>
donor molecule, donor type, donor heavy atom, donor atom, acceptor molecule, acceptor atom, score
      P1  H  7997  8008       L1     1  1.00
      L1  C    10    27       P1  8028  1.00

> <Gold.PLP.Chemscore.Internal.Correction>
0.0122

> <Gold.Rescore>
     Score         DG    S(hbond)    S(metal)    S(lipo)     H(rot)  DE(clash)    DE(int)     intcor
     17.04     -19.27       1.18        0.00     112.17       1.27       0.20       2.02       ----

> <Gold.Chemscore.Fitness>
17.0441

> <Gold.Chemscore.DG>
-19.2725

> <Gold.Chemscore.ZeroCoef>
-5.4800

> <Gold.Chemscore.Hbond>
1.1766

> <Gold.Chemscore.Metal>
0.0000

> <Gold.Chemscore.Lipo>
112.1688

> <Gold.Chemscore.Internal_Hbond>
0.0000

> <Gold.Chemscore.DEClash>
0.2038

> <Gold.Chemscore.DEInternal>
2.0247

> <Gold.Chemscore.Rot>
1.2738

> <Gold.Chemscore.Internal.Correction>
   9.000000E+99

> <Gold.Chemscore.Hbonds>
donor molecule, donor type, donor heavy atom, donor atom, acceptor molecule, acceptor atom, score
      P1  H  7997  8008       L1     1  0.28

> <Gold.Chemscore.Hbond.Weighted>
-3.9298

> <Gold.Chemscore.Metal.Weighted>
-0.0000

> <Gold.Chemscore.Lipo.Weighted>
-13.1237

> <Gold.Chemscore.Internal_Hbond.Weighted>
0.0000

> <Gold.Chemscore.DEClash.Weighted>
0.2038

> <Gold.Chemscore.DEInternal.Weighted>
2.0247

> <Gold.Chemscore.Rot.Weighted>
3.2610

> <Gold.Chemscore.Internal.Correction.Weighted>
   9.000000E+99

> <Gold.Protein.RotatedTorsions>
[ 6907 6896 6895 6894 ] final  -26.83 input  -60.11 | X-H torsion
[ 7974 7965 7964 7962 ] final   66.48 input  175.53 | X-H torsion
[ 8008 7997 7996 7995 ] final  -55.48 input   59.86 | X-H torsion
[ 10167 10162 10161 10158 ] final  165.78 input  -65.29 | X-H torsion
[ 10718 10713 10712 10709 ] final   67.84 input   66.30 | X-H torsion
[ 10763 10752 10751 10750 ] final  168.66 input  -60.55 | X-H torsion
[ 11005 11000 10999 10996 ] final  -19.05 input  -57.11 | X-H torsion

> <Gold.Protein.ActiveResidues>
 VAL166  LYS551  ARG553  GLY616  TRP617  ASP618  TYR619  PRO620  LYS621  CYS622 
 ASP623  PHE694  ASN695  SER759  ASP760  ASP761  ALA762  ILE779  LEU786  VAL792 
 PHE793  MET794  SER795  GLU796  ALA797  LYS798  CYS799  TRP800  GLU811  SER814 

> <Gold.Protein.RotatedAtoms>
  151.1555  135.0248  159.8686 H   0  0  0  0  0  0  0  0  0  0  0  0  # atno 6907 bound_to 6896
  152.5452  134.1340  159.8461 H   0  0  0  0  0  0  0  0  0  0  0  0  # atno 6908 bound_to 6896
  151.1429  133.4913  159.2629 H   0  0  0  0  0  0  0  0  0  0  0  0  # atno 6909 bound_to 6896
  145.8261  139.3112  143.1015 H   0  0  0  0  0  0  0  0  0  0  0  0  # atno 7974 bound_to 7965
  154.4196  140.1152  156.5483 H   0  0  0  0  0  0  0  0  0  0  0  0  # atno 8008 bound_to 7997
  155.6437  140.3496  155.4704 H   0  0  0  0  0  0  0  0  0  0  0  0  # atno 8009 bound_to 7997
  155.9850  140.1168  157.0681 H   0  0  0  0  0  0  0  0  0  0  0  0  # atno 8010 bound_to 7997
  139.4912  144.4096  151.9315 H   0  0  0  0  0  0  0  0  0  0  0  0  # atno 10167 bound_to 10162
  157.6254  130.9342  150.0297 H   0  0  0  0  0  0  0  0  0  0  0  0  # atno 10718 bound_to 10713
  154.3719  135.2753  155.2261 H   0  0  0  0  0  0  0  0  0  0  0  0  # atno 10763 bound_to 10752
  154.4405  135.5955  153.6130 H   0  0  0  0  0  0  0  0  0  0  0  0  # atno 10764 bound_to 10752
  152.9838  135.6017  154.3951 H   0  0  0  0  0  0  0  0  0  0  0  0  # atno 10765 bound_to 10752
  140.8329  133.7984  155.9777 H   0  0  0  0  0  0  0  0  0  0  0  0  # atno 11005 bound_to 11000
  145.9622  140.8827  143.0205 LP  0  0  0  0  0  0  0  0  0  0  0  0  # atno 17320 bound_to 7965
  144.6743  140.1828  143.7404 LP  0  0  0  0  0  0  0  0  0  0  0  0  # atno 17321 bound_to 7965
  140.3537  144.3058  150.5945 LP  0  0  0  0  0  0  0  0  0  0  0  0  # atno 17342 bound_to 10162
  140.5463  143.2214  151.8001 LP  0  0  0  0  0  0  0  0  0  0  0  0  # atno 17343 bound_to 10162
  156.1424  130.3642  149.9562 LP  0  0  0  0  0  0  0  0  0  0  0  0  # atno 17370 bound_to 10713
  156.7600  130.9147  151.3641 LP  0  0  0  0  0  0  0  0  0  0  0  0  # atno 17371 bound_to 10713
  140.8979  134.2415  157.5058 LP  0  0  0  0  0  0  0  0  0  0  0  0  # atno 17394 bound_to 11000
  139.8704  134.9692  156.4660 LP  0  0  0  0  0  0  0  0  0  0  0  0  # atno 17395 bound_to 11000

$$$$
