AV-unprocessed.smi:2760|AV-procd|sdf|10630|dock4
  -GOLD-   2272015 83D 1   1.00000     0.00000
 Structure written by MMmdl.
 31 32  0  0  0  0  0  0  0  0  2 V2000
  155.8049  140.7780  160.3044 O   0  0  0  0  0  0  0  0  0  0  0  0
  154.6645  140.8893  159.8592 C   0  0  0  0  0  0  0  0  0  0  0  0
  153.8736  142.0742  160.1902 C   0  0  0  0  0  0  0  0  0  0  0  0
  152.6149  142.1870  159.6967 C   0  0  0  0  0  0  0  0  0  0  0  0
  151.7636  143.3756  159.9967 C   0  0  0  0  0  0  0  0  0  0  0  0
  152.1274  144.7494  159.4795 C   0  0  0  0  0  0  0  0  0  0  0  0
  152.1907  144.4640  160.9600 C   0  0  0  0  0  0  0  0  0  0  0  0
  152.0837  141.1771  158.8716 N   0  0  0  0  0  0  0  0  0  0  0  0
  152.7941  140.1497  158.5925 C   0  0  0  0  0  0  0  0  0  0  0  0
  152.0510  138.9010  157.5249 S   0  0  0  0  0  0  0  0  0  0  0  0
  150.7914  139.8065  156.5786 C   0  0  0  0  0  0  0  0  0  0  0  0
  149.3822  139.3137  156.9184 C   0  0  0  0  0  0  0  0  0  0  0  0
  148.5418  139.4949  155.7912 O   0  0  0  0  0  0  0  0  0  0  0  0
  148.4891  140.8455  155.3596 C   0  0  0  0  0  0  0  0  0  0  0  0
  147.2644  141.0527  154.4605 C   0  0  0  0  0  0  0  0  0  0  0  0
  146.1610  140.7634  155.1491 F   0  0  0  0  0  0  0  0  0  0  0  0
  147.1956  142.3212  154.0573 F   0  0  0  0  0  0  0  0  0  0  0  0
  147.3291  140.2484  153.3999 F   0  0  0  0  0  0  0  0  0  0  0  0
  154.0787  139.9537  159.0577 N   0  5  0  0  0  0  0  0  0  0  0  0
  154.2926  142.8446  160.8209 H   0  0  0  0  0  0  0  0  0  0  0  0
  150.7027  143.1314  160.0023 H   0  0  0  0  0  0  0  0  0  0  0  0
  153.0713  144.8610  158.9493 H   0  0  0  0  0  0  0  0  0  0  0  0
  151.3163  145.3804  159.1227 H   0  0  0  0  0  0  0  0  0  0  0  0
  151.4202  144.9056  161.5880 H   0  0  0  0  0  0  0  0  0  0  0  0
  153.1769  144.3991  161.4153 H   0  0  0  0  0  0  0  0  0  0  0  0
  150.9857  139.6784  155.5130 H   0  0  0  0  0  0  0  0  0  0  0  0
  150.8731  140.8711  156.8003 H   0  0  0  0  0  0  0  0  0  0  0  0
  149.4108  138.2590  157.1961 H   0  0  0  0  0  0  0  0  0  0  0  0
  148.9900  139.8699  157.7713 H   0  0  0  0  0  0  0  0  0  0  0  0
  148.4327  141.5118  156.2219 H   0  0  0  0  0  0  0  0  0  0  0  0
  149.3985  141.0964  154.8117 H   0  0  0  0  0  0  0  0  0  0  0  0
  1  2  2  0  0  0  0
  2 19  1  0  0  0  0
  2  3  1  0  0  0  0
  3 20  1  0  0  0  0
  3  4  2  0  0  0  0
  4  5  1  0  0  0  0
  4  8  1  0  0  0  0
  5  7  1  0  0  0  0
  5  6  1  0  0  0  0
  5 21  1  0  0  0  0
  6  7  1  0  0  0  0
  6 22  1  0  0  0  0
  6 23  1  0  0  0  0
  7 24  1  0  0  0  0
  7 25  1  0  0  0  0
  8  9  2  0  0  0  0
  9 10  1  0  0  0  0
  9 19  1  0  0  0  0
 10 11  1  0  0  0  0
 11 12  1  0  0  0  0
 11 26  1  0  0  0  0
 11 27  1  0  0  0  0
 12 13  1  0  0  0  0
 12 28  1  0  0  0  0
 12 29  1  0  0  0  0
 13 14  1  0  0  0  0
 14 15  1  0  0  0  0
 14 30  1  0  0  0  0
 14 31  1  0  0  0  0
 15 16  1  0  0  0  0
 15 17  1  0  0  0  0
 15 18  1  0  0  0  0
M  CHG  1  19  -1
M  END
> <s_m_source_file>
AV-unprocessed.smi

> <i_m_source_file_index>
2760

> <i_lp_mmshare_version>
43012

> <i_f3d_flags>
0

> <s_epik_input>
W09IXWMxW2NIXWMoW0NIXTJbQ0gyXVtDSDJdMiluYyhuMSlTW0NIMl1bQ0gyXU9bQ0gyXUMoRikoRilG

> <s_epik_cmdline>
J2VwaWtfcHl0aG9uJywgJy1waCcsICc3LjAnLCAnLXRuJywgJzgnLCAnLW1hJywgJzIwMCcsICctbWV0YWxfYmluZGluZycsICctaW1hZScsICc8aW5maWxlLm1hZT4nLCAnLW9tYWUnLCAnPG91dGZpbGUubWFlPic=

> <r_lp_tautomer_probability>
1

> <r_epik_Ionization_Penalty>
4.02042

> <r_epik_Ionization_Penalty_Charging>
0.00362968

> <r_epik_Ionization_Penalty_Neutral>
4.01679

> <r_epik_State_Penalty>
2.30798

> <r_epik_Charging_Adjusted_Penalty>
2.31161

> <i_epik_Tot_Q>
-1

> <i_epik_Tot_abs_Q>
1

> <r_epik_Metal_State_Penalty>
0.234281

> <b_epik_Metal_Only>
0

> <s_lp_Force_Field>
OPLS_2005

> <r_lp_Energy>
16.4735

> <b_lp_Chiralities_Consistent>
1

> <s_lp_Variant>
AV-unprocessed.smi:2760-3

> <Gold.Version>
5.8.1

> <Gold.Id.Protein>
6NUR|6NUR_protein|mol2

> <Gold.PLP.Fitness>
40.6342

> <Gold.PLP.PLP>
-36.4955

> <Gold.PLP.part.hbond>
-1.9165

> <Gold.PLP.part.metal>
0.0000

> <Gold.PLP.part.buried>
-4.7624

> <Gold.PLP.part.nonpolar>
-30.2965

> <Gold.PLP.part.repulsive>
0.0069

> <Gold.PLP.ligand.clash>
0.0000

> <Gold.PLP.ligand.torsion>
1.0379

> <Gold.PLP.Chemscore.Hbond>
2.0000

> <Gold.PLP.Chemscore.CHOScore>
0.0000

> <Gold.PLP.Chemscore.Metal>
0.0000

> <Gold.Chemscore.Hbonds>
donor molecule, donor type, donor heavy atom, donor atom, acceptor molecule, acceptor atom, score
      P1  H  7997  8008       L1    19  1.90

> <Gold.PLP.Chemscore.Internal.Correction>
0.2144

> <Gold.Rescore>
     Score         DG    S(hbond)    S(metal)    S(lipo)     H(rot)  DE(clash)    DE(int)     intcor
      7.77      -8.87       0.19        0.00      77.91       2.48       0.01       1.09       ----

> <Gold.Chemscore.Fitness>
7.7749

> <Gold.Chemscore.DG>
-8.8701

> <Gold.Chemscore.ZeroCoef>
-5.4800

> <Gold.Chemscore.Hbond>
0.1894

> <Gold.Chemscore.Metal>
0.0000

> <Gold.Chemscore.Lipo>
77.9053

> <Gold.Chemscore.Internal_Hbond>
0.0000

> <Gold.Chemscore.DEClash>
0.0093

> <Gold.Chemscore.DEInternal>
1.0859

> <Gold.Chemscore.Rot>
2.4833

> <Gold.Chemscore.Internal.Correction>
   9.000000E+99

> <Gold.Chemscore.Hbonds>
donor molecule, donor type, donor heavy atom, donor atom, acceptor molecule, acceptor atom, score
      P1  H  7997  8008       L1    19  0.11

> <Gold.Chemscore.Hbond.Weighted>
-0.6325

> <Gold.Chemscore.Metal.Weighted>
-0.0000

> <Gold.Chemscore.Lipo.Weighted>
-9.1149

> <Gold.Chemscore.Internal_Hbond.Weighted>
0.0000

> <Gold.Chemscore.DEClash.Weighted>
0.0093

> <Gold.Chemscore.DEInternal.Weighted>
1.0859

> <Gold.Chemscore.Rot.Weighted>
6.3572

> <Gold.Chemscore.Internal.Correction.Weighted>
   9.000000E+99

> <Gold.Protein.RotatedTorsions>
[ 6907 6896 6895 6894 ] final  132.43 input  -60.11 | X-H torsion
[ 7974 7965 7964 7962 ] final -107.28 input  175.53 | X-H torsion
[ 8008 7997 7996 7995 ] final -118.48 input   59.86 | X-H torsion
[ 10167 10162 10161 10158 ] final -118.74 input  -65.29 | X-H torsion
[ 10718 10713 10712 10709 ] final   43.65 input   66.30 | X-H torsion
[ 10763 10752 10751 10750 ] final  140.32 input  -60.55 | X-H torsion
[ 11005 11000 10999 10996 ] final   83.52 input  -57.11 | X-H torsion

> <Gold.Protein.ActiveResidues>
 VAL166  LYS551  ARG553  GLY616  TRP617  ASP618  TYR619  PRO620  LYS621  CYS622 
 ASP623  PHE694  ASN695  SER759  ASP760  ASP761  ALA762  ILE779  LEU786  VAL792 
 PHE793  MET794  SER795  GLU796  ALA797  LYS798  CYS799  TRP800  GLU811  SER814 

> <Gold.Protein.RotatedAtoms>
  152.3325  133.5974  159.5819 H   0  0  0  0  0  0  0  0  0  0  0  0  # atno 6907 bound_to 6896
  150.7431  133.9847  159.3596 H   0  0  0  0  0  0  0  0  0  0  0  0  # atno 6908 bound_to 6896
  151.7720  135.0784  160.0412 H   0  0  0  0  0  0  0  0  0  0  0  0  # atno 6909 bound_to 6896
  145.2073  140.9081  143.3335 H   0  0  0  0  0  0  0  0  0  0  0  0  # atno 7974 bound_to 7965
  155.1003  140.0396  157.2695 H   0  0  0  0  0  0  0  0  0  0  0  0  # atno 8008 bound_to 7997
  154.6763  140.2623  155.6929 H   0  0  0  0  0  0  0  0  0  0  0  0  # atno 8009 bound_to 7997
  156.2678  140.2787  156.1291 H   0  0  0  0  0  0  0  0  0  0  0  0  # atno 8010 bound_to 7997
  140.0542  143.5030  152.2066 H   0  0  0  0  0  0  0  0  0  0  0  0  # atno 10167 bound_to 10162
  157.4182  130.7954  149.7492 H   0  0  0  0  0  0  0  0  0  0  0  0  # atno 10718 bound_to 10713
  153.9208  135.3001  155.3447 H   0  0  0  0  0  0  0  0  0  0  0  0  # atno 10763 bound_to 10752
  154.7576  135.4950  153.9407 H   0  0  0  0  0  0  0  0  0  0  0  0  # atno 10764 bound_to 10752
  153.1143  135.6767  153.9549 H   0  0  0  0  0  0  0  0  0  0  0  0  # atno 10765 bound_to 10752
  139.9028  134.8150  156.2320 H   0  0  0  0  0  0  0  0  0  0  0  0  # atno 11005 bound_to 11000
  144.9890  139.3708  143.6224 LP  0  0  0  0  0  0  0  0  0  0  0  0  # atno 17320 bound_to 7965
  146.3405  139.9064  142.8787 LP  0  0  0  0  0  0  0  0  0  0  0  0  # atno 17321 bound_to 7965
  139.5934  144.7558  151.3346 LP  0  0  0  0  0  0  0  0  0  0  0  0  # atno 17342 bound_to 10162
  140.7202  143.7156  150.7735 LP  0  0  0  0  0  0  0  0  0  0  0  0  # atno 17343 bound_to 10162
  155.9872  130.3969  150.3176 LP  0  0  0  0  0  0  0  0  0  0  0  0  # atno 17370 bound_to 10713
  157.1321  131.0274  151.2964 LP  0  0  0  0  0  0  0  0  0  0  0  0  # atno 17371 bound_to 10713
  141.0339  133.6973  156.1479 LP  0  0  0  0  0  0  0  0  0  0  0  0  # atno 17394 bound_to 11000
  140.7055  134.4518  157.5584 LP  0  0  0  0  0  0  0  0  0  0  0  0  # atno 17395 bound_to 11000

$$$$
