AV-unprocessed.smi:5|AV-procd|sdf|37|dock7
  -GOLD-   2262015153D 1   1.00000     0.00000
 Structure written by MMmdl.
 44 45  0  0  0  0  0  0  0  0  1 V2000
  152.8651  143.1339  161.8096 C   0  0  0  0  0  0  0  0  0  0  0  0
  152.4559  143.2022  160.3524 C   0  0  0  0  0  0  0  0  0  0  0  0
  152.6120  144.3146  159.6110 C   0  0  0  0  0  0  0  0  0  0  0  0
  152.1857  144.4001  158.1587 C   0  0  0  0  0  0  0  0  0  0  0  0
  151.2650  143.2283  157.7760 C   0  0  0  0  0  0  0  0  0  0  0  0
  151.8076  141.9576  158.2918 N   0  0  0  0  0  0  0  0  0  0  0  0
  152.1229  140.8712  157.5423 C   0  0  0  0  0  0  0  0  0  0  0  0
  152.8315  139.9508  157.9523 O   0  0  0  0  0  0  0  0  0  0  0  0
  151.6469  140.8978  156.2856 N   0  0  0  0  0  0  0  0  0  0  0  0
  151.8483  139.8578  155.2821 C   0  0  0  0  0  0  0  0  0  0  0  0
  150.5246  139.2995  154.7734 C   0  0  0  0  0  0  0  0  0  0  0  0
  149.4301  140.0892  154.6337 C   0  0  0  0  0  0  0  0  0  0  0  0
  148.1975  139.6416  154.1786 N   0  0  0  0  0  0  0  0  0  0  0  0
  147.0617  140.5401  154.0531 C   0  0  0  0  0  0  0  0  0  0  0  0
  147.5000  142.0053  154.2135 C   0  0  0  0  0  0  0  0  0  0  0  0
  145.9237  140.1587  155.0179 C   0  0  0  0  0  0  0  0  0  0  0  0
  148.0561  138.2806  153.8072 C   0  0  0  0  0  0  0  0  0  0  0  0
  147.0151  137.7867  153.3741 O   0  0  0  0  0  0  0  0  0  0  0  0
  149.1828  137.4712  153.9460 N   0  0  0  0  0  0  0  0  0  0  0  0
  150.4339  137.8815  154.4111 C   0  0  0  0  0  0  0  0  0  0  0  0
  151.3484  137.0626  154.4844 O   0  0  0  0  0  0  0  0  0  0  0  0
  151.8792  141.9177  159.7638 C   0  0  0  0  0  0  0  0  0  0  0  0
  149.0860  136.5006  153.6852 H   0  0  0  0  0  0  0  0  0  0  0  0
  152.0105  142.8610  162.4289 H   0  0  0  0  0  0  0  0  0  0  0  0
  153.2480  144.0923  162.1618 H   0  0  0  0  0  0  0  0  0  0  0  0
  153.6443  142.3841  161.9493 H   0  0  0  0  0  0  0  0  0  0  0  0
  153.0533  145.2018  160.0412 H   0  0  0  0  0  0  0  0  0  0  0  0
  151.6736  145.3474  157.9887 H   0  0  0  0  0  0  0  0  0  0  0  0
  153.0810  144.4015  157.5360 H   0  0  0  0  0  0  0  0  0  0  0  0
  150.2862  143.3780  158.2345 H   0  0  0  0  0  0  0  0  0  0  0  0
  151.0793  143.2411  156.7021 H   0  0  0  0  0  0  0  0  0  0  0  0
  151.0962  141.6975  156.0086 H   0  0  0  0  0  0  0  0  0  0  0  0
  152.3836  140.2993  154.4412 H   0  0  0  0  0  0  0  0  0  0  0  0
  152.4987  139.0751  155.6760 H   0  0  0  0  0  0  0  0  0  0  0  0
  149.5310  141.1318  154.8978 H   0  0  0  0  0  0  0  0  0  0  0  0
  146.6423  140.4401  153.0523 H   0  0  0  0  0  0  0  0  0  0  0  0
  146.6621  142.6827  154.0474 H   0  0  0  0  0  0  0  0  0  0  0  0
  148.2781  142.2629  153.4941 H   0  0  0  0  0  0  0  0  0  0  0  0
  147.8901  142.2035  155.2121 H   0  0  0  0  0  0  0  0  0  0  0  0
  145.0343  140.7585  154.8229 H   0  0  0  0  0  0  0  0  0  0  0  0
  146.1963  140.3171  156.0612 H   0  0  0  0  0  0  0  0  0  0  0  0
  145.6432  139.1114  154.9004 H   0  0  0  0  0  0  0  0  0  0  0  0
  152.5061  141.0945  160.1106 H   0  0  0  0  0  0  0  0  0  0  0  0
  150.8825  141.7494  160.1736 H   0  0  0  0  0  0  0  0  0  0  0  0
  1  2  1  0  0  0  0
  1 24  1  0  0  0  0
  1 25  1  0  0  0  0
  1 26  1  0  0  0  0
  2 22  1  0  0  0  0
  2  3  2  0  0  0  0
  3  4  1  0  0  0  0
  3 27  1  0  0  0  0
  4  5  1  0  0  0  0
  4 28  1  0  0  0  0
  4 29  1  0  0  0  0
  5  6  1  0  0  0  0
  5 30  1  0  0  0  0
  5 31  1  0  0  0  0
  6  7  1  0  0  0  0
  6 22  1  0  0  0  0
  7  8  2  0  0  0  0
  7  9  1  0  0  0  0
  9 10  1  0  0  0  0
  9 32  1  0  0  0  0
 10 11  1  0  0  0  0
 10 33  1  0  0  0  0
 10 34  1  0  0  0  0
 11 20  1  0  0  0  0
 11 12  2  0  0  0  0
 12 13  1  0  0  0  0
 12 35  1  0  0  0  0
 13 14  1  0  0  0  0
 13 17  1  0  0  0  0
 14 15  1  0  0  0  0
 14 16  1  0  0  0  0
 14 36  1  0  0  0  0
 15 37  1  0  0  0  0
 15 38  1  0  0  0  0
 15 39  1  0  0  0  0
 16 40  1  0  0  0  0
 16 41  1  0  0  0  0
 16 42  1  0  0  0  0
 17 18  2  0  0  0  0
 17 19  1  0  0  0  0
 19 23  1  0  0  0  0
 19 20  1  0  0  0  0
 20 21  2  0  0  0  0
 22 43  1  0  0  0  0
 22 44  1  0  0  0  0
M  END
> <s_m_source_file>
AV-unprocessed.smi

> <i_m_source_file_index>
5

> <i_lp_mmshare_version>
43012

> <i_f3d_flags>
0

> <s_epik_input>
W0NIM11DMT1bQ0hdW0NIMl1bQ0gyXU4oW0NIMl0xKUMoPU8pW05IXVtDSDJdYzJbY0hdbihbQ0hdKFtDSDNdKVtDSDNdKWMoPU8pW25IXWMyPU8=

> <s_epik_cmdline>
J2VwaWtfcHl0aG9uJywgJy1waCcsICc3LjAnLCAnLXRuJywgJzgnLCAnLW1hJywgJzIwMCcsICctbWV0YWxfYmluZGluZycsICctaW1hZScsICc8aW5maWxlLm1hZT4nLCAnLW9tYWUnLCAnPG91dGZpbGUubWFlPic=

> <r_lp_tautomer_probability>
0.999537

> <r_epik_Ionization_Penalty>
0.000965624

> <r_epik_Ionization_Penalty_Charging>
0.000915459

> <r_epik_Ionization_Penalty_Neutral>
5.01649e-05

> <r_epik_State_Penalty>
0.000593189

> <r_epik_Charging_Adjusted_Penalty>
0.00150865

> <i_epik_Tot_Q>
0

> <i_epik_Tot_abs_Q>
0

> <r_epik_Metal_State_Penalty>
0.281504

> <b_epik_Metal_Only>
0

> <s_lp_Force_Field>
OPLS_2005

> <r_lp_Energy>
30.7874

> <b_lp_Chiralities_Consistent>
1

> <s_lp_Variant>
AV-unprocessed.smi:5-1

> <Gold.Version>
5.8.1

> <Gold.Id.Protein>
6NUR|6NUR_protein|mol2

> <Gold.PLP.Fitness>
46.6449

> <Gold.PLP.PLP>
-41.7691

> <Gold.PLP.part.hbond>
-2.4212

> <Gold.PLP.part.metal>
0.0000

> <Gold.PLP.part.buried>
-1.8253

> <Gold.PLP.part.nonpolar>
-39.3907

> <Gold.PLP.part.repulsive>
1.9681

> <Gold.PLP.ligand.clash>
0.0000

> <Gold.PLP.ligand.torsion>
0.6469

> <Gold.PLP.Chemscore.Hbond>
2.0360

> <Gold.PLP.Chemscore.CHOScore>
0.0000

> <Gold.PLP.Chemscore.Metal>
0.0000

> <Gold.Chemscore.Hbonds>
donor molecule, donor type, donor heavy atom, donor atom, acceptor molecule, acceptor atom, score
      L1  H    19    23       P1  7948  0.27
      P1  H  7997  8009       L1     8  1.00
      P1  H 10752 10764       L1    21  0.76

> <Gold.PLP.Chemscore.Internal.Correction>
0.0617

> <Gold.Rescore>
     Score         DG    S(hbond)    S(metal)    S(lipo)     H(rot)  DE(clash)    DE(int)     intcor
     17.49     -19.42       1.55        0.00     107.34       1.48       1.24       0.69       ----

> <Gold.Chemscore.Fitness>
17.4931

> <Gold.Chemscore.DG>
-19.4187

> <Gold.Chemscore.ZeroCoef>
-5.4800

> <Gold.Chemscore.Hbond>
1.5510

> <Gold.Chemscore.Metal>
0.0000

> <Gold.Chemscore.Lipo>
107.3407

> <Gold.Chemscore.Internal_Hbond>
0.0000

> <Gold.Chemscore.DEClash>
1.2360

> <Gold.Chemscore.DEInternal>
0.6896

> <Gold.Chemscore.Rot>
1.4846

> <Gold.Chemscore.Internal.Correction>
   9.000000E+99

> <Gold.Chemscore.Hbonds>
donor molecule, donor type, donor heavy atom, donor atom, acceptor molecule, acceptor atom, score
      L1  H    19    23       P1  7948  0.28
      P1  H  7997  8009       L1     8  0.54
      P1  H 10752 10764       L1    21  0.75

> <Gold.Chemscore.Hbond.Weighted>
-5.1804

> <Gold.Chemscore.Metal.Weighted>
-0.0000

> <Gold.Chemscore.Lipo.Weighted>
-12.5589

> <Gold.Chemscore.Internal_Hbond.Weighted>
0.0000

> <Gold.Chemscore.DEClash.Weighted>
1.2360

> <Gold.Chemscore.DEInternal.Weighted>
0.6896

> <Gold.Chemscore.Rot.Weighted>
3.8005

> <Gold.Chemscore.Internal.Correction.Weighted>
   9.000000E+99

> <Gold.Protein.RotatedTorsions>
[ 6907 6896 6895 6894 ] final  149.02 input  -60.11 | X-H torsion
[ 7974 7965 7964 7962 ] final   -7.46 input  175.53 | X-H torsion
[ 8008 7997 7996 7995 ] final  162.39 input   59.86 | X-H torsion
[ 10167 10162 10161 10158 ] final  -16.67 input  -65.29 | X-H torsion
[ 10718 10713 10712 10709 ] final   27.98 input   66.30 | X-H torsion
[ 10763 10752 10751 10750 ] final  -71.44 input  -60.55 | X-H torsion
[ 11005 11000 10999 10996 ] final  -35.03 input  -57.11 | X-H torsion

> <Gold.Protein.ActiveResidues>
 VAL166  LYS551  ARG553  GLY616  TRP617  ASP618  TYR619  PRO620  LYS621  CYS622 
 ASP623  PHE694  ASN695  SER759  ASP760  ASP761  ALA762  ILE779  LEU786  VAL792 
 PHE793  MET794  SER795  GLU796  ALA797  LYS798  CYS799  TRP800  GLU811  SER814 

> <Gold.Protein.RotatedAtoms>
  152.1336  133.4422  159.4732 H   0  0  0  0  0  0  0  0  0  0  0  0  # atno 6907 bound_to 6896
  150.6880  134.2390  159.4474 H   0  0  0  0  0  0  0  0  0  0  0  0  # atno 6908 bound_to 6896
  152.0276  134.9786  160.0622 H   0  0  0  0  0  0  0  0  0  0  0  0  # atno 6909 bound_to 6896
  146.2306  140.2323  142.8340 H   0  0  0  0  0  0  0  0  0  0  0  0  # atno 7974 bound_to 7965
  156.2034  140.1751  156.7850 H   0  0  0  0  0  0  0  0  0  0  0  0  # atno 8008 bound_to 7997
  154.5623  140.0697  156.8868 H   0  0  0  0  0  0  0  0  0  0  0  0  # atno 8009 bound_to 7997
  155.2826  140.3350  155.4260 H   0  0  0  0  0  0  0  0  0  0  0  0  # atno 8010 bound_to 7997
  140.7237  143.5092  150.9771 H   0  0  0  0  0  0  0  0  0  0  0  0  # atno 10167 bound_to 10162
  157.2273  130.7007  149.6297 H   0  0  0  0  0  0  0  0  0  0  0  0  # atno 10718 bound_to 10713
  154.4318  135.5962  153.6074 H   0  0  0  0  0  0  0  0  0  0  0  0  # atno 10763 bound_to 10752
  152.9799  135.5977  154.3829 H   0  0  0  0  0  0  0  0  0  0  0  0  # atno 10764 bound_to 10752
  154.3668  135.2841  155.2267 H   0  0  0  0  0  0  0  0  0  0  0  0  # atno 10765 bound_to 10752
  140.9764  133.7081  156.1609 H   0  0  0  0  0  0  0  0  0  0  0  0  # atno 11005 bound_to 11000
  144.9548  140.8215  143.5550 LP  0  0  0  0  0  0  0  0  0  0  0  0  # atno 17320 bound_to 7965
  145.2288  139.2125  143.5054 LP  0  0  0  0  0  0  0  0  0  0  0  0  # atno 17321 bound_to 7965
  139.8805  143.7078  152.3157 LP  0  0  0  0  0  0  0  0  0  0  0  0  # atno 17342 bound_to 10162
  139.7358  144.7571  151.0729 LP  0  0  0  0  0  0  0  0  0  0  0  0  # atno 17343 bound_to 10162
  155.9678  130.4500  150.5680 LP  0  0  0  0  0  0  0  0  0  0  0  0  # atno 17370 bound_to 10713
  157.3514  131.0734  151.1710 LP  0  0  0  0  0  0  0  0  0  0  0  0  # atno 17371 bound_to 10713
  140.7252  134.4314  157.5571 LP  0  0  0  0  0  0  0  0  0  0  0  0  # atno 17394 bound_to 11000
  139.8932  134.8736  156.2234 LP  0  0  0  0  0  0  0  0  0  0  0  0  # atno 17395 bound_to 11000

$$$$
