AV-unprocessed.smi:78|AV-procd|sdf|776|dock8
  -GOLD-   2262017133D 1   1.00000     0.00000
 Structure written by MMmdl.
 56 59  0  0  0  0  0  0  0  0  1 V2000
  152.0537  138.1214  154.0562 C   0  0  0  0  0  0  0  0  0  0  0  0
  151.0296  139.0516  154.7275 C   0  0  0  0  0  0  0  0  0  0  0  0
  151.2259  139.0542  156.2508 C   0  0  0  0  0  0  0  0  0  0  0  0
  149.5698  138.6837  154.3706 C   0  0  0  0  0  0  0  0  0  0  0  0
  148.4700  139.5330  155.0696 C   0  0  1  0  0  0  0  0  0  0  0  0
  148.2407  140.9217  154.4317 C   0  0  0  0  0  0  0  0  0  0  0  0
  149.1505  141.4923  153.8329 O   0  0  0  0  0  0  0  0  0  0  0  0
  147.0285  141.4884  154.5694 N   0  0  0  0  0  0  0  0  0  0  0  0
  145.8709  140.8888  155.2390 C   0  0  0  0  0  0  0  0  0  0  0  0
  146.2012  139.5894  156.0056 C   0  0  0  0  0  0  0  0  0  0  0  0
  147.2111  138.8052  155.3013 N   0  0  0  0  0  0  0  0  0  0  0  0
  146.6715  138.0385  154.3185 C   0  0  0  0  0  0  0  0  0  0  0  0
  145.8799  138.5883  153.3597 N   0  0  0  0  0  0  0  0  0  0  0  0
  145.3438  137.8182  152.4084 C   0  0  0  0  0  0  0  0  0  0  0  0
  145.4594  136.4993  152.2387 N   0  0  0  0  0  0  0  0  0  0  0  0
  146.2439  135.9428  153.2057 C   0  0  0  0  0  0  0  0  0  0  0  0
  146.8847  136.6351  154.2705 C   0  0  0  0  0  0  0  0  0  0  0  0
  147.6148  135.7451  155.0475 N   0  0  0  0  0  0  0  0  0  0  0  0
  147.4208  134.5903  154.4706 C   0  0  0  0  0  0  0  0  0  0  0  0
  146.5868  134.6130  153.3743 N   0  0  0  0  0  0  0  0  0  0  0  0
  146.2254  133.5061  152.5382 C   0  0  0  0  0  0  0  0  0  0  0  0
  146.3808  133.5907  151.0171 C   0  0  0  0  0  0  0  0  0  0  0  0
  145.1501  132.6686  150.8526 C   0  0  0  0  0  0  0  0  0  0  0  0
  144.1623  133.0016  149.7168 C   0  0  0  0  0  0  0  0  0  0  0  0
  142.9893  132.2139  149.7671 O   0  0  0  0  0  0  0  0  0  0  0  0
  145.4616  131.1626  150.7572 C   0  0  0  0  0  0  0  0  0  0  0  0
  146.4899  130.9022  149.8232 O   0  0  0  0  0  0  0  0  0  0  0  0
  144.7599  133.1453  152.2710 C   0  0  0  0  0  0  0  0  0  0  0  0
  151.8729  137.0781  154.3163 H   0  0  0  0  0  0  0  0  0  0  0  0
  153.0693  138.3688  154.3657 H   0  0  0  0  0  0  0  0  0  0  0  0
  152.0229  138.2070  152.9702 H   0  0  0  0  0  0  0  0  0  0  0  0
  151.2332  140.0662  154.3862 H   0  0  0  0  0  0  0  0  0  0  0  0
  151.0474  138.0655  156.6747 H   0  0  0  0  0  0  0  0  0  0  0  0
  150.5424  139.7527  156.7346 H   0  0  0  0  0  0  0  0  0  0  0  0
  152.2403  139.3525  156.5167 H   0  0  0  0  0  0  0  0  0  0  0  0
  149.4548  138.7731  153.2894 H   0  0  0  0  0  0  0  0  0  0  0  0
  149.4073  137.6268  154.5823 H   0  0  0  0  0  0  0  0  0  0  0  0
  148.8515  139.7690  156.0630 H   0  0  0  0  0  0  0  0  0  0  0  0
  146.8914  142.4008  154.1588 H   0  0  0  0  0  0  0  0  0  0  0  0
  145.4145  141.6192  155.9072 H   0  0  0  0  0  0  0  0  0  0  0  0
  145.1331  140.6726  154.4657 H   0  0  0  0  0  0  0  0  0  0  0  0
  146.6005  139.8391  156.9892 H   0  0  0  0  0  0  0  0  0  0  0  0
  145.2937  139.0119  156.1902 H   0  0  0  0  0  0  0  0  0  0  0  0
  144.7326  138.3319  151.6811 H   0  0  0  0  0  0  0  0  0  0  0  0
  147.8803  133.6845  154.8380 H   0  0  0  0  0  0  0  0  0  0  0  0
  146.7680  132.6449  152.9318 H   0  0  0  0  0  0  0  0  0  0  0  0
  146.2220  134.6031  150.6426 H   0  0  0  0  0  0  0  0  0  0  0  0
  147.3189  133.1831  150.6393 H   0  0  0  0  0  0  0  0  0  0  0  0
  143.8556  134.0471  149.7568 H   0  0  0  0  0  0  0  0  0  0  0  0
  144.6261  132.8468  148.7418 H   0  0  0  0  0  0  0  0  0  0  0  0
  142.2407  132.7907  149.7732 H   0  0  0  0  0  0  0  0  0  0  0  0
  145.7783  130.7606  151.7197 H   0  0  0  0  0  0  0  0  0  0  0  0
  144.5752  130.5969  150.4686 H   0  0  0  0  0  0  0  0  0  0  0  0
  147.3232  131.0142  150.2547 H   0  0  0  0  0  0  0  0  0  0  0  0
  144.3629  132.3664  152.9229 H   0  0  0  0  0  0  0  0  0  0  0  0
  144.1093  134.0212  152.2765 H   0  0  0  0  0  0  0  0  0  0  0  0
  1  2  1  0  0  0  0
  1 29  1  0  0  0  0
  1 30  1  0  0  0  0
  1 31  1  0  0  0  0
  2  3  1  0  0  0  0
  2  4  1  0  0  0  0
  2 32  1  0  0  0  0
  3 33  1  0  0  0  0
  3 34  1  0  0  0  0
  3 35  1  0  0  0  0
  4  5  1  0  0  0  0
  4 36  1  0  0  0  0
  4 37  1  0  0  0  0
  5 11  1  0  0  0  0
  5  6  1  0  0  0  0
  5 38  1  0  0  0  0
  6  7  2  0  0  0  0
  6  8  1  0  0  0  0
  8  9  1  0  0  0  0
  8 39  1  0  0  0  0
  9 10  1  0  0  0  0
  9 40  1  0  0  0  0
  9 41  1  0  0  0  0
 10 11  1  0  0  0  0
 10 42  1  0  0  0  0
 10 43  1  0  0  0  0
 11 12  1  0  0  0  0
 12 17  1  0  0  0  0
 12 13  2  0  0  0  0
 13 14  1  0  0  0  0
 14 15  2  0  0  0  0
 14 44  1  0  0  0  0
 15 16  1  0  0  0  0
 16 20  1  0  0  0  0
 16 17  2  0  0  0  0
 17 18  1  0  0  0  0
 18 19  2  0  0  0  0
 19 20  1  0  0  0  0
 19 45  1  0  0  0  0
 20 21  1  0  0  0  0
 21 28  1  0  0  0  0
 21 22  1  0  0  0  0
 21 46  1  0  0  0  0
 22 23  1  0  0  0  0
 22 47  1  0  0  0  0
 22 48  1  0  0  0  0
 23 24  1  0  0  0  0
 23 26  1  0  0  0  0
 23 28  1  0  0  0  0
 24 25  1  0  0  0  0
 24 49  1  0  0  0  0
 24 50  1  0  0  0  0
 25 51  1  0  0  0  0
 26 27  1  0  0  0  0
 26 52  1  0  0  0  0
 26 53  1  0  0  0  0
 27 54  1  0  0  0  0
 28 55  1  0  0  0  0
 28 56  1  0  0  0  0
M  END
> <s_m_source_file>
AV-unprocessed.smi

> <i_m_source_file_index>
78

> <i_lp_mmshare_version>
43012

> <i_f3d_flags>
0

> <s_epik_input>
W0NIM11bQ0hdKFtDSDNdKVtDSDJdW0NAQEhdMUMoPU8pW05IXVtDSDJdW0NIMl1OMWMobltjSF1uMiljKGMyMyluW2NIXW4zW0NIXShbQ0gyXTQpW0NIMl1DNChbQ0gyXVtPSF0pW0NIMl1bT0hd

> <s_epik_cmdline>
J2VwaWtfcHl0aG9uJywgJy1waCcsICc3LjAnLCAnLXRuJywgJzgnLCAnLW1hJywgJzIwMCcsICctbWV0YWxfYmluZGluZycsICctaW1hZScsICc8aW5maWxlLm1hZT4nLCAnLW9tYWUnLCAnPG91dGZpbGUubWFlPic=

> <r_lp_tautomer_probability>
1

> <r_epik_Ionization_Penalty>
0.000550083

> <r_epik_Ionization_Penalty_Charging>
0

> <r_epik_Ionization_Penalty_Neutral>
0.000550083

> <r_epik_State_Penalty>
0.000250415

> <r_epik_Charging_Adjusted_Penalty>
0.000250415

> <i_epik_Tot_Q>
0

> <i_epik_Tot_abs_Q>
0

> <r_epik_Metal_State_Penalty>
-0

> <b_epik_Metal_Only>
0

> <s_lp_Force_Field>
OPLS_2005

> <r_lp_Energy>
48.678

> <b_lp_Chiralities_Consistent>
1

> <s_lp_Variant>
AV-unprocessed.smi:78-2

> <Gold.Version>
5.8.1

> <Gold.Id.Protein>
6NUR|6NUR_protein|mol2

> <Gold.PLP.Fitness>
45.0541

> <Gold.PLP.PLP>
-32.5856

> <Gold.PLP.part.hbond>
-4.9749

> <Gold.PLP.part.metal>
0.0000

> <Gold.PLP.part.buried>
-2.5045

> <Gold.PLP.part.nonpolar>
-26.8625

> <Gold.PLP.part.repulsive>
1.7900

> <Gold.PLP.ligand.clash>
0.0000

> <Gold.PLP.ligand.torsion>
1.2360

> <Gold.PLP.Chemscore.Hbond>
2.9793

> <Gold.PLP.Chemscore.CHOScore>
1.7226

> <Gold.PLP.Chemscore.Metal>
0.0000

> <Gold.Chemscore.Hbonds>
donor molecule, donor type, donor heavy atom, donor atom, acceptor molecule, acceptor atom, score
      L1  H    25    51       P1 10186  0.96
      L1  H    27    54       P1 10747  0.99
      P1  H  8011  8017       L1     7  0.74
      P1  H 10785 10796       L1    25  0.28
      L1  C    14    44       P1 10171  1.00
      L1  C    14    44       P1 10175  0.73

> <Gold.PLP.Chemscore.Internal.Correction>
0.8349

> <Gold.Rescore>
     Score         DG    S(hbond)    S(metal)    S(lipo)     H(rot)  DE(clash)    DE(int)     intcor
     10.27     -15.14       2.92        0.00      80.79       3.72       2.38       2.49       ----

> <Gold.Chemscore.Fitness>
10.2679

> <Gold.Chemscore.DG>
-15.1419

> <Gold.Chemscore.ZeroCoef>
-5.4800

> <Gold.Chemscore.Hbond>
2.9170

> <Gold.Chemscore.Metal>
0.0000

> <Gold.Chemscore.Lipo>
80.7899

> <Gold.Chemscore.Internal_Hbond>
0.0000

> <Gold.Chemscore.DEClash>
2.3809

> <Gold.Chemscore.DEInternal>
2.4931

> <Gold.Chemscore.Rot>
3.7239

> <Gold.Chemscore.Internal.Correction>
   9.000000E+99

> <Gold.Chemscore.Hbonds>
donor molecule, donor type, donor heavy atom, donor atom, acceptor molecule, acceptor atom, score
      L1  H    25    51       P1 10186  0.90
      L1  H    27    54       P1 10747  0.93
      P1  H  8011  8017       L1     7  0.74
      P1  H 10785 10796       L1    25  0.24

> <Gold.Chemscore.Hbond.Weighted>
-9.7427

> <Gold.Chemscore.Metal.Weighted>
-0.0000

> <Gold.Chemscore.Lipo.Weighted>
-9.4524

> <Gold.Chemscore.Internal_Hbond.Weighted>
0.0000

> <Gold.Chemscore.DEClash.Weighted>
2.3809

> <Gold.Chemscore.DEInternal.Weighted>
2.4931

> <Gold.Chemscore.Rot.Weighted>
9.5332

> <Gold.Chemscore.Internal.Correction.Weighted>
   9.000000E+99

> <Gold.Protein.RotatedTorsions>
[ 6907 6896 6895 6894 ] final   15.51 input  -60.11 | X-H torsion
[ 7974 7965 7964 7962 ] final -113.46 input  175.53 | X-H torsion
[ 8008 7997 7996 7995 ] final  -29.02 input   59.86 | X-H torsion
[ 10167 10162 10161 10158 ] final  155.87 input  -65.29 | X-H torsion
[ 10718 10713 10712 10709 ] final   55.48 input   66.30 | X-H torsion
[ 10763 10752 10751 10750 ] final    6.33 input  -60.55 | X-H torsion
[ 11005 11000 10999 10996 ] final  176.11 input  -57.11 | X-H torsion

> <Gold.Protein.ActiveResidues>
 VAL166  LYS551  ARG553  GLY616  TRP617  ASP618  TYR619  PRO620  LYS621  CYS622 
 ASP623  PHE694  ASN695  SER759  ASP760  ASP761  ALA762  ILE779  LEU786  VAL792 
 PHE793  MET794  SER795  GLU796  ALA797  LYS798  CYS799  TRP800  GLU811  SER814 

> <Gold.Protein.RotatedAtoms>
  151.8192  135.0657  160.0422 H   0  0  0  0  0  0  0  0  0  0  0  0  # atno 6907 bound_to 6896
  152.2963  133.5606  159.5598 H   0  0  0  0  0  0  0  0  0  0  0  0  # atno 6908 bound_to 6896
  150.7253  134.0272  159.3763 H   0  0  0  0  0  0  0  0  0  0  0  0  # atno 6909 bound_to 6896
  145.1317  140.8728  143.3754 H   0  0  0  0  0  0  0  0  0  0  0  0  # atno 7974 bound_to 7965
  154.4307  140.1829  156.1182 H   0  0  0  0  0  0  0  0  0  0  0  0  # atno 8008 bound_to 7997
  156.0164  140.3345  155.6968 H   0  0  0  0  0  0  0  0  0  0  0  0  # atno 8009 bound_to 7997
  155.6038  140.0643  157.2716 H   0  0  0  0  0  0  0  0  0  0  0  0  # atno 8010 bound_to 7997
  139.4821  144.5060  151.8097 H   0  0  0  0  0  0  0  0  0  0  0  0  # atno 10167 bound_to 10162
  157.5348  130.8656  149.8738 H   0  0  0  0  0  0  0  0  0  0  0  0  # atno 10718 bound_to 10713
  153.2489  135.6911  153.7700 H   0  0  0  0  0  0  0  0  0  0  0  0  # atno 10763 bound_to 10752
  153.6802  135.3329  155.3177 H   0  0  0  0  0  0  0  0  0  0  0  0  # atno 10764 bound_to 10752
  154.8386  135.4521  154.1439 H   0  0  0  0  0  0  0  0  0  0  0  0  # atno 10765 bound_to 10752
  140.3695  134.7042  157.4383 H   0  0  0  0  0  0  0  0  0  0  0  0  # atno 11005 bound_to 11000
  145.0628  139.3092  143.5872 LP  0  0  0  0  0  0  0  0  0  0  0  0  # atno 17320 bound_to 7965
  146.3513  140.0075  142.8670 LP  0  0  0  0  0  0  0  0  0  0  0  0  # atno 17321 bound_to 7965
  140.4558  144.1791  150.5901 LP  0  0  0  0  0  0  0  0  0  0  0  0  # atno 17342 bound_to 10162
  140.4537  143.2476  151.9314 LP  0  0  0  0  0  0  0  0  0  0  0  0  # atno 17343 bound_to 10162
  156.0450  130.3730  150.1339 LP  0  0  0  0  0  0  0  0  0  0  0  0  # atno 17370 bound_to 10713
  156.9522  130.9778  151.3496 LP  0  0  0  0  0  0  0  0  0  0  0  0  # atno 17371 bound_to 10713
  140.0563  134.6059  155.8802 LP  0  0  0  0  0  0  0  0  0  0  0  0  # atno 17394 bound_to 11000
  141.1959  133.6589  156.5665 LP  0  0  0  0  0  0  0  0  0  0  0  0  # atno 17395 bound_to 11000

$$$$
