AV-unprocessed.smi:769|AV-procd|sdf|3677|dock8
  -GOLD-   22720 1 93D 1   1.00000     0.00000
 Structure written by MMmdl.
 51 53  0  0  0  0  0  0  0  0  3 V2000
  145.9558  136.2599  155.4382 O   0  0  0  0  0  0  0  0  0  0  0  0
  146.7966  136.3099  154.5409 C   0  0  0  0  0  0  0  0  0  0  0  0
  148.0518  136.7404  154.7340 N   0  0  0  0  0  0  0  0  0  0  0  0
  148.5969  137.1712  156.0167 C   0  0  0  0  0  0  0  0  0  0  0  0
  149.9219  137.9396  155.8437 C   0  0  0  0  0  0  0  0  0  0  0  0
  149.7383  139.4116  155.8992 N   0  3  0  0  0  0  0  0  0  0  0  0
  148.8523  139.8223  157.0224 C   0  0  0  0  0  0  0  0  0  0  0  0
  148.6690  141.3504  157.0729 C   0  0  0  0  0  0  0  0  0  0  0  0
  149.9889  141.9827  157.1467 N   0  0  0  0  0  0  0  0  0  0  0  0
  150.4244  142.6528  158.2415 C   0  0  0  0  0  0  0  0  0  0  0  0
  149.6962  142.8540  159.2141 O   0  0  0  0  0  0  0  0  0  0  0  0
  151.8893  143.1390  158.2874 C   0  0  0  0  0  0  0  0  0  0  0  0
  152.4935  143.3728  159.6867 C   0  0  0  0  0  0  0  0  0  0  0  0
  152.2744  144.8784  159.5114 C   0  0  0  0  0  0  0  0  0  0  0  0
  152.0573  144.6433  158.0132 C   0  0  0  0  0  0  0  0  0  0  0  0
  150.7802  141.6872  155.9490 C   0  0  0  0  0  0  0  0  0  0  0  0
  151.0218  140.1688  155.8722 C   0  0  0  0  0  0  0  0  0  0  0  0
  146.5884  135.9680  153.2573 N   0  0  0  0  0  0  0  0  0  0  0  0
  145.4080  135.4551  152.6519 C   0  0  0  0  0  0  0  0  0  0  0  0
  145.3342  135.4851  151.2413 C   0  0  0  0  0  0  0  0  0  0  0  0
  144.1914  134.9755  150.5921 C   0  0  0  0  0  0  0  0  0  0  0  0
  143.1807  134.4552  151.3204 N   0  3  0  0  0  0  0  0  0  0  0  0
  143.2102  134.3918  152.6687 C   0  0  0  0  0  0  0  0  0  0  0  0
  144.3273  134.8855  153.3734 C   0  0  0  0  0  0  0  0  0  0  0  0
  148.6800  136.7542  153.9433 H   0  0  0  0  0  0  0  0  0  0  0  0
  147.8489  137.7729  156.5338 H   0  0  0  0  0  0  0  0  0  0  0  0
  148.7594  136.2845  156.6302 H   0  0  0  0  0  0  0  0  0  0  0  0
  150.5965  137.6336  156.6449 H   0  0  0  0  0  0  0  0  0  0  0  0
  150.4154  137.6712  154.9082 H   0  0  0  0  0  0  0  0  0  0  0  0
  147.8785  139.3427  156.9156 H   0  0  0  0  0  0  0  0  0  0  0  0
  149.2782  139.4711  157.9640 H   0  0  0  0  0  0  0  0  0  0  0  0
  148.1529  141.6978  156.1766 H   0  0  0  0  0  0  0  0  0  0  0  0
  148.0208  141.6152  157.9092 H   0  0  0  0  0  0  0  0  0  0  0  0
  152.5468  142.5118  157.6841 H   0  0  0  0  0  0  0  0  0  0  0  0
  151.9537  142.9428  160.5310 H   0  0  0  0  0  0  0  0  0  0  0  0
  153.5503  143.1062  159.7295 H   0  0  0  0  0  0  0  0  0  0  0  0
  151.3742  145.2328  160.0158 H   0  0  0  0  0  0  0  0  0  0  0  0
  153.1420  145.4933  159.7526 H   0  0  0  0  0  0  0  0  0  0  0  0
  152.9427  144.8611  157.4142 H   0  0  0  0  0  0  0  0  0  0  0  0
  151.1758  145.1472  157.6139 H   0  0  0  0  0  0  0  0  0  0  0  0
  150.2261  142.0178  155.0693 H   0  0  0  0  0  0  0  0  0  0  0  0
  151.7281  142.2209  155.9039 H   0  0  0  0  0  0  0  0  0  0  0  0
  151.6475  139.8535  156.7089 H   0  0  0  0  0  0  0  0  0  0  0  0
  151.5751  139.9446  154.9612 H   0  0  0  0  0  0  0  0  0  0  0  0
  147.3571  136.1384  152.6252 H   0  0  0  0  0  0  0  0  0  0  0  0
  146.1433  135.8990  150.6569 H   0  0  0  0  0  0  0  0  0  0  0  0
  144.0573  134.9671  149.5201 H   0  0  0  0  0  0  0  0  0  0  0  0
  142.3473  133.9453  153.1413 H   0  0  0  0  0  0  0  0  0  0  0  0
  144.3343  134.8045  154.4493 H   0  0  0  0  0  0  0  0  0  0  0  0
  149.2408  139.6679  155.0583 H   0  0  0  0  0  0  0  0  0  0  0  0
  142.3624  134.0907  150.8316 H   0  0  0  0  0  0  0  0  0  0  0  0
  1  2  2  0  0  0  0
  2  3  1  0  0  0  0
  2 18  1  0  0  0  0
  3  4  1  0  0  0  0
  3 25  1  0  0  0  0
  4  5  1  0  0  0  0
  4 26  1  0  0  0  0
  4 27  1  0  0  0  0
  5  6  1  0  0  0  0
  5 28  1  0  0  0  0
  5 29  1  0  0  0  0
  6 17  1  0  0  0  0
  6  7  1  0  0  0  0
  6 50  1  0  0  0  0
  7  8  1  0  0  0  0
  7 30  1  0  0  0  0
  7 31  1  0  0  0  0
  8  9  1  0  0  0  0
  8 32  1  0  0  0  0
  8 33  1  0  0  0  0
  9 10  1  0  0  0  0
  9 16  1  0  0  0  0
 10 11  2  0  0  0  0
 10 12  1  0  0  0  0
 12 15  1  0  0  0  0
 12 13  1  0  0  0  0
 12 34  1  0  0  0  0
 13 14  1  0  0  0  0
 13 35  1  0  0  0  0
 13 36  1  0  0  0  0
 14 15  1  0  0  0  0
 14 37  1  0  0  0  0
 14 38  1  0  0  0  0
 15 39  1  0  0  0  0
 15 40  1  0  0  0  0
 16 17  1  0  0  0  0
 16 41  1  0  0  0  0
 16 42  1  0  0  0  0
 17 43  1  0  0  0  0
 17 44  1  0  0  0  0
 18 19  1  0  0  0  0
 18 45  1  0  0  0  0
 19 24  1  0  0  0  0
 19 20  2  0  0  0  0
 20 21  1  0  0  0  0
 20 46  1  0  0  0  0
 21 22  2  0  0  0  0
 21 47  1  0  0  0  0
 22 23  1  0  0  0  0
 22 51  1  0  0  0  0
 23 24  2  0  0  0  0
 23 48  1  0  0  0  0
 24 49  1  0  0  0  0
M  CHG  1   6   1
M  CHG  1  22   1
M  END
> <s_m_source_file>
AV-unprocessed.smi

> <i_m_source_file_index>
769

> <i_lp_mmshare_version>
43012

> <i_f3d_flags>
0

> <s_epik_input>
W2NIXTFbY0hdbltjSF1bY0hdYzFbTkhdQyg9TylbTkhdW0NIMl1bQ0gyXU4yW0NIMl1bQ0gyXU4oW0NIMl1bQ0gyXTIpQyg9TylbQ0hdM1tDSDJdW0NIMl1bQ0gyXTM=

> <s_epik_cmdline>
J2VwaWtfcHl0aG9uJywgJy1waCcsICc3LjAnLCAnLXRuJywgJzgnLCAnLW1hJywgJzIwMCcsICctbWV0YWxfYmluZGluZycsICctaW1hZScsICc8aW5maWxlLm1hZT4nLCAnLW9tYWUnLCAnPG91dGZpbGUubWFlPic=

> <r_epik_Ionization_Penalty>
1.74797

> <r_epik_Ionization_Penalty_Charging>
1.74795

> <r_epik_Ionization_Penalty_Neutral>
1.97893e-05

> <r_epik_State_Penalty>
1.75255

> <r_epik_Charging_Adjusted_Penalty>
3.5005

> <i_epik_Tot_Q>
2

> <i_epik_Tot_abs_Q>
2

> <r_epik_Metal_State_Penalty>
1.84999

> <b_epik_Metal_Only>
0

> <s_lp_Force_Field>
OPLS_2005

> <r_lp_Energy>
63.8018

> <b_lp_Chiralities_Consistent>
1

> <s_lp_Variant>
AV-unprocessed.smi:769-4

> <Gold.Version>
5.8.1

> <Gold.Id.Protein>
6NUR|6NUR_protein|mol2

> <Gold.PLP.Fitness>
51.2665

> <Gold.PLP.PLP>
-41.4673

> <Gold.PLP.part.hbond>
-3.9321

> <Gold.PLP.part.metal>
0.0000

> <Gold.PLP.part.buried>
-4.8475

> <Gold.PLP.part.nonpolar>
-32.4446

> <Gold.PLP.part.repulsive>
0.1661

> <Gold.PLP.ligand.clash>
0.0000

> <Gold.PLP.ligand.torsion>
1.0651

> <Gold.PLP.Chemscore.Hbond>
3.8320

> <Gold.PLP.Chemscore.CHOScore>
0.0000

> <Gold.PLP.Chemscore.Metal>
0.0000

> <Gold.Chemscore.Hbonds>
donor molecule, donor type, donor heavy atom, donor atom, acceptor molecule, acceptor atom, score
      L1  H     3    25       P1  7948  0.65
      L1  H    18    45       P1  7948  1.00
      L1  H    22    51       P1 10186  1.86

> <Gold.PLP.Chemscore.Internal.Correction>
0.4334

> <Gold.Rescore>
     Score         DG    S(hbond)    S(metal)    S(lipo)     H(rot)  DE(clash)    DE(int)     intcor
     18.45     -20.70       2.44        0.00      98.98       1.76       0.01       2.24       ----

> <Gold.Chemscore.Fitness>
18.4457

> <Gold.Chemscore.DG>
-20.7020

> <Gold.Chemscore.ZeroCoef>
-5.4800

> <Gold.Chemscore.Hbond>
2.4404

> <Gold.Chemscore.Metal>
0.0000

> <Gold.Chemscore.Lipo>
98.9772

> <Gold.Chemscore.Internal_Hbond>
0.0000

> <Gold.Chemscore.DEClash>
0.0126

> <Gold.Chemscore.DEInternal>
2.2437

> <Gold.Chemscore.Rot>
1.7614

> <Gold.Chemscore.Internal.Correction>
   9.000000E+99

> <Gold.Chemscore.Hbonds>
donor molecule, donor type, donor heavy atom, donor atom, acceptor molecule, acceptor atom, score
      L1  H     3    25       P1  7948  0.63
      L1  H    18    45       P1  7948  1.00
      L1  H    22    51       P1 10186  0.35

> <Gold.Chemscore.Hbond.Weighted>
-8.1508

> <Gold.Chemscore.Metal.Weighted>
-0.0000

> <Gold.Chemscore.Lipo.Weighted>
-11.5803

> <Gold.Chemscore.Internal_Hbond.Weighted>
0.0000

> <Gold.Chemscore.DEClash.Weighted>
0.0126

> <Gold.Chemscore.DEInternal.Weighted>
2.2437

> <Gold.Chemscore.Rot.Weighted>
4.5091

> <Gold.Chemscore.Internal.Correction.Weighted>
   9.000000E+99

> <Gold.Protein.RotatedTorsions>
[ 6907 6896 6895 6894 ] final  -57.99 input  -60.11 | X-H torsion
[ 7974 7965 7964 7962 ] final   52.14 input  175.53 | X-H torsion
[ 8008 7997 7996 7995 ] final -167.86 input   59.86 | X-H torsion
[ 10167 10162 10161 10158 ] final -149.01 input  -65.29 | X-H torsion
[ 10718 10713 10712 10709 ] final  -10.88 input   66.30 | X-H torsion
[ 10763 10752 10751 10750 ] final -176.24 input  -60.55 | X-H torsion
[ 11005 11000 10999 10996 ] final   89.48 input  -57.11 | X-H torsion

> <Gold.Protein.ActiveResidues>
 VAL166  LYS551  ARG553  GLY616  TRP617  ASP618  TYR619  PRO620  LYS621  CYS622 
 ASP623  PHE694  ASN695  SER759  ASP760  ASP761  ALA762  ILE779  LEU786  VAL792 
 PHE793  MET794  SER795  GLU796  ALA797  LYS798  CYS799  TRP800  GLU811  SER814 

> <Gold.Protein.RotatedAtoms>
  150.8042  134.7155  159.6628 H   0  0  0  0  0  0  0  0  0  0  0  0  # atno 6907 bound_to 6896
  152.4160  134.6037  160.0017 H   0  0  0  0  0  0  0  0  0  0  0  0  # atno 6908 bound_to 6896
  151.6266  133.3298  159.3135 H   0  0  0  0  0  0  0  0  0  0  0  0  # atno 6909 bound_to 6896
  145.9844  139.4274  143.0112 H   0  0  0  0  0  0  0  0  0  0  0  0  # atno 7974 bound_to 7965
  155.8835  140.1013  157.1469 H   0  0  0  0  0  0  0  0  0  0  0  0  # atno 8008 bound_to 7997
  154.4007  140.1324  156.4290 H   0  0  0  0  0  0  0  0  0  0  0  0  # atno 8009 bound_to 7997
  155.7615  140.3463  155.5203 H   0  0  0  0  0  0  0  0  0  0  0  0  # atno 8010 bound_to 7997
  139.7480  143.8561  152.2579 H   0  0  0  0  0  0  0  0  0  0  0  0  # atno 10167 bound_to 10162
  156.6671  130.4998  149.6012 H   0  0  0  0  0  0  0  0  0  0  0  0  # atno 10718 bound_to 10713
  154.5747  135.2831  155.0793 H   0  0  0  0  0  0  0  0  0  0  0  0  # atno 10763 bound_to 10752
  154.2152  135.6401  153.5131 H   0  0  0  0  0  0  0  0  0  0  0  0  # atno 10764 bound_to 10752
  153.0068  135.5501  154.6381 H   0  0  0  0  0  0  0  0  0  0  0  0  # atno 10765 bound_to 10752
  139.8874  134.8554  156.3148 H   0  0  0  0  0  0  0  0  0  0  0  0  # atno 11005 bound_to 11000
  145.7723  140.9891  143.1143 LP  0  0  0  0  0  0  0  0  0  0  0  0  # atno 17320 bound_to 7965
  144.6870  139.9462  143.7476 LP  0  0  0  0  0  0  0  0  0  0  0  0  # atno 17321 bound_to 7965
  139.8531  144.7154  150.9190 LP  0  0  0  0  0  0  0  0  0  0  0  0  # atno 17342 bound_to 10162
  140.7794  143.3882  151.1356 LP  0  0  0  0  0  0  0  0  0  0  0  0  # atno 17343 bound_to 10162
  156.1967  130.6594  151.1122 LP  0  0  0  0  0  0  0  0  0  0  0  0  # atno 17370 bound_to 10713
  157.7090  131.0743  150.6568 LP  0  0  0  0  0  0  0  0  0  0  0  0  # atno 17371 bound_to 10713
  140.9826  133.7258  156.0694 LP  0  0  0  0  0  0  0  0  0  0  0  0  # atno 17394 bound_to 11000
  140.7729  134.3812  157.5504 LP  0  0  0  0  0  0  0  0  0  0  0  0  # atno 17395 bound_to 11000

$$$$
