AV-unprocessed.smi:2999|AV-procd|sdf|11424|dock6
  -GOLD-   2272016343D 1   1.00000     0.00000
 Structure written by MMmdl.
 36 38  0  0  0  0  0  0  0  0  2 V2000
  151.7084  139.3668  158.6161 O   0  0  0  0  0  0  0  0  0  0  0  0
  152.8272  139.5617  158.1351 C   0  0  0  0  0  0  0  0  0  0  0  0
  153.8369  139.9396  158.9300 N   0  0  0  0  0  0  0  0  0  0  0  0
  153.7357  140.1501  160.3683 C   0  0  0  0  0  0  0  0  0  0  0  0
  153.6830  141.6479  160.7006 C   0  0  1  0  0  0  0  0  0  0  0  0
  152.8398  142.4320  159.6757 C   0  0  0  0  0  0  0  0  0  0  0  0
  152.7375  143.8448  160.0207 N   0  0  0  0  0  0  0  0  0  0  0  0
  151.9237  144.5610  159.0498 C   0  0  0  0  0  0  0  0  0  0  0  0
  151.6510  143.9353  157.7063 C   0  0  0  0  0  0  0  0  0  0  0  0
  152.5747  145.1345  157.8178 C   0  0  0  0  0  0  0  0  0  0  0  0
  152.1770  143.9597  161.3612 C   0  0  0  0  0  0  0  0  0  0  0  0
  153.0060  143.1770  162.3933 C   0  0  0  0  0  0  0  0  0  0  0  0
  153.0980  141.8138  161.9914 O   0  0  0  0  0  0  0  0  0  0  0  0
  153.1736  139.4344  156.8337 N   0  5  0  0  0  0  0  0  0  0  0  0
  152.2376  139.1397  155.9167 C   0  0  0  0  0  0  0  0  0  0  0  0
  150.9251  139.1782  156.1747 N   0  0  0  0  0  0  0  0  0  0  0  0
  150.1335  138.8322  155.0780 C   0  0  0  0  0  0  0  0  0  0  0  0
  150.8605  138.5121  153.9620 C   0  0  0  0  0  0  0  0  0  0  0  0
  152.5715  138.6381  154.2567 S   0  0  0  0  0  0  0  0  0  0  0  0
  154.7408  140.0869  158.5050 H   0  0  0  0  0  0  0  0  0  0  0  0
  152.8320  139.6612  160.7360 H   0  0  0  0  0  0  0  0  0  0  0  0
  154.5837  139.6784  160.8669 H   0  0  0  0  0  0  0  0  0  0  0  0
  154.6990  142.0477  160.7127 H   0  0  0  0  0  0  0  0  0  0  0  0
  153.2863  142.3290  158.6861 H   0  0  0  0  0  0  0  0  0  0  0  0
  151.8427  141.9925  159.6140 H   0  0  0  0  0  0  0  0  0  0  0  0
  151.1231  145.1308  159.5191 H   0  0  0  0  0  0  0  0  0  0  0  0
  152.1058  142.9700  157.4922 H   0  0  0  0  0  0  0  0  0  0  0  0
  150.6680  144.0965  157.2684 H   0  0  0  0  0  0  0  0  0  0  0  0
  152.2044  146.0902  157.4526 H   0  0  0  0  0  0  0  0  0  0  0  0
  153.6400  144.9610  157.6765 H   0  0  0  0  0  0  0  0  0  0  0  0
  152.1299  145.0095  161.6532 H   0  0  0  0  0  0  0  0  0  0  0  0
  151.1510  143.5880  161.3683 H   0  0  0  0  0  0  0  0  0  0  0  0
  154.0056  143.6029  162.4914 H   0  0  0  0  0  0  0  0  0  0  0  0
  152.5370  143.2288  163.3759 H   0  0  0  0  0  0  0  0  0  0  0  0
  149.0587  138.8394  155.1820 H   0  0  0  0  0  0  0  0  0  0  0  0
  150.4975  138.2115  152.9907 H   0  0  0  0  0  0  0  0  0  0  0  0
  1  2  2  0  0  0  0
  2  3  1  0  0  0  0
  2 14  1  0  0  0  0
  3  4  1  0  0  0  0
  3 20  1  0  0  0  0
  4  5  1  0  0  0  0
  4 21  1  0  0  0  0
  4 22  1  0  0  0  0
  5 13  1  0  0  0  0
  5  6  1  0  0  0  0
  5 23  1  0  0  0  0
  6  7  1  0  0  0  0
  6 24  1  0  0  0  0
  6 25  1  0  0  0  0
  7  8  1  0  0  0  0
  7 11  1  0  0  0  0
  8 10  1  0  0  0  0
  8  9  1  0  0  0  0
  8 26  1  0  0  0  0
  9 10  1  0  0  0  0
  9 27  1  0  0  0  0
  9 28  1  0  0  0  0
 10 29  1  0  0  0  0
 10 30  1  0  0  0  0
 11 12  1  0  0  0  0
 11 31  1  0  0  0  0
 11 32  1  0  0  0  0
 12 13  1  0  0  0  0
 12 33  1  0  0  0  0
 12 34  1  0  0  0  0
 14 15  1  0  0  0  0
 15 19  1  0  0  0  0
 15 16  2  0  0  0  0
 16 17  1  0  0  0  0
 17 18  2  0  0  0  0
 17 35  1  0  0  0  0
 18 19  1  0  0  0  0
 18 36  1  0  0  0  0
M  CHG  1  14  -1
M  END
> <s_m_source_file>
AV-unprocessed.smi

> <i_m_source_file_index>
2999

> <i_lp_mmshare_version>
43012

> <i_f3d_flags>
0

> <s_epik_input>
czFbY0hdW2NIXW5jMVtOSF1DKD1PKVtOSF1bQ0gyXVtDQEBIXTJbQ0gyXU4oW0NIMl1bQ0gyXU8yKVtDSF0zW0NIMl1bQ0gyXTM=

> <s_epik_cmdline>
J2VwaWtfcHl0aG9uJywgJy1waCcsICc3LjAnLCAnLXRuJywgJzgnLCAnLW1hJywgJzIwMCcsICctbWV0YWxfYmluZGluZycsICctaW1hZScsICc8aW5maWxlLm1hZT4nLCAnLW9tYWUnLCAnPG91dGZpbGUubWFlPic=

> <r_lp_tautomer_probability>
0.999

> <r_epik_Ionization_Penalty>
6.67591

> <r_epik_Ionization_Penalty_Charging>
5.6519

> <r_epik_Ionization_Penalty_Neutral>
1.024

> <r_epik_State_Penalty>
5.68985

> <r_epik_Charging_Adjusted_Penalty>
11.3418

> <i_epik_Tot_Q>
-1

> <i_epik_Tot_abs_Q>
1

> <r_epik_Metal_State_Penalty>
1.67789

> <b_epik_Metal_Only>
1

> <s_lp_Force_Field>
OPLS_2005

> <r_lp_Energy>
26.9989

> <b_lp_Chiralities_Consistent>
1

> <s_lp_Variant>
AV-unprocessed.smi:2999-8

> <Gold.Version>
5.8.1

> <Gold.Id.Protein>
6NUR|6NUR_protein|mol2

> <Gold.PLP.Fitness>
50.7553

> <Gold.PLP.PLP>
-43.1608

> <Gold.PLP.part.hbond>
-1.0000

> <Gold.PLP.part.metal>
0.0000

> <Gold.PLP.part.buried>
-6.8829

> <Gold.PLP.part.nonpolar>
-35.2021

> <Gold.PLP.part.repulsive>
0.9008

> <Gold.PLP.ligand.clash>
0.0715

> <Gold.PLP.ligand.torsion>
1.3013

> <Gold.PLP.Chemscore.Hbond>
2.0000

> <Gold.PLP.Chemscore.CHOScore>
1.0501

> <Gold.PLP.Chemscore.Metal>
0.0000

> <Gold.Chemscore.Hbonds>
donor molecule, donor type, donor heavy atom, donor atom, acceptor molecule, acceptor atom, score
      P1  H  7997  8010       L1    14  1.24
      L1  C    18    36       P1  7948  0.41
      L1  C    18    36       P1  7949  0.24
      L1  C    18    36       P1  7957  0.39

> <Gold.PLP.Chemscore.Internal.Correction>
1.1182

> <Gold.Rescore>
     Score         DG    S(hbond)    S(metal)    S(lipo)     H(rot)  DE(clash)    DE(int)     intcor
     14.69     -17.63       0.87        0.00     112.24       1.52       0.01       2.93       ----

> <Gold.Chemscore.Fitness>
14.6859

> <Gold.Chemscore.DG>
-17.6335

> <Gold.Chemscore.ZeroCoef>
-5.4800

> <Gold.Chemscore.Hbond>
0.8695

> <Gold.Chemscore.Metal>
0.0000

> <Gold.Chemscore.Lipo>
112.2405

> <Gold.Chemscore.Internal_Hbond>
0.0000

> <Gold.Chemscore.DEClash>
0.0126

> <Gold.Chemscore.DEInternal>
2.9349

> <Gold.Chemscore.Rot>
1.5167

> <Gold.Chemscore.Internal.Correction>
   9.000000E+99

> <Gold.Chemscore.Hbonds>
donor molecule, donor type, donor heavy atom, donor atom, acceptor molecule, acceptor atom, score
      P1  H  7997  8010       L1    14  0.41

> <Gold.Chemscore.Hbond.Weighted>
-2.9040

> <Gold.Chemscore.Metal.Weighted>
-0.0000

> <Gold.Chemscore.Lipo.Weighted>
-13.1321

> <Gold.Chemscore.Internal_Hbond.Weighted>
0.0000

> <Gold.Chemscore.DEClash.Weighted>
0.0126

> <Gold.Chemscore.DEInternal.Weighted>
2.9349

> <Gold.Chemscore.Rot.Weighted>
3.8827

> <Gold.Chemscore.Internal.Correction.Weighted>
   9.000000E+99

> <Gold.Protein.RotatedTorsions>
[ 6907 6896 6895 6894 ] final   44.11 input  -60.11 | X-H torsion
[ 7974 7965 7964 7962 ] final   21.69 input  175.53 | X-H torsion
[ 8008 7997 7996 7995 ] final   58.36 input   59.86 | X-H torsion
[ 10167 10162 10161 10158 ] final  177.47 input  -65.29 | X-H torsion
[ 10718 10713 10712 10709 ] final   91.22 input   66.30 | X-H torsion
[ 10763 10752 10751 10750 ] final -147.56 input  -60.55 | X-H torsion
[ 11005 11000 10999 10996 ] final -129.87 input  -57.11 | X-H torsion

> <Gold.Protein.ActiveResidues>
 VAL166  LYS551  ARG553  GLY616  TRP617  ASP618  TYR619  PRO620  LYS621  CYS622 
 ASP623  PHE694  ASN695  SER759  ASP760  ASP761  ALA762  ILE779  LEU786  VAL792 
 PHE793  MET794  SER795  GLU796  ALA797  LYS798  CYS799  TRP800  GLU811  SER814 

> <Gold.Protein.RotatedAtoms>
  152.2285  134.8345  160.0476 H   0  0  0  0  0  0  0  0  0  0  0  0  # atno 6907 bound_to 6896
  151.9102  133.3554  159.3869 H   0  0  0  0  0  0  0  0  0  0  0  0  # atno 6908 bound_to 6896
  150.7019  134.4665  159.5449 H   0  0  0  0  0  0  0  0  0  0  0  0  # atno 6909 bound_to 6896
  146.2060  139.7991  142.8725 H   0  0  0  0  0  0  0  0  0  0  0  0  # atno 7974 bound_to 7965
  155.5487  140.3486  155.4463 H   0  0  0  0  0  0  0  0  0  0  0  0  # atno 8008 bound_to 7997
  156.0599  140.1337  156.9979 H   0  0  0  0  0  0  0  0  0  0  0  0  # atno 8009 bound_to 7997
  154.4474  140.0987  156.6486 H   0  0  0  0  0  0  0  0  0  0  0  0  # atno 8010 bound_to 7997
  139.5254  144.2795  152.0559 H   0  0  0  0  0  0  0  0  0  0  0  0  # atno 10167 bound_to 10162
  157.6960  131.0399  150.3696 H   0  0  0  0  0  0  0  0  0  0  0  0  # atno 10718 bound_to 10713
  154.8279  135.3357  154.6837 H   0  0  0  0  0  0  0  0  0  0  0  0  # atno 10763 bound_to 10752
  153.7460  135.6942  153.4960 H   0  0  0  0  0  0  0  0  0  0  0  0  # atno 10764 bound_to 10752
  153.2210  135.4449  155.0440 H   0  0  0  0  0  0  0  0  0  0  0  0  # atno 10765 bound_to 10752
  140.9395  134.1212  157.4164 H   0  0  0  0  0  0  0  0  0  0  0  0  # atno 11005 bound_to 11000
  145.3316  141.0267  143.3443 LP  0  0  0  0  0  0  0  0  0  0  0  0  # atno 17320 bound_to 7965
  144.8795  139.4924  143.6730 LP  0  0  0  0  0  0  0  0  0  0  0  0  # atno 17321 bound_to 7965
  140.2251  144.4427  150.6325 LP  0  0  0  0  0  0  0  0  0  0  0  0  # atno 17342 bound_to 10162
  140.6393  143.2200  151.6326 LP  0  0  0  0  0  0  0  0  0  0  0  0  # atno 17343 bound_to 10162
  156.4122  130.3936  149.6883 LP  0  0  0  0  0  0  0  0  0  0  0  0  # atno 17370 bound_to 10713
  156.4163  130.7747  151.2762 LP  0  0  0  0  0  0  0  0  0  0  0  0  # atno 17371 bound_to 10713
  139.8816  135.0032  156.6171 LP  0  0  0  0  0  0  0  0  0  0  0  0  # atno 17394 bound_to 11000
  140.7754  133.8704  155.8525 LP  0  0  0  0  0  0  0  0  0  0  0  0  # atno 17395 bound_to 11000

$$$$
