AV-unprocessed.smi:2076|AV-procd|sdf|8458|dock1
  -GOLD-   2272011153D 1   1.00000     0.00000
 Structure written by MMmdl.
 44 45  0  0  0  0  0  0  0  0  1 V2000
  151.7527  144.2436  158.6662 C   0  0  0  0  0  0  0  0  0  0  0  0
  152.3774  143.5748  159.8548 C   0  0  0  0  0  0  0  0  0  0  0  0
  152.2552  143.9243  161.2287 C   0  0  0  0  0  0  0  0  0  0  0  0
  153.0178  142.9978  161.8824 C   0  0  0  0  0  0  0  0  0  0  0  0
  153.2876  142.8304  163.3417 C   0  0  0  0  0  0  0  0  0  0  0  0
  153.5488  142.1612  160.9161 N   0  0  0  0  0  0  0  0  0  0  0  0
  154.4211  141.0084  161.0776 C   0  0  0  0  0  0  0  0  0  0  0  0
  153.8575  139.7824  160.3580 C   0  0  0  0  0  0  0  0  0  0  0  0
  153.7582  138.7095  160.9526 O   0  0  0  0  0  0  0  0  0  0  0  0
  153.4930  139.9560  159.0795 N   0  0  0  0  0  0  0  0  0  0  0  0
  152.9318  138.9157  158.2256 C   0  0  0  0  0  0  0  0  0  0  0  0
  151.4885  139.2511  157.7584 C   0  0  1  0  0  0  0  0  0  0  0  0
  151.3855  140.7787  157.5154 C   0  0  0  0  0  0  0  0  0  0  0  0
  151.0493  138.4575  156.5866 N   0  0  0  0  0  0  0  0  0  0  0  0
  151.1904  137.0127  156.8028 C   0  0  0  0  0  0  0  0  0  0  0  0
  150.7626  136.1795  155.5822 C   0  0  0  0  0  0  0  0  0  0  0  0
  151.5115  136.5788  154.4428 O   0  0  0  0  0  0  0  0  0  0  0  0
  151.3396  137.9581  154.1496 C   0  0  0  0  0  0  0  0  0  0  0  0
  151.7750  138.8036  155.3589 C   0  0  0  0  0  0  0  0  0  0  0  0
  153.1535  142.5188  159.6741 N   0  0  0  0  0  0  0  0  0  0  0  0
  151.1041  145.0648  158.9720 H   0  0  0  0  0  0  0  0  0  0  0  0
  151.1487  143.5408  158.0917 H   0  0  0  0  0  0  0  0  0  0  0  0
  152.5139  144.6524  158.0014 H   0  0  0  0  0  0  0  0  0  0  0  0
  151.6910  144.7332  161.6687 H   0  0  0  0  0  0  0  0  0  0  0  0
  152.8507  143.6486  163.9141 H   0  0  0  0  0  0  0  0  0  0  0  0
  154.3586  142.8180  163.5425 H   0  0  0  0  0  0  0  0  0  0  0  0
  152.8610  141.8975  163.7103 H   0  0  0  0  0  0  0  0  0  0  0  0
  155.4131  141.2447  160.6886 H   0  0  0  0  0  0  0  0  0  0  0  0
  154.5422  140.7970  162.1405 H   0  0  0  0  0  0  0  0  0  0  0  0
  153.6046  140.8738  158.6732 H   0  0  0  0  0  0  0  0  0  0  0  0
  153.5759  138.7570  157.3586 H   0  0  0  0  0  0  0  0  0  0  0  0
  152.9610  138.0033  158.8191 H   0  0  0  0  0  0  0  0  0  0  0  0
  150.8235  139.0155  158.5909 H   0  0  0  0  0  0  0  0  0  0  0  0
  151.7639  141.3630  158.3535 H   0  0  0  0  0  0  0  0  0  0  0  0
  150.3557  141.1077  157.3841 H   0  0  0  0  0  0  0  0  0  0  0  0
  151.9503  141.0748  156.6308 H   0  0  0  0  0  0  0  0  0  0  0  0
  152.2247  136.7761  157.0572 H   0  0  0  0  0  0  0  0  0  0  0  0
  150.5762  136.6873  157.6403 H   0  0  0  0  0  0  0  0  0  0  0  0
  150.9377  135.1198  155.7680 H   0  0  0  0  0  0  0  0  0  0  0  0
  149.6958  136.2986  155.3872 H   0  0  0  0  0  0  0  0  0  0  0  0
  151.9377  138.2130  153.2747 H   0  0  0  0  0  0  0  0  0  0  0  0
  150.2977  138.1575  153.8936 H   0  0  0  0  0  0  0  0  0  0  0  0
  151.6060  139.8444  155.0906 H   0  0  0  0  0  0  0  0  0  0  0  0
  152.8480  138.6850  155.5170 H   0  0  0  0  0  0  0  0  0  0  0  0
  1  2  1  0  0  0  0
  1 21  1  0  0  0  0
  1 22  1  0  0  0  0
  1 23  1  0  0  0  0
  2 20  2  0  0  0  0
  2  3  1  0  0  0  0
  3  4  2  0  0  0  0
  3 24  1  0  0  0  0
  4  5  1  0  0  0  0
  4  6  1  0  0  0  0
  5 25  1  0  0  0  0
  5 26  1  0  0  0  0
  5 27  1  0  0  0  0
  6  7  1  0  0  0  0
  6 20  1  0  0  0  0
  7  8  1  0  0  0  0
  7 28  1  0  0  0  0
  7 29  1  0  0  0  0
  8  9  2  0  0  0  0
  8 10  1  0  0  0  0
 10 11  1  0  0  0  0
 10 30  1  0  0  0  0
 11 12  1  0  0  0  0
 11 31  1  0  0  0  0
 11 32  1  0  0  0  0
 12 13  1  0  0  0  0
 12 14  1  0  0  0  0
 12 33  1  0  0  0  0
 13 34  1  0  0  0  0
 13 35  1  0  0  0  0
 13 36  1  0  0  0  0
 14 19  1  0  0  0  0
 14 15  1  0  0  0  0
 15 16  1  0  0  0  0
 15 37  1  0  0  0  0
 15 38  1  0  0  0  0
 16 17  1  0  0  0  0
 16 39  1  0  0  0  0
 16 40  1  0  0  0  0
 17 18  1  0  0  0  0
 18 19  1  0  0  0  0
 18 41  1  0  0  0  0
 18 42  1  0  0  0  0
 19 43  1  0  0  0  0
 19 44  1  0  0  0  0
M  END
> <s_m_source_file>
AV-unprocessed.smi

> <i_m_source_file_index>
2076

> <i_lp_mmshare_version>
43012

> <i_f3d_flags>
0

> <s_epik_input>
W0NIM11jMVtjSF1jKFtDSDNdKW4objEpW0NIMl1DKD1PKVtOSF1bQ0gyXVtDQEhdKFtDSDNdKU4yW0NIMl1bQ0gyXU9bQ0gyXVtDSDJdMg==

> <s_epik_cmdline>
J2VwaWtfcHl0aG9uJywgJy1waCcsICc3LjAnLCAnLXRuJywgJzgnLCAnLW1hJywgJzIwMCcsICctbWV0YWxfYmluZGluZycsICctaW1hZScsICc8aW5maWxlLm1hZT4nLCAnLW9tYWUnLCAnPG91dGZpbGUubWFlPic=

> <r_lp_tautomer_probability>
1

> <r_epik_Ionization_Penalty>
0.197284

> <r_epik_Ionization_Penalty_Charging>
0

> <r_epik_Ionization_Penalty_Neutral>
0.197284

> <r_epik_State_Penalty>
0.186684

> <r_epik_Charging_Adjusted_Penalty>
0.186684

> <i_epik_Tot_Q>
0

> <i_epik_Tot_abs_Q>
0

> <r_epik_Metal_State_Penalty>
0.186636

> <b_epik_Metal_Only>
0

> <s_lp_Force_Field>
OPLS_2005

> <r_lp_Energy>
27.1724

> <b_lp_Chiralities_Consistent>
1

> <s_lp_Variant>
AV-unprocessed.smi:2076-2

> <Gold.Version>
5.8.1

> <Gold.Id.Protein>
6NUR|6NUR_protein|mol2

> <Gold.PLP.Fitness>
44.9849

> <Gold.PLP.PLP>
-42.6423

> <Gold.PLP.part.hbond>
-1.0000

> <Gold.PLP.part.metal>
0.0000

> <Gold.PLP.part.buried>
-5.6144

> <Gold.PLP.part.nonpolar>
-35.9470

> <Gold.PLP.part.repulsive>
0.7992

> <Gold.PLP.ligand.clash>
0.0000

> <Gold.PLP.ligand.torsion>
0.3930

> <Gold.PLP.Chemscore.Hbond>
1.0000

> <Gold.PLP.Chemscore.CHOScore>
0.0000

> <Gold.PLP.Chemscore.Metal>
0.0000

> <Gold.Chemscore.Hbonds>
donor molecule, donor type, donor heavy atom, donor atom, acceptor molecule, acceptor atom, score
      P1  H 10752 10765       L1    17  1.00

> <Gold.PLP.Chemscore.Internal.Correction>
0.1286

> <Gold.Rescore>
     Score         DG    S(hbond)    S(metal)    S(lipo)     H(rot)  DE(clash)    DE(int)     intcor
     15.53     -17.38       0.96        0.00     111.41       1.70       0.12       1.74       ----

> <Gold.Chemscore.Fitness>
15.5255

> <Gold.Chemscore.DG>
-17.3820

> <Gold.Chemscore.ZeroCoef>
-5.4800

> <Gold.Chemscore.Hbond>
0.9633

> <Gold.Chemscore.Metal>
0.0000

> <Gold.Chemscore.Lipo>
111.4073

> <Gold.Chemscore.Internal_Hbond>
0.0000

> <Gold.Chemscore.DEClash>
0.1199

> <Gold.Chemscore.DEInternal>
1.7365

> <Gold.Chemscore.Rot>
1.6993

> <Gold.Chemscore.Internal.Correction>
   9.000000E+99

> <Gold.Chemscore.Hbonds>
donor molecule, donor type, donor heavy atom, donor atom, acceptor molecule, acceptor atom, score
      P1  H 10752 10765       L1    17  0.70

> <Gold.Chemscore.Hbond.Weighted>
-3.2176

> <Gold.Chemscore.Metal.Weighted>
-0.0000

> <Gold.Chemscore.Lipo.Weighted>
-13.0347

> <Gold.Chemscore.Internal_Hbond.Weighted>
0.0000

> <Gold.Chemscore.DEClash.Weighted>
0.1199

> <Gold.Chemscore.DEInternal.Weighted>
1.7365

> <Gold.Chemscore.Rot.Weighted>
4.3502

> <Gold.Chemscore.Internal.Correction.Weighted>
   9.000000E+99

> <Gold.Protein.RotatedTorsions>
[ 6907 6896 6895 6894 ] final -141.47 input  -60.11 | X-H torsion
[ 7974 7965 7964 7962 ] final -160.70 input  175.53 | X-H torsion
[ 8008 7997 7996 7995 ] final    4.66 input   59.86 | X-H torsion
[ 10167 10162 10161 10158 ] final  108.30 input  -65.29 | X-H torsion
[ 10718 10713 10712 10709 ] final   25.43 input   66.30 | X-H torsion
[ 10763 10752 10751 10750 ] final  166.51 input  -60.55 | X-H torsion
[ 11005 11000 10999 10996 ] final -128.25 input  -57.11 | X-H torsion

> <Gold.Protein.ActiveResidues>
 VAL166  LYS551  ARG553  GLY616  TRP617  ASP618  TYR619  PRO620  LYS621  CYS622 
 ASP623  PHE694  ASN695  SER759  ASP760  ASP761  ALA762  ILE779  LEU786  VAL792 
 PHE793  MET794  SER795  GLU796  ALA797  LYS798  CYS799  TRP800  GLU811  SER814 

> <Gold.Protein.RotatedAtoms>
  151.0742  133.5441  159.2624 H   0  0  0  0  0  0  0  0  0  0  0  0  # atno 6907 bound_to 6896
  151.2369  135.0574  159.9019 H   0  0  0  0  0  0  0  0  0  0  0  0  # atno 6908 bound_to 6896
  152.5415  134.0523  159.8169 H   0  0  0  0  0  0  0  0  0  0  0  0  # atno 6909 bound_to 6896
  144.7417  140.3503  143.6117 H   0  0  0  0  0  0  0  0  0  0  0  0  # atno 7974 bound_to 7965
  154.7186  140.2707  155.6562 H   0  0  0  0  0  0  0  0  0  0  0  0  # atno 8008 bound_to 7997
  156.2817  140.2739  156.1776 H   0  0  0  0  0  0  0  0  0  0  0  0  # atno 8009 bound_to 7997
  155.0537  140.0371  157.2542 H   0  0  0  0  0  0  0  0  0  0  0  0  # atno 8010 bound_to 7997
  139.6857  144.7113  151.1437 H   0  0  0  0  0  0  0  0  0  0  0  0  # atno 10167 bound_to 10162
  157.1932  130.6856  149.6158 H   0  0  0  0  0  0  0  0  0  0  0  0  # atno 10718 bound_to 10713
  154.3401  135.2754  155.2427 H   0  0  0  0  0  0  0  0  0  0  0  0  # atno 10763 bound_to 10752
  154.4701  135.5885  153.6319 H   0  0  0  0  0  0  0  0  0  0  0  0  # atno 10764 bound_to 10752
  152.9858  135.6086  154.3601 H   0  0  0  0  0  0  0  0  0  0  0  0  # atno 10765 bound_to 10752
  140.9531  134.1038  157.4042 H   0  0  0  0  0  0  0  0  0  0  0  0  # atno 11005 bound_to 11000
  145.7283  139.1729  143.2445 LP  0  0  0  0  0  0  0  0  0  0  0  0  # atno 17320 bound_to 7965
  146.1226  140.7290  142.9450 LP  0  0  0  0  0  0  0  0  0  0  0  0  # atno 17321 bound_to 7965
  140.7667  143.5633  150.9075 LP  0  0  0  0  0  0  0  0  0  0  0  0  # atno 17342 bound_to 10162
  139.9308  143.6496  152.3077 LP  0  0  0  0  0  0  0  0  0  0  0  0  # atno 17343 bound_to 10162
  155.9709  130.4607  150.6084 LP  0  0  0  0  0  0  0  0  0  0  0  0  # atno 17370 bound_to 10713
  157.3840  131.0785  151.1452 LP  0  0  0  0  0  0  0  0  0  0  0  0  # atno 17371 bound_to 10713
  139.8854  135.0072  156.6430 LP  0  0  0  0  0  0  0  0  0  0  0  0  # atno 17394 bound_to 11000
  140.7574  133.8846  155.8392 LP  0  0  0  0  0  0  0  0  0  0  0  0  # atno 17395 bound_to 11000

$$$$
