AV-unprocessed.smi:157|AV-procd|sdf|1313|dock6
  -GOLD-   2262019 03D 1   1.00000     0.00000
 Structure written by MMmdl.
 36 38  0  0  0  0  0  0  0  0  2 V2000
  150.5058  135.8854  157.6607 O   0  0  0  0  0  0  0  0  0  0  0  0
  149.5781  136.6492  156.9201 C   0  0  0  0  0  0  0  0  0  0  0  0
  150.2486  137.9364  156.4183 C   0  0  1  0  0  0  0  0  0  0  0  0
  150.9183  138.5848  157.4949 O   0  0  0  0  0  0  0  0  0  0  0  0
  151.9354  139.4037  156.9982 C   0  0  2  0  0  0  0  0  0  0  0  0
  151.4865  140.8310  157.0702 N   0  0  0  0  0  0  0  0  0  0  0  0
  150.5567  141.4332  156.2971 C   0  0  0  0  0  0  0  0  0  0  0  0
  150.3530  142.7081  156.5822 N   0  3  0  0  0  0  0  0  0  0  0  0
  151.1989  143.0155  157.6266 C   0  0  0  0  0  0  0  0  0  0  0  0
  151.8876  141.8357  157.9201 C   0  0  0  0  0  0  0  0  0  0  0  0
  152.8649  141.5841  158.8951 N   0  0  0  0  0  0  0  0  0  0  0  0
  153.0652  142.3671  159.9048 C   0  0  0  0  0  0  0  0  0  0  0  0
  152.4793  143.5891  160.1899 N   0  0  0  0  0  0  0  0  0  0  0  0
  152.3464  144.6493  159.2062 C   0  0  0  0  0  0  0  0  0  0  0  0
  151.2298  144.4055  158.1820 C   0  0  2  0  0  0  0  0  0  0  0  0
  149.9980  144.7855  158.7604 O   0  0  0  0  0  0  0  0  0  0  0  0
  152.1679  139.0004  155.5365 C   0  0  0  0  0  0  0  0  0  0  0  0
  151.3981  137.6965  155.4387 C   0  0  2  0  0  0  0  0  0  0  0  0
  150.9431  137.4756  154.1196 O   0  0  0  0  0  0  0  0  0  0  0  0
  149.5190  138.6154  155.9718 H   0  0  0  0  0  0  0  0  0  0  0  0
  152.8235  139.3495  157.6287 H   0  0  0  0  0  0  0  0  0  0  0  0
  151.3921  145.0898  157.3484 H   0  0  0  0  0  0  0  0  0  0  0  0
  152.0202  136.8638  155.7706 H   0  0  0  0  0  0  0  0  0  0  0  0
  150.9463  135.2930  157.0704 H   0  0  0  0  0  0  0  0  0  0  0  0
  149.1730  136.0622  156.0952 H   0  0  0  0  0  0  0  0  0  0  0  0
  148.7483  136.8919  157.5843 H   0  0  0  0  0  0  0  0  0  0  0  0
  150.0258  140.9192  155.5157 H   0  0  0  0  0  0  0  0  0  0  0  0
  153.7921  142.0749  160.6641 H   0  0  0  0  0  0  0  0  0  0  0  0
  152.5714  143.9625  161.1240 H   0  0  0  0  0  0  0  0  0  0  0  0
  152.2066  145.6049  159.7127 H   0  0  0  0  0  0  0  0  0  0  0  0
  153.2987  144.7238  158.6788 H   0  0  0  0  0  0  0  0  0  0  0  0
  149.4056  145.0432  158.0711 H   0  0  0  0  0  0  0  0  0  0  0  0
  151.7480  139.7567  154.8700 H   0  0  0  0  0  0  0  0  0  0  0  0
  153.2316  138.8930  155.3227 H   0  0  0  0  0  0  0  0  0  0  0  0
  150.4704  138.2415  153.8309 H   0  0  0  0  0  0  0  0  0  0  0  0
  149.7049  143.3314  156.1174 H   0  0  0  0  0  0  0  0  0  0  0  0
  1  2  1  0  0  0  0
  1 24  1  0  0  0  0
  2  3  1  0  0  0  0
  2 25  1  0  0  0  0
  2 26  1  0  0  0  0
  3 20  1  0  0  0  0
  3 18  1  0  0  0  0
  3  4  1  0  0  0  0
  4  5  1  0  0  0  0
  5 21  1  0  0  0  0
  5  6  1  0  0  0  0
  5 17  1  0  0  0  0
  6 10  1  0  0  0  0
  6  7  1  0  0  0  0
  7  8  2  0  0  0  0
  7 27  1  0  0  0  0
  8  9  1  0  0  0  0
  8 36  1  0  0  0  0
  9 15  1  0  0  0  0
  9 10  2  0  0  0  0
 10 11  1  0  0  0  0
 11 12  2  0  0  0  0
 12 13  1  0  0  0  0
 12 28  1  0  0  0  0
 13 14  1  0  0  0  0
 13 29  1  0  0  0  0
 14 15  1  0  0  0  0
 14 30  1  0  0  0  0
 14 31  1  0  0  0  0
 15 22  1  0  0  0  0
 15 16  1  0  0  0  0
 16 32  1  0  0  0  0
 17 18  1  0  0  0  0
 17 33  1  0  0  0  0
 17 34  1  0  0  0  0
 18 23  1  0  0  0  0
 18 19  1  0  0  0  0
 19 35  1  0  0  0  0
M  CHG  1   8   1
M  END
> <s_m_source_file>
AV-unprocessed.smi

> <i_m_source_file_index>
157

> <i_lp_mmshare_version>
43012

> <i_f3d_flags>
0

> <s_epik_input>
W09IXVtDSDJdW0NASF0xT1tDQEhdKFtDSDJdW0NAQEhdMVtPSF0pbihbY0hdbjIpYyhjMjMpTj1bQ0hdW05IXVtDSDJdW0NASF0zW09IXQ==

> <s_epik_cmdline>
J2VwaWtfcHl0aG9uJywgJy1waCcsICc3LjAnLCAnLXRuJywgJzgnLCAnLW1hJywgJzIwMCcsICctbWV0YWxfYmluZGluZycsICctaW1hZScsICc8aW5maWxlLm1hZT4nLCAnLW9tYWUnLCAnPG91dGZpbGUubWFlPic=

> <r_epik_Ionization_Penalty>
1.68594

> <r_epik_Ionization_Penalty_Charging>
0

> <r_epik_Ionization_Penalty_Neutral>
1.68594

> <r_epik_State_Penalty>
1.79006

> <r_epik_Charging_Adjusted_Penalty>
1.79006

> <i_epik_Tot_Q>
1

> <i_epik_Tot_abs_Q>
1

> <r_epik_Metal_State_Penalty>
5.85324

> <b_epik_Metal_Only>
0

> <s_epik_Chemistry_Notes>
This compound has an imine and may undergo hydrolysis. This compound contains an acetal/aminal-like group ( X-CH(R)-Y where X, Y are N, S, or O) that may be acid/base labile, releasing an aldehyde.

> <s_lp_Force_Field>
OPLS_2005

> <r_lp_Energy>
52.2724

> <b_lp_Chiralities_Consistent>
1

> <s_lp_Variant>
AV-unprocessed.smi:157-23

> <Gold.Version>
5.8.1

> <Gold.Id.Protein>
6NUR|6NUR_protein|mol2

> <Gold.PLP.Fitness>
43.5344

> <Gold.PLP.PLP>
-34.5466

> <Gold.PLP.part.hbond>
-4.6954

> <Gold.PLP.part.metal>
0.0000

> <Gold.PLP.part.buried>
-6.5888

> <Gold.PLP.part.nonpolar>
-24.3293

> <Gold.PLP.part.repulsive>
0.1023

> <Gold.PLP.ligand.clash>
0.0000

> <Gold.PLP.ligand.torsion>
0.3683

> <Gold.PLP.Chemscore.Hbond>
3.2347

> <Gold.PLP.Chemscore.CHOScore>
0.0000

> <Gold.PLP.Chemscore.Metal>
0.0000

> <Gold.Chemscore.Hbonds>
donor molecule, donor type, donor heavy atom, donor atom, acceptor molecule, acceptor atom, score
      L1  H     8    36       P1  8028  2.00
      L1  H    16    32       P1  8029  1.00
      P1  H  6896  6909       L1     1  0.23

> <Gold.PLP.Chemscore.Internal.Correction>
0.0205

> <Gold.Rescore>
     Score         DG    S(hbond)    S(metal)    S(lipo)     H(rot)  DE(clash)    DE(int)     intcor
      9.60      -9.74       2.31        0.00      50.76       3.67       0.00       0.14       ----

> <Gold.Chemscore.Fitness>
9.5953

> <Gold.Chemscore.DG>
-9.7375

> <Gold.Chemscore.ZeroCoef>
-5.4800

> <Gold.Chemscore.Hbond>
2.3066

> <Gold.Chemscore.Metal>
0.0000

> <Gold.Chemscore.Lipo>
50.7553

> <Gold.Chemscore.Internal_Hbond>
0.0000

> <Gold.Chemscore.DEClash>
0.0000

> <Gold.Chemscore.DEInternal>
0.1423

> <Gold.Chemscore.Rot>
3.6659

> <Gold.Chemscore.Internal.Correction>
   9.000000E+99

> <Gold.Chemscore.Hbonds>
donor molecule, donor type, donor heavy atom, donor atom, acceptor molecule, acceptor atom, score
      L1  H     8    36       P1  8028  1.00
      L1  H    16    32       P1  8029  0.25
      P1  H  6896  6909       L1     1  0.05

> <Gold.Chemscore.Hbond.Weighted>
-7.7040

> <Gold.Chemscore.Metal.Weighted>
-0.0000

> <Gold.Chemscore.Lipo.Weighted>
-5.9384

> <Gold.Chemscore.Internal_Hbond.Weighted>
0.0000

> <Gold.Chemscore.DEClash.Weighted>
0.0000

> <Gold.Chemscore.DEInternal.Weighted>
0.1423

> <Gold.Chemscore.Rot.Weighted>
9.3848

> <Gold.Chemscore.Internal.Correction.Weighted>
   9.000000E+99

> <Gold.Protein.RotatedTorsions>
[ 6907 6896 6895 6894 ] final   58.00 input  -60.11 | X-H torsion
[ 7974 7965 7964 7962 ] final -175.76 input  175.53 | X-H torsion
[ 8008 7997 7996 7995 ] final   93.20 input   59.86 | X-H torsion
[ 10167 10162 10161 10158 ] final -142.12 input  -65.29 | X-H torsion
[ 10718 10713 10712 10709 ] final  172.09 input   66.30 | X-H torsion
[ 10763 10752 10751 10750 ] final  -92.38 input  -60.55 | X-H torsion
[ 11005 11000 10999 10996 ] final  177.27 input  -57.11 | X-H torsion

> <Gold.Protein.ActiveResidues>
 VAL166  LYS551  ARG553  GLY616  TRP617  ASP618  TYR619  PRO620  LYS621  CYS622 
 ASP623  PHE694  ASN695  SER759  ASP760  ASP761  ALA762  ILE779  LEU786  VAL792 
 PHE793  MET794  SER795  GLU796  ALA797  LYS798  CYS799  TRP800  GLU811  SER814 

> <Gold.Protein.RotatedAtoms>
  152.3784  134.6628  160.0151 H   0  0  0  0  0  0  0  0  0  0  0  0  # atno 6907 bound_to 6896
  151.6899  133.3305  159.3248 H   0  0  0  0  0  0  0  0  0  0  0  0  # atno 6908 bound_to 6896
  150.7728  134.6643  159.6401 H   0  0  0  0  0  0  0  0  0  0  0  0  # atno 6909 bound_to 6896
  144.7127  140.1272  143.6401 H   0  0  0  0  0  0  0  0  0  0  0  0  # atno 7974 bound_to 7965
  156.0440  140.3316  155.7276 H   0  0  0  0  0  0  0  0  0  0  0  0  # atno 8008 bound_to 7997
  155.5701  140.0627  157.2826 H   0  0  0  0  0  0  0  0  0  0  0  0  # atno 8009 bound_to 7997
  154.4406  140.1862  156.0859 H   0  0  0  0  0  0  0  0  0  0  0  0  # atno 8010 bound_to 7997
  139.8119  143.7691  152.2664 H   0  0  0  0  0  0  0  0  0  0  0  0  # atno 10167 bound_to 10162
  156.9840  131.0127  151.2874 H   0  0  0  0  0  0  0  0  0  0  0  0  # atno 10718 bound_to 10713
  154.6855  135.5233  153.8320 H   0  0  0  0  0  0  0  0  0  0  0  0  # atno 10763 bound_to 10752
  153.0594  135.6563  154.0508 H   0  0  0  0  0  0  0  0  0  0  0  0  # atno 10764 bound_to 10752
  154.0389  135.2979  155.3337 H   0  0  0  0  0  0  0  0  0  0  0  0  # atno 10765 bound_to 10752
  140.3823  134.6936  157.4458 H   0  0  0  0  0  0  0  0  0  0  0  0  # atno 11005 bound_to 11000
  145.9318  139.2611  143.1320 LP  0  0  0  0  0  0  0  0  0  0  0  0  # atno 17320 bound_to 7965
  145.9514  140.8905  143.0257 LP  0  0  0  0  0  0  0  0  0  0  0  0  # atno 17321 bound_to 7965
  139.7842  144.7433  151.0045 LP  0  0  0  0  0  0  0  0  0  0  0  0  # atno 17342 bound_to 10162
  140.7817  143.4509  151.0414 LP  0  0  0  0  0  0  0  0  0  0  0  0  # atno 17343 bound_to 10162
  157.5506  130.8179  149.8140 LP  0  0  0  0  0  0  0  0  0  0  0  0  # atno 17370 bound_to 10713
  156.0233  130.3788  150.1897 LP  0  0  0  0  0  0  0  0  0  0  0  0  # atno 17371 bound_to 10713
  140.0469  134.6186  155.8910 LP  0  0  0  0  0  0  0  0  0  0  0  0  # atno 17394 bound_to 11000
  141.1919  133.6573  156.5478 LP  0  0  0  0  0  0  0  0  0  0  0  0  # atno 17395 bound_to 11000

$$$$
