AV-unprocessed.smi:1269|AV-procd|sdf|5329|dock7
  -GOLD-   22720 4463D 1   1.00000     0.00000
 Structure written by MMmdl.
 44 45  0  0  0  0  0  0  0  0  2 V2000
  154.0971  141.5247  161.4403 C   0  0  0  0  0  0  0  0  0  0  0  0
  153.8232  140.7218  160.2972 O   0  0  0  0  0  0  0  0  0  0  0  0
  152.8408  141.1400  159.4233 C   0  0  0  0  0  0  0  0  0  0  0  0
  152.6017  142.5219  159.2888 C   0  0  0  0  0  0  0  0  0  0  0  0
  151.6030  142.9579  158.3973 C   0  0  0  0  0  0  0  0  0  0  0  0
  150.8654  141.9930  157.6689 C   0  0  0  0  0  0  0  0  0  0  0  0
  149.8427  142.2923  156.7265 N   0  0  0  0  0  0  0  0  0  0  0  0
  149.0923  141.4540  155.9913 C   0  0  0  0  0  0  0  0  0  0  0  0
  149.1890  140.2276  155.9819 O   0  0  0  0  0  0  0  0  0  0  0  0
  148.1979  142.1279  155.2527 N   0  0  0  0  0  0  0  0  0  0  0  0
  147.2281  141.5404  154.3261 C   0  0  2  0  0  0  0  0  0  0  0  0
  146.1723  142.5962  153.9708 C   0  0  0  0  0  0  0  0  0  0  0  0
  146.5751  140.2723  154.9236 C   0  0  0  0  0  0  0  0  0  0  0  0
  145.9975  139.3740  153.8918 N   0  3  0  0  0  0  0  0  0  0  0  0
  146.9551  139.0301  152.8150 C   0  0  0  0  0  0  0  0  0  0  0  0
  146.2615  138.1722  151.7428 C   0  0  0  0  0  0  0  0  0  0  0  0
  145.7121  137.0053  152.3433 O   0  0  0  0  0  0  0  0  0  0  0  0
  144.7352  137.3201  153.3287 C   0  0  0  0  0  0  0  0  0  0  0  0
  145.3856  138.1445  154.4514 C   0  0  0  0  0  0  0  0  0  0  0  0
  151.1877  140.6349  157.8727 C   0  0  0  0  0  0  0  0  0  0  0  0
  152.1449  140.2103  158.7237 N   0  0  0  0  0  0  0  0  0  0  0  0
  154.8925  141.0610  162.0236 H   0  0  0  0  0  0  0  0  0  0  0  0
  153.2216  141.6122  162.0853 H   0  0  0  0  0  0  0  0  0  0  0  0
  154.4340  142.5228  161.1562 H   0  0  0  0  0  0  0  0  0  0  0  0
  153.1780  143.2365  159.8577 H   0  0  0  0  0  0  0  0  0  0  0  0
  151.4387  144.0178  158.2895 H   0  0  0  0  0  0  0  0  0  0  0  0
  149.6762  143.2771  156.5782 H   0  0  0  0  0  0  0  0  0  0  0  0
  148.1957  143.1353  155.3248 H   0  0  0  0  0  0  0  0  0  0  0  0
  147.7348  141.2788  153.3962 H   0  0  0  0  0  0  0  0  0  0  0  0
  145.4514  142.2038  153.2530 H   0  0  0  0  0  0  0  0  0  0  0  0
  146.6327  143.4779  153.5232 H   0  0  0  0  0  0  0  0  0  0  0  0
  145.6195  142.9206  154.8532 H   0  0  0  0  0  0  0  0  0  0  0  0
  147.3404  139.7290  155.4806 H   0  0  0  0  0  0  0  0  0  0  0  0
  145.8049  140.5381  155.6495 H   0  0  0  0  0  0  0  0  0  0  0  0
  147.3438  139.9410  152.3578 H   0  0  0  0  0  0  0  0  0  0  0  0
  147.8053  138.4922  153.2371 H   0  0  0  0  0  0  0  0  0  0  0  0
  145.4772  138.7390  151.2383 H   0  0  0  0  0  0  0  0  0  0  0  0
  146.9790  137.8722  150.9787 H   0  0  0  0  0  0  0  0  0  0  0  0
  143.9050  137.8656  152.8764 H   0  0  0  0  0  0  0  0  0  0  0  0
  144.3264  136.3931  153.7315 H   0  0  0  0  0  0  0  0  0  0  0  0
  146.1483  137.5505  154.9575 H   0  0  0  0  0  0  0  0  0  0  0  0
  144.6325  138.3982  155.1969 H   0  0  0  0  0  0  0  0  0  0  0  0
  150.6597  139.8604  157.3353 H   0  0  0  0  0  0  0  0  0  0  0  0
  145.2533  139.8947  153.4494 H   0  0  0  0  0  0  0  0  0  0  0  0
  1  2  1  0  0  0  0
  1 22  1  0  0  0  0
  1 23  1  0  0  0  0
  1 24  1  0  0  0  0
  2  3  1  0  0  0  0
  3 21  1  0  0  0  0
  3  4  2  0  0  0  0
  4  5  1  0  0  0  0
  4 25  1  0  0  0  0
  5  6  2  0  0  0  0
  5 26  1  0  0  0  0
  6  7  1  0  0  0  0
  6 20  1  0  0  0  0
  7  8  1  0  0  0  0
  7 27  1  0  0  0  0
  8  9  2  0  0  0  0
  8 10  1  0  0  0  0
 10 11  1  0  0  0  0
 10 28  1  0  0  0  0
 11 12  1  0  0  0  0
 11 13  1  0  0  0  0
 11 29  1  0  0  0  0
 12 30  1  0  0  0  0
 12 31  1  0  0  0  0
 12 32  1  0  0  0  0
 13 14  1  0  0  0  0
 13 33  1  0  0  0  0
 13 34  1  0  0  0  0
 14 19  1  0  0  0  0
 14 15  1  0  0  0  0
 14 44  1  0  0  0  0
 15 16  1  0  0  0  0
 15 35  1  0  0  0  0
 15 36  1  0  0  0  0
 16 17  1  0  0  0  0
 16 37  1  0  0  0  0
 16 38  1  0  0  0  0
 17 18  1  0  0  0  0
 18 19  1  0  0  0  0
 18 39  1  0  0  0  0
 18 40  1  0  0  0  0
 19 41  1  0  0  0  0
 19 42  1  0  0  0  0
 20 21  2  0  0  0  0
 20 43  1  0  0  0  0
M  CHG  1  14   1
M  END
> <s_m_source_file>
AV-unprocessed.smi

> <i_m_source_file_index>
1269

> <i_lp_mmshare_version>
43012

> <i_f3d_flags>
0

> <s_epik_input>
W0NIM11PYzFbY0hdW2NIXWMoW2NIXW4xKVtOSF1DKD1PKVtOSF1bQ0BIXShbQ0gzXSlbQ0gyXU4yW0NIMl1bQ0gyXU9bQ0gyXVtDSDJdMg==

> <s_epik_cmdline>
J2VwaWtfcHl0aG9uJywgJy1waCcsICc3LjAnLCAnLXRuJywgJzgnLCAnLW1hJywgJzIwMCcsICctbWV0YWxfYmluZGluZycsICctaW1hZScsICc8aW5maWxlLm1hZT4nLCAnLW9tYWUnLCAnPG91dGZpbGUubWFlPic=

> <r_lp_tautomer_probability>
1

> <r_epik_Ionization_Penalty>
0.602604

> <r_epik_Ionization_Penalty_Charging>
0.602531

> <r_epik_Ionization_Penalty_Neutral>
7.37831e-05

> <r_epik_State_Penalty>
0.617039

> <r_epik_Charging_Adjusted_Penalty>
1.21957

> <i_epik_Tot_Q>
1

> <i_epik_Tot_abs_Q>
1

> <r_epik_Metal_State_Penalty>
0.617045

> <b_epik_Metal_Only>
0

> <s_lp_Force_Field>
OPLS_2005

> <r_lp_Energy>
25.4267

> <b_lp_Chiralities_Consistent>
1

> <s_lp_Variant>
AV-unprocessed.smi:1269-3

> <Gold.Version>
5.8.1

> <Gold.Id.Protein>
6NUR|6NUR_protein|mol2

> <Gold.PLP.Fitness>
46.8592

> <Gold.PLP.PLP>
-36.4213

> <Gold.PLP.part.hbond>
-3.0000

> <Gold.PLP.part.metal>
0.0000

> <Gold.PLP.part.buried>
-2.2527

> <Gold.PLP.part.nonpolar>
-31.7696

> <Gold.PLP.part.repulsive>
0.4883

> <Gold.PLP.ligand.clash>
0.0000

> <Gold.PLP.ligand.torsion>
0.7961

> <Gold.PLP.Chemscore.Hbond>
4.0000

> <Gold.PLP.Chemscore.CHOScore>
0.0000

> <Gold.PLP.Chemscore.Metal>
0.0000

> <Gold.Chemscore.Hbonds>
donor molecule, donor type, donor heavy atom, donor atom, acceptor molecule, acceptor atom, score
      L1  H     7    27       P1  8028  1.00
      L1  H    10    28       P1  8028  1.00
      L1  H    14    44       P1 10175  2.00

> <Gold.PLP.Chemscore.Internal.Correction>
0.0300

> <Gold.Rescore>
     Score         DG    S(hbond)    S(metal)    S(lipo)     H(rot)  DE(clash)    DE(int)     intcor
     17.01     -20.66       2.94        0.00      84.68       1.78       0.21       3.44       ----

> <Gold.Chemscore.Fitness>
17.0127

> <Gold.Chemscore.DG>
-20.6624

> <Gold.Chemscore.ZeroCoef>
-5.4800

> <Gold.Chemscore.Hbond>
2.9437

> <Gold.Chemscore.Metal>
0.0000

> <Gold.Chemscore.Lipo>
84.6780

> <Gold.Chemscore.Internal_Hbond>
0.0000

> <Gold.Chemscore.DEClash>
0.2106

> <Gold.Chemscore.DEInternal>
3.4391

> <Gold.Chemscore.Rot>
1.7801

> <Gold.Chemscore.Internal.Correction>
   9.000000E+99

> <Gold.Chemscore.Hbonds>
donor molecule, donor type, donor heavy atom, donor atom, acceptor molecule, acceptor atom, score
      L1  H     7    27       P1  8028  0.97
      L1  H    10    28       P1  8028  0.93
      L1  H    14    44       P1 10175  0.99

> <Gold.Chemscore.Hbond.Weighted>
-9.8321

> <Gold.Chemscore.Metal.Weighted>
-0.0000

> <Gold.Chemscore.Lipo.Weighted>
-9.9073

> <Gold.Chemscore.Internal_Hbond.Weighted>
0.0000

> <Gold.Chemscore.DEClash.Weighted>
0.2106

> <Gold.Chemscore.DEInternal.Weighted>
3.4391

> <Gold.Chemscore.Rot.Weighted>
4.5570

> <Gold.Chemscore.Internal.Correction.Weighted>
   9.000000E+99

> <Gold.Protein.RotatedTorsions>
[ 6907 6896 6895 6894 ] final  -90.88 input  -60.11 | X-H torsion
[ 7974 7965 7964 7962 ] final  -62.56 input  175.53 | X-H torsion
[ 8008 7997 7996 7995 ] final -166.25 input   59.86 | X-H torsion
[ 10167 10162 10161 10158 ] final -124.26 input  -65.29 | X-H torsion
[ 10718 10713 10712 10709 ] final  -55.78 input   66.30 | X-H torsion
[ 10763 10752 10751 10750 ] final -161.58 input  -60.55 | X-H torsion
[ 11005 11000 10999 10996 ] final   38.57 input  -57.11 | X-H torsion

> <Gold.Protein.ActiveResidues>
 VAL166  LYS551  ARG553  GLY616  TRP617  ASP618  TYR619  PRO620  LYS621  CYS622 
 ASP623  PHE694  ASN695  SER759  ASP760  ASP761  ALA762  ILE779  LEU786  VAL792 
 PHE793  MET794  SER795  GLU796  ALA797  LYS798  CYS799  TRP800  GLU811  SER814 

> <Gold.Protein.RotatedAtoms>
  150.6886  134.2364  159.4454 H   0  0  0  0  0  0  0  0  0  0  0  0  # atno 6907 bound_to 6896
  152.0311  134.9764  160.0582 H   0  0  0  0  0  0  0  0  0  0  0  0  # atno 6908 bound_to 6896
  152.1303  133.4369  159.4755 H   0  0  0  0  0  0  0  0  0  0  0  0  # atno 6909 bound_to 6896
  145.7898  140.8716  143.0286 H   0  0  0  0  0  0  0  0  0  0  0  0  # atno 7974 bound_to 7965
  155.8612  140.0978  157.1612 H   0  0  0  0  0  0  0  0  0  0  0  0  # atno 8008 bound_to 7997
  154.3990  140.1365  156.4025 H   0  0  0  0  0  0  0  0  0  0  0  0  # atno 8009 bound_to 7997
  155.7855  140.3457  155.5323 H   0  0  0  0  0  0  0  0  0  0  0  0  # atno 8010 bound_to 7997
  139.9946  143.5604  152.2328 H   0  0  0  0  0  0  0  0  0  0  0  0  # atno 10167 bound_to 10162
  156.1341  130.4158  150.0217 H   0  0  0  0  0  0  0  0  0  0  0  0  # atno 10718 bound_to 10713
  154.7291  135.3042  154.8921 H   0  0  0  0  0  0  0  0  0  0  0  0  # atno 10763 bound_to 10752
  153.9770  135.6735  153.4753 H   0  0  0  0  0  0  0  0  0  0  0  0  # atno 10764 bound_to 10752
  153.0902  135.4963  154.8595 H   0  0  0  0  0  0  0  0  0  0  0  0  # atno 10765 bound_to 10752
  140.2113  134.3751  155.8047 H   0  0  0  0  0  0  0  0  0  0  0  0  # atno 11005 bound_to 11000
  144.6783  140.0108  143.7484 LP  0  0  0  0  0  0  0  0  0  0  0  0  # atno 17320 bound_to 7965
  145.9988  139.3074  143.0940 LP  0  0  0  0  0  0  0  0  0  0  0  0  # atno 17321 bound_to 7965
  139.6315  144.7645  151.2527 LP  0  0  0  0  0  0  0  0  0  0  0  0  # atno 17342 bound_to 10162
  140.7442  143.6471  150.8282 LP  0  0  0  0  0  0  0  0  0  0  0  0  # atno 17343 bound_to 10162
  156.8121  130.9328  151.3644 LP  0  0  0  0  0  0  0  0  0  0  0  0  # atno 17370 bound_to 10713
  157.6516  130.8889  149.9644 LP  0  0  0  0  0  0  0  0  0  0  0  0  # atno 17371 bound_to 10713
  141.2226  133.7145  156.8423 LP  0  0  0  0  0  0  0  0  0  0  0  0  # atno 17394 bound_to 11000
  140.1947  134.8940  157.3101 LP  0  0  0  0  0  0  0  0  0  0  0  0  # atno 17395 bound_to 11000

$$$$
