AV-unprocessed.smi:3164|AV-procd|sdf|12080|dock6
  -GOLD-   2272017513D 1   1.00000     0.00000
 Structure written by MMmdl.
 40 41  0  0  0  0  0  0  0  0  3 V2000
  149.3367  136.7254  155.5086 C   0  0  0  0  0  0  0  0  0  0  0  0
  149.7616  137.4824  154.3082 N   0  3  2  0  0  0  0  0  0  0  0  0
  151.2320  137.5518  154.1357 C   0  0  0  0  0  0  0  0  0  0  0  0
  151.8550  138.6162  155.0575 C   0  0  0  0  0  0  0  0  0  0  0  0
  151.2271  139.8726  154.8282 O   0  0  0  0  0  0  0  0  0  0  0  0
  149.8351  139.8504  155.1285 C   0  0  1  0  0  0  0  0  0  0  0  0
  149.2785  141.2677  154.9230 C   0  0  0  0  0  0  0  0  0  0  0  0
  149.9902  142.2563  155.7586 N   0  3  0  0  0  0  0  0  0  0  0  0
  149.9373  141.9648  157.2044 C   0  0  0  0  0  0  0  0  0  0  0  0
  151.3393  141.6937  157.7672 C   0  0  0  0  0  0  0  0  0  0  0  0
  151.6862  142.6302  158.9088 C   0  0  0  0  0  0  0  0  0  0  0  0
  151.7654  144.0235  158.7003 C   0  0  0  0  0  0  0  0  0  0  0  0
  152.1036  144.8464  159.7922 C   0  0  0  0  0  0  0  0  0  0  0  0
  152.3494  144.2471  161.0423 C   0  0  0  0  0  0  0  0  0  0  0  0
  152.2442  142.8458  161.1468 C   0  0  0  0  0  0  0  0  0  0  0  0
  151.9215  142.0476  160.1058 N   0  0  0  0  0  0  0  0  0  0  0  0
  149.1455  138.8269  154.1985 C   0  0  0  0  0  0  0  0  0  0  0  0
  149.6589  137.2083  156.4311 H   0  0  0  0  0  0  0  0  0  0  0  0
  149.7526  135.7175  155.4912 H   0  0  0  0  0  0  0  0  0  0  0  0
  148.2507  136.6313  155.5365 H   0  0  0  0  0  0  0  0  0  0  0  0
  151.6834  136.5741  154.3099 H   0  0  0  0  0  0  0  0  0  0  0  0
  151.4422  137.8088  153.0966 H   0  0  0  0  0  0  0  0  0  0  0  0
  151.7650  138.3351  156.1079 H   0  0  0  0  0  0  0  0  0  0  0  0
  152.9206  138.7122  154.8485 H   0  0  0  0  0  0  0  0  0  0  0  0
  149.6889  139.5624  156.1710 H   0  0  0  0  0  0  0  0  0  0  0  0
  149.3504  141.5545  153.8727 H   0  0  0  0  0  0  0  0  0  0  0  0
  148.2209  141.2877  155.1893 H   0  0  0  0  0  0  0  0  0  0  0  0
  150.9592  142.2856  155.4747 H   0  0  0  0  0  0  0  0  0  0  0  0
  149.4820  142.8094  157.7235 H   0  0  0  0  0  0  0  0  0  0  0  0
  149.2960  141.0985  157.3735 H   0  0  0  0  0  0  0  0  0  0  0  0
  151.4101  140.6622  158.1155 H   0  0  0  0  0  0  0  0  0  0  0  0
  152.0878  141.8040  156.9810 H   0  0  0  0  0  0  0  0  0  0  0  0
  151.5742  144.4553  157.7287 H   0  0  0  0  0  0  0  0  0  0  0  0
  152.1742  145.9175  159.6725 H   0  0  0  0  0  0  0  0  0  0  0  0
  152.6120  144.8468  161.9012 H   0  0  0  0  0  0  0  0  0  0  0  0
  152.4256  142.3534  162.0908 H   0  0  0  0  0  0  0  0  0  0  0  0
  149.2379  139.1571  153.1627 H   0  0  0  0  0  0  0  0  0  0  0  0
  148.0768  138.7676  154.4087 H   0  0  0  0  0  0  0  0  0  0  0  0
  149.5789  143.1657  155.6011 H   0  0  0  0  0  0  0  0  0  0  0  0
  149.4120  136.9465  153.5259 H   0  0  0  0  0  0  0  0  0  0  0  0
  1  2  1  0  0  0  0
  1 18  1  0  0  0  0
  1 19  1  0  0  0  0
  1 20  1  0  0  0  0
  2 17  1  0  0  0  0
  2  3  1  0  0  0  0
  2 40  1  0  0  0  0
  3  4  1  0  0  0  0
  3 21  1  0  0  0  0
  3 22  1  0  0  0  0
  4  5  1  0  0  0  0
  4 23  1  0  0  0  0
  4 24  1  0  0  0  0
  5  6  1  0  0  0  0
  6  7  1  0  0  0  0
  6 17  1  0  0  0  0
  6 25  1  0  0  0  0
  7  8  1  0  0  0  0
  7 26  1  0  0  0  0
  7 27  1  0  0  0  0
  8  9  1  0  0  0  0
  8 28  1  0  0  0  0
  8 39  1  0  0  0  0
  9 10  1  0  0  0  0
  9 29  1  0  0  0  0
  9 30  1  0  0  0  0
 10 11  1  0  0  0  0
 10 31  1  0  0  0  0
 10 32  1  0  0  0  0
 11 16  1  0  0  0  0
 11 12  2  0  0  0  0
 12 13  1  0  0  0  0
 12 33  1  0  0  0  0
 13 14  2  0  0  0  0
 13 34  1  0  0  0  0
 14 15  1  0  0  0  0
 14 35  1  0  0  0  0
 15 16  2  0  0  0  0
 15 36  1  0  0  0  0
 17 37  1  0  0  0  0
 17 38  1  0  0  0  0
M  CHG  1   2   1
M  CHG  1   8   1
M  END
> <s_m_source_file>
AV-unprocessed.smi

> <i_m_source_file_index>
3164

> <i_lp_mmshare_version>
43012

> <i_f3d_flags>
0

> <s_epik_input>
W0NIM11OMVtDSDJdW0NIMl1PW0NASF0oW0NIMl0xKVtDSDJdW05IXVtDSDJdW0NIMl1jMltjSF1bY0hdW2NIXVtjSF1uMg==

> <s_epik_cmdline>
J2VwaWtfcHl0aG9uJywgJy1waCcsICc3LjAnLCAnLXRuJywgJzgnLCAnLW1hJywgJzIwMCcsICctbWV0YWxfYmluZGluZycsICctaW1hZScsICc8aW5maWxlLm1hZT4nLCAnLW9tYWUnLCAnPG91dGZpbGUubWFlPic=

> <r_epik_Ionization_Penalty>
0.294944

> <r_epik_Ionization_Penalty_Charging>
0.29381

> <r_epik_Ionization_Penalty_Neutral>
0.00113372

> <r_epik_State_Penalty>
0.271365

> <r_epik_Charging_Adjusted_Penalty>
0.565175

> <i_epik_Tot_Q>
2

> <i_epik_Tot_abs_Q>
2

> <r_epik_Metal_State_Penalty>
0.271365

> <b_epik_Metal_Only>
0

> <s_lp_Force_Field>
OPLS_2005

> <r_lp_Energy>
22.4199

> <b_lp_Chiralities_Consistent>
1

> <s_lp_Variant>
AV-unprocessed.smi:3164-2

> <Gold.Version>
5.8.1

> <Gold.Id.Protein>
6NUR|6NUR_protein|mol2

> <Gold.PLP.Fitness>
55.0426

> <Gold.PLP.PLP>
-41.5386

> <Gold.PLP.part.hbond>
-2.9940

> <Gold.PLP.part.metal>
0.0000

> <Gold.PLP.part.buried>
-5.7068

> <Gold.PLP.part.nonpolar>
-33.3281

> <Gold.PLP.part.repulsive>
0.2872

> <Gold.PLP.ligand.clash>
0.0000

> <Gold.PLP.ligand.torsion>
0.7543

> <Gold.PLP.Chemscore.Hbond>
5.0000

> <Gold.PLP.Chemscore.CHOScore>
0.0000

> <Gold.PLP.Chemscore.Metal>
0.0000

> <Gold.Chemscore.Hbonds>
donor molecule, donor type, donor heavy atom, donor atom, acceptor molecule, acceptor atom, score
      L1  H     2    40       P1  7948  2.00
      L1  H     8    39       P1  8028  2.00
      P1  H  7989  7998       L1     5  1.00

> <Gold.PLP.Chemscore.Internal.Correction>
0.0126

> <Gold.Rescore>
     Score         DG    S(hbond)    S(metal)    S(lipo)     H(rot)  DE(clash)    DE(int)     intcor
     22.46     -23.78       2.92        0.00     109.15       1.65       0.37       0.95       ----

> <Gold.Chemscore.Fitness>
22.4597

> <Gold.Chemscore.DG>
-23.7824

> <Gold.Chemscore.ZeroCoef>
-5.4800

> <Gold.Chemscore.Hbond>
2.9174

> <Gold.Chemscore.Metal>
0.0000

> <Gold.Chemscore.Lipo>
109.1481

> <Gold.Chemscore.Internal_Hbond>
0.0000

> <Gold.Chemscore.DEClash>
0.3708

> <Gold.Chemscore.DEInternal>
0.9518

> <Gold.Chemscore.Rot>
1.6454

> <Gold.Chemscore.Internal.Correction>
   9.000000E+99

> <Gold.Chemscore.Hbonds>
donor molecule, donor type, donor heavy atom, donor atom, acceptor molecule, acceptor atom, score
      L1  H     2    40       P1  7948  0.93
      L1  H     8    39       P1  8028  1.00
      P1  H  7989  7998       L1     5  0.87

> <Gold.Chemscore.Hbond.Weighted>
-9.7443

> <Gold.Chemscore.Metal.Weighted>
-0.0000

> <Gold.Chemscore.Lipo.Weighted>
-12.7703

> <Gold.Chemscore.Internal_Hbond.Weighted>
0.0000

> <Gold.Chemscore.DEClash.Weighted>
0.3708

> <Gold.Chemscore.DEInternal.Weighted>
0.9518

> <Gold.Chemscore.Rot.Weighted>
4.2122

> <Gold.Chemscore.Internal.Correction.Weighted>
   9.000000E+99

> <Gold.Protein.RotatedTorsions>
[ 6907 6896 6895 6894 ] final   80.40 input  -60.11 | X-H torsion
[ 7974 7965 7964 7962 ] final   42.79 input  175.53 | X-H torsion
[ 8008 7997 7996 7995 ] final -105.41 input   59.86 | X-H torsion
[ 10167 10162 10161 10158 ] final    7.54 input  -65.29 | X-H torsion
[ 10718 10713 10712 10709 ] final   85.35 input   66.30 | X-H torsion
[ 10763 10752 10751 10750 ] final  -24.48 input  -60.55 | X-H torsion
[ 11005 11000 10999 10996 ] final   53.84 input  -57.11 | X-H torsion

> <Gold.Protein.ActiveResidues>
 VAL166  LYS551  ARG553  GLY616  TRP617  ASP618  TYR619  PRO620  LYS621  CYS622 
 ASP623  PHE694  ASN695  SER759  ASP760  ASP761  ALA762  ILE779  LEU786  VAL792 
 PHE793  MET794  SER795  GLU796  ALA797  LYS798  CYS799  TRP800  GLU811  SER814 

> <Gold.Protein.RotatedAtoms>
  152.5233  134.3363  159.9200 H   0  0  0  0  0  0  0  0  0  0  0  0  # atno 6907 bound_to 6896
  151.3313  133.3993  159.2670 H   0  0  0  0  0  0  0  0  0  0  0  0  # atno 6908 bound_to 6896
  150.9878  134.9238  159.7940 H   0  0  0  0  0  0  0  0  0  0  0  0  # atno 6909 bound_to 6896
  146.0710  139.5259  142.9598 H   0  0  0  0  0  0  0  0  0  0  0  0  # atno 7974 bound_to 7965
  154.8994  140.0413  157.1884 H   0  0  0  0  0  0  0  0  0  0  0  0  # atno 8008 bound_to 7997
  154.8459  140.2921  155.5608 H   0  0  0  0  0  0  0  0  0  0  0  0  # atno 8009 bound_to 7997
  156.2994  140.2474  156.3410 H   0  0  0  0  0  0  0  0  0  0  0  0  # atno 8010 bound_to 7997
  140.6366  143.7873  150.7367 H   0  0  0  0  0  0  0  0  0  0  0  0  # atno 10167 bound_to 10162
  157.6913  131.0171  150.2809 H   0  0  0  0  0  0  0  0  0  0  0  0  # atno 10718 bound_to 10713
  153.6845  135.6965  153.5108 H   0  0  0  0  0  0  0  0  0  0  0  0  # atno 10763 bound_to 10752
  153.2459  135.4290  155.0746 H   0  0  0  0  0  0  0  0  0  0  0  0  # atno 10764 bound_to 10752
  154.8390  135.3519  154.6388 H   0  0  0  0  0  0  0  0  0  0  0  0  # atno 10765 bound_to 10752
  140.0734  134.5437  155.9022 H   0  0  0  0  0  0  0  0  0  0  0  0  # atno 11005 bound_to 11000
  145.6391  141.0288  143.1821 LP  0  0  0  0  0  0  0  0  0  0  0  0  # atno 17320 bound_to 7965
  144.7232  139.7962  143.7374 LP  0  0  0  0  0  0  0  0  0  0  0  0  # atno 17321 bound_to 7965
  140.1495  143.4370  152.2140 LP  0  0  0  0  0  0  0  0  0  0  0  0  # atno 17342 bound_to 10162
  139.5576  144.7383  151.4249 LP  0  0  0  0  0  0  0  0  0  0  0  0  # atno 17343 bound_to 10162
  156.3355  130.3807  149.7453 LP  0  0  0  0  0  0  0  0  0  0  0  0  # atno 17370 bound_to 10713
  156.4979  130.8115  151.3121 LP  0  0  0  0  0  0  0  0  0  0  0  0  # atno 17371 bound_to 10713
  141.2020  133.6622  156.5985 LP  0  0  0  0  0  0  0  0  0  0  0  0  # atno 17394 bound_to 11000
  140.3593  134.7701  157.4522 LP  0  0  0  0  0  0  0  0  0  0  0  0  # atno 17395 bound_to 11000

$$$$
