AV-unprocessed.smi:1268|AV-procd|sdf|5324|dock3
  -GOLD-   22720 4453D 1   1.00000     0.00000
 Structure written by MMmdl.
 40 41  0  0  0  0  0  0  0  0  2 V2000
  144.4703  136.7466  151.5395 O   0  0  0  0  0  0  0  0  0  0  0  0
  145.6632  136.4441  151.5765 C   0  0  0  0  0  0  0  0  0  0  0  0
  146.6381  137.3274  151.8375 N   0  0  0  0  0  0  0  0  0  0  0  0
  146.4302  138.7494  152.0928 C   0  0  0  0  0  0  0  0  0  0  0  0
  147.2397  139.2437  153.3095 C   0  0  1  0  0  0  0  0  0  0  0  0
  148.5456  138.7091  153.2147 O   0  0  0  0  0  0  0  0  0  0  0  0
  147.3637  140.7806  153.3171 C   0  0  0  0  0  0  0  0  0  0  0  0
  146.1489  141.4480  153.8514 N   0  3  0  0  0  0  0  0  0  0  0  0
  145.7625  140.9303  155.1897 C   0  0  0  0  0  0  0  0  0  0  0  0
  144.4192  141.5230  155.6469 C   0  0  0  0  0  0  0  0  0  0  0  0
  144.4666  143.0564  155.6504 C   0  0  0  0  0  0  0  0  0  0  0  0
  144.9072  143.5709  154.2738 C   0  0  0  0  0  0  0  0  0  0  0  0
  146.2401  142.9331  153.8462 C   0  0  0  0  0  0  0  0  0  0  0  0
  146.1602  135.2138  151.3732 N   0  0  0  0  0  0  0  0  0  0  0  0
  145.4452  134.0297  151.0660 C   0  0  0  0  0  0  0  0  0  0  0  0
  146.1103  132.9864  150.5667 N   0  0  0  0  0  0  0  0  0  0  0  0
  145.2680  131.9002  150.3115 C   0  0  0  0  0  0  0  0  0  0  0  0
  143.9526  132.1356  150.6260 C   0  0  0  0  0  0  0  0  0  0  0  0
  143.7141  133.7415  151.2609 S   0  0  0  0  0  0  0  0  0  0  0  0
  147.5924  136.9973  151.8467 H   0  0  0  0  0  0  0  0  0  0  0  0
  146.6799  139.3202  151.1974 H   0  0  0  0  0  0  0  0  0  0  0  0
  145.3640  138.9107  152.2619 H   0  0  0  0  0  0  0  0  0  0  0  0
  146.7772  138.8976  154.2331 H   0  0  0  0  0  0  0  0  0  0  0  0
  148.4791  137.7920  152.9937 H   0  0  0  0  0  0  0  0  0  0  0  0
  148.2333  141.0534  153.9176 H   0  0  0  0  0  0  0  0  0  0  0  0
  147.5624  141.1556  152.3118 H   0  0  0  0  0  0  0  0  0  0  0  0
  145.6770  139.8435  155.1550 H   0  0  0  0  0  0  0  0  0  0  0  0
  146.5456  141.1655  155.9124 H   0  0  0  0  0  0  0  0  0  0  0  0
  143.6240  141.1820  154.9825 H   0  0  0  0  0  0  0  0  0  0  0  0
  144.1692  141.1556  156.6426 H   0  0  0  0  0  0  0  0  0  0  0  0
  143.4888  143.4629  155.9112 H   0  0  0  0  0  0  0  0  0  0  0  0
  145.1635  143.4026  156.4147 H   0  0  0  0  0  0  0  0  0  0  0  0
  144.1386  143.3435  153.5337 H   0  0  0  0  0  0  0  0  0  0  0  0
  145.0035  144.6569  154.2963 H   0  0  0  0  0  0  0  0  0  0  0  0
  147.0389  143.2515  154.5179 H   0  0  0  0  0  0  0  0  0  0  0  0
  146.5019  143.2969  152.8534 H   0  0  0  0  0  0  0  0  0  0  0  0
  147.1620  135.1111  151.4413 H   0  0  0  0  0  0  0  0  0  0  0  0
  145.6899  130.9938  149.9031 H   0  0  0  0  0  0  0  0  0  0  0  0
  143.1130  131.4644  150.5225 H   0  0  0  0  0  0  0  0  0  0  0  0
  145.3964  141.1947  153.2266 H   0  0  0  0  0  0  0  0  0  0  0  0
  1  2  2  0  0  0  0
  2  3  1  0  0  0  0
  2 14  1  0  0  0  0
  3  4  1  0  0  0  0
  3 20  1  0  0  0  0
  4  5  1  0  0  0  0
  4 21  1  0  0  0  0
  4 22  1  0  0  0  0
  5  6  1  0  0  0  0
  5  7  1  0  0  0  0
  5 23  1  0  0  0  0
  6 24  1  0  0  0  0
  7  8  1  0  0  0  0
  7 25  1  0  0  0  0
  7 26  1  0  0  0  0
  8 13  1  0  0  0  0
  8  9  1  0  0  0  0
  8 40  1  0  0  0  0
  9 10  1  0  0  0  0
  9 27  1  0  0  0  0
  9 28  1  0  0  0  0
 10 11  1  0  0  0  0
 10 29  1  0  0  0  0
 10 30  1  0  0  0  0
 11 12  1  0  0  0  0
 11 31  1  0  0  0  0
 11 32  1  0  0  0  0
 12 13  1  0  0  0  0
 12 33  1  0  0  0  0
 12 34  1  0  0  0  0
 13 35  1  0  0  0  0
 13 36  1  0  0  0  0
 14 15  1  0  0  0  0
 14 37  1  0  0  0  0
 15 19  1  0  0  0  0
 15 16  2  0  0  0  0
 16 17  1  0  0  0  0
 17 18  2  0  0  0  0
 17 38  1  0  0  0  0
 18 19  1  0  0  0  0
 18 39  1  0  0  0  0
M  CHG  1   8   1
M  END
> <s_m_source_file>
AV-unprocessed.smi

> <i_m_source_file_index>
1268

> <i_lp_mmshare_version>
43012

> <i_f3d_flags>
0

> <s_epik_input>
czFbY0hdW2NIXW5jMVtOSF1DKD1PKVtOSF1bQ0gyXVtDQEhdKFtPSF0pW0NIMl1OMltDSDJdW0NIMl1bQ0gyXVtDSDJdW0NIMl0y

> <s_epik_cmdline>
J2VwaWtfcHl0aG9uJywgJy1waCcsICc3LjAnLCAnLXRuJywgJzgnLCAnLW1hJywgJzIwMCcsICctbWV0YWxfYmluZGluZycsICctaW1hZScsICc8aW5maWxlLm1hZT4nLCAnLW9tYWUnLCAnPG91dGZpbGUubWFlPic=

> <r_lp_tautomer_probability>
0.999

> <r_epik_Ionization_Penalty>
0.00539631

> <r_epik_Ionization_Penalty_Charging>
0.00525788

> <r_epik_Ionization_Penalty_Neutral>
0.000138432

> <r_epik_State_Penalty>
0.0038355

> <r_epik_Charging_Adjusted_Penalty>
0.00909338

> <i_epik_Tot_Q>
1

> <i_epik_Tot_abs_Q>
1

> <r_epik_Metal_State_Penalty>
0.0500806

> <b_epik_Metal_Only>
0

> <s_lp_Force_Field>
OPLS_2005

> <r_lp_Energy>
15.7881

> <b_lp_Chiralities_Consistent>
1

> <s_lp_Variant>
AV-unprocessed.smi:1268-2

> <Gold.Version>
5.8.1

> <Gold.Id.Protein>
6NUR|6NUR_protein|mol2

> <Gold.PLP.Fitness>
49.8112

> <Gold.PLP.PLP>
-35.4853

> <Gold.PLP.part.hbond>
-4.9044

> <Gold.PLP.part.metal>
0.0000

> <Gold.PLP.part.buried>
-6.4968

> <Gold.PLP.part.nonpolar>
-28.1303

> <Gold.PLP.part.repulsive>
3.2938

> <Gold.PLP.ligand.clash>
0.0000

> <Gold.PLP.ligand.torsion>
0.4750

> <Gold.PLP.Chemscore.Hbond>
4.7862

> <Gold.PLP.Chemscore.CHOScore>
0.2870

> <Gold.PLP.Chemscore.Metal>
0.0000

> <Gold.Chemscore.Hbonds>
donor molecule, donor type, donor heavy atom, donor atom, acceptor molecule, acceptor atom, score
      L1  H     3    20       P1  7948  1.00
      L1  H     6    24       P1  7948  1.00
      L1  H     8    40       P1 10175  1.90
      L1  H    14    37       P1  7948  0.70
      L1  C    18    39       P1 10952  0.52

> <Gold.PLP.Chemscore.Internal.Correction>
0.0563

> <Gold.Rescore>
     Score         DG    S(hbond)    S(metal)    S(lipo)     H(rot)  DE(clash)    DE(int)     intcor
     16.45     -17.83       3.31        0.00      66.50       2.54       0.85       0.52       ----

> <Gold.Chemscore.Fitness>
16.4550

> <Gold.Chemscore.DG>
-17.8274

> <Gold.Chemscore.ZeroCoef>
-5.4800

> <Gold.Chemscore.Hbond>
3.3128

> <Gold.Chemscore.Metal>
0.0000

> <Gold.Chemscore.Lipo>
66.5028

> <Gold.Chemscore.Internal_Hbond>
0.0000

> <Gold.Chemscore.DEClash>
0.8490

> <Gold.Chemscore.DEInternal>
0.5234

> <Gold.Chemscore.Rot>
2.5383

> <Gold.Chemscore.Internal.Correction>
   9.000000E+99

> <Gold.Chemscore.Hbonds>
donor molecule, donor type, donor heavy atom, donor atom, acceptor molecule, acceptor atom, score
      L1  H     3    20       P1  7948  0.93
      L1  H     6    24       P1  7948  0.93
      L1  H     8    40       P1 10175  0.21
      L1  H    14    37       P1  7948  0.56

> <Gold.Chemscore.Hbond.Weighted>
-11.0646

> <Gold.Chemscore.Metal.Weighted>
-0.0000

> <Gold.Chemscore.Lipo.Weighted>
-7.7808

> <Gold.Chemscore.Internal_Hbond.Weighted>
0.0000

> <Gold.Chemscore.DEClash.Weighted>
0.8490

> <Gold.Chemscore.DEInternal.Weighted>
0.5234

> <Gold.Chemscore.Rot.Weighted>
6.4981

> <Gold.Chemscore.Internal.Correction.Weighted>
   9.000000E+99

> <Gold.Protein.RotatedTorsions>
[ 6907 6896 6895 6894 ] final   77.17 input  -60.11 | X-H torsion
[ 7974 7965 7964 7962 ] final   38.39 input  175.53 | X-H torsion
[ 8008 7997 7996 7995 ] final  131.22 input   59.86 | X-H torsion
[ 10167 10162 10161 10158 ] final   39.43 input  -65.29 | X-H torsion
[ 10718 10713 10712 10709 ] final  -88.59 input   66.30 | X-H torsion
[ 10763 10752 10751 10750 ] final  -86.00 input  -60.55 | X-H torsion
[ 11005 11000 10999 10996 ] final   37.38 input  -57.11 | X-H torsion

> <Gold.Protein.ActiveResidues>
 VAL166  LYS551  ARG553  GLY616  TRP617  ASP618  TYR619  PRO620  LYS621  CYS622 
 ASP623  PHE694  ASN695  SER759  ASP760  ASP761  ALA762  ILE779  LEU786  VAL792 
 PHE793  MET794  SER795  GLU796  ALA797  LYS798  CYS799  TRP800  GLU811  SER814 

> <Gold.Protein.RotatedAtoms>
  152.5106  134.3858  159.9366 H   0  0  0  0  0  0  0  0  0  0  0  0  # atno 6907 bound_to 6896
  151.3816  133.3813  159.2718 H   0  0  0  0  0  0  0  0  0  0  0  0  # atno 6908 bound_to 6896
  150.9500  134.8921  159.7725 H   0  0  0  0  0  0  0  0  0  0  0  0  # atno 6909 bound_to 6896
  146.1065  139.5778  142.9380 H   0  0  0  0  0  0  0  0  0  0  0  0  # atno 7974 bound_to 7965
  156.2966  140.2577  156.2889 H   0  0  0  0  0  0  0  0  0  0  0  0  # atno 8008 bound_to 7997
  154.9529  140.0394  157.2171 H   0  0  0  0  0  0  0  0  0  0  0  0  # atno 8009 bound_to 7997
  154.8019  140.2829  155.5920 H   0  0  0  0  0  0  0  0  0  0  0  0  # atno 8010 bound_to 7997
  140.3840  144.1942  150.6130 H   0  0  0  0  0  0  0  0  0  0  0  0  # atno 10167 bound_to 10162
  155.9983  130.4841  150.5042 H   0  0  0  0  0  0  0  0  0  0  0  0  # atno 10718 bound_to 10713
  154.6174  135.5465  153.7539 H   0  0  0  0  0  0  0  0  0  0  0  0  # atno 10763 bound_to 10752
  153.0223  135.6404  154.1490 H   0  0  0  0  0  0  0  0  0  0  0  0  # atno 10764 bound_to 10752
  154.1425  135.2907  155.3137 H   0  0  0  0  0  0  0  0  0  0  0  0  # atno 10765 bound_to 10752
  140.2231  134.3616  155.7996 H   0  0  0  0  0  0  0  0  0  0  0  0  # atno 11005 bound_to 11000
  145.5749  141.0389  143.2154 LP  0  0  0  0  0  0  0  0  0  0  0  0  # atno 17320 bound_to 7965
  144.7475  139.7280  143.7286 LP  0  0  0  0  0  0  0  0  0  0  0  0  # atno 17321 bound_to 7965
  140.4908  143.2348  151.8821 LP  0  0  0  0  0  0  0  0  0  0  0  0  # atno 17342 bound_to 10162
  139.4793  144.5168  151.8857 LP  0  0  0  0  0  0  0  0  0  0  0  0  # atno 17343 bound_to 10162
  157.3023  131.0647  151.2060 LP  0  0  0  0  0  0  0  0  0  0  0  0  # atno 17370 bound_to 10713
  157.3035  130.6854  149.6177 LP  0  0  0  0  0  0  0  0  0  0  0  0  # atno 17371 bound_to 10713
  141.2222  133.7204  156.8609 LP  0  0  0  0  0  0  0  0  0  0  0  0  # atno 17394 bound_to 11000
  140.1828  134.9021  157.2969 LP  0  0  0  0  0  0  0  0  0  0  0  0  # atno 17395 bound_to 11000

$$$$
