AV-unprocessed.smi:2179|AV-procd|sdf|8858|dock3
  -GOLD-   2272012 53D 1   1.00000     0.00000
 Structure written by MMmdl.
 47 48  0  0  0  0  0  0  0  0  1 V2000
  144.5841  135.1171  150.3804 C   0  0  0  0  0  0  0  0  0  0  0  0
  145.4323  135.6768  151.5169 C   0  0  0  0  0  0  0  0  0  0  0  0
  145.9973  134.9126  152.2990 O   0  0  0  0  0  0  0  0  0  0  0  0
  145.5149  137.0138  151.5939 N   0  0  0  0  0  0  0  0  0  0  0  0
  146.2781  137.7446  152.5996 C   0  0  0  0  0  0  0  0  0  0  0  0
  147.1828  138.8197  151.9645 C   0  0  0  0  0  0  0  0  0  0  0  0
  147.9137  139.5789  152.9728 N   0  0  0  0  0  0  0  0  0  0  0  0
  147.3806  140.1209  154.0793 C   0  0  0  0  0  0  0  0  0  0  0  0
  146.1833  140.0576  154.3592 O   0  0  0  0  0  0  0  0  0  0  0  0
  148.3613  140.7536  155.0233 C   0  0  0  0  0  0  0  0  0  0  0  0
  149.7473  140.7725  154.7542 C   0  0  0  0  0  0  0  0  0  0  0  0
  150.6166  141.3872  155.6754 C   0  0  0  0  0  0  0  0  0  0  0  0
  150.0802  141.9802  156.8428 C   0  0  0  0  0  0  0  0  0  0  0  0
  150.9333  142.5920  157.7866 N   0  0  0  0  0  0  0  0  0  0  0  0
  151.5963  141.6976  158.7301 C   0  0  0  0  0  0  0  0  0  0  0  0
  152.1600  142.4973  159.9184 C   0  0  1  0  0  0  0  0  0  0  0  0
  152.9788  141.6140  160.8659 C   0  0  0  0  0  0  0  0  0  0  0  0
  153.0127  143.5351  159.4362 O   0  0  0  0  0  0  0  0  0  0  0  0
  152.3896  144.4502  158.5322 C   0  0  2  0  0  0  0  0  0  0  0  0
  151.3827  145.3736  159.2409 C   0  0  0  0  0  0  0  0  0  0  0  0
  151.7870  143.6889  157.3354 C   0  0  0  0  0  0  0  0  0  0  0  0
  148.7479  141.9695  157.0937 N   0  0  0  0  0  0  0  0  0  0  0  0
  147.9179  141.3796  156.2075 C   0  0  0  0  0  0  0  0  0  0  0  0
  144.9952  135.4157  149.4158 H   0  0  0  0  0  0  0  0  0  0  0  0
  143.5603  135.4855  150.4508 H   0  0  0  0  0  0  0  0  0  0  0  0
  144.5580  134.0276  150.4174 H   0  0  0  0  0  0  0  0  0  0  0  0
  145.0145  137.5631  150.9102 H   0  0  0  0  0  0  0  0  0  0  0  0
  145.5474  138.2371  153.2415 H   0  0  0  0  0  0  0  0  0  0  0  0
  146.8345  137.0652  153.2478 H   0  0  0  0  0  0  0  0  0  0  0  0
  147.8883  138.3756  151.2613 H   0  0  0  0  0  0  0  0  0  0  0  0
  146.5727  139.5117  151.3813 H   0  0  0  0  0  0  0  0  0  0  0  0
  148.9122  139.6559  152.8447 H   0  0  0  0  0  0  0  0  0  0  0  0
  150.1514  140.3209  153.8598 H   0  0  0  0  0  0  0  0  0  0  0  0
  151.6792  141.3807  155.4837 H   0  0  0  0  0  0  0  0  0  0  0  0
  150.9209  140.9309  159.1062 H   0  0  0  0  0  0  0  0  0  0  0  0
  152.4027  141.1794  158.2097 H   0  0  0  0  0  0  0  0  0  0  0  0
  151.3386  142.9310  160.4893 H   0  0  0  0  0  0  0  0  0  0  0  0
  152.3695  140.8087  161.2770 H   0  0  0  0  0  0  0  0  0  0  0  0
  153.3672  142.1959  161.7021 H   0  0  0  0  0  0  0  0  0  0  0  0
  153.8277  141.1635  160.3509 H   0  0  0  0  0  0  0  0  0  0  0  0
  153.1861  145.0892  158.1503 H   0  0  0  0  0  0  0  0  0  0  0  0
  151.0257  146.1478  158.5613 H   0  0  0  0  0  0  0  0  0  0  0  0
  151.8450  145.8714  160.0933 H   0  0  0  0  0  0  0  0  0  0  0  0
  150.5074  144.8339  159.6015 H   0  0  0  0  0  0  0  0  0  0  0  0
  152.5886  143.2762  156.7216 H   0  0  0  0  0  0  0  0  0  0  0  0
  151.2257  144.3823  156.7076 H   0  0  0  0  0  0  0  0  0  0  0  0
  146.8687  141.4030  156.4638 H   0  0  0  0  0  0  0  0  0  0  0  0
  1  2  1  0  0  0  0
  1 24  1  0  0  0  0
  1 25  1  0  0  0  0
  1 26  1  0  0  0  0
  2  3  2  0  0  0  0
  2  4  1  0  0  0  0
  4  5  1  0  0  0  0
  4 27  1  0  0  0  0
  5  6  1  0  0  0  0
  5 28  1  0  0  0  0
  5 29  1  0  0  0  0
  6  7  1  0  0  0  0
  6 30  1  0  0  0  0
  6 31  1  0  0  0  0
  7  8  1  0  0  0  0
  7 32  1  0  0  0  0
  8  9  2  0  0  0  0
  8 10  1  0  0  0  0
 10 23  1  0  0  0  0
 10 11  2  0  0  0  0
 11 12  1  0  0  0  0
 11 33  1  0  0  0  0
 12 13  2  0  0  0  0
 12 34  1  0  0  0  0
 13 14  1  0  0  0  0
 13 22  1  0  0  0  0
 14 21  1  0  0  0  0
 14 15  1  0  0  0  0
 15 16  1  0  0  0  0
 15 35  1  0  0  0  0
 15 36  1  0  0  0  0
 16 17  1  0  0  0  0
 16 18  1  0  0  0  0
 16 37  1  0  0  0  0
 17 38  1  0  0  0  0
 17 39  1  0  0  0  0
 17 40  1  0  0  0  0
 18 19  1  0  0  0  0
 19 20  1  0  0  0  0
 19 21  1  0  0  0  0
 19 41  1  0  0  0  0
 20 42  1  0  0  0  0
 20 43  1  0  0  0  0
 20 44  1  0  0  0  0
 21 45  1  0  0  0  0
 21 46  1  0  0  0  0
 22 23  2  0  0  0  0
 23 47  1  0  0  0  0
M  END
> <s_m_source_file>
AV-unprocessed.smi

> <i_m_source_file_index>
2179

> <i_lp_mmshare_version>
43012

> <i_f3d_flags>
0

> <s_epik_input>
W0NIM11DKD1PKVtOSF1bQ0gyXVtDSDJdW05IXUMoPU8pYzFbY0hdW2NIXWMobltjSF0xKU4yW0NIMl1bQ0BASF0oW0NIM10pT1tDQEBIXShbQ0gzXSlbQ0gyXTI=

> <s_epik_cmdline>
J2VwaWtfcHl0aG9uJywgJy1waCcsICc3LjAnLCAnLXRuJywgJzgnLCAnLW1hJywgJzIwMCcsICctbWV0YWxfYmluZGluZycsICctaW1hZScsICc8aW5maWxlLm1hZT4nLCAnLW9tYWUnLCAnPG91dGZpbGUubWFlPic=

> <r_lp_tautomer_probability>
1

> <r_epik_Ionization_Penalty>
2.00433e-05

> <r_epik_Ionization_Penalty_Charging>
0

> <r_epik_Ionization_Penalty_Neutral>
2.00433e-05

> <r_epik_State_Penalty>
-0

> <r_epik_Charging_Adjusted_Penalty>
0

> <i_epik_Tot_Q>
0

> <i_epik_Tot_abs_Q>
0

> <r_epik_Metal_State_Penalty>
-0

> <b_epik_Metal_Only>
0

> <s_lp_Force_Field>
OPLS_2005

> <r_lp_Energy>
19.9446

> <b_lp_Chiralities_Consistent>
1

> <s_lp_Variant>
AV-unprocessed.smi:2179-3

> <Gold.Version>
5.8.1

> <Gold.Id.Protein>
6NUR|6NUR_protein|mol2

> <Gold.PLP.Fitness>
52.2980

> <Gold.PLP.PLP>
-47.6482

> <Gold.PLP.part.hbond>
-2.0000

> <Gold.PLP.part.metal>
0.0000

> <Gold.PLP.part.buried>
-4.6381

> <Gold.PLP.part.nonpolar>
-40.6978

> <Gold.PLP.part.repulsive>
1.0176

> <Gold.PLP.ligand.clash>
0.0000

> <Gold.PLP.ligand.torsion>
0.4330

> <Gold.PLP.Chemscore.Hbond>
1.7040

> <Gold.PLP.Chemscore.CHOScore>
0.0000

> <Gold.PLP.Chemscore.Metal>
0.0000

> <Gold.Chemscore.Hbonds>
donor molecule, donor type, donor heavy atom, donor atom, acceptor molecule, acceptor atom, score
      L1  H     4    27       P1 10171  1.00
      L1  H     7    32       P1  7957  0.40

> <Gold.PLP.Chemscore.Internal.Correction>
0.4038

> <Gold.Rescore>
     Score         DG    S(hbond)    S(metal)    S(lipo)     H(rot)  DE(clash)    DE(int)     intcor
     18.14     -19.95       1.78        0.00     113.60       1.86       0.13       1.68       ----

> <Gold.Chemscore.Fitness>
18.1430

> <Gold.Chemscore.DG>
-19.9513

> <Gold.Chemscore.ZeroCoef>
-5.4800

> <Gold.Chemscore.Hbond>
1.7779

> <Gold.Chemscore.Metal>
0.0000

> <Gold.Chemscore.Lipo>
113.5997

> <Gold.Chemscore.Internal_Hbond>
0.0000

> <Gold.Chemscore.DEClash>
0.1313

> <Gold.Chemscore.DEInternal>
1.6769

> <Gold.Chemscore.Rot>
1.8586

> <Gold.Chemscore.Internal.Correction>
   9.000000E+99

> <Gold.Chemscore.Hbonds>
donor molecule, donor type, donor heavy atom, donor atom, acceptor molecule, acceptor atom, score
      L1  H     4    27       P1 10171  1.00
      L1  H     7    32       P1  7957  0.40

> <Gold.Chemscore.Hbond.Weighted>
-5.9380

> <Gold.Chemscore.Metal.Weighted>
-0.0000

> <Gold.Chemscore.Lipo.Weighted>
-13.2912

> <Gold.Chemscore.Internal_Hbond.Weighted>
0.0000

> <Gold.Chemscore.DEClash.Weighted>
0.1313

> <Gold.Chemscore.DEInternal.Weighted>
1.6769

> <Gold.Chemscore.Rot.Weighted>
4.7579

> <Gold.Chemscore.Internal.Correction.Weighted>
   9.000000E+99

> <Gold.Protein.RotatedTorsions>
[ 6907 6896 6895 6894 ] final   70.21 input  -60.11 | X-H torsion
[ 7974 7965 7964 7962 ] final  172.10 input  175.53 | X-H torsion
[ 8008 7997 7996 7995 ] final -109.15 input   59.86 | X-H torsion
[ 10167 10162 10161 10158 ] final  172.99 input  -65.29 | X-H torsion
[ 10718 10713 10712 10709 ] final  -41.94 input   66.30 | X-H torsion
[ 10763 10752 10751 10750 ] final   22.71 input  -60.55 | X-H torsion
[ 11005 11000 10999 10996 ] final  -49.79 input  -57.11 | X-H torsion

> <Gold.Protein.ActiveResidues>
 VAL166  LYS551  ARG553  GLY616  TRP617  ASP618  TYR619  PRO620  LYS621  CYS622 
 ASP623  PHE694  ASN695  SER759  ASP760  ASP761  ALA762  ILE779  LEU786  VAL792 
 PHE793  MET794  SER795  GLU796  ALA797  LYS798  CYS799  TRP800  GLU811  SER814 

> <Gold.Protein.RotatedAtoms>
  152.4735  134.4901  159.9692 H   0  0  0  0  0  0  0  0  0  0  0  0  # atno 6907 bound_to 6896
  151.4923  133.3516  159.2863 H   0  0  0  0  0  0  0  0  0  0  0  0  # atno 6908 bound_to 6896
  150.8759  134.8169  159.7251 H   0  0  0  0  0  0  0  0  0  0  0  0  # atno 6909 bound_to 6896
  144.7277  139.9449  143.6430 H   0  0  0  0  0  0  0  0  0  0  0  0  # atno 7974 bound_to 7965
  154.9550  140.0400  157.2162 H   0  0  0  0  0  0  0  0  0  0  0  0  # atno 8008 bound_to 7997
  154.7943  140.2841  155.5946 H   0  0  0  0  0  0  0  0  0  0  0  0  # atno 8009 bound_to 7997
  156.2953  140.2567  156.2797 H   0  0  0  0  0  0  0  0  0  0  0  0  # atno 8010 bound_to 7997
  139.5094  144.3311  152.0110 H   0  0  0  0  0  0  0  0  0  0  0  0  # atno 10167 bound_to 10162
  156.2650  130.4201  149.8500 H   0  0  0  0  0  0  0  0  0  0  0  0  # atno 10718 bound_to 10713
  153.0894  135.6642  153.9883 H   0  0  0  0  0  0  0  0  0  0  0  0  # atno 10763 bound_to 10752
  153.9484  135.2986  155.3441 H   0  0  0  0  0  0  0  0  0  0  0  0  # atno 10764 bound_to 10752
  154.7307  135.5124  153.9032 H   0  0  0  0  0  0  0  0  0  0  0  0  # atno 10765 bound_to 10752
  141.0779  133.6661  156.3636 H   0  0  0  0  0  0  0  0  0  0  0  0  # atno 11005 bound_to 11000
  146.0756  139.3744  143.0496 LP  0  0  0  0  0  0  0  0  0  0  0  0  # atno 17320 bound_to 7965
  145.7909  140.9814  143.1049 LP  0  0  0  0  0  0  0  0  0  0  0  0  # atno 17321 bound_to 7965
  140.2751  144.3921  150.6138 LP  0  0  0  0  0  0  0  0  0  0  0  0  # atno 17342 bound_to 10162
  140.6060  143.2168  151.6981 LP  0  0  0  0  0  0  0  0  0  0  0  0  # atno 17343 bound_to 10162
  156.6002  130.8543  151.3430 LP  0  0  0  0  0  0  0  0  0  0  0  0  # atno 17370 bound_to 10713
  157.7264  130.9629  150.1655 LP  0  0  0  0  0  0  0  0  0  0  0  0  # atno 17371 bound_to 10713
  140.5533  134.6006  157.5414 LP  0  0  0  0  0  0  0  0  0  0  0  0  # atno 17394 bound_to 11000
  139.9592  134.7482  156.0275 LP  0  0  0  0  0  0  0  0  0  0  0  0  # atno 17395 bound_to 11000

$$$$
