AV-unprocessed.smi:1564|AV-procd|sdf|6296|dock3
  -GOLD-   22720 6493D 1   1.00000     0.00000
 Structure written by MMmdl.
 43 44  0  0  0  0  0  0  0  0  2 V2000
  153.9847  138.6088  158.6496 C   0  0  0  0  0  0  0  0  0  0  0  0
  153.6377  139.0211  157.3322 O   0  0  0  0  0  0  0  0  0  0  0  0
  152.7671  138.2328  156.6079 C   0  0  0  0  0  0  0  0  0  0  0  0
  152.3403  138.6844  155.3436 C   0  0  0  0  0  0  0  0  0  0  0  0
  151.4485  137.8852  154.6042 C   0  0  0  0  0  0  0  0  0  0  0  0
  151.0035  136.6632  155.1481 C   0  0  0  0  0  0  0  0  0  0  0  0
  150.1123  135.8761  154.3684 N   0  0  0  0  0  0  0  0  0  0  0  0
  149.5559  134.6888  154.6650 C   0  0  0  0  0  0  0  0  0  0  0  0
  149.7226  134.0607  155.7099 O   0  0  0  0  0  0  0  0  0  0  0  0
  148.7638  134.2635  153.6711 N   0  0  0  0  0  0  0  0  0  0  0  0
  148.0141  133.0118  153.6839 C   0  0  1  0  0  0  0  0  0  0  0  0
  146.9810  132.8648  152.5738 C   0  0  0  0  0  0  0  0  0  0  0  0
  146.7505  131.3540  152.5771 C   0  0  0  0  0  0  0  0  0  0  0  0
  148.0683  130.7357  152.8699 N   0  3  2  0  0  0  0  0  0  0  0  0
  148.0283  129.4425  153.6113 C   0  0  0  0  0  0  0  0  0  0  0  0
  149.4357  128.8244  153.7234 C   0  0  0  0  0  0  0  0  0  0  0  0
  147.0858  128.4242  152.9380 C   0  0  0  0  0  0  0  0  0  0  0  0
  148.9196  131.7953  153.4716 C   0  0  0  0  0  0  0  0  0  0  0  0
  151.5016  136.2909  156.4211 C   0  0  0  0  0  0  0  0  0  0  0  0
  152.3568  137.0530  157.1352 N   0  0  0  0  0  0  0  0  0  0  0  0
  154.6751  139.3320  159.0835 H   0  0  0  0  0  0  0  0  0  0  0  0
  154.4819  137.6379  158.6471 H   0  0  0  0  0  0  0  0  0  0  0  0
  153.1070  138.5603  159.2958 H   0  0  0  0  0  0  0  0  0  0  0  0
  152.6897  139.6273  154.9496 H   0  0  0  0  0  0  0  0  0  0  0  0
  151.1089  138.2120  153.6319 H   0  0  0  0  0  0  0  0  0  0  0  0
  149.8258  136.2927  153.4946 H   0  0  0  0  0  0  0  0  0  0  0  0
  148.6793  134.8426  152.8483 H   0  0  0  0  0  0  0  0  0  0  0  0
  147.5132  132.9065  154.6488 H   0  0  0  0  0  0  0  0  0  0  0  0
  146.0679  133.4315  152.7600 H   0  0  0  0  0  0  0  0  0  0  0  0
  147.3946  133.1843  151.6160 H   0  0  0  0  0  0  0  0  0  0  0  0
  146.0431  131.1127  153.3724 H   0  0  0  0  0  0  0  0  0  0  0  0
  146.3362  130.9935  151.6352 H   0  0  0  0  0  0  0  0  0  0  0  0
  147.6533  129.6395  154.6169 H   0  0  0  0  0  0  0  0  0  0  0  0
  149.4014  127.8738  154.2564 H   0  0  0  0  0  0  0  0  0  0  0  0
  150.1323  129.4624  154.2657 H   0  0  0  0  0  0  0  0  0  0  0  0
  149.8611  128.6322  152.7380 H   0  0  0  0  0  0  0  0  0  0  0  0
  147.1138  127.4649  153.4560 H   0  0  0  0  0  0  0  0  0  0  0  0
  147.3715  128.2453  151.9008 H   0  0  0  0  0  0  0  0  0  0  0  0
  146.0466  128.7523  152.9473 H   0  0  0  0  0  0  0  0  0  0  0  0
  149.7230  132.0201  152.7684 H   0  0  0  0  0  0  0  0  0  0  0  0
  149.3781  131.4982  154.4150 H   0  0  0  0  0  0  0  0  0  0  0  0
  151.2379  135.3574  156.8922 H   0  0  0  0  0  0  0  0  0  0  0  0
  148.4815  130.5324  151.9708 H   0  0  0  0  0  0  0  0  0  0  0  0
  1  2  1  0  0  0  0
  1 21  1  0  0  0  0
  1 22  1  0  0  0  0
  1 23  1  0  0  0  0
  2  3  1  0  0  0  0
  3 20  1  0  0  0  0
  3  4  2  0  0  0  0
  4  5  1  0  0  0  0
  4 24  1  0  0  0  0
  5  6  2  0  0  0  0
  5 25  1  0  0  0  0
  6  7  1  0  0  0  0
  6 19  1  0  0  0  0
  7  8  1  0  0  0  0
  7 26  1  0  0  0  0
  8  9  2  0  0  0  0
  8 10  1  0  0  0  0
 10 11  1  0  0  0  0
 10 27  1  0  0  0  0
 11 18  1  0  0  0  0
 11 12  1  0  0  0  0
 11 28  1  0  0  0  0
 12 13  1  0  0  0  0
 12 29  1  0  0  0  0
 12 30  1  0  0  0  0
 13 14  1  0  0  0  0
 13 31  1  0  0  0  0
 13 32  1  0  0  0  0
 14 15  1  0  0  0  0
 14 18  1  0  0  0  0
 14 43  1  0  0  0  0
 15 16  1  0  0  0  0
 15 17  1  0  0  0  0
 15 33  1  0  0  0  0
 16 34  1  0  0  0  0
 16 35  1  0  0  0  0
 16 36  1  0  0  0  0
 17 37  1  0  0  0  0
 17 38  1  0  0  0  0
 17 39  1  0  0  0  0
 18 40  1  0  0  0  0
 18 41  1  0  0  0  0
 19 20  2  0  0  0  0
 19 42  1  0  0  0  0
M  CHG  1  14   1
M  END
> <s_m_source_file>
AV-unprocessed.smi

> <i_m_source_file_index>
1564

> <i_lp_mmshare_version>
43012

> <i_f3d_flags>
0

> <s_epik_input>
W0NIM11PYzFbY0hdW2NIXWMoW2NIXW4xKVtOSF1DKD1PKVtOSF1bQ0BASF0yW0NIMl1bQ0gyXU4oW0NIMl0yKVtDSF0oW0NIM10pW0NIM10=

> <s_epik_cmdline>
J2VwaWtfcHl0aG9uJywgJy1waCcsICc3LjAnLCAnLXRuJywgJzgnLCAnLW1hJywgJzIwMCcsICctbWV0YWxfYmluZGluZycsICctaW1hZScsICc8aW5maWxlLm1hZT4nLCAnLW9tYWUnLCAnPG91dGZpbGUubWFlPic=

> <r_lp_tautomer_probability>
1

> <r_epik_Ionization_Penalty>
0.000679474

> <r_epik_Ionization_Penalty_Charging>
0.000606352

> <r_epik_Ionization_Penalty_Neutral>
7.31222e-05

> <r_epik_State_Penalty>
0.000382168

> <r_epik_Charging_Adjusted_Penalty>
0.00098852

> <i_epik_Tot_Q>
1

> <i_epik_Tot_abs_Q>
1

> <r_epik_Metal_State_Penalty>
-0

> <b_epik_Metal_Only>
0

> <s_lp_Force_Field>
OPLS_2005

> <r_lp_Energy>
33.6805

> <b_lp_Chiralities_Consistent>
1

> <s_lp_Variant>
AV-unprocessed.smi:1564-4

> <Gold.Version>
5.8.1

> <Gold.Id.Protein>
6NUR|6NUR_protein|mol2

> <Gold.PLP.Fitness>
42.5117

> <Gold.PLP.PLP>
-30.8602

> <Gold.PLP.part.hbond>
-4.6442

> <Gold.PLP.part.metal>
0.0000

> <Gold.PLP.part.buried>
-1.8229

> <Gold.PLP.part.nonpolar>
-23.8275

> <Gold.PLP.part.repulsive>
0.0990

> <Gold.PLP.ligand.clash>
0.0000

> <Gold.PLP.ligand.torsion>
0.1941

> <Gold.PLP.Chemscore.Hbond>
4.0000

> <Gold.PLP.Chemscore.CHOScore>
0.0000

> <Gold.PLP.Chemscore.Metal>
0.0000

> <Gold.Chemscore.Hbonds>
donor molecule, donor type, donor heavy atom, donor atom, acceptor molecule, acceptor atom, score
      L1  H     7    26       P1  7948  0.90
      L1  H    10    27       P1  7948  0.95
      L1  H    14    43       P1 10747  1.00
      P1  H  7997  8010       L1     2  0.73

> <Gold.PLP.Chemscore.Internal.Correction>
0.0397

> <Gold.Rescore>
     Score         DG    S(hbond)    S(metal)    S(lipo)     H(rot)  DE(clash)    DE(int)     intcor
     19.14     -20.61       3.34        0.00      65.47       1.44       0.00       1.48       ----

> <Gold.Chemscore.Fitness>
19.1365

> <Gold.Chemscore.DG>
-20.6147

> <Gold.Chemscore.ZeroCoef>
-5.4800

> <Gold.Chemscore.Hbond>
3.3449

> <Gold.Chemscore.Metal>
0.0000

> <Gold.Chemscore.Lipo>
65.4741

> <Gold.Chemscore.Internal_Hbond>
0.0000

> <Gold.Chemscore.DEClash>
0.0000

> <Gold.Chemscore.DEInternal>
1.4782

> <Gold.Chemscore.Rot>
1.4445

> <Gold.Chemscore.Internal.Correction>
   9.000000E+99

> <Gold.Chemscore.Hbonds>
donor molecule, donor type, donor heavy atom, donor atom, acceptor molecule, acceptor atom, score
      L1  H     7    26       P1  7948  0.17
      L1  H    10    27       P1  7948  0.21
      L1  H    14    43       P1 10747  0.87
      P1  H  7997  8010       L1     2  0.32

> <Gold.Chemscore.Hbond.Weighted>
-11.1721

> <Gold.Chemscore.Metal.Weighted>
-0.0000

> <Gold.Chemscore.Lipo.Weighted>
-7.6605

> <Gold.Chemscore.Internal_Hbond.Weighted>
0.0000

> <Gold.Chemscore.DEClash.Weighted>
0.0000

> <Gold.Chemscore.DEInternal.Weighted>
1.4782

> <Gold.Chemscore.Rot.Weighted>
3.6979

> <Gold.Chemscore.Internal.Correction.Weighted>
   9.000000E+99

> <Gold.Protein.RotatedTorsions>
[ 6907 6896 6895 6894 ] final -156.15 input  -60.11 | X-H torsion
[ 7974 7965 7964 7962 ] final -150.81 input  175.53 | X-H torsion
[ 8008 7997 7996 7995 ] final   33.12 input   59.86 | X-H torsion
[ 10167 10162 10161 10158 ] final -149.11 input  -65.29 | X-H torsion
[ 10718 10713 10712 10709 ] final  -74.68 input   66.30 | X-H torsion
[ 10763 10752 10751 10750 ] final -176.50 input  -60.55 | X-H torsion
[ 11005 11000 10999 10996 ] final  -49.96 input  -57.11 | X-H torsion

> <Gold.Protein.ActiveResidues>
 VAL166  LYS551  ARG553  GLY616  TRP617  ASP618  TYR619  PRO620  LYS621  CYS622 
 ASP623  PHE694  ASN695  SER759  ASP760  ASP761  ALA762  ILE779  LEU786  VAL792 
 PHE793  MET794  SER795  GLU796  ALA797  LYS798  CYS799  TRP800  GLU811  SER814 

> <Gold.Protein.RotatedAtoms>
  151.2833  133.4199  159.2628 H   0  0  0  0  0  0  0  0  0  0  0  0  # atno 6907 bound_to 6896
  151.0341  134.9561  159.8137 H   0  0  0  0  0  0  0  0  0  0  0  0  # atno 6908 bound_to 6896
  152.5352  134.2793  159.9054 H   0  0  0  0  0  0  0  0  0  0  0  0  # atno 6909 bound_to 6896
  144.7886  140.4882  143.5789 H   0  0  0  0  0  0  0  0  0  0  0  0  # atno 7974 bound_to 7965
  155.1335  140.3259  155.4468 H   0  0  0  0  0  0  0  0  0  0  0  0  # atno 8008 bound_to 7997
  156.2627  140.2006  156.6402 H   0  0  0  0  0  0  0  0  0  0  0  0  # atno 8009 bound_to 7997
  154.6595  140.0549  157.0033 H   0  0  0  0  0  0  0  0  0  0  0  0  # atno 8010 bound_to 7997
  139.7472  143.8573  152.2577 H   0  0  0  0  0  0  0  0  0  0  0  0  # atno 10167 bound_to 10162
  156.0234  130.4423  150.2929 H   0  0  0  0  0  0  0  0  0  0  0  0  # atno 10718 bound_to 10713
  154.5716  135.2828  155.0822 H   0  0  0  0  0  0  0  0  0  0  0  0  # atno 10763 bound_to 10752
  154.2192  135.6394  153.5143 H   0  0  0  0  0  0  0  0  0  0  0  0  # atno 10764 bound_to 10752
  153.0059  135.5510  154.6341 H   0  0  0  0  0  0  0  0  0  0  0  0  # atno 10765 bound_to 10752
  141.0789  133.6658  156.3661 H   0  0  0  0  0  0  0  0  0  0  0  0  # atno 11005 bound_to 11000
  145.5855  139.1492  143.3211 LP  0  0  0  0  0  0  0  0  0  0  0  0  # atno 17320 bound_to 7965
  146.2128  140.5983  142.9052 LP  0  0  0  0  0  0  0  0  0  0  0  0  # atno 17321 bound_to 7965
  139.8541  144.7150  150.9179 LP  0  0  0  0  0  0  0  0  0  0  0  0  # atno 17342 bound_to 10162
  140.7793  143.3874  151.1370 LP  0  0  0  0  0  0  0  0  0  0  0  0  # atno 17343 bound_to 10162
  157.1032  131.0201  151.3077 LP  0  0  0  0  0  0  0  0  0  0  0  0  # atno 17370 bound_to 10713
  157.4763  130.7738  149.7371 LP  0  0  0  0  0  0  0  0  0  0  0  0  # atno 17371 bound_to 10713
  140.5512  134.6025  157.5408 LP  0  0  0  0  0  0  0  0  0  0  0  0  # atno 17394 bound_to 11000
  139.9602  134.7466  156.0254 LP  0  0  0  0  0  0  0  0  0  0  0  0  # atno 17395 bound_to 11000

$$$$
