AV-unprocessed.smi:2243|AV-procd|sdf|9065|dock1
  -GOLD-   2272012273D 1   1.00000     0.00000
 Structure written by MMmdl.
 35 36  0  0  0  0  0  0  0  0  2 V2000
  147.1243  139.5827  152.2448 C   0  0  0  0  0  0  0  0  0  0  0  0
  147.2352  138.5022  153.3344 C   0  0  1  0  0  0  0  0  0  0  0  0
  147.2079  137.1944  152.6776 N   0  0  0  0  0  0  0  0  0  0  0  0
  146.1257  136.4170  152.5148 C   0  0  0  0  0  0  0  0  0  0  0  0
  144.9995  136.7128  152.9154 O   0  0  0  0  0  0  0  0  0  0  0  0
  146.4276  135.2820  151.8660 N   0  0  0  0  0  0  0  0  0  0  0  0
  145.5159  134.2520  151.5383 C   0  0  0  0  0  0  0  0  0  0  0  0
  145.8792  133.0314  151.1473 N   0  3  0  0  0  0  0  0  0  0  0  0
  144.7484  132.2892  150.9121 C   0  0  0  0  0  0  0  0  0  0  0  0
  143.6906  133.1244  151.1810 C   0  0  0  0  0  0  0  0  0  0  0  0
  144.1573  134.3623  151.5759 O   0  0  0  0  0  0  0  0  0  0  0  0
  148.5060  138.6449  154.2144 C   0  0  0  0  0  0  0  0  0  0  0  0
  148.8593  140.1179  154.5133 C   0  0  0  0  0  0  0  0  0  0  0  0
  150.1648  140.2301  155.3170 C   0  0  0  0  0  0  0  0  0  0  0  0
  151.2249  139.5949  154.6142 O   0  0  0  0  0  0  0  0  0  0  0  0
  151.0028  138.2025  154.4310 C   0  0  0  0  0  0  0  0  0  0  0  0
  149.7429  137.9768  153.5793 C   0  0  0  0  0  0  0  0  0  0  0  0
  147.0048  140.5777  152.6724 H   0  0  0  0  0  0  0  0  0  0  0  0
  146.2561  139.4083  151.6081 H   0  0  0  0  0  0  0  0  0  0  0  0
  148.0072  139.5961  151.6050 H   0  0  0  0  0  0  0  0  0  0  0  0
  146.3646  138.6070  153.9844 H   0  0  0  0  0  0  0  0  0  0  0  0
  148.0889  136.8617  152.3135 H   0  0  0  0  0  0  0  0  0  0  0  0
  146.8181  132.6711  151.0303 H   0  0  0  0  0  0  0  0  0  0  0  0
  144.8074  131.2615  150.5833 H   0  0  0  0  0  0  0  0  0  0  0  0
  142.6175  133.0055  151.1449 H   0  0  0  0  0  0  0  0  0  0  0  0
  148.3136  138.1513  155.1683 H   0  0  0  0  0  0  0  0  0  0  0  0
  148.9628  140.6684  153.5772 H   0  0  0  0  0  0  0  0  0  0  0  0
  148.0599  140.6037  155.0727 H   0  0  0  0  0  0  0  0  0  0  0  0
  150.4224  141.2788  155.4671 H   0  0  0  0  0  0  0  0  0  0  0  0
  150.0516  139.7858  156.3073 H   0  0  0  0  0  0  0  0  0  0  0  0
  151.8717  137.7721  153.9327 H   0  0  0  0  0  0  0  0  0  0  0  0
  150.9131  137.7060  155.3985 H   0  0  0  0  0  0  0  0  0  0  0  0
  149.5884  136.9044  153.4640 H   0  0  0  0  0  0  0  0  0  0  0  0
  149.9078  138.3791  152.5789 H   0  0  0  0  0  0  0  0  0  0  0  0
  147.3865  135.1436  151.5832 H   0  0  0  0  0  0  0  0  0  0  0  0
  1  2  1  0  0  0  0
  1 18  1  0  0  0  0
  1 19  1  0  0  0  0
  1 20  1  0  0  0  0
  2  3  1  0  0  0  0
  2 12  1  0  0  0  0
  2 21  1  0  0  0  0
  3 22  1  0  0  0  0
  3  4  1  0  0  0  0
  4  6  1  0  0  0  0
  4  5  2  0  0  0  0
  6  7  1  0  0  0  0
  6 35  1  0  0  0  0
  7 11  1  0  0  0  0
  7  8  2  0  0  0  0
  8 23  1  0  0  0  0
  8  9  1  0  0  0  0
  9 24  1  0  0  0  0
  9 10  2  0  0  0  0
 10 25  1  0  0  0  0
 10 11  1  0  0  0  0
 12 17  1  0  0  0  0
 12 13  1  0  0  0  0
 12 26  1  0  0  0  0
 13 14  1  0  0  0  0
 13 27  1  0  0  0  0
 13 28  1  0  0  0  0
 14 15  1  0  0  0  0
 14 29  1  0  0  0  0
 14 30  1  0  0  0  0
 15 16  1  0  0  0  0
 16 17  1  0  0  0  0
 16 31  1  0  0  0  0
 16 32  1  0  0  0  0
 17 33  1  0  0  0  0
 17 34  1  0  0  0  0
M  CHG  1   8   1
M  END
> <s_m_source_file>
AV-unprocessed.smi

> <i_m_source_file_index>
2243

> <i_lp_mmshare_version>
43012

> <i_f3d_flags>
0

> <s_epik_input>
W0NIMl0xW0NIMl1PW0NIMl1bQ0gyXVtDSF0xW0NASF0oW0NIM10pW05IXUMoPU8pW05IXWMybltjSF1bY0hdbzI=

> <s_epik_cmdline>
J2VwaWtfcHl0aG9uJywgJy1waCcsICc3LjAnLCAnLXRuJywgJzgnLCAnLW1hJywgJzIwMCcsICctbWV0YWxfYmluZGluZycsICctaW1hZScsICc8aW5maWxlLm1hZT4nLCAnLW9tYWUnLCAnPG91dGZpbGUubWFlPic=

> <r_epik_Ionization_Penalty>
6.61405

> <r_epik_Ionization_Penalty_Charging>
6.55981

> <r_epik_Ionization_Penalty_Neutral>
0.0542461

> <r_epik_State_Penalty>
1.79186

> <r_epik_Charging_Adjusted_Penalty>
8.35167

> <i_epik_Tot_Q>
1

> <i_epik_Tot_abs_Q>
1

> <r_epik_Metal_State_Penalty>
1.80655

> <b_epik_Metal_Only>
0

> <s_lp_Force_Field>
OPLS_2005

> <r_lp_Energy>
19.6033

> <b_lp_Chiralities_Consistent>
1

> <s_lp_Variant>
AV-unprocessed.smi:2243-4

> <Gold.Version>
5.8.1

> <Gold.Id.Protein>
6NUR|6NUR_protein|mol2

> <Gold.PLP.Fitness>
35.7843

> <Gold.PLP.PLP>
-25.6938

> <Gold.PLP.part.hbond>
-3.0000

> <Gold.PLP.part.metal>
0.0000

> <Gold.PLP.part.buried>
1.4212

> <Gold.PLP.part.nonpolar>
-25.9678

> <Gold.PLP.part.repulsive>
1.4100

> <Gold.PLP.ligand.clash>
0.0000

> <Gold.PLP.ligand.torsion>
0.8189

> <Gold.PLP.Chemscore.Hbond>
2.9040

> <Gold.PLP.Chemscore.CHOScore>
1.0000

> <Gold.PLP.Chemscore.Metal>
0.0000

> <Gold.Chemscore.Hbonds>
donor molecule, donor type, donor heavy atom, donor atom, acceptor molecule, acceptor atom, score
      L1  H     3    22       P1  7948  0.05
      L1  H     6    35       P1  7948  0.66
      P1  H  7989  7998       L1    15  1.00
      L1  C    10    25       P1 10186  0.60

> <Gold.PLP.Chemscore.Internal.Correction>
0.0163

> <Gold.Rescore>
     Score         DG    S(hbond)    S(metal)    S(lipo)     H(rot)  DE(clash)    DE(int)     intcor
     14.22     -19.33       2.74        0.00      69.19       1.33       2.71       2.40       ----

> <Gold.Chemscore.Fitness>
14.2160

> <Gold.Chemscore.DG>
-19.3256

> <Gold.Chemscore.ZeroCoef>
-5.4800

> <Gold.Chemscore.Hbond>
2.7427

> <Gold.Chemscore.Metal>
0.0000

> <Gold.Chemscore.Lipo>
69.1895

> <Gold.Chemscore.Internal_Hbond>
0.0000

> <Gold.Chemscore.DEClash>
2.7126

> <Gold.Chemscore.DEInternal>
2.3970

> <Gold.Chemscore.Rot>
1.3321

> <Gold.Chemscore.Internal.Correction>
   9.000000E+99

> <Gold.Chemscore.Hbonds>
donor molecule, donor type, donor heavy atom, donor atom, acceptor molecule, acceptor atom, score
      L1  H     3    22       P1  7948  0.10
      L1  H     6    35       P1  7948  0.54
      P1  H  7989  7998       L1    15  0.26

> <Gold.Chemscore.Hbond.Weighted>
-9.1607

> <Gold.Chemscore.Metal.Weighted>
-0.0000

> <Gold.Chemscore.Lipo.Weighted>
-8.0952

> <Gold.Chemscore.Internal_Hbond.Weighted>
0.0000

> <Gold.Chemscore.DEClash.Weighted>
2.7126

> <Gold.Chemscore.DEInternal.Weighted>
2.3970

> <Gold.Chemscore.Rot.Weighted>
3.4103

> <Gold.Chemscore.Internal.Correction.Weighted>
   9.000000E+99

> <Gold.Protein.RotatedTorsions>
[ 6907 6896 6895 6894 ] final   41.28 input  -60.11 | X-H torsion
[ 7974 7965 7964 7962 ] final  -43.65 input  175.53 | X-H torsion
[ 8008 7997 7996 7995 ] final -151.85 input   59.86 | X-H torsion
[ 10167 10162 10161 10158 ] final  -34.37 input  -65.29 | X-H torsion
[ 10718 10713 10712 10709 ] final -130.31 input   66.30 | X-H torsion
[ 10763 10752 10751 10750 ] final  102.11 input  -60.55 | X-H torsion
[ 11005 11000 10999 10996 ] final -119.05 input  -57.11 | X-H torsion

> <Gold.Protein.ActiveResidues>
 VAL166  LYS551  ARG553  GLY616  TRP617  ASP618  TYR619  PRO620  LYS621  CYS622 
 ASP623  PHE694  ASN695  SER759  ASP760  ASP761  ALA762  ILE779  LEU786  VAL792 
 PHE793  MET794  SER795  GLU796  ALA797  LYS798  CYS799  TRP800  GLU811  SER814 

> <Gold.Protein.RotatedAtoms>
  152.1933  134.8653  160.0515 H   0  0  0  0  0  0  0  0  0  0  0  0  # atno 6907 bound_to 6896
  151.9534  133.3668  159.4016 H   0  0  0  0  0  0  0  0  0  0  0  0  # atno 6908 bound_to 6896
  150.6939  134.4240  159.5262 H   0  0  0  0  0  0  0  0  0  0  0  0  # atno 6909 bound_to 6896
  145.9998  140.7087  142.9276 H   0  0  0  0  0  0  0  0  0  0  0  0  # atno 7974 bound_to 7965
  155.6459  140.0706  157.2603 H   0  0  0  0  0  0  0  0  0  0  0  0  # atno 8008 bound_to 7997
  154.4173  140.1742  156.1672 H   0  0  0  0  0  0  0  0  0  0  0  0  # atno 8009 bound_to 7997
  155.9817  140.3353  155.6672 H   0  0  0  0  0  0  0  0  0  0  0  0  # atno 8010 bound_to 7997
  140.7187  143.3553  151.2072 H   0  0  0  0  0  0  0  0  0  0  0  0  # atno 10167 bound_to 10162
  156.2131  130.6931  151.0672 H   0  0  0  0  0  0  0  0  0  0  0  0  # atno 10718 bound_to 10713
  153.3353  135.4022  155.1528 H   0  0  0  0  0  0  0  0  0  0  0  0  # atno 10763 bound_to 10752
  154.8632  135.3620  154.5416 H   0  0  0  0  0  0  0  0  0  0  0  0  # atno 10764 bound_to 10752
  153.5858  135.7075  153.5503 H   0  0  0  0  0  0  0  0  0  0  0  0  # atno 10765 bound_to 10752
  141.0243  134.0077  157.3237 H   0  0  0  0  0  0  0  0  0  0  0  0  # atno 11005 bound_to 11000
  144.6915  140.3213  143.7232 LP  0  0  0  0  0  0  0  0  0  0  0  0  # atno 17320 bound_to 7965
  145.7505  139.1792  143.2324 LP  0  0  0  0  0  0  0  0  0  0  0  0  # atno 17321 bound_to 7965
  139.7093  143.9403  152.2940 LP  0  0  0  0  0  0  0  0  0  0  0  0  # atno 17342 bound_to 10162
  139.9123  144.6849  150.8549 LP  0  0  0  0  0  0  0  0  0  0  0  0  # atno 17343 bound_to 10162
  157.7049  131.0760  150.6699 LP  0  0  0  0  0  0  0  0  0  0  0  0  # atno 17370 bound_to 10713
  156.6760  130.4553  149.5642 LP  0  0  0  0  0  0  0  0  0  0  0  0  # atno 17371 bound_to 10713
  139.9166  135.0197  156.7903 LP  0  0  0  0  0  0  0  0  0  0  0  0  # atno 17394 bound_to 11000
  140.6519  133.9724  155.7759 LP  0  0  0  0  0  0  0  0  0  0  0  0  # atno 17395 bound_to 11000

$$$$
