AV-unprocessed.smi:2935|AV-procd|sdf|11256|dock10
  -GOLD-   2272016153D 1   1.00000     0.00000
 Structure written by MMmdl.
 36 37  0  0  0  0  0  0  0  0  1 V2000
  152.5039  144.6886  157.5885 C   0  0  0  0  0  0  0  0  0  0  0  0
  151.6756  143.7346  158.4754 C   0  0  0  0  0  0  0  0  0  0  0  0
  151.3985  142.4376  157.6814 C   0  0  0  0  0  0  0  0  0  0  0  0
  151.8222  141.3645  158.1142 O   0  0  0  0  0  0  0  0  0  0  0  0
  150.6731  142.5538  156.5519 N   0  0  0  0  0  0  0  0  0  0  0  0
  150.2921  141.5265  155.6518 C   0  0  0  0  0  0  0  0  0  0  0  0
  149.1511  141.6805  154.8173 C   0  0  0  0  0  0  0  0  0  0  0  0
  149.1150  140.5096  154.1147 C   0  0  0  0  0  0  0  0  0  0  0  0
  150.1825  139.7403  154.5342 N   0  0  0  0  0  0  0  0  0  0  0  0
  150.5668  138.4126  154.0892 C   0  0  0  0  0  0  0  0  0  0  0  0
  151.8681  137.9599  154.7537 C   0  0  0  0  0  0  0  0  0  0  0  0
  152.9132  138.7880  154.6753 N   0  0  0  0  0  0  0  0  0  0  0  0
  151.9297  136.8749  155.3273 O   0  0  0  0  0  0  0  0  0  0  0  0
  150.9121  140.3668  155.4832 N   0  0  0  0  0  0  0  0  0  0  0  0
  152.3706  143.4853  159.8324 C   0  0  0  0  0  0  0  0  0  0  0  0
  152.0045  144.6799  160.7156 C   0  0  0  0  0  0  0  0  0  0  0  0
  150.6520  145.1845  160.2026 C   0  0  0  0  0  0  0  0  0  0  0  0
  150.3568  144.4119  158.9092 C   0  0  0  0  0  0  0  0  0  0  0  0
  152.6884  145.6418  158.0843 H   0  0  0  0  0  0  0  0  0  0  0  0
  151.9927  144.9076  156.6501 H   0  0  0  0  0  0  0  0  0  0  0  0
  153.4747  144.2575  157.3408 H   0  0  0  0  0  0  0  0  0  0  0  0
  150.3636  143.4839  156.3112 H   0  0  0  0  0  0  0  0  0  0  0  0
  148.4673  142.5133  154.7456 H   0  0  0  0  0  0  0  0  0  0  0  0
  148.4254  140.1607  153.3600 H   0  0  0  0  0  0  0  0  0  0  0  0
  149.7623  137.7170  154.3314 H   0  0  0  0  0  0  0  0  0  0  0  0
  150.6792  138.4075  153.0037 H   0  0  0  0  0  0  0  0  0  0  0  0
  153.7947  138.5250  155.0922 H   0  0  0  0  0  0  0  0  0  0  0  0
  152.8206  139.6694  154.1918 H   0  0  0  0  0  0  0  0  0  0  0  0
  151.9853  142.5796  160.3046 H   0  0  0  0  0  0  0  0  0  0  0  0
  153.4512  143.3690  159.7396 H   0  0  0  0  0  0  0  0  0  0  0  0
  151.9713  144.4106  161.7716 H   0  0  0  0  0  0  0  0  0  0  0  0
  152.7534  145.4648  160.6041 H   0  0  0  0  0  0  0  0  0  0  0  0
  149.8624  145.0218  160.9369 H   0  0  0  0  0  0  0  0  0  0  0  0
  150.7003  146.2569  160.0105 H   0  0  0  0  0  0  0  0  0  0  0  0
  149.9507  145.0661  158.1364 H   0  0  0  0  0  0  0  0  0  0  0  0
  149.5909  143.6634  159.1212 H   0  0  0  0  0  0  0  0  0  0  0  0
  1  2  1  0  0  0  0
  1 19  1  0  0  0  0
  1 20  1  0  0  0  0
  1 21  1  0  0  0  0
  2 18  1  0  0  0  0
  2  3  1  0  0  0  0
  2 15  1  0  0  0  0
  3  4  2  0  0  0  0
  3  5  1  0  0  0  0
  5  6  1  0  0  0  0
  5 22  1  0  0  0  0
  6 14  2  0  0  0  0
  6  7  1  0  0  0  0
  7  8  2  0  0  0  0
  7 23  1  0  0  0  0
  8  9  1  0  0  0  0
  8 24  1  0  0  0  0
  9 10  1  0  0  0  0
  9 14  1  0  0  0  0
 10 11  1  0  0  0  0
 10 25  1  0  0  0  0
 10 26  1  0  0  0  0
 11 12  1  0  0  0  0
 11 13  2  0  0  0  0
 12 27  1  0  0  0  0
 12 28  1  0  0  0  0
 15 16  1  0  0  0  0
 15 29  1  0  0  0  0
 15 30  1  0  0  0  0
 16 17  1  0  0  0  0
 16 31  1  0  0  0  0
 16 32  1  0  0  0  0
 17 18  1  0  0  0  0
 17 33  1  0  0  0  0
 17 34  1  0  0  0  0
 18 35  1  0  0  0  0
 18 36  1  0  0  0  0
M  END
> <s_m_source_file>
AV-unprocessed.smi

> <i_m_source_file_index>
2935

> <i_lp_mmshare_version>
43012

> <i_f3d_flags>
0

> <s_epik_input>
W0NIMl0xW0NIMl1bQ0gyXVtDSDJdQzEoW0NIM10pQyg9TylbTkhdYzJbY0hdW2NIXW4objIpW0NIMl1DKD1PKVtOSDJd

> <s_epik_cmdline>
J2VwaWtfcHl0aG9uJywgJy1waCcsICc3LjAnLCAnLXRuJywgJzgnLCAnLW1hJywgJzIwMCcsICctbWV0YWxfYmluZGluZycsICctaW1hZScsICc8aW5maWxlLm1hZT4nLCAnLW9tYWUnLCAnPG91dGZpbGUubWFlPic=

> <r_lp_tautomer_probability>
1

> <r_epik_Ionization_Penalty>
1.6611e-05

> <r_epik_Ionization_Penalty_Charging>
0

> <r_epik_Ionization_Penalty_Neutral>
1.6611e-05

> <r_epik_State_Penalty>
-0

> <r_epik_Charging_Adjusted_Penalty>
0

> <i_epik_Tot_Q>
0

> <i_epik_Tot_abs_Q>
0

> <r_epik_Metal_State_Penalty>
-0

> <b_epik_Metal_Only>
0

> <s_lp_Force_Field>
OPLS_2005

> <r_lp_Energy>
27.108

> <b_lp_Chiralities_Consistent>
1

> <s_lp_Variant>
AV-unprocessed.smi:2935-1

> <Gold.Version>
5.8.1

> <Gold.Id.Protein>
6NUR|6NUR_protein|mol2

> <Gold.PLP.Fitness>
49.3100

> <Gold.PLP.PLP>
-41.9658

> <Gold.PLP.part.hbond>
-2.7831

> <Gold.PLP.part.metal>
0.0000

> <Gold.PLP.part.buried>
-3.3638

> <Gold.PLP.part.nonpolar>
-35.9524

> <Gold.PLP.part.repulsive>
0.4120

> <Gold.PLP.ligand.clash>
0.0000

> <Gold.PLP.ligand.torsion>
0.2371

> <Gold.PLP.Chemscore.Hbond>
1.9920

> <Gold.PLP.Chemscore.CHOScore>
0.5980

> <Gold.PLP.Chemscore.Metal>
0.0000

> <Gold.Chemscore.Hbonds>
donor molecule, donor type, donor heavy atom, donor atom, acceptor molecule, acceptor atom, score
      L1  H     5    22       P1  8028  1.00
      P1  H 10752 10765       L1    13  1.00
      L1  C     8    24       P1  7957  0.59

> <Gold.PLP.Chemscore.Internal.Correction>
0.0484

> <Gold.Rescore>
     Score         DG    S(hbond)    S(metal)    S(lipo)     H(rot)  DE(clash)    DE(int)     intcor
     14.55     -17.87       1.98        0.00      91.33       1.91       0.23       3.09       ----

> <Gold.Chemscore.Fitness>
14.5520

> <Gold.Chemscore.DG>
-17.8707

> <Gold.Chemscore.ZeroCoef>
-5.4800

> <Gold.Chemscore.Hbond>
1.9752

> <Gold.Chemscore.Metal>
0.0000

> <Gold.Chemscore.Lipo>
91.3274

> <Gold.Chemscore.Internal_Hbond>
0.0000

> <Gold.Chemscore.DEClash>
0.2303

> <Gold.Chemscore.DEInternal>
3.0885

> <Gold.Chemscore.Rot>
1.9108

> <Gold.Chemscore.Internal.Correction>
   9.000000E+99

> <Gold.Chemscore.Hbonds>
donor molecule, donor type, donor heavy atom, donor atom, acceptor molecule, acceptor atom, score
      L1  H     5    22       P1  8028  0.88
      P1  H 10752 10765       L1    13  0.95

> <Gold.Chemscore.Hbond.Weighted>
-6.5971

> <Gold.Chemscore.Metal.Weighted>
-0.0000

> <Gold.Chemscore.Lipo.Weighted>
-10.6853

> <Gold.Chemscore.Internal_Hbond.Weighted>
0.0000

> <Gold.Chemscore.DEClash.Weighted>
0.2303

> <Gold.Chemscore.DEInternal.Weighted>
3.0885

> <Gold.Chemscore.Rot.Weighted>
4.8916

> <Gold.Chemscore.Internal.Correction.Weighted>
   9.000000E+99

> <Gold.Protein.RotatedTorsions>
[ 6907 6896 6895 6894 ] final  175.62 input  -60.11 | X-H torsion
[ 7974 7965 7964 7962 ] final  -21.24 input  175.53 | X-H torsion
[ 8008 7997 7996 7995 ] final -108.56 input   59.86 | X-H torsion
[ 10167 10162 10161 10158 ] final   48.75 input  -65.29 | X-H torsion
[ 10718 10713 10712 10709 ] final  -23.41 input   66.30 | X-H torsion
[ 10763 10752 10751 10750 ] final -174.59 input  -60.55 | X-H torsion
[ 11005 11000 10999 10996 ] final   77.46 input  -57.11 | X-H torsion

> <Gold.Protein.ActiveResidues>
 VAL166  LYS551  ARG553  GLY616  TRP617  ASP618  TYR619  PRO620  LYS621  CYS622 
 ASP623  PHE694  ASN695  SER759  ASP760  ASP761  ALA762  ILE779  LEU786  VAL792 
 PHE793  MET794  SER795  GLU796  ALA797  LYS798  CYS799  TRP800  GLU811  SER814 

> <Gold.Protein.RotatedAtoms>
  151.7333  133.3318  159.3345 H   0  0  0  0  0  0  0  0  0  0  0  0  # atno 6907 bound_to 6896
  150.7603  134.6343  159.6212 H   0  0  0  0  0  0  0  0  0  0  0  0  # atno 6908 bound_to 6896
  152.3577  134.6918  160.0268 H   0  0  0  0  0  0  0  0  0  0  0  0  # atno 6909 bound_to 6896
  146.1744  140.4313  142.8519 H   0  0  0  0  0  0  0  0  0  0  0  0  # atno 7974 bound_to 7965
  154.9462  140.0402  157.2121 H   0  0  0  0  0  0  0  0  0  0  0  0  # atno 8008 bound_to 7997
  154.8022  140.2854  155.5891 H   0  0  0  0  0  0  0  0  0  0  0  0  # atno 8009 bound_to 7997
  156.2962  140.2553  156.2893 H   0  0  0  0  0  0  0  0  0  0  0  0  # atno 8010 bound_to 7997
  140.2901  144.3056  150.6243 H   0  0  0  0  0  0  0  0  0  0  0  0  # atno 10167 bound_to 10162
  156.4915  130.4567  149.6753 H   0  0  0  0  0  0  0  0  0  0  0  0  # atno 10718 bound_to 10713
  154.5945  135.2848  155.0601 H   0  0  0  0  0  0  0  0  0  0  0  0  # atno 10763 bound_to 10752
  154.1889  135.6444  153.5058 H   0  0  0  0  0  0  0  0  0  0  0  0  # atno 10764 bound_to 10752
  153.0133  135.5441  154.6642 H   0  0  0  0  0  0  0  0  0  0  0  0  # atno 10765 bound_to 10752
  139.9253  134.7685  156.1525 H   0  0  0  0  0  0  0  0  0  0  0  0  # atno 11005 bound_to 11000
  144.8213  140.6554  143.6351 LP  0  0  0  0  0  0  0  0  0  0  0  0  # atno 17320 bound_to 7965
  145.4252  139.1557  143.4052 LP  0  0  0  0  0  0  0  0  0  0  0  0  # atno 17321 bound_to 7965
  140.5740  143.2178  151.7549 LP  0  0  0  0  0  0  0  0  0  0  0  0  # atno 17342 bound_to 10162
  139.4940  144.4176  152.0012 LP  0  0  0  0  0  0  0  0  0  0  0  0  # atno 17343 bound_to 10162
  156.3422  130.7388  151.2335 LP  0  0  0  0  0  0  0  0  0  0  0  0  # atno 17370 bound_to 10713
  157.7473  131.0400  150.4579 LP  0  0  0  0  0  0  0  0  0  0  0  0  # atno 17371 bound_to 10713
  141.0807  133.6756  156.2329 LP  0  0  0  0  0  0  0  0  0  0  0  0  # atno 17394 bound_to 11000
  140.6353  134.5222  157.5564 LP  0  0  0  0  0  0  0  0  0  0  0  0  # atno 17395 bound_to 11000

$$$$
