AV-unprocessed.smi:2276|AV-procd|sdf|9177|dock4
  -GOLD-   2272012393D 1   1.00000     0.00000
 Structure written by MMmdl.
 52 53  0  0  0  0  0  0  0  0  1 V2000
  151.9188  145.7931  160.2371 C   0  0  0  0  0  0  0  0  0  0  0  0
  151.9169  144.4230  159.5919 C   0  0  0  0  0  0  0  0  0  0  0  0
  152.7206  143.3840  160.0987 C   0  0  0  0  0  0  0  0  0  0  0  0
  152.6724  142.1321  159.4545 C   0  0  0  0  0  0  0  0  0  0  0  0
  153.5139  140.9714  159.9421 C   0  0  0  0  0  0  0  0  0  0  0  0
  151.8916  141.8853  158.3811 N   0  0  0  0  0  0  0  0  0  0  0  0
  151.1123  142.8782  157.8851 C   0  0  0  0  0  0  0  0  0  0  0  0
  150.2613  142.7228  156.7589 N   0  0  0  0  0  0  0  0  0  0  0  0
  150.1643  141.6682  155.9303 C   0  0  0  0  0  0  0  0  0  0  0  0
  150.8036  140.6205  156.0308 O   0  0  0  0  0  0  0  0  0  0  0  0
  149.2591  141.8901  154.9677 N   0  0  0  0  0  0  0  0  0  0  0  0
  148.8918  140.9249  153.9378 C   0  0  0  0  0  0  0  0  0  0  0  0
  147.3825  140.6010  153.9624 C   0  0  1  0  0  0  0  0  0  0  0  0
  147.1334  139.0856  154.0914 C   0  0  0  0  0  0  0  0  0  0  0  0
  146.6007  141.3421  155.0736 C   0  0  0  0  0  0  0  0  0  0  0  0
  145.6283  142.3383  154.6146 N   0  0  0  0  0  0  0  0  0  0  0  0
  146.2502  143.3896  153.7994 C   0  0  0  0  0  0  0  0  0  0  0  0
  145.2090  144.4104  153.3044 C   0  0  0  0  0  0  0  0  0  0  0  0
  144.5216  145.0517  154.4230 N   0  0  0  0  0  0  0  0  0  0  0  0
  143.5348  146.0165  153.9624 C   0  0  0  0  0  0  0  0  0  0  0  0
  143.9146  144.0199  155.2610 C   0  0  0  0  0  0  0  0  0  0  0  0
  144.9622  142.9970  155.7412 C   0  0  0  0  0  0  0  0  0  0  0  0
  151.1049  144.1650  158.4691 C   0  0  0  0  0  0  0  0  0  0  0  0
  152.6455  145.8482  161.0483 H   0  0  0  0  0  0  0  0  0  0  0  0
  150.9335  146.0187  160.6457 H   0  0  0  0  0  0  0  0  0  0  0  0
  152.1705  146.5577  159.5019 H   0  0  0  0  0  0  0  0  0  0  0  0
  153.3571  143.5421  160.9572 H   0  0  0  0  0  0  0  0  0  0  0  0
  154.1465  141.2651  160.7802 H   0  0  0  0  0  0  0  0  0  0  0  0
  154.1583  140.6073  159.1413 H   0  0  0  0  0  0  0  0  0  0  0  0
  152.8744  140.1508  160.2684 H   0  0  0  0  0  0  0  0  0  0  0  0
  149.6490  143.5018  156.5673 H   0  0  0  0  0  0  0  0  0  0  0  0
  148.7791  142.7780  154.9540 H   0  0  0  0  0  0  0  0  0  0  0  0
  149.1809  141.2951  152.9526 H   0  0  0  0  0  0  0  0  0  0  0  0
  149.4730  140.0258  154.1369 H   0  0  0  0  0  0  0  0  0  0  0  0
  146.9612  140.9137  153.0057 H   0  0  0  0  0  0  0  0  0  0  0  0
  147.5598  138.6944  155.0157 H   0  0  0  0  0  0  0  0  0  0  0  0
  147.5684  138.5276  153.2623 H   0  0  0  0  0  0  0  0  0  0  0  0
  146.0666  138.8603  154.0982 H   0  0  0  0  0  0  0  0  0  0  0  0
  146.0671  140.5727  155.6338 H   0  0  0  0  0  0  0  0  0  0  0  0
  147.2891  141.7861  155.7942 H   0  0  0  0  0  0  0  0  0  0  0  0
  147.0142  143.9080  154.3812 H   0  0  0  0  0  0  0  0  0  0  0  0
  146.7643  142.9680  152.9396 H   0  0  0  0  0  0  0  0  0  0  0  0
  145.7057  145.1672  152.6959 H   0  0  0  0  0  0  0  0  0  0  0  0
  144.4869  143.9119  152.6555 H   0  0  0  0  0  0  0  0  0  0  0  0
  143.0488  146.5052  154.8075 H   0  0  0  0  0  0  0  0  0  0  0  0
  142.7642  145.5350  153.3588 H   0  0  0  0  0  0  0  0  0  0  0  0
  144.0063  146.7911  153.3567 H   0  0  0  0  0  0  0  0  0  0  0  0
  143.4372  144.4819  156.1258 H   0  0  0  0  0  0  0  0  0  0  0  0
  143.1277  143.5040  154.7083 H   0  0  0  0  0  0  0  0  0  0  0  0
  144.4656  142.2515  156.3631 H   0  0  0  0  0  0  0  0  0  0  0  0
  145.6991  143.4926  156.3759 H   0  0  0  0  0  0  0  0  0  0  0  0
  150.4802  144.9480  158.0634 H   0  0  0  0  0  0  0  0  0  0  0  0
  1  2  1  0  0  0  0
  1 24  1  0  0  0  0
  1 25  1  0  0  0  0
  1 26  1  0  0  0  0
  2 23  1  0  0  0  0
  2  3  2  0  0  0  0
  3  4  1  0  0  0  0
  3 27  1  0  0  0  0
  4  5  1  0  0  0  0
  4  6  2  0  0  0  0
  5 28  1  0  0  0  0
  5 29  1  0  0  0  0
  5 30  1  0  0  0  0
  6  7  1  0  0  0  0
  7  8  1  0  0  0  0
  7 23  2  0  0  0  0
  8  9  1  0  0  0  0
  8 31  1  0  0  0  0
  9 10  2  0  0  0  0
  9 11  1  0  0  0  0
 11 12  1  0  0  0  0
 11 32  1  0  0  0  0
 12 13  1  0  0  0  0
 12 33  1  0  0  0  0
 12 34  1  0  0  0  0
 13 14  1  0  0  0  0
 13 15  1  0  0  0  0
 13 35  1  0  0  0  0
 14 36  1  0  0  0  0
 14 37  1  0  0  0  0
 14 38  1  0  0  0  0
 15 16  1  0  0  0  0
 15 39  1  0  0  0  0
 15 40  1  0  0  0  0
 16 22  1  0  0  0  0
 16 17  1  0  0  0  0
 17 18  1  0  0  0  0
 17 41  1  0  0  0  0
 17 42  1  0  0  0  0
 18 19  1  0  0  0  0
 18 43  1  0  0  0  0
 18 44  1  0  0  0  0
 19 20  1  0  0  0  0
 19 21  1  0  0  0  0
 20 45  1  0  0  0  0
 20 46  1  0  0  0  0
 20 47  1  0  0  0  0
 21 22  1  0  0  0  0
 21 48  1  0  0  0  0
 21 49  1  0  0  0  0
 22 50  1  0  0  0  0
 22 51  1  0  0  0  0
 23 52  1  0  0  0  0
M  END
> <s_m_source_file>
AV-unprocessed.smi

> <i_m_source_file_index>
2276

> <i_lp_mmshare_version>
43012

> <i_f3d_flags>
0

> <s_epik_input>
W0NIM11jMVtjSF1jKFtDSDNdKW5jKFtjSF0xKVtOSF1DKD1PKVtOSF1bQ0gyXVtDQEhdKFtDSDNdKVtDSDJdTjJbQ0gyXVtDSDJdTihbQ0gzXSlbQ0gyXVtDSDJdMg==

> <s_epik_cmdline>
J2VwaWtfcHl0aG9uJywgJy1waCcsICc3LjAnLCAnLXRuJywgJzgnLCAnLW1hJywgJzIwMCcsICctbWV0YWxfYmluZGluZycsICctaW1hZScsICc8aW5maWxlLm1hZT4nLCAnLW9tYWUnLCAnPG91dGZpbGUubWFlPic=

> <r_epik_Ionization_Penalty>
3.46991

> <r_epik_Ionization_Penalty_Charging>
0

> <r_epik_Ionization_Penalty_Neutral>
3.46991

> <r_epik_State_Penalty>
2.28006

> <r_epik_Charging_Adjusted_Penalty>
2.28006

> <i_epik_Tot_Q>
0

> <i_epik_Tot_abs_Q>
0

> <r_epik_Metal_State_Penalty>
2.28005

> <b_epik_Metal_Only>
0

> <s_lp_Force_Field>
OPLS_2005

> <r_lp_Energy>
40.6997

> <b_lp_Chiralities_Consistent>
1

> <s_lp_Variant>
AV-unprocessed.smi:2276-6

> <Gold.Version>
5.8.1

> <Gold.Id.Protein>
6NUR|6NUR_protein|mol2

> <Gold.PLP.Fitness>
50.1698

> <Gold.PLP.PLP>
-48.8425

> <Gold.PLP.part.hbond>
-2.0000

> <Gold.PLP.part.metal>
0.0000

> <Gold.PLP.part.buried>
-4.1483

> <Gold.PLP.part.nonpolar>
-43.4153

> <Gold.PLP.part.repulsive>
0.5866

> <Gold.PLP.ligand.clash>
1.2126

> <Gold.PLP.ligand.torsion>
1.4947

> <Gold.PLP.Chemscore.Hbond>
1.8320

> <Gold.PLP.Chemscore.CHOScore>
0.0000

> <Gold.PLP.Chemscore.Metal>
0.0000

> <Gold.Chemscore.Hbonds>
donor molecule, donor type, donor heavy atom, donor atom, acceptor molecule, acceptor atom, score
      L1  H     8    31       P1  8028  1.00
      L1  H    11    32       P1  8028  0.83

> <Gold.PLP.Chemscore.Internal.Correction>
0.0333

> <Gold.Rescore>
     Score         DG    S(hbond)    S(metal)    S(lipo)     H(rot)  DE(clash)    DE(int)     intcor
     18.81     -21.89       1.86        0.00     121.64       1.57       0.29       2.79       ----

> <Gold.Chemscore.Fitness>
18.8133

> <Gold.Chemscore.DG>
-21.8877

> <Gold.Chemscore.ZeroCoef>
-5.4800

> <Gold.Chemscore.Hbond>
1.8561

> <Gold.Chemscore.Metal>
0.0000

> <Gold.Chemscore.Lipo>
121.6367

> <Gold.Chemscore.Internal_Hbond>
0.0000

> <Gold.Chemscore.DEClash>
0.2877

> <Gold.Chemscore.DEInternal>
2.7867

> <Gold.Chemscore.Rot>
1.5715

> <Gold.Chemscore.Internal.Correction>
   9.000000E+99

> <Gold.Chemscore.Hbonds>
donor molecule, donor type, donor heavy atom, donor atom, acceptor molecule, acceptor atom, score
      L1  H     8    31       P1  8028  0.99
      L1  H    11    32       P1  8028  0.78

> <Gold.Chemscore.Hbond.Weighted>
-6.1994

> <Gold.Chemscore.Metal.Weighted>
-0.0000

> <Gold.Chemscore.Lipo.Weighted>
-14.2315

> <Gold.Chemscore.Internal_Hbond.Weighted>
0.0000

> <Gold.Chemscore.DEClash.Weighted>
0.2877

> <Gold.Chemscore.DEInternal.Weighted>
2.7867

> <Gold.Chemscore.Rot.Weighted>
4.0231

> <Gold.Chemscore.Internal.Correction.Weighted>
   9.000000E+99

> <Gold.Protein.RotatedTorsions>
[ 6907 6896 6895 6894 ] final   67.41 input  -60.11 | X-H torsion
[ 7974 7965 7964 7962 ] final -101.77 input  175.53 | X-H torsion
[ 8008 7997 7996 7995 ] final   71.06 input   59.86 | X-H torsion
[ 10167 10162 10161 10158 ] final  -33.26 input  -65.29 | X-H torsion
[ 10718 10713 10712 10709 ] final   45.36 input   66.30 | X-H torsion
[ 10763 10752 10751 10750 ] final  -74.37 input  -60.55 | X-H torsion
[ 11005 11000 10999 10996 ] final  110.51 input  -57.11 | X-H torsion

> <Gold.Protein.ActiveResidues>
 VAL166  LYS551  ARG553  GLY616  TRP617  ASP618  TYR619  PRO620  LYS621  CYS622 
 ASP623  PHE694  ASN695  SER759  ASP760  ASP761  ALA762  ILE779  LEU786  VAL792 
 PHE793  MET794  SER795  GLU796  ALA797  LYS798  CYS799  TRP800  GLU811  SER814 

> <Gold.Protein.RotatedAtoms>
  152.4550  134.5312  159.9811 H   0  0  0  0  0  0  0  0  0  0  0  0  # atno 6907 bound_to 6896
  151.5375  133.3432  159.2937 H   0  0  0  0  0  0  0  0  0  0  0  0  # atno 6908 bound_to 6896
  150.8491  134.7840  159.7057 H   0  0  0  0  0  0  0  0  0  0  0  0  # atno 6909 bound_to 6896
  145.2773  140.9316  143.2952 H   0  0  0  0  0  0  0  0  0  0  0  0  # atno 7974 bound_to 7965
  155.7482  140.3489  155.5137 H   0  0  0  0  0  0  0  0  0  0  0  0  # atno 8008 bound_to 7997
  155.9029  140.1037  157.1357 H   0  0  0  0  0  0  0  0  0  0  0  0  # atno 8009 bound_to 7997
  154.4046  140.1282  156.4446 H   0  0  0  0  0  0  0  0  0  0  0  0  # atno 8010 bound_to 7997
  140.7207  143.3634  151.1919 H   0  0  0  0  0  0  0  0  0  0  0  0  # atno 10167 bound_to 10162
  157.4367  130.8057  149.7654 H   0  0  0  0  0  0  0  0  0  0  0  0  # atno 10718 bound_to 10713
  154.4722  135.5866  153.6329 H   0  0  0  0  0  0  0  0  0  0  0  0  # atno 10763 bound_to 10752
  152.9836  135.6069  154.3352 H   0  0  0  0  0  0  0  0  0  0  0  0  # atno 10764 bound_to 10752
  154.3235  135.2843  155.2487 H   0  0  0  0  0  0  0  0  0  0  0  0  # atno 10765 bound_to 10752
  139.8883  134.9485  156.6289 H   0  0  0  0  0  0  0  0  0  0  0  0  # atno 11005 bound_to 11000
  144.9283  139.4329  143.6507 LP  0  0  0  0  0  0  0  0  0  0  0  0  # atno 17320 bound_to 7965
  146.3227  139.8181  142.8932 LP  0  0  0  0  0  0  0  0  0  0  0  0  # atno 17321 bound_to 7965
  139.7190  143.9253  152.2978 LP  0  0  0  0  0  0  0  0  0  0  0  0  # atno 17342 bound_to 10162
  139.9004  144.6915  150.8671 LP  0  0  0  0  0  0  0  0  0  0  0  0  # atno 17343 bound_to 10162
  155.9933  130.3925  150.2906 LP  0  0  0  0  0  0  0  0  0  0  0  0  # atno 17370 bound_to 10713
  157.1067  131.0210  151.3064 LP  0  0  0  0  0  0  0  0  0  0  0  0  # atno 17371 bound_to 10713
  140.7681  133.8761  155.8470 LP  0  0  0  0  0  0  0  0  0  0  0  0  # atno 17394 bound_to 11000
  140.9865  134.1336  157.4447 LP  0  0  0  0  0  0  0  0  0  0  0  0  # atno 17395 bound_to 11000

$$$$
