AV-unprocessed.smi:1978|AV-procd|sdf|8005|dock6
  -GOLD-   2272010193D 1   1.00000     0.00000
 Structure written by MMmdl.
 44 45  0  0  0  0  0  0  0  0  3 V2000
  153.3605  141.0066  160.3446 C   0  0  0  0  0  0  0  0  0  0  0  0
  152.5360  140.6520  159.1545 C   0  0  0  0  0  0  0  0  0  0  0  0
  151.5162  141.2918  158.5090 C   0  0  0  0  0  0  0  0  0  0  0  0
  151.1824  140.3932  157.4590 C   0  0  0  0  0  0  0  0  0  0  0  0
  150.2326  140.5823  156.5302 N   0  5  0  0  0  0  0  0  0  0  0  0
  150.1429  139.7495  155.4683 C   0  0  0  0  0  0  0  0  0  0  0  0
  151.0820  139.2615  154.8357 O   0  0  0  0  0  0  0  0  0  0  0  0
  148.8834  139.4627  155.1168 N   0  0  0  0  0  0  0  0  0  0  0  0
  148.4970  138.5965  154.0110 C   0  0  0  0  0  0  0  0  0  0  0  0
  147.3254  137.6690  154.4074 C   0  0  1  0  0  0  0  0  0  0  0  0
  146.1466  138.4391  155.0388 C   0  0  0  0  0  0  0  0  0  0  0  0
  146.8690  136.7895  153.2826 N   0  3  1  0  0  0  0  0  0  0  0  0
  146.2915  135.4877  153.7300 C   0  0  0  0  0  0  0  0  0  0  0  0
  146.1021  134.5233  152.5499 C   0  0  0  0  0  0  0  0  0  0  0  0
  145.2068  135.1509  151.4794 C   0  0  0  0  0  0  0  0  0  0  0  0
  145.7894  136.5008  151.0486 C   0  0  0  0  0  0  0  0  0  0  0  0
  145.9984  137.4471  152.2512 C   0  0  2  0  0  0  0  0  0  0  0  0
  146.5498  138.7938  151.7403 C   0  0  0  0  0  0  0  0  0  0  0  0
  151.9445  139.3125  157.4566 N   0  0  0  0  0  0  0  0  0  0  0  0
  152.8111  139.4674  158.5452 O   0  0  0  0  0  0  0  0  0  0  0  0
  154.0021  141.8604  160.1275 H   0  0  0  0  0  0  0  0  0  0  0  0
  153.9965  140.1736  160.6455 H   0  0  0  0  0  0  0  0  0  0  0  0
  152.7240  141.2671  161.1904 H   0  0  0  0  0  0  0  0  0  0  0  0
  151.0761  142.2476  158.7504 H   0  0  0  0  0  0  0  0  0  0  0  0
  148.1418  139.8828  155.6580 H   0  0  0  0  0  0  0  0  0  0  0  0
  148.2227  139.2229  153.1615 H   0  0  0  0  0  0  0  0  0  0  0  0
  149.3687  138.0131  153.7134 H   0  0  0  0  0  0  0  0  0  0  0  0
  147.6721  137.0239  155.2124 H   0  0  0  0  0  0  0  0  0  0  0  0
  146.4285  138.8685  156.0006 H   0  0  0  0  0  0  0  0  0  0  0  0
  145.2969  137.7805  155.2206 H   0  0  0  0  0  0  0  0  0  0  0  0
  145.8087  139.2643  154.4124 H   0  0  0  0  0  0  0  0  0  0  0  0
  146.9370  135.0015  154.4591 H   0  0  0  0  0  0  0  0  0  0  0  0
  145.3320  135.6549  154.2210 H   0  0  0  0  0  0  0  0  0  0  0  0
  147.0724  134.2708  152.1198 H   0  0  0  0  0  0  0  0  0  0  0  0
  145.6642  133.5876  152.8990 H   0  0  0  0  0  0  0  0  0  0  0  0
  145.1195  134.4846  150.6206 H   0  0  0  0  0  0  0  0  0  0  0  0
  144.1989  135.2901  151.8728 H   0  0  0  0  0  0  0  0  0  0  0  0
  146.7398  136.3393  150.5377 H   0  0  0  0  0  0  0  0  0  0  0  0
  145.1231  136.9619  150.3186 H   0  0  0  0  0  0  0  0  0  0  0  0
  145.0214  137.6358  152.6983 H   0  0  0  0  0  0  0  0  0  0  0  0
  145.9592  139.1625  150.9012 H   0  0  0  0  0  0  0  0  0  0  0  0
  147.5813  138.6995  151.3990 H   0  0  0  0  0  0  0  0  0  0  0  0
  146.5088  139.5712  152.5030 H   0  0  0  0  0  0  0  0  0  0  0  0
  147.7181  136.5507  152.7910 H   0  0  0  0  0  0  0  0  0  0  0  0
  1  2  1  0  0  0  0
  1 21  1  0  0  0  0
  1 22  1  0  0  0  0
  1 23  1  0  0  0  0
  2 20  1  0  0  0  0
  2  3  2  0  0  0  0
  3  4  1  0  0  0  0
  3 24  1  0  0  0  0
  4  5  1  0  0  0  0
  4 19  2  0  0  0  0
  5  6  1  0  0  0  0
  6  7  2  0  0  0  0
  6  8  1  0  0  0  0
  8  9  1  0  0  0  0
  8 25  1  0  0  0  0
  9 10  1  0  0  0  0
  9 26  1  0  0  0  0
  9 27  1  0  0  0  0
 10 11  1  0  0  0  0
 10 12  1  0  0  0  0
 10 28  1  0  0  0  0
 11 29  1  0  0  0  0
 11 30  1  0  0  0  0
 11 31  1  0  0  0  0
 12 17  1  0  0  0  0
 12 13  1  0  0  0  0
 12 44  1  0  0  0  0
 13 14  1  0  0  0  0
 13 32  1  0  0  0  0
 13 33  1  0  0  0  0
 14 15  1  0  0  0  0
 14 34  1  0  0  0  0
 14 35  1  0  0  0  0
 15 16  1  0  0  0  0
 15 36  1  0  0  0  0
 15 37  1  0  0  0  0
 16 17  1  0  0  0  0
 16 38  1  0  0  0  0
 16 39  1  0  0  0  0
 17 18  1  0  0  0  0
 17 40  1  0  0  0  0
 18 41  1  0  0  0  0
 18 42  1  0  0  0  0
 18 43  1  0  0  0  0
 19 20  1  0  0  0  0
M  CHG  1   5  -1
M  CHG  1  12   1
M  END
> <s_m_source_file>
AV-unprocessed.smi

> <i_m_source_file_index>
1978

> <i_lp_mmshare_version>
43012

> <i_f3d_flags>
0

> <s_epik_input>
W0NIM11jMVtjSF1jKG5vMSlbTkhdQyg9TylbTkhdW0NIMl1bQ0BIXShbQ0gzXSlOMltDSDJdW0NIMl1bQ0gyXVtDSDJdW0NASF0yW0NIM10=

> <s_epik_cmdline>
J2VwaWtfcHl0aG9uJywgJy1waCcsICc3LjAnLCAnLXRuJywgJzgnLCAnLW1hJywgJzIwMCcsICctbWV0YWxfYmluZGluZycsICctaW1hZScsICc8aW5maWxlLm1hZT4nLCAnLW9tYWUnLCAnPG91dGZpbGUubWFlPic=

> <r_epik_Ionization_Penalty>
6.22372

> <r_epik_Ionization_Penalty_Charging>
6.22362

> <r_epik_Ionization_Penalty_Neutral>
9.65074e-05

> <r_epik_State_Penalty>
6.22363

> <r_epik_Charging_Adjusted_Penalty>
12.4472

> <i_epik_Tot_Q>
0

> <i_epik_Tot_abs_Q>
2

> <r_epik_Metal_State_Penalty>
2.16675

> <b_epik_Metal_Only>
1

> <s_lp_Force_Field>
OPLS_2005

> <r_lp_Energy>
11.9993

> <b_lp_Chiralities_Consistent>
1

> <s_lp_Variant>
AV-unprocessed.smi:1978-14

> <Gold.Version>
5.8.1

> <Gold.Id.Protein>
6NUR|6NUR_protein|mol2

> <Gold.PLP.Fitness>
39.0341

> <Gold.PLP.PLP>
-28.7843

> <Gold.PLP.part.hbond>
-3.0000

> <Gold.PLP.part.metal>
0.0000

> <Gold.PLP.part.buried>
-0.5286

> <Gold.PLP.part.nonpolar>
-26.9225

> <Gold.PLP.part.repulsive>
0.2263

> <Gold.PLP.ligand.clash>
0.0745

> <Gold.PLP.ligand.torsion>
0.8471

> <Gold.PLP.Chemscore.Hbond>
3.9600

> <Gold.PLP.Chemscore.CHOScore>
0.0000

> <Gold.PLP.Chemscore.Metal>
0.0000

> <Gold.Chemscore.Hbonds>
donor molecule, donor type, donor heavy atom, donor atom, acceptor molecule, acceptor atom, score
      L1  H    12    44       P1  7948  2.00
      P1  H  7989  7998       L1     7  0.68
      P1  H  7997  8008       L1    20  0.01

> <Gold.PLP.Chemscore.Internal.Correction>
0.1386

> <Gold.Rescore>
     Score         DG    S(hbond)    S(metal)    S(lipo)     H(rot)  DE(clash)    DE(int)     intcor
     14.15     -17.58       2.49        0.00      65.46       1.52       0.06       3.37       ----

> <Gold.Chemscore.Fitness>
14.1476

> <Gold.Chemscore.DG>
-17.5794

> <Gold.Chemscore.ZeroCoef>
-5.4800

> <Gold.Chemscore.Hbond>
2.4937

> <Gold.Chemscore.Metal>
0.0000

> <Gold.Chemscore.Lipo>
65.4617

> <Gold.Chemscore.Internal_Hbond>
0.0000

> <Gold.Chemscore.DEClash>
0.0645

> <Gold.Chemscore.DEInternal>
3.3673

> <Gold.Chemscore.Rot>
1.5190

> <Gold.Chemscore.Internal.Correction>
   9.000000E+99

> <Gold.Chemscore.Hbonds>
donor molecule, donor type, donor heavy atom, donor atom, acceptor molecule, acceptor atom, score
      L1  H    12    44       P1  7948  0.97
      P1  H  7989  7998       L1     7  0.27

> <Gold.Chemscore.Hbond.Weighted>
-8.3290

> <Gold.Chemscore.Metal.Weighted>
-0.0000

> <Gold.Chemscore.Lipo.Weighted>
-7.6590

> <Gold.Chemscore.Internal_Hbond.Weighted>
0.0000

> <Gold.Chemscore.DEClash.Weighted>
0.0645

> <Gold.Chemscore.DEInternal.Weighted>
3.3673

> <Gold.Chemscore.Rot.Weighted>
3.8886

> <Gold.Chemscore.Internal.Correction.Weighted>
   9.000000E+99

> <Gold.Protein.RotatedTorsions>
[ 6907 6896 6895 6894 ] final  113.42 input  -60.11 | X-H torsion
[ 7974 7965 7964 7962 ] final  -25.31 input  175.53 | X-H torsion
[ 8008 7997 7996 7995 ] final  -94.59 input   59.86 | X-H torsion
[ 10167 10162 10161 10158 ] final  -96.57 input  -65.29 | X-H torsion
[ 10718 10713 10712 10709 ] final  154.38 input   66.30 | X-H torsion
[ 10763 10752 10751 10750 ] final   -1.22 input  -60.55 | X-H torsion
[ 11005 11000 10999 10996 ] final  133.55 input  -57.11 | X-H torsion

> <Gold.Protein.ActiveResidues>
 VAL166  LYS551  ARG553  GLY616  TRP617  ASP618  TYR619  PRO620  LYS621  CYS622 
 ASP623  PHE694  ASN695  SER759  ASP760  ASP761  ALA762  ILE779  LEU786  VAL792 
 PHE793  MET794  SER795  GLU796  ALA797  LYS798  CYS799  TRP800  GLU811  SER814 

> <Gold.Protein.RotatedAtoms>
  152.4862  133.8378  159.7136 H   0  0  0  0  0  0  0  0  0  0  0  0  # atno 6907 bound_to 6896
  150.8950  133.7183  159.2901 H   0  0  0  0  0  0  0  0  0  0  0  0  # atno 6908 bound_to 6896
  151.4644  135.1045  159.9786 H   0  0  0  0  0  0  0  0  0  0  0  0  # atno 6909 bound_to 6896
  146.1499  140.4869  142.8615 H   0  0  0  0  0  0  0  0  0  0  0  0  # atno 7974 bound_to 7965
  154.7504  140.0488  157.0888 H   0  0  0  0  0  0  0  0  0  0  0  0  # atno 8008 bound_to 7997
  155.0065  140.3131  155.4827 H   0  0  0  0  0  0  0  0  0  0  0  0  # atno 8009 bound_to 7997
  156.2884  140.2192  156.5177 H   0  0  0  0  0  0  0  0  0  0  0  0  # atno 8010 bound_to 7997
  140.2924  143.3213  152.0332 H   0  0  0  0  0  0  0  0  0  0  0  0  # atno 10167 bound_to 10162
  157.2323  131.0742  151.1845 H   0  0  0  0  0  0  0  0  0  0  0  0  # atno 10718 bound_to 10713
  153.3421  135.6981  153.6859 H   0  0  0  0  0  0  0  0  0  0  0  0  # atno 10763 bound_to 10752
  153.5619  135.3533  155.2803 H   0  0  0  0  0  0  0  0  0  0  0  0  # atno 10764 bound_to 10752
  154.8638  135.4251  154.2636 H   0  0  0  0  0  0  0  0  0  0  0  0  # atno 10765 bound_to 10752
  139.9859  134.9532  156.9740 H   0  0  0  0  0  0  0  0  0  0  0  0  # atno 11005 bound_to 11000
  144.7892  140.5997  143.6553 LP  0  0  0  0  0  0  0  0  0  0  0  0  # atno 17320 bound_to 7965
  145.4847  139.1493  143.3742 LP  0  0  0  0  0  0  0  0  0  0  0  0  # atno 17321 bound_to 7965
  139.4934  144.6515  151.6665 LP  0  0  0  0  0  0  0  0  0  0  0  0  # atno 17342 bound_to 10162
  140.5721  144.0091  150.6222 LP  0  0  0  0  0  0  0  0  0  0  0  0  # atno 17343 bound_to 10162
  157.3465  130.7060  149.6414 LP  0  0  0  0  0  0  0  0  0  0  0  0  # atno 17370 bound_to 10713
  155.9674  130.4265  150.4701 LP  0  0  0  0  0  0  0  0  0  0  0  0  # atno 17371 bound_to 10713
  140.5004  134.1103  155.7249 LP  0  0  0  0  0  0  0  0  0  0  0  0  # atno 17394 bound_to 11000
  141.1524  133.8945  157.2065 LP  0  0  0  0  0  0  0  0  0  0  0  0  # atno 17395 bound_to 11000

$$$$
