AV-unprocessed.smi:2929|AV-procd|sdf|11239|dock4
  -GOLD-   2272016133D 1   1.00000     0.00000
 Structure written by MMmdl.
 33 34  0  0  0  0  0  0  0  0  1 V2000
  151.5444  137.7416  153.9221 C   0  0  0  0  0  0  0  0  0  0  0  0
  152.6166  138.3311  155.2948 S   0  0  0  0  0  0  0  0  0  0  0  0
  152.6705  137.2704  156.3130 O   0  0  0  0  0  0  0  0  0  0  0  0
  153.8672  138.8461  154.7156 O   0  0  0  0  0  0  0  0  0  0  0  0
  151.7121  139.7173  155.9742 C   0  0  0  0  0  0  0  0  0  0  0  0
  150.5765  140.2221  155.3097 C   0  0  0  0  0  0  0  0  0  0  0  0
  149.9268  141.3422  155.8627 C   0  0  0  0  0  0  0  0  0  0  0  0
  150.4399  141.9138  157.0537 C   0  0  0  0  0  0  0  0  0  0  0  0
  149.8904  143.0510  157.7069 N   0  0  0  0  0  0  0  0  0  0  0  0
  150.0952  143.4899  158.9610 C   0  0  0  0  0  0  0  0  0  0  0  0
  150.8444  142.9698  159.7871 O   0  0  0  0  0  0  0  0  0  0  0  0
  149.3799  144.5963  159.2072 N   0  0  0  0  0  0  0  0  0  0  0  0
  149.3673  145.3169  160.4738 C   0  0  0  0  0  0  0  0  0  0  0  0
  148.0490  145.2660  161.2217 C   0  0  0  0  0  0  0  0  0  0  0  0
  146.9287  144.3777  160.7335 C   0  0  0  0  0  0  0  0  0  0  0  0
  146.7948  145.8781  160.6413 C   0  0  0  0  0  0  0  0  0  0  0  0
  151.5992  141.3358  157.6147 C   0  0  0  0  0  0  0  0  0  0  0  0
  152.2322  140.2644  157.0929 N   0  0  0  0  0  0  0  0  0  0  0  0
  152.0134  136.8860  153.4371 H   0  0  0  0  0  0  0  0  0  0  0  0
  151.4111  138.5431  153.1955 H   0  0  0  0  0  0  0  0  0  0  0  0
  150.5737  137.4473  154.3203 H   0  0  0  0  0  0  0  0  0  0  0  0
  150.2111  139.7706  154.3995 H   0  0  0  0  0  0  0  0  0  0  0  0
  149.0643  141.7414  155.3533 H   0  0  0  0  0  0  0  0  0  0  0  0
  149.2924  143.6272  157.1327 H   0  0  0  0  0  0  0  0  0  0  0  0
  148.7946  144.9606  158.4698 H   0  0  0  0  0  0  0  0  0  0  0  0
  150.1712  144.9575  161.1188 H   0  0  0  0  0  0  0  0  0  0  0  0
  149.5942  146.3614  160.2595 H   0  0  0  0  0  0  0  0  0  0  0  0
  148.1578  145.3234  162.3033 H   0  0  0  0  0  0  0  0  0  0  0  0
  147.0816  143.8304  159.8055 H   0  0  0  0  0  0  0  0  0  0  0  0
  146.3313  143.8647  161.4846 H   0  0  0  0  0  0  0  0  0  0  0  0
  146.1105  146.3671  161.3318 H   0  0  0  0  0  0  0  0  0  0  0  0
  146.8600  146.3286  159.6528 H   0  0  0  0  0  0  0  0  0  0  0  0
  152.0358  141.7473  158.5130 H   0  0  0  0  0  0  0  0  0  0  0  0
  1  2  1  0  0  0  0
  1 19  1  0  0  0  0
  1 20  1  0  0  0  0
  1 21  1  0  0  0  0
  2  3  2  0  0  0  0
  2  4  2  0  0  0  0
  2  5  1  0  0  0  0
  5 18  1  0  0  0  0
  5  6  2  0  0  0  0
  6  7  1  0  0  0  0
  6 22  1  0  0  0  0
  7  8  2  0  0  0  0
  7 23  1  0  0  0  0
  8  9  1  0  0  0  0
  8 17  1  0  0  0  0
  9 10  1  0  0  0  0
  9 24  1  0  0  0  0
 10 11  2  0  0  0  0
 10 12  1  0  0  0  0
 12 13  1  0  0  0  0
 12 25  1  0  0  0  0
 13 14  1  0  0  0  0
 13 26  1  0  0  0  0
 13 27  1  0  0  0  0
 14 16  1  0  0  0  0
 14 15  1  0  0  0  0
 14 28  1  0  0  0  0
 15 16  1  0  0  0  0
 15 29  1  0  0  0  0
 15 30  1  0  0  0  0
 16 31  1  0  0  0  0
 16 32  1  0  0  0  0
 17 18  2  0  0  0  0
 17 33  1  0  0  0  0
M  END
> <s_m_source_file>
AV-unprocessed.smi

> <i_m_source_file_index>
2929

> <i_lp_mmshare_version>
43012

> <i_f3d_flags>
0

> <s_epik_input>
W0NIM11TKD1PKSg9TyljMVtjSF1bY0hdYyhbY0hdbjEpW05IXUMoPU8pW05IXVtDSDJdW0NIXTJbQ0gyXVtDSDJdMg==

> <s_epik_cmdline>
J2VwaWtfcHl0aG9uJywgJy1waCcsICc3LjAnLCAnLXRuJywgJzgnLCAnLW1hJywgJzIwMCcsICctbWV0YWxfYmluZGluZycsICctaW1hZScsICc8aW5maWxlLm1hZT4nLCAnLW9tYWUnLCAnPG91dGZpbGUubWFlPic=

> <r_lp_tautomer_probability>
1

> <r_epik_Ionization_Penalty>
4.04513e-05

> <r_epik_Ionization_Penalty_Charging>
0

> <r_epik_Ionization_Penalty_Neutral>
4.04513e-05

> <r_epik_State_Penalty>
-0

> <r_epik_Charging_Adjusted_Penalty>
0

> <i_epik_Tot_Q>
0

> <i_epik_Tot_abs_Q>
0

> <r_epik_Metal_State_Penalty>
-0

> <b_epik_Metal_Only>
0

> <s_lp_Force_Field>
OPLS_2005

> <r_lp_Energy>
13.7936

> <b_lp_Chiralities_Consistent>
1

> <s_lp_Variant>
AV-unprocessed.smi:2929-1

> <Gold.Version>
5.8.1

> <Gold.Id.Protein>
6NUR|6NUR_protein|mol2

> <Gold.PLP.Fitness>
44.8633

> <Gold.PLP.PLP>
-35.5432

> <Gold.PLP.part.hbond>
-5.9126

> <Gold.PLP.part.metal>
0.0000

> <Gold.PLP.part.buried>
-3.1566

> <Gold.PLP.part.nonpolar>
-26.6272

> <Gold.PLP.part.repulsive>
0.2318

> <Gold.PLP.ligand.clash>
0.0000

> <Gold.PLP.ligand.torsion>
1.6939

> <Gold.PLP.Chemscore.Hbond>
3.3826

> <Gold.PLP.Chemscore.CHOScore>
0.0000

> <Gold.PLP.Chemscore.Metal>
0.0000

> <Gold.Chemscore.Hbonds>
donor molecule, donor type, donor heavy atom, donor atom, acceptor molecule, acceptor atom, score
      L1  H     9    24       P1  8028  1.00
      L1  H    12    25       P1  8029  1.00
      P1  H  7997  8009       L1     4  0.94
      P1  H 10752 10764       L1     3  0.42

> <Gold.PLP.Chemscore.Internal.Correction>
2.5601

> <Gold.Rescore>
     Score         DG    S(hbond)    S(metal)    S(lipo)     H(rot)  DE(clash)    DE(int)     intcor
     14.43     -17.60       2.53        0.00      58.49       1.23       0.12       3.04       ----

> <Gold.Chemscore.Fitness>
14.4348

> <Gold.Chemscore.DG>
-17.5952

> <Gold.Chemscore.ZeroCoef>
-5.4800

> <Gold.Chemscore.Hbond>
2.5250

> <Gold.Chemscore.Metal>
0.0000

> <Gold.Chemscore.Lipo>
58.4889

> <Gold.Chemscore.Internal_Hbond>
0.0000

> <Gold.Chemscore.DEClash>
0.1240

> <Gold.Chemscore.DEInternal>
3.0364

> <Gold.Chemscore.Rot>
1.2350

> <Gold.Chemscore.Internal.Correction>
   9.000000E+99

> <Gold.Chemscore.Hbonds>
donor molecule, donor type, donor heavy atom, donor atom, acceptor molecule, acceptor atom, score
      L1  H     9    24       P1  8028  0.69
      L1  H    12    25       P1  8029  0.91
      P1  H  7997  8009       L1     4  0.82
      P1  H 10752 10764       L1     3  0.14

> <Gold.Chemscore.Hbond.Weighted>
-8.4336

> <Gold.Chemscore.Metal.Weighted>
-0.0000

> <Gold.Chemscore.Lipo.Weighted>
-6.8432

> <Gold.Chemscore.Internal_Hbond.Weighted>
0.0000

> <Gold.Chemscore.DEClash.Weighted>
0.1240

> <Gold.Chemscore.DEInternal.Weighted>
3.0364

> <Gold.Chemscore.Rot.Weighted>
3.1616

> <Gold.Chemscore.Internal.Correction.Weighted>
   9.000000E+99

> <Gold.Protein.RotatedTorsions>
[ 6907 6896 6895 6894 ] final -116.90 input  -60.11 | X-H torsion
[ 7974 7965 7964 7962 ] final  -12.05 input  175.53 | X-H torsion
[ 8008 7997 7996 7995 ] final -119.10 input   59.86 | X-H torsion
[ 10167 10162 10161 10158 ] final   45.35 input  -65.29 | X-H torsion
[ 10718 10713 10712 10709 ] final   45.85 input   66.30 | X-H torsion
[ 10763 10752 10751 10750 ] final  -24.21 input  -60.55 | X-H torsion
[ 11005 11000 10999 10996 ] final -172.34 input  -57.11 | X-H torsion

> <Gold.Protein.ActiveResidues>
 VAL166  LYS551  ARG553  GLY616  TRP617  ASP618  TYR619  PRO620  LYS621  CYS622 
 ASP623  PHE694  ASN695  SER759  ASP760  ASP761  ALA762  ILE779  LEU786  VAL792 
 PHE793  MET794  SER795  GLU796  ALA797  LYS798  CYS799  TRP800  GLU811  SER814 

> <Gold.Protein.RotatedAtoms>
  150.8093  133.8451  159.3189 H   0  0  0  0  0  0  0  0  0  0  0  0  # atno 6907 bound_to 6896
  151.6241  135.1027  160.0117 H   0  0  0  0  0  0  0  0  0  0  0  0  # atno 6908 bound_to 6896
  152.4185  133.7037  159.6495 H   0  0  0  0  0  0  0  0  0  0  0  0  # atno 6909 bound_to 6896
  146.2166  140.3001  142.8374 H   0  0  0  0  0  0  0  0  0  0  0  0  # atno 7974 bound_to 7965
  155.1103  140.0397  157.2722 H   0  0  0  0  0  0  0  0  0  0  0  0  # atno 8008 bound_to 7997
  154.6690  140.2608  155.7002 H   0  0  0  0  0  0  0  0  0  0  0  0  # atno 8009 bound_to 7997
  156.2650  140.2801  156.1192 H   0  0  0  0  0  0  0  0  0  0  0  0  # atno 8010 bound_to 7997
  140.3250  144.2659  150.6176 H   0  0  0  0  0  0  0  0  0  0  0  0  # atno 10167 bound_to 10162
  157.4419  130.8086  149.7702 H   0  0  0  0  0  0  0  0  0  0  0  0  # atno 10718 bound_to 10713
  153.6801  135.6967  153.5120 H   0  0  0  0  0  0  0  0  0  0  0  0  # atno 10763 bound_to 10752
  153.2491  135.4281  155.0778 H   0  0  0  0  0  0  0  0  0  0  0  0  # atno 10764 bound_to 10752
  154.8402  135.3527  154.6345 H   0  0  0  0  0  0  0  0  0  0  0  0  # atno 10765 bound_to 10752
  140.4981  134.5920  157.4978 H   0  0  0  0  0  0  0  0  0  0  0  0  # atno 11005 bound_to 11000
  144.9063  140.7704  143.5835 LP  0  0  0  0  0  0  0  0  0  0  0  0  # atno 17320 bound_to 7965
  145.2929  139.1877  143.4730 LP  0  0  0  0  0  0  0  0  0  0  0  0  # atno 17321 bound_to 7965
  140.5449  143.2216  151.8023 LP  0  0  0  0  0  0  0  0  0  0  0  0  # atno 17342 bound_to 10162
  139.4867  144.4552  151.9607 LP  0  0  0  0  0  0  0  0  0  0  0  0  # atno 17343 bound_to 10162
  155.9952  130.3913  150.2828 LP  0  0  0  0  0  0  0  0  0  0  0  0  # atno 17370 bound_to 10713
  157.0993  131.0191  151.3091 LP  0  0  0  0  0  0  0  0  0  0  0  0  # atno 17371 bound_to 10713
  139.9729  134.7263  156.0005 LP  0  0  0  0  0  0  0  0  0  0  0  0  # atno 17394 bound_to 11000
  141.1450  133.6557  156.3840 LP  0  0  0  0  0  0  0  0  0  0  0  0  # atno 17395 bound_to 11000

$$$$
