AV-unprocessed.smi:1261|AV-procd|sdf|5301|dock1
  -GOLD-   22720 4423D 1   1.00000     0.00000
 Structure written by MMmdl.
 49 50  0  0  0  0  0  0  0  0  3 V2000
  148.6212  133.2978  153.0984 C   0  0  0  0  0  0  0  0  0  0  0  0
  147.1121  133.0372  153.2484 C   0  0  2  0  0  0  0  0  0  0  0  0
  146.5368  132.1676  152.1151 C   0  0  0  0  0  0  0  0  0  0  0  0
  146.4097  132.9568  150.7998 C   0  0  1  0  0  0  0  0  0  0  0  0
  145.7738  132.1017  149.6941 C   0  0  0  0  0  0  0  0  0  0  0  0
  145.6155  134.2564  151.0327 C   0  0  0  0  0  0  0  0  0  0  0  0
  146.2297  135.0851  152.1021 N   0  3  1  0  0  0  0  0  0  0  0  0
  145.5762  136.4126  152.2284 C   0  0  0  0  0  0  0  0  0  0  0  0
  146.5809  137.5743  152.1451 C   0  0  0  0  0  0  0  0  0  0  0  0
  146.4364  138.5522  153.3225 C   0  0  0  0  0  0  0  0  0  0  0  0
  147.6131  139.4004  153.4645 N   0  0  0  0  0  0  0  0  0  0  0  0
  147.6021  140.6721  153.8919 C   0  0  0  0  0  0  0  0  0  0  0  0
  146.5783  141.2630  154.2366 O   0  0  0  0  0  0  0  0  0  0  0  0
  148.9610  141.3773  153.9537 C   0  0  0  0  0  0  0  0  0  0  0  0
  149.8028  140.8485  155.0339 N   0  0  0  0  0  0  0  0  0  0  0  0
  151.0695  140.2892  154.5680 N   0  5  0  0  0  0  0  0  0  0  0  0
  151.9482  139.7910  155.4777 C   0  0  0  0  0  0  0  0  0  0  0  0
  153.0373  139.3175  155.1618 O   0  0  0  0  0  0  0  0  0  0  0  0
  151.5723  139.8241  156.8814 C   0  0  0  0  0  0  0  0  0  0  0  0
  150.3922  140.3370  157.2818 C   0  0  0  0  0  0  0  0  0  0  0  0
  149.4241  140.8915  156.3432 C   0  0  0  0  0  0  0  0  0  0  0  0
  148.3465  141.3649  156.7037 O   0  0  0  0  0  0  0  0  0  0  0  0
  146.3072  134.3442  153.3902 C   0  0  0  0  0  0  0  0  0  0  0  0
  148.8482  133.8911  152.2128 H   0  0  0  0  0  0  0  0  0  0  0  0
  149.1747  132.3615  153.0217 H   0  0  0  0  0  0  0  0  0  0  0  0
  149.0107  133.8367  153.9624 H   0  0  0  0  0  0  0  0  0  0  0  0
  146.9907  132.4773  154.1768 H   0  0  0  0  0  0  0  0  0  0  0  0
  147.1550  131.2811  151.9689 H   0  0  0  0  0  0  0  0  0  0  0  0
  145.5518  131.8043  152.4121 H   0  0  0  0  0  0  0  0  0  0  0  0
  147.4107  133.2272  150.4615 H   0  0  0  0  0  0  0  0  0  0  0  0
  144.7612  131.7964  149.9601 H   0  0  0  0  0  0  0  0  0  0  0  0
  146.3563  131.1980  149.5124 H   0  0  0  0  0  0  0  0  0  0  0  0
  145.7193  132.6516  148.7541 H   0  0  0  0  0  0  0  0  0  0  0  0
  145.5856  134.8258  150.1027 H   0  0  0  0  0  0  0  0  0  0  0  0
  144.5814  134.0295  151.2982 H   0  0  0  0  0  0  0  0  0  0  0  0
  144.8574  136.5358  151.4170 H   0  0  0  0  0  0  0  0  0  0  0  0
  145.0036  136.4594  153.1561 H   0  0  0  0  0  0  0  0  0  0  0  0
  147.6003  137.1897  152.1258 H   0  0  0  0  0  0  0  0  0  0  0  0
  146.4363  138.1139  151.2082 H   0  0  0  0  0  0  0  0  0  0  0  0
  145.5729  139.1994  153.1666 H   0  0  0  0  0  0  0  0  0  0  0  0
  146.2543  138.0106  154.2522 H   0  0  0  0  0  0  0  0  0  0  0  0
  148.5020  139.0074  153.1885 H   0  0  0  0  0  0  0  0  0  0  0  0
  149.4644  141.2708  152.9912 H   0  0  0  0  0  0  0  0  0  0  0  0
  148.8051  142.4507  154.0797 H   0  0  0  0  0  0  0  0  0  0  0  0
  152.2539  139.4269  157.6192 H   0  0  0  0  0  0  0  0  0  0  0  0
  150.1543  140.3398  158.3351 H   0  0  0  0  0  0  0  0  0  0  0  0
  145.2954  134.1187  153.7311 H   0  0  0  0  0  0  0  0  0  0  0  0
  146.7621  134.9611  154.1643 H   0  0  0  0  0  0  0  0  0  0  0  0
  147.1794  135.2630  151.8076 H   0  0  0  0  0  0  0  0  0  0  0  0
  1  2  1  0  0  0  0
  1 24  1  0  0  0  0
  1 25  1  0  0  0  0
  1 26  1  0  0  0  0
  2 23  1  0  0  0  0
  2  3  1  0  0  0  0
  2 27  1  0  0  0  0
  3  4  1  0  0  0  0
  3 28  1  0  0  0  0
  3 29  1  0  0  0  0
  4  5  1  0  0  0  0
  4  6  1  0  0  0  0
  4 30  1  0  0  0  0
  5 31  1  0  0  0  0
  5 32  1  0  0  0  0
  5 33  1  0  0  0  0
  6  7  1  0  0  0  0
  6 34  1  0  0  0  0
  6 35  1  0  0  0  0
  7  8  1  0  0  0  0
  7 23  1  0  0  0  0
  7 49  1  0  0  0  0
  8  9  1  0  0  0  0
  8 36  1  0  0  0  0
  8 37  1  0  0  0  0
  9 10  1  0  0  0  0
  9 38  1  0  0  0  0
  9 39  1  0  0  0  0
 10 11  1  0  0  0  0
 10 40  1  0  0  0  0
 10 41  1  0  0  0  0
 11 12  1  0  0  0  0
 11 42  1  0  0  0  0
 12 13  2  0  0  0  0
 12 14  1  0  0  0  0
 14 43  1  0  0  0  0
 14 44  1  0  0  0  0
 14 15  1  0  0  0  0
 15 16  1  0  0  0  0
 15 21  1  0  0  0  0
 16 17  1  0  0  0  0
 17 18  2  0  0  0  0
 17 19  1  0  0  0  0
 19 45  1  0  0  0  0
 19 20  2  0  0  0  0
 20 46  1  0  0  0  0
 20 21  1  0  0  0  0
 21 22  2  0  0  0  0
 23 47  1  0  0  0  0
 23 48  1  0  0  0  0
M  CHG  1   7   1
M  CHG  1  16  -1
M  END
> <s_m_source_file>
AV-unprocessed.smi

> <i_m_source_file_index>
1261

> <i_lp_mmshare_version>
43012

> <i_f3d_flags>
0

> <s_epik_input>
W0NIM11bQ0BASF0xW0NIMl1bQ0BASF0oW0NIM10pW0NIMl1OKFtDSDJdMSlbQ0gyXVtDSDJdW0NIMl1bTkhdQyg9TylbQ0gyXW4yW25IXWMoPU8pW2NIXVtjSF1jMj1P

> <s_epik_cmdline>
J2VwaWtfcHl0aG9uJywgJy1waCcsICc3LjAnLCAnLXRuJywgJzgnLCAnLW1hJywgJzIwMCcsICctbWV0YWxfYmluZGluZycsICctaW1hZScsICc8aW5maWxlLm1hZT4nLCAnLW9tYWUnLCAnPG91dGZpbGUubWFlPic=

> <r_lp_tautomer_probability>
1

> <r_epik_Ionization_Penalty>
0.0955723

> <r_epik_Ionization_Penalty_Charging>
0.0955723

> <r_epik_Ionization_Penalty_Neutral>
2.68632e-08

> <r_epik_State_Penalty>
0.0334406

> <r_epik_Charging_Adjusted_Penalty>
0.129013

> <i_epik_Tot_Q>
0

> <i_epik_Tot_abs_Q>
2

> <r_epik_Metal_State_Penalty>
0.0334406

> <b_epik_Metal_Only>
0

> <s_lp_Force_Field>
OPLS_2005

> <r_lp_Energy>
33.9758

> <b_lp_Chiralities_Consistent>
1

> <s_lp_Variant>
AV-unprocessed.smi:1261-1

> <Gold.Version>
5.8.1

> <Gold.Id.Protein>
6NUR|6NUR_protein|mol2

> <Gold.PLP.Fitness>
46.8899

> <Gold.PLP.PLP>
-37.6437

> <Gold.PLP.part.hbond>
-3.4714

> <Gold.PLP.part.metal>
0.0000

> <Gold.PLP.part.buried>
-0.6741

> <Gold.PLP.part.nonpolar>
-33.8817

> <Gold.PLP.part.repulsive>
0.3431

> <Gold.PLP.ligand.clash>
0.0000

> <Gold.PLP.ligand.torsion>
1.4165

> <Gold.PLP.Chemscore.Hbond>
3.9750

> <Gold.PLP.Chemscore.CHOScore>
0.0000

> <Gold.PLP.Chemscore.Metal>
0.0000

> <Gold.Chemscore.Hbonds>
donor molecule, donor type, donor heavy atom, donor atom, acceptor molecule, acceptor atom, score
      L1  H     7    49       P1  7948  2.00
      P1  H  7989  7998       L1    16  0.52
      P1  H  7997  8010       L1    18  1.00

> <Gold.PLP.Chemscore.Internal.Correction>
0.1542

> <Gold.Rescore>
     Score         DG    S(hbond)    S(metal)    S(lipo)     H(rot)  DE(clash)    DE(int)     intcor
     13.80     -17.62       2.73        0.00      80.46       2.49       1.40       2.41       ----

> <Gold.Chemscore.Fitness>
13.8014

> <Gold.Chemscore.DG>
-17.6186

> <Gold.Chemscore.ZeroCoef>
-5.4800

> <Gold.Chemscore.Hbond>
2.7273

> <Gold.Chemscore.Metal>
0.0000

> <Gold.Chemscore.Lipo>
80.4563

> <Gold.Chemscore.Internal_Hbond>
0.0000

> <Gold.Chemscore.DEClash>
1.4031

> <Gold.Chemscore.DEInternal>
2.4141

> <Gold.Chemscore.Rot>
2.4938

> <Gold.Chemscore.Internal.Correction>
   9.000000E+99

> <Gold.Chemscore.Hbonds>
donor molecule, donor type, donor heavy atom, donor atom, acceptor molecule, acceptor atom, score
      L1  H     7    49       P1  7948  0.94
      P1  H  7989  7998       L1    16  0.44
      P1  H  7997  8010       L1    18  0.69

> <Gold.Chemscore.Hbond.Weighted>
-9.1092

> <Gold.Chemscore.Metal.Weighted>
-0.0000

> <Gold.Chemscore.Lipo.Weighted>
-9.4134

> <Gold.Chemscore.Internal_Hbond.Weighted>
0.0000

> <Gold.Chemscore.DEClash.Weighted>
1.4031

> <Gold.Chemscore.DEInternal.Weighted>
2.4141

> <Gold.Chemscore.Rot.Weighted>
6.3840

> <Gold.Chemscore.Internal.Correction.Weighted>
   9.000000E+99

> <Gold.Protein.RotatedTorsions>
[ 6907 6896 6895 6894 ] final  -90.04 input  -60.11 | X-H torsion
[ 7974 7965 7964 7962 ] final   53.63 input  175.53 | X-H torsion
[ 8008 7997 7996 7995 ] final   86.36 input   59.86 | X-H torsion
[ 10167 10162 10161 10158 ] final   40.94 input  -65.29 | X-H torsion
[ 10718 10713 10712 10709 ] final  -63.37 input   66.30 | X-H torsion
[ 10763 10752 10751 10750 ] final  143.42 input  -60.55 | X-H torsion
[ 11005 11000 10999 10996 ] final -130.90 input  -57.11 | X-H torsion

> <Gold.Protein.ActiveResidues>
 VAL166  LYS551  ARG553  GLY616  TRP617  ASP618  TYR619  PRO620  LYS621  CYS622 
 ASP623  PHE694  ASN695  SER759  ASP760  ASP761  ALA762  ILE779  LEU786  VAL792 
 PHE793  MET794  SER795  GLU796  ALA797  LYS798  CYS799  TRP800  GLU811  SER814 

> <Gold.Protein.RotatedAtoms>
  150.6878  134.2494  159.4504 H   0  0  0  0  0  0  0  0  0  0  0  0  # atno 6907 bound_to 6896
  152.0433  134.9696  160.0583 H   0  0  0  0  0  0  0  0  0  0  0  0  # atno 6908 bound_to 6896
  152.1189  133.4307  159.4703 H   0  0  0  0  0  0  0  0  0  0  0  0  # atno 6909 bound_to 6896
  145.9692  139.4133  143.0200 H   0  0  0  0  0  0  0  0  0  0  0  0  # atno 7974 bound_to 7965
  155.9618  140.3393  155.6497 H   0  0  0  0  0  0  0  0  0  0  0  0  # atno 8008 bound_to 7997
  155.6788  140.0735  157.2511 H   0  0  0  0  0  0  0  0  0  0  0  0  # atno 8009 bound_to 7997
  154.4145  140.1678  156.1947 H   0  0  0  0  0  0  0  0  0  0  0  0  # atno 8010 bound_to 7997
  140.3693  144.2126  150.6134 H   0  0  0  0  0  0  0  0  0  0  0  0  # atno 10167 bound_to 10162
  156.0795  130.4220  150.1267 H   0  0  0  0  0  0  0  0  0  0  0  0  # atno 10718 bound_to 10713
  153.9720  135.2949  155.3426 H   0  0  0  0  0  0  0  0  0  0  0  0  # atno 10763 bound_to 10752
  154.7317  135.5064  153.8978 H   0  0  0  0  0  0  0  0  0  0  0  0  # atno 10764 bound_to 10752
  153.0895  135.6703  153.9994 H   0  0  0  0  0  0  0  0  0  0  0  0  # atno 10765 bound_to 10752
  140.9306  134.1325  157.4238 H   0  0  0  0  0  0  0  0  0  0  0  0  # atno 11005 bound_to 11000
  145.7930  140.9806  143.1039 LP  0  0  0  0  0  0  0  0  0  0  0  0  # atno 17320 bound_to 7965
  144.6833  139.9706  143.7482 LP  0  0  0  0  0  0  0  0  0  0  0  0  # atno 17321 bound_to 7965
  140.5050  143.2307  151.8622 LP  0  0  0  0  0  0  0  0  0  0  0  0  # atno 17342 bound_to 10162
  139.4805  144.5016  151.9052 LP  0  0  0  0  0  0  0  0  0  0  0  0  # atno 17343 bound_to 10162
  156.9302  130.9711  151.3534 LP  0  0  0  0  0  0  0  0  0  0  0  0  # atno 17370 bound_to 10713
  157.5906  130.8441  149.8653 LP  0  0  0  0  0  0  0  0  0  0  0  0  # atno 17371 bound_to 10713
  139.8795  135.0003  156.6006 LP  0  0  0  0  0  0  0  0  0  0  0  0  # atno 17394 bound_to 11000
  140.7868  133.8615  155.8612 LP  0  0  0  0  0  0  0  0  0  0  0  0  # atno 17395 bound_to 11000

$$$$
