AV-unprocessed.smi:757|AV-procd|sdf|3614|dock1
  -GOLD-   22720 1 13D 1   1.00000     0.00000
 Structure written by MMmdl.
 45 46  0  0  0  0  0  0  0  0  2 V2000
  148.8674  126.3840  150.3118 C   0  0  0  0  0  0  0  0  0  0  0  0
  148.8109  127.0377  151.3416 C   0  0  0  0  0  0  0  0  0  0  0  0
  148.7555  127.8339  152.5784 C   0  0  0  0  0  0  0  0  0  0  0  0
  147.5633  128.8073  152.6161 C   0  0  0  0  0  0  0  0  0  0  0  0
  147.9904  130.2252  152.7263 N   0  3  2  0  0  0  0  0  0  0  0  0
  148.7889  130.4745  153.9546 C   0  0  0  0  0  0  0  0  0  0  0  0
  149.3368  131.9111  153.9843 C   0  0  0  0  0  0  0  0  0  0  0  0
  148.2012  132.9398  153.8675 C   0  0  1  0  0  0  0  0  0  0  0  0
  148.7535  134.2909  153.8245 N   0  0  0  0  0  0  0  0  0  0  0  0
  149.5140  134.8423  154.7817 C   0  0  0  0  0  0  0  0  0  0  0  0
  149.8126  134.2620  155.8251 O   0  0  0  0  0  0  0  0  0  0  0  0
  149.8765  136.0948  154.4550 N   0  0  0  0  0  0  0  0  0  0  0  0
  150.7030  136.9970  155.1791 C   0  0  0  0  0  0  0  0  0  0  0  0
  151.2964  138.1572  154.6260 C   0  0  0  0  0  0  0  0  0  0  0  0
  152.0804  138.9822  155.4549 C   0  0  0  0  0  0  0  0  0  0  0  0
  152.2414  138.6321  156.8100 C   0  0  0  0  0  0  0  0  0  0  0  0
  153.0098  139.4477  157.6152 O   0  0  0  0  0  0  0  0  0  0  0  0
  153.1978  139.0717  158.9751 C   0  0  0  0  0  0  0  0  0  0  0  0
  151.6664  137.5292  157.3500 N   0  0  0  0  0  0  0  0  0  0  0  0
  150.9170  136.7422  156.5497 C   0  0  0  0  0  0  0  0  0  0  0  0
  147.3698  132.6419  152.6066 C   0  0  0  0  0  0  0  0  0  0  0  0
  146.8643  131.1894  152.6051 C   0  0  0  0  0  0  0  0  0  0  0  0
  148.9143  125.8151  149.4103 H   0  0  0  0  0  0  0  0  0  0  0  0
  148.7034  127.1359  153.4146 H   0  0  0  0  0  0  0  0  0  0  0  0
  149.7047  128.3628  152.6577 H   0  0  0  0  0  0  0  0  0  0  0  0
  146.9256  128.6800  151.7394 H   0  0  0  0  0  0  0  0  0  0  0  0
  146.9484  128.5581  153.4829 H   0  0  0  0  0  0  0  0  0  0  0  0
  148.1720  130.2880  154.8354 H   0  0  0  0  0  0  0  0  0  0  0  0
  149.6249  129.7753  154.0003 H   0  0  0  0  0  0  0  0  0  0  0  0
  149.8946  132.0724  154.9077 H   0  0  0  0  0  0  0  0  0  0  0  0
  150.0464  132.0445  153.1663 H   0  0  0  0  0  0  0  0  0  0  0  0
  147.5616  132.8450  154.7476 H   0  0  0  0  0  0  0  0  0  0  0  0
  148.5525  134.8414  153.0023 H   0  0  0  0  0  0  0  0  0  0  0  0
  149.4821  136.4633  153.6018 H   0  0  0  0  0  0  0  0  0  0  0  0
  151.1575  138.4396  153.5941 H   0  0  0  0  0  0  0  0  0  0  0  0
  152.5457  139.8724  155.0583 H   0  0  0  0  0  0  0  0  0  0  0  0
  153.8250  139.8124  159.4706 H   0  0  0  0  0  0  0  0  0  0  0  0
  153.6993  138.1064  159.0573 H   0  0  0  0  0  0  0  0  0  0  0  0
  152.2488  139.0302  159.5118 H   0  0  0  0  0  0  0  0  0  0  0  0
  150.4759  135.8761  157.0215 H   0  0  0  0  0  0  0  0  0  0  0  0
  146.5201  133.3230  152.5443 H   0  0  0  0  0  0  0  0  0  0  0  0
  147.9719  132.8177  151.7138 H   0  0  0  0  0  0  0  0  0  0  0  0
  146.3105  131.0143  151.6836 H   0  0  0  0  0  0  0  0  0  0  0  0
  146.1636  131.0371  153.4277 H   0  0  0  0  0  0  0  0  0  0  0  0
  148.6109  130.3963  151.9478 H   0  0  0  0  0  0  0  0  0  0  0  0
  1  2  3  0  0  0  0
  1 23  1  0  0  0  0
  2  3  1  0  0  0  0
  3  4  1  0  0  0  0
  3 24  1  0  0  0  0
  3 25  1  0  0  0  0
  4  5  1  0  0  0  0
  4 26  1  0  0  0  0
  4 27  1  0  0  0  0
  5 22  1  0  0  0  0
  5  6  1  0  0  0  0
  5 45  1  0  0  0  0
  6  7  1  0  0  0  0
  6 28  1  0  0  0  0
  6 29  1  0  0  0  0
  7  8  1  0  0  0  0
  7 30  1  0  0  0  0
  7 31  1  0  0  0  0
  8  9  1  0  0  0  0
  8 21  1  0  0  0  0
  8 32  1  0  0  0  0
  9 10  1  0  0  0  0
  9 33  1  0  0  0  0
 10 11  2  0  0  0  0
 10 12  1  0  0  0  0
 12 13  1  0  0  0  0
 12 34  1  0  0  0  0
 13 20  1  0  0  0  0
 13 14  2  0  0  0  0
 14 15  1  0  0  0  0
 14 35  1  0  0  0  0
 15 16  2  0  0  0  0
 15 36  1  0  0  0  0
 16 17  1  0  0  0  0
 16 19  1  0  0  0  0
 17 18  1  0  0  0  0
 18 37  1  0  0  0  0
 18 38  1  0  0  0  0
 18 39  1  0  0  0  0
 19 20  2  0  0  0  0
 20 40  1  0  0  0  0
 21 22  1  0  0  0  0
 21 41  1  0  0  0  0
 21 42  1  0  0  0  0
 22 43  1  0  0  0  0
 22 44  1  0  0  0  0
M  CHG  1   5   1
M  END
> <s_m_source_file>
AV-unprocessed.smi

> <i_m_source_file_index>
757

> <i_lp_mmshare_version>
43012

> <i_f3d_flags>
0

> <s_epik_input>
W0NIXSNDW0NIMl1bQ0gyXU4xW0NIMl1bQ0gyXVtDSF0oW0NIMl1bQ0gyXTEpW05IXUMoPU8pW05IXWMyW2NIXVtjSF1jKE9bQ0gzXSluW2NIXTI=

> <s_epik_cmdline>
J2VwaWtfcHl0aG9uJywgJy1waCcsICc3LjAnLCAnLXRuJywgJzgnLCAnLW1hJywgJzIwMCcsICctbWV0YWxfYmluZGluZycsICctaW1hZScsICc8aW5maWxlLm1hZT4nLCAnLW9tYWUnLCAnPG91dGZpbGUubWFlPic=

> <r_lp_tautomer_probability>
1

> <r_epik_Ionization_Penalty>
0.0402573

> <r_epik_Ionization_Penalty_Charging>
0.0401786

> <r_epik_Ionization_Penalty_Neutral>
7.86509e-05

> <r_epik_State_Penalty>
0.0338029

> <r_epik_Charging_Adjusted_Penalty>
0.0739815

> <i_epik_Tot_Q>
1

> <i_epik_Tot_abs_Q>
1

> <r_epik_Metal_State_Penalty>
0.0338035

> <b_epik_Metal_Only>
0

> <s_lp_Force_Field>
OPLS_2005

> <r_lp_Energy>
20.3265

> <b_lp_Chiralities_Consistent>
1

> <s_lp_Variant>
AV-unprocessed.smi:757-1

> <Gold.Version>
5.8.1

> <Gold.Id.Protein>
6NUR|6NUR_protein|mol2

> <Gold.PLP.Fitness>
52.1768

> <Gold.PLP.PLP>
-41.0510

> <Gold.PLP.part.hbond>
-4.6084

> <Gold.PLP.part.metal>
0.0000

> <Gold.PLP.part.buried>
-3.2324

> <Gold.PLP.part.nonpolar>
-32.1864

> <Gold.PLP.part.repulsive>
0.1156

> <Gold.PLP.ligand.clash>
0.0000

> <Gold.PLP.ligand.torsion>
0.4547

> <Gold.PLP.Chemscore.Hbond>
4.0000

> <Gold.PLP.Chemscore.CHOScore>
0.0000

> <Gold.PLP.Chemscore.Metal>
0.0000

> <Gold.Chemscore.Hbonds>
donor molecule, donor type, donor heavy atom, donor atom, acceptor molecule, acceptor atom, score
      L1  H     5    45       P1 10747  1.00
      L1  H     9    33       P1  7948  1.00
      L1  H    12    34       P1  7948  0.99
      P1  H  7997  8010       L1    17  1.00

> <Gold.PLP.Chemscore.Internal.Correction>
0.0352

> <Gold.Rescore>
     Score         DG    S(hbond)    S(metal)    S(lipo)     H(rot)  DE(clash)    DE(int)     intcor
     20.81     -22.60       3.27        0.00      87.72       1.59       0.07       1.72       ----

> <Gold.Chemscore.Fitness>
20.8094

> <Gold.Chemscore.DG>
-22.5974

> <Gold.Chemscore.ZeroCoef>
-5.4800

> <Gold.Chemscore.Hbond>
3.2692

> <Gold.Chemscore.Metal>
0.0000

> <Gold.Chemscore.Lipo>
87.7186

> <Gold.Chemscore.Internal_Hbond>
0.0000

> <Gold.Chemscore.DEClash>
0.0726

> <Gold.Chemscore.DEInternal>
1.7155

> <Gold.Chemscore.Rot>
1.5879

> <Gold.Chemscore.Internal.Correction>
   9.000000E+99

> <Gold.Chemscore.Hbonds>
donor molecule, donor type, donor heavy atom, donor atom, acceptor molecule, acceptor atom, score
      L1  H     5    45       P1 10747  0.64
      L1  H     9    33       P1  7948  0.43
      L1  H    12    34       P1  7948  0.70
      P1  H  7997  8010       L1    17  0.42

> <Gold.Chemscore.Hbond.Weighted>
-10.9193

> <Gold.Chemscore.Metal.Weighted>
-0.0000

> <Gold.Chemscore.Lipo.Weighted>
-10.2631

> <Gold.Chemscore.Internal_Hbond.Weighted>
0.0000

> <Gold.Chemscore.DEClash.Weighted>
0.0726

> <Gold.Chemscore.DEInternal.Weighted>
1.7155

> <Gold.Chemscore.Rot.Weighted>
4.0649

> <Gold.Chemscore.Internal.Correction.Weighted>
   9.000000E+99

> <Gold.Protein.RotatedTorsions>
[ 6907 6896 6895 6894 ] final  -58.50 input  -60.11 | X-H torsion
[ 7974 7965 7964 7962 ] final   98.39 input  175.53 | X-H torsion
[ 8008 7997 7996 7995 ] final   27.15 input   59.86 | X-H torsion
[ 10167 10162 10161 10158 ] final  -85.16 input  -65.29 | X-H torsion
[ 10718 10713 10712 10709 ] final  -92.22 input   66.30 | X-H torsion
[ 10763 10752 10751 10750 ] final  -53.52 input  -60.55 | X-H torsion
[ 11005 11000 10999 10996 ] final   57.15 input  -57.11 | X-H torsion

> <Gold.Protein.ActiveResidues>
 VAL166  LYS551  ARG553  GLY616  TRP617  ASP618  TYR619  PRO620  LYS621  CYS622 
 ASP623  PHE694  ASN695  SER759  ASP760  ASP761  ALA762  ILE779  LEU786  VAL792 
 PHE793  MET794  SER795  GLU796  ALA797  LYS798  CYS799  TRP800  GLU811  SER814 

> <Gold.Protein.RotatedAtoms>
  150.8002  134.7091  159.6593 H   0  0  0  0  0  0  0  0  0  0  0  0  # atno 6907 bound_to 6896
  152.4118  134.6107  160.0034 H   0  0  0  0  0  0  0  0  0  0  0  0  # atno 6908 bound_to 6896
  151.6347  133.3292  159.3153 H   0  0  0  0  0  0  0  0  0  0  0  0  # atno 6909 bound_to 6896
  145.4128  139.2331  143.3239 H   0  0  0  0  0  0  0  0  0  0  0  0  # atno 7974 bound_to 7965
  155.0385  140.3166  155.4733 H   0  0  0  0  0  0  0  0  0  0  0  0  # atno 8008 bound_to 7997
  156.2860  140.2167  156.5451 H   0  0  0  0  0  0  0  0  0  0  0  0  # atno 8009 bound_to 7997
  154.7310  140.0481  157.0714 H   0  0  0  0  0  0  0  0  0  0  0  0  # atno 8010 bound_to 7997
  140.4064  143.2641  151.9075 H   0  0  0  0  0  0  0  0  0  0  0  0  # atno 10167 bound_to 10162
  156.0000  130.4978  150.5593 H   0  0  0  0  0  0  0  0  0  0  0  0  # atno 10718 bound_to 10713
  154.1602  135.6476  153.4984 H   0  0  0  0  0  0  0  0  0  0  0  0  # atno 10763 bound_to 10752
  153.0113  135.5359  154.6719 H   0  0  0  0  0  0  0  0  0  0  0  0  # atno 10764 bound_to 10752
  154.6030  135.2946  155.0486 H   0  0  0  0  0  0  0  0  0  0  0  0  # atno 10765 bound_to 10752
  140.0475  134.5785  155.9305 H   0  0  0  0  0  0  0  0  0  0  0  0  # atno 11005 bound_to 11000
  146.2696  140.4842  142.8820 LP  0  0  0  0  0  0  0  0  0  0  0  0  # atno 17320 bound_to 7965
  144.8297  140.6687  143.6299 LP  0  0  0  0  0  0  0  0  0  0  0  0  # atno 17321 bound_to 7965
  139.4783  144.5581  151.8281 LP  0  0  0  0  0  0  0  0  0  0  0  0  # atno 17342 bound_to 10162
  140.4685  144.1621  150.5915 LP  0  0  0  0  0  0  0  0  0  0  0  0  # atno 17343 bound_to 10162
  157.3504  131.0732  151.1717 LP  0  0  0  0  0  0  0  0  0  0  0  0  # atno 17370 bound_to 10713
  157.2536  130.6625  149.5942 LP  0  0  0  0  0  0  0  0  0  0  0  0  # atno 17371 bound_to 10713
  141.1914  133.6571  156.5454 LP  0  0  0  0  0  0  0  0  0  0  0  0  # atno 17394 bound_to 11000
  140.3971  134.7389  157.4757 LP  0  0  0  0  0  0  0  0  0  0  0  0  # atno 17395 bound_to 11000

$$$$
