AV-unprocessed.smi:654|AV-procd|sdf|3213|dock10
  -GOLD-   22720 0153D 1   1.00000     0.00000
 Structure written by MMmdl.
 48 50  0  0  0  0  0  0  0  0  2 V2000
  146.2042  137.6192  155.4588 O   0  0  0  0  0  0  0  0  0  0  0  0
  146.1903  138.6291  154.7542 C   0  0  0  0  0  0  0  0  0  0  0  0
  145.6175  138.6401  153.5386 N   0  0  0  0  0  0  0  0  0  0  0  0
  144.9448  137.5078  152.9084 C   0  0  0  0  0  0  0  0  0  0  0  0
  145.7141  136.9479  151.6950 C   0  0  0  0  0  0  0  0  0  0  0  0
  145.1710  135.6223  151.1893 C   0  0  0  0  0  0  0  0  0  0  0  0
  145.9504  134.4476  151.2716 C   0  0  0  0  0  0  0  0  0  0  0  0
  145.4236  133.2326  150.7856 C   0  0  0  0  0  0  0  0  0  0  0  0
  144.1281  133.2200  150.2290 C   0  0  0  0  0  0  0  0  0  0  0  0
  143.4114  134.3637  150.1682 N   0  3  0  0  0  0  0  0  0  0  0  0
  143.8798  135.5464  150.6226 C   0  0  0  0  0  0  0  0  0  0  0  0
  146.7499  139.8076  155.1308 N   0  0  0  0  0  0  0  0  0  0  0  0
  146.5055  141.1209  154.5141 C   0  0  0  0  0  0  0  0  0  0  0  0
  147.7099  141.4914  153.6397 C   0  0  0  0  0  0  0  0  0  0  0  0
  149.2140  141.6567  154.6492 S   0  0  0  0  0  0  0  0  0  0  0  0
  149.1924  140.0920  155.6053 C   0  0  0  0  0  0  0  0  0  0  0  0
  149.6128  138.8967  154.7073 C   0  0  0  0  0  0  0  0  0  0  0  0
  151.0883  138.9480  154.2711 C   0  0  0  0  0  0  0  0  0  0  0  0
  152.0258  139.0499  155.4809 C   0  0  0  0  0  0  0  0  0  0  0  0
  151.6612  140.2579  156.3530 C   0  0  0  0  0  0  0  0  0  0  0  0
  150.1857  140.2056  156.7891 C   0  0  0  0  0  0  0  0  0  0  0  0
  147.7674  139.8872  156.1894 C   0  0  0  0  0  0  0  0  0  0  0  0
  145.6539  139.4995  153.0101 H   0  0  0  0  0  0  0  0  0  0  0  0
  144.8477  136.7297  153.6657 H   0  0  0  0  0  0  0  0  0  0  0  0
  143.9292  137.7849  152.6213 H   0  0  0  0  0  0  0  0  0  0  0  0
  145.6921  137.6730  150.8806 H   0  0  0  0  0  0  0  0  0  0  0  0
  146.7662  136.8222  151.9532 H   0  0  0  0  0  0  0  0  0  0  0  0
  146.9422  134.4767  151.6991 H   0  0  0  0  0  0  0  0  0  0  0  0
  146.0052  132.3237  150.8388 H   0  0  0  0  0  0  0  0  0  0  0  0
  143.6474  132.3369  149.8339 H   0  0  0  0  0  0  0  0  0  0  0  0
  143.2145  136.3911  150.5146 H   0  0  0  0  0  0  0  0  0  0  0  0
  145.5911  141.1592  153.9219 H   0  0  0  0  0  0  0  0  0  0  0  0
  146.3649  141.8742  155.2905 H   0  0  0  0  0  0  0  0  0  0  0  0
  147.8709  140.7388  152.8673 H   0  0  0  0  0  0  0  0  0  0  0  0
  147.5305  142.4371  153.1284 H   0  0  0  0  0  0  0  0  0  0  0  0
  149.4450  137.9658  155.2507 H   0  0  0  0  0  0  0  0  0  0  0  0
  148.9859  138.8383  153.8181 H   0  0  0  0  0  0  0  0  0  0  0  0
  151.3315  138.0571  153.6916 H   0  0  0  0  0  0  0  0  0  0  0  0
  151.2521  139.7969  153.6067 H   0  0  0  0  0  0  0  0  0  0  0  0
  151.9604  138.1364  156.0736 H   0  0  0  0  0  0  0  0  0  0  0  0
  153.0605  139.1294  155.1461 H   0  0  0  0  0  0  0  0  0  0  0  0
  152.3040  140.2836  157.2333 H   0  0  0  0  0  0  0  0  0  0  0  0
  151.8594  141.1798  155.8057 H   0  0  0  0  0  0  0  0  0  0  0  0
  149.9537  141.0865  157.3888 H   0  0  0  0  0  0  0  0  0  0  0  0
  150.0558  139.3497  157.4531 H   0  0  0  0  0  0  0  0  0  0  0  0
  147.5199  140.7109  156.8608 H   0  0  0  0  0  0  0  0  0  0  0  0
  147.7522  139.0005  156.8255 H   0  0  0  0  0  0  0  0  0  0  0  0
  142.4758  134.3331  149.7619 H   0  0  0  0  0  0  0  0  0  0  0  0
  1  2  2  0  0  0  0
  2  3  1  0  0  0  0
  2 12  1  0  0  0  0
  3  4  1  0  0  0  0
  3 23  1  0  0  0  0
  4  5  1  0  0  0  0
  4 24  1  0  0  0  0
  4 25  1  0  0  0  0
  5  6  1  0  0  0  0
  5 26  1  0  0  0  0
  5 27  1  0  0  0  0
  6 11  1  0  0  0  0
  6  7  2  0  0  0  0
  7  8  1  0  0  0  0
  7 28  1  0  0  0  0
  8  9  2  0  0  0  0
  8 29  1  0  0  0  0
  9 10  1  0  0  0  0
  9 30  1  0  0  0  0
 10 11  2  0  0  0  0
 10 48  1  0  0  0  0
 11 31  1  0  0  0  0
 12 22  1  0  0  0  0
 12 13  1  0  0  0  0
 13 14  1  0  0  0  0
 13 32  1  0  0  0  0
 13 33  1  0  0  0  0
 14 15  1  0  0  0  0
 14 34  1  0  0  0  0
 14 35  1  0  0  0  0
 15 16  1  0  0  0  0
 16 21  1  0  0  0  0
 16 17  1  0  0  0  0
 16 22  1  0  0  0  0
 17 18  1  0  0  0  0
 17 36  1  0  0  0  0
 17 37  1  0  0  0  0
 18 19  1  0  0  0  0
 18 38  1  0  0  0  0
 18 39  1  0  0  0  0
 19 20  1  0  0  0  0
 19 40  1  0  0  0  0
 19 41  1  0  0  0  0
 20 21  1  0  0  0  0
 20 42  1  0  0  0  0
 20 43  1  0  0  0  0
 21 44  1  0  0  0  0
 21 45  1  0  0  0  0
 22 46  1  0  0  0  0
 22 47  1  0  0  0  0
M  CHG  1  10   1
M  END
> <s_m_source_file>
AV-unprocessed.smi

> <i_m_source_file_index>
654

> <i_lp_mmshare_version>
43012

> <i_f3d_flags>
0

> <s_epik_input>
W2NIXTFuW2NIXVtjSF1bY0hdYzFbQ0gyXVtDSDJdW05IXUMoPU8pTihbQ0gyXTIpW0NIMl1bQ0gyXVNDMjNbQ0gyXVtDSDJdW0NIMl1bQ0gyXVtDSDJdMw==

> <s_epik_cmdline>
J2VwaWtfcHl0aG9uJywgJy1waCcsICc3LjAnLCAnLXRuJywgJzgnLCAnLW1hJywgJzIwMCcsICctbWV0YWxfYmluZGluZycsICctaW1hZScsICc8aW5maWxlLm1hZT4nLCAnLW9tYWUnLCAnPG91dGZpbGUubWFlPic=

> <r_epik_Ionization_Penalty>
2.2093

> <r_epik_Ionization_Penalty_Charging>
2.20925

> <r_epik_Ionization_Penalty_Neutral>
4.66963e-05

> <r_epik_State_Penalty>
2.35335

> <r_epik_Charging_Adjusted_Penalty>
4.5626

> <i_epik_Tot_Q>
1

> <i_epik_Tot_abs_Q>
1

> <r_epik_Metal_State_Penalty>
2.36748

> <b_epik_Metal_Only>
0

> <s_lp_Force_Field>
OPLS_2005

> <r_lp_Energy>
39.5462

> <b_lp_Chiralities_Consistent>
1

> <s_lp_Variant>
AV-unprocessed.smi:654-2

> <Gold.Version>
5.8.1

> <Gold.Id.Protein>
6NUR|6NUR_protein|mol2

> <Gold.PLP.Fitness>
43.1538

> <Gold.PLP.PLP>
-37.4229

> <Gold.PLP.part.hbond>
-2.0000

> <Gold.PLP.part.metal>
0.0000

> <Gold.PLP.part.buried>
-2.6615

> <Gold.PLP.part.nonpolar>
-32.2749

> <Gold.PLP.part.repulsive>
0.0487

> <Gold.PLP.ligand.clash>
0.0000

> <Gold.PLP.ligand.torsion>
0.2404

> <Gold.PLP.Chemscore.Hbond>
2.0686

> <Gold.PLP.Chemscore.CHOScore>
0.0000

> <Gold.PLP.Chemscore.Metal>
0.0000

> <Gold.Chemscore.Hbonds>
donor molecule, donor type, donor heavy atom, donor atom, acceptor molecule, acceptor atom, score
      L1  H     3    23       P1 10175  0.15
      L1  H    10    48       P1 10186  1.76

> <Gold.PLP.Chemscore.Internal.Correction>
0.0058

> <Gold.Rescore>
     Score         DG    S(hbond)    S(metal)    S(lipo)     H(rot)  DE(clash)    DE(int)     intcor
     16.46     -17.41       0.93        0.00     103.78       1.30       0.49       0.46       ----

> <Gold.Chemscore.Fitness>
16.4623

> <Gold.Chemscore.DG>
-17.4138

> <Gold.Chemscore.ZeroCoef>
-5.4800

> <Gold.Chemscore.Hbond>
0.9305

> <Gold.Chemscore.Metal>
0.0000

> <Gold.Chemscore.Lipo>
103.7756

> <Gold.Chemscore.Internal_Hbond>
0.0000

> <Gold.Chemscore.DEClash>
0.4930

> <Gold.Chemscore.DEInternal>
0.4585

> <Gold.Chemscore.Rot>
1.2953

> <Gold.Chemscore.Internal.Correction>
   9.000000E+99

> <Gold.Chemscore.Hbonds>
donor molecule, donor type, donor heavy atom, donor atom, acceptor molecule, acceptor atom, score
      L1  H     3    23       P1 10175  0.14
      L1  H    10    48       P1 10186  0.84

> <Gold.Chemscore.Hbond.Weighted>
-3.1079

> <Gold.Chemscore.Metal.Weighted>
-0.0000

> <Gold.Chemscore.Lipo.Weighted>
-12.1417

> <Gold.Chemscore.Internal_Hbond.Weighted>
0.0000

> <Gold.Chemscore.DEClash.Weighted>
0.4930

> <Gold.Chemscore.DEInternal.Weighted>
0.4585

> <Gold.Chemscore.Rot.Weighted>
3.3159

> <Gold.Chemscore.Internal.Correction.Weighted>
   9.000000E+99

> <Gold.Protein.RotatedTorsions>
[ 6907 6896 6895 6894 ] final -111.37 input  -60.11 | X-H torsion
[ 7974 7965 7964 7962 ] final  134.88 input  175.53 | X-H torsion
[ 8008 7997 7996 7995 ] final   32.98 input   59.86 | X-H torsion
[ 10167 10162 10161 10158 ] final  153.35 input  -65.29 | X-H torsion
[ 10718 10713 10712 10709 ] final  -69.91 input   66.30 | X-H torsion
[ 10763 10752 10751 10750 ] final  157.94 input  -60.55 | X-H torsion
[ 11005 11000 10999 10996 ] final -157.32 input  -57.11 | X-H torsion

> <Gold.Protein.ActiveResidues>
 VAL166  LYS551  ARG553  GLY616  TRP617  ASP618  TYR619  PRO620  LYS621  CYS622 
 ASP623  PHE694  ASN695  SER759  ASP760  ASP761  ALA762  ILE779  LEU786  VAL792 
 PHE793  MET794  SER795  GLU796  ALA797  LYS798  CYS799  TRP800  GLU811  SER814 

> <Gold.Protein.RotatedAtoms>
  150.7686  133.9245  159.3407 H   0  0  0  0  0  0  0  0  0  0  0  0  # atno 6907 bound_to 6896
  151.7137  135.0906  160.0281 H   0  0  0  0  0  0  0  0  0  0  0  0  # atno 6908 bound_to 6896
  152.3693  133.6360  159.6111 H   0  0  0  0  0  0  0  0  0  0  0  0  # atno 6909 bound_to 6896
  144.9719  139.4596  143.5429 H   0  0  0  0  0  0  0  0  0  0  0  0  # atno 7974 bound_to 7965
  155.1312  140.3257  155.4474 H   0  0  0  0  0  0  0  0  0  0  0  0  # atno 8008 bound_to 7997
  156.2634  140.2010  156.6380 H   0  0  0  0  0  0  0  0  0  0  0  0  # atno 8009 bound_to 7997
  154.6611  140.0547  157.0050 H   0  0  0  0  0  0  0  0  0  0  0  0  # atno 8010 bound_to 7997
  139.4827  144.5280  151.7769 H   0  0  0  0  0  0  0  0  0  0  0  0  # atno 10167 bound_to 10162
  156.0432  130.4321  150.2218 H   0  0  0  0  0  0  0  0  0  0  0  0  # atno 10718 bound_to 10713
  154.2081  135.2787  155.2968 H   0  0  0  0  0  0  0  0  0  0  0  0  # atno 10763 bound_to 10752
  154.5800  135.5592  153.7180 H   0  0  0  0  0  0  0  0  0  0  0  0  # atno 10764 bound_to 10752
  153.0071  135.6342  154.2220 H   0  0  0  0  0  0  0  0  0  0  0  0  # atno 10765 bound_to 10752
  140.6659  134.4299  157.5233 H   0  0  0  0  0  0  0  0  0  0  0  0  # atno 11005 bound_to 11000
  146.3384  139.8937  142.8805 LP  0  0  0  0  0  0  0  0  0  0  0  0  # atno 17320 bound_to 7965
  145.2546  141.0056  143.3861 LP  0  0  0  0  0  0  0  0  0  0  0  0  # atno 17321 bound_to 7965
  140.4803  144.1459  150.5931 LP  0  0  0  0  0  0  0  0  0  0  0  0  # atno 17342 bound_to 10162
  140.4285  143.2579  151.9625 LP  0  0  0  0  0  0  0  0  0  0  0  0  # atno 17343 bound_to 10162
  157.0311  131.0007  151.3312 LP  0  0  0  0  0  0  0  0  0  0  0  0  # atno 17370 bound_to 10713
  157.5277  130.8038  149.7881 LP  0  0  0  0  0  0  0  0  0  0  0  0  # atno 17371 bound_to 10713
  139.8997  134.8584  156.1948 LP  0  0  0  0  0  0  0  0  0  0  0  0  # atno 17394 bound_to 11000
  141.0429  133.6928  156.1631 LP  0  0  0  0  0  0  0  0  0  0  0  0  # atno 17395 bound_to 11000

$$$$
