AV-unprocessed.smi:72|AV-procd|sdf|724|dock1
  -GOLD-   2262017 53D 1   1.00000     0.00000
 Structure written by MMmdl.
 28 29  0  0  0  0  0  0  0  0  2 V2000
  153.5987  137.1014  156.1120 N   0  0  0  0  0  0  0  0  0  0  0  0
  152.8163  138.0568  155.8595 C   0  0  0  0  0  0  0  0  0  0  0  0
  152.0379  138.0563  154.6408 N   0  0  0  0  0  0  0  0  0  0  0  0
  151.2224  139.0460  154.4432 C   0  0  0  0  0  0  0  0  0  0  0  0
  151.0669  140.1243  155.4143 N   0  0  0  0  0  0  0  0  0  0  0  0
  150.1143  141.2922  155.2002 C   0  0  1  0  0  0  0  0  0  0  0  0
  149.3605  141.0894  154.0387 O   0  0  0  0  0  0  0  0  0  0  0  0
  148.0835  140.5560  154.3775 C   0  0  2  0  0  0  0  0  0  0  0  0
  147.0872  140.7165  153.2164 C   0  0  0  0  0  0  0  0  0  0  0  0
  147.3660  139.7666  152.2101 O   0  0  0  0  0  0  0  0  0  0  0  0
  147.7482  141.3289  155.6564 C   0  0  2  0  0  0  0  0  0  0  0  0
  147.2317  142.6119  155.3412 O   0  0  0  0  0  0  0  0  0  0  0  0
  149.1022  141.3963  156.3631 C   0  0  2  0  0  0  0  0  0  0  0  0
  149.2515  142.5730  157.1358 O   0  0  0  0  0  0  0  0  0  0  0  0
  151.8831  140.1200  156.5780 C   0  0  0  0  0  0  0  0  0  0  0  0
  151.7806  141.0639  157.3622 O   0  0  0  0  0  0  0  0  0  0  0  0
  152.7400  139.0801  156.7772 N   0  5  0  0  0  0  0  0  0  0  0  0
  150.7545  142.1669  155.0720 H   0  0  0  0  0  0  0  0  0  0  0  0
  148.1857  139.5006  154.6374 H   0  0  0  0  0  0  0  0  0  0  0  0
  147.0075  140.8059  156.2622 H   0  0  0  0  0  0  0  0  0  0  0  0
  149.2080  140.5266  157.0137 H   0  0  0  0  0  0  0  0  0  0  0  0
  154.0816  137.2244  156.9899 H   0  0  0  0  0  0  0  0  0  0  0  0
  150.6130  139.1236  153.5431 H   0  0  0  0  0  0  0  0  0  0  0  0
  146.0705  140.5344  153.5656 H   0  0  0  0  0  0  0  0  0  0  0  0
  147.1150  141.7244  152.8013 H   0  0  0  0  0  0  0  0  0  0  0  0
  148.1012  140.0773  151.7038 H   0  0  0  0  0  0  0  0  0  0  0  0
  147.9207  143.2460  155.4718 H   0  0  0  0  0  0  0  0  0  0  0  0
  149.1749  143.3168  156.5566 H   0  0  0  0  0  0  0  0  0  0  0  0
  1  2  2  0  0  0  0
  1 22  1  0  0  0  0
  2 17  1  0  0  0  0
  2  3  1  0  0  0  0
  3  4  2  0  0  0  0
  4  5  1  0  0  0  0
  4 23  1  0  0  0  0
  5  6  1  0  0  0  0
  5 15  1  0  0  0  0
  6 18  1  0  0  0  0
  6 13  1  0  0  0  0
  6  7  1  0  0  0  0
  7  8  1  0  0  0  0
  8 19  1  0  0  0  0
  8  9  1  0  0  0  0
  8 11  1  0  0  0  0
  9 10  1  0  0  0  0
  9 24  1  0  0  0  0
  9 25  1  0  0  0  0
 10 26  1  0  0  0  0
 11 20  1  0  0  0  0
 11 12  1  0  0  0  0
 11 13  1  0  0  0  0
 12 27  1  0  0  0  0
 13 21  1  0  0  0  0
 13 14  1  0  0  0  0
 14 28  1  0  0  0  0
 15 16  2  0  0  0  0
 15 17  1  0  0  0  0
M  CHG  1  17  -1
M  END
> <s_m_source_file>
AV-unprocessed.smi

> <i_m_source_file_index>
72

> <i_lp_mmshare_version>
43012

> <i_f3d_flags>
0

> <s_epik_input>
W05IMl1jMW5bY0hdbihjKD1PKW4xKVtDQEBIXTJPW0NASF0oW0NIMl1bT0hdKVtDQEBIXShbT0hdKVtDQEhdMltPSF0=

> <s_epik_cmdline>
J2VwaWtfcHl0aG9uJywgJy1waCcsICc3LjAnLCAnLXRuJywgJzgnLCAnLW1hJywgJzIwMCcsICctbWV0YWxfYmluZGluZycsICctaW1hZScsICc8aW5maWxlLm1hZT4nLCAnLW9tYWUnLCAnPG91dGZpbGUubWFlPic=

> <r_lp_tautomer_probability>
7.17554e-07

> <r_epik_Ionization_Penalty>
12.8705

> <r_epik_Ionization_Penalty_Charging>
5.64144

> <r_epik_Ionization_Penalty_Neutral>
7.22905

> <r_epik_State_Penalty>
3.30104

> <r_epik_Charging_Adjusted_Penalty>
8.94249

> <i_epik_Tot_Q>
-1

> <i_epik_Tot_abs_Q>
1

> <r_epik_Metal_State_Penalty>
0.529074

> <b_epik_Metal_Only>
1

> <s_epik_Chemistry_Notes>
This compound contains an acetal/aminal-like group ( X-CH(R)-Y where X, Y are N, S, or O) that may be acid/base labile, releasing an aldehyde.

> <s_lp_Force_Field>
OPLS_2005

> <r_lp_Energy>
35.695

> <b_lp_Chiralities_Consistent>
1

> <s_lp_Variant>
AV-unprocessed.smi:72-62

> <Gold.Version>
5.8.1

> <Gold.Id.Protein>
6NUR|6NUR_protein|mol2

> <Gold.PLP.Fitness>
45.6952

> <Gold.PLP.PLP>
-26.2765

> <Gold.PLP.part.hbond>
-6.6183

> <Gold.PLP.part.metal>
0.0000

> <Gold.PLP.part.buried>
-0.1644

> <Gold.PLP.part.nonpolar>
-17.4182

> <Gold.PLP.part.repulsive>
0.6338

> <Gold.PLP.ligand.clash>
0.0000

> <Gold.PLP.ligand.torsion>
0.1149

> <Gold.PLP.Chemscore.Hbond>
5.9223

> <Gold.PLP.Chemscore.CHOScore>
0.6193

> <Gold.PLP.Chemscore.Metal>
0.0000

> <Gold.Chemscore.Hbonds>
donor molecule, donor type, donor heavy atom, donor atom, acceptor molecule, acceptor atom, score
      L1  H    10    26       P1  7957  1.00
      L1  H    12    27       P1  8028  1.00
      L1  H    14    28       P1  8028  1.00
      P1  H  7997  8010       L1    17  1.90
      P1  H  8011  8017       L1     7  0.48
      P1  H 10752 10763       L1     1  0.43
      L1  C     4    23       P1  7957  0.50

> <Gold.PLP.Chemscore.Internal.Correction>
0.0236

> <Gold.Rescore>
     Score         DG    S(hbond)    S(metal)    S(lipo)     H(rot)  DE(clash)    DE(int)     intcor
      7.07      -9.97       3.68        0.00      21.64       4.04       0.27       2.63       ----

> <Gold.Chemscore.Fitness>
7.0723

> <Gold.Chemscore.DG>
-9.9699

> <Gold.Chemscore.ZeroCoef>
-5.4800

> <Gold.Chemscore.Hbond>
3.6829

> <Gold.Chemscore.Metal>
0.0000

> <Gold.Chemscore.Lipo>
21.6416

> <Gold.Chemscore.Internal_Hbond>
0.0000

> <Gold.Chemscore.DEClash>
0.2717

> <Gold.Chemscore.DEInternal>
2.6260

> <Gold.Chemscore.Rot>
4.0403

> <Gold.Chemscore.Internal.Correction>
   9.000000E+99

> <Gold.Chemscore.Hbonds>
donor molecule, donor type, donor heavy atom, donor atom, acceptor molecule, acceptor atom, score
      L1  H    10    26       P1  7957  0.95
      L1  H    12    27       P1  8028  0.60
      L1  H    14    28       P1  8028  0.99
      P1  H  7997  8010       L1    17  0.14
      P1  H  8011  8017       L1     7  0.44
      P1  H 10752 10763       L1     1  0.36

> <Gold.Chemscore.Hbond.Weighted>
-12.3009

> <Gold.Chemscore.Metal.Weighted>
-0.0000

> <Gold.Chemscore.Lipo.Weighted>
-2.5321

> <Gold.Chemscore.Internal_Hbond.Weighted>
0.0000

> <Gold.Chemscore.DEClash.Weighted>
0.2717

> <Gold.Chemscore.DEInternal.Weighted>
2.6260

> <Gold.Chemscore.Rot.Weighted>
10.3431

> <Gold.Chemscore.Internal.Correction.Weighted>
   9.000000E+99

> <Gold.Protein.RotatedTorsions>
[ 6907 6896 6895 6894 ] final   21.78 input  -60.11 | X-H torsion
[ 7974 7965 7964 7962 ] final -120.97 input  175.53 | X-H torsion
[ 8008 7997 7996 7995 ] final   53.99 input   59.86 | X-H torsion
[ 10167 10162 10161 10158 ] final  -12.48 input  -65.29 | X-H torsion
[ 10718 10713 10712 10709 ] final  -80.94 input   66.30 | X-H torsion
[ 10763 10752 10751 10750 ] final  136.11 input  -60.55 | X-H torsion
[ 11005 11000 10999 10996 ] final   57.26 input  -57.11 | X-H torsion

> <Gold.Protein.ActiveResidues>
 VAL166  LYS551  ARG553  GLY616  TRP617  ASP618  TYR619  PRO620  LYS621  CYS622 
 ASP623  PHE694  ASN695  SER759  ASP760  ASP761  ALA762  ILE779  LEU786  VAL792 
 PHE793  MET794  SER795  GLU796  ALA797  LYS798  CYS799  TRP800  GLU811  SER814 

> <Gold.Protein.RotatedAtoms>
  151.9170  135.0314  160.0518 H   0  0  0  0  0  0  0  0  0  0  0  0  # atno 6907 bound_to 6896
  152.2231  133.4995  159.5182 H   0  0  0  0  0  0  0  0  0  0  0  0  # atno 6908 bound_to 6896
  150.7005  134.1232  159.4085 H   0  0  0  0  0  0  0  0  0  0  0  0  # atno 6909 bound_to 6896
  145.0455  140.8178  143.4241 H   0  0  0  0  0  0  0  0  0  0  0  0  # atno 7974 bound_to 7965
  155.4774  140.3467  155.4334 H   0  0  0  0  0  0  0  0  0  0  0  0  # atno 8008 bound_to 7997
  156.1061  140.1448  156.9431 H   0  0  0  0  0  0  0  0  0  0  0  0  # atno 8009 bound_to 7997
  154.4725  140.0896  156.7159 H   0  0  0  0  0  0  0  0  0  0  0  0  # atno 8010 bound_to 7997
  140.7162  143.5527  150.9283 H   0  0  0  0  0  0  0  0  0  0  0  0  # atno 10167 bound_to 10162
  156.0060  130.4589  150.3877 H   0  0  0  0  0  0  0  0  0  0  0  0  # atno 10718 bound_to 10713
  153.8511  135.3079  155.3432 H   0  0  0  0  0  0  0  0  0  0  0  0  # atno 10763 bound_to 10752
  154.7891  135.4793  154.0014 H   0  0  0  0  0  0  0  0  0  0  0  0  # atno 10764 bound_to 10752
  153.1518  135.6844  153.8965 H   0  0  0  0  0  0  0  0  0  0  0  0  # atno 10765 bound_to 10752
  140.0466  134.5796  155.9314 H   0  0  0  0  0  0  0  0  0  0  0  0  # atno 11005 bound_to 11000
  145.1593  139.2467  143.5400 LP  0  0  0  0  0  0  0  0  0  0  0  0  # atno 17320 bound_to 7965
  146.3513  140.1317  142.8597 LP  0  0  0  0  0  0  0  0  0  0  0  0  # atno 17321 bound_to 7965
  139.9252  143.6559  152.3088 LP  0  0  0  0  0  0  0  0  0  0  0  0  # atno 17342 bound_to 10162
  139.6990  144.7637  151.1307 LP  0  0  0  0  0  0  0  0  0  0  0  0  # atno 17343 bound_to 10162
  157.1954  131.0425  151.2678 LP  0  0  0  0  0  0  0  0  0  0  0  0  # atno 17370 bound_to 10713
  157.4024  130.7340  149.6777 LP  0  0  0  0  0  0  0  0  0  0  0  0  # atno 17371 bound_to 10713
  141.1910  133.6570  156.5437 LP  0  0  0  0  0  0  0  0  0  0  0  0  # atno 17394 bound_to 11000
  140.3983  134.7379  157.4764 LP  0  0  0  0  0  0  0  0  0  0  0  0  # atno 17395 bound_to 11000

$$$$
