AV-unprocessed.smi:87|AV-procd|sdf|821|dock2
  -GOLD-   2262017223D 1   1.00000     0.00000
 Structure written by MMmdl.
 58 60  0  0  0  0  0  0  0  0  1 V2000
  152.5778  144.3582  157.8720 C   0  0  0  0  0  0  0  0  0  0  0  0
  152.1497  142.8928  157.7033 C   0  0  0  0  0  0  0  0  0  0  0  0
  152.0216  142.1083  159.0306 C   0  0  0  0  0  0  0  0  0  0  0  0
  153.2106  142.3967  159.9752 C   0  0  0  0  0  0  0  0  0  0  0  0
  153.0387  141.8271  161.3910 C   0  0  0  0  0  0  0  0  0  0  0  0
  151.8988  140.5880  158.7539 C   0  0  0  0  0  0  0  0  0  0  0  0
  151.5276  140.2622  157.3742 N   0  0  0  0  0  0  0  0  0  0  0  0
  152.2489  139.1587  156.7436 C   0  0  0  0  0  0  0  0  0  0  0  0
  152.0168  139.0865  155.2271 C   0  0  0  0  0  0  0  0  0  0  0  0
  151.9949  137.7033  154.7302 C   0  0  0  0  0  0  0  0  0  0  0  0
  151.9776  136.6145  154.3398 N   0  0  0  0  0  0  0  0  0  0  0  0
  150.2145  140.3103  157.0301 C   0  0  0  0  0  0  0  0  0  0  0  0
  149.7280  141.3805  156.3456 N   0  0  0  0  0  0  0  0  0  0  0  0
  148.4291  141.4521  156.0400 C   0  0  0  0  0  0  0  0  0  0  0  0
  147.4557  140.5859  156.3268 N   0  0  0  0  0  0  0  0  0  0  0  0
  147.9384  139.5100  157.0113 C   0  0  0  0  0  0  0  0  0  0  0  0
  149.2915  139.2905  157.3927 C   0  0  0  0  0  0  0  0  0  0  0  0
  149.4044  138.0784  158.0636 N   0  0  0  0  0  0  0  0  0  0  0  0
  148.1832  137.6203  158.1007 C   0  0  0  0  0  0  0  0  0  0  0  0
  147.2375  138.4256  157.5076 N   0  0  0  0  0  0  0  0  0  0  0  0
  145.8090  138.1813  157.4363 C   0  0  0  0  0  0  0  0  0  0  0  0
  145.0874  138.4025  158.7849 C   0  0  1  0  0  0  0  0  0  0  0  0
  143.7118  138.5568  158.4990 O   0  0  0  0  0  0  0  0  0  0  0  0
  145.2673  137.2614  159.8139 C   0  0  2  0  0  0  0  0  0  0  0  0
  144.3342  137.3528  161.0251 C   0  0  0  0  0  0  0  0  0  0  0  0
  145.0979  136.5746  162.0711 C   0  0  0  0  0  0  0  0  0  0  0  0
  146.5308  137.0038  161.7822 C   0  0  0  0  0  0  0  0  0  0  0  0
  146.5761  137.2810  160.3863 O   0  0  0  0  0  0  0  0  0  0  0  0
  152.5530  144.8768  156.9135 H   0  0  0  0  0  0  0  0  0  0  0  0
  153.5915  144.4479  158.2603 H   0  0  0  0  0  0  0  0  0  0  0  0
  151.9082  144.8883  158.5499 H   0  0  0  0  0  0  0  0  0  0  0  0
  151.1890  142.8986  157.1880 H   0  0  0  0  0  0  0  0  0  0  0  0
  152.8422  142.3810  157.0342 H   0  0  0  0  0  0  0  0  0  0  0  0
  151.1171  142.4532  159.5320 H   0  0  0  0  0  0  0  0  0  0  0  0
  154.1344  142.0173  159.5370 H   0  0  0  0  0  0  0  0  0  0  0  0
  153.3492  143.4718  160.0785 H   0  0  0  0  0  0  0  0  0  0  0  0
  153.8599  142.1445  162.0338 H   0  0  0  0  0  0  0  0  0  0  0  0
  153.0279  140.7379  161.3958 H   0  0  0  0  0  0  0  0  0  0  0  0
  152.1108  142.1755  161.8451 H   0  0  0  0  0  0  0  0  0  0  0  0
  152.8498  140.1073  158.9863 H   0  0  0  0  0  0  0  0  0  0  0  0
  151.1681  140.1299  159.4194 H   0  0  0  0  0  0  0  0  0  0  0  0
  153.3165  139.2357  156.9470 H   0  0  0  0  0  0  0  0  0  0  0  0
  151.9279  138.2244  157.2049 H   0  0  0  0  0  0  0  0  0  0  0  0
  151.0696  139.5534  154.9580 H   0  0  0  0  0  0  0  0  0  0  0  0
  152.8046  139.6131  154.6883 H   0  0  0  0  0  0  0  0  0  0  0  0
  148.1256  142.3335  155.4947 H   0  0  0  0  0  0  0  0  0  0  0  0
  147.9354  136.6848  158.5808 H   0  0  0  0  0  0  0  0  0  0  0  0
  145.3908  138.8359  156.6706 H   0  0  0  0  0  0  0  0  0  0  0  0
  145.6543  137.1580  157.0910 H   0  0  0  0  0  0  0  0  0  0  0  0
  145.4328  139.3363  159.2299 H   0  0  0  0  0  0  0  0  0  0  0  0
  143.5307  138.1469  157.6671 H   0  0  0  0  0  0  0  0  0  0  0  0
  145.1281  136.2926  159.3313 H   0  0  0  0  0  0  0  0  0  0  0  0
  144.2186  138.3895  161.3450 H   0  0  0  0  0  0  0  0  0  0  0  0
  143.3425  136.9434  160.8305 H   0  0  0  0  0  0  0  0  0  0  0  0
  144.7824  136.7971  163.0906 H   0  0  0  0  0  0  0  0  0  0  0  0
  144.9824  135.5033  161.9005 H   0  0  0  0  0  0  0  0  0  0  0  0
  146.7724  137.9195  162.3228 H   0  0  0  0  0  0  0  0  0  0  0  0
  147.2594  136.2426  162.0617 H   0  0  0  0  0  0  0  0  0  0  0  0
  1  2  1  0  0  0  0
  1 29  1  0  0  0  0
  1 30  1  0  0  0  0
  1 31  1  0  0  0  0
  2  3  1  0  0  0  0
  2 32  1  0  0  0  0
  2 33  1  0  0  0  0
  3  4  1  0  0  0  0
  3  6  1  0  0  0  0
  3 34  1  0  0  0  0
  4  5  1  0  0  0  0
  4 35  1  0  0  0  0
  4 36  1  0  0  0  0
  5 37  1  0  0  0  0
  5 38  1  0  0  0  0
  5 39  1  0  0  0  0
  6  7  1  0  0  0  0
  6 40  1  0  0  0  0
  6 41  1  0  0  0  0
  7  8  1  0  0  0  0
  7 12  1  0  0  0  0
  8  9  1  0  0  0  0
  8 42  1  0  0  0  0
  8 43  1  0  0  0  0
  9 10  1  0  0  0  0
  9 44  1  0  0  0  0
  9 45  1  0  0  0  0
 10 11  3  0  0  0  0
 12 17  1  0  0  0  0
 12 13  2  0  0  0  0
 13 14  1  0  0  0  0
 14 15  2  0  0  0  0
 14 46  1  0  0  0  0
 15 16  1  0  0  0  0
 16 20  1  0  0  0  0
 16 17  2  0  0  0  0
 17 18  1  0  0  0  0
 18 19  2  0  0  0  0
 19 20  1  0  0  0  0
 19 47  1  0  0  0  0
 20 21  1  0  0  0  0
 21 22  1  0  0  0  0
 21 48  1  0  0  0  0
 21 49  1  0  0  0  0
 22 23  1  0  0  0  0
 22 24  1  0  0  0  0
 22 50  1  0  0  0  0
 23 51  1  0  0  0  0
 24 28  1  0  0  0  0
 24 25  1  0  0  0  0
 24 52  1  0  0  0  0
 25 26  1  0  0  0  0
 25 53  1  0  0  0  0
 25 54  1  0  0  0  0
 26 27  1  0  0  0  0
 26 55  1  0  0  0  0
 26 56  1  0  0  0  0
 27 28  1  0  0  0  0
 27 57  1  0  0  0  0
 27 58  1  0  0  0  0
M  END
> <s_m_source_file>
AV-unprocessed.smi

> <i_m_source_file_index>
87

> <i_lp_mmshare_version>
43012

> <i_f3d_flags>
0

> <s_epik_input>
W0NIM11bQ0gyXVtDSF0oW0NIMl1bQ0gzXSlbQ0gyXU4oW0NIMl1bQ0gyXUMjTiljKG5bY0hdbjEpYyhjMTIpbltjSF1uMltDSDJdW0NASF0oW09IXSlbQ0BASF0zW0NIMl1bQ0gyXVtDSDJdTzM=

> <s_epik_cmdline>
J2VwaWtfcHl0aG9uJywgJy1waCcsICc3LjAnLCAnLXRuJywgJzgnLCAnLW1hJywgJzIwMCcsICctbWV0YWxfYmluZGluZycsICctaW1hZScsICc8aW5maWxlLm1hZT4nLCAnLW9tYWUnLCAnPG91dGZpbGUubWFlPic=

> <r_lp_tautomer_probability>
1

> <r_epik_Ionization_Penalty>
0.000348566

> <r_epik_Ionization_Penalty_Charging>
0

> <r_epik_Ionization_Penalty_Neutral>
0.000348566

> <r_epik_State_Penalty>
-0

> <r_epik_Charging_Adjusted_Penalty>
0

> <i_epik_Tot_Q>
0

> <i_epik_Tot_abs_Q>
0

> <r_epik_Metal_State_Penalty>
-0

> <b_epik_Metal_Only>
0

> <s_lp_Force_Field>
OPLS_2005

> <r_lp_Energy>
32.9267

> <b_lp_Chiralities_Consistent>
1

> <s_lp_Variant>
AV-unprocessed.smi:87-2

> <Gold.Version>
5.8.1

> <Gold.Id.Protein>
6NUR|6NUR_protein|mol2

> <Gold.PLP.Fitness>
48.5747

> <Gold.PLP.PLP>
-42.9801

> <Gold.PLP.part.hbond>
-2.0000

> <Gold.PLP.part.metal>
0.0000

> <Gold.PLP.part.buried>
-5.8001

> <Gold.PLP.part.nonpolar>
-35.7190

> <Gold.PLP.part.repulsive>
0.2899

> <Gold.PLP.ligand.clash>
0.0000

> <Gold.PLP.ligand.torsion>
2.1623

> <Gold.PLP.Chemscore.Hbond>
2.0000

> <Gold.PLP.Chemscore.CHOScore>
1.0000

> <Gold.PLP.Chemscore.Metal>
0.0000

> <Gold.Chemscore.Hbonds>
donor molecule, donor type, donor heavy atom, donor atom, acceptor molecule, acceptor atom, score
      P1  H  6934  6947       L1    28  0.25
      P1  H 10752 10765       L1    11  0.57
      L1  C    14    46       P1  8028  1.00

> <Gold.PLP.Chemscore.Internal.Correction>
0.9192

> <Gold.Rescore>
     Score         DG    S(hbond)    S(metal)    S(lipo)     H(rot)  DE(clash)    DE(int)     intcor
     10.82     -13.66       1.83        0.00      97.38       3.64       0.05       2.78       ----

> <Gold.Chemscore.Fitness>
10.8235

> <Gold.Chemscore.DG>
-13.6598

> <Gold.Chemscore.ZeroCoef>
-5.4800

> <Gold.Chemscore.Hbond>
1.8255

> <Gold.Chemscore.Metal>
0.0000

> <Gold.Chemscore.Lipo>
97.3751

> <Gold.Chemscore.Internal_Hbond>
0.0000

> <Gold.Chemscore.DEClash>
0.0530

> <Gold.Chemscore.DEInternal>
2.7833

> <Gold.Chemscore.Rot>
3.6368

> <Gold.Chemscore.Internal.Correction>
   9.000000E+99

> <Gold.Chemscore.Hbonds>
donor molecule, donor type, donor heavy atom, donor atom, acceptor molecule, acceptor atom, score
      P1  H 10752 10765       L1    11  0.56

> <Gold.Chemscore.Hbond.Weighted>
-6.0971

> <Gold.Chemscore.Metal.Weighted>
-0.0000

> <Gold.Chemscore.Lipo.Weighted>
-11.3929

> <Gold.Chemscore.Internal_Hbond.Weighted>
0.0000

> <Gold.Chemscore.DEClash.Weighted>
0.0530

> <Gold.Chemscore.DEInternal.Weighted>
2.7833

> <Gold.Chemscore.Rot.Weighted>
9.3102

> <Gold.Chemscore.Internal.Correction.Weighted>
   9.000000E+99

> <Gold.Protein.RotatedTorsions>
[ 6907 6896 6895 6894 ] final -135.40 input  -60.11 | X-H torsion
[ 7974 7965 7964 7962 ] final   60.33 input  175.53 | X-H torsion
[ 8008 7997 7996 7995 ] final  126.86 input   59.86 | X-H torsion
[ 10167 10162 10161 10158 ] final  -14.59 input  -65.29 | X-H torsion
[ 10718 10713 10712 10709 ] final   95.69 input   66.30 | X-H torsion
[ 10763 10752 10751 10750 ] final  158.04 input  -60.55 | X-H torsion
[ 11005 11000 10999 10996 ] final  179.61 input  -57.11 | X-H torsion

> <Gold.Protein.ActiveResidues>
 VAL166  LYS551  ARG553  GLY616  TRP617  ASP618  TYR619  PRO620  LYS621  CYS622 
 ASP623  PHE694  ASN695  SER759  ASP760  ASP761  ALA762  ILE779  LEU786  VAL792 
 PHE793  MET794  SER795  GLU796  ALA797  LYS798  CYS799  TRP800  GLU811  SER814 

> <Gold.Protein.RotatedAtoms>
  150.9974  133.6089  159.2699 H   0  0  0  0  0  0  0  0  0  0  0  0  # atno 6907 bound_to 6896
  151.3288  135.0835  159.9341 H   0  0  0  0  0  0  0  0  0  0  0  0  # atno 6908 bound_to 6896
  152.5264  133.9608  159.7770 H   0  0  0  0  0  0  0  0  0  0  0  0  # atno 6909 bound_to 6896
  145.8972  139.3554  143.0614 H   0  0  0  0  0  0  0  0  0  0  0  0  # atno 7974 bound_to 7965
  156.2875  140.2682  156.2180 H   0  0  0  0  0  0  0  0  0  0  0  0  # atno 8008 bound_to 7997
  155.0197  140.0386  157.2450 H   0  0  0  0  0  0  0  0  0  0  0  0  # atno 8009 bound_to 7997
  154.7446  140.2731  155.6349 H   0  0  0  0  0  0  0  0  0  0  0  0  # atno 8010 bound_to 7997
  140.7204  143.5306  150.9525 H   0  0  0  0  0  0  0  0  0  0  0  0  # atno 10167 bound_to 10162
  157.6936  131.0554  150.4377 H   0  0  0  0  0  0  0  0  0  0  0  0  # atno 10718 bound_to 10713
  154.2097  135.2786  155.2962 H   0  0  0  0  0  0  0  0  0  0  0  0  # atno 10763 bound_to 10752
  154.5788  135.5596  153.7169 H   0  0  0  0  0  0  0  0  0  0  0  0  # atno 10764 bound_to 10752
  153.0067  135.6339  154.2236 H   0  0  0  0  0  0  0  0  0  0  0  0  # atno 10765 bound_to 10752
  140.4081  134.6716  157.4599 H   0  0  0  0  0  0  0  0  0  0  0  0  # atno 11005 bound_to 11000
  145.8835  140.9348  143.0589 LP  0  0  0  0  0  0  0  0  0  0  0  0  # atno 17320 bound_to 7965
  144.6733  140.0812  143.7469 LP  0  0  0  0  0  0  0  0  0  0  0  0  # atno 17321 bound_to 7965
  139.9026  143.6817  152.3129 LP  0  0  0  0  0  0  0  0  0  0  0  0  # atno 17342 bound_to 10162
  139.7172  144.7609  151.1014 LP  0  0  0  0  0  0  0  0  0  0  0  0  # atno 17343 bound_to 10162
  156.4739  130.4058  149.6502 LP  0  0  0  0  0  0  0  0  0  0  0  0  # atno 17370 bound_to 10713
  156.3572  130.7463  151.2430 LP  0  0  0  0  0  0  0  0  0  0  0  0  # atno 17371 bound_to 10713
  140.0287  134.6438  155.9136 LP  0  0  0  0  0  0  0  0  0  0  0  0  # atno 17394 bound_to 11000
  141.1831  133.6550  156.5105 LP  0  0  0  0  0  0  0  0  0  0  0  0  # atno 17395 bound_to 11000

$$$$
