AV-unprocessed.smi:2889|AV-procd|sdf|11115|dock4
  -GOLD-   2272015583D 1   1.00000     0.00000
 Structure written by MMmdl.
 35 36  0  0  0  0  0  0  0  0  2 V2000
  151.4739  144.7220  158.4221 C   0  0  0  0  0  0  0  0  0  0  0  0
  150.9904  143.0470  157.9193 S   0  0  0  0  0  0  0  0  0  0  0  0
  152.3936  142.0687  158.5520 C   0  0  1  0  0  0  0  0  0  0  0  0
  152.5331  142.3119  160.0796 C   0  0  0  0  0  0  0  0  0  0  0  0
  153.6853  141.5143  160.7230 C   0  0  0  0  0  0  0  0  0  0  0  0
  153.5165  140.0188  160.3935 C   0  0  0  0  0  0  0  0  0  0  0  0
  153.3995  139.7625  158.8719 C   0  0  0  0  0  0  0  0  0  0  0  0
  152.2556  140.5591  158.1927 C   0  0  2  0  0  0  0  0  0  0  0  0
  152.3240  140.3693  156.7504 N   0  5  0  0  0  0  0  0  0  0  0  0
  151.0672  139.7182  155.9587 S   0  0  0  0  0  0  0  0  0  0  0  0
  151.4428  139.1669  154.6461 O   0  0  0  0  0  0  0  0  0  0  0  0
  150.2439  138.8683  156.8340 O   0  0  0  0  0  0  0  0  0  0  0  0
  150.0530  141.2255  155.6260 C   0  0  0  0  0  0  0  0  0  0  0  0
  148.7672  140.8591  154.9350 C   0  0  0  0  0  0  0  0  0  0  0  0
  147.8761  141.7051  154.2168 C   0  0  0  0  0  0  0  0  0  0  0  0
  146.8867  140.8573  153.8116 C   0  0  0  0  0  0  0  0  0  0  0  0
  147.1331  139.5965  154.2478 O   0  0  0  0  0  0  0  0  0  0  0  0
  148.3337  139.6079  154.9671 N   0  0  0  0  0  0  0  0  0  0  0  0
  150.7044  145.4359  158.1296 H   0  0  0  0  0  0  0  0  0  0  0  0
  152.4106  145.0149  157.9486 H   0  0  0  0  0  0  0  0  0  0  0  0
  151.5987  144.7739  159.5036 H   0  0  0  0  0  0  0  0  0  0  0  0
  153.3011  142.4557  158.0860 H   0  0  0  0  0  0  0  0  0  0  0  0
  152.6937  143.3747  160.2630 H   0  0  0  0  0  0  0  0  0  0  0  0
  151.5986  142.0630  160.5870 H   0  0  0  0  0  0  0  0  0  0  0  0
  154.6415  141.8719  160.3390 H   0  0  0  0  0  0  0  0  0  0  0  0
  153.6999  141.6681  161.8023 H   0  0  0  0  0  0  0  0  0  0  0  0
  154.3659  139.4624  160.7903 H   0  0  0  0  0  0  0  0  0  0  0  0
  152.6371  139.6279  160.9095 H   0  0  0  0  0  0  0  0  0  0  0  0
  154.3505  140.0213  158.4032 H   0  0  0  0  0  0  0  0  0  0  0  0
  153.2607  138.6946  158.7006 H   0  0  0  0  0  0  0  0  0  0  0  0
  151.3075  140.2056  158.6008 H   0  0  0  0  0  0  0  0  0  0  0  0
  149.8532  141.7038  156.5850 H   0  0  0  0  0  0  0  0  0  0  0  0
  150.6451  141.9212  155.0322 H   0  0  0  0  0  0  0  0  0  0  0  0
  147.9582  142.7645  154.0234 H   0  0  0  0  0  0  0  0  0  0  0  0
  145.9831  140.9933  153.2362 H   0  0  0  0  0  0  0  0  0  0  0  0
  1  2  1  0  0  0  0
  1 19  1  0  0  0  0
  1 20  1  0  0  0  0
  1 21  1  0  0  0  0
  2  3  1  0  0  0  0
  3  8  1  0  0  0  0
  3  4  1  0  0  0  0
  3 22  1  0  0  0  0
  4  5  1  0  0  0  0
  4 23  1  0  0  0  0
  4 24  1  0  0  0  0
  5  6  1  0  0  0  0
  5 25  1  0  0  0  0
  5 26  1  0  0  0  0
  6  7  1  0  0  0  0
  6 27  1  0  0  0  0
  6 28  1  0  0  0  0
  7  8  1  0  0  0  0
  7 29  1  0  0  0  0
  7 30  1  0  0  0  0
  8  9  1  0  0  0  0
  8 31  1  0  0  0  0
  9 10  1  0  0  0  0
 10 11  2  0  0  0  0
 10 12  2  0  0  0  0
 10 13  1  0  0  0  0
 13 14  1  0  0  0  0
 13 32  1  0  0  0  0
 13 33  1  0  0  0  0
 14 18  2  0  0  0  0
 14 15  1  0  0  0  0
 15 16  2  0  0  0  0
 15 34  1  0  0  0  0
 16 17  1  0  0  0  0
 16 35  1  0  0  0  0
 17 18  1  0  0  0  0
M  CHG  1   9  -1
M  END
> <s_m_source_file>
AV-unprocessed.smi

> <i_m_source_file_index>
2889

> <i_lp_mmshare_version>
43012

> <i_f3d_flags>
0

> <s_epik_input>
W0NIM11TW0NAQEhdMVtDSDJdW0NIMl1bQ0gyXVtDSDJdW0NASF0xW05IXVMoPU8pKD1PKVtDSDJdYzJbY0hdW2NIXW9uMg==

> <s_epik_cmdline>
J2VwaWtfcHl0aG9uJywgJy1waCcsICc3LjAnLCAnLXRuJywgJzgnLCAnLW1hJywgJzIwMCcsICctbWV0YWxfYmluZGluZycsICctaW1hZScsICc8aW5maWxlLm1hZT4nLCAnLW9tYWUnLCAnPG91dGZpbGUubWFlPic=

> <r_lp_tautomer_probability>
1

> <r_epik_Ionization_Penalty>
4.65467

> <r_epik_Ionization_Penalty_Charging>
4.65467

> <r_epik_Ionization_Penalty_Neutral>
2.71476e-10

> <r_epik_State_Penalty>
4.65444

> <r_epik_Charging_Adjusted_Penalty>
9.30911

> <i_epik_Tot_Q>
-1

> <i_epik_Tot_abs_Q>
1

> <r_epik_Metal_State_Penalty>
0.901484

> <b_epik_Metal_Only>
1

> <s_lp_Force_Field>
OPLS_2005

> <r_lp_Energy>
9.1096

> <b_lp_Chiralities_Consistent>
1

> <s_lp_Variant>
AV-unprocessed.smi:2889-8

> <Gold.Version>
5.8.1

> <Gold.Id.Protein>
6NUR|6NUR_protein|mol2

> <Gold.PLP.Fitness>
45.4726

> <Gold.PLP.PLP>
-34.0510

> <Gold.PLP.part.hbond>
-2.0000

> <Gold.PLP.part.metal>
0.0000

> <Gold.PLP.part.buried>
-1.9024

> <Gold.PLP.part.nonpolar>
-31.0878

> <Gold.PLP.part.repulsive>
0.3101

> <Gold.PLP.ligand.clash>
0.0000

> <Gold.PLP.ligand.torsion>
0.7400

> <Gold.PLP.Chemscore.Hbond>
2.9840

> <Gold.PLP.Chemscore.CHOScore>
0.9796

> <Gold.PLP.Chemscore.Metal>
0.0000

> <Gold.Chemscore.Hbonds>
donor molecule, donor type, donor heavy atom, donor atom, acceptor molecule, acceptor atom, score
      P1  H  7989  7998       L1    11  0.94
      P1  H  7997  8010       L1     9  1.90
      L1  C    16    35       P1 10175  1.00

> <Gold.PLP.Chemscore.Internal.Correction>
1.0107

> <Gold.Rescore>
     Score         DG    S(hbond)    S(metal)    S(lipo)     H(rot)  DE(clash)    DE(int)     intcor
     15.70     -18.32       1.52        0.00      99.77       1.53       0.35       2.27       ----

> <Gold.Chemscore.Fitness>
15.6955

> <Gold.Chemscore.DG>
-18.3167

> <Gold.Chemscore.ZeroCoef>
-5.4800

> <Gold.Chemscore.Hbond>
1.5223

> <Gold.Chemscore.Metal>
0.0000

> <Gold.Chemscore.Lipo>
99.7682

> <Gold.Chemscore.Internal_Hbond>
0.0000

> <Gold.Chemscore.DEClash>
0.3484

> <Gold.Chemscore.DEInternal>
2.2729

> <Gold.Chemscore.Rot>
1.5314

> <Gold.Chemscore.Internal.Correction>
   9.000000E+99

> <Gold.Chemscore.Hbonds>
donor molecule, donor type, donor heavy atom, donor atom, acceptor molecule, acceptor atom, score
      P1  H  7989  7998       L1    11  0.36
      P1  H  7997  8010       L1     9  0.22

> <Gold.Chemscore.Hbond.Weighted>
-5.0843

> <Gold.Chemscore.Metal.Weighted>
-0.0000

> <Gold.Chemscore.Lipo.Weighted>
-11.6729

> <Gold.Chemscore.Internal_Hbond.Weighted>
0.0000

> <Gold.Chemscore.DEClash.Weighted>
0.3484

> <Gold.Chemscore.DEInternal.Weighted>
2.2729

> <Gold.Chemscore.Rot.Weighted>
3.9205

> <Gold.Chemscore.Internal.Correction.Weighted>
   9.000000E+99

> <Gold.Protein.RotatedTorsions>
[ 6907 6896 6895 6894 ] final  150.76 input  -60.11 | X-H torsion
[ 7974 7965 7964 7962 ] final  102.28 input  175.53 | X-H torsion
[ 8008 7997 7996 7995 ] final   67.50 input   59.86 | X-H torsion
[ 10167 10162 10161 10158 ] final -130.50 input  -65.29 | X-H torsion
[ 10718 10713 10712 10709 ] final  165.44 input   66.30 | X-H torsion
[ 10763 10752 10751 10750 ] final  -77.75 input  -60.55 | X-H torsion
[ 11005 11000 10999 10996 ] final  160.53 input  -57.11 | X-H torsion

> <Gold.Protein.ActiveResidues>
 VAL166  LYS551  ARG553  GLY616  TRP617  ASP618  TYR619  PRO620  LYS621  CYS622 
 ASP623  PHE694  ASN695  SER759  ASP760  ASP761  ALA762  ILE779  LEU786  VAL792 
 PHE793  MET794  SER795  GLU796  ALA797  LYS798  CYS799  TRP800  GLU811  SER814 

> <Gold.Protein.RotatedAtoms>
  152.1100  133.4296  159.4626 H   0  0  0  0  0  0  0  0  0  0  0  0  # atno 6907 bound_to 6896
  150.6867  134.2659  159.4577 H   0  0  0  0  0  0  0  0  0  0  0  0  # atno 6908 bound_to 6896
  152.0527  134.9643  160.0625 H   0  0  0  0  0  0  0  0  0  0  0  0  # atno 6909 bound_to 6896
  145.3612  139.2417  143.3506 H   0  0  0  0  0  0  0  0  0  0  0  0  # atno 7974 bound_to 7965
  155.6938  140.3496  155.4904 H   0  0  0  0  0  0  0  0  0  0  0  0  # atno 8008 bound_to 7997
  155.9501  140.1117  157.1006 H   0  0  0  0  0  0  0  0  0  0  0  0  # atno 8009 bound_to 7997
  154.4120  140.1196  156.5027 H   0  0  0  0  0  0  0  0  0  0  0  0  # atno 8010 bound_to 7997
  139.9287  143.6297  152.2535 H   0  0  0  0  0  0  0  0  0  0  0  0  # atno 10167 bound_to 10162
  157.0801  131.0389  151.2578 H   0  0  0  0  0  0  0  0  0  0  0  0  # atno 10718 bound_to 10713
  154.5170  135.5753  153.6650 H   0  0  0  0  0  0  0  0  0  0  0  0  # atno 10763 bound_to 10752
  152.9909  135.6172  154.2804 H   0  0  0  0  0  0  0  0  0  0  0  0  # atno 10764 bound_to 10752
  154.2723  135.2853  155.2712 H   0  0  0  0  0  0  0  0  0  0  0  0  # atno 10765 bound_to 10752
  140.2068  134.8297  157.3078 H   0  0  0  0  0  0  0  0  0  0  0  0  # atno 11005 bound_to 11000
  146.2926  140.4246  142.8733 LP  0  0  0  0  0  0  0  0  0  0  0  0  # atno 17320 bound_to 7965
  144.8645  140.7186  143.6086 LP  0  0  0  0  0  0  0  0  0  0  0  0  # atno 17321 bound_to 7965
  139.6800  144.7656  151.1625 LP  0  0  0  0  0  0  0  0  0  0  0  0  # atno 17342 bound_to 10162
  140.7643  143.5738  150.8967 LP  0  0  0  0  0  0  0  0  0  0  0  0  # atno 17343 bound_to 10162
  157.4807  130.7763  149.7411 LP  0  0  0  0  0  0  0  0  0  0  0  0  # atno 17370 bound_to 10713
  155.9926  130.3930  150.2935 LP  0  0  0  0  0  0  0  0  0  0  0  0  # atno 17371 bound_to 10713
  140.1994  134.4274  155.7671 LP  0  0  0  0  0  0  0  0  0  0  0  0  # atno 17394 bound_to 11000
  141.2227  133.7064  156.8158 LP  0  0  0  0  0  0  0  0  0  0  0  0  # atno 17395 bound_to 11000

$$$$
