AV-unprocessed.smi:2831|AV-procd|sdf|10909|dock4
  -GOLD-   2272015353D 1   1.00000     0.00000
 Structure written by MMmdl.
 30 31  0  0  0  0  0  0  0  0  1 V2000
  146.7850  133.9233  162.3875 C   0  0  0  0  0  0  0  0  0  0  0  0
  147.2523  134.9895  161.4565 C   0  0  0  0  0  0  0  0  0  0  0  0
  147.1661  136.2923  161.7508 N   0  0  0  0  0  0  0  0  0  0  0  0
  147.6678  137.0953  160.7359 N   0  0  0  0  0  0  0  0  0  0  0  0
  148.1205  136.3712  159.7030 C   0  0  0  0  0  0  0  0  0  0  0  0
  148.6886  136.9372  158.5311 N   0  0  0  0  0  0  0  0  0  0  0  0
  149.7074  137.8095  158.4367 C   0  0  0  0  0  0  0  0  0  0  0  0
  150.3272  138.2828  159.3893 O   0  0  0  0  0  0  0  0  0  0  0  0
  149.9716  138.1062  157.1535 N   0  0  0  0  0  0  0  0  0  0  0  0
  151.0248  138.9914  156.6433 C   0  0  2  0  0  0  0  0  0  0  0  0
  150.8882  140.4056  157.2486 C   0  0  0  0  0  0  0  0  0  0  0  0
  151.0730  139.0292  155.1048 C   0  0  0  0  0  0  0  0  0  0  0  0
  152.4522  138.4829  154.7393 C   0  0  0  0  0  0  0  0  0  0  0  0
  153.2257  138.7180  155.9014 O   0  0  0  0  0  0  0  0  0  0  0  0
  152.3955  138.3918  157.0021 C   0  0  0  0  0  0  0  0  0  0  0  0
  147.9658  134.6325  159.8879 S   0  0  0  0  0  0  0  0  0  0  0  0
  145.8403  134.2121  162.8489 H   0  0  0  0  0  0  0  0  0  0  0  0
  147.5248  133.7632  163.1720 H   0  0  0  0  0  0  0  0  0  0  0  0
  146.6375  132.9871  161.8488 H   0  0  0  0  0  0  0  0  0  0  0  0
  148.2774  136.6326  157.6610 H   0  0  0  0  0  0  0  0  0  0  0  0
  149.3951  137.6644  156.4524 H   0  0  0  0  0  0  0  0  0  0  0  0
  151.7221  141.0423  156.9508 H   0  0  0  0  0  0  0  0  0  0  0  0
  150.8771  140.3706  158.3386 H   0  0  0  0  0  0  0  0  0  0  0  0
  149.9727  140.9010  156.9252 H   0  0  0  0  0  0  0  0  0  0  0  0
  150.2899  138.4436  154.6222 H   0  0  0  0  0  0  0  0  0  0  0  0
  150.9732  140.0531  154.7422 H   0  0  0  0  0  0  0  0  0  0  0  0
  152.4055  137.4099  154.5456 H   0  0  0  0  0  0  0  0  0  0  0  0
  152.8810  138.9711  153.8639 H   0  0  0  0  0  0  0  0  0  0  0  0
  152.8041  138.7788  157.9364 H   0  0  0  0  0  0  0  0  0  0  0  0
  152.3488  137.3041  157.0876 H   0  0  0  0  0  0  0  0  0  0  0  0
  1  2  1  0  0  0  0
  1 17  1  0  0  0  0
  1 18  1  0  0  0  0
  1 19  1  0  0  0  0
  2 16  1  0  0  0  0
  2  3  2  0  0  0  0
  3  4  1  0  0  0  0
  4  5  2  0  0  0  0
  5  6  1  0  0  0  0
  5 16  1  0  0  0  0
  6  7  1  0  0  0  0
  6 20  1  0  0  0  0
  7  8  2  0  0  0  0
  7  9  1  0  0  0  0
  9 10  1  0  0  0  0
  9 21  1  0  0  0  0
 10 15  1  0  0  0  0
 10 11  1  0  0  0  0
 10 12  1  0  0  0  0
 11 22  1  0  0  0  0
 11 23  1  0  0  0  0
 11 24  1  0  0  0  0
 12 13  1  0  0  0  0
 12 25  1  0  0  0  0
 12 26  1  0  0  0  0
 13 14  1  0  0  0  0
 13 27  1  0  0  0  0
 13 28  1  0  0  0  0
 14 15  1  0  0  0  0
 15 29  1  0  0  0  0
 15 30  1  0  0  0  0
M  END
> <s_m_source_file>
AV-unprocessed.smi

> <i_m_source_file_index>
2831

> <i_lp_mmshare_version>
43012

> <i_f3d_flags>
0

> <s_epik_input>
W0NIM11jMW5uYyhzMSlbTkhdQyg9TylbTkhdW0NAQF0yKFtDSDNdKVtDSDJdW0NIMl1PW0NIMl0y

> <s_epik_cmdline>
J2VwaWtfcHl0aG9uJywgJy1waCcsICc3LjAnLCAnLXRuJywgJzgnLCAnLW1hJywgJzIwMCcsICctbWV0YWxfYmluZGluZycsICctaW1hZScsICc8aW5maWxlLm1hZT4nLCAnLW9tYWUnLCAnPG91dGZpbGUubWFlPic=

> <r_lp_tautomer_probability>
1

> <r_epik_Ionization_Penalty>
0.00277018

> <r_epik_Ionization_Penalty_Charging>
0

> <r_epik_Ionization_Penalty_Neutral>
0.00277018

> <r_epik_State_Penalty>
-0

> <r_epik_Charging_Adjusted_Penalty>
0

> <i_epik_Tot_Q>
0

> <i_epik_Tot_abs_Q>
0

> <r_epik_Metal_State_Penalty>
0.356997

> <b_epik_Metal_Only>
0

> <s_lp_Force_Field>
OPLS_2005

> <r_lp_Energy>
14.9894

> <b_lp_Chiralities_Consistent>
1

> <s_lp_Variant>
AV-unprocessed.smi:2831-2

> <Gold.Version>
5.8.1

> <Gold.Id.Protein>
6NUR|6NUR_protein|mol2

> <Gold.PLP.Fitness>
32.9492

> <Gold.PLP.PLP>
-25.7965

> <Gold.PLP.part.hbond>
-4.0000

> <Gold.PLP.part.metal>
0.0000

> <Gold.PLP.part.buried>
-4.2155

> <Gold.PLP.part.nonpolar>
-18.7210

> <Gold.PLP.part.repulsive>
0.1519

> <Gold.PLP.ligand.clash>
0.0000

> <Gold.PLP.ligand.torsion>
0.5066

> <Gold.PLP.Chemscore.Hbond>
2.7120

> <Gold.PLP.Chemscore.CHOScore>
0.0000

> <Gold.PLP.Chemscore.Metal>
0.0000

> <Gold.Chemscore.Hbonds>
donor molecule, donor type, donor heavy atom, donor atom, acceptor molecule, acceptor atom, score
      P1  H  6931  6943       L1     4  0.60
      P1  H  6934  6947       L1     4  0.94
      P1  H  7997  8010       L1    14  1.00

> <Gold.PLP.Chemscore.Internal.Correction>
0.0300

> <Gold.Rescore>
     Score         DG    S(hbond)    S(metal)    S(lipo)     H(rot)  DE(clash)    DE(int)     intcor
     16.27     -16.76       2.41        0.00      49.39       1.00       0.02       0.46       ----

> <Gold.Chemscore.Fitness>
16.2734

> <Gold.Chemscore.DG>
-16.7553

> <Gold.Chemscore.ZeroCoef>
-5.4800

> <Gold.Chemscore.Hbond>
2.4122

> <Gold.Chemscore.Metal>
0.0000

> <Gold.Chemscore.Lipo>
49.3901

> <Gold.Chemscore.Internal_Hbond>
0.0000

> <Gold.Chemscore.DEClash>
0.0186

> <Gold.Chemscore.DEInternal>
0.4634

> <Gold.Chemscore.Rot>
1.0000

> <Gold.Chemscore.Internal.Correction>
   9.000000E+99

> <Gold.Chemscore.Hbonds>
donor molecule, donor type, donor heavy atom, donor atom, acceptor molecule, acceptor atom, score
      P1  H  6931  6943       L1     4  0.13
      P1  H  6934  6947       L1     4  0.78
      P1  H  7997  8010       L1    14  0.75

> <Gold.Chemscore.Hbond.Weighted>
-8.0567

> <Gold.Chemscore.Metal.Weighted>
-0.0000

> <Gold.Chemscore.Lipo.Weighted>
-5.7786

> <Gold.Chemscore.Internal_Hbond.Weighted>
0.0000

> <Gold.Chemscore.DEClash.Weighted>
0.0186

> <Gold.Chemscore.DEInternal.Weighted>
0.4634

> <Gold.Chemscore.Rot.Weighted>
2.5600

> <Gold.Chemscore.Internal.Correction.Weighted>
   9.000000E+99

> <Gold.Protein.RotatedTorsions>
[ 6907 6896 6895 6894 ] final -159.38 input  -60.11 | X-H torsion
[ 7974 7965 7964 7962 ] final   49.70 input  175.53 | X-H torsion
[ 8008 7997 7996 7995 ] final   78.47 input   59.86 | X-H torsion
[ 10167 10162 10161 10158 ] final  -83.64 input  -65.29 | X-H torsion
[ 10718 10713 10712 10709 ] final -108.53 input   66.30 | X-H torsion
[ 10763 10752 10751 10750 ] final   23.84 input  -60.55 | X-H torsion
[ 11005 11000 10999 10996 ] final  -97.95 input  -57.11 | X-H torsion

> <Gold.Protein.ActiveResidues>
 VAL166  LYS551  ARG553  GLY616  TRP617  ASP618  TYR619  PRO620  LYS621  CYS622 
 ASP623  PHE694  ASN695  SER759  ASP760  ASP761  ALA762  ILE779  LEU786  VAL792 
 PHE793  MET794  SER795  GLU796  ALA797  LYS798  CYS799  TRP800  GLU811  SER814 

> <Gold.Protein.RotatedAtoms>
  151.3326  133.3994  159.2663 H   0  0  0  0  0  0  0  0  0  0  0  0  # atno 6907 bound_to 6896
  150.9943  134.9271  159.7928 H   0  0  0  0  0  0  0  0  0  0  0  0  # atno 6908 bound_to 6896
  152.5256  134.3291  159.9229 H   0  0  0  0  0  0  0  0  0  0  0  0  # atno 6909 bound_to 6896
  146.0084  139.4515  142.9972 H   0  0  0  0  0  0  0  0  0  0  0  0  # atno 7974 bound_to 7965
  155.8562  140.3456  155.5726 H   0  0  0  0  0  0  0  0  0  0  0  0  # atno 8008 bound_to 7997
  155.7983  140.0881  157.1990 H   0  0  0  0  0  0  0  0  0  0  0  0  # atno 8009 bound_to 7997
  154.4009  140.1470  156.3232 H   0  0  0  0  0  0  0  0  0  0  0  0  # atno 8010 bound_to 7997
  140.4208  143.2585  151.8893 H   0  0  0  0  0  0  0  0  0  0  0  0  # atno 10167 bound_to 10162
  156.0490  130.5717  150.7973 H   0  0  0  0  0  0  0  0  0  0  0  0  # atno 10718 bound_to 10713
  153.0808  135.6618  154.0049 H   0  0  0  0  0  0  0  0  0  0  0  0  # atno 10763 bound_to 10752
  153.9671  135.2968  155.3431 H   0  0  0  0  0  0  0  0  0  0  0  0  # atno 10764 bound_to 10752
  154.7207  135.5166  153.8879 H   0  0  0  0  0  0  0  0  0  0  0  0  # atno 10765 bound_to 10752
  141.1361  133.8209  157.0775 H   0  0  0  0  0  0  0  0  0  0  0  0  # atno 11005 bound_to 11000
  145.7381  141.0018  143.1316 LP  0  0  0  0  0  0  0  0  0  0  0  0  # atno 17320 bound_to 7965
  144.6944  139.9065  143.7461 LP  0  0  0  0  0  0  0  0  0  0  0  0  # atno 17321 bound_to 7965
  139.4782  144.5439  151.8487 LP  0  0  0  0  0  0  0  0  0  0  0  0  # atno 17342 bound_to 10162
  140.4536  144.1821  150.5899 LP  0  0  0  0  0  0  0  0  0  0  0  0  # atno 17343 bound_to 10162
  157.5396  131.0940  150.9845 LP  0  0  0  0  0  0  0  0  0  0  0  0  # atno 17370 bound_to 10713
  157.0131  130.5644  149.5323 LP  0  0  0  0  0  0  0  0  0  0  0  0  # atno 17371 bound_to 10713
  140.0472  134.9824  157.1071 LP  0  0  0  0  0  0  0  0  0  0  0  0  # atno 17394 bound_to 11000
  140.4044  134.2048  155.7163 LP  0  0  0  0  0  0  0  0  0  0  0  0  # atno 17395 bound_to 11000

$$$$
