AV-unprocessed.smi:765|AV-procd|sdf|3643|dock6
  -GOLD-   22720 1 43D 1   1.00000     0.00000
 Structure written by MMmdl.
 39 40  0  0  0  0  0  0  0  0  1 V2000
  147.4813  132.7323  152.5176 C   0  0  0  0  0  0  0  0  0  0  0  0
  148.4302  133.4658  153.4760 C   0  0  2  0  0  0  0  0  0  0  0  0
  149.4453  132.4980  154.1103 C   0  0  0  0  0  0  0  0  0  0  0  0
  150.3840  133.2228  155.0852 C   0  0  0  0  0  0  0  0  0  0  0  0
  149.5856  133.9670  156.1684 C   0  0  0  0  0  0  0  0  0  0  0  0
  148.5637  134.9665  155.5719 C   0  0  1  0  0  0  0  0  0  0  0  0
  147.7200  135.5185  156.6493 C   0  0  0  0  0  0  0  0  0  0  0  0
  147.0579  135.9524  157.4933 N   0  0  0  0  0  0  0  0  0  0  0  0
  149.2436  136.0480  154.8517 N   0  0  0  0  0  0  0  0  0  0  0  0
  149.8570  137.1193  155.3823 C   0  0  0  0  0  0  0  0  0  0  0  0
  149.9294  137.3267  156.5938 O   0  0  0  0  0  0  0  0  0  0  0  0
  150.4794  138.1005  154.3775 C   0  0  2  0  0  0  0  0  0  0  0  0
  151.9976  138.2762  154.5689 C   0  0  0  0  0  0  0  0  0  0  0  0
  149.7902  139.3831  154.4348 N   0  0  0  0  0  0  0  0  0  0  0  0
  148.4731  139.6729  154.1343 C   0  0  0  0  0  0  0  0  0  0  0  0
  148.2954  141.0130  154.3254 C   0  0  0  0  0  0  0  0  0  0  0  0
  149.5769  141.4670  154.7453 C   0  0  0  0  0  0  0  0  0  0  0  0
  150.4685  140.4913  154.8077 N   0  0  0  0  0  0  0  0  0  0  0  0
  147.6488  134.2213  154.5728 C   0  0  0  0  0  0  0  0  0  0  0  0
  146.8905  131.9802  153.0415 H   0  0  0  0  0  0  0  0  0  0  0  0
  148.0359  132.2277  151.7258 H   0  0  0  0  0  0  0  0  0  0  0  0
  146.7892  133.4277  152.0418 H   0  0  0  0  0  0  0  0  0  0  0  0
  148.9853  134.1946  152.8841 H   0  0  0  0  0  0  0  0  0  0  0  0
  148.9172  131.7039  154.6402 H   0  0  0  0  0  0  0  0  0  0  0  0
  150.0333  132.0105  153.3320 H   0  0  0  0  0  0  0  0  0  0  0  0
  151.0587  132.5043  155.5514 H   0  0  0  0  0  0  0  0  0  0  0  0
  151.0141  133.9248  154.5380 H   0  0  0  0  0  0  0  0  0  0  0  0
  149.0540  133.2340  156.7768 H   0  0  0  0  0  0  0  0  0  0  0  0
  150.2711  134.4707  156.8502 H   0  0  0  0  0  0  0  0  0  0  0  0
  149.2374  135.9781  153.8442 H   0  0  0  0  0  0  0  0  0  0  0  0
  150.3261  137.6774  153.3827 H   0  0  0  0  0  0  0  0  0  0  0  0
  152.5170  137.3192  154.5049 H   0  0  0  0  0  0  0  0  0  0  0  0
  152.2373  138.7204  155.5359 H   0  0  0  0  0  0  0  0  0  0  0  0
  152.4126  138.9246  153.7969 H   0  0  0  0  0  0  0  0  0  0  0  0
  147.7808  138.9089  153.8111 H   0  0  0  0  0  0  0  0  0  0  0  0
  147.3889  141.5828  154.1847 H   0  0  0  0  0  0  0  0  0  0  0  0
  149.8838  142.4699  155.0033 H   0  0  0  0  0  0  0  0  0  0  0  0
  146.9551  134.9270  154.1125 H   0  0  0  0  0  0  0  0  0  0  0  0
  147.0293  133.5091  155.1205 H   0  0  0  0  0  0  0  0  0  0  0  0
  1  2  1  0  0  0  0
  1 20  1  0  0  0  0
  1 21  1  0  0  0  0
  1 22  1  0  0  0  0
  2 19  1  0  0  0  0
  2  3  1  0  0  0  0
  2 23  1  0  0  0  0
  3  4  1  0  0  0  0
  3 24  1  0  0  0  0
  3 25  1  0  0  0  0
  4  5  1  0  0  0  0
  4 26  1  0  0  0  0
  4 27  1  0  0  0  0
  5  6  1  0  0  0  0
  5 28  1  0  0  0  0
  5 29  1  0  0  0  0
  6  7  1  0  0  0  0
  6  9  1  0  0  0  0
  6 19  1  0  0  0  0
  7  8  3  0  0  0  0
  9 10  1  0  0  0  0
  9 30  1  0  0  0  0
 10 11  2  0  0  0  0
 10 12  1  0  0  0  0
 12 13  1  0  0  0  0
 12 14  1  0  0  0  0
 12 31  1  0  0  0  0
 13 32  1  0  0  0  0
 13 33  1  0  0  0  0
 13 34  1  0  0  0  0
 14 18  1  0  0  0  0
 14 15  1  0  0  0  0
 15 16  2  0  0  0  0
 15 35  1  0  0  0  0
 16 17  1  0  0  0  0
 16 36  1  0  0  0  0
 17 18  2  0  0  0  0
 17 37  1  0  0  0  0
 19 38  1  0  0  0  0
 19 39  1  0  0  0  0
M  END
> <s_m_source_file>
AV-unprocessed.smi

> <i_m_source_file_index>
765

> <i_lp_mmshare_version>
43012

> <i_f3d_flags>
0

> <s_epik_input>
W0NIM11bQ0BASF0oW0NIMl0xKVtDSDJdW0NIMl1bQ0gyXVtDQEBdMShDI04pW05IXUMoPU8pW0NASF0oW0NIM10pbjJbY0hdW2NIXVtjSF1uMg==

> <s_epik_cmdline>
J2VwaWtfcHl0aG9uJywgJy1waCcsICc3LjAnLCAnLXRuJywgJzgnLCAnLW1hJywgJzIwMCcsICctbWV0YWxfYmluZGluZycsICctaW1hZScsICc8aW5maWxlLm1hZT4nLCAnLW9tYWUnLCAnPG91dGZpbGUubWFlPic=

> <r_lp_tautomer_probability>
1

> <r_epik_Ionization_Penalty>
2.71142e-05

> <r_epik_Ionization_Penalty_Charging>
0

> <r_epik_Ionization_Penalty_Neutral>
2.71142e-05

> <r_epik_State_Penalty>
-0

> <r_epik_Charging_Adjusted_Penalty>
0

> <i_epik_Tot_Q>
0

> <i_epik_Tot_abs_Q>
0

> <r_epik_Metal_State_Penalty>
-0

> <b_epik_Metal_Only>
0

> <s_lp_Force_Field>
OPLS_2005

> <r_lp_Energy>
11.1831

> <b_lp_Chiralities_Consistent>
1

> <s_lp_Variant>
AV-unprocessed.smi:765-1

> <Gold.Version>
5.8.1

> <Gold.Id.Protein>
6NUR|6NUR_protein|mol2

> <Gold.PLP.Fitness>
39.3270

> <Gold.PLP.PLP>
-31.1883

> <Gold.PLP.part.hbond>
-2.0000

> <Gold.PLP.part.metal>
0.0000

> <Gold.PLP.part.buried>
-1.7930

> <Gold.PLP.part.nonpolar>
-26.6007

> <Gold.PLP.part.repulsive>
0.1045

> <Gold.PLP.ligand.clash>
0.0000

> <Gold.PLP.ligand.torsion>
0.4643

> <Gold.PLP.Chemscore.Hbond>
2.0000

> <Gold.PLP.Chemscore.CHOScore>
1.0000

> <Gold.PLP.Chemscore.Metal>
0.0000

> <Gold.Chemscore.Hbonds>
donor molecule, donor type, donor heavy atom, donor atom, acceptor molecule, acceptor atom, score
      L1  H     9    30       P1  7948  1.00
      P1  H  7989  7998       L1    18  1.00
      L1  C    17    37       P1  8028  0.98

> <Gold.PLP.Chemscore.Internal.Correction>
0.0673

> <Gold.Rescore>
     Score         DG    S(hbond)    S(metal)    S(lipo)     H(rot)  DE(clash)    DE(int)     intcor
     13.83     -15.72       1.78        0.00      67.78       1.42       0.19       1.70       ----

> <Gold.Chemscore.Fitness>
13.8323

> <Gold.Chemscore.DG>
-15.7220

> <Gold.Chemscore.ZeroCoef>
-5.4800

> <Gold.Chemscore.Hbond>
1.7792

> <Gold.Chemscore.Metal>
0.0000

> <Gold.Chemscore.Lipo>
67.7806

> <Gold.Chemscore.Internal_Hbond>
0.0000

> <Gold.Chemscore.DEClash>
0.1911

> <Gold.Chemscore.DEInternal>
1.6986

> <Gold.Chemscore.Rot>
1.4183

> <Gold.Chemscore.Internal.Correction>
   9.000000E+99

> <Gold.Chemscore.Hbonds>
donor molecule, donor type, donor heavy atom, donor atom, acceptor molecule, acceptor atom, score
      L1  H     9    30       P1  7948  0.79
      P1  H  7989  7998       L1    18  0.28

> <Gold.Chemscore.Hbond.Weighted>
-5.9426

> <Gold.Chemscore.Metal.Weighted>
-0.0000

> <Gold.Chemscore.Lipo.Weighted>
-7.9303

> <Gold.Chemscore.Internal_Hbond.Weighted>
0.0000

> <Gold.Chemscore.DEClash.Weighted>
0.1911

> <Gold.Chemscore.DEInternal.Weighted>
1.6986

> <Gold.Chemscore.Rot.Weighted>
3.6309

> <Gold.Chemscore.Internal.Correction.Weighted>
   9.000000E+99

> <Gold.Protein.RotatedTorsions>
[ 6907 6896 6895 6894 ] final  131.12 input  -60.11 | X-H torsion
[ 7974 7965 7964 7962 ] final  163.47 input  175.53 | X-H torsion
[ 8008 7997 7996 7995 ] final -103.70 input   59.86 | X-H torsion
[ 10167 10162 10161 10158 ] final -100.54 input  -65.29 | X-H torsion
[ 10718 10713 10712 10709 ] final   77.56 input   66.30 | X-H torsion
[ 10763 10752 10751 10750 ] final -175.59 input  -60.55 | X-H torsion
[ 11005 11000 10999 10996 ] final    0.31 input  -57.11 | X-H torsion

> <Gold.Protein.ActiveResidues>
 VAL166  LYS551  ARG553  GLY616  TRP617  ASP618  TYR619  PRO620  LYS621  CYS622 
 ASP623  PHE694  ASN695  SER759  ASP760  ASP761  ALA762  ILE779  LEU786  VAL792 
 PHE793  MET794  SER795  GLU796  ALA797  LYS798  CYS799  TRP800  GLU811  SER814 

> <Gold.Protein.RotatedAtoms>
  152.3458  133.6120  159.5908 H   0  0  0  0  0  0  0  0  0  0  0  0  # atno 6907 bound_to 6896
  150.7506  133.9652  159.3537 H   0  0  0  0  0  0  0  0  0  0  0  0  # atno 6908 bound_to 6896
  151.7510  135.0833  160.0382 H   0  0  0  0  0  0  0  0  0  0  0  0  # atno 6909 bound_to 6896
  144.7588  139.8186  143.6340 H   0  0  0  0  0  0  0  0  0  0  0  0  # atno 7974 bound_to 7965
  154.8746  140.0421  157.1745 H   0  0  0  0  0  0  0  0  0  0  0  0  # atno 8008 bound_to 7997
  154.8702  140.2957  155.5465 H   0  0  0  0  0  0  0  0  0  0  0  0  # atno 8009 bound_to 7997
  156.2999  140.2430  156.3690 H   0  0  0  0  0  0  0  0  0  0  0  0  # atno 8010 bound_to 7997
  140.2508  143.3474  152.0716 H   0  0  0  0  0  0  0  0  0  0  0  0  # atno 10167 bound_to 10162
  157.6715  130.9827  150.1659 H   0  0  0  0  0  0  0  0  0  0  0  0  # atno 10718 bound_to 10713
  154.5826  135.2837  155.0717 H   0  0  0  0  0  0  0  0  0  0  0  0  # atno 10763 bound_to 10752
  154.2048  135.6418  153.5101 H   0  0  0  0  0  0  0  0  0  0  0  0  # atno 10764 bound_to 10752
  153.0093  135.5477  154.6485 H   0  0  0  0  0  0  0  0  0  0  0  0  # atno 10765 bound_to 10752
  140.6280  133.9601  155.8259 H   0  0  0  0  0  0  0  0  0  0  0  0  # atno 11005 bound_to 11000
  146.1629  139.4750  142.9976 LP  0  0  0  0  0  0  0  0  0  0  0  0  # atno 17320 bound_to 7965
  145.6687  141.0222  143.1669 LP  0  0  0  0  0  0  0  0  0  0  0  0  # atno 17321 bound_to 7965
  139.5047  144.6780  151.6080 LP  0  0  0  0  0  0  0  0  0  0  0  0  # atno 17342 bound_to 10162
  140.6042  143.9555  150.6407 LP  0  0  0  0  0  0  0  0  0  0  0  0  # atno 17343 bound_to 10162
  156.2425  130.3692  149.8322 LP  0  0  0  0  0  0  0  0  0  0  0  0  # atno 17370 bound_to 10713
  156.6118  130.8589  151.3456 LP  0  0  0  0  0  0  0  0  0  0  0  0  # atno 17371 bound_to 10713
  141.0695  134.0226  157.3546 LP  0  0  0  0  0  0  0  0  0  0  0  0  # atno 17394 bound_to 11000
  139.9127  135.0192  156.7757 LP  0  0  0  0  0  0  0  0  0  0  0  0  # atno 17395 bound_to 11000

$$$$
