AV-unprocessed.smi:3275|AV-procd|sdf|12533|dock1
  -GOLD-   2272018443D 1   1.00000     0.00000
 Structure written by MMmdl.
 34 35  0  0  0  0  0  0  0  0  1 V2000
  152.1935  136.8611  154.1633 O   0  0  0  0  0  0  0  0  0  0  0  0
  151.8932  138.2006  153.8357 C   0  0  0  0  0  0  0  0  0  0  0  0
  151.0127  138.8199  154.9261 C   0  0  0  0  0  0  0  0  0  0  0  0
  150.8639  140.2062  154.6561 O   0  0  0  0  0  0  0  0  0  0  0  0
  150.3422  140.9649  155.7396 C   0  0  1  0  0  0  0  0  0  0  0  0
  148.9642  140.4292  156.1829 C   0  0  0  0  0  0  0  0  0  0  0  0
  148.4914  141.1530  157.4544 C   0  0  0  0  0  0  0  0  0  0  0  0
  149.5487  141.0660  158.5673 C   0  0  0  0  0  0  0  0  0  0  0  0
  150.8408  141.5486  158.0871 N   0  0  0  0  0  0  0  0  0  0  0  0
  151.7642  141.8153  159.1145 C   0  0  0  0  0  0  0  0  0  0  0  0
  152.8579  140.9550  159.3724 C   0  0  0  0  0  0  0  0  0  0  0  0
  153.7397  141.2700  160.4249 C   0  0  0  0  0  0  0  0  0  0  0  0
  153.6004  142.3581  161.2098 N   0  0  0  0  0  0  0  0  0  0  0  0
  152.5597  143.1807  160.9628 C   0  0  0  0  0  0  0  0  0  0  0  0
  151.6183  142.9601  159.9366 C   0  0  0  0  0  0  0  0  0  0  0  0
  150.3410  144.1022  159.6978 Cl  0  0  0  0  0  0  0  0  0  0  0  0
  151.3484  140.8635  156.9004 C   0  0  0  0  0  0  0  0  0  0  0  0
  151.6237  136.2951  153.6650 H   0  0  0  0  0  0  0  0  0  0  0  0
  152.8233  138.7599  153.7308 H   0  0  0  0  0  0  0  0  0  0  0  0
  151.3841  138.2264  152.8717 H   0  0  0  0  0  0  0  0  0  0  0  0
  150.0354  138.3345  154.9359 H   0  0  0  0  0  0  0  0  0  0  0  0
  151.4696  138.6634  155.9035 H   0  0  0  0  0  0  0  0  0  0  0  0
  150.2565  142.0146  155.4523 H   0  0  0  0  0  0  0  0  0  0  0  0
  148.2221  140.5586  155.3957 H   0  0  0  0  0  0  0  0  0  0  0  0
  149.0318  139.3580  156.3767 H   0  0  0  0  0  0  0  0  0  0  0  0
  148.2922  142.2006  157.2242 H   0  0  0  0  0  0  0  0  0  0  0  0
  147.5493  140.7268  157.8002 H   0  0  0  0  0  0  0  0  0  0  0  0
  149.2187  141.6386  159.4344 H   0  0  0  0  0  0  0  0  0  0  0  0
  149.6586  140.0319  158.8967 H   0  0  0  0  0  0  0  0  0  0  0  0
  153.0249  140.0608  158.7910 H   0  0  0  0  0  0  0  0  0  0  0  0
  154.5791  140.6269  160.6441 H   0  0  0  0  0  0  0  0  0  0  0  0
  152.4774  144.0471  161.6024 H   0  0  0  0  0  0  0  0  0  0  0  0
  151.5272  139.8138  157.1360 H   0  0  0  0  0  0  0  0  0  0  0  0
  152.3041  141.2967  156.6023 H   0  0  0  0  0  0  0  0  0  0  0  0
  1  2  1  0  0  0  0
  1 18  1  0  0  0  0
  2  3  1  0  0  0  0
  2 19  1  0  0  0  0
  2 20  1  0  0  0  0
  3  4  1  0  0  0  0
  3 21  1  0  0  0  0
  3 22  1  0  0  0  0
  4  5  1  0  0  0  0
  5 17  1  0  0  0  0
  5  6  1  0  0  0  0
  5 23  1  0  0  0  0
  6  7  1  0  0  0  0
  6 24  1  0  0  0  0
  6 25  1  0  0  0  0
  7  8  1  0  0  0  0
  7 26  1  0  0  0  0
  7 27  1  0  0  0  0
  8  9  1  0  0  0  0
  8 28  1  0  0  0  0
  8 29  1  0  0  0  0
  9 10  1  0  0  0  0
  9 17  1  0  0  0  0
 10 15  1  0  0  0  0
 10 11  2  0  0  0  0
 11 12  1  0  0  0  0
 11 30  1  0  0  0  0
 12 13  2  0  0  0  0
 12 31  1  0  0  0  0
 13 14  1  0  0  0  0
 14 15  2  0  0  0  0
 14 32  1  0  0  0  0
 15 16  1  0  0  0  0
 17 33  1  0  0  0  0
 17 34  1  0  0  0  0
M  END
> <s_m_source_file>
AV-unprocessed.smi

> <i_m_source_file_index>
3275

> <i_lp_mmshare_version>
43012

> <i_f3d_flags>
0

> <s_epik_input>
W09IXVtDSDJdW0NIMl1PW0NAQEhdMVtDSDJdW0NIMl1bQ0gyXU4oW0NIMl0xKWMyW2NIXVtjSF1uW2NIXWMyQ2w=

> <s_epik_cmdline>
J2VwaWtfcHl0aG9uJywgJy1waCcsICc3LjAnLCAnLXRuJywgJzgnLCAnLW1hJywgJzIwMCcsICctbWV0YWxfYmluZGluZycsICctaW1hZScsICc8aW5maWxlLm1hZT4nLCAnLW9tYWUnLCAnPG91dGZpbGUubWFlPic=

> <r_lp_tautomer_probability>
1

> <r_epik_Ionization_Penalty>
1.24095

> <r_epik_Ionization_Penalty_Charging>
0

> <r_epik_Ionization_Penalty_Neutral>
1.24095

> <r_epik_State_Penalty>
1.30987

> <r_epik_Charging_Adjusted_Penalty>
1.30987

> <i_epik_Tot_Q>
0

> <i_epik_Tot_abs_Q>
0

> <r_epik_Metal_State_Penalty>
0.00479332

> <b_epik_Metal_Only>
0

> <s_lp_Force_Field>
OPLS_2005

> <r_lp_Energy>
20.7809

> <b_lp_Chiralities_Consistent>
1

> <s_lp_Variant>
AV-unprocessed.smi:3275-4

> <Gold.Version>
5.8.1

> <Gold.Id.Protein>
6NUR|6NUR_protein|mol2

> <Gold.PLP.Fitness>
40.1476

> <Gold.PLP.PLP>
-35.0420

> <Gold.PLP.part.hbond>
-2.6288

> <Gold.PLP.part.metal>
0.0000

> <Gold.PLP.part.buried>
-3.9919

> <Gold.PLP.part.nonpolar>
-27.1313

> <Gold.PLP.part.repulsive>
0.1331

> <Gold.PLP.ligand.clash>
0.0000

> <Gold.PLP.ligand.torsion>
0.6051

> <Gold.PLP.Chemscore.Hbond>
2.0000

> <Gold.PLP.Chemscore.CHOScore>
0.0000

> <Gold.PLP.Chemscore.Metal>
0.0000

> <Gold.Chemscore.Hbonds>
donor molecule, donor type, donor heavy atom, donor atom, acceptor molecule, acceptor atom, score
      L1  H     1    18       P1  7949  0.35
      P1  H  7989  7998       L1     4  1.00
      P1  H 10752 10765       L1     1  0.27

> <Gold.PLP.Chemscore.Internal.Correction>
0.3159

> <Gold.Rescore>
     Score         DG    S(hbond)    S(metal)    S(lipo)     H(rot)  DE(clash)    DE(int)     intcor
     16.83     -17.22       1.77        0.00      94.82       2.06       0.02       0.37       ----

> <Gold.Chemscore.Fitness>
16.8297

> <Gold.Chemscore.DG>
-17.2208

> <Gold.Chemscore.ZeroCoef>
-5.4800

> <Gold.Chemscore.Hbond>
1.7702

> <Gold.Chemscore.Metal>
0.0000

> <Gold.Chemscore.Lipo>
94.8248

> <Gold.Chemscore.Internal_Hbond>
0.0000

> <Gold.Chemscore.DEClash>
0.0233

> <Gold.Chemscore.DEInternal>
0.3678

> <Gold.Chemscore.Rot>
2.0570

> <Gold.Chemscore.Internal.Correction>
   9.000000E+99

> <Gold.Chemscore.Hbonds>
donor molecule, donor type, donor heavy atom, donor atom, acceptor molecule, acceptor atom, score
      L1  H     1    18       P1  7949  0.31
      P1  H  7989  7998       L1     4  0.92
      P1  H 10752 10765       L1     1  0.02

> <Gold.Chemscore.Hbond.Weighted>
-5.9123

> <Gold.Chemscore.Metal.Weighted>
-0.0000

> <Gold.Chemscore.Lipo.Weighted>
-11.0945

> <Gold.Chemscore.Internal_Hbond.Weighted>
0.0000

> <Gold.Chemscore.DEClash.Weighted>
0.0233

> <Gold.Chemscore.DEInternal.Weighted>
0.3678

> <Gold.Chemscore.Rot.Weighted>
5.2660

> <Gold.Chemscore.Internal.Correction.Weighted>
   9.000000E+99

> <Gold.Protein.RotatedTorsions>
[ 6907 6896 6895 6894 ] final -122.35 input  -60.11 | X-H torsion
[ 7974 7965 7964 7962 ] final  -67.50 input  175.53 | X-H torsion
[ 8008 7997 7996 7995 ] final   85.36 input   59.86 | X-H torsion
[ 10167 10162 10161 10158 ] final  -82.43 input  -65.29 | X-H torsion
[ 10718 10713 10712 10709 ] final  113.94 input   66.30 | X-H torsion
[ 10763 10752 10751 10750 ] final -169.41 input  -60.55 | X-H torsion
[ 11005 11000 10999 10996 ] final   78.74 input  -57.11 | X-H torsion

> <Gold.Protein.ActiveResidues>
 VAL166  LYS551  ARG553  GLY616  TRP617  ASP618  TYR619  PRO620  LYS621  CYS622 
 ASP623  PHE694  ASN695  SER759  ASP760  ASP761  ALA762  ILE779  LEU786  VAL792 
 PHE793  MET794  SER795  GLU796  ALA797  LYS798  CYS799  TRP800  GLU811  SER814 

> <Gold.Protein.RotatedAtoms>
  150.8568  133.7704  159.3005 H   0  0  0  0  0  0  0  0  0  0  0  0  # atno 6907 bound_to 6896
  151.5359  135.1067  159.9924 H   0  0  0  0  0  0  0  0  0  0  0  0  # atno 6908 bound_to 6896
  152.4595  133.7750  159.6875 H   0  0  0  0  0  0  0  0  0  0  0  0  # atno 6909 bound_to 6896
  145.7283  140.9008  143.0593 H   0  0  0  0  0  0  0  0  0  0  0  0  # atno 7974 bound_to 7965
  155.9490  140.3402  155.6392 H   0  0  0  0  0  0  0  0  0  0  0  0  # atno 8008 bound_to 7997
  155.6943  140.0752  157.2454 H   0  0  0  0  0  0  0  0  0  0  0  0  # atno 8009 bound_to 7997
  154.4118  140.1651  156.2109 H   0  0  0  0  0  0  0  0  0  0  0  0  # atno 8010 bound_to 7997
  140.4320  143.2545  151.8745 H   0  0  0  0  0  0  0  0  0  0  0  0  # atno 10167 bound_to 10162
  157.6309  131.0991  150.7114 H   0  0  0  0  0  0  0  0  0  0  0  0  # atno 10718 bound_to 10713
  154.6526  135.2913  154.9968 H   0  0  0  0  0  0  0  0  0  0  0  0  # atno 10763 bound_to 10752
  154.1056  135.6570  153.4880 H   0  0  0  0  0  0  0  0  0  0  0  0  # atno 10764 bound_to 10752
  153.0385  135.5253  154.7441 H   0  0  0  0  0  0  0  0  0  0  0  0  # atno 10765 bound_to 10752
  139.9200  134.7787  156.1688 H   0  0  0  0  0  0  0  0  0  0  0  0  # atno 11005 bound_to 11000
  144.6899  139.9297  143.7471 LP  0  0  0  0  0  0  0  0  0  0  0  0  # atno 17320 bound_to 7965
  146.0561  139.3558  143.0610 LP  0  0  0  0  0  0  0  0  0  0  0  0  # atno 17321 bound_to 7965
  139.4785  144.5324  151.8648 LP  0  0  0  0  0  0  0  0  0  0  0  0  # atno 17342 bound_to 10162
  140.4416  144.1979  150.5891 LP  0  0  0  0  0  0  0  0  0  0  0  0  # atno 17343 bound_to 10162
  156.7454  130.4752  149.5468 LP  0  0  0  0  0  0  0  0  0  0  0  0  # atno 17370 bound_to 10713
  156.1513  130.6312  151.0599 LP  0  0  0  0  0  0  0  0  0  0  0  0  # atno 17371 bound_to 10713
  141.0713  133.6796  156.2146 LP  0  0  0  0  0  0  0  0  0  0  0  0  # atno 17394 bound_to 11000
  140.6502  134.5074  157.5577 LP  0  0  0  0  0  0  0  0  0  0  0  0  # atno 17395 bound_to 11000

$$$$
