AV-unprocessed.smi:1985|AV-procd|sdf|8045|dock2
  -GOLD-   2272010243D 1   1.00000     0.00000
 Structure written by MMmdl.
 51 52  0  0  0  0  0  0  0  0  2 V2000
  147.1912  132.8328  150.7515 C   0  0  0  0  0  0  0  0  0  0  0  0
  146.6975  132.8796  152.2086 C   0  0  0  0  0  0  0  0  0  0  0  0
  147.4329  131.9261  153.1994 C   0  0  2  0  0  0  0  0  0  0  0  0
  146.5854  131.8605  154.4980 C   0  0  0  0  0  0  0  0  0  0  0  0
  148.8320  132.5233  153.5338 C   0  0  0  0  0  0  0  0  0  0  0  0
  148.7835  133.9487  153.8466 N   0  0  0  0  0  0  0  0  0  0  0  0
  148.9682  134.4636  155.0700 C   0  0  0  0  0  0  0  0  0  0  0  0
  149.2406  133.7748  156.0542 O   0  0  0  0  0  0  0  0  0  0  0  0
  148.8327  135.9886  155.1847 C   0  0  0  0  0  0  0  0  0  0  0  0
  150.1079  136.6703  155.4438 N   0  0  0  0  0  0  0  0  0  0  0  0
  150.6006  137.5736  154.5198 C   0  0  0  0  0  0  0  0  0  0  0  0
  151.7687  138.2342  154.6732 C   0  0  0  0  0  0  0  0  0  0  0  0
  152.5953  138.0266  155.8556 C   0  0  0  0  0  0  0  0  0  0  0  0
  153.6771  138.5891  156.0299 O   0  0  0  0  0  0  0  0  0  0  0  0
  152.0626  137.1100  156.7921 N   0  0  0  0  0  0  0  0  0  0  0  0
  152.8495  136.8387  157.9775 C   0  0  0  0  0  0  0  0  0  0  0  0
  150.8467  136.4092  156.6189 C   0  0  0  0  0  0  0  0  0  0  0  0
  150.4347  135.5918  157.4456 O   0  0  0  0  0  0  0  0  0  0  0  0
  147.5706  130.5513  152.5921 N   0  3  0  0  0  0  0  0  0  0  0  0
  148.3796  129.5733  153.3740 C   0  0  0  0  0  0  0  0  0  0  0  0
  148.6121  128.2912  152.5589 C   0  0  0  0  0  0  0  0  0  0  0  0
  147.3600  127.7238  152.2020 O   0  0  0  0  0  0  0  0  0  0  0  0
  146.6008  128.6014  151.3830 C   0  0  0  0  0  0  0  0  0  0  0  0
  146.3039  129.9040  152.1455 C   0  0  0  0  0  0  0  0  0  0  0  0
  146.6239  133.5313  150.1358 H   0  0  0  0  0  0  0  0  0  0  0  0
  147.0667  131.8432  150.3129 H   0  0  0  0  0  0  0  0  0  0  0  0
  148.2422  133.1095  150.6687 H   0  0  0  0  0  0  0  0  0  0  0  0
  146.7447  133.9090  152.5632 H   0  0  0  0  0  0  0  0  0  0  0  0
  145.6319  132.6478  152.2011 H   0  0  0  0  0  0  0  0  0  0  0  0
  146.2708  132.8514  154.8272 H   0  0  0  0  0  0  0  0  0  0  0  0
  147.1430  131.4259  155.3280 H   0  0  0  0  0  0  0  0  0  0  0  0
  145.6808  131.2670  154.3622 H   0  0  0  0  0  0  0  0  0  0  0  0
  149.2775  132.0151  154.3890 H   0  0  0  0  0  0  0  0  0  0  0  0
  149.5152  132.3843  152.6952 H   0  0  0  0  0  0  0  0  0  0  0  0
  148.5700  134.5817  153.0893 H   0  0  0  0  0  0  0  0  0  0  0  0
  148.3909  136.3623  154.2599 H   0  0  0  0  0  0  0  0  0  0  0  0
  148.1174  136.2325  155.9721 H   0  0  0  0  0  0  0  0  0  0  0  0
  150.0263  137.7594  153.6238 H   0  0  0  0  0  0  0  0  0  0  0  0
  152.0977  138.9235  153.9094 H   0  0  0  0  0  0  0  0  0  0  0  0
  152.2082  136.4769  158.7817 H   0  0  0  0  0  0  0  0  0  0  0  0
  153.3179  137.7660  158.3115 H   0  0  0  0  0  0  0  0  0  0  0  0
  153.5939  136.0918  157.6981 H   0  0  0  0  0  0  0  0  0  0  0  0
  149.3512  129.9822  153.6442 H   0  0  0  0  0  0  0  0  0  0  0  0
  147.8689  129.3142  154.3016 H   0  0  0  0  0  0  0  0  0  0  0  0
  149.2046  128.4966  151.6658 H   0  0  0  0  0  0  0  0  0  0  0  0
  149.1704  127.5660  153.1514 H   0  0  0  0  0  0  0  0  0  0  0  0
  147.1361  128.8074  150.4546 H   0  0  0  0  0  0  0  0  0  0  0  0
  145.6686  128.1076  151.1080 H   0  0  0  0  0  0  0  0  0  0  0  0
  145.6673  129.6863  153.0034 H   0  0  0  0  0  0  0  0  0  0  0  0
  145.7355  130.5489  151.4780 H   0  0  0  0  0  0  0  0  0  0  0  0
  148.0941  130.7059  151.7421 H   0  0  0  0  0  0  0  0  0  0  0  0
  1  2  1  0  0  0  0
  1 25  1  0  0  0  0
  1 26  1  0  0  0  0
  1 27  1  0  0  0  0
  2  3  1  0  0  0  0
  2 28  1  0  0  0  0
  2 29  1  0  0  0  0
  3  4  1  0  0  0  0
  3  5  1  0  0  0  0
  3 19  1  0  0  0  0
  4 30  1  0  0  0  0
  4 31  1  0  0  0  0
  4 32  1  0  0  0  0
  5  6  1  0  0  0  0
  5 33  1  0  0  0  0
  5 34  1  0  0  0  0
  6  7  1  0  0  0  0
  6 35  1  0  0  0  0
  7  8  2  0  0  0  0
  7  9  1  0  0  0  0
  9 10  1  0  0  0  0
  9 36  1  0  0  0  0
  9 37  1  0  0  0  0
 10 17  1  0  0  0  0
 10 11  1  0  0  0  0
 11 12  2  0  0  0  0
 11 38  1  0  0  0  0
 12 13  1  0  0  0  0
 12 39  1  0  0  0  0
 13 14  2  0  0  0  0
 13 15  1  0  0  0  0
 15 16  1  0  0  0  0
 15 17  1  0  0  0  0
 16 40  1  0  0  0  0
 16 41  1  0  0  0  0
 16 42  1  0  0  0  0
 17 18  2  0  0  0  0
 19 24  1  0  0  0  0
 19 20  1  0  0  0  0
 19 51  1  0  0  0  0
 20 21  1  0  0  0  0
 20 43  1  0  0  0  0
 20 44  1  0  0  0  0
 21 22  1  0  0  0  0
 21 45  1  0  0  0  0
 21 46  1  0  0  0  0
 22 23  1  0  0  0  0
 23 24  1  0  0  0  0
 23 47  1  0  0  0  0
 23 48  1  0  0  0  0
 24 49  1  0  0  0  0
 24 50  1  0  0  0  0
M  CHG  1  19   1
M  END
> <s_m_source_file>
AV-unprocessed.smi

> <i_m_source_file_index>
1985

> <i_lp_mmshare_version>
43012

> <i_f3d_flags>
0

> <s_epik_input>
W0NIMl0xW0NIMl1PW0NIMl1bQ0gyXU4xW0NAQF0oW0NIM10pKFtDSDJdW0NIM10pW0NIMl1bTkhdQyg9TylbQ0gyXW4yW2NIXVtjSF1jKD1PKW4oW0NIM10pYzI9Tw==

> <s_epik_cmdline>
J2VwaWtfcHl0aG9uJywgJy1waCcsICc3LjAnLCAnLXRuJywgJzgnLCAnLW1hJywgJzIwMCcsICctbWV0YWxfYmluZGluZycsICctaW1hZScsICc8aW5maWxlLm1hZT4nLCAnLW9tYWUnLCAnPG91dGZpbGUubWFlPic=

> <r_lp_tautomer_probability>
1

> <r_epik_Ionization_Penalty>
0.519658

> <r_epik_Ionization_Penalty_Charging>
0.519658

> <r_epik_Ionization_Penalty_Neutral>
8.70177e-08

> <r_epik_State_Penalty>
0.527569

> <r_epik_Charging_Adjusted_Penalty>
1.04723

> <i_epik_Tot_Q>
1

> <i_epik_Tot_abs_Q>
1

> <r_epik_Metal_State_Penalty>
0.527613

> <b_epik_Metal_Only>
0

> <s_lp_Force_Field>
OPLS_2005

> <r_lp_Energy>
37.4979

> <b_lp_Chiralities_Consistent>
1

> <s_lp_Variant>
AV-unprocessed.smi:1985-4

> <Gold.Version>
5.8.1

> <Gold.Id.Protein>
6NUR|6NUR_protein|mol2

> <Gold.PLP.Fitness>
47.9054

> <Gold.PLP.PLP>
-37.3958

> <Gold.PLP.part.hbond>
-3.2533

> <Gold.PLP.part.metal>
0.0000

> <Gold.PLP.part.buried>
-3.9352

> <Gold.PLP.part.nonpolar>
-30.1787

> <Gold.PLP.part.repulsive>
0.0982

> <Gold.PLP.ligand.clash>
0.0000

> <Gold.PLP.ligand.torsion>
0.4596

> <Gold.PLP.Chemscore.Hbond>
2.7280

> <Gold.PLP.Chemscore.CHOScore>
0.9993

> <Gold.PLP.Chemscore.Metal>
0.0000

> <Gold.Chemscore.Hbonds>
donor molecule, donor type, donor heavy atom, donor atom, acceptor molecule, acceptor atom, score
      L1  H     6    35       P1  7948  0.96
      L1  H    19    51       P1 10747  1.00
      P1  H  6896  6908       L1    18  0.04
      P1  H  7997  8008       L1    14  0.64
      L1  C    11    38       P1  7948  1.00

> <Gold.PLP.Chemscore.Internal.Correction>
0.2470

> <Gold.Rescore>
     Score         DG    S(hbond)    S(metal)    S(lipo)     H(rot)  DE(clash)    DE(int)     intcor
     15.66     -17.93       2.77        0.00      77.12       2.27       0.00       2.27       ----

> <Gold.Chemscore.Fitness>
15.6617

> <Gold.Chemscore.DG>
-17.9337

> <Gold.Chemscore.ZeroCoef>
-5.4800

> <Gold.Chemscore.Hbond>
2.7689

> <Gold.Chemscore.Metal>
0.0000

> <Gold.Chemscore.Lipo>
77.1181

> <Gold.Chemscore.Internal_Hbond>
0.0000

> <Gold.Chemscore.DEClash>
0.0038

> <Gold.Chemscore.DEInternal>
2.2682

> <Gold.Chemscore.Rot>
2.2724

> <Gold.Chemscore.Internal.Correction>
   9.000000E+99

> <Gold.Chemscore.Hbonds>
donor molecule, donor type, donor heavy atom, donor atom, acceptor molecule, acceptor atom, score
      L1  H     6    35       P1  7948  0.26
      L1  H    19    51       P1 10747  1.00
      P1  H  6896  6908       L1    18  0.05
      P1  H  7997  8008       L1    14  0.64

> <Gold.Chemscore.Hbond.Weighted>
-9.2483

> <Gold.Chemscore.Metal.Weighted>
-0.0000

> <Gold.Chemscore.Lipo.Weighted>
-9.0228

> <Gold.Chemscore.Internal_Hbond.Weighted>
0.0000

> <Gold.Chemscore.DEClash.Weighted>
0.0038

> <Gold.Chemscore.DEInternal.Weighted>
2.2682

> <Gold.Chemscore.Rot.Weighted>
5.8174

> <Gold.Chemscore.Internal.Correction.Weighted>
   9.000000E+99

> <Gold.Protein.RotatedTorsions>
[ 6907 6896 6895 6894 ] final  140.81 input  -60.11 | X-H torsion
[ 7974 7965 7964 7962 ] final   -2.33 input  175.53 | X-H torsion
[ 8008 7997 7996 7995 ] final  -23.52 input   59.86 | X-H torsion
[ 10167 10162 10161 10158 ] final   -6.82 input  -65.29 | X-H torsion
[ 10718 10713 10712 10709 ] final    6.94 input   66.30 | X-H torsion
[ 10763 10752 10751 10750 ] final  120.98 input  -60.55 | X-H torsion
[ 11005 11000 10999 10996 ] final -126.15 input  -57.11 | X-H torsion

> <Gold.Protein.ActiveResidues>
 VAL166  LYS551  ARG553  GLY616  TRP617  ASP618  TYR619  PRO620  LYS621  CYS622 
 ASP623  PHE694  ASN695  SER759  ASP760  ASP761  ALA762  ILE779  LEU786  VAL792 
 PHE793  MET794  SER795  GLU796  ALA797  LYS798  CYS799  TRP800  GLU811  SER814 

> <Gold.Protein.RotatedAtoms>
  152.2385  133.5116  159.5256 H   0  0  0  0  0  0  0  0  0  0  0  0  # atno 6907 bound_to 6896
  150.7057  134.1121  159.4013 H   0  0  0  0  0  0  0  0  0  0  0  0  # atno 6908 bound_to 6896
  151.9042  135.0366  160.0559 H   0  0  0  0  0  0  0  0  0  0  0  0  # atno 6909 bound_to 6896
  146.2406  140.1554  142.8333 H   0  0  0  0  0  0  0  0  0  0  0  0  # atno 7974 bound_to 7965
  154.4581  140.1978  156.0323 H   0  0  0  0  0  0  0  0  0  0  0  0  # atno 8008 bound_to 7997
  156.0785  140.3275  155.7636 H   0  0  0  0  0  0  0  0  0  0  0  0  # atno 8009 bound_to 7997
  155.5149  140.0565  157.2908 H   0  0  0  0  0  0  0  0  0  0  0  0  # atno 8010 bound_to 7997
  140.7009  143.6151  150.8667 H   0  0  0  0  0  0  0  0  0  0  0  0  # atno 10167 bound_to 10162
  156.9296  130.5821  149.5649 H   0  0  0  0  0  0  0  0  0  0  0  0  # atno 10718 bound_to 10713
  153.6070  135.3437  155.2965 H   0  0  0  0  0  0  0  0  0  0  0  0  # atno 10763 bound_to 10752
  154.8626  135.4241  154.2351 H   0  0  0  0  0  0  0  0  0  0  0  0  # atno 10764 bound_to 10752
  153.3193  135.7037  153.7117 H   0  0  0  0  0  0  0  0  0  0  0  0  # atno 10765 bound_to 10752
  140.9705  134.0813  157.3875 H   0  0  0  0  0  0  0  0  0  0  0  0  # atno 11005 bound_to 11000
  145.0133  140.8732  143.5211 LP  0  0  0  0  0  0  0  0  0  0  0  0  # atno 17320 bound_to 7965
  145.1591  139.2469  143.5401 LP  0  0  0  0  0  0  0  0  0  0  0  0  # atno 17321 bound_to 7965
  139.9873  143.5886  152.2922 LP  0  0  0  0  0  0  0  0  0  0  0  0  # atno 17342 bound_to 10162
  139.6528  144.7661  151.2114 LP  0  0  0  0  0  0  0  0  0  0  0  0  # atno 17343 bound_to 10162
  156.0453  130.5530  150.8866 LP  0  0  0  0  0  0  0  0  0  0  0  0  # atno 17370 bound_to 10713
  157.5855  131.0945  150.9203 LP  0  0  0  0  0  0  0  0  0  0  0  0  # atno 17371 bound_to 10713
  139.8910  135.0116  156.6769 LP  0  0  0  0  0  0  0  0  0  0  0  0  # atno 17394 bound_to 11000
  140.7336  133.9037  155.8228 LP  0  0  0  0  0  0  0  0  0  0  0  0  # atno 17395 bound_to 11000

$$$$
