AV-unprocessed.smi:890|AV-procd|sdf|4059|dock2
  -GOLD-   22720 1543D 1   1.00000     0.00000
 Structure written by MMmdl.
 51 54  0  0  0  0  0  0  0  0  1 V2000
  150.3881  134.1391  155.6381 O   0  0  0  0  0  0  0  0  0  0  0  0
  149.8646  134.7495  154.7060 C   0  0  0  0  0  0  0  0  0  0  0  0
  149.0240  134.2139  153.8052 N   0  0  0  0  0  0  0  0  0  0  0  0
  148.5475  132.8743  153.7296 C   0  0  0  0  0  0  0  0  0  0  0  0
  149.2775  131.7929  154.2806 C   0  0  0  0  0  0  0  0  0  0  0  0
  148.7693  130.4876  154.1665 C   0  0  0  0  0  0  0  0  0  0  0  0
  147.5431  130.3077  153.5052 C   0  0  0  0  0  0  0  0  0  0  0  0
  146.8268  131.3277  152.9920 N   0  0  0  0  0  0  0  0  0  0  0  0
  147.2967  132.5942  153.1078 C   0  0  0  0  0  0  0  0  0  0  0  0
  146.4928  133.6254  152.5703 N   0  0  0  0  0  0  0  0  0  0  0  0
  146.3910  133.8077  151.1264 C   0  0  0  0  0  0  0  0  0  0  0  0
  145.1785  134.7126  150.9282 C   0  0  0  0  0  0  0  0  0  0  0  0
  144.2395  134.2435  152.0352 C   0  0  0  0  0  0  0  0  0  0  0  0
  145.1871  133.8639  153.1783 C   0  0  0  0  0  0  0  0  0  0  0  0
  150.0829  136.0464  154.4470 N   0  0  0  0  0  0  0  0  0  0  0  0
  150.9556  136.9351  155.2090 C   0  0  0  0  0  0  0  0  0  0  0  0
  150.3695  137.1666  156.6102 C   0  0  0  0  0  0  0  0  0  0  0  0
  151.1748  138.2292  157.3777 C   0  0  0  0  0  0  0  0  0  0  0  0
  151.1843  139.4880  156.6325 N   0  0  0  0  0  0  0  0  0  0  0  0
  151.9030  140.4873  157.4059 C   0  0  0  0  0  0  0  0  0  0  0  0
  151.2833  140.9420  158.7078 C   0  0  0  0  0  0  0  0  0  0  0  0
  151.2877  141.8642  157.5125 C   0  0  0  0  0  0  0  0  0  0  0  0
  151.8661  139.2994  155.3517 C   0  0  0  0  0  0  0  0  0  0  0  0
  151.0996  138.2842  154.4855 C   0  0  0  0  0  0  0  0  0  0  0  0
  148.7635  134.8085  153.0323 H   0  0  0  0  0  0  0  0  0  0  0  0
  150.2133  131.9444  154.7966 H   0  0  0  0  0  0  0  0  0  0  0  0
  149.3073  129.6452  154.5755 H   0  0  0  0  0  0  0  0  0  0  0  0
  147.1212  129.3201  153.3926 H   0  0  0  0  0  0  0  0  0  0  0  0
  147.2994  134.2506  150.7171 H   0  0  0  0  0  0  0  0  0  0  0  0
  146.2173  132.8548  150.6248 H   0  0  0  0  0  0  0  0  0  0  0  0
  145.4580  135.7542  151.0929 H   0  0  0  0  0  0  0  0  0  0  0  0
  144.7428  134.6294  149.9322 H   0  0  0  0  0  0  0  0  0  0  0  0
  143.5086  134.9992  152.3235 H   0  0  0  0  0  0  0  0  0  0  0  0
  143.6949  133.3590  151.7013 H   0  0  0  0  0  0  0  0  0  0  0  0
  144.8224  132.9928  153.7249 H   0  0  0  0  0  0  0  0  0  0  0  0
  145.2731  134.6941  153.8799 H   0  0  0  0  0  0  0  0  0  0  0  0
  149.6101  136.4542  153.6536 H   0  0  0  0  0  0  0  0  0  0  0  0
  151.9481  136.4955  155.3248 H   0  0  0  0  0  0  0  0  0  0  0  0
  149.3294  137.4880  156.5339 H   0  0  0  0  0  0  0  0  0  0  0  0
  150.3641  136.2312  157.1710 H   0  0  0  0  0  0  0  0  0  0  0  0
  150.7233  138.3885  158.3575 H   0  0  0  0  0  0  0  0  0  0  0  0
  152.1959  137.8829  157.5477 H   0  0  0  0  0  0  0  0  0  0  0  0
  152.9915  140.4661  157.3954 H   0  0  0  0  0  0  0  0  0  0  0  0
  150.3302  140.5053  159.0001 H   0  0  0  0  0  0  0  0  0  0  0  0
  151.9582  141.1783  159.5279 H   0  0  0  0  0  0  0  0  0  0  0  0
  151.9648  142.7155  157.5367 H   0  0  0  0  0  0  0  0  0  0  0  0
  150.3373  142.0393  157.0118 H   0  0  0  0  0  0  0  0  0  0  0  0
  151.9235  140.2535  154.8262 H   0  0  0  0  0  0  0  0  0  0  0  0
  152.8908  138.9617  155.5156 H   0  0  0  0  0  0  0  0  0  0  0  0
  151.6164  138.1450  153.5352 H   0  0  0  0  0  0  0  0  0  0  0  0
  150.1142  138.6874  154.2458 H   0  0  0  0  0  0  0  0  0  0  0  0
  1  2  2  0  0  0  0
  2  3  1  0  0  0  0
  2 15  1  0  0  0  0
  3  4  1  0  0  0  0
  3 25  1  0  0  0  0
  4  9  1  0  0  0  0
  4  5  2  0  0  0  0
  5  6  1  0  0  0  0
  5 26  1  0  0  0  0
  6  7  2  0  0  0  0
  6 27  1  0  0  0  0
  7  8  1  0  0  0  0
  7 28  1  0  0  0  0
  8  9  2  0  0  0  0
  9 10  1  0  0  0  0
 10 14  1  0  0  0  0
 10 11  1  0  0  0  0
 11 12  1  0  0  0  0
 11 29  1  0  0  0  0
 11 30  1  0  0  0  0
 12 13  1  0  0  0  0
 12 31  1  0  0  0  0
 12 32  1  0  0  0  0
 13 14  1  0  0  0  0
 13 33  1  0  0  0  0
 13 34  1  0  0  0  0
 14 35  1  0  0  0  0
 14 36  1  0  0  0  0
 15 16  1  0  0  0  0
 15 37  1  0  0  0  0
 16 24  1  0  0  0  0
 16 17  1  0  0  0  0
 16 38  1  0  0  0  0
 17 18  1  0  0  0  0
 17 39  1  0  0  0  0
 17 40  1  0  0  0  0
 18 19  1  0  0  0  0
 18 41  1  0  0  0  0
 18 42  1  0  0  0  0
 19 20  1  0  0  0  0
 19 23  1  0  0  0  0
 20 22  1  0  0  0  0
 20 21  1  0  0  0  0
 20 43  1  0  0  0  0
 21 22  1  0  0  0  0
 21 44  1  0  0  0  0
 21 45  1  0  0  0  0
 22 46  1  0  0  0  0
 22 47  1  0  0  0  0
 23 24  1  0  0  0  0
 23 48  1  0  0  0  0
 23 49  1  0  0  0  0
 24 50  1  0  0  0  0
 24 51  1  0  0  0  0
M  END
> <s_m_source_file>
AV-unprocessed.smi

> <i_m_source_file_index>
890

> <i_lp_mmshare_version>
43012

> <i_f3d_flags>
0

> <s_epik_input>
W0NIMl0xW0NIMl1bQ0hdMU4oW0NIMl1bQ0gyXTIpW0NIMl1bQ0gyXVtDSF0yW05IXUMoPU8pW05IXWMzW2NIXVtjSF1bY0hdbmMzTjRbQ0gyXVtDSDJdW0NIMl1bQ0gyXTQ=

> <s_epik_cmdline>
J2VwaWtfcHl0aG9uJywgJy1waCcsICc3LjAnLCAnLXRuJywgJzgnLCAnLW1hJywgJzIwMCcsICctbWV0YWxfYmluZGluZycsICctaW1hZScsICc8aW5maWxlLm1hZT4nLCAnLW9tYWUnLCAnPG91dGZpbGUubWFlPic=

> <r_lp_tautomer_probability>
1

> <r_epik_Ionization_Penalty>
1.12957

> <r_epik_Ionization_Penalty_Charging>
0

> <r_epik_Ionization_Penalty_Neutral>
1.12957

> <r_epik_State_Penalty>
1.1789

> <r_epik_Charging_Adjusted_Penalty>
1.1789

> <i_epik_Tot_Q>
0

> <i_epik_Tot_abs_Q>
0

> <r_epik_Metal_State_Penalty>
1.14786

> <b_epik_Metal_Only>
0

> <s_lp_Force_Field>
OPLS_2005

> <r_lp_Energy>
50.3158

> <b_lp_Chiralities_Consistent>
1

> <s_lp_Variant>
AV-unprocessed.smi:890-3

> <Gold.Version>
5.8.1

> <Gold.Id.Protein>
6NUR|6NUR_protein|mol2

> <Gold.PLP.Fitness>
43.5152

> <Gold.PLP.PLP>
-38.4866

> <Gold.PLP.part.hbond>
-2.7657

> <Gold.PLP.part.metal>
0.0000

> <Gold.PLP.part.buried>
-4.9487

> <Gold.PLP.part.nonpolar>
-30.8835

> <Gold.PLP.part.repulsive>
0.3571

> <Gold.PLP.ligand.clash>
0.0000

> <Gold.PLP.ligand.torsion>
1.0439

> <Gold.PLP.Chemscore.Hbond>
1.8760

> <Gold.PLP.Chemscore.CHOScore>
0.0000

> <Gold.PLP.Chemscore.Metal>
0.0000

> <Gold.Chemscore.Hbonds>
donor molecule, donor type, donor heavy atom, donor atom, acceptor molecule, acceptor atom, score
      L1  H     3    25       P1  7948  0.95
      L1  H    15    37       P1  7948  0.94

> <Gold.PLP.Chemscore.Internal.Correction>
1.4884

> <Gold.Rescore>
     Score         DG    S(hbond)    S(metal)    S(lipo)     H(rot)  DE(clash)    DE(int)     intcor
     14.22     -16.66       1.30        0.00      87.01       1.30       0.13       2.31       ----

> <Gold.Chemscore.Fitness>
14.2227

> <Gold.Chemscore.DG>
-16.6628

> <Gold.Chemscore.ZeroCoef>
-5.4800

> <Gold.Chemscore.Hbond>
1.2995

> <Gold.Chemscore.Metal>
0.0000

> <Gold.Chemscore.Lipo>
87.0078

> <Gold.Chemscore.Internal_Hbond>
0.0000

> <Gold.Chemscore.DEClash>
0.1333

> <Gold.Chemscore.DEInternal>
2.3068

> <Gold.Chemscore.Rot>
1.3037

> <Gold.Chemscore.Internal.Correction>
   9.000000E+99

> <Gold.Chemscore.Hbonds>
donor molecule, donor type, donor heavy atom, donor atom, acceptor molecule, acceptor atom, score
      L1  H     3    25       P1  7948  0.21
      L1  H    15    37       P1  7948  0.55

> <Gold.Chemscore.Hbond.Weighted>
-4.3404

> <Gold.Chemscore.Metal.Weighted>
-0.0000

> <Gold.Chemscore.Lipo.Weighted>
-10.1799

> <Gold.Chemscore.Internal_Hbond.Weighted>
0.0000

> <Gold.Chemscore.DEClash.Weighted>
0.1333

> <Gold.Chemscore.DEInternal.Weighted>
2.3068

> <Gold.Chemscore.Rot.Weighted>
3.3376

> <Gold.Chemscore.Internal.Correction.Weighted>
   9.000000E+99

> <Gold.Protein.RotatedTorsions>
[ 6907 6896 6895 6894 ] final  155.32 input  -60.11 | X-H torsion
[ 7974 7965 7964 7962 ] final -137.55 input  175.53 | X-H torsion
[ 8008 7997 7996 7995 ] final   62.90 input   59.86 | X-H torsion
[ 10167 10162 10161 10158 ] final  -81.40 input  -65.29 | X-H torsion
[ 10718 10713 10712 10709 ] final  133.83 input   66.30 | X-H torsion
[ 10763 10752 10751 10750 ] final  -42.94 input  -60.55 | X-H torsion
[ 11005 11000 10999 10996 ] final -145.59 input  -57.11 | X-H torsion

> <Gold.Protein.ActiveResidues>
 VAL166  LYS551  ARG553  GLY616  TRP617  ASP618  TYR619  PRO620  LYS621  CYS622 
 ASP623  PHE694  ASN695  SER759  ASP760  ASP761  ALA762  ILE779  LEU786  VAL792 
 PHE793  MET794  SER795  GLU796  ALA797  LYS798  CYS799  TRP800  GLU811  SER814 

> <Gold.Protein.RotatedAtoms>
  152.0458  133.3997  159.4355 H   0  0  0  0  0  0  0  0  0  0  0  0  # atno 6907 bound_to 6896
  150.6873  134.3364  159.4858 H   0  0  0  0  0  0  0  0  0  0  0  0  # atno 6908 bound_to 6896
  152.1168  134.9234  160.0615 H   0  0  0  0  0  0  0  0  0  0  0  0  # atno 6909 bound_to 6896
  144.8832  140.6537  143.5192 H   0  0  0  0  0  0  0  0  0  0  0  0  # atno 7974 bound_to 7965
  155.6217  140.3496  155.4654 H   0  0  0  0  0  0  0  0  0  0  0  0  # atno 8008 bound_to 7997
  156.0074  140.1226  157.0512 H   0  0  0  0  0  0  0  0  0  0  0  0  # atno 8009 bound_to 7997
  154.4269  140.1088  156.5767 H   0  0  0  0  0  0  0  0  0  0  0  0  # atno 8010 bound_to 7997
  140.4415  143.2513  151.8618 H   0  0  0  0  0  0  0  0  0  0  0  0  # atno 10167 bound_to 10162
  157.4734  131.1081  150.9774 H   0  0  0  0  0  0  0  0  0  0  0  0  # atno 10718 bound_to 10713
  153.9873  135.6709  153.4752 H   0  0  0  0  0  0  0  0  0  0  0  0  # atno 10763 bound_to 10752
  153.0721  135.4969  154.8323 H   0  0  0  0  0  0  0  0  0  0  0  0  # atno 10764 bound_to 10752
  154.7129  135.3101  154.9130 H   0  0  0  0  0  0  0  0  0  0  0  0  # atno 10765 bound_to 10752
  140.7907  134.2972  157.5014 H   0  0  0  0  0  0  0  0  0  0  0  0  # atno 11005 bound_to 11000
  145.3916  139.1615  143.4226 LP  0  0  0  0  0  0  0  0  0  0  0  0  # atno 17320 bound_to 7965
  146.3008  140.4005  142.8705 LP  0  0  0  0  0  0  0  0  0  0  0  0  # atno 17321 bound_to 7965
  139.4790  144.5223  151.8784 LP  0  0  0  0  0  0  0  0  0  0  0  0  # atno 17342 bound_to 10162
  140.4312  144.2113  150.5888 LP  0  0  0  0  0  0  0  0  0  0  0  0  # atno 17343 bound_to 10162
  157.0532  130.5795  149.5373 LP  0  0  0  0  0  0  0  0  0  0  0  0  # atno 17370 bound_to 10713
  156.0084  130.5174  150.7908 LP  0  0  0  0  0  0  0  0  0  0  0  0  # atno 17371 bound_to 10713
  139.8731  134.9373  156.3683 LP  0  0  0  0  0  0  0  0  0  0  0  0  # atno 17394 bound_to 11000
  140.9392  133.7526  156.0125 LP  0  0  0  0  0  0  0  0  0  0  0  0  # atno 17395 bound_to 11000

$$$$
