AV-unprocessed.smi:480|AV-procd|sdf|2678|dock9
  -GOLD-   2262023103D 1   1.00000     0.00000
 Structure written by MMmdl.
 47 49  0  0  0  0  0  0  0  0  2 V2000
  148.6033  141.6513  154.3894 C   0  0  0  0  0  0  0  0  0  0  0  0
  149.3710  140.5611  155.1497 C   0  0  0  0  0  0  0  0  0  0  0  0
  150.2154  141.1129  156.2577 C   0  0  0  0  0  0  0  0  0  0  0  0
  150.4370  142.4343  156.5145 N   0  3  0  0  0  0  0  0  0  0  0  0
  151.2850  142.5702  157.6134 C   0  0  0  0  0  0  0  0  0  0  0  0
  151.7767  143.7051  158.2506 C   0  0  0  0  0  0  0  0  0  0  0  0
  152.6306  143.4916  159.3526 C   0  0  0  0  0  0  0  0  0  0  0  0
  152.9667  142.1905  159.7799 C   0  0  0  0  0  0  0  0  0  0  0  0
  152.4625  141.0477  159.1245 C   0  0  0  0  0  0  0  0  0  0  0  0
  151.6159  141.2682  158.0385 C   0  0  0  0  0  0  0  0  0  0  0  0
  150.9364  140.4017  157.1755 N   0  0  0  0  0  0  0  0  0  0  0  0
  151.0728  138.9497  157.3765 C   0  0  0  0  0  0  0  0  0  0  0  0
  150.5421  138.4609  158.7442 C   0  0  2  0  0  0  0  0  0  0  0  0
  151.4588  137.5183  159.2583 O   0  0  0  0  0  0  0  0  0  0  0  0
  149.1439  137.8172  158.6960 C   0  0  0  0  0  0  0  0  0  0  0  0
  148.7025  137.5773  160.0266 O   0  0  0  0  0  0  0  0  0  0  0  0
  148.2266  136.3251  160.3426 C   0  0  0  0  0  0  0  0  0  0  0  0
  147.7974  136.1214  161.6698 C   0  0  0  0  0  0  0  0  0  0  0  0
  147.2803  134.8768  162.0758 C   0  0  0  0  0  0  0  0  0  0  0  0
  147.1939  133.8142  161.1552 C   0  0  0  0  0  0  0  0  0  0  0  0
  146.6398  132.4741  161.5930 C   0  0  0  0  0  0  0  0  0  0  0  0
  147.6492  131.4070  161.5149 C   0  0  0  0  0  0  0  0  0  0  0  0
  148.4436  130.5681  161.4540 N   0  0  0  0  0  0  0  0  0  0  0  0
  147.6303  134.0041  159.8291 C   0  0  0  0  0  0  0  0  0  0  0  0
  148.1453  135.2503  159.4229 C   0  0  0  0  0  0  0  0  0  0  0  0
  147.9846  141.2117  153.6070 H   0  0  0  0  0  0  0  0  0  0  0  0
  149.2805  142.3604  153.9126 H   0  0  0  0  0  0  0  0  0  0  0  0
  147.9453  142.2093  155.0557 H   0  0  0  0  0  0  0  0  0  0  0  0
  148.6585  139.8449  155.5571 H   0  0  0  0  0  0  0  0  0  0  0  0
  150.0138  140.0099  154.4631 H   0  0  0  0  0  0  0  0  0  0  0  0
  151.5214  144.7027  157.9243 H   0  0  0  0  0  0  0  0  0  0  0  0
  153.0368  144.3426  159.8798 H   0  0  0  0  0  0  0  0  0  0  0  0
  153.6243  142.0656  160.6280 H   0  0  0  0  0  0  0  0  0  0  0  0
  152.7251  140.0551  159.4592 H   0  0  0  0  0  0  0  0  0  0  0  0
  150.5360  138.4549  156.5668 H   0  0  0  0  0  0  0  0  0  0  0  0
  152.1226  138.6816  157.2486 H   0  0  0  0  0  0  0  0  0  0  0  0
  150.5185  139.2935  159.4477 H   0  0  0  0  0  0  0  0  0  0  0  0
  151.8456  137.8721  160.0447 H   0  0  0  0  0  0  0  0  0  0  0  0
  148.4605  138.4685  158.1493 H   0  0  0  0  0  0  0  0  0  0  0  0
  149.1852  136.8610  158.1719 H   0  0  0  0  0  0  0  0  0  0  0  0
  147.8572  136.9317  162.3818 H   0  0  0  0  0  0  0  0  0  0  0  0
  146.9519  134.7381  163.0955 H   0  0  0  0  0  0  0  0  0  0  0  0
  146.2846  132.5385  162.6219 H   0  0  0  0  0  0  0  0  0  0  0  0
  145.7908  132.1920  160.9695 H   0  0  0  0  0  0  0  0  0  0  0  0
  147.5736  133.1924  159.1183 H   0  0  0  0  0  0  0  0  0  0  0  0
  148.4767  135.3574  158.4011 H   0  0  0  0  0  0  0  0  0  0  0  0
  150.0284  143.1876  155.9765 H   0  0  0  0  0  0  0  0  0  0  0  0
  1  2  1  0  0  0  0
  1 26  1  0  0  0  0
  1 27  1  0  0  0  0
  1 28  1  0  0  0  0
  2  3  1  0  0  0  0
  2 29  1  0  0  0  0
  2 30  1  0  0  0  0
  3 11  1  0  0  0  0
  3  4  2  0  0  0  0
  4  5  1  0  0  0  0
  4 47  1  0  0  0  0
  5 10  2  0  0  0  0
  5  6  1  0  0  0  0
  6  7  2  0  0  0  0
  6 31  1  0  0  0  0
  7  8  1  0  0  0  0
  7 32  1  0  0  0  0
  8  9  2  0  0  0  0
  8 33  1  0  0  0  0
  9 10  1  0  0  0  0
  9 34  1  0  0  0  0
 10 11  1  0  0  0  0
 11 12  1  0  0  0  0
 12 13  1  0  0  0  0
 12 35  1  0  0  0  0
 12 36  1  0  0  0  0
 13 14  1  0  0  0  0
 13 15  1  0  0  0  0
 13 37  1  0  0  0  0
 14 38  1  0  0  0  0
 15 16  1  0  0  0  0
 15 39  1  0  0  0  0
 15 40  1  0  0  0  0
 16 17  1  0  0  0  0
 17 25  1  0  0  0  0
 17 18  2  0  0  0  0
 18 19  1  0  0  0  0
 18 41  1  0  0  0  0
 19 20  2  0  0  0  0
 19 42  1  0  0  0  0
 20 21  1  0  0  0  0
 20 24  1  0  0  0  0
 21 22  1  0  0  0  0
 21 43  1  0  0  0  0
 21 44  1  0  0  0  0
 22 23  3  0  0  0  0
 24 25  2  0  0  0  0
 24 45  1  0  0  0  0
 25 46  1  0  0  0  0
M  CHG  1   4   1
M  END
> <s_m_source_file>
AV-unprocessed.smi

> <i_m_source_file_index>
480

> <i_lp_mmshare_version>
43012

> <i_f3d_flags>
0

> <s_epik_input>
W2NIXTFbY0hdW2NIXVtjSF1jKGMxMiluKGMobjIpW0NIMl1bQ0gzXSlbQ0gyXVtDQEhdKFtPSF0pW0NIMl1PYzNbY0hdW2NIXWMoW0NIMl1DI04pW2NIXVtjSF0z

> <s_epik_cmdline>
J2VwaWtfcHl0aG9uJywgJy1waCcsICc3LjAnLCAnLXRuJywgJzgnLCAnLW1hJywgJzIwMCcsICctbWV0YWxfYmluZGluZycsICctaW1hZScsICc8aW5maWxlLm1hZT4nLCAnLW9tYWUnLCAnPG91dGZpbGUubWFlPic=

> <r_lp_tautomer_probability>
1

> <r_epik_Ionization_Penalty>
1.03158

> <r_epik_Ionization_Penalty_Charging>
1.03158

> <r_epik_Ionization_Penalty_Neutral>
2.3994e-06

> <r_epik_State_Penalty>
1.08278

> <r_epik_Charging_Adjusted_Penalty>
2.11436

> <i_epik_Tot_Q>
1

> <i_epik_Tot_abs_Q>
1

> <r_epik_Metal_State_Penalty>
5.07177

> <b_epik_Metal_Only>
0

> <s_lp_Force_Field>
OPLS_2005

> <r_lp_Energy>
18.4444

> <b_lp_Chiralities_Consistent>
1

> <s_lp_Variant>
AV-unprocessed.smi:480-3

> <Gold.Version>
5.8.1

> <Gold.Id.Protein>
6NUR|6NUR_protein|mol2

> <Gold.PLP.Fitness>
56.5055

> <Gold.PLP.PLP>
-51.0708

> <Gold.PLP.part.hbond>
-3.0000

> <Gold.PLP.part.metal>
0.0000

> <Gold.PLP.part.buried>
-5.2551

> <Gold.PLP.part.nonpolar>
-44.2443

> <Gold.PLP.part.repulsive>
0.0671

> <Gold.PLP.ligand.clash>
0.0000

> <Gold.PLP.ligand.torsion>
1.0239

> <Gold.PLP.Chemscore.Hbond>
2.4564

> <Gold.PLP.Chemscore.CHOScore>
0.0000

> <Gold.PLP.Chemscore.Metal>
0.0000

> <Gold.Chemscore.Hbonds>
donor molecule, donor type, donor heavy atom, donor atom, acceptor molecule, acceptor atom, score
      L1  H     4    47       P1  8028  2.00
      P1  H  6931  6943       L1    16  0.37
      P1  H  6934  6947       L1    16  0.14

> <Gold.PLP.Chemscore.Internal.Correction>
0.1134

> <Gold.Rescore>
     Score         DG    S(hbond)    S(metal)    S(lipo)     H(rot)  DE(clash)    DE(int)     intcor
     16.50     -17.66       1.12        0.00     130.69       2.67       0.02       1.14       ----

> <Gold.Chemscore.Fitness>
16.5016

> <Gold.Chemscore.DG>
-17.6611

> <Gold.Chemscore.ZeroCoef>
-5.4800

> <Gold.Chemscore.Hbond>
1.1162

> <Gold.Chemscore.Metal>
0.0000

> <Gold.Chemscore.Lipo>
130.6883

> <Gold.Chemscore.Internal_Hbond>
0.0000

> <Gold.Chemscore.DEClash>
0.0202

> <Gold.Chemscore.DEInternal>
1.1392

> <Gold.Chemscore.Rot>
2.6710

> <Gold.Chemscore.Internal.Correction>
   9.000000E+99

> <Gold.Chemscore.Hbonds>
donor molecule, donor type, donor heavy atom, donor atom, acceptor molecule, acceptor atom, score
      L1  H     4    47       P1  8028  0.98
      P1  H  6931  6943       L1    16  0.09
      P1  H  6934  6947       L1    16  0.08

> <Gold.Chemscore.Hbond.Weighted>
-3.7282

> <Gold.Chemscore.Metal.Weighted>
-0.0000

> <Gold.Chemscore.Lipo.Weighted>
-15.2905

> <Gold.Chemscore.Internal_Hbond.Weighted>
0.0000

> <Gold.Chemscore.DEClash.Weighted>
0.0202

> <Gold.Chemscore.DEInternal.Weighted>
1.1392

> <Gold.Chemscore.Rot.Weighted>
6.8377

> <Gold.Chemscore.Internal.Correction.Weighted>
   9.000000E+99

> <Gold.Protein.RotatedTorsions>
[ 6907 6896 6895 6894 ] final -171.37 input  -60.11 | X-H torsion
[ 7974 7965 7964 7962 ] final  -90.32 input  175.53 | X-H torsion
[ 8008 7997 7996 7995 ] final  151.75 input   59.86 | X-H torsion
[ 10167 10162 10161 10158 ] final  -45.12 input  -65.29 | X-H torsion
[ 10718 10713 10712 10709 ] final  144.18 input   66.30 | X-H torsion
[ 10763 10752 10751 10750 ] final   53.73 input  -60.55 | X-H torsion
[ 11005 11000 10999 10996 ] final -172.95 input  -57.11 | X-H torsion

> <Gold.Protein.ActiveResidues>
 VAL166  LYS551  ARG553  GLY616  TRP617  ASP618  TYR619  PRO620  LYS621  CYS622 
 ASP623  PHE694  ASN695  SER759  ASP760  ASP761  ALA762  ILE779  LEU786  VAL792 
 PHE793  MET794  SER795  GLU796  ALA797  LYS798  CYS799  TRP800  GLU811  SER814 

> <Gold.Protein.RotatedAtoms>
  151.5227  133.3463  159.2903 H   0  0  0  0  0  0  0  0  0  0  0  0  # atno 6907 bound_to 6896
  150.8642  134.8004  159.7117 H   0  0  0  0  0  0  0  0  0  0  0  0  # atno 6908 bound_to 6896
  152.4652  134.5101  159.9803 H   0  0  0  0  0  0  0  0  0  0  0  0  # atno 6909 bound_to 6896
  145.4281  140.9554  143.2143 H   0  0  0  0  0  0  0  0  0  0  0  0  # atno 7974 bound_to 7965
  156.2660  140.2039  156.6225 H   0  0  0  0  0  0  0  0  0  0  0  0  # atno 8008 bound_to 7997
  154.6745  140.0546  157.0225 H   0  0  0  0  0  0  0  0  0  0  0  0  # atno 8009 bound_to 7997
  155.1088  140.3213  155.4530 H   0  0  0  0  0  0  0  0  0  0  0  0  # atno 8010 bound_to 7997
  140.6870  143.2895  151.3594 H   0  0  0  0  0  0  0  0  0  0  0  0  # atno 10167 bound_to 10162
  157.3602  131.0964  151.0922 H   0  0  0  0  0  0  0  0  0  0  0  0  # atno 10718 bound_to 10713
  152.9798  135.5769  154.4788 H   0  0  0  0  0  0  0  0  0  0  0  0  # atno 10763 bound_to 10752
  154.4340  135.2774  155.1895 H   0  0  0  0  0  0  0  0  0  0  0  0  # atno 10764 bound_to 10752
  154.3591  135.6192  153.5735 H   0  0  0  0  0  0  0  0  0  0  0  0  # atno 10765 bound_to 10752
  140.4912  134.5983  157.4955 H   0  0  0  0  0  0  0  0  0  0  0  0  # atno 11005 bound_to 11000
  144.8201  139.5807  143.6991 LP  0  0  0  0  0  0  0  0  0  0  0  0  # atno 17320 bound_to 7965
  146.2621  139.6435  142.9354 LP  0  0  0  0  0  0  0  0  0  0  0  0  # atno 17321 bound_to 7965
  139.6238  144.0855  152.2415 LP  0  0  0  0  0  0  0  0  0  0  0  0  # atno 17342 bound_to 10162
  140.0308  144.6082  150.7490 LP  0  0  0  0  0  0  0  0  0  0  0  0  # atno 17343 bound_to 10162
  157.2065  130.6418  149.5758 LP  0  0  0  0  0  0  0  0  0  0  0  0  # atno 17370 bound_to 10713
  155.9736  130.4674  150.6322 LP  0  0  0  0  0  0  0  0  0  0  0  0  # atno 17371 bound_to 10713
  139.9768  134.7202  155.9934 LP  0  0  0  0  0  0  0  0  0  0  0  0  # atno 17394 bound_to 11000
  141.1483  133.6552  156.3935 LP  0  0  0  0  0  0  0  0  0  0  0  0  # atno 17395 bound_to 11000

$$$$
