AV-unprocessed.smi:755|AV-procd|sdf|3611|dock1
  -GOLD-   22720 1 03D 1   1.00000     0.00000
 Structure written by MMmdl.
 33 34  0  0  0  0  0  0  0  0  1 V2000
  153.9108  138.0313  160.0692 O   0  0  0  0  0  0  0  0  0  0  0  0
  154.6977  138.6679  160.7692 C   0  0  0  0  0  0  0  0  0  0  0  0
  155.7648  137.9319  161.5821 C   0  0  0  0  0  0  0  0  0  0  0  0
  155.1722  137.1287  162.6376 N   0  0  0  0  0  0  0  0  0  0  0  0
  155.3597  135.7836  162.8939 C   0  0  0  0  0  0  0  0  0  0  0  0
  154.5869  135.5103  163.9808 C   0  0  0  0  0  0  0  0  0  0  0  0
  154.4111  133.9846  164.7654 Cl  0  0  0  0  0  0  0  0  0  0  0  0
  153.9548  136.7276  164.3400 C   0  0  0  0  0  0  0  0  0  0  0  0
  154.3146  137.7045  163.5200 N   0  0  0  0  0  0  0  0  0  0  0  0
  154.6878  140.0074  160.8623 N   0  0  0  0  0  0  0  0  0  0  0  0
  153.7747  140.8978  160.1491 C   0  0  0  0  0  0  0  0  0  0  0  0
  153.3045  142.0911  161.0004 C   0  0  0  0  0  0  0  0  0  0  0  0
  153.5081  142.0978  162.2160 O   0  0  0  0  0  0  0  0  0  0  0  0
  152.6609  143.1008  160.3787 N   0  0  0  0  0  0  0  0  0  0  0  0
  152.1412  144.3075  161.0213 C   0  0  0  0  0  0  0  0  0  0  0  0
  151.7234  145.2366  159.8810 C   0  0  0  0  0  0  0  0  0  0  0  0
  151.4351  144.2959  158.7193 C   0  0  0  0  0  0  0  0  0  0  0  0
  152.3921  143.1247  158.9422 C   0  0  0  0  0  0  0  0  0  0  0  0
  156.3452  137.2768  160.9309 H   0  0  0  0  0  0  0  0  0  0  0  0
  156.4604  138.6527  162.0150 H   0  0  0  0  0  0  0  0  0  0  0  0
  156.0071  135.1590  162.2960 H   0  0  0  0  0  0  0  0  0  0  0  0
  153.2653  136.9311  165.1459 H   0  0  0  0  0  0  0  0  0  0  0  0
  155.3762  140.4438  161.4585 H   0  0  0  0  0  0  0  0  0  0  0  0
  154.2439  141.2533  159.2302 H   0  0  0  0  0  0  0  0  0  0  0  0
  152.9026  140.3150  159.8525 H   0  0  0  0  0  0  0  0  0  0  0  0
  151.2760  144.0422  161.6306 H   0  0  0  0  0  0  0  0  0  0  0  0
  152.8795  144.7865  161.6660 H   0  0  0  0  0  0  0  0  0  0  0  0
  150.8707  145.8654  160.1386 H   0  0  0  0  0  0  0  0  0  0  0  0
  152.5552  145.8923  159.6198 H   0  0  0  0  0  0  0  0  0  0  0  0
  150.4046  143.9436  158.7833 H   0  0  0  0  0  0  0  0  0  0  0  0
  151.5663  144.7706  157.7465 H   0  0  0  0  0  0  0  0  0  0  0  0
  153.3300  143.2902  158.4100 H   0  0  0  0  0  0  0  0  0  0  0  0
  151.9614  142.1870  158.5872 H   0  0  0  0  0  0  0  0  0  0  0  0
  1  2  2  0  0  0  0
  2  3  1  0  0  0  0
  2 10  1  0  0  0  0
  3  4  1  0  0  0  0
  3 19  1  0  0  0  0
  3 20  1  0  0  0  0
  4  9  1  0  0  0  0
  4  5  1  0  0  0  0
  5  6  2  0  0  0  0
  5 21  1  0  0  0  0
  6  7  1  0  0  0  0
  6  8  1  0  0  0  0
  8  9  2  0  0  0  0
  8 22  1  0  0  0  0
 10 11  1  0  0  0  0
 10 23  1  0  0  0  0
 11 12  1  0  0  0  0
 11 24  1  0  0  0  0
 11 25  1  0  0  0  0
 12 13  2  0  0  0  0
 12 14  1  0  0  0  0
 14 18  1  0  0  0  0
 14 15  1  0  0  0  0
 15 16  1  0  0  0  0
 15 26  1  0  0  0  0
 15 27  1  0  0  0  0
 16 17  1  0  0  0  0
 16 28  1  0  0  0  0
 16 29  1  0  0  0  0
 17 18  1  0  0  0  0
 17 30  1  0  0  0  0
 17 31  1  0  0  0  0
 18 32  1  0  0  0  0
 18 33  1  0  0  0  0
M  END
> <s_m_source_file>
AV-unprocessed.smi

> <i_m_source_file_index>
755

> <i_lp_mmshare_version>
43012

> <i_f3d_flags>
0

> <s_epik_input>
bjFbY0hdYyhDbClbY0hdbjFbQ0gyXUMoPU8pW05IXVtDSDJdQyg9TylOMltDSDJdW0NIMl1bQ0gyXVtDSDJdMg==

> <s_epik_cmdline>
J2VwaWtfcHl0aG9uJywgJy1waCcsICc3LjAnLCAnLXRuJywgJzgnLCAnLW1hJywgJzIwMCcsICctbWV0YWxfYmluZGluZycsICctaW1hZScsICc8aW5maWxlLm1hZT4nLCAnLW9tYWUnLCAnPG91dGZpbGUubWFlPic=

> <r_lp_tautomer_probability>
1

> <r_epik_Ionization_Penalty>
4.35059e-07

> <r_epik_Ionization_Penalty_Charging>
0

> <r_epik_Ionization_Penalty_Neutral>
4.35059e-07

> <r_epik_State_Penalty>
-0

> <r_epik_Charging_Adjusted_Penalty>
0

> <i_epik_Tot_Q>
0

> <i_epik_Tot_abs_Q>
0

> <r_epik_Metal_State_Penalty>
-0

> <b_epik_Metal_Only>
0

> <s_lp_Force_Field>
OPLS_2005

> <r_lp_Energy>
27.1331

> <b_lp_Chiralities_Consistent>
1

> <s_lp_Variant>
AV-unprocessed.smi:755-1

> <Gold.Version>
5.8.1

> <Gold.Id.Protein>
6NUR|6NUR_protein|mol2

> <Gold.PLP.Fitness>
42.5245

> <Gold.PLP.PLP>
-43.2326

> <Gold.PLP.part.hbond>
0.0000

> <Gold.PLP.part.metal>
0.0000

> <Gold.PLP.part.buried>
-4.7781

> <Gold.PLP.part.nonpolar>
-38.4899

> <Gold.PLP.part.repulsive>
0.0820

> <Gold.PLP.ligand.clash>
0.0000

> <Gold.PLP.ligand.torsion>
0.3713

> <Gold.PLP.Chemscore.Hbond>
0.0000

> <Gold.PLP.Chemscore.CHOScore>
0.0000

> <Gold.PLP.Chemscore.Metal>
0.0000

> <Gold.PLP.Chemscore.Internal.Correction>
0.0346

> <Gold.Rescore>
     Score         DG    S(hbond)    S(metal)    S(lipo)     H(rot)  DE(clash)    DE(int)     intcor
     12.01     -12.30       0.00        0.00      97.65       1.80       0.02       0.27       ----

> <Gold.Chemscore.Fitness>
12.0101

> <Gold.Chemscore.DG>
-12.3007

> <Gold.Chemscore.ZeroCoef>
-5.4800

> <Gold.Chemscore.Hbond>
0.0000

> <Gold.Chemscore.Metal>
0.0000

> <Gold.Chemscore.Lipo>
97.6535

> <Gold.Chemscore.Internal_Hbond>
0.0000

> <Gold.Chemscore.DEClash>
0.0177

> <Gold.Chemscore.DEInternal>
0.2729

> <Gold.Chemscore.Rot>
1.7988

> <Gold.Chemscore.Internal.Correction>
   9.000000E+99

> <Gold.Chemscore.Hbond.Weighted>
-0.0000

> <Gold.Chemscore.Metal.Weighted>
-0.0000

> <Gold.Chemscore.Lipo.Weighted>
-11.4255

> <Gold.Chemscore.Internal_Hbond.Weighted>
0.0000

> <Gold.Chemscore.DEClash.Weighted>
0.0177

> <Gold.Chemscore.DEInternal.Weighted>
0.2729

> <Gold.Chemscore.Rot.Weighted>
4.6048

> <Gold.Chemscore.Internal.Correction.Weighted>
   9.000000E+99

> <Gold.Protein.RotatedTorsions>
[ 6907 6896 6895 6894 ] final  164.45 input  -60.11 | X-H torsion
[ 7974 7965 7964 7962 ] final  157.81 input  175.53 | X-H torsion
[ 8008 7997 7996 7995 ] final  -76.69 input   59.86 | X-H torsion
[ 10167 10162 10161 10158 ] final   19.55 input  -65.29 | X-H torsion
[ 10718 10713 10712 10709 ] final  -49.46 input   66.30 | X-H torsion
[ 10763 10752 10751 10750 ] final  137.03 input  -60.55 | X-H torsion
[ 11005 11000 10999 10996 ] final    4.66 input  -57.11 | X-H torsion

> <Gold.Protein.ActiveResidues>
 VAL166  LYS551  ARG553  GLY616  TRP617  ASP618  TYR619  PRO620  LYS621  CYS622 
 ASP623  PHE694  ASN695  SER759  ASP760  ASP761  ALA762  ILE779  LEU786  VAL792 
 PHE793  MET794  SER795  GLU796  ALA797  LYS798  CYS799  TRP800  GLU811  SER814 

> <Gold.Protein.RotatedAtoms>
  151.9096  133.3558  159.3858 H   0  0  0  0  0  0  0  0  0  0  0  0  # atno 6907 bound_to 6896
  150.7061  134.4745  159.5450 H   0  0  0  0  0  0  0  0  0  0  0  0  # atno 6908 bound_to 6896
  152.2349  134.8286  160.0519 H   0  0  0  0  0  0  0  0  0  0  0  0  # atno 6909 bound_to 6896
  144.7882  139.7391  143.6232 H   0  0  0  0  0  0  0  0  0  0  0  0  # atno 7974 bound_to 7965
  154.5528  140.0723  156.8696 H   0  0  0  0  0  0  0  0  0  0  0  0  # atno 8008 bound_to 7997
  155.2959  140.3381  155.4232 H   0  0  0  0  0  0  0  0  0  0  0  0  # atno 8009 bound_to 7997
  156.1976  140.1709  156.7951 H   0  0  0  0  0  0  0  0  0  0  0  0  # atno 8010 bound_to 7997
  140.5571  143.9405  150.6616 H   0  0  0  0  0  0  0  0  0  0  0  0  # atno 10167 bound_to 10162
  156.1891  130.4152  149.9396 H   0  0  0  0  0  0  0  0  0  0  0  0  # atno 10718 bound_to 10713
  153.8664  135.3061  155.3440 H   0  0  0  0  0  0  0  0  0  0  0  0  # atno 10763 bound_to 10752
  154.7826  135.4827  153.9879 H   0  0  0  0  0  0  0  0  0  0  0  0  # atno 10764 bound_to 10752
  153.1432  135.6828  153.9090 H   0  0  0  0  0  0  0  0  0  0  0  0  # atno 10765 bound_to 10752
  140.5794  134.0027  155.8041 H   0  0  0  0  0  0  0  0  0  0  0  0  # atno 11005 bound_to 11000
  146.2123  139.5487  142.9673 LP  0  0  0  0  0  0  0  0  0  0  0  0  # atno 17320 bound_to 7965
  145.5865  141.0375  143.2093 LP  0  0  0  0  0  0  0  0  0  0  0  0  # atno 17321 bound_to 7965
  140.2846  143.3366  152.1119 LP  0  0  0  0  0  0  0  0  0  0  0  0  # atno 17342 bound_to 10162
  139.5053  144.6792  151.6053 LP  0  0  0  0  0  0  0  0  0  0  0  0  # atno 17343 bound_to 10162
  156.7142  130.8982  151.3612 LP  0  0  0  0  0  0  0  0  0  0  0  0  # atno 17370 bound_to 10713
  157.6918  130.9241  150.0534 LP  0  0  0  0  0  0  0  0  0  0  0  0  # atno 17371 bound_to 10713
  141.1006  133.9775  157.3086 LP  0  0  0  0  0  0  0  0  0  0  0  0  # atno 17394 bound_to 11000
  139.9324  135.0199  156.8444 LP  0  0  0  0  0  0  0  0  0  0  0  0  # atno 17395 bound_to 11000

$$$$
