AV-unprocessed.smi:3278|AV-procd|sdf|12542|dock3
  -GOLD-   2272018453D 1   1.00000     0.00000
 Structure written by MMmdl.
 39 40  0  0  0  0  0  0  0  0  2 V2000
  145.7598  143.3703  153.8547 C   0  0  0  0  0  0  0  0  0  0  0  0
  146.7344  142.3189  154.0521 N   0  0  0  0  0  0  0  0  0  0  0  0
  147.6573  142.1793  155.0654 C   0  0  0  0  0  0  0  0  0  0  0  0
  148.3595  141.0282  154.8323 C   0  0  0  0  0  0  0  0  0  0  0  0
  149.4898  140.4304  155.6434 C   0  0  1  0  0  0  0  0  0  0  0  0
  149.1741  138.9656  155.9937 C   0  0  0  0  0  0  0  0  0  0  0  0
  150.7033  140.4004  154.9150 O   0  0  0  0  0  0  0  0  0  0  0  0
  149.7456  141.2500  156.9265 C   0  0  0  0  0  0  0  0  0  0  0  0
  150.5485  142.4637  156.6520 N   0  3  0  0  0  0  0  0  0  0  0  0
  151.1525  143.1112  157.8370 C   0  0  1  0  0  0  0  0  0  0  0  0
  151.9766  144.3536  157.4318 C   0  0  0  0  0  0  0  0  0  0  0  0
  152.6627  145.0320  158.6291 C   0  0  0  0  0  0  0  0  0  0  0  0
  151.6586  145.5297  159.6771 C   0  0  0  0  0  0  0  0  0  0  0  0
  150.7130  144.1513  160.3764 S   0  0  0  0  0  0  0  0  0  0  0  0
  150.0379  143.4811  158.8324 C   0  0  0  0  0  0  0  0  0  0  0  0
  147.7725  140.5307  153.6309 C   0  0  0  0  0  0  0  0  0  0  0  0
  146.8074  141.3059  153.1661 N   0  0  0  0  0  0  0  0  0  0  0  0
  145.8484  144.1165  154.6449 H   0  0  0  0  0  0  0  0  0  0  0  0
  144.7538  142.9497  153.8755 H   0  0  0  0  0  0  0  0  0  0  0  0
  145.9268  143.8531  152.8912 H   0  0  0  0  0  0  0  0  0  0  0  0
  147.7385  142.9041  155.8623 H   0  0  0  0  0  0  0  0  0  0  0  0
  148.2652  138.8849  156.5907 H   0  0  0  0  0  0  0  0  0  0  0  0
  149.9810  138.5085  156.5681 H   0  0  0  0  0  0  0  0  0  0  0  0
  149.0296  138.3654  155.0942 H   0  0  0  0  0  0  0  0  0  0  0  0
  151.4161  140.2506  155.5178 H   0  0  0  0  0  0  0  0  0  0  0  0
  148.7935  141.5568  157.3620 H   0  0  0  0  0  0  0  0  0  0  0  0
  150.2457  140.6302  157.6710 H   0  0  0  0  0  0  0  0  0  0  0  0
  151.2781  142.2356  155.9918 H   0  0  0  0  0  0  0  0  0  0  0  0
  151.8080  142.3852  158.3213 H   0  0  0  0  0  0  0  0  0  0  0  0
  152.7471  144.0772  156.7129 H   0  0  0  0  0  0  0  0  0  0  0  0
  151.3339  145.0748  156.9249 H   0  0  0  0  0  0  0  0  0  0  0  0
  153.3665  144.3398  159.0933 H   0  0  0  0  0  0  0  0  0  0  0  0
  153.2552  145.8752  158.2726 H   0  0  0  0  0  0  0  0  0  0  0  0
  152.1793  146.0437  160.4853 H   0  0  0  0  0  0  0  0  0  0  0  0
  150.9681  146.2475  159.2330 H   0  0  0  0  0  0  0  0  0  0  0  0
  149.3597  144.2154  158.3955 H   0  0  0  0  0  0  0  0  0  0  0  0
  149.4401  142.6027  159.0786 H   0  0  0  0  0  0  0  0  0  0  0  0
  148.0229  139.6350  153.0816 H   0  0  0  0  0  0  0  0  0  0  0  0
  149.9287  143.1334  156.2185 H   0  0  0  0  0  0  0  0  0  0  0  0
  1  2  1  0  0  0  0
  1 18  1  0  0  0  0
  1 19  1  0  0  0  0
  1 20  1  0  0  0  0
  2 17  1  0  0  0  0
  2  3  1  0  0  0  0
  3  4  2  0  0  0  0
  3 21  1  0  0  0  0
  4  5  1  0  0  0  0
  4 16  1  0  0  0  0
  5  6  1  0  0  0  0
  5  7  1  0  0  0  0
  5  8  1  0  0  0  0
  6 22  1  0  0  0  0
  6 23  1  0  0  0  0
  6 24  1  0  0  0  0
  7 25  1  0  0  0  0
  8  9  1  0  0  0  0
  8 26  1  0  0  0  0
  8 27  1  0  0  0  0
  9 10  1  0  0  0  0
  9 28  1  0  0  0  0
  9 39  1  0  0  0  0
 10 15  1  0  0  0  0
 10 11  1  0  0  0  0
 10 29  1  0  0  0  0
 11 12  1  0  0  0  0
 11 30  1  0  0  0  0
 11 31  1  0  0  0  0
 12 13  1  0  0  0  0
 12 32  1  0  0  0  0
 12 33  1  0  0  0  0
 13 14  1  0  0  0  0
 13 34  1  0  0  0  0
 13 35  1  0  0  0  0
 14 15  1  0  0  0  0
 15 36  1  0  0  0  0
 15 37  1  0  0  0  0
 16 17  2  0  0  0  0
 16 38  1  0  0  0  0
M  CHG  1   9   1
M  END
> <s_m_source_file>
AV-unprocessed.smi

> <i_m_source_file_index>
3278

> <i_lp_mmshare_version>
43012

> <i_f3d_flags>
0

> <s_epik_input>
W0NIM11uMVtjSF1jKFtjSF1uMSlbQ0BAXShbQ0gzXSkoW09IXSlbQ0gyXVtOSF1bQ0BASF0yW0NIMl1bQ0gyXVtDSDJdU1tDSDJdMg==

> <s_epik_cmdline>
J2VwaWtfcHl0aG9uJywgJy1waCcsICc3LjAnLCAnLXRuJywgJzgnLCAnLW1hJywgJzIwMCcsICctbWV0YWxfYmluZGluZycsICctaW1hZScsICc8aW5maWxlLm1hZT4nLCAnLW9tYWUnLCAnPG91dGZpbGUubWFlPic=

> <r_lp_tautomer_probability>
1

> <r_epik_Ionization_Penalty>
0.0185703

> <r_epik_Ionization_Penalty_Charging>
0.0185619

> <r_epik_Ionization_Penalty_Neutral>
8.47286e-06

> <r_epik_State_Penalty>
0.0147768

> <r_epik_Charging_Adjusted_Penalty>
0.0333386

> <i_epik_Tot_Q>
1

> <i_epik_Tot_abs_Q>
1

> <r_epik_Metal_State_Penalty>
0.0147782

> <b_epik_Metal_Only>
0

> <s_lp_Force_Field>
OPLS_2005

> <r_lp_Energy>
8.69556

> <b_lp_Chiralities_Consistent>
1

> <s_lp_Variant>
AV-unprocessed.smi:3278-3

> <Gold.Version>
5.8.1

> <Gold.Id.Protein>
6NUR|6NUR_protein|mol2

> <Gold.PLP.Fitness>
48.3818

> <Gold.PLP.PLP>
-35.6497

> <Gold.PLP.part.hbond>
-2.0000

> <Gold.PLP.part.metal>
0.0000

> <Gold.PLP.part.buried>
-1.8880

> <Gold.PLP.part.nonpolar>
-31.2390

> <Gold.PLP.part.repulsive>
0.2643

> <Gold.PLP.ligand.clash>
0.0000

> <Gold.PLP.ligand.torsion>
0.4263

> <Gold.PLP.Chemscore.Hbond>
3.0000

> <Gold.PLP.Chemscore.CHOScore>
1.5203

> <Gold.PLP.Chemscore.Metal>
0.0000

> <Gold.Chemscore.Hbonds>
donor molecule, donor type, donor heavy atom, donor atom, acceptor molecule, acceptor atom, score
      L1  H     9    39       P1  8028  2.00
      P1  H  7989  7998       L1     7  0.95
      L1  C     3    21       P1  8028  0.85
      L1  C    16    38       P1  7957  0.68

> <Gold.PLP.Chemscore.Internal.Correction>
0.0237

> <Gold.Rescore>
     Score         DG    S(hbond)    S(metal)    S(lipo)     H(rot)  DE(clash)    DE(int)     intcor
     16.76     -17.98       1.75        0.00     100.73       2.00       0.84       0.38       ----

> <Gold.Chemscore.Fitness>
16.7611

> <Gold.Chemscore.DG>
-17.9786

> <Gold.Chemscore.ZeroCoef>
-5.4800

> <Gold.Chemscore.Hbond>
1.7493

> <Gold.Chemscore.Metal>
0.0000

> <Gold.Chemscore.Lipo>
100.7313

> <Gold.Chemscore.Internal_Hbond>
0.0000

> <Gold.Chemscore.DEClash>
0.8419

> <Gold.Chemscore.DEInternal>
0.3755

> <Gold.Chemscore.Rot>
2.0038

> <Gold.Chemscore.Internal.Correction>
   9.000000E+99

> <Gold.Chemscore.Hbonds>
donor molecule, donor type, donor heavy atom, donor atom, acceptor molecule, acceptor atom, score
      L1  H     9    39       P1  8028  0.98
      P1  H  7989  7998       L1     7  0.21

> <Gold.Chemscore.Hbond.Weighted>
-5.8427

> <Gold.Chemscore.Metal.Weighted>
-0.0000

> <Gold.Chemscore.Lipo.Weighted>
-11.7856

> <Gold.Chemscore.Internal_Hbond.Weighted>
0.0000

> <Gold.Chemscore.DEClash.Weighted>
0.8419

> <Gold.Chemscore.DEInternal.Weighted>
0.3755

> <Gold.Chemscore.Rot.Weighted>
5.1296

> <Gold.Chemscore.Internal.Correction.Weighted>
   9.000000E+99

> <Gold.Protein.RotatedTorsions>
[ 6907 6896 6895 6894 ] final  -50.19 input  -60.11 | X-H torsion
[ 7974 7965 7964 7962 ] final  167.29 input  175.53 | X-H torsion
[ 8008 7997 7996 7995 ] final  -24.86 input   59.86 | X-H torsion
[ 10167 10162 10161 10158 ] final  -27.80 input  -65.29 | X-H torsion
[ 10718 10713 10712 10709 ] final   92.26 input   66.30 | X-H torsion
[ 10763 10752 10751 10750 ] final -174.59 input  -60.55 | X-H torsion
[ 11005 11000 10999 10996 ] final   14.09 input  -57.11 | X-H torsion

> <Gold.Protein.ActiveResidues>
 VAL166  LYS551  ARG553  GLY616  TRP617  ASP618  TYR619  PRO620  LYS621  CYS622 
 ASP623  PHE694  ASN695  SER759  ASP760  ASP761  ALA762  ILE779  LEU786  VAL792 
 PHE793  MET794  SER795  GLU796  ALA797  LYS798  CYS799  TRP800  GLU811  SER814 

> <Gold.Protein.RotatedAtoms>
  150.8731  134.8109  159.7169 H   0  0  0  0  0  0  0  0  0  0  0  0  # atno 6907 bound_to 6896
  152.4728  134.4914  159.9706 H   0  0  0  0  0  0  0  0  0  0  0  0  # atno 6908 bound_to 6896
  151.5000  133.3468  159.2903 H   0  0  0  0  0  0  0  0  0  0  0  0  # atno 6909 bound_to 6896
  144.7430  139.8739  143.6391 H   0  0  0  0  0  0  0  0  0  0  0  0  # atno 7974 bound_to 7965
  154.4506  140.1942  156.0530 H   0  0  0  0  0  0  0  0  0  0  0  0  # atno 8008 bound_to 7997
  156.0640  140.3293  155.7468 H   0  0  0  0  0  0  0  0  0  0  0  0  # atno 8009 bound_to 7997
  155.5367  140.0583  157.2869 H   0  0  0  0  0  0  0  0  0  0  0  0  # atno 8010 bound_to 7997
  140.7275  143.4063  151.1180 H   0  0  0  0  0  0  0  0  0  0  0  0  # atno 10167 bound_to 10162
  157.6959  131.0437  150.3855 H   0  0  0  0  0  0  0  0  0  0  0  0  # atno 10718 bound_to 10713
  154.5945  135.2848  155.0601 H   0  0  0  0  0  0  0  0  0  0  0  0  # atno 10763 bound_to 10752
  154.1889  135.6444  153.5058 H   0  0  0  0  0  0  0  0  0  0  0  0  # atno 10764 bound_to 10752
  153.0133  135.5441  154.6642 H   0  0  0  0  0  0  0  0  0  0  0  0  # atno 10765 bound_to 10752
  140.4734  134.1008  155.7737 H   0  0  0  0  0  0  0  0  0  0  0  0  # atno 11005 bound_to 11000
  146.1260  139.4286  143.0198 LP  0  0  0  0  0  0  0  0  0  0  0  0  # atno 17320 bound_to 7965
  145.7234  141.0067  143.1390 LP  0  0  0  0  0  0  0  0  0  0  0  0  # atno 17321 bound_to 7965
  139.7690  143.8522  152.3116 LP  0  0  0  0  0  0  0  0  0  0  0  0  # atno 17342 bound_to 10162
  139.8434  144.7199  150.9303 LP  0  0  0  0  0  0  0  0  0  0  0  0  # atno 17343 bound_to 10162
  156.4264  130.3963  149.6790 LP  0  0  0  0  0  0  0  0  0  0  0  0  # atno 17370 bound_to 10713
  156.4023  130.7680  151.2689 LP  0  0  0  0  0  0  0  0  0  0  0  0  # atno 17371 bound_to 10713
  141.1566  133.8871  157.1961 LP  0  0  0  0  0  0  0  0  0  0  0  0  # atno 17394 bound_to 11000
  139.9871  135.0078  156.9888 LP  0  0  0  0  0  0  0  0  0  0  0  0  # atno 17395 bound_to 11000

$$$$
