AV-unprocessed.smi:2391|AV-procd|sdf|9483|dock3
  -GOLD-   2272013113D 1   1.00000     0.00000
 Structure written by MMmdl.
 35 36  0  0  0  0  0  0  0  0  1 V2000
  150.8382  140.5792  155.3454 O   0  0  0  0  0  0  0  0  0  0  0  0
  150.2674  141.6080  155.7191 C   0  0  0  0  0  0  0  0  0  0  0  0
  150.7854  142.6755  156.4439 N   0  0  0  0  0  0  0  0  0  0  0  0
  151.3947  142.5192  157.5832 C   0  0  0  0  0  0  0  0  0  0  0  0
  151.9309  143.6619  158.3029 C   0  0  0  0  0  0  0  0  0  0  0  0
  152.5674  143.5126  159.4877 C   0  0  0  0  0  0  0  0  0  0  0  0
  152.7073  142.1778  160.0349 C   0  0  0  0  0  0  0  0  0  0  0  0
  152.2446  141.1345  159.4314 N   0  0  0  0  0  0  0  0  0  0  0  0
  151.6111  141.2943  158.2515 N   0  0  0  0  0  0  0  0  0  0  0  0
  148.9739  141.8353  155.4438 N   0  0  0  0  0  0  0  0  0  0  0  0
  148.0686  140.9566  154.6981 C   0  0  2  0  0  0  0  0  0  0  0  0
  146.6700  141.6206  154.6054 C   0  0  0  0  0  0  0  0  0  0  0  0
  146.6032  142.8876  153.7451 C   0  0  0  0  0  0  0  0  0  0  0  0
  145.3125  143.5909  154.1728 C   0  0  0  0  0  0  0  0  0  0  0  0
  145.0464  143.1512  155.6184 C   0  0  0  0  0  0  0  0  0  0  0  0
  146.1137  142.1028  155.9536 C   0  0  0  0  0  0  0  0  0  0  0  0
  148.0611  139.5644  155.3706 C   0  0  0  0  0  0  0  0  0  0  0  0
  146.9320  138.9225  155.0673 F   0  0  0  0  0  0  0  0  0  0  0  0
  149.0942  138.8331  154.9504 F   0  0  0  0  0  0  0  0  0  0  0  0
  148.1195  139.6733  156.6972 F   0  0  0  0  0  0  0  0  0  0  0  0
  151.8355  144.6638  157.9104 H   0  0  0  0  0  0  0  0  0  0  0  0
  152.9660  144.3613  160.0234 H   0  0  0  0  0  0  0  0  0  0  0  0
  153.2291  142.1126  160.9896 H   0  0  0  0  0  0  0  0  0  0  0  0
  148.5739  142.6970  155.7860 H   0  0  0  0  0  0  0  0  0  0  0  0
  148.4424  140.8197  153.6822 H   0  0  0  0  0  0  0  0  0  0  0  0
  145.9628  140.8987  154.1933 H   0  0  0  0  0  0  0  0  0  0  0  0
  147.4580  143.5304  153.9610 H   0  0  0  0  0  0  0  0  0  0  0  0
  146.6086  142.6729  152.6763 H   0  0  0  0  0  0  0  0  0  0  0  0
  145.3925  144.6743  154.0796 H   0  0  0  0  0  0  0  0  0  0  0  0
  144.4877  143.2690  153.5356 H   0  0  0  0  0  0  0  0  0  0  0  0
  145.0966  143.9926  156.3104 H   0  0  0  0  0  0  0  0  0  0  0  0
  144.0472  142.7218  155.7004 H   0  0  0  0  0  0  0  0  0  0  0  0
  145.7118  141.2864  156.5546 H   0  0  0  0  0  0  0  0  0  0  0  0
  146.9086  142.5737  156.5339 H   0  0  0  0  0  0  0  0  0  0  0  0
  151.2637  140.4521  157.8153 H   0  0  0  0  0  0  0  0  0  0  0  0
  1  2  2  0  0  0  0
  2  3  1  0  0  0  0
  2 10  1  0  0  0  0
  3  4  2  0  0  0  0
  4  9  1  0  0  0  0
  4  5  1  0  0  0  0
  5  6  2  0  0  0  0
  5 21  1  0  0  0  0
  6  7  1  0  0  0  0
  6 22  1  0  0  0  0
  7  8  2  0  0  0  0
  7 23  1  0  0  0  0
  8  9  1  0  0  0  0
  9 35  1  0  0  0  0
 10 11  1  0  0  0  0
 10 24  1  0  0  0  0
 11 12  1  0  0  0  0
 11 17  1  0  0  0  0
 11 25  1  0  0  0  0
 12 16  1  0  0  0  0
 12 13  1  0  0  0  0
 12 26  1  0  0  0  0
 13 14  1  0  0  0  0
 13 27  1  0  0  0  0
 13 28  1  0  0  0  0
 14 15  1  0  0  0  0
 14 29  1  0  0  0  0
 14 30  1  0  0  0  0
 15 16  1  0  0  0  0
 15 31  1  0  0  0  0
 15 32  1  0  0  0  0
 16 33  1  0  0  0  0
 16 34  1  0  0  0  0
 17 18  1  0  0  0  0
 17 19  1  0  0  0  0
 17 20  1  0  0  0  0
M  END
> <s_m_source_file>
AV-unprocessed.smi

> <i_m_source_file_index>
2391

> <i_lp_mmshare_version>
43012

> <i_f3d_flags>
0

> <s_epik_input>
W0NIMl0xW0NIMl1bQ0gyXVtDSDJdW0NIXTFbQ0BIXShDKEYpKEYpRilbTkhdQyg9TylbTkhdYzJbY0hdW2NIXVtjSF1ubjI=

> <s_epik_cmdline>
J2VwaWtfcHl0aG9uJywgJy1waCcsICc3LjAnLCAnLXRuJywgJzgnLCAnLW1hJywgJzIwMCcsICctbWV0YWxfYmluZGluZycsICctaW1hZScsICc8aW5maWxlLm1hZT4nLCAnLW9tYWUnLCAnPG91dGZpbGUubWFlPic=

> <r_epik_Ionization_Penalty>
0.0611197

> <r_epik_Ionization_Penalty_Charging>
0.0611196

> <r_epik_Ionization_Penalty_Neutral>
6.50554e-08

> <r_epik_State_Penalty>
2.29873

> <r_epik_Charging_Adjusted_Penalty>
2.35985

> <i_epik_Tot_Q>
0

> <i_epik_Tot_abs_Q>
0

> <r_epik_Metal_State_Penalty>
2.32932

> <b_epik_Metal_Only>
0

> <s_lp_Force_Field>
OPLS_2005

> <r_lp_Energy>
49.9712

> <b_lp_Chiralities_Consistent>
1

> <s_lp_Variant>
AV-unprocessed.smi:2391-3

> <Gold.Version>
5.8.1

> <Gold.Id.Protein>
6NUR|6NUR_protein|mol2

> <Gold.PLP.Fitness>
36.9333

> <Gold.PLP.PLP>
-34.0861

> <Gold.PLP.part.hbond>
-2.0000

> <Gold.PLP.part.metal>
0.0000

> <Gold.PLP.part.buried>
-7.9905

> <Gold.PLP.part.nonpolar>
-26.4390

> <Gold.PLP.part.repulsive>
1.8019

> <Gold.PLP.ligand.clash>
0.0370

> <Gold.PLP.ligand.torsion>
1.3745

> <Gold.PLP.Chemscore.Hbond>
1.7529

> <Gold.PLP.Chemscore.CHOScore>
0.0000

> <Gold.PLP.Chemscore.Metal>
0.0000

> <Gold.Chemscore.Hbonds>
donor molecule, donor type, donor heavy atom, donor atom, acceptor molecule, acceptor atom, score
      L1  H    10    24       P1  8028  0.78
      P1  H  7989  7998       L1     1  0.93

> <Gold.PLP.Chemscore.Internal.Correction>
0.3747

> <Gold.Rescore>
     Score         DG    S(hbond)    S(metal)    S(lipo)     H(rot)  DE(clash)    DE(int)     intcor
     10.13     -15.15       1.53        0.00      68.04       1.33       1.02       3.99       ----

> <Gold.Chemscore.Fitness>
10.1335

> <Gold.Chemscore.DG>
-15.1458

> <Gold.Chemscore.ZeroCoef>
-5.4800

> <Gold.Chemscore.Hbond>
1.5301

> <Gold.Chemscore.Metal>
0.0000

> <Gold.Chemscore.Lipo>
68.0432

> <Gold.Chemscore.Internal_Hbond>
0.0000

> <Gold.Chemscore.DEClash>
1.0201

> <Gold.Chemscore.DEInternal>
3.9921

> <Gold.Chemscore.Rot>
1.3304

> <Gold.Chemscore.Internal.Correction>
   9.000000E+99

> <Gold.Chemscore.Hbonds>
donor molecule, donor type, donor heavy atom, donor atom, acceptor molecule, acceptor atom, score
      L1  H    10    24       P1  8028  0.72
      P1  H  7989  7998       L1     1  0.59

> <Gold.Chemscore.Hbond.Weighted>
-5.1104

> <Gold.Chemscore.Metal.Weighted>
-0.0000

> <Gold.Chemscore.Lipo.Weighted>
-7.9611

> <Gold.Chemscore.Internal_Hbond.Weighted>
0.0000

> <Gold.Chemscore.DEClash.Weighted>
1.0201

> <Gold.Chemscore.DEInternal.Weighted>
3.9921

> <Gold.Chemscore.Rot.Weighted>
3.4057

> <Gold.Chemscore.Internal.Correction.Weighted>
   9.000000E+99

> <Gold.Protein.RotatedTorsions>
[ 6907 6896 6895 6894 ] final -162.22 input  -60.11 | X-H torsion
[ 7974 7965 7964 7962 ] final  -54.28 input  175.53 | X-H torsion
[ 8008 7997 7996 7995 ] final -129.54 input   59.86 | X-H torsion
[ 10167 10162 10161 10158 ] final  132.35 input  -65.29 | X-H torsion
[ 10718 10713 10712 10709 ] final  -72.72 input   66.30 | X-H torsion
[ 10763 10752 10751 10750 ] final  117.52 input  -60.55 | X-H torsion
[ 11005 11000 10999 10996 ] final  -82.32 input  -57.11 | X-H torsion

> <Gold.Protein.ActiveResidues>
 VAL166  LYS551  ARG553  GLY616  TRP617  ASP618  TYR619  PRO620  LYS621  CYS622 
 ASP623  PHE694  ASN695  SER759  ASP760  ASP761  ALA762  ILE779  LEU786  VAL792 
 PHE793  MET794  SER795  GLU796  ALA797  LYS798  CYS799  TRP800  GLU811  SER814 

> <Gold.Protein.RotatedAtoms>
  151.3770  133.3835  159.2705 H   0  0  0  0  0  0  0  0  0  0  0  0  # atno 6907 bound_to 6896
  150.9607  134.8996  159.7739 H   0  0  0  0  0  0  0  0  0  0  0  0  # atno 6908 bound_to 6896
  152.5148  134.3729  159.9376 H   0  0  0  0  0  0  0  0  0  0  0  0  # atno 6909 bound_to 6896
  145.8873  140.8098  142.9809 H   0  0  0  0  0  0  0  0  0  0  0  0  # atno 7974 bound_to 7965
  155.2809  140.0444  157.3015 H   0  0  0  0  0  0  0  0  0  0  0  0  # atno 8008 bound_to 7997
  154.5597  140.2342  155.8322 H   0  0  0  0  0  0  0  0  0  0  0  0  # atno 8009 bound_to 7997
  156.2037  140.3018  155.9588 H   0  0  0  0  0  0  0  0  0  0  0  0  # atno 8010 bound_to 7997
  139.5343  144.6665  151.4840 H   0  0  0  0  0  0  0  0  0  0  0  0  # atno 10167 bound_to 10162
  156.0309  130.4378  150.2635 H   0  0  0  0  0  0  0  0  0  0  0  0  # atno 10718 bound_to 10713
  153.5536  135.3535  155.2770 H   0  0  0  0  0  0  0  0  0  0  0  0  # atno 10763 bound_to 10752
  154.8704  135.4119  154.2910 H   0  0  0  0  0  0  0  0  0  0  0  0  # atno 10764 bound_to 10752
  153.3641  135.7061  153.6758 H   0  0  0  0  0  0  0  0  0  0  0  0  # atno 10765 bound_to 10752
  141.1663  133.7239  156.8554 H   0  0  0  0  0  0  0  0  0  0  0  0  # atno 11005 bound_to 11000
  144.6729  140.1476  143.7432 LP  0  0  0  0  0  0  0  0  0  0  0  0  # atno 17320 bound_to 7965
  145.8951  139.2398  143.1527 LP  0  0  0  0  0  0  0  0  0  0  0  0  # atno 17321 bound_to 7965
  140.6541  143.8636  150.6816 LP  0  0  0  0  0  0  0  0  0  0  0  0  # atno 17342 bound_to 10162
  140.2010  143.3959  152.1791 LP  0  0  0  0  0  0  0  0  0  0  0  0  # atno 17343 bound_to 10162
  157.0737  131.0124  151.3181 LP  0  0  0  0  0  0  0  0  0  0  0  0  # atno 17370 bound_to 10713
  157.4980  130.7862  149.7575 LP  0  0  0  0  0  0  0  0  0  0  0  0  # atno 17371 bound_to 10713
  140.1886  134.8982  157.3034 LP  0  0  0  0  0  0  0  0  0  0  0  0  # atno 17394 bound_to 11000
  140.2315  134.3903  155.7520 LP  0  0  0  0  0  0  0  0  0  0  0  0  # atno 17395 bound_to 11000

$$$$
