AV-unprocessed.smi:1231|AV-procd|sdf|5161|dock8
  -GOLD-   22720 4233D 1   1.00000     0.00000
 Structure written by MMmdl.
 42 43  0  0  0  0  0  0  0  0  1 V2000
  150.7790  142.1826  156.3028 C   0  0  0  0  0  0  0  0  0  0  0  0
  150.3920  140.7484  155.9276 C   0  0  1  0  0  0  0  0  0  0  0  0
  149.2010  140.7034  154.9510 C   0  0  0  0  0  0  0  0  0  0  0  0
  148.8876  139.3392  154.5330 N   0  0  0  0  0  0  0  0  0  0  0  0
  147.7742  139.2824  153.5877 C   0  0  0  0  0  0  0  0  0  0  0  0
  146.7008  138.2260  153.9108 C   0  0  0  0  0  0  0  0  0  0  0  0
  146.8831  137.0226  153.1084 N   0  0  0  0  0  0  0  0  0  0  0  0
  145.8898  136.2591  152.6307 C   0  0  0  0  0  0  0  0  0  0  0  0
  144.6973  136.5001  152.8221 O   0  0  0  0  0  0  0  0  0  0  0  0
  146.3709  135.2158  151.9318 N   0  0  0  0  0  0  0  0  0  0  0  0
  145.6426  134.1883  151.2753 C   0  0  0  0  0  0  0  0  0  0  0  0
  146.4339  133.1782  150.6829 C   0  0  0  0  0  0  0  0  0  0  0  0
  145.8067  132.1140  150.0063 C   0  0  0  0  0  0  0  0  0  0  0  0
  144.4022  132.0867  149.9403 C   0  0  0  0  0  0  0  0  0  0  0  0
  143.6890  133.1306  150.5580 C   0  0  0  0  0  0  0  0  0  0  0  0
  144.2881  134.1516  151.2061 N   0  0  0  0  0  0  0  0  0  0  0  0
  150.0856  138.7336  153.9625 C   0  0  0  0  0  0  0  0  0  0  0  0
  151.2755  138.7724  154.9401 C   0  0  1  0  0  0  0  0  0  0  0  0
  152.5564  138.2068  154.3178 C   0  0  0  0  0  0  0  0  0  0  0  0
  151.5193  140.1239  155.3196 O   0  0  0  0  0  0  0  0  0  0  0  0
  149.9507  142.6982  156.7893 H   0  0  0  0  0  0  0  0  0  0  0  0
  151.0612  142.7586  155.4211 H   0  0  0  0  0  0  0  0  0  0  0  0
  151.6249  142.1897  156.9906 H   0  0  0  0  0  0  0  0  0  0  0  0
  150.1369  140.2051  156.8391 H   0  0  0  0  0  0  0  0  0  0  0  0
  148.3377  141.1570  155.4365 H   0  0  0  0  0  0  0  0  0  0  0  0
  149.4251  141.3146  154.0753 H   0  0  0  0  0  0  0  0  0  0  0  0
  147.3078  140.2657  153.5086 H   0  0  0  0  0  0  0  0  0  0  0  0
  148.1729  139.0612  152.5967 H   0  0  0  0  0  0  0  0  0  0  0  0
  146.7186  137.9751  154.9726 H   0  0  0  0  0  0  0  0  0  0  0  0
  145.7033  138.6079  153.6963 H   0  0  0  0  0  0  0  0  0  0  0  0
  147.8339  136.7523  152.9040 H   0  0  0  0  0  0  0  0  0  0  0  0
  147.3754  135.1482  151.8612 H   0  0  0  0  0  0  0  0  0  0  0  0
  147.5121  133.2143  150.7434 H   0  0  0  0  0  0  0  0  0  0  0  0
  146.3937  131.3327  149.5465 H   0  0  0  0  0  0  0  0  0  0  0  0
  143.8850  131.2875  149.4306 H   0  0  0  0  0  0  0  0  0  0  0  0
  142.6093  133.1471  150.5314 H   0  0  0  0  0  0  0  0  0  0  0  0
  149.8795  137.6981  153.6888 H   0  0  0  0  0  0  0  0  0  0  0  0
  150.3563  139.2507  153.0403 H   0  0  0  0  0  0  0  0  0  0  0  0
  151.0344  138.1923  155.8325 H   0  0  0  0  0  0  0  0  0  0  0  0
  152.4208  137.1670  154.0190 H   0  0  0  0  0  0  0  0  0  0  0  0
  153.3828  138.2431  155.0278 H   0  0  0  0  0  0  0  0  0  0  0  0
  152.8506  138.7741  153.4343 H   0  0  0  0  0  0  0  0  0  0  0  0
  1  2  1  0  0  0  0
  1 21  1  0  0  0  0
  1 22  1  0  0  0  0
  1 23  1  0  0  0  0
  2 20  1  0  0  0  0
  2  3  1  0  0  0  0
  2 24  1  0  0  0  0
  3  4  1  0  0  0  0
  3 25  1  0  0  0  0
  3 26  1  0  0  0  0
  4  5  1  0  0  0  0
  4 17  1  0  0  0  0
  5  6  1  0  0  0  0
  5 27  1  0  0  0  0
  5 28  1  0  0  0  0
  6  7  1  0  0  0  0
  6 29  1  0  0  0  0
  6 30  1  0  0  0  0
  7  8  1  0  0  0  0
  7 31  1  0  0  0  0
  8  9  2  0  0  0  0
  8 10  1  0  0  0  0
 10 11  1  0  0  0  0
 10 32  1  0  0  0  0
 11 16  1  0  0  0  0
 11 12  2  0  0  0  0
 12 13  1  0  0  0  0
 12 33  1  0  0  0  0
 13 14  2  0  0  0  0
 13 34  1  0  0  0  0
 14 15  1  0  0  0  0
 14 35  1  0  0  0  0
 15 16  2  0  0  0  0
 15 36  1  0  0  0  0
 17 18  1  0  0  0  0
 17 37  1  0  0  0  0
 17 38  1  0  0  0  0
 18 19  1  0  0  0  0
 18 20  1  0  0  0  0
 18 39  1  0  0  0  0
 19 40  1  0  0  0  0
 19 41  1  0  0  0  0
 19 42  1  0  0  0  0
M  END
> <s_m_source_file>
AV-unprocessed.smi

> <i_m_source_file_index>
1231

> <i_lp_mmshare_version>
43012

> <i_f3d_flags>
0

> <s_epik_input>
W0NIM11bQ0BASF0xW0NIMl1OKFtDSDJdW0NASF0oTzEpW0NIM10pW0NIMl1bQ0gyXVtOSF1DKD1PKVtOSF1jMltjSF1bY0hdW2NIXVtjSF1uMg==

> <s_epik_cmdline>
J2VwaWtfcHl0aG9uJywgJy1waCcsICc3LjAnLCAnLXRuJywgJzgnLCAnLW1hJywgJzIwMCcsICctbWV0YWxfYmluZGluZycsICctaW1hZScsICc8aW5maWxlLm1hZT4nLCAnLW9tYWUnLCAnPG91dGZpbGUubWFlPic=

> <r_epik_Ionization_Penalty>
0.266037

> <r_epik_Ionization_Penalty_Charging>
0

> <r_epik_Ionization_Penalty_Neutral>
0.266037

> <r_epik_State_Penalty>
0.257924

> <r_epik_Charging_Adjusted_Penalty>
0.257924

> <i_epik_Tot_Q>
0

> <i_epik_Tot_abs_Q>
0

> <r_epik_Metal_State_Penalty>
0.257923

> <b_epik_Metal_Only>
0

> <s_lp_Force_Field>
OPLS_2005

> <r_lp_Energy>
20.5827

> <b_lp_Chiralities_Consistent>
1

> <s_lp_Variant>
AV-unprocessed.smi:1231-2

> <Gold.Version>
5.8.1

> <Gold.Id.Protein>
6NUR|6NUR_protein|mol2

> <Gold.PLP.Fitness>
44.7929

> <Gold.PLP.PLP>
-35.8095

> <Gold.PLP.part.hbond>
-3.0000

> <Gold.PLP.part.metal>
0.0000

> <Gold.PLP.part.buried>
-3.0647

> <Gold.PLP.part.nonpolar>
-31.0076

> <Gold.PLP.part.repulsive>
0.5034

> <Gold.PLP.ligand.clash>
0.0000

> <Gold.PLP.ligand.torsion>
1.1098

> <Gold.PLP.Chemscore.Hbond>
2.7328

> <Gold.PLP.Chemscore.CHOScore>
1.0000

> <Gold.PLP.Chemscore.Metal>
0.0000

> <Gold.Chemscore.Hbonds>
donor molecule, donor type, donor heavy atom, donor atom, acceptor molecule, acceptor atom, score
      L1  H     7    31       P1  7948  1.00
      L1  H    10    32       P1  7948  0.85
      P1  H  7989  7998       L1    20  0.89
      L1  C    15    36       P1 10186  1.00

> <Gold.PLP.Chemscore.Internal.Correction>
0.0045

> <Gold.Rescore>
     Score         DG    S(hbond)    S(metal)    S(lipo)     H(rot)  DE(clash)    DE(int)     intcor
     16.93     -19.34       2.02        0.00      93.90       1.52       0.07       2.34       ----

> <Gold.Chemscore.Fitness>
16.9265

> <Gold.Chemscore.DG>
-19.3400

> <Gold.Chemscore.ZeroCoef>
-5.4800

> <Gold.Chemscore.Hbond>
2.0223

> <Gold.Chemscore.Metal>
0.0000

> <Gold.Chemscore.Lipo>
93.9046

> <Gold.Chemscore.Internal_Hbond>
0.0000

> <Gold.Chemscore.DEClash>
0.0701

> <Gold.Chemscore.DEInternal>
2.3434

> <Gold.Chemscore.Rot>
1.5162

> <Gold.Chemscore.Internal.Correction>
   9.000000E+99

> <Gold.Chemscore.Hbonds>
donor molecule, donor type, donor heavy atom, donor atom, acceptor molecule, acceptor atom, score
      L1  H     7    31       P1  7948  0.94
      L1  H    10    32       P1  7948  0.80
      P1  H  7989  7998       L1    20  0.09

> <Gold.Chemscore.Hbond.Weighted>
-6.7546

> <Gold.Chemscore.Metal.Weighted>
-0.0000

> <Gold.Chemscore.Lipo.Weighted>
-10.9868

> <Gold.Chemscore.Internal_Hbond.Weighted>
0.0000

> <Gold.Chemscore.DEClash.Weighted>
0.0701

> <Gold.Chemscore.DEInternal.Weighted>
2.3434

> <Gold.Chemscore.Rot.Weighted>
3.8814

> <Gold.Chemscore.Internal.Correction.Weighted>
   9.000000E+99

> <Gold.Protein.RotatedTorsions>
[ 6907 6896 6895 6894 ] final -158.55 input  -60.11 | X-H torsion
[ 7974 7965 7964 7962 ] final  -44.52 input  175.53 | X-H torsion
[ 8008 7997 7996 7995 ] final   77.12 input   59.86 | X-H torsion
[ 10167 10162 10161 10158 ] final -119.88 input  -65.29 | X-H torsion
[ 10718 10713 10712 10709 ] final  -10.73 input   66.30 | X-H torsion
[ 10763 10752 10751 10750 ] final   57.23 input  -60.55 | X-H torsion
[ 11005 11000 10999 10996 ] final   75.01 input  -57.11 | X-H torsion

> <Gold.Protein.ActiveResidues>
 VAL166  LYS551  ARG553  GLY616  TRP617  ASP618  TYR619  PRO620  LYS621  CYS622 
 ASP623  PHE694  ASN695  SER759  ASP760  ASP761  ALA762  ILE779  LEU786  VAL792 
 PHE793  MET794  SER795  GLU796  ALA797  LYS798  CYS799  TRP800  GLU811  SER814 

> <Gold.Protein.RotatedAtoms>
  151.3199  133.4044  159.2653 H   0  0  0  0  0  0  0  0  0  0  0  0  # atno 6907 bound_to 6896
  151.0043  134.9348  159.7982 H   0  0  0  0  0  0  0  0  0  0  0  0  # atno 6908 bound_to 6896
  152.5284  134.3163  159.9184 H   0  0  0  0  0  0  0  0  0  0  0  0  # atno 6909 bound_to 6896
  145.9912  140.7178  142.9316 H   0  0  0  0  0  0  0  0  0  0  0  0  # atno 7974 bound_to 7965
  155.8371  140.3464  155.5608 H   0  0  0  0  0  0  0  0  0  0  0  0  # atno 8008 bound_to 7997
  155.8180  140.0908  157.1885 H   0  0  0  0  0  0  0  0  0  0  0  0  # atno 8009 bound_to 7997
  154.4004  140.1435  156.3453 H   0  0  0  0  0  0  0  0  0  0  0  0  # atno 8010 bound_to 7997
  140.0419  143.5145  152.2126 H   0  0  0  0  0  0  0  0  0  0  0  0  # atno 10167 bound_to 10162
  156.6692  130.5004  149.6005 H   0  0  0  0  0  0  0  0  0  0  0  0  # atno 10718 bound_to 10713
  152.9846  135.5649  154.5357 H   0  0  0  0  0  0  0  0  0  0  0  0  # atno 10763 bound_to 10752
  154.4821  135.2789  155.1565 H   0  0  0  0  0  0  0  0  0  0  0  0  # atno 10764 bound_to 10752
  154.3069  135.6296  153.5502 H   0  0  0  0  0  0  0  0  0  0  0  0  # atno 10765 bound_to 10752
  139.9364  134.7481  156.1218 H   0  0  0  0  0  0  0  0  0  0  0  0  # atno 11005 bound_to 11000
  144.6889  140.3074  143.7253 LP  0  0  0  0  0  0  0  0  0  0  0  0  # atno 17320 bound_to 7965
  145.7627  139.1830  143.2258 LP  0  0  0  0  0  0  0  0  0  0  0  0  # atno 17321 bound_to 7965
  139.6008  144.7582  151.3176 LP  0  0  0  0  0  0  0  0  0  0  0  0  # atno 17342 bound_to 10162
  140.7256  143.7012  150.7843 LP  0  0  0  0  0  0  0  0  0  0  0  0  # atno 17343 bound_to 10162
  156.1951  130.6584  151.1105 LP  0  0  0  0  0  0  0  0  0  0  0  0  # atno 17370 bound_to 10713
  157.7083  131.0746  150.6591 LP  0  0  0  0  0  0  0  0  0  0  0  0  # atno 17371 bound_to 10713
  141.0979  133.6688  156.2687 LP  0  0  0  0  0  0  0  0  0  0  0  0  # atno 17394 bound_to 11000
  140.6065  134.5502  157.5526 LP  0  0  0  0  0  0  0  0  0  0  0  0  # atno 17395 bound_to 11000

$$$$
