AV-unprocessed.smi:2017|AV-procd|sdf|8167|dock4
  -GOLD-   2272010413D 1   1.00000     0.00000
 Structure written by MMmdl.
 45 46  0  0  0  0  0  0  0  0  1 V2000
  148.0145  136.7849  156.0766 O   0  0  0  0  0  0  0  0  0  0  0  0
  149.2133  136.9117  155.8223 C   0  0  0  0  0  0  0  0  0  0  0  0
  150.2113  135.7830  156.1206 C   0  0  0  0  0  0  0  0  0  0  0  0
  149.7999  134.4803  155.5761 N   0  0  0  0  0  0  0  0  0  0  0  0
  149.4260  134.3670  154.2445 C   0  0  0  0  0  0  0  0  0  0  0  0
  149.0480  133.1993  153.6725 C   0  0  0  0  0  0  0  0  0  0  0  0
  149.0172  131.9692  154.4563 C   0  0  0  0  0  0  0  0  0  0  0  0
  148.6890  130.8644  154.0295 O   0  0  0  0  0  0  0  0  0  0  0  0
  149.4024  132.1235  155.7906 N   0  0  0  0  0  0  0  0  0  0  0  0
  149.7948  133.3235  156.3858 C   0  0  0  0  0  0  0  0  0  0  0  0
  150.1215  133.3475  157.5718 O   0  0  0  0  0  0  0  0  0  0  0  0
  149.7344  138.0271  155.2888 N   0  0  0  0  0  0  0  0  0  0  0  0
  148.9764  139.2214  154.9352 C   0  0  0  0  0  0  0  0  0  0  0  0
  149.8407  140.4914  155.0220 C   0  0  0  0  0  0  0  0  0  0  0  0
  149.8982  141.0693  156.4408 C   0  0  0  0  0  0  0  0  0  0  0  0
  150.9843  141.9804  156.5279 O   0  0  0  0  0  0  0  0  0  0  0  0
  151.2673  142.4323  157.8452 C   0  0  0  0  0  0  0  0  0  0  0  0
  152.0007  143.7894  157.8060 C   0  0  0  0  0  0  0  0  0  0  0  0
  152.4348  144.2319  159.2129 C   0  0  0  0  0  0  0  0  0  0  0  0
  153.2984  143.1589  159.8951 C   0  0  0  0  0  0  0  0  0  0  0  0
  152.5741  141.8039  159.9327 C   0  0  0  0  0  0  0  0  0  0  0  0
  152.1439  141.3648  158.5237 C   0  0  0  0  0  0  0  0  0  0  0  0
  149.3996  131.2978  156.3716 H   0  0  0  0  0  0  0  0  0  0  0  0
  151.1948  136.0623  155.7373 H   0  0  0  0  0  0  0  0  0  0  0  0
  150.3350  135.7125  157.2024 H   0  0  0  0  0  0  0  0  0  0  0  0
  149.4383  135.2523  153.6247 H   0  0  0  0  0  0  0  0  0  0  0  0
  148.7681  133.1749  152.6291 H   0  0  0  0  0  0  0  0  0  0  0  0
  150.7285  138.0495  155.1131 H   0  0  0  0  0  0  0  0  0  0  0  0
  148.6042  139.0926  153.9186 H   0  0  0  0  0  0  0  0  0  0  0  0
  148.0985  139.3106  155.5771 H   0  0  0  0  0  0  0  0  0  0  0  0
  150.8562  140.2627  154.6968 H   0  0  0  0  0  0  0  0  0  0  0  0
  149.4620  141.2492  154.3350 H   0  0  0  0  0  0  0  0  0  0  0  0
  148.9520  141.5540  156.6817 H   0  0  0  0  0  0  0  0  0  0  0  0
  150.0431  140.2628  157.1608 H   0  0  0  0  0  0  0  0  0  0  0  0
  150.3415  142.5274  158.4159 H   0  0  0  0  0  0  0  0  0  0  0  0
  152.8785  143.7114  157.1631 H   0  0  0  0  0  0  0  0  0  0  0  0
  151.3663  144.5590  157.3673 H   0  0  0  0  0  0  0  0  0  0  0  0
  152.9871  145.1701  159.1530 H   0  0  0  0  0  0  0  0  0  0  0  0
  151.5516  144.4312  159.8209 H   0  0  0  0  0  0  0  0  0  0  0  0
  154.2415  143.0536  159.3575 H   0  0  0  0  0  0  0  0  0  0  0  0
  153.5526  143.4736  160.9075 H   0  0  0  0  0  0  0  0  0  0  0  0
  153.2227  141.0478  160.3760 H   0  0  0  0  0  0  0  0  0  0  0  0
  151.6969  141.8757  160.5770 H   0  0  0  0  0  0  0  0  0  0  0  0
  151.6013  140.4206  158.5808 H   0  0  0  0  0  0  0  0  0  0  0  0
  153.0297  141.1756  157.9159 H   0  0  0  0  0  0  0  0  0  0  0  0
  1  2  2  0  0  0  0
  2  3  1  0  0  0  0
  2 12  1  0  0  0  0
  3  4  1  0  0  0  0
  3 24  1  0  0  0  0
  3 25  1  0  0  0  0
  4 10  1  0  0  0  0
  4  5  1  0  0  0  0
  5  6  2  0  0  0  0
  5 26  1  0  0  0  0
  6  7  1  0  0  0  0
  6 27  1  0  0  0  0
  7  8  2  0  0  0  0
  7  9  1  0  0  0  0
  9 23  1  0  0  0  0
  9 10  1  0  0  0  0
 10 11  2  0  0  0  0
 12 13  1  0  0  0  0
 12 28  1  0  0  0  0
 13 14  1  0  0  0  0
 13 29  1  0  0  0  0
 13 30  1  0  0  0  0
 14 15  1  0  0  0  0
 14 31  1  0  0  0  0
 14 32  1  0  0  0  0
 15 16  1  0  0  0  0
 15 33  1  0  0  0  0
 15 34  1  0  0  0  0
 16 17  1  0  0  0  0
 17 22  1  0  0  0  0
 17 18  1  0  0  0  0
 17 35  1  0  0  0  0
 18 19  1  0  0  0  0
 18 36  1  0  0  0  0
 18 37  1  0  0  0  0
 19 20  1  0  0  0  0
 19 38  1  0  0  0  0
 19 39  1  0  0  0  0
 20 21  1  0  0  0  0
 20 40  1  0  0  0  0
 20 41  1  0  0  0  0
 21 22  1  0  0  0  0
 21 42  1  0  0  0  0
 21 43  1  0  0  0  0
 22 44  1  0  0  0  0
 22 45  1  0  0  0  0
M  END
> <s_m_source_file>
AV-unprocessed.smi

> <i_m_source_file_index>
2017

> <i_lp_mmshare_version>
43012

> <i_f3d_flags>
0

> <s_epik_input>
Tz1jMVtuSF1jKD1PKVtjSF1bY0hdbjFbQ0gyXUMoPU8pW05IXVtDSDJdW0NIMl1bQ0gyXU9bQ0hdMltDSDJdW0NIMl1bQ0gyXVtDSDJdW0NIMl0y

> <s_epik_cmdline>
J2VwaWtfcHl0aG9uJywgJy1waCcsICc3LjAnLCAnLXRuJywgJzgnLCAnLW1hJywgJzIwMCcsICctbWV0YWxfYmluZGluZycsICctaW1hZScsICc8aW5maWxlLm1hZT4nLCAnLW9tYWUnLCAnPG91dGZpbGUubWFlPic=

> <r_lp_tautomer_probability>
0.999537

> <r_epik_Ionization_Penalty>
0.003299

> <r_epik_Ionization_Penalty_Charging>
0.00329898

> <r_epik_Ionization_Penalty_Neutral>
1.92812e-08

> <r_epik_State_Penalty>
0.00233129

> <r_epik_Charging_Adjusted_Penalty>
0.00563027

> <i_epik_Tot_Q>
0

> <i_epik_Tot_abs_Q>
0

> <r_epik_Metal_State_Penalty>
0.365405

> <b_epik_Metal_Only>
0

> <s_lp_Force_Field>
OPLS_2005

> <r_lp_Energy>
10.1374

> <b_lp_Chiralities_Consistent>
1

> <s_lp_Variant>
AV-unprocessed.smi:2017-1

> <Gold.Version>
5.8.1

> <Gold.Id.Protein>
6NUR|6NUR_protein|mol2

> <Gold.PLP.Fitness>
42.8852

> <Gold.PLP.PLP>
-39.6134

> <Gold.PLP.part.hbond>
-1.0000

> <Gold.PLP.part.metal>
0.0000

> <Gold.PLP.part.buried>
-4.7788

> <Gold.PLP.part.nonpolar>
-34.9785

> <Gold.PLP.part.repulsive>
0.2012

> <Gold.PLP.ligand.clash>
0.0000

> <Gold.PLP.ligand.torsion>
0.8235

> <Gold.PLP.Chemscore.Hbond>
0.9120

> <Gold.PLP.Chemscore.CHOScore>
0.6827

> <Gold.PLP.Chemscore.Metal>
0.0000

> <Gold.Chemscore.Hbonds>
donor molecule, donor type, donor heavy atom, donor atom, acceptor molecule, acceptor atom, score
      P1  H  6896  6907       L1    11  1.00
      L1  C     5    26       P1  7948  0.84

> <Gold.PLP.Chemscore.Internal.Correction>
0.1349

> <Gold.Rescore>
     Score         DG    S(hbond)    S(metal)    S(lipo)     H(rot)  DE(clash)    DE(int)     intcor
     12.50     -13.19       0.90        0.00     100.26       2.74       0.01       0.68       ----

> <Gold.Chemscore.Fitness>
12.5020

> <Gold.Chemscore.DG>
-13.1910

> <Gold.Chemscore.ZeroCoef>
-5.4800

> <Gold.Chemscore.Hbond>
0.8955

> <Gold.Chemscore.Metal>
0.0000

> <Gold.Chemscore.Lipo>
100.2555

> <Gold.Chemscore.Internal_Hbond>
0.0000

> <Gold.Chemscore.DEClash>
0.0103

> <Gold.Chemscore.DEInternal>
0.6787

> <Gold.Chemscore.Rot>
2.7382

> <Gold.Chemscore.Internal.Correction>
   9.000000E+99

> <Gold.Chemscore.Hbonds>
donor molecule, donor type, donor heavy atom, donor atom, acceptor molecule, acceptor atom, score
      P1  H  6896  6907       L1    11  0.95

> <Gold.Chemscore.Hbond.Weighted>
-2.9909

> <Gold.Chemscore.Metal.Weighted>
-0.0000

> <Gold.Chemscore.Lipo.Weighted>
-11.7299

> <Gold.Chemscore.Internal_Hbond.Weighted>
0.0000

> <Gold.Chemscore.DEClash.Weighted>
0.0103

> <Gold.Chemscore.DEInternal.Weighted>
0.6787

> <Gold.Chemscore.Rot.Weighted>
7.0098

> <Gold.Chemscore.Internal.Correction.Weighted>
   9.000000E+99

> <Gold.Protein.RotatedTorsions>
[ 6907 6896 6895 6894 ] final -143.56 input  -60.11 | X-H torsion
[ 7974 7965 7964 7962 ] final   11.40 input  175.53 | X-H torsion
[ 8008 7997 7996 7995 ] final -115.35 input   59.86 | X-H torsion
[ 10167 10162 10161 10158 ] final   34.30 input  -65.29 | X-H torsion
[ 10718 10713 10712 10709 ] final   18.96 input   66.30 | X-H torsion
[ 10763 10752 10751 10750 ] final   96.98 input  -60.55 | X-H torsion
[ 11005 11000 10999 10996 ] final   12.49 input  -57.11 | X-H torsion

> <Gold.Protein.ActiveResidues>
 VAL166  LYS551  ARG553  GLY616  TRP617  ASP618  TYR619  PRO620  LYS621  CYS622 
 ASP623  PHE694  ASN695  SER759  ASP760  ASP761  ALA762  ILE779  LEU786  VAL792 
 PHE793  MET794  SER795  GLU796  ALA797  LYS798  CYS799  TRP800  GLU811  SER814 

> <Gold.Protein.RotatedAtoms>
  151.1021  133.5235  159.2609 H   0  0  0  0  0  0  0  0  0  0  0  0  # atno 6907 bound_to 6896
  151.2062  135.0462  159.8902 H   0  0  0  0  0  0  0  0  0  0  0  0  # atno 6908 bound_to 6896
  152.5444  134.0843  159.8302 H   0  0  0  0  0  0  0  0  0  0  0  0  # atno 6909 bound_to 6896
  146.2371  139.9491  142.8473 H   0  0  0  0  0  0  0  0  0  0  0  0  # atno 7974 bound_to 7965
  155.0507  140.0393  157.2542 H   0  0  0  0  0  0  0  0  0  0  0  0  # atno 8008 bound_to 7997
  154.7140  140.2698  155.6578 H   0  0  0  0  0  0  0  0  0  0  0  0  # atno 8009 bound_to 7997
  156.2798  140.2716  156.1791 H   0  0  0  0  0  0  0  0  0  0  0  0  # atno 8010 bound_to 7997
  140.4328  144.1301  150.6162 H   0  0  0  0  0  0  0  0  0  0  0  0  # atno 10167 bound_to 10162
  157.1037  130.6479  149.5879 H   0  0  0  0  0  0  0  0  0  0  0  0  # atno 10718 bound_to 10713
  153.2714  135.4199  155.0991 H   0  0  0  0  0  0  0  0  0  0  0  0  # atno 10763 bound_to 10752
  154.8457  135.3473  154.6239 H   0  0  0  0  0  0  0  0  0  0  0  0  # atno 10764 bound_to 10752
  153.6659  135.7046  153.5220 H   0  0  0  0  0  0  0  0  0  0  0  0  # atno 10765 bound_to 10752
  140.4914  134.0836  155.7772 H   0  0  0  0  0  0  0  0  0  0  0  0  # atno 11005 bound_to 11000
  145.1879  140.9798  143.4228 LP  0  0  0  0  0  0  0  0  0  0  0  0  # atno 17320 bound_to 7965
  144.9883  139.3714  143.6227 LP  0  0  0  0  0  0  0  0  0  0  0  0  # atno 17321 bound_to 7965
  140.4408  143.2527  151.9475 LP  0  0  0  0  0  0  0  0  0  0  0  0  # atno 17342 bound_to 10162
  139.4785  144.5656  151.8170 LP  0  0  0  0  0  0  0  0  0  0  0  0  # atno 17343 bound_to 10162
  155.9867  130.4903  150.7092 LP  0  0  0  0  0  0  0  0  0  0  0  0  # atno 17370 bound_to 10713
  157.4619  131.0884  151.0737 LP  0  0  0  0  0  0  0  0  0  0  0  0  # atno 17371 bound_to 10713
  141.1482  133.9017  157.2164 LP  0  0  0  0  0  0  0  0  0  0  0  0  # atno 17394 bound_to 11000
  139.9767  135.0111  156.9648 LP  0  0  0  0  0  0  0  0  0  0  0  0  # atno 17395 bound_to 11000

$$$$
