AV-unprocessed.smi:1750|AV-procd|sdf|7055|dock5
  -GOLD-   22720 8273D 1   1.00000     0.00000
 Structure written by MMmdl.
 35 36  0  0  0  0  0  0  0  0  2 V2000
  150.8666  142.6779  158.3124 C   0  0  0  0  0  0  0  0  0  0  0  0
  151.1918  141.2921  157.7447 C   0  0  0  0  0  0  0  0  0  0  0  0
  151.0316  141.2275  156.2193 C   0  0  0  0  0  0  0  0  0  0  0  0
  151.3296  139.8727  155.6694 C   0  0  0  0  0  0  0  0  0  0  0  0
  152.3167  139.6435  154.7995 N   0  0  0  0  0  0  0  0  0  0  0  0
  152.3753  138.3119  154.4145 N   0  0  0  0  0  0  0  0  0  0  0  0
  151.4187  137.5595  154.9768 C   0  0  0  0  0  0  0  0  0  0  0  0
  151.3007  136.2433  154.7355 N   0  5  0  0  0  0  0  0  0  0  0  0
  150.2871  135.5422  155.2924 C   0  0  0  0  0  0  0  0  0  0  0  0
  150.2253  135.1493  156.4598 O   0  0  0  0  0  0  0  0  0  0  0  0
  149.2842  135.2760  154.4454 N   0  0  0  0  0  0  0  0  0  0  0  0
  148.0760  134.5330  154.7788 C   0  0  0  0  0  0  0  0  0  0  0  0
  148.3844  133.0362  154.9196 C   0  0  1  0  0  0  0  0  0  0  0  0
  148.8778  132.3820  153.6296 C   0  0  0  0  0  0  0  0  0  0  0  0
  149.7297  131.2181  154.1151 C   0  0  0  0  0  0  0  0  0  0  0  0
  149.9039  131.4794  155.6135 C   0  0  0  0  0  0  0  0  0  0  0  0
  149.4731  132.8189  155.8033 O   0  0  0  0  0  0  0  0  0  0  0  0
  150.3644  138.4609  156.0652 S   0  0  0  0  0  0  0  0  0  0  0  0
  150.9802  142.6897  159.3965 H   0  0  0  0  0  0  0  0  0  0  0  0
  149.8409  142.9672  158.0818 H   0  0  0  0  0  0  0  0  0  0  0  0
  151.5310  143.4375  157.8997 H   0  0  0  0  0  0  0  0  0  0  0  0
  152.2138  141.0246  158.0164 H   0  0  0  0  0  0  0  0  0  0  0  0
  150.5434  140.5498  158.2118 H   0  0  0  0  0  0  0  0  0  0  0  0
  150.0154  141.5054  155.9363 H   0  0  0  0  0  0  0  0  0  0  0  0
  151.6963  141.9480  155.7417 H   0  0  0  0  0  0  0  0  0  0  0  0
  149.3657  135.6183  153.4992 H   0  0  0  0  0  0  0  0  0  0  0  0
  147.6671  134.9085  155.7181 H   0  0  0  0  0  0  0  0  0  0  0  0
  147.3222  134.6994  154.0079 H   0  0  0  0  0  0  0  0  0  0  0  0
  147.5092  132.4999  155.2925 H   0  0  0  0  0  0  0  0  0  0  0  0
  148.0589  132.0679  152.9818 H   0  0  0  0  0  0  0  0  0  0  0  0
  149.5013  133.0785  153.0674 H   0  0  0  0  0  0  0  0  0  0  0  0
  149.2422  130.2582  153.9424 H   0  0  0  0  0  0  0  0  0  0  0  0
  150.6900  131.2048  153.5986 H   0  0  0  0  0  0  0  0  0  0  0  0
  149.2659  130.8129  156.1956 H   0  0  0  0  0  0  0  0  0  0  0  0
  150.9328  131.3431  155.9470 H   0  0  0  0  0  0  0  0  0  0  0  0
  1  2  1  0  0  0  0
  1 19  1  0  0  0  0
  1 20  1  0  0  0  0
  1 21  1  0  0  0  0
  2  3  1  0  0  0  0
  2 22  1  0  0  0  0
  2 23  1  0  0  0  0
  3  4  1  0  0  0  0
  3 24  1  0  0  0  0
  3 25  1  0  0  0  0
  4 18  1  0  0  0  0
  4  5  2  0  0  0  0
  5  6  1  0  0  0  0
  6  7  2  0  0  0  0
  7  8  1  0  0  0  0
  7 18  1  0  0  0  0
  8  9  1  0  0  0  0
  9 10  2  0  0  0  0
  9 11  1  0  0  0  0
 11 12  1  0  0  0  0
 11 26  1  0  0  0  0
 12 13  1  0  0  0  0
 12 27  1  0  0  0  0
 12 28  1  0  0  0  0
 13 17  1  0  0  0  0
 13 14  1  0  0  0  0
 13 29  1  0  0  0  0
 14 15  1  0  0  0  0
 14 30  1  0  0  0  0
 14 31  1  0  0  0  0
 15 16  1  0  0  0  0
 15 32  1  0  0  0  0
 15 33  1  0  0  0  0
 16 17  1  0  0  0  0
 16 34  1  0  0  0  0
 16 35  1  0  0  0  0
M  CHG  1   8  -1
M  END
> <s_m_source_file>
AV-unprocessed.smi

> <i_m_source_file_index>
1750

> <i_lp_mmshare_version>
43012

> <i_f3d_flags>
0

> <s_epik_input>
W0NIM11bQ0gyXVtDSDJdYzFubmMoczEpW05IXUMoPU8pW05IXVtDSDJdW0NAQEhdMltDSDJdW0NIMl1bQ0gyXU8y

> <s_epik_cmdline>
J2VwaWtfcHl0aG9uJywgJy1waCcsICc3LjAnLCAnLXRuJywgJzgnLCAnLW1hJywgJzIwMCcsICctbWV0YWxfYmluZGluZycsICctaW1hZScsICc8aW5maWxlLm1hZT4nLCAnLW9tYWUnLCAnPG91dGZpbGUubWFlPic=

> <r_lp_tautomer_probability>
1

> <r_epik_Ionization_Penalty>
4.22484

> <r_epik_Ionization_Penalty_Charging>
4.21437

> <r_epik_Ionization_Penalty_Neutral>
0.0104685

> <r_epik_State_Penalty>
4.21389

> <r_epik_Charging_Adjusted_Penalty>
8.42826

> <i_epik_Tot_Q>
-1

> <i_epik_Tot_abs_Q>
1

> <r_epik_Metal_State_Penalty>
0.69377

> <b_epik_Metal_Only>
1

> <s_lp_Force_Field>
OPLS_2005

> <r_lp_Energy>
10.9062

> <b_lp_Chiralities_Consistent>
1

> <s_lp_Variant>
AV-unprocessed.smi:1750-4

> <Gold.Version>
5.8.1

> <Gold.Id.Protein>
6NUR|6NUR_protein|mol2

> <Gold.PLP.Fitness>
37.2310

> <Gold.PLP.PLP>
-27.8904

> <Gold.PLP.part.hbond>
-3.0000

> <Gold.PLP.part.metal>
0.0000

> <Gold.PLP.part.buried>
-4.7606

> <Gold.PLP.part.nonpolar>
-19.5874

> <Gold.PLP.part.repulsive>
0.3370

> <Gold.PLP.ligand.clash>
0.0000

> <Gold.PLP.ligand.torsion>
0.8273

> <Gold.PLP.Chemscore.Hbond>
3.6392

> <Gold.PLP.Chemscore.CHOScore>
0.0000

> <Gold.PLP.Chemscore.Metal>
0.0000

> <Gold.Chemscore.Hbonds>
donor molecule, donor type, donor heavy atom, donor atom, acceptor molecule, acceptor atom, score
      L1  H    11    26       P1  7948  1.00
      P1  H  7989  7998       L1     5  0.54
      P1  H 10752 10764       L1     8  2.00

> <Gold.PLP.Chemscore.Internal.Correction>
0.0776

> <Gold.Rescore>
     Score         DG    S(hbond)    S(metal)    S(lipo)     H(rot)  DE(clash)    DE(int)     intcor
     12.17     -15.65       2.23        0.00      58.05       1.59       0.15       3.34       ----

> <Gold.Chemscore.Fitness>
12.1718

> <Gold.Chemscore.DG>
-15.6533

> <Gold.Chemscore.ZeroCoef>
-5.4800

> <Gold.Chemscore.Hbond>
2.2326

> <Gold.Chemscore.Metal>
0.0000

> <Gold.Chemscore.Lipo>
58.0541

> <Gold.Chemscore.Internal_Hbond>
0.0000

> <Gold.Chemscore.DEClash>
0.1461

> <Gold.Chemscore.DEInternal>
3.3354

> <Gold.Chemscore.Rot>
1.5922

> <Gold.Chemscore.Internal.Correction>
   9.000000E+99

> <Gold.Chemscore.Hbonds>
donor molecule, donor type, donor heavy atom, donor atom, acceptor molecule, acceptor atom, score
      L1  H    11    26       P1  7948  0.35
      P1  H  7989  7998       L1     5  0.06
      P1  H 10752 10764       L1     8  0.59

> <Gold.Chemscore.Hbond.Weighted>
-7.4570

> <Gold.Chemscore.Metal.Weighted>
-0.0000

> <Gold.Chemscore.Lipo.Weighted>
-6.7923

> <Gold.Chemscore.Internal_Hbond.Weighted>
0.0000

> <Gold.Chemscore.DEClash.Weighted>
0.1461

> <Gold.Chemscore.DEInternal.Weighted>
3.3354

> <Gold.Chemscore.Rot.Weighted>
4.0761

> <Gold.Chemscore.Internal.Correction.Weighted>
   9.000000E+99

> <Gold.Protein.RotatedTorsions>
[ 6907 6896 6895 6894 ] final -132.87 input  -60.11 | X-H torsion
[ 7974 7965 7964 7962 ] final   -7.81 input  175.53 | X-H torsion
[ 8008 7997 7996 7995 ] final -110.30 input   59.86 | X-H torsion
[ 10167 10162 10161 10158 ] final  152.83 input  -65.29 | X-H torsion
[ 10718 10713 10712 10709 ] final  117.00 input   66.30 | X-H torsion
[ 10763 10752 10751 10750 ] final  -55.67 input  -60.55 | X-H torsion
[ 11005 11000 10999 10996 ] final   17.85 input  -57.11 | X-H torsion

> <Gold.Protein.ActiveResidues>
 VAL166  LYS551  ARG553  GLY616  TRP617  ASP618  TYR619  PRO620  LYS621  CYS622 
 ASP623  PHE694  ASN695  SER759  ASP760  ASP761  ALA762  ILE779  LEU786  VAL792 
 PHE793  MET794  SER795  GLU796  ALA797  LYS798  CYS799  TRP800  GLU811  SER814 

> <Gold.Protein.RotatedAtoms>
  150.9674  133.6380  159.2743 H   0  0  0  0  0  0  0  0  0  0  0  0  # atno 6907 bound_to 6896
  151.3681  135.0916  159.9466 H   0  0  0  0  0  0  0  0  0  0  0  0  # atno 6908 bound_to 6896
  152.5170  133.9234  159.7600 H   0  0  0  0  0  0  0  0  0  0  0  0  # atno 6909 bound_to 6896
  146.2297  140.2375  142.8342 H   0  0  0  0  0  0  0  0  0  0  0  0  # atno 7974 bound_to 7965
  154.9724  140.0397  157.2240 H   0  0  0  0  0  0  0  0  0  0  0  0  # atno 8008 bound_to 7997
  154.7789  140.2815  155.6057 H   0  0  0  0  0  0  0  0  0  0  0  0  # atno 8009 bound_to 7997
  156.2933  140.2595  156.2609 H   0  0  0  0  0  0  0  0  0  0  0  0  # atno 8010 bound_to 7997
  139.4830  144.5325  151.7699 H   0  0  0  0  0  0  0  0  0  0  0  0  # atno 10167 bound_to 10162
  157.6124  131.1032  150.7553 H   0  0  0  0  0  0  0  0  0  0  0  0  # atno 10718 bound_to 10713
  154.1945  135.6421  153.5069 H   0  0  0  0  0  0  0  0  0  0  0  0  # atno 10763 bound_to 10752
  153.0027  135.5436  154.6380 H   0  0  0  0  0  0  0  0  0  0  0  0  # atno 10764 bound_to 10752
  154.5778  135.2922  155.0736 H   0  0  0  0  0  0  0  0  0  0  0  0  # atno 10765 bound_to 10752
  140.4314  134.1416  155.7681 H   0  0  0  0  0  0  0  0  0  0  0  0  # atno 11005 bound_to 11000
  144.9510  140.8178  143.5572 LP  0  0  0  0  0  0  0  0  0  0  0  0  # atno 17320 bound_to 7965
  145.2336  139.2104  143.5030 LP  0  0  0  0  0  0  0  0  0  0  0  0  # atno 17321 bound_to 7965
  140.4853  144.1390  150.5940 LP  0  0  0  0  0  0  0  0  0  0  0  0  # atno 17342 bound_to 10162
  140.4232  143.2602  151.9689 LP  0  0  0  0  0  0  0  0  0  0  0  0  # atno 17343 bound_to 10162
  156.7927  130.4895  149.5382 LP  0  0  0  0  0  0  0  0  0  0  0  0  # atno 17370 bound_to 10713
  156.1233  130.6125  151.0226 LP  0  0  0  0  0  0  0  0  0  0  0  0  # atno 17371 bound_to 10713
  141.1744  133.8544  157.1469 LP  0  0  0  0  0  0  0  0  0  0  0  0  # atno 17394 bound_to 11000
  140.0132  134.9979  157.0438 LP  0  0  0  0  0  0  0  0  0  0  0  0  # atno 17395 bound_to 11000

$$$$
