AV-unprocessed.smi:2831|AV-procd|sdf|10909|dock9
  -GOLD-   2272015353D 1   1.00000     0.00000
 Structure written by MMmdl.
 30 31  0  0  0  0  0  0  0  0  1 V2000
  152.8394  143.2328  162.2459 C   0  0  0  0  0  0  0  0  0  0  0  0
  152.1062  143.4787  160.9716 C   0  0  0  0  0  0  0  0  0  0  0  0
  151.6600  144.6902  160.6186 N   0  0  0  0  0  0  0  0  0  0  0  0
  151.0131  144.6755  159.3907 N   0  0  0  0  0  0  0  0  0  0  0  0
  150.9918  143.4488  158.8515 C   0  0  0  0  0  0  0  0  0  0  0  0
  150.3956  143.1477  157.5983 N   0  0  0  0  0  0  0  0  0  0  0  0
  150.1004  141.9406  157.0848 C   0  0  0  0  0  0  0  0  0  0  0  0
  150.3181  140.8619  157.6366 O   0  0  0  0  0  0  0  0  0  0  0  0
  149.5282  142.0575  155.8751 N   0  0  0  0  0  0  0  0  0  0  0  0
  149.0387  140.9751  155.0137 C   0  0  2  0  0  0  0  0  0  0  0  0
  150.1679  139.9652  154.7133 C   0  0  0  0  0  0  0  0  0  0  0  0
  148.3790  141.4968  153.7240 C   0  0  0  0  0  0  0  0  0  0  0  0
  146.9288  141.0226  153.8025 C   0  0  0  0  0  0  0  0  0  0  0  0
  146.9863  139.9072  154.6723 O   0  0  0  0  0  0  0  0  0  0  0  0
  147.8694  140.2675  155.7200 C   0  0  0  0  0  0  0  0  0  0  0  0
  151.7656  142.1997  159.8117 S   0  0  0  0  0  0  0  0  0  0  0  0
  152.3772  143.7900  163.0612 H   0  0  0  0  0  0  0  0  0  0  0  0
  153.8770  143.5516  162.1462 H   0  0  0  0  0  0  0  0  0  0  0  0
  152.8213  142.1717  162.4952 H   0  0  0  0  0  0  0  0  0  0  0  0
  150.1553  143.9471  157.0308 H   0  0  0  0  0  0  0  0  0  0  0  0
  149.4034  142.9923  155.5150 H   0  0  0  0  0  0  0  0  0  0  0  0
  149.7896  139.1081  154.1550 H   0  0  0  0  0  0  0  0  0  0  0  0
  150.6141  139.5849  155.6329 H   0  0  0  0  0  0  0  0  0  0  0  0
  150.9659  140.4105  154.1192 H   0  0  0  0  0  0  0  0  0  0  0  0
  148.4211  142.5806  153.6116 H   0  0  0  0  0  0  0  0  0  0  0  0
  148.8611  141.0672  152.8448 H   0  0  0  0  0  0  0  0  0  0  0  0
  146.2922  141.7926  154.2417 H   0  0  0  0  0  0  0  0  0  0  0  0
  146.5195  140.7537  152.8284 H   0  0  0  0  0  0  0  0  0  0  0  0
  148.1785  139.3951  156.2968 H   0  0  0  0  0  0  0  0  0  0  0  0
  147.3418  140.9417  156.3981 H   0  0  0  0  0  0  0  0  0  0  0  0
  1  2  1  0  0  0  0
  1 17  1  0  0  0  0
  1 18  1  0  0  0  0
  1 19  1  0  0  0  0
  2 16  1  0  0  0  0
  2  3  2  0  0  0  0
  3  4  1  0  0  0  0
  4  5  2  0  0  0  0
  5  6  1  0  0  0  0
  5 16  1  0  0  0  0
  6  7  1  0  0  0  0
  6 20  1  0  0  0  0
  7  8  2  0  0  0  0
  7  9  1  0  0  0  0
  9 10  1  0  0  0  0
  9 21  1  0  0  0  0
 10 15  1  0  0  0  0
 10 11  1  0  0  0  0
 10 12  1  0  0  0  0
 11 22  1  0  0  0  0
 11 23  1  0  0  0  0
 11 24  1  0  0  0  0
 12 13  1  0  0  0  0
 12 25  1  0  0  0  0
 12 26  1  0  0  0  0
 13 14  1  0  0  0  0
 13 27  1  0  0  0  0
 13 28  1  0  0  0  0
 14 15  1  0  0  0  0
 15 29  1  0  0  0  0
 15 30  1  0  0  0  0
M  END
> <s_m_source_file>
AV-unprocessed.smi

> <i_m_source_file_index>
2831

> <i_lp_mmshare_version>
43012

> <i_f3d_flags>
0

> <s_epik_input>
W0NIM11jMW5uYyhzMSlbTkhdQyg9TylbTkhdW0NAQF0yKFtDSDNdKVtDSDJdW0NIMl1PW0NIMl0y

> <s_epik_cmdline>
J2VwaWtfcHl0aG9uJywgJy1waCcsICc3LjAnLCAnLXRuJywgJzgnLCAnLW1hJywgJzIwMCcsICctbWV0YWxfYmluZGluZycsICctaW1hZScsICc8aW5maWxlLm1hZT4nLCAnLW9tYWUnLCAnPG91dGZpbGUubWFlPic=

> <r_lp_tautomer_probability>
1

> <r_epik_Ionization_Penalty>
0.00277018

> <r_epik_Ionization_Penalty_Charging>
0

> <r_epik_Ionization_Penalty_Neutral>
0.00277018

> <r_epik_State_Penalty>
-0

> <r_epik_Charging_Adjusted_Penalty>
0

> <i_epik_Tot_Q>
0

> <i_epik_Tot_abs_Q>
0

> <r_epik_Metal_State_Penalty>
0.356997

> <b_epik_Metal_Only>
0

> <s_lp_Force_Field>
OPLS_2005

> <r_lp_Energy>
14.9894

> <b_lp_Chiralities_Consistent>
1

> <s_lp_Variant>
AV-unprocessed.smi:2831-2

> <Gold.Version>
5.8.1

> <Gold.Id.Protein>
6NUR|6NUR_protein|mol2

> <Gold.PLP.Fitness>
32.8259

> <Gold.PLP.PLP>
-26.9868

> <Gold.PLP.part.hbond>
-2.0000

> <Gold.PLP.part.metal>
0.0000

> <Gold.PLP.part.buried>
-3.8374

> <Gold.PLP.part.nonpolar>
-20.7601

> <Gold.PLP.part.repulsive>
0.4796

> <Gold.PLP.ligand.clash>
0.0000

> <Gold.PLP.ligand.torsion>
0.0594

> <Gold.PLP.Chemscore.Hbond>
1.9760

> <Gold.PLP.Chemscore.CHOScore>
0.0000

> <Gold.PLP.Chemscore.Metal>
0.0000

> <Gold.Chemscore.Hbonds>
donor molecule, donor type, donor heavy atom, donor atom, acceptor molecule, acceptor atom, score
      L1  H     6    20       P1  8028  0.96
      L1  H     9    21       P1  8028  1.00

> <Gold.PLP.Chemscore.Internal.Correction>
0.0300

> <Gold.Rescore>
     Score         DG    S(hbond)    S(metal)    S(lipo)     H(rot)  DE(clash)    DE(int)     intcor
     13.77     -16.61       1.91        0.00      62.43       1.00       0.58       2.26       ----

> <Gold.Chemscore.Fitness>
13.7732

> <Gold.Chemscore.DG>
-16.6116

> <Gold.Chemscore.ZeroCoef>
-5.4800

> <Gold.Chemscore.Hbond>
1.9123

> <Gold.Chemscore.Metal>
0.0000

> <Gold.Chemscore.Lipo>
62.4307

> <Gold.Chemscore.Internal_Hbond>
0.0000

> <Gold.Chemscore.DEClash>
0.5770

> <Gold.Chemscore.DEInternal>
2.2614

> <Gold.Chemscore.Rot>
1.0000

> <Gold.Chemscore.Internal.Correction>
   9.000000E+99

> <Gold.Chemscore.Hbonds>
donor molecule, donor type, donor heavy atom, donor atom, acceptor molecule, acceptor atom, score
      L1  H     6    20       P1  8028  0.85
      L1  H     9    21       P1  8028  0.98

> <Gold.Chemscore.Hbond.Weighted>
-6.3872

> <Gold.Chemscore.Metal.Weighted>
-0.0000

> <Gold.Chemscore.Lipo.Weighted>
-7.3044

> <Gold.Chemscore.Internal_Hbond.Weighted>
0.0000

> <Gold.Chemscore.DEClash.Weighted>
0.5770

> <Gold.Chemscore.DEInternal.Weighted>
2.2614

> <Gold.Chemscore.Rot.Weighted>
2.5600

> <Gold.Chemscore.Internal.Correction.Weighted>
   9.000000E+99

> <Gold.Protein.RotatedTorsions>
[ 6907 6896 6895 6894 ] final  -14.98 input  -60.11 | X-H torsion
[ 7974 7965 7964 7962 ] final -146.83 input  175.53 | X-H torsion
[ 8008 7997 7996 7995 ] final  -33.09 input   59.86 | X-H torsion
[ 10167 10162 10161 10158 ] final   60.29 input  -65.29 | X-H torsion
[ 10718 10713 10712 10709 ] final   43.23 input   66.30 | X-H torsion
[ 10763 10752 10751 10750 ] final  117.72 input  -60.55 | X-H torsion
[ 11005 11000 10999 10996 ] final  121.45 input  -57.11 | X-H torsion

> <Gold.Protein.ActiveResidues>
 VAL166  LYS551  ARG553  GLY616  TRP617  ASP618  TYR619  PRO620  LYS621  CYS622 
 ASP623  PHE694  ASN695  SER759  ASP760  ASP761  ALA762  ILE779  LEU786  VAL792 
 PHE793  MET794  SER795  GLU796  ALA797  LYS798  CYS799  TRP800  GLU811  SER814 

> <Gold.Protein.RotatedAtoms>
  151.3309  135.0841  159.9338 H   0  0  0  0  0  0  0  0  0  0  0  0  # atno 6907 bound_to 6896
  152.5234  133.9543  159.7697 H   0  0  0  0  0  0  0  0  0  0  0  0  # atno 6908 bound_to 6896
  150.9882  133.6123  159.2742 H   0  0  0  0  0  0  0  0  0  0  0  0  # atno 6909 bound_to 6896
  144.8133  140.5405  143.5627 H   0  0  0  0  0  0  0  0  0  0  0  0  # atno 7974 bound_to 7965
  154.4159  140.1720  156.1833 H   0  0  0  0  0  0  0  0  0  0  0  0  # atno 8008 bound_to 7997
  155.9664  140.3389  155.6512 H   0  0  0  0  0  0  0  0  0  0  0  0  # atno 8009 bound_to 7997
  155.6682  140.0708  157.2520 H   0  0  0  0  0  0  0  0  0  0  0  0  # atno 8010 bound_to 7997
  140.1671  144.4313  150.6679 H   0  0  0  0  0  0  0  0  0  0  0  0  # atno 10167 bound_to 10162
  157.4136  130.7928  149.7452 H   0  0  0  0  0  0  0  0  0  0  0  0  # atno 10718 bound_to 10713
  153.5566  135.3529  155.2782 H   0  0  0  0  0  0  0  0  0  0  0  0  # atno 10763 bound_to 10752
  154.8700  135.4126  154.2877 H   0  0  0  0  0  0  0  0  0  0  0  0  # atno 10764 bound_to 10752
  153.3614  135.7060  153.6778 H   0  0  0  0  0  0  0  0  0  0  0  0  # atno 10765 bound_to 10752
  139.9226  134.9639  156.7959 H   0  0  0  0  0  0  0  0  0  0  0  0  # atno 11005 bound_to 11000
  145.5273  139.1475  143.3519 LP  0  0  0  0  0  0  0  0  0  0  0  0  # atno 17320 bound_to 7965
  146.2434  140.5413  142.8924 LP  0  0  0  0  0  0  0  0  0  0  0  0  # atno 17321 bound_to 7965
  140.6606  143.2251  151.5866 LP  0  0  0  0  0  0  0  0  0  0  0  0  # atno 17342 bound_to 10162
  139.5354  144.2795  152.1240 LP  0  0  0  0  0  0  0  0  0  0  0  0  # atno 17343 bound_to 10162
  155.9858  130.3980  150.3243 LP  0  0  0  0  0  0  0  0  0  0  0  0  # atno 17370 bound_to 10713
  157.1383  131.0290  151.2939 LP  0  0  0  0  0  0  0  0  0  0  0  0  # atno 17371 bound_to 10713
  140.6429  133.9802  155.7716 LP  0  0  0  0  0  0  0  0  0  0  0  0  # atno 17394 bound_to 11000
  141.0759  134.0135  157.3458 LP  0  0  0  0  0  0  0  0  0  0  0  0  # atno 17395 bound_to 11000

$$$$
