AV-unprocessed.smi:276|AV-procd|sdf|2073|dock10
  -GOLD-   2262021333D 1   1.00000     0.00000
 Structure written by MMmdl.
 57 61  0  0  0  0  0  0  0  0  1 V2000
  146.6125  133.2378  162.1474 C   0  0  0  0  0  0  0  0  0  0  0  0
  146.0150  133.8995  161.0465 O   0  0  0  0  0  0  0  0  0  0  0  0
  146.9719  134.4009  160.1267 C   0  0  1  0  0  0  0  0  0  0  0  0
  146.3756  135.1811  158.9487 C   0  0  0  0  0  0  0  0  0  0  0  0
  147.5193  136.2033  159.1007 C   0  0  2  0  0  0  0  0  0  0  0  0
  148.6548  135.8780  158.2249 N   0  0  0  0  0  0  0  0  0  0  0  0
  148.3269  135.5608  156.8387 C   0  0  0  0  0  0  0  0  0  0  0  0
  149.6874  136.7491  158.2579 C   0  0  0  0  0  0  0  0  0  0  0  0
  150.7918  136.3691  158.9468 N   0  0  0  0  0  0  0  0  0  0  0  0
  151.8364  137.1969  159.0437 C   0  0  0  0  0  0  0  0  0  0  0  0
  151.9788  138.4242  158.5388 N   0  0  0  0  0  0  0  0  0  0  0  0
  150.8752  138.8013  157.8311 C   0  0  0  0  0  0  0  0  0  0  0  0
  149.6984  138.0272  157.6293 C   0  0  0  0  0  0  0  0  0  0  0  0
  148.7960  138.7348  156.8440 N   0  0  0  0  0  0  0  0  0  0  0  0
  149.3959  139.8700  156.6124 C   0  0  0  0  0  0  0  0  0  0  0  0
  150.6372  140.0050  157.1916 N   0  0  0  0  0  0  0  0  0  0  0  0
  151.5083  141.1638  157.1148 C   0  0  0  0  0  0  0  0  0  0  0  0
  150.8862  142.4477  157.7119 C   0  0  2  0  0  0  0  0  0  0  0  0
  150.3340  143.1448  156.6135 O   0  0  0  0  0  0  0  0  0  0  0  0
  151.8763  143.4088  158.4125 C   0  0  2  0  0  0  0  0  0  0  0  0
  152.5692  142.8727  159.6715 C   0  0  0  0  0  0  0  0  0  0  0  0
  152.8338  144.1078  160.5188 C   0  0  0  0  0  0  0  0  0  0  0  0
  152.0407  145.2097  159.8196 C   0  0  0  0  0  0  0  0  0  0  0  0
  151.1604  144.5102  158.9543 O   0  0  0  0  0  0  0  0  0  0  0  0
  147.6360  135.7159  160.5720 C   0  0  0  0  0  0  0  0  0  0  0  0
  146.9993  136.5547  161.6957 C   0  0  0  0  0  0  0  0  0  0  0  0
  148.0412  135.9673  162.6513 C   0  0  0  0  0  0  0  0  0  0  0  0
  148.9196  135.7072  161.4257 C   0  0  0  0  0  0  0  0  0  0  0  0
  145.8367  132.8804  162.8242 H   0  0  0  0  0  0  0  0  0  0  0  0
  147.2620  133.9127  162.7061 H   0  0  0  0  0  0  0  0  0  0  0  0
  147.1983  132.3769  161.8234 H   0  0  0  0  0  0  0  0  0  0  0  0
  147.7104  133.6590  159.8154 H   0  0  0  0  0  0  0  0  0  0  0  0
  146.3392  134.6197  158.0157 H   0  0  0  0  0  0  0  0  0  0  0  0
  145.4010  135.6127  159.1833 H   0  0  0  0  0  0  0  0  0  0  0  0
  147.1649  137.2300  159.0070 H   0  0  0  0  0  0  0  0  0  0  0  0
  149.2171  135.5219  156.2089 H   0  0  0  0  0  0  0  0  0  0  0  0
  147.6506  136.3086  156.4234 H   0  0  0  0  0  0  0  0  0  0  0  0
  147.8428  134.5873  156.7691 H   0  0  0  0  0  0  0  0  0  0  0  0
  152.6749  136.8254  159.6142 H   0  0  0  0  0  0  0  0  0  0  0  0
  148.9389  140.6513  156.0226 H   0  0  0  0  0  0  0  0  0  0  0  0
  152.4536  140.9356  157.6088 H   0  0  0  0  0  0  0  0  0  0  0  0
  151.7410  141.3178  156.0602 H   0  0  0  0  0  0  0  0  0  0  0  0
  150.0745  142.1861  158.3916 H   0  0  0  0  0  0  0  0  0  0  0  0
  150.1490  144.0314  156.8833 H   0  0  0  0  0  0  0  0  0  0  0  0
  152.6266  143.7733  157.7075 H   0  0  0  0  0  0  0  0  0  0  0  0
  151.9051  142.2025  160.2183 H   0  0  0  0  0  0  0  0  0  0  0  0
  153.4861  142.3304  159.4431 H   0  0  0  0  0  0  0  0  0  0  0  0
  152.4806  143.9534  161.5386 H   0  0  0  0  0  0  0  0  0  0  0  0
  153.8950  144.3545  160.5625 H   0  0  0  0  0  0  0  0  0  0  0  0
  151.4935  145.8434  160.5178 H   0  0  0  0  0  0  0  0  0  0  0  0
  152.7014  145.8439  159.2266 H   0  0  0  0  0  0  0  0  0  0  0  0
  147.1310  137.6274  161.5434 H   0  0  0  0  0  0  0  0  0  0  0  0
  145.9646  136.3119  161.9388 H   0  0  0  0  0  0  0  0  0  0  0  0
  148.4537  136.6751  163.3702 H   0  0  0  0  0  0  0  0  0  0  0  0
  147.7041  135.0483  163.1334 H   0  0  0  0  0  0  0  0  0  0  0  0
  149.4570  134.7589  161.4401 H   0  0  0  0  0  0  0  0  0  0  0  0
  149.5878  136.5467  161.2381 H   0  0  0  0  0  0  0  0  0  0  0  0
  1  2  1  0  0  0  0
  1 29  1  0  0  0  0
  1 30  1  0  0  0  0
  1 31  1  0  0  0  0
  2  3  1  0  0  0  0
  3 25  1  0  0  0  0
  3  4  1  0  0  0  0
  3 32  1  0  0  0  0
  4  5  1  0  0  0  0
  4 33  1  0  0  0  0
  4 34  1  0  0  0  0
  5  6  1  0  0  0  0
  5 25  1  0  0  0  0
  5 35  1  0  0  0  0
  6  7  1  0  0  0  0
  6  8  1  0  0  0  0
  7 36  1  0  0  0  0
  7 37  1  0  0  0  0
  7 38  1  0  0  0  0
  8 13  1  0  0  0  0
  8  9  2  0  0  0  0
  9 10  1  0  0  0  0
 10 11  2  0  0  0  0
 10 39  1  0  0  0  0
 11 12  1  0  0  0  0
 12 16  1  0  0  0  0
 12 13  2  0  0  0  0
 13 14  1  0  0  0  0
 14 15  2  0  0  0  0
 15 16  1  0  0  0  0
 15 40  1  0  0  0  0
 16 17  1  0  0  0  0
 17 18  1  0  0  0  0
 17 41  1  0  0  0  0
 17 42  1  0  0  0  0
 18 19  1  0  0  0  0
 18 20  1  0  0  0  0
 18 43  1  0  0  0  0
 19 44  1  0  0  0  0
 20 24  1  0  0  0  0
 20 21  1  0  0  0  0
 20 45  1  0  0  0  0
 21 22  1  0  0  0  0
 21 46  1  0  0  0  0
 21 47  1  0  0  0  0
 22 23  1  0  0  0  0
 22 48  1  0  0  0  0
 22 49  1  0  0  0  0
 23 24  1  0  0  0  0
 23 50  1  0  0  0  0
 23 51  1  0  0  0  0
 25 28  1  0  0  0  0
 25 26  1  0  0  0  0
 26 27  1  0  0  0  0
 26 52  1  0  0  0  0
 26 53  1  0  0  0  0
 27 28  1  0  0  0  0
 27 54  1  0  0  0  0
 27 55  1  0  0  0  0
 28 56  1  0  0  0  0
 28 57  1  0  0  0  0
M  END
> <s_m_source_file>
AV-unprocessed.smi

> <i_m_source_file_index>
276

> <i_lp_mmshare_version>
43012

> <i_f3d_flags>
0

> <s_epik_input>
W0NIMl0xW0NIMl1bQ0gyXUMxMltDQEhdKE9bQ0gzXSlbQ0gyXVtDQEhdMk4oW0NIM10pYyhuW2NIXW4zKWMoYzM0KW5bY0hdbjRbQ0gyXVtDQEhdKFtPSF0pW0NAQEhdNVtDSDJdW0NIMl1bQ0gyXU81

> <s_epik_cmdline>
J2VwaWtfcHl0aG9uJywgJy1waCcsICc3LjAnLCAnLXRuJywgJzgnLCAnLW1hJywgJzIwMCcsICctbWV0YWxfYmluZGluZycsICctaW1hZScsICc8aW5maWxlLm1hZT4nLCAnLW9tYWUnLCAnPG91dGZpbGUubWFlPic=

> <r_lp_tautomer_probability>
1

> <r_epik_Ionization_Penalty>
0.00204117

> <r_epik_Ionization_Penalty_Charging>
0

> <r_epik_Ionization_Penalty_Neutral>
0.00204117

> <r_epik_State_Penalty>
0.00127401

> <r_epik_Charging_Adjusted_Penalty>
0.00127401

> <i_epik_Tot_Q>
0

> <i_epik_Tot_abs_Q>
0

> <r_epik_Metal_State_Penalty>
-0

> <b_epik_Metal_Only>
0

> <s_lp_Force_Field>
OPLS_2005

> <r_lp_Energy>
57.8978

> <b_lp_Chiralities_Consistent>
1

> <s_lp_Variant>
AV-unprocessed.smi:276-4

> <Gold.Version>
5.8.1

> <Gold.Id.Protein>
6NUR|6NUR_protein|mol2

> <Gold.PLP.Fitness>
44.1775

> <Gold.PLP.PLP>
-41.0472

> <Gold.PLP.part.hbond>
-1.4389

> <Gold.PLP.part.metal>
0.0000

> <Gold.PLP.part.buried>
-4.5858

> <Gold.PLP.part.nonpolar>
-35.3061

> <Gold.PLP.part.repulsive>
0.1729

> <Gold.PLP.ligand.clash>
0.0000

> <Gold.PLP.ligand.torsion>
1.2144

> <Gold.PLP.Chemscore.Hbond>
1.5920

> <Gold.PLP.Chemscore.CHOScore>
0.0000

> <Gold.PLP.Chemscore.Metal>
0.0000

> <Gold.Chemscore.Hbonds>
donor molecule, donor type, donor heavy atom, donor atom, acceptor molecule, acceptor atom, score
      L1  H    19    44       P1  8028  0.16
      P1  H  6896  6908       L1     9  0.85

> <Gold.PLP.Chemscore.Internal.Correction>
0.7831

> <Gold.Rescore>
     Score         DG    S(hbond)    S(metal)    S(lipo)     H(rot)  DE(clash)    DE(int)     intcor
     15.64     -16.74       1.56        0.00     110.99       2.72       0.03       1.07       ----

> <Gold.Chemscore.Fitness>
15.6427

> <Gold.Chemscore.DG>
-16.7362

> <Gold.Chemscore.ZeroCoef>
-5.4800

> <Gold.Chemscore.Hbond>
1.5648

> <Gold.Chemscore.Metal>
0.0000

> <Gold.Chemscore.Lipo>
110.9891

> <Gold.Chemscore.Internal_Hbond>
0.0000

> <Gold.Chemscore.DEClash>
0.0281

> <Gold.Chemscore.DEInternal>
1.0654

> <Gold.Chemscore.Rot>
2.7172

> <Gold.Chemscore.Internal.Correction>
   9.000000E+99

> <Gold.Chemscore.Hbonds>
donor molecule, donor type, donor heavy atom, donor atom, acceptor molecule, acceptor atom, score
      L1  H    19    44       P1  8028  0.16
      P1  H  6896  6908       L1     9  0.80

> <Gold.Chemscore.Hbond.Weighted>
-5.2265

> <Gold.Chemscore.Metal.Weighted>
-0.0000

> <Gold.Chemscore.Lipo.Weighted>
-12.9857

> <Gold.Chemscore.Internal_Hbond.Weighted>
0.0000

> <Gold.Chemscore.DEClash.Weighted>
0.0281

> <Gold.Chemscore.DEInternal.Weighted>
1.0654

> <Gold.Chemscore.Rot.Weighted>
6.9560

> <Gold.Chemscore.Internal.Correction.Weighted>
   9.000000E+99

> <Gold.Protein.RotatedTorsions>
[ 6907 6896 6895 6894 ] final -167.90 input  -60.11 | X-H torsion
[ 7974 7965 7964 7962 ] final  -59.00 input  175.53 | X-H torsion
[ 8008 7997 7996 7995 ] final  143.27 input   59.86 | X-H torsion
[ 10167 10162 10161 10158 ] final -109.58 input  -65.29 | X-H torsion
[ 10718 10713 10712 10709 ] final  -48.12 input   66.30 | X-H torsion
[ 10763 10752 10751 10750 ] final -163.61 input  -60.55 | X-H torsion
[ 11005 11000 10999 10996 ] final -149.05 input  -57.11 | X-H torsion

> <Gold.Protein.ActiveResidues>
 VAL166  LYS551  ARG553  GLY616  TRP617  ASP618  TYR619  PRO620  LYS621  CYS622 
 ASP623  PHE694  ASN695  SER759  ASP760  ASP761  ALA762  ILE779  LEU786  VAL792 
 PHE793  MET794  SER795  GLU796  ALA797  LYS798  CYS799  TRP800  GLU811  SER814 

> <Gold.Protein.RotatedAtoms>
  151.4669  133.3578  159.2817 H   0  0  0  0  0  0  0  0  0  0  0  0  # atno 6907 bound_to 6896
  150.8987  134.8399  159.7356 H   0  0  0  0  0  0  0  0  0  0  0  0  # atno 6908 bound_to 6896
  152.4867  134.4587  159.9650 H   0  0  0  0  0  0  0  0  0  0  0  0  # atno 6909 bound_to 6896
  145.8326  140.8470  143.0075 H   0  0  0  0  0  0  0  0  0  0  0  0  # atno 7974 bound_to 7965
  156.2933  140.2266  156.4864 H   0  0  0  0  0  0  0  0  0  0  0  0  # atno 8008 bound_to 7997
  154.7809  140.0460  157.1147 H   0  0  0  0  0  0  0  0  0  0  0  0  # atno 8009 bound_to 7997
  154.9760  140.3072  155.4970 H   0  0  0  0  0  0  0  0  0  0  0  0  # atno 8010 bound_to 7997
  140.1538  143.4177  152.1475 H   0  0  0  0  0  0  0  0  0  0  0  0  # atno 10167 bound_to 10162
  156.2018  130.4156  149.9231 H   0  0  0  0  0  0  0  0  0  0  0  0  # atno 10718 bound_to 10713
  154.7107  135.3005  154.9202 H   0  0  0  0  0  0  0  0  0  0  0  0  # atno 10763 bound_to 10752
  154.0105  135.6695  153.4769 H   0  0  0  0  0  0  0  0  0  0  0  0  # atno 10764 bound_to 10752
  153.0752  135.5038  154.8303 H   0  0  0  0  0  0  0  0  0  0  0  0  # atno 10765 bound_to 10752
  140.7549  134.3365  157.5117 H   0  0  0  0  0  0  0  0  0  0  0  0  # atno 11005 bound_to 11000
  144.6738  140.0695  143.7473 LP  0  0  0  0  0  0  0  0  0  0  0  0  # atno 17320 bound_to 7965
  145.9554  139.2763  143.1187 LP  0  0  0  0  0  0  0  0  0  0  0  0  # atno 17321 bound_to 7965
  139.5413  144.7259  151.4725 LP  0  0  0  0  0  0  0  0  0  0  0  0  # atno 17342 bound_to 10162
  140.6686  143.8344  150.6971 LP  0  0  0  0  0  0  0  0  0  0  0  0  # atno 17343 bound_to 10162
  156.6938  130.8906  151.3591 LP  0  0  0  0  0  0  0  0  0  0  0  0  # atno 17370 bound_to 10713
  157.6990  130.9312  150.0728 LP  0  0  0  0  0  0  0  0  0  0  0  0  # atno 17371 bound_to 10713
  139.8781  134.9165  156.3156 LP  0  0  0  0  0  0  0  0  0  0  0  0  # atno 17394 bound_to 11000
  140.9717  133.7323  156.0544 LP  0  0  0  0  0  0  0  0  0  0  0  0  # atno 17395 bound_to 11000

$$$$
