AV-unprocessed.smi:1199|AV-procd|sdf|5019|dock3
  -GOLD-   22720 4 33D 1   1.00000     0.00000
 Structure written by MMmdl.
 41 42  0  0  0  0  0  0  0  0  1 V2000
  151.9732  138.9182  158.0603 C   0  0  0  0  0  0  0  0  0  0  0  0
  150.6647  139.5156  158.5994 C   0  0  1  0  0  0  0  0  0  0  0  0
  150.2807  140.8147  157.8569 C   0  0  0  0  0  0  0  0  0  0  0  0
  150.8561  142.0492  158.3981 N   0  0  0  0  0  0  0  0  0  0  0  0
  151.0034  143.1010  157.3928 C   0  0  0  0  0  0  0  0  0  0  0  0
  151.6513  144.3711  157.9701 C   0  0  0  0  0  0  0  0  0  0  0  0
  152.9066  144.0461  158.5567 O   0  0  0  0  0  0  0  0  0  0  0  0
  152.7914  143.0675  159.5841 C   0  0  0  0  0  0  0  0  0  0  0  0
  152.1575  141.7905  159.0060 C   0  0  0  0  0  0  0  0  0  0  0  0
  149.5980  138.5295  158.4446 N   0  0  0  0  0  0  0  0  0  0  0  0
  149.4503  137.4175  159.1805 C   0  0  0  0  0  0  0  0  0  0  0  0
  150.2710  137.0443  160.0188 O   0  0  0  0  0  0  0  0  0  0  0  0
  148.1707  136.6100  158.9341 C   0  0  0  0  0  0  0  0  0  0  0  0
  147.8933  135.6939  160.0486 N   0  0  0  0  0  0  0  0  0  0  0  0
  147.9386  134.3536  159.6917 N   0  0  0  0  0  0  0  0  0  0  0  0
  147.6666  133.4436  160.5644 C   0  0  0  0  0  0  0  0  0  0  0  0
  147.7161  132.1308  160.1648 O   0  0  0  0  0  0  0  0  0  0  0  0
  147.3199  133.7913  161.9244 C   0  0  0  0  0  0  0  0  0  0  0  0
  147.2841  135.0984  162.2646 C   0  0  0  0  0  0  0  0  0  0  0  0
  147.5807  136.1573  161.2979 C   0  0  0  0  0  0  0  0  0  0  0  0
  147.5456  137.3546  161.5801 O   0  0  0  0  0  0  0  0  0  0  0  0
  148.6344  131.9086  160.1454 H   0  0  0  0  0  0  0  0  0  0  0  0
  152.8021  139.6162  158.1818 H   0  0  0  0  0  0  0  0  0  0  0  0
  151.8942  138.6761  157.0001 H   0  0  0  0  0  0  0  0  0  0  0  0
  152.2366  138.0041  158.5935 H   0  0  0  0  0  0  0  0  0  0  0  0
  150.8226  139.7537  159.6531 H   0  0  0  0  0  0  0  0  0  0  0  0
  150.6296  140.7157  156.8281 H   0  0  0  0  0  0  0  0  0  0  0  0
  149.1952  140.9025  157.7842 H   0  0  0  0  0  0  0  0  0  0  0  0
  151.6021  142.7355  156.5570 H   0  0  0  0  0  0  0  0  0  0  0  0
  150.0305  143.3751  156.9891 H   0  0  0  0  0  0  0  0  0  0  0  0
  151.8041  145.1092  157.1823 H   0  0  0  0  0  0  0  0  0  0  0  0
  151.0015  144.8299  158.7171 H   0  0  0  0  0  0  0  0  0  0  0  0
  153.7823  142.8520  159.9840 H   0  0  0  0  0  0  0  0  0  0  0  0
  152.1910  143.4597  160.4065 H   0  0  0  0  0  0  0  0  0  0  0  0
  152.0547  141.0500  159.8001 H   0  0  0  0  0  0  0  0  0  0  0  0
  152.8323  141.3601  158.2643 H   0  0  0  0  0  0  0  0  0  0  0  0
  148.8780  138.7458  157.7706 H   0  0  0  0  0  0  0  0  0  0  0  0
  147.3228  137.2847  158.7977 H   0  0  0  0  0  0  0  0  0  0  0  0
  148.2694  136.0745  157.9885 H   0  0  0  0  0  0  0  0  0  0  0  0
  147.0971  133.0175  162.6441 H   0  0  0  0  0  0  0  0  0  0  0  0
  147.0257  135.3719  163.2769 H   0  0  0  0  0  0  0  0  0  0  0  0
  1  2  1  0  0  0  0
  1 23  1  0  0  0  0
  1 24  1  0  0  0  0
  1 25  1  0  0  0  0
  2  3  1  0  0  0  0
  2 10  1  0  0  0  0
  2 26  1  0  0  0  0
  3  4  1  0  0  0  0
  3 27  1  0  0  0  0
  3 28  1  0  0  0  0
  4  9  1  0  0  0  0
  4  5  1  0  0  0  0
  5  6  1  0  0  0  0
  5 29  1  0  0  0  0
  5 30  1  0  0  0  0
  6  7  1  0  0  0  0
  6 31  1  0  0  0  0
  6 32  1  0  0  0  0
  7  8  1  0  0  0  0
  8  9  1  0  0  0  0
  8 33  1  0  0  0  0
  8 34  1  0  0  0  0
  9 35  1  0  0  0  0
  9 36  1  0  0  0  0
 10 11  1  0  0  0  0
 10 37  1  0  0  0  0
 11 12  2  0  0  0  0
 11 13  1  0  0  0  0
 13 38  1  0  0  0  0
 13 39  1  0  0  0  0
 13 14  1  0  0  0  0
 14 15  1  0  0  0  0
 14 20  1  0  0  0  0
 15 16  2  0  0  0  0
 16 17  1  0  0  0  0
 16 18  1  0  0  0  0
 17 22  1  0  0  0  0
 18 40  1  0  0  0  0
 18 19  2  0  0  0  0
 19 41  1  0  0  0  0
 19 20  1  0  0  0  0
 20 21  2  0  0  0  0
M  END
> <s_m_source_file>
AV-unprocessed.smi

> <i_m_source_file_index>
1199

> <i_lp_mmshare_version>
43012

> <i_f3d_flags>
0

> <s_epik_input>
W0NIMl0xW0NIMl1PW0NIMl1bQ0gyXU4xW0NIMl1bQ0BASF0oW0NIM10pW05IXUMoPU8pW0NIMl1uMltuSF1jKD1PKVtjSF1bY0hdYzI9Tw==

> <s_epik_cmdline>
J2VwaWtfcHl0aG9uJywgJy1waCcsICc3LjAnLCAnLXRuJywgJzgnLCAnLW1hJywgJzIwMCcsICctbWV0YWxfYmluZGluZycsICctaW1hZScsICc8aW5maWxlLm1hZT4nLCAnLW9tYWUnLCAnPG91dGZpbGUubWFlPic=

> <r_epik_Ionization_Penalty>
2.36432

> <r_epik_Ionization_Penalty_Charging>
3.67277e-08

> <r_epik_Ionization_Penalty_Neutral>
2.36432

> <r_epik_State_Penalty>
1.96081

> <r_epik_Charging_Adjusted_Penalty>
1.96081

> <i_epik_Tot_Q>
0

> <i_epik_Tot_abs_Q>
0

> <r_epik_Metal_State_Penalty>
1.96081

> <b_epik_Metal_Only>
0

> <s_lp_Force_Field>
OPLS_2005

> <r_lp_Energy>
38.3542

> <b_lp_Chiralities_Consistent>
1

> <s_lp_Variant>
AV-unprocessed.smi:1199-6

> <Gold.Version>
5.8.1

> <Gold.Id.Protein>
6NUR|6NUR_protein|mol2

> <Gold.PLP.Fitness>
44.1786

> <Gold.PLP.PLP>
-38.0518

> <Gold.PLP.part.hbond>
-3.6571

> <Gold.PLP.part.metal>
0.0000

> <Gold.PLP.part.buried>
-4.8330

> <Gold.PLP.part.nonpolar>
-30.1428

> <Gold.PLP.part.repulsive>
0.1942

> <Gold.PLP.ligand.clash>
0.0000

> <Gold.PLP.ligand.torsion>
1.1128

> <Gold.PLP.Chemscore.Hbond>
2.7440

> <Gold.PLP.Chemscore.CHOScore>
0.0000

> <Gold.PLP.Chemscore.Metal>
0.0000

> <Gold.Chemscore.Hbonds>
donor molecule, donor type, donor heavy atom, donor atom, acceptor molecule, acceptor atom, score
      P1  H  6896  6909       L1    12  0.57
      P1  H  6931  6943       L1    21  0.88
      P1  H  6934  6947       L1    21  0.78

> <Gold.PLP.Chemscore.Internal.Correction>
0.1205

> <Gold.Rescore>
     Score         DG    S(hbond)    S(metal)    S(lipo)     H(rot)  DE(clash)    DE(int)     intcor
     15.07     -16.07       2.77        0.00      75.85       2.94       0.00       1.00       ----

> <Gold.Chemscore.Fitness>
15.0693

> <Gold.Chemscore.DG>
-16.0671

> <Gold.Chemscore.ZeroCoef>
-5.4800

> <Gold.Chemscore.Hbond>
2.7692

> <Gold.Chemscore.Metal>
0.0000

> <Gold.Chemscore.Lipo>
75.8462

> <Gold.Chemscore.Internal_Hbond>
0.0000

> <Gold.Chemscore.DEClash>
0.0024

> <Gold.Chemscore.DEInternal>
0.9954

> <Gold.Chemscore.Rot>
2.9437

> <Gold.Chemscore.Internal.Correction>
   9.000000E+99

> <Gold.Chemscore.Hbonds>
donor molecule, donor type, donor heavy atom, donor atom, acceptor molecule, acceptor atom, score
      P1  H  6896  6909       L1    12  0.48
      P1  H  6931  6943       L1    21  0.85
      P1  H  6934  6947       L1    21  0.78

> <Gold.Chemscore.Hbond.Weighted>
-9.2490

> <Gold.Chemscore.Metal.Weighted>
-0.0000

> <Gold.Chemscore.Lipo.Weighted>
-8.8740

> <Gold.Chemscore.Internal_Hbond.Weighted>
0.0000

> <Gold.Chemscore.DEClash.Weighted>
0.0024

> <Gold.Chemscore.DEInternal.Weighted>
0.9954

> <Gold.Chemscore.Rot.Weighted>
7.5359

> <Gold.Chemscore.Internal.Correction.Weighted>
   9.000000E+99

> <Gold.Protein.RotatedTorsions>
[ 6907 6896 6895 6894 ] final   76.98 input  -60.11 | X-H torsion
[ 7974 7965 7964 7962 ] final  176.33 input  175.53 | X-H torsion
[ 8008 7997 7996 7995 ] final  147.67 input   59.86 | X-H torsion
[ 10167 10162 10161 10158 ] final   15.53 input  -65.29 | X-H torsion
[ 10718 10713 10712 10709 ] final  136.40 input   66.30 | X-H torsion
[ 10763 10752 10751 10750 ] final  161.17 input  -60.55 | X-H torsion
[ 11005 11000 10999 10996 ] final    4.38 input  -57.11 | X-H torsion

> <Gold.Protein.ActiveResidues>
 VAL166  LYS551  ARG553  GLY616  TRP617  ASP618  TYR619  PRO620  LYS621  CYS622 
 ASP623  PHE694  ASN695  SER759  ASP760  ASP761  ALA762  ILE779  LEU786  VAL792 
 PHE793  MET794  SER795  GLU796  ALA797  LYS798  CYS799  TRP800  GLU811  SER814 

> <Gold.Protein.RotatedAtoms>
  152.5097  134.3886  159.9375 H   0  0  0  0  0  0  0  0  0  0  0  0  # atno 6907 bound_to 6896
  151.3846  133.3803  159.2721 H   0  0  0  0  0  0  0  0  0  0  0  0  # atno 6908 bound_to 6896
  150.9479  134.8902  159.7712 H   0  0  0  0  0  0  0  0  0  0  0  0  # atno 6909 bound_to 6896
  144.7186  140.0080  143.6440 H   0  0  0  0  0  0  0  0  0  0  0  0  # atno 7974 bound_to 7965
  156.2817  140.2149  156.5575 H   0  0  0  0  0  0  0  0  0  0  0  0  # atno 8008 bound_to 7997
  154.7240  140.0501  157.0688 H   0  0  0  0  0  0  0  0  0  0  0  0  # atno 8009 bound_to 7997
  155.0441  140.3149  155.4717 H   0  0  0  0  0  0  0  0  0  0  0  0  # atno 8010 bound_to 7997
  140.5861  143.8887  150.6831 H   0  0  0  0  0  0  0  0  0  0  0  0  # atno 10167 bound_to 10162
  157.4470  131.1063  151.0077 H   0  0  0  0  0  0  0  0  0  0  0  0  # atno 10718 bound_to 10713
  154.2587  135.2769  155.2787 H   0  0  0  0  0  0  0  0  0  0  0  0  # atno 10763 bound_to 10752
  154.5402  135.5704  153.6836 H   0  0  0  0  0  0  0  0  0  0  0  0  # atno 10764 bound_to 10752
  152.9966  135.6249  154.2737 H   0  0  0  0  0  0  0  0  0  0  0  0  # atno 10765 bound_to 10752
  140.5826  133.9999  155.8054 H   0  0  0  0  0  0  0  0  0  0  0  0  # atno 11005 bound_to 11000
  146.0282  139.3311  143.0771 LP  0  0  0  0  0  0  0  0  0  0  0  0  # atno 17320 bound_to 7965
  145.8486  140.9541  143.0762 LP  0  0  0  0  0  0  0  0  0  0  0  0  # atno 17321 bound_to 7965
  140.2398  143.3672  152.1496 LP  0  0  0  0  0  0  0  0  0  0  0  0  # atno 17342 bound_to 10162
  139.5198  144.7025  151.5452 LP  0  0  0  0  0  0  0  0  0  0  0  0  # atno 17343 bound_to 10162
  157.0920  130.5946  149.5442 LP  0  0  0  0  0  0  0  0  0  0  0  0  # atno 17370 bound_to 10713
  155.9971  130.5042  150.7523 LP  0  0  0  0  0  0  0  0  0  0  0  0  # atno 17371 bound_to 10713
  141.0987  133.9803  157.3117 LP  0  0  0  0  0  0  0  0  0  0  0  0  # atno 17394 bound_to 11000
  139.9310  135.0200  156.8401 LP  0  0  0  0  0  0  0  0  0  0  0  0  # atno 17395 bound_to 11000

$$$$
