AV-unprocessed.smi:1899|AV-procd|sdf|7708|dock6
  -GOLD-   22720 9443D 1   1.00000     0.00000
 Structure written by MMmdl.
 33 34  0  0  0  0  0  0  0  0  1 V2000
  153.8620  140.1177  158.9741 O   0  0  0  0  0  0  0  0  0  0  0  0
  153.9996  140.9398  159.8803 C   0  0  0  0  0  0  0  0  0  0  0  0
  154.9935  140.8818  160.7797 N   0  0  0  0  0  0  0  0  0  0  0  0
  156.0604  139.8857  160.7925 C   0  0  0  0  0  0  0  0  0  0  0  0
  156.9315  139.9393  159.5224 C   0  0  0  0  0  0  0  0  0  0  0  0
  158.1424  140.7142  159.7174 N   0  0  0  0  0  0  0  0  0  0  0  0
  158.6473  141.7041  158.8850 C   0  0  0  0  0  0  0  0  0  0  0  0
  159.8116  142.1508  159.4680 C   0  0  0  0  0  0  0  0  0  0  0  0
  160.0410  141.4541  160.6524 N   0  0  0  0  0  0  0  0  0  0  0  0
  159.0102  140.6231  160.7348 C   0  0  0  0  0  0  0  0  0  0  0  0
  153.0174  142.1100  160.0196 C   0  0  1  0  0  0  0  0  0  0  0  0
  152.7689  142.4490  161.5075 C   0  0  0  0  0  0  0  0  0  0  0  0
  152.0220  143.7596  161.6817 C   0  0  0  0  0  0  0  0  0  0  0  0
  151.8903  144.6718  160.7034 C   0  0  0  0  0  0  0  0  0  0  0  0
  152.4762  144.4969  159.3136 C   0  0  0  0  0  0  0  0  0  0  0  0
  153.5094  143.3559  159.2556 C   0  0  0  0  0  0  0  0  0  0  0  0
  155.0293  141.5965  161.4924 H   0  0  0  0  0  0  0  0  0  0  0  0
  156.6777  140.0564  161.6748 H   0  0  0  0  0  0  0  0  0  0  0  0
  155.6287  138.8902  160.9077 H   0  0  0  0  0  0  0  0  0  0  0  0
  157.2176  138.9294  159.2269 H   0  0  0  0  0  0  0  0  0  0  0  0
  156.3747  140.3602  158.6840 H   0  0  0  0  0  0  0  0  0  0  0  0
  158.1514  141.9990  157.9719 H   0  0  0  0  0  0  0  0  0  0  0  0
  160.4968  142.9135  159.1285 H   0  0  0  0  0  0  0  0  0  0  0  0
  158.8864  139.9264  161.5511 H   0  0  0  0  0  0  0  0  0  0  0  0
  152.0650  141.8097  159.5783 H   0  0  0  0  0  0  0  0  0  0  0  0
  152.1868  141.6533  161.9738 H   0  0  0  0  0  0  0  0  0  0  0  0
  153.7063  142.5213  162.0608 H   0  0  0  0  0  0  0  0  0  0  0  0
  151.5941  143.9509  162.6549 H   0  0  0  0  0  0  0  0  0  0  0  0
  151.3358  145.5803  160.8873 H   0  0  0  0  0  0  0  0  0  0  0  0
  151.6552  144.2977  158.6244 H   0  0  0  0  0  0  0  0  0  0  0  0
  152.9381  145.4322  158.9963 H   0  0  0  0  0  0  0  0  0  0  0  0
  154.4475  143.7037  159.6914 H   0  0  0  0  0  0  0  0  0  0  0  0
  153.7270  143.1114  158.2148 H   0  0  0  0  0  0  0  0  0  0  0  0
  1  2  2  0  0  0  0
  2  3  1  0  0  0  0
  2 11  1  0  0  0  0
  3  4  1  0  0  0  0
  3 17  1  0  0  0  0
  4  5  1  0  0  0  0
  4 18  1  0  0  0  0
  4 19  1  0  0  0  0
  5  6  1  0  0  0  0
  5 20  1  0  0  0  0
  5 21  1  0  0  0  0
  6 10  1  0  0  0  0
  6  7  1  0  0  0  0
  7  8  2  0  0  0  0
  7 22  1  0  0  0  0
  8  9  1  0  0  0  0
  8 23  1  0  0  0  0
  9 10  2  0  0  0  0
 10 24  1  0  0  0  0
 11 16  1  0  0  0  0
 11 12  1  0  0  0  0
 11 25  1  0  0  0  0
 12 13  1  0  0  0  0
 12 26  1  0  0  0  0
 12 27  1  0  0  0  0
 13 14  2  0  0  0  0
 13 28  1  0  0  0  0
 14 15  1  0  0  0  0
 14 29  1  0  0  0  0
 15 16  1  0  0  0  0
 15 30  1  0  0  0  0
 15 31  1  0  0  0  0
 16 32  1  0  0  0  0
 16 33  1  0  0  0  0
M  END
> <s_m_source_file>
AV-unprocessed.smi

> <i_m_source_file_index>
1899

> <i_lp_mmshare_version>
43012

> <i_f3d_flags>
0

> <s_epik_input>
W0NIMl0xW0NIMl1bQ0hdPVtDSF1bQ0gyXVtDQEhdMUMoPU8pW05IXVtDSDJdW0NIMl1uMltjSF1bY0hdbltjSF0y

> <s_epik_cmdline>
J2VwaWtfcHl0aG9uJywgJy1waCcsICc3LjAnLCAnLXRuJywgJzgnLCAnLW1hJywgJzIwMCcsICctbWV0YWxfYmluZGluZycsICctaW1hZScsICc8aW5maWxlLm1hZT4nLCAnLW9tYWUnLCAnPG91dGZpbGUubWFlPic=

> <r_lp_tautomer_probability>
1

> <r_epik_Ionization_Penalty>
0.598506

> <r_epik_Ionization_Penalty_Charging>
0.598506

> <r_epik_Ionization_Penalty_Neutral>
1.57027e-08

> <r_epik_State_Penalty>
0.612686

> <r_epik_Charging_Adjusted_Penalty>
1.21119

> <i_epik_Tot_Q>
0

> <i_epik_Tot_abs_Q>
0

> <r_epik_Metal_State_Penalty>
0.300712

> <b_epik_Metal_Only>
0

> <s_lp_Force_Field>
OPLS_2005

> <r_lp_Energy>
10.0214

> <b_lp_Chiralities_Consistent>
1

> <s_lp_Variant>
AV-unprocessed.smi:1899-4

> <Gold.Version>
5.8.1

> <Gold.Id.Protein>
6NUR|6NUR_protein|mol2

> <Gold.PLP.Fitness>
44.6968

> <Gold.PLP.PLP>
-43.8960

> <Gold.PLP.part.hbond>
-2.0000

> <Gold.PLP.part.metal>
0.0000

> <Gold.PLP.part.buried>
-3.6233

> <Gold.PLP.part.nonpolar>
-38.3639

> <Gold.PLP.part.repulsive>
0.1452

> <Gold.PLP.ligand.clash>
0.0000

> <Gold.PLP.ligand.torsion>
1.0990

> <Gold.PLP.Chemscore.Hbond>
0.9913

> <Gold.PLP.Chemscore.CHOScore>
0.0000

> <Gold.PLP.Chemscore.Metal>
0.0000

> <Gold.Chemscore.Hbonds>
donor molecule, donor type, donor heavy atom, donor atom, acceptor molecule, acceptor atom, score
      P1  H  7997  8010       L1     1  0.98

> <Gold.PLP.Chemscore.Internal.Correction>
0.0251

> <Gold.Rescore>
     Score         DG    S(hbond)    S(metal)    S(lipo)     H(rot)  DE(clash)    DE(int)     intcor
     16.38     -17.12       0.90        0.00     113.17       1.80       0.28       0.45       ----

> <Gold.Chemscore.Fitness>
16.3843

> <Gold.Chemscore.DG>
-17.1175

> <Gold.Chemscore.ZeroCoef>
-5.4800

> <Gold.Chemscore.Hbond>
0.9032

> <Gold.Chemscore.Metal>
0.0000

> <Gold.Chemscore.Lipo>
113.1702

> <Gold.Chemscore.Internal_Hbond>
0.0000

> <Gold.Chemscore.DEClash>
0.2784

> <Gold.Chemscore.DEInternal>
0.4548

> <Gold.Chemscore.Rot>
1.8048

> <Gold.Chemscore.Internal.Correction>
   9.000000E+99

> <Gold.Chemscore.Hbonds>
donor molecule, donor type, donor heavy atom, donor atom, acceptor molecule, acceptor atom, score
      P1  H  7997  8010       L1     1  0.90

> <Gold.Chemscore.Hbond.Weighted>
-3.0168

> <Gold.Chemscore.Metal.Weighted>
-0.0000

> <Gold.Chemscore.Lipo.Weighted>
-13.2409

> <Gold.Chemscore.Internal_Hbond.Weighted>
0.0000

> <Gold.Chemscore.DEClash.Weighted>
0.2784

> <Gold.Chemscore.DEInternal.Weighted>
0.4548

> <Gold.Chemscore.Rot.Weighted>
4.6203

> <Gold.Chemscore.Internal.Correction.Weighted>
   9.000000E+99

> <Gold.Protein.RotatedTorsions>
[ 6907 6896 6895 6894 ] final  175.94 input  -60.11 | X-H torsion
[ 7974 7965 7964 7962 ] final  -79.66 input  175.53 | X-H torsion
[ 8008 7997 7996 7995 ] final   15.03 input   59.86 | X-H torsion
[ 10167 10162 10161 10158 ] final  160.03 input  -65.29 | X-H torsion
[ 10718 10713 10712 10709 ] final   64.83 input   66.30 | X-H torsion
[ 10763 10752 10751 10750 ] final  -89.38 input  -60.55 | X-H torsion
[ 11005 11000 10999 10996 ] final  -50.28 input  -57.11 | X-H torsion

> <Gold.Protein.ActiveResidues>
 VAL166  LYS551  ARG553  GLY616  TRP617  ASP618  TYR619  PRO620  LYS621  CYS622 
 ASP623  PHE694  ASN695  SER759  ASP760  ASP761  ALA762  ILE779  LEU786  VAL792 
 PHE793  MET794  SER795  GLU796  ALA797  LYS798  CYS799  TRP800  GLU811  SER814 

> <Gold.Protein.RotatedAtoms>
  151.7281  133.3316  159.3332 H   0  0  0  0  0  0  0  0  0  0  0  0  # atno 6907 bound_to 6896
  150.7624  134.6388  159.6235 H   0  0  0  0  0  0  0  0  0  0  0  0  # atno 6908 bound_to 6896
  152.3609  134.6875  160.0259 H   0  0  0  0  0  0  0  0  0  0  0  0  # atno 6909 bound_to 6896
  145.5702  140.9467  143.1399 H   0  0  0  0  0  0  0  0  0  0  0  0  # atno 7974 bound_to 7965
  154.8569  140.2938  155.5563 H   0  0  0  0  0  0  0  0  0  0  0  0  # atno 8008 bound_to 7997
  156.3018  140.2485  156.3469 H   0  0  0  0  0  0  0  0  0  0  0  0  # atno 8009 bound_to 7997
  154.8960  140.0393  157.1855 H   0  0  0  0  0  0  0  0  0  0  0  0  # atno 8010 bound_to 7997
  139.4837  144.4673  151.8624 H   0  0  0  0  0  0  0  0  0  0  0  0  # atno 10167 bound_to 10162
  157.6065  130.9181  149.9896 H   0  0  0  0  0  0  0  0  0  0  0  0  # atno 10718 bound_to 10713
  154.6546  135.5343  153.7943 H   0  0  0  0  0  0  0  0  0  0  0  0  # atno 10763 bound_to 10752
  153.0406  135.6491  154.0965 H   0  0  0  0  0  0  0  0  0  0  0  0  # atno 10764 bound_to 10752
  154.0879  135.2942  155.3257 H   0  0  0  0  0  0  0  0  0  0  0  0  # atno 10765 bound_to 10752
  141.0807  133.6654  156.3708 H   0  0  0  0  0  0  0  0  0  0  0  0  # atno 11005 bound_to 11000
  144.7441  139.7367  143.7299 LP  0  0  0  0  0  0  0  0  0  0  0  0  # atno 17320 bound_to 7965
  146.1789  139.4973  142.9879 LP  0  0  0  0  0  0  0  0  0  0  0  0  # atno 17321 bound_to 7965
  140.4139  144.2332  150.5888 LP  0  0  0  0  0  0  0  0  0  0  0  0  # atno 17342 bound_to 10162
  140.4939  143.2338  151.8778 LP  0  0  0  0  0  0  0  0  0  0  0  0  # atno 17343 bound_to 10162
  156.1153  130.3648  149.9978 LP  0  0  0  0  0  0  0  0  0  0  0  0  # atno 17370 bound_to 10713
  156.8069  130.9310  151.3645 LP  0  0  0  0  0  0  0  0  0  0  0  0  # atno 17371 bound_to 10713
  140.5475  134.6060  157.5398 LP  0  0  0  0  0  0  0  0  0  0  0  0  # atno 17394 bound_to 11000
  139.9621  134.7435  156.0216 LP  0  0  0  0  0  0  0  0  0  0  0  0  # atno 17395 bound_to 11000

$$$$
