AV-unprocessed.smi:266|AV-procd|sdf|2032|dock9
  -GOLD-   2262021243D 1   1.00000     0.00000
 Structure written by MMmdl.
 52 55  0  0  0  0  0  0  0  0  1 V2000
  147.4451  133.2103  152.2653 C   0  0  0  0  0  0  0  0  0  0  0  0
  146.3564  133.2561  151.1809 C   0  0  1  0  0  0  0  0  0  0  0  0
  146.2956  131.9868  150.5377 O   0  0  0  0  0  0  0  0  0  0  0  0
  144.9751  131.7854  150.0685 C   0  0  0  0  0  0  0  0  0  0  0  0
  144.1412  132.3143  151.2238 C   0  0  0  0  0  0  0  0  0  0  0  0
  144.9088  133.5655  151.6555 C   0  0  1  0  0  0  0  0  0  0  0  0
  144.8127  133.6812  153.0650 O   0  0  0  0  0  0  0  0  0  0  0  0
  144.3838  134.8771  151.0129 C   0  0  0  0  0  0  0  0  0  0  0  0
  145.1492  136.0679  151.3539 N   0  0  0  0  0  0  0  0  0  0  0  0
  145.9047  136.8319  150.4961 C   0  0  0  0  0  0  0  0  0  0  0  0
  146.5082  137.8483  151.0459 N   0  0  0  0  0  0  0  0  0  0  0  0
  146.1616  137.7802  152.3927 C   0  0  0  0  0  0  0  0  0  0  0  0
  146.4700  138.5575  153.5547 C   0  0  0  0  0  0  0  0  0  0  0  0
  147.2622  139.6709  153.5664 N   0  0  0  0  0  0  0  0  0  0  0  0
  147.1043  140.6937  152.5391 C   0  0  0  0  0  0  0  0  0  0  0  0
  148.1548  139.9689  154.6909 C   0  0  0  0  0  0  0  0  0  0  0  0
  149.2577  138.9080  154.8794 C   0  0  2  0  0  0  0  0  0  0  0  0
  149.4374  138.5148  156.3580 C   0  0  0  0  0  0  0  0  0  0  0  0
  150.6991  137.6549  156.4878 C   0  0  0  0  0  0  0  0  0  0  0  0
  151.8599  138.2852  155.2187 S   0  0  0  0  0  0  0  0  0  0  0  0
  152.8696  139.1431  155.8570 O   0  0  0  0  0  0  0  0  0  0  0  0
  152.2553  137.1734  154.3409 O   0  0  0  0  0  0  0  0  0  0  0  0
  150.6363  139.3414  154.3555 C   0  0  0  0  0  0  0  0  0  0  0  0
  145.9282  138.1329  154.7282 N   0  0  0  0  0  0  0  0  0  0  0  0
  145.1450  137.0531  154.7781 C   0  0  0  0  0  0  0  0  0  0  0  0
  144.7743  136.2488  153.7833 N   0  0  0  0  0  0  0  0  0  0  0  0
  145.3101  136.6537  152.5981 C   0  0  0  0  0  0  0  0  0  0  0  0
  147.5347  134.1707  152.7735 H   0  0  0  0  0  0  0  0  0  0  0  0
  148.4164  132.9771  151.8281 H   0  0  0  0  0  0  0  0  0  0  0  0
  147.2302  132.4481  153.0147 H   0  0  0  0  0  0  0  0  0  0  0  0
  146.6582  133.9804  150.4226 H   0  0  0  0  0  0  0  0  0  0  0  0
  144.8079  132.3677  149.1611 H   0  0  0  0  0  0  0  0  0  0  0  0
  144.7800  130.7353  149.8510 H   0  0  0  0  0  0  0  0  0  0  0  0
  143.1015  132.4860  150.9509 H   0  0  0  0  0  0  0  0  0  0  0  0
  144.1463  131.5681  152.0202 H   0  0  0  0  0  0  0  0  0  0  0  0
  144.3408  134.4737  153.2704 H   0  0  0  0  0  0  0  0  0  0  0  0
  144.3731  134.7809  149.9264 H   0  0  0  0  0  0  0  0  0  0  0  0
  143.3485  135.0504  151.3100 H   0  0  0  0  0  0  0  0  0  0  0  0
  145.9916  136.6132  149.4416 H   0  0  0  0  0  0  0  0  0  0  0  0
  146.0699  141.0350  152.4888 H   0  0  0  0  0  0  0  0  0  0  0  0
  147.4011  140.3082  151.5634 H   0  0  0  0  0  0  0  0  0  0  0  0
  147.7273  141.5630  152.7511 H   0  0  0  0  0  0  0  0  0  0  0  0
  148.5890  140.9663  154.6222 H   0  0  0  0  0  0  0  0  0  0  0  0
  147.5385  139.9954  155.5903 H   0  0  0  0  0  0  0  0  0  0  0  0
  148.9709  138.0008  154.3454 H   0  0  0  0  0  0  0  0  0  0  0  0
  149.5626  139.4183  156.9564 H   0  0  0  0  0  0  0  0  0  0  0  0
  148.5615  137.9945  156.7469 H   0  0  0  0  0  0  0  0  0  0  0  0
  151.1535  137.7087  157.4771 H   0  0  0  0  0  0  0  0  0  0  0  0
  150.4822  136.6114  156.2579 H   0  0  0  0  0  0  0  0  0  0  0  0
  150.7380  139.2337  153.2757 H   0  0  0  0  0  0  0  0  0  0  0  0
  150.8493  140.3760  154.6246 H   0  0  0  0  0  0  0  0  0  0  0  0
  144.7602  136.7981  155.7545 H   0  0  0  0  0  0  0  0  0  0  0  0
  1  2  1  0  0  0  0
  1 28  1  0  0  0  0
  1 29  1  0  0  0  0
  1 30  1  0  0  0  0
  2  6  1  0  0  0  0
  2  3  1  0  0  0  0
  2 31  1  0  0  0  0
  3  4  1  0  0  0  0
  4  5  1  0  0  0  0
  4 32  1  0  0  0  0
  4 33  1  0  0  0  0
  5  6  1  0  0  0  0
  5 34  1  0  0  0  0
  5 35  1  0  0  0  0
  6  7  1  0  0  0  0
  6  8  1  0  0  0  0
  7 36  1  0  0  0  0
  8  9  1  0  0  0  0
  8 37  1  0  0  0  0
  8 38  1  0  0  0  0
  9 27  1  0  0  0  0
  9 10  1  0  0  0  0
 10 11  2  0  0  0  0
 10 39  1  0  0  0  0
 11 12  1  0  0  0  0
 12 27  2  0  0  0  0
 12 13  1  0  0  0  0
 13 14  1  0  0  0  0
 13 24  2  0  0  0  0
 14 15  1  0  0  0  0
 14 16  1  0  0  0  0
 15 40  1  0  0  0  0
 15 41  1  0  0  0  0
 15 42  1  0  0  0  0
 16 17  1  0  0  0  0
 16 43  1  0  0  0  0
 16 44  1  0  0  0  0
 17 23  1  0  0  0  0
 17 18  1  0  0  0  0
 17 45  1  0  0  0  0
 18 19  1  0  0  0  0
 18 46  1  0  0  0  0
 18 47  1  0  0  0  0
 19 20  1  0  0  0  0
 19 48  1  0  0  0  0
 19 49  1  0  0  0  0
 20 21  2  0  0  0  0
 20 22  2  0  0  0  0
 20 23  1  0  0  0  0
 23 50  1  0  0  0  0
 23 51  1  0  0  0  0
 24 25  1  0  0  0  0
 25 26  2  0  0  0  0
 25 52  1  0  0  0  0
 26 27  1  0  0  0  0
M  END
> <s_m_source_file>
AV-unprocessed.smi

> <i_m_source_file_index>
266

> <i_lp_mmshare_version>
43012

> <i_f3d_flags>
0

> <s_epik_input>
W0NIMl0xW0NIMl1PW0NAQEhdKFtDSDNdKVtDQEBdMShbT0hdKVtDSDJdbihbY0hdbjIpYyhjMjMpbltjSF1uYzNOKFtDSDNdKVtDSDJdW0NAQEhdKFtDSDJdNClbQ0gyXVtDSDJdUzQoPU8pPU8=

> <s_epik_cmdline>
J2VwaWtfcHl0aG9uJywgJy1waCcsICc3LjAnLCAnLXRuJywgJzgnLCAnLW1hJywgJzIwMCcsICctbWV0YWxfYmluZGluZycsICctaW1hZScsICc8aW5maWxlLm1hZT4nLCAnLW9tYWUnLCAnPG91dGZpbGUubWFlPic=

> <r_lp_tautomer_probability>
1

> <r_epik_Ionization_Penalty>
0.00155497

> <r_epik_Ionization_Penalty_Charging>
0

> <r_epik_Ionization_Penalty_Neutral>
0.00155497

> <r_epik_State_Penalty>
-0

> <r_epik_Charging_Adjusted_Penalty>
0

> <i_epik_Tot_Q>
0

> <i_epik_Tot_abs_Q>
0

> <r_epik_Metal_State_Penalty>
-0

> <b_epik_Metal_Only>
0

> <s_lp_Force_Field>
OPLS_2005

> <r_lp_Energy>
32.0182

> <b_lp_Chiralities_Consistent>
1

> <s_lp_Variant>
AV-unprocessed.smi:266-2

> <Gold.Version>
5.8.1

> <Gold.Id.Protein>
6NUR|6NUR_protein|mol2

> <Gold.PLP.Fitness>
44.6456

> <Gold.PLP.PLP>
-35.6410

> <Gold.PLP.part.hbond>
-2.9781

> <Gold.PLP.part.metal>
0.0000

> <Gold.PLP.part.buried>
-2.5103

> <Gold.PLP.part.nonpolar>
-33.8191

> <Gold.PLP.part.repulsive>
3.3142

> <Gold.PLP.ligand.clash>
0.0000

> <Gold.PLP.ligand.torsion>
1.2970

> <Gold.PLP.Chemscore.Hbond>
2.8300

> <Gold.PLP.Chemscore.CHOScore>
1.0000

> <Gold.PLP.Chemscore.Metal>
0.0000

> <Gold.Chemscore.Hbonds>
donor molecule, donor type, donor heavy atom, donor atom, acceptor molecule, acceptor atom, score
      P1  H  7954  7966       L1    11  0.90
      P1  H  7997  8010       L1    21  0.99
      P1  H 10752 10763       L1    22  0.83
      L1  C    10    39       P1  7921  1.00

> <Gold.PLP.Chemscore.Internal.Correction>
0.1086

> <Gold.Rescore>
     Score         DG    S(hbond)    S(metal)    S(lipo)     H(rot)  DE(clash)    DE(int)     intcor
      9.23     -14.03       1.82        0.00      74.78       2.45       2.10       2.71       ----

> <Gold.Chemscore.Fitness>
9.2268

> <Gold.Chemscore.DG>
-14.0316

> <Gold.Chemscore.ZeroCoef>
-5.4800

> <Gold.Chemscore.Hbond>
1.8163

> <Gold.Chemscore.Metal>
0.0000

> <Gold.Chemscore.Lipo>
74.7825

> <Gold.Chemscore.Internal_Hbond>
0.0000

> <Gold.Chemscore.DEClash>
2.0982

> <Gold.Chemscore.DEInternal>
2.7065

> <Gold.Chemscore.Rot>
2.4471

> <Gold.Chemscore.Internal.Correction>
   9.000000E+99

> <Gold.Chemscore.Hbonds>
donor molecule, donor type, donor heavy atom, donor atom, acceptor molecule, acceptor atom, score
      P1  H  7954  7966       L1    11  0.17
      P1  H  7997  8010       L1    21  0.94
      P1  H 10752 10763       L1    22  0.83

> <Gold.Chemscore.Hbond.Weighted>
-6.0666

> <Gold.Chemscore.Metal.Weighted>
-0.0000

> <Gold.Chemscore.Lipo.Weighted>
-8.7496

> <Gold.Chemscore.Internal_Hbond.Weighted>
0.0000

> <Gold.Chemscore.DEClash.Weighted>
2.0982

> <Gold.Chemscore.DEInternal.Weighted>
2.7065

> <Gold.Chemscore.Rot.Weighted>
6.2645

> <Gold.Chemscore.Internal.Correction.Weighted>
   9.000000E+99

> <Gold.Protein.RotatedTorsions>
[ 6907 6896 6895 6894 ] final   60.69 input  -60.11 | X-H torsion
[ 7974 7965 7964 7962 ] final  113.80 input  175.53 | X-H torsion
[ 8008 7997 7996 7995 ] final   63.70 input   59.86 | X-H torsion
[ 10167 10162 10161 10158 ] final  130.76 input  -65.29 | X-H torsion
[ 10718 10713 10712 10709 ] final -174.63 input   66.30 | X-H torsion
[ 10763 10752 10751 10750 ] final   38.27 input  -60.55 | X-H torsion
[ 11005 11000 10999 10996 ] final   32.72 input  -57.11 | X-H torsion

> <Gold.Protein.ActiveResidues>
 VAL166  LYS551  ARG553  GLY616  TRP617  ASP618  TYR619  PRO620  LYS621  CYS622 
 ASP623  PHE694  ASN695  SER759  ASP760  ASP761  ALA762  ILE779  LEU786  VAL792 
 PHE793  MET794  SER795  GLU796  ALA797  LYS798  CYS799  TRP800  GLU811  SER814 

> <Gold.Protein.RotatedAtoms>
  152.4024  134.6263  160.0063 H   0  0  0  0  0  0  0  0  0  0  0  0  # atno 6907 bound_to 6896
  151.6465  133.3317  159.3150 H   0  0  0  0  0  0  0  0  0  0  0  0  # atno 6908 bound_to 6896
  150.7923  134.6998  159.6588 H   0  0  0  0  0  0  0  0  0  0  0  0  # atno 6909 bound_to 6896
  145.2124  139.2900  143.4261 H   0  0  0  0  0  0  0  0  0  0  0  0  # atno 7974 bound_to 7965
  155.6344  140.3496  155.4693 H   0  0  0  0  0  0  0  0  0  0  0  0  # atno 8008 bound_to 7997
  155.9977  140.1207  157.0601 H   0  0  0  0  0  0  0  0  0  0  0  0  # atno 8009 bound_to 7997
  154.4239  140.1107  156.5640 H   0  0  0  0  0  0  0  0  0  0  0  0  # atno 8010 bound_to 7997
  139.5415  144.6735  151.4610 H   0  0  0  0  0  0  0  0  0  0  0  0  # atno 10167 bound_to 10162
  156.7879  130.9507  151.3120 H   0  0  0  0  0  0  0  0  0  0  0  0  # atno 10718 bound_to 10713
  153.0007  135.6254  154.2278 H   0  0  0  0  0  0  0  0  0  0  0  0  # atno 10763 bound_to 10752
  154.2020  135.2803  155.2989 H   0  0  0  0  0  0  0  0  0  0  0  0  # atno 10764 bound_to 10752
  154.5676  135.5686  153.7124 H   0  0  0  0  0  0  0  0  0  0  0  0  # atno 10765 bound_to 10752
  140.2706  134.3087  155.7829 H   0  0  0  0  0  0  0  0  0  0  0  0  # atno 11005 bound_to 11000
  146.3394  140.2404  142.8595 LP  0  0  0  0  0  0  0  0  0  0  0  0  # atno 17320 bound_to 7965
  144.9843  140.8488  143.5378 LP  0  0  0  0  0  0  0  0  0  0  0  0  # atno 17321 bound_to 7965
  140.6647  143.8424  150.6927 LP  0  0  0  0  0  0  0  0  0  0  0  0  # atno 17342 bound_to 10162
  140.1829  143.4099  152.1919 LP  0  0  0  0  0  0  0  0  0  0  0  0  # atno 17343 bound_to 10162
  157.6615  130.8970  149.9840 LP  0  0  0  0  0  0  0  0  0  0  0  0  # atno 17370 bound_to 10713
  156.1177  130.3647  149.9940 LP  0  0  0  0  0  0  0  0  0  0  0  0  # atno 17371 bound_to 10713
  141.2178  133.7464  156.9328 LP  0  0  0  0  0  0  0  0  0  0  0  0  # atno 17394 bound_to 11000
  140.1377  134.9314  157.2424 LP  0  0  0  0  0  0  0  0  0  0  0  0  # atno 17395 bound_to 11000

$$$$
