AV-unprocessed.smi:2107|AV-procd|sdf|8600|dock2
  -GOLD-   2272011333D 1   1.00000     0.00000
 Structure written by MMmdl.
 46 47  0  0  0  0  0  0  0  0  1 V2000
  146.3036  147.2986  159.7752 C   0  0  0  0  0  0  0  0  0  0  0  0
  145.7561  145.9195  160.1669 C   0  0  0  0  0  0  0  0  0  0  0  0
  146.7949  144.8733  160.0721 N   0  0  0  0  0  0  0  0  0  0  0  0
  147.8201  144.9115  161.1310 C   0  0  0  0  0  0  0  0  0  0  0  0
  149.2387  144.9939  160.5490 C   0  0  0  0  0  0  0  0  0  0  0  0
  146.3644  143.3278  159.4021 S   0  0  0  0  0  0  0  0  0  0  0  0
  146.2088  142.3632  160.5024 O   0  0  0  0  0  0  0  0  0  0  0  0
  145.2973  143.5363  158.4118 O   0  0  0  0  0  0  0  0  0  0  0  0
  147.8313  142.9739  158.5639 N   0  0  0  0  0  0  0  0  0  0  0  0
  148.0364  141.6484  157.9752 C   0  0  0  0  0  0  0  0  0  0  0  0
  148.0283  141.6216  156.4459 C   0  0  0  0  0  0  0  0  0  0  0  0
  146.9529  142.1914  155.7262 C   0  0  0  0  0  0  0  0  0  0  0  0
  146.9529  142.1378  154.3212 C   0  0  0  0  0  0  0  0  0  0  0  0
  148.0311  141.5040  153.6798 C   0  0  0  0  0  0  0  0  0  0  0  0
  149.0603  140.9455  154.3478 N   0  0  0  0  0  0  0  0  0  0  0  0
  149.0658  140.9961  155.7028 C   0  0  0  0  0  0  0  0  0  0  0  0
  150.1646  140.4165  156.3609 N   0  0  0  0  0  0  0  0  0  0  0  0
  150.9201  141.3784  157.1530 C   0  0  0  0  0  0  0  0  0  0  0  0
  151.9693  140.6461  158.0066 C   0  0  0  0  0  0  0  0  0  0  0  0
  152.8050  139.8552  157.1657 O   0  0  0  0  0  0  0  0  0  0  0  0
  152.0659  138.8700  156.4486 C   0  0  0  0  0  0  0  0  0  0  0  0
  151.0243  139.5598  155.5514 C   0  0  0  0  0  0  0  0  0  0  0  0
  145.5525  148.0704  159.9430 H   0  0  0  0  0  0  0  0  0  0  0  0
  146.5772  147.3399  158.7221 H   0  0  0  0  0  0  0  0  0  0  0  0
  147.1834  147.5616  160.3625 H   0  0  0  0  0  0  0  0  0  0  0  0
  145.3525  145.9592  161.1792 H   0  0  0  0  0  0  0  0  0  0  0  0
  144.9156  145.6619  159.5224 H   0  0  0  0  0  0  0  0  0  0  0  0
  147.6241  145.7515  161.7985 H   0  0  0  0  0  0  0  0  0  0  0  0
  147.7526  144.0124  161.7423 H   0  0  0  0  0  0  0  0  0  0  0  0
  149.9826  144.9454  161.3443 H   0  0  0  0  0  0  0  0  0  0  0  0
  149.4040  145.9245  160.0064 H   0  0  0  0  0  0  0  0  0  0  0  0
  149.4306  144.1662  159.8656 H   0  0  0  0  0  0  0  0  0  0  0  0
  148.1493  143.7383  157.9684 H   0  0  0  0  0  0  0  0  0  0  0  0
  148.9600  141.2381  158.3818 H   0  0  0  0  0  0  0  0  0  0  0  0
  147.2345  140.9956  158.3192 H   0  0  0  0  0  0  0  0  0  0  0  0
  146.1293  142.6655  156.2357 H   0  0  0  0  0  0  0  0  0  0  0  0
  146.1442  142.5695  153.7505 H   0  0  0  0  0  0  0  0  0  0  0  0
  148.0670  141.4408  152.6025 H   0  0  0  0  0  0  0  0  0  0  0  0
  151.4101  142.0891  156.4862 H   0  0  0  0  0  0  0  0  0  0  0  0
  150.2517  141.9518  157.7951 H   0  0  0  0  0  0  0  0  0  0  0  0
  152.5851  141.3664  158.5453 H   0  0  0  0  0  0  0  0  0  0  0  0
  151.4880  140.0146  158.7553 H   0  0  0  0  0  0  0  0  0  0  0  0
  152.7536  138.2806  155.8419 H   0  0  0  0  0  0  0  0  0  0  0  0
  151.5848  138.1823  157.1459 H   0  0  0  0  0  0  0  0  0  0  0  0
  150.4203  138.8138  155.0331 H   0  0  0  0  0  0  0  0  0  0  0  0
  151.5325  140.1536  154.7904 H   0  0  0  0  0  0  0  0  0  0  0  0
  1  2  1  0  0  0  0
  1 23  1  0  0  0  0
  1 24  1  0  0  0  0
  1 25  1  0  0  0  0
  2  3  1  0  0  0  0
  2 26  1  0  0  0  0
  2 27  1  0  0  0  0
  3  4  1  0  0  0  0
  3  6  1  0  0  0  0
  4  5  1  0  0  0  0
  4 28  1  0  0  0  0
  4 29  1  0  0  0  0
  5 30  1  0  0  0  0
  5 31  1  0  0  0  0
  5 32  1  0  0  0  0
  6  7  2  0  0  0  0
  6  8  2  0  0  0  0
  6  9  1  0  0  0  0
  9 10  1  0  0  0  0
  9 33  1  0  0  0  0
 10 11  1  0  0  0  0
 10 34  1  0  0  0  0
 10 35  1  0  0  0  0
 11 16  1  0  0  0  0
 11 12  2  0  0  0  0
 12 13  1  0  0  0  0
 12 36  1  0  0  0  0
 13 14  2  0  0  0  0
 13 37  1  0  0  0  0
 14 15  1  0  0  0  0
 14 38  1  0  0  0  0
 15 16  2  0  0  0  0
 16 17  1  0  0  0  0
 17 22  1  0  0  0  0
 17 18  1  0  0  0  0
 18 19  1  0  0  0  0
 18 39  1  0  0  0  0
 18 40  1  0  0  0  0
 19 20  1  0  0  0  0
 19 41  1  0  0  0  0
 19 42  1  0  0  0  0
 20 21  1  0  0  0  0
 21 22  1  0  0  0  0
 21 43  1  0  0  0  0
 21 44  1  0  0  0  0
 22 45  1  0  0  0  0
 22 46  1  0  0  0  0
M  END
> <s_m_source_file>
AV-unprocessed.smi

> <i_m_source_file_index>
2107

> <i_lp_mmshare_version>
43012

> <i_f3d_flags>
0

> <s_epik_input>
W0NIM11bQ0gyXU4oW0NIMl1bQ0gzXSlTKD1PKSg9TylbTkhdW0NIMl1jMVtjSF1bY0hdW2NIXW5jMU4yW0NIMl1bQ0gyXU9bQ0gyXVtDSDJdMg==

> <s_epik_cmdline>
J2VwaWtfcHl0aG9uJywgJy1waCcsICc3LjAnLCAnLXRuJywgJzgnLCAnLW1hJywgJzIwMCcsICctbWV0YWxfYmluZGluZycsICctaW1hZScsICc8aW5maWxlLm1hZT4nLCAnLW9tYWUnLCAnPG91dGZpbGUubWFlPic=

> <r_lp_tautomer_probability>
1

> <r_epik_Ionization_Penalty>
0.0173886

> <r_epik_Ionization_Penalty_Charging>
0

> <r_epik_Ionization_Penalty_Neutral>
0.0173886

> <r_epik_State_Penalty>
0.0135122

> <r_epik_Charging_Adjusted_Penalty>
0.0135122

> <i_epik_Tot_Q>
0

> <i_epik_Tot_abs_Q>
0

> <r_epik_Metal_State_Penalty>
0.283451

> <b_epik_Metal_Only>
0

> <s_lp_Force_Field>
OPLS_2005

> <r_lp_Energy>
23.0208

> <b_lp_Chiralities_Consistent>
1

> <s_lp_Variant>
AV-unprocessed.smi:2107-1

> <Gold.Version>
5.8.1

> <Gold.Id.Protein>
6NUR|6NUR_protein|mol2

> <Gold.PLP.Fitness>
42.5523

> <Gold.PLP.PLP>
-34.4468

> <Gold.PLP.part.hbond>
-2.6875

> <Gold.PLP.part.metal>
0.0000

> <Gold.PLP.part.buried>
-4.7570

> <Gold.PLP.part.nonpolar>
-26.7717

> <Gold.PLP.part.repulsive>
0.2423

> <Gold.PLP.ligand.clash>
0.0000

> <Gold.PLP.ligand.torsion>
2.2075

> <Gold.PLP.Chemscore.Hbond>
2.1690

> <Gold.PLP.Chemscore.CHOScore>
0.9937

> <Gold.PLP.Chemscore.Metal>
0.0000

> <Gold.Chemscore.Hbonds>
donor molecule, donor type, donor heavy atom, donor atom, acceptor molecule, acceptor atom, score
      L1  H     9    33       P1  8029  0.17
      P1  H  6934  6946       L1     7  1.00
      P1  H  7997  8010       L1    20  1.00
      L1  C    14    38       P1  7957  0.99

> <Gold.PLP.Chemscore.Internal.Correction>
3.0325

> <Gold.Rescore>
     Score         DG    S(hbond)    S(metal)    S(lipo)     H(rot)  DE(clash)    DE(int)     intcor
     13.98     -16.34       2.29        0.00      69.76       1.93       0.04       2.32       ----

> <Gold.Chemscore.Fitness>
13.9848

> <Gold.Chemscore.DG>
-16.3395

> <Gold.Chemscore.ZeroCoef>
-5.4800

> <Gold.Chemscore.Hbond>
2.2866

> <Gold.Chemscore.Metal>
0.0000

> <Gold.Chemscore.Lipo>
69.7599

> <Gold.Chemscore.Internal_Hbond>
0.0000

> <Gold.Chemscore.DEClash>
0.0351

> <Gold.Chemscore.DEInternal>
2.3196

> <Gold.Chemscore.Rot>
1.9295

> <Gold.Chemscore.Internal.Correction>
   9.000000E+99

> <Gold.Chemscore.Hbonds>
donor molecule, donor type, donor heavy atom, donor atom, acceptor molecule, acceptor atom, score
      L1  H     9    33       P1  8029  0.01
      P1  H  6933  6944       L1     7  0.01
      P1  H  6934  6946       L1     7  1.00
      P1  H  7997  8010       L1    20  0.95

> <Gold.Chemscore.Hbond.Weighted>
-7.6371

> <Gold.Chemscore.Metal.Weighted>
-0.0000

> <Gold.Chemscore.Lipo.Weighted>
-8.1619

> <Gold.Chemscore.Internal_Hbond.Weighted>
0.0000

> <Gold.Chemscore.DEClash.Weighted>
0.0351

> <Gold.Chemscore.DEInternal.Weighted>
2.3196

> <Gold.Chemscore.Rot.Weighted>
4.9395

> <Gold.Chemscore.Internal.Correction.Weighted>
   9.000000E+99

> <Gold.Protein.RotatedTorsions>
[ 6907 6896 6895 6894 ] final   86.04 input  -60.11 | X-H torsion
[ 7974 7965 7964 7962 ] final  108.49 input  175.53 | X-H torsion
[ 8008 7997 7996 7995 ] final   47.14 input   59.86 | X-H torsion
[ 10167 10162 10161 10158 ] final  -41.63 input  -65.29 | X-H torsion
[ 10718 10713 10712 10709 ] final   38.62 input   66.30 | X-H torsion
[ 10763 10752 10751 10750 ] final  -86.93 input  -60.55 | X-H torsion
[ 11005 11000 10999 10996 ] final -121.76 input  -57.11 | X-H torsion

> <Gold.Protein.ActiveResidues>
 VAL166  LYS551  ARG553  GLY616  TRP617  ASP618  TYR619  PRO620  LYS621  CYS622 
 ASP623  PHE694  ASN695  SER759  ASP760  ASP761  ALA762  ILE779  LEU786  VAL792 
 PHE793  MET794  SER795  GLU796  ALA797  LYS798  CYS799  TRP800  GLU811  SER814 

> <Gold.Protein.RotatedAtoms>
  152.5387  134.2492  159.8892 H   0  0  0  0  0  0  0  0  0  0  0  0  # atno 6907 bound_to 6896
  151.2456  133.4370  159.2617 H   0  0  0  0  0  0  0  0  0  0  0  0  # atno 6908 bound_to 6896
  151.0586  134.9735  159.8305 H   0  0  0  0  0  0  0  0  0  0  0  0  # atno 6909 bound_to 6896
  145.2800  139.2636  143.3921 H   0  0  0  0  0  0  0  0  0  0  0  0  # atno 7974 bound_to 7965
  155.3642  140.3420  155.4241 H   0  0  0  0  0  0  0  0  0  0  0  0  # atno 8008 bound_to 7997
  156.1697  140.1628  156.8503 H   0  0  0  0  0  0  0  0  0  0  0  0  # atno 8009 bound_to 7997
  154.5221  140.0764  156.8173 H   0  0  0  0  0  0  0  0  0  0  0  0  # atno 8010 bound_to 7997
  140.6996  143.3083  151.3094 H   0  0  0  0  0  0  0  0  0  0  0  0  # atno 10167 bound_to 10162
  157.3610  130.7649  149.7047 H   0  0  0  0  0  0  0  0  0  0  0  0  # atno 10718 bound_to 10713
  154.6280  135.5431  153.7649 H   0  0  0  0  0  0  0  0  0  0  0  0  # atno 10763 bound_to 10752
  153.0270  135.6429  154.1343 H   0  0  0  0  0  0  0  0  0  0  0  0  # atno 10764 bound_to 10752
  154.1274  135.2916  155.3173 H   0  0  0  0  0  0  0  0  0  0  0  0  # atno 10765 bound_to 10752
  141.0046  134.0353  157.3494 H   0  0  0  0  0  0  0  0  0  0  0  0  # atno 11005 bound_to 11000
  146.3219  140.3265  142.8637 LP  0  0  0  0  0  0  0  0  0  0  0  0  # atno 17320 bound_to 7965
  144.9261  140.7923  143.5718 LP  0  0  0  0  0  0  0  0  0  0  0  0  # atno 17321 bound_to 7965
  139.6497  144.0385  152.2617 LP  0  0  0  0  0  0  0  0  0  0  0  0  # atno 17342 bound_to 10162
  139.9917  144.6357  150.7808 LP  0  0  0  0  0  0  0  0  0  0  0  0  # atno 17343 bound_to 10162
  155.9737  130.4114  150.3978 LP  0  0  0  0  0  0  0  0  0  0  0  0  # atno 17370 bound_to 10713
  157.2055  131.0448  151.2627 LP  0  0  0  0  0  0  0  0  0  0  0  0  # atno 17371 bound_to 10713
  139.9056  135.0178  156.7472 LP  0  0  0  0  0  0  0  0  0  0  0  0  # atno 17394 bound_to 11000
  140.6834  133.9454  155.7923 LP  0  0  0  0  0  0  0  0  0  0  0  0  # atno 17395 bound_to 11000

$$$$
