AV-unprocessed.smi:1830|AV-procd|sdf|7444|dock2
  -GOLD-   22720 9133D 1   1.00000     0.00000
 Structure written by MMmdl.
 54 57  0  0  0  0  0  0  0  0  3 V2000
  154.0569  138.7367  157.2334 O   0  0  0  0  0  0  0  0  0  0  0  0
  153.0045  139.3723  157.1795 C   0  0  0  0  0  0  0  0  0  0  0  0
  152.1816  139.3521  156.1230 N   0  0  0  0  0  0  0  0  0  0  0  0
  152.4269  138.5946  154.9015 C   0  0  0  0  0  0  0  0  0  0  0  0
  151.3347  137.5380  154.6819 C   0  0  2  0  0  0  0  0  0  0  0  0
  149.9166  138.1419  154.8200 C   0  0  0  0  0  0  0  0  0  0  0  0
  148.9350  137.0482  154.7072 N   0  3  2  0  0  0  0  0  0  0  0  0
  147.5025  137.3812  154.7883 C   0  0  0  0  0  0  0  0  0  0  0  0
  146.8203  136.0727  155.2358 C   0  0  0  0  0  0  0  0  0  0  0  0
  147.9640  135.0947  155.5633 C   0  0  0  0  0  0  0  0  0  0  0  0
  149.1707  136.0150  155.7180 C   0  0  1  0  0  0  0  0  0  0  0  0
  150.5699  135.4214  155.5099 C   0  0  0  0  0  0  0  0  0  0  0  0
  151.5144  136.4863  155.6386 O   0  0  0  0  0  0  0  0  0  0  0  0
  152.5226  140.1528  158.1612 N   0  0  0  0  0  0  0  0  0  0  0  0
  153.0778  140.3702  159.4544 C   0  0  0  0  0  0  0  0  0  0  0  0
  153.8283  139.3588  160.1078 C   0  0  0  0  0  0  0  0  0  0  0  0
  154.4254  139.6203  161.3551 C   0  0  0  0  0  0  0  0  0  0  0  0
  154.2783  140.8961  161.9248 C   0  0  0  0  0  0  0  0  0  0  0  0
  153.5707  141.8415  161.2729 N   0  3  0  0  0  0  0  0  0  0  0  0
  152.9595  141.6471  160.0774 C   0  0  0  0  0  0  0  0  0  0  0  0
  152.2440  142.7319  159.5201 N   0  0  0  0  0  0  0  0  0  0  0  0
  152.5474  143.2036  158.1739 C   0  0  0  0  0  0  0  0  0  0  0  0
  151.8492  144.5559  158.0620 C   0  0  0  0  0  0  0  0  0  0  0  0
  151.9863  145.1135  159.4754 C   0  0  0  0  0  0  0  0  0  0  0  0
  151.8996  143.8700  160.3667 C   0  0  0  0  0  0  0  0  0  0  0  0
  151.3381  139.9057  156.1567 H   0  0  0  0  0  0  0  0  0  0  0  0
  152.4684  139.2818  154.0554 H   0  0  0  0  0  0  0  0  0  0  0  0
  153.3990  138.1020  154.9617 H   0  0  0  0  0  0  0  0  0  0  0  0
  151.4464  137.1196  153.6796 H   0  0  0  0  0  0  0  0  0  0  0  0
  149.8025  138.6470  155.7806 H   0  0  0  0  0  0  0  0  0  0  0  0
  149.7347  138.8804  154.0383 H   0  0  0  0  0  0  0  0  0  0  0  0
  147.3418  138.1619  155.5336 H   0  0  0  0  0  0  0  0  0  0  0  0
  147.1295  137.7429  153.8299 H   0  0  0  0  0  0  0  0  0  0  0  0
  146.2001  136.2540  156.1143 H   0  0  0  0  0  0  0  0  0  0  0  0
  146.1740  135.6682  154.4561 H   0  0  0  0  0  0  0  0  0  0  0  0
  147.7699  134.4997  156.4563 H   0  0  0  0  0  0  0  0  0  0  0  0
  148.1165  134.4096  154.7281 H   0  0  0  0  0  0  0  0  0  0  0  0
  149.1247  136.4771  156.7071 H   0  0  0  0  0  0  0  0  0  0  0  0
  150.7798  134.6618  156.2631 H   0  0  0  0  0  0  0  0  0  0  0  0
  150.6628  134.9469  154.5315 H   0  0  0  0  0  0  0  0  0  0  0  0
  151.6040  140.5432  158.0103 H   0  0  0  0  0  0  0  0  0  0  0  0
  153.9759  138.3880  159.6592 H   0  0  0  0  0  0  0  0  0  0  0  0
  154.9987  138.8566  161.8601 H   0  0  0  0  0  0  0  0  0  0  0  0
  154.7062  141.1901  162.8724 H   0  0  0  0  0  0  0  0  0  0  0  0
  153.6232  143.3358  158.0495 H   0  0  0  0  0  0  0  0  0  0  0  0
  152.1960  142.5027  157.4163 H   0  0  0  0  0  0  0  0  0  0  0  0
  152.2904  145.2014  157.3019 H   0  0  0  0  0  0  0  0  0  0  0  0
  150.7952  144.4140  157.8180 H   0  0  0  0  0  0  0  0  0  0  0  0
  152.9655  145.5803  159.5905 H   0  0  0  0  0  0  0  0  0  0  0  0
  151.2284  145.8600  159.7146 H   0  0  0  0  0  0  0  0  0  0  0  0
  150.8785  143.7421  160.7266 H   0  0  0  0  0  0  0  0  0  0  0  0
  152.5578  143.9553  161.2322 H   0  0  0  0  0  0  0  0  0  0  0  0
  149.0754  136.6078  153.8091 H   0  0  0  0  0  0  0  0  0  0  0  0
  153.4845  142.7584  161.7115 H   0  0  0  0  0  0  0  0  0  0  0  0
  1  2  2  0  0  0  0
  2  3  1  0  0  0  0
  2 14  1  0  0  0  0
  3  4  1  0  0  0  0
  3 26  1  0  0  0  0
  4  5  1  0  0  0  0
  4 27  1  0  0  0  0
  4 28  1  0  0  0  0
  5 13  1  0  0  0  0
  5  6  1  0  0  0  0
  5 29  1  0  0  0  0
  6  7  1  0  0  0  0
  6 30  1  0  0  0  0
  6 31  1  0  0  0  0
  7 11  1  0  0  0  0
  7  8  1  0  0  0  0
  7 53  1  0  0  0  0
  8  9  1  0  0  0  0
  8 32  1  0  0  0  0
  8 33  1  0  0  0  0
  9 10  1  0  0  0  0
  9 34  1  0  0  0  0
  9 35  1  0  0  0  0
 10 11  1  0  0  0  0
 10 36  1  0  0  0  0
 10 37  1  0  0  0  0
 11 12  1  0  0  0  0
 11 38  1  0  0  0  0
 12 13  1  0  0  0  0
 12 39  1  0  0  0  0
 12 40  1  0  0  0  0
 14 15  1  0  0  0  0
 14 41  1  0  0  0  0
 15 20  1  0  0  0  0
 15 16  2  0  0  0  0
 16 17  1  0  0  0  0
 16 42  1  0  0  0  0
 17 18  2  0  0  0  0
 17 43  1  0  0  0  0
 18 19  1  0  0  0  0
 18 44  1  0  0  0  0
 19 20  2  0  0  0  0
 19 54  1  0  0  0  0
 20 21  1  0  0  0  0
 21 25  1  0  0  0  0
 21 22  1  0  0  0  0
 22 23  1  0  0  0  0
 22 45  1  0  0  0  0
 22 46  1  0  0  0  0
 23 24  1  0  0  0  0
 23 47  1  0  0  0  0
 23 48  1  0  0  0  0
 24 25  1  0  0  0  0
 24 49  1  0  0  0  0
 24 50  1  0  0  0  0
 25 51  1  0  0  0  0
 25 52  1  0  0  0  0
M  CHG  1   7   1
M  CHG  1  19   1
M  END
> <s_m_source_file>
AV-unprocessed.smi

> <i_m_source_file_index>
1830

> <i_lp_mmshare_version>
43012

> <i_f3d_flags>
0

> <s_epik_input>
W0NIMl0xW0NIMl1bQ0gyXVtDQEhdKE4xMilbQ0gyXU9bQ0BASF0oW0NIMl0yKVtDSDJdW05IXUMoPU8pW05IXWMzW2NIXVtjSF1bY0hdbmMzTjRbQ0gyXVtDSDJdW0NIMl1bQ0gyXTQ=

> <s_epik_cmdline>
J2VwaWtfcHl0aG9uJywgJy1waCcsICc3LjAnLCAnLXRuJywgJzgnLCAnLW1hJywgJzIwMCcsICctbWV0YWxfYmluZGluZycsICctaW1hZScsICc8aW5maWxlLm1hZT4nLCAnLW9tYWUnLCAnPG91dGZpbGUubWFlPic=

> <r_lp_tautomer_probability>
0.999994

> <r_epik_Ionization_Penalty>
1.29113

> <r_epik_Ionization_Penalty_Charging>
1.29111

> <r_epik_Ionization_Penalty_Neutral>
1.88144e-05

> <r_epik_State_Penalty>
1.32676

> <r_epik_Charging_Adjusted_Penalty>
2.61787

> <i_epik_Tot_Q>
2

> <i_epik_Tot_abs_Q>
2

> <r_epik_Metal_State_Penalty>
1.40425

> <b_epik_Metal_Only>
0

> <s_lp_Force_Field>
OPLS_2005

> <r_lp_Energy>
74.3766

> <b_lp_Chiralities_Consistent>
1

> <s_lp_Variant>
AV-unprocessed.smi:1830-13

> <Gold.Version>
5.8.1

> <Gold.Id.Protein>
6NUR|6NUR_protein|mol2

> <Gold.PLP.Fitness>
49.9947

> <Gold.PLP.PLP>
-40.8244

> <Gold.PLP.part.hbond>
-2.1436

> <Gold.PLP.part.metal>
0.0000

> <Gold.PLP.part.buried>
-5.0061

> <Gold.PLP.part.nonpolar>
-34.8994

> <Gold.PLP.part.repulsive>
0.3680

> <Gold.PLP.ligand.clash>
0.0000

> <Gold.PLP.ligand.torsion>
0.5086

> <Gold.PLP.Chemscore.Hbond>
3.2584

> <Gold.PLP.Chemscore.CHOScore>
0.0000

> <Gold.PLP.Chemscore.Metal>
0.0000

> <Gold.Chemscore.Hbonds>
donor molecule, donor type, donor heavy atom, donor atom, acceptor molecule, acceptor atom, score
      L1  H     7    53       P1  7948  2.00
      P1  H  7997  8010       L1     1  0.36
      P1  H 10752 10763       L1    13  0.72

> <Gold.PLP.Chemscore.Internal.Correction>
0.4125

> <Gold.Rescore>
     Score         DG    S(hbond)    S(metal)    S(lipo)     H(rot)  DE(clash)    DE(int)     intcor
     17.06     -19.87       1.54        0.00     110.22       1.43       0.15       2.65       ----

> <Gold.Chemscore.Fitness>
17.0583

> <Gold.Chemscore.DG>
-19.8660

> <Gold.Chemscore.ZeroCoef>
-5.4800

> <Gold.Chemscore.Hbond>
1.5407

> <Gold.Chemscore.Metal>
0.0000

> <Gold.Chemscore.Lipo>
110.2156

> <Gold.Chemscore.Internal_Hbond>
0.0000

> <Gold.Chemscore.DEClash>
0.1550

> <Gold.Chemscore.DEInternal>
2.6527

> <Gold.Chemscore.Rot>
1.4278

> <Gold.Chemscore.Internal.Correction>
   9.000000E+99

> <Gold.Chemscore.Hbonds>
donor molecule, donor type, donor heavy atom, donor atom, acceptor molecule, acceptor atom, score
      L1  H     7    53       P1  7948  0.97
      P1  H  7997  8010       L1     1  0.03
      P1  H 10752 10763       L1    13  0.02

> <Gold.Chemscore.Hbond.Weighted>
-5.1458

> <Gold.Chemscore.Metal.Weighted>
-0.0000

> <Gold.Chemscore.Lipo.Weighted>
-12.8952

> <Gold.Chemscore.Internal_Hbond.Weighted>
0.0000

> <Gold.Chemscore.DEClash.Weighted>
0.1550

> <Gold.Chemscore.DEInternal.Weighted>
2.6527

> <Gold.Chemscore.Rot.Weighted>
3.6551

> <Gold.Chemscore.Internal.Correction.Weighted>
   9.000000E+99

> <Gold.Protein.RotatedTorsions>
[ 6907 6896 6895 6894 ] final -112.02 input  -60.11 | X-H torsion
[ 7974 7965 7964 7962 ] final  -99.90 input  175.53 | X-H torsion
[ 8008 7997 7996 7995 ] final   12.55 input   59.86 | X-H torsion
[ 10167 10162 10161 10158 ] final  113.21 input  -65.29 | X-H torsion
[ 10718 10713 10712 10709 ] final  179.27 input   66.30 | X-H torsion
[ 10763 10752 10751 10750 ] final   68.91 input  -60.55 | X-H torsion
[ 11005 11000 10999 10996 ] final  149.62 input  -57.11 | X-H torsion

> <Gold.Protein.ActiveResidues>
 VAL166  LYS551  ARG553  GLY616  TRP617  ASP618  TYR619  PRO620  LYS621  CYS622 
 ASP623  PHE694  ASN695  SER759  ASP760  ASP761  ALA762  ILE779  LEU786  VAL792 
 PHE793  MET794  SER795  GLU796  ALA797  LYS798  CYS799  TRP800  GLU811  SER814 

> <Gold.Protein.RotatedAtoms>
  150.7730  133.9150  159.3380 H   0  0  0  0  0  0  0  0  0  0  0  0  # atno 6907 bound_to 6896
  151.7031  135.0924  160.0264 H   0  0  0  0  0  0  0  0  0  0  0  0  # atno 6908 bound_to 6896
  152.3755  133.6437  159.6156 H   0  0  0  0  0  0  0  0  0  0  0  0  # atno 6909 bound_to 6896
  145.3016  140.9378  143.2820 H   0  0  0  0  0  0  0  0  0  0  0  0  # atno 7974 bound_to 7965
  154.8221  140.2885  155.5780 H   0  0  0  0  0  0  0  0  0  0  0  0  # atno 8008 bound_to 7997
  156.2998  140.2548  156.3061 H   0  0  0  0  0  0  0  0  0  0  0  0  # atno 8009 bound_to 7997
  154.9327  140.0383  157.2045 H   0  0  0  0  0  0  0  0  0  0  0  0  # atno 8010 bound_to 7997
  139.6478  144.7127  151.2108 H   0  0  0  0  0  0  0  0  0  0  0  0  # atno 10167 bound_to 10162
  156.8782  130.9807  151.3065 H   0  0  0  0  0  0  0  0  0  0  0  0  # atno 10718 bound_to 10713
  153.0259  135.5230  154.7207 H   0  0  0  0  0  0  0  0  0  0  0  0  # atno 10763 bound_to 10752
  154.6263  135.2895  155.0270 H   0  0  0  0  0  0  0  0  0  0  0  0  # atno 10764 bound_to 10752
  154.1239  135.6603  153.4961 H   0  0  0  0  0  0  0  0  0  0  0  0  # atno 10765 bound_to 10752
  140.1060  134.8954  157.1866 H   0  0  0  0  0  0  0  0  0  0  0  0  # atno 11005 bound_to 11000
  144.9089  139.4554  143.6596 LP  0  0  0  0  0  0  0  0  0  0  0  0  # atno 17320 bound_to 7965
  146.3150  139.7886  142.8990 LP  0  0  0  0  0  0  0  0  0  0  0  0  # atno 17321 bound_to 7965
  140.7523  143.6201  150.8521 LP  0  0  0  0  0  0  0  0  0  0  0  0  # atno 17342 bound_to 10162
  139.9846  143.5913  152.2931 LP  0  0  0  0  0  0  0  0  0  0  0  0  # atno 17343 bound_to 10162
  157.6156  130.8615  149.9022 LP  0  0  0  0  0  0  0  0  0  0  0  0  # atno 17370 bound_to 10713
  156.0691  130.3688  150.0815 LP  0  0  0  0  0  0  0  0  0  0  0  0  # atno 17371 bound_to 10713
  140.3155  134.2975  155.7257 LP  0  0  0  0  0  0  0  0  0  0  0  0  # atno 17394 bound_to 11000
  141.2118  133.7677  156.9837 LP  0  0  0  0  0  0  0  0  0  0  0  0  # atno 17395 bound_to 11000

$$$$
