AV-unprocessed.smi:897|AV-procd|sdf|4080|dock7
  -GOLD-   22720 1563D 1   1.00000     0.00000
 Structure written by MMmdl.
 35 37  0  0  0  0  0  0  0  0  1 V2000
  146.8191  141.5669  153.7117 C   0  0  0  0  0  0  0  0  0  0  0  0
  148.1229  141.1227  154.3407 C   0  0  0  0  0  0  0  0  0  0  0  0
  148.6564  139.8472  154.0786 C   0  0  0  0  0  0  0  0  0  0  0  0
  149.8739  139.4846  154.6893 C   0  0  0  0  0  0  0  0  0  0  0  0
  150.4582  138.1068  154.4154 C   0  0  0  0  0  0  0  0  0  0  0  0
  150.5143  140.4213  155.5421 C   0  0  0  0  0  0  0  0  0  0  0  0
  151.7814  140.0882  156.1904 C   0  0  0  0  0  0  0  0  0  0  0  0
  152.7840  139.8240  156.7040 N   0  0  0  0  0  0  0  0  0  0  0  0
  149.8953  141.6864  155.7419 C   0  0  0  0  0  0  0  0  0  0  0  0
  150.4891  142.6473  156.5813 N   0  0  0  0  0  0  0  0  0  0  0  0
  150.7041  142.3853  158.0014 C   0  0  1  0  0  0  0  0  0  0  0  0
  152.1780  142.1673  158.3515 C   0  0  0  0  0  0  0  0  0  0  0  0
  152.3896  143.1883  159.4783 C   0  0  1  0  0  0  0  0  0  0  0  0
  152.4681  144.6204  158.9339 C   0  0  0  0  0  0  0  0  0  0  0  0
  151.0133  144.8875  158.5530 C   0  0  0  0  0  0  0  0  0  0  0  0
  150.3361  143.5589  158.9316 C   0  0  2  0  0  0  0  0  0  0  0  0
  151.1022  143.2082  160.0718 O   0  0  0  0  0  0  0  0  0  0  0  0
  148.7231  142.0179  155.1501 N   0  0  0  0  0  0  0  0  0  0  0  0
  146.3318  140.7436  153.1885 H   0  0  0  0  0  0  0  0  0  0  0  0
  146.9995  142.3681  152.9948 H   0  0  0  0  0  0  0  0  0  0  0  0
  146.1338  141.9358  154.4755 H   0  0  0  0  0  0  0  0  0  0  0  0
  148.1409  139.1613  153.4221 H   0  0  0  0  0  0  0  0  0  0  0  0
  151.4447  138.1927  153.9586 H   0  0  0  0  0  0  0  0  0  0  0  0
  149.8249  137.5342  153.7372 H   0  0  0  0  0  0  0  0  0  0  0  0
  150.5528  137.5407  155.3424 H   0  0  0  0  0  0  0  0  0  0  0  0
  150.5000  143.6097  156.2757 H   0  0  0  0  0  0  0  0  0  0  0  0
  150.1444  141.4960  158.2950 H   0  0  0  0  0  0  0  0  0  0  0  0
  152.3324  141.1503  158.7135 H   0  0  0  0  0  0  0  0  0  0  0  0
  152.8596  142.3351  157.5162 H   0  0  0  0  0  0  0  0  0  0  0  0
  153.1982  142.9312  160.1630 H   0  0  0  0  0  0  0  0  0  0  0  0
  152.7934  145.3144  159.7099 H   0  0  0  0  0  0  0  0  0  0  0  0
  153.1512  144.7075  158.0883 H   0  0  0  0  0  0  0  0  0  0  0  0
  150.6101  145.7054  159.1511 H   0  0  0  0  0  0  0  0  0  0  0  0
  150.8885  145.1489  157.5020 H   0  0  0  0  0  0  0  0  0  0  0  0
  149.2675  143.6509  159.1279 H   0  0  0  0  0  0  0  0  0  0  0  0
  1  2  1  0  0  0  0
  1 19  1  0  0  0  0
  1 20  1  0  0  0  0
  1 21  1  0  0  0  0
  2 18  1  0  0  0  0
  2  3  2  0  0  0  0
  3  4  1  0  0  0  0
  3 22  1  0  0  0  0
  4  5  1  0  0  0  0
  4  6  2  0  0  0  0
  5 23  1  0  0  0  0
  5 24  1  0  0  0  0
  5 25  1  0  0  0  0
  6  7  1  0  0  0  0
  6  9  1  0  0  0  0
  7  8  3  0  0  0  0
  9 10  1  0  0  0  0
  9 18  2  0  0  0  0
 10 11  1  0  0  0  0
 10 26  1  0  0  0  0
 11 16  1  0  0  0  0
 11 12  1  0  0  0  0
 11 27  1  0  0  0  0
 12 13  1  0  0  0  0
 12 28  1  0  0  0  0
 12 29  1  0  0  0  0
 13 17  1  0  0  0  0
 13 14  1  0  0  0  0
 13 30  1  0  0  0  0
 14 15  1  0  0  0  0
 14 31  1  0  0  0  0
 14 32  1  0  0  0  0
 15 16  1  0  0  0  0
 15 33  1  0  0  0  0
 15 34  1  0  0  0  0
 16 17  1  0  0  0  0
 16 35  1  0  0  0  0
M  END
> <s_m_source_file>
AV-unprocessed.smi

> <i_m_source_file_index>
897

> <i_lp_mmshare_version>
43012

> <i_f3d_flags>
0

> <s_epik_input>
W0NIM11jMVtjSF1jKFtDSDNdKWMoQyNOKWMobjEpW05IXVtDQEhdKFtDSDJdW0NAQEhdMjMpW0NAQEhdKE8zKVtDSDJdW0NIMl0y

> <s_epik_cmdline>
J2VwaWtfcHl0aG9uJywgJy1waCcsICc3LjAnLCAnLXRuJywgJzgnLCAnLW1hJywgJzIwMCcsICctbWV0YWxfYmluZGluZycsICctaW1hZScsICc8aW5maWxlLm1hZT4nLCAnLW9tYWUnLCAnPG91dGZpbGUubWFlPic=

> <r_lp_tautomer_probability>
1

> <r_epik_Ionization_Penalty>
0.000502654

> <r_epik_Ionization_Penalty_Charging>
0

> <r_epik_Ionization_Penalty_Neutral>
0.000502654

> <r_epik_State_Penalty>
-0

> <r_epik_Charging_Adjusted_Penalty>
0

> <i_epik_Tot_Q>
0

> <i_epik_Tot_abs_Q>
0

> <r_epik_Metal_State_Penalty>
-0

> <b_epik_Metal_Only>
0

> <s_lp_Force_Field>
OPLS_2005

> <r_lp_Energy>
43.9226

> <b_lp_Chiralities_Consistent>
1

> <s_lp_Variant>
AV-unprocessed.smi:897-2

> <Gold.Version>
5.8.1

> <Gold.Id.Protein>
6NUR|6NUR_protein|mol2

> <Gold.PLP.Fitness>
42.3892

> <Gold.PLP.PLP>
-39.3044

> <Gold.PLP.part.hbond>
-2.9051

> <Gold.PLP.part.metal>
0.0000

> <Gold.PLP.part.buried>
-3.5990

> <Gold.PLP.part.nonpolar>
-34.6623

> <Gold.PLP.part.repulsive>
2.6544

> <Gold.PLP.ligand.clash>
0.0000

> <Gold.PLP.ligand.torsion>
0.7543

> <Gold.PLP.Chemscore.Hbond>
1.5278

> <Gold.PLP.Chemscore.CHOScore>
0.0000

> <Gold.PLP.Chemscore.Metal>
0.0000

> <Gold.Chemscore.Hbonds>
donor molecule, donor type, donor heavy atom, donor atom, acceptor molecule, acceptor atom, score
      L1  H    10    26       P1  8028  0.55
      P1  H  7997  8010       L1     8  1.00

> <Gold.PLP.Chemscore.Internal.Correction>
0.0101

> <Gold.Rescore>
     Score         DG    S(hbond)    S(metal)    S(lipo)     H(rot)  DE(clash)    DE(int)     intcor
     19.08     -19.87       1.79        0.00      93.75       1.00       0.12       0.67       ----

> <Gold.Chemscore.Fitness>
19.0797

> <Gold.Chemscore.DG>
-19.8718

> <Gold.Chemscore.ZeroCoef>
-5.4800

> <Gold.Chemscore.Hbond>
1.7913

> <Gold.Chemscore.Metal>
0.0000

> <Gold.Chemscore.Lipo>
93.7524

> <Gold.Chemscore.Internal_Hbond>
0.0000

> <Gold.Chemscore.DEClash>
0.1197

> <Gold.Chemscore.DEInternal>
0.6725

> <Gold.Chemscore.Rot>
1.0000

> <Gold.Chemscore.Internal.Correction>
   9.000000E+99

> <Gold.Chemscore.Hbonds>
donor molecule, donor type, donor heavy atom, donor atom, acceptor molecule, acceptor atom, score
      L1  H    10    26       P1  8028  0.51
      P1  H  7997  8010       L1     8  0.99

> <Gold.Chemscore.Hbond.Weighted>
-5.9828

> <Gold.Chemscore.Metal.Weighted>
-0.0000

> <Gold.Chemscore.Lipo.Weighted>
-10.9690

> <Gold.Chemscore.Internal_Hbond.Weighted>
0.0000

> <Gold.Chemscore.DEClash.Weighted>
0.1197

> <Gold.Chemscore.DEInternal.Weighted>
0.6725

> <Gold.Chemscore.Rot.Weighted>
2.5600

> <Gold.Chemscore.Internal.Correction.Weighted>
   9.000000E+99

> <Gold.Protein.RotatedTorsions>
[ 6907 6896 6895 6894 ] final  119.36 input  -60.11 | X-H torsion
[ 7974 7965 7964 7962 ] final  150.78 input  175.53 | X-H torsion
[ 8008 7997 7996 7995 ] final   66.02 input   59.86 | X-H torsion
[ 10167 10162 10161 10158 ] final   41.45 input  -65.29 | X-H torsion
[ 10718 10713 10712 10709 ] final  -55.81 input   66.30 | X-H torsion
[ 10763 10752 10751 10750 ] final -141.23 input  -60.55 | X-H torsion
[ 11005 11000 10999 10996 ] final   -4.31 input  -57.11 | X-H torsion

> <Gold.Protein.ActiveResidues>
 VAL166  LYS551  ARG553  GLY616  TRP617  ASP618  TYR619  PRO620  LYS621  CYS622 
 ASP623  PHE694  ASN695  SER759  ASP760  ASP761  ALA762  ILE779  LEU786  VAL792 
 PHE793  MET794  SER795  GLU796  ALA797  LYS798  CYS799  TRP800  GLU811  SER814 

> <Gold.Protein.RotatedAtoms>
  152.4478  133.7569  159.6724 H   0  0  0  0  0  0  0  0  0  0  0  0  # atno 6907 bound_to 6896
  150.8382  133.7969  159.3077 H   0  0  0  0  0  0  0  0  0  0  0  0  # atno 6908 bound_to 6896
  151.5602  135.1068  160.0022 H   0  0  0  0  0  0  0  0  0  0  0  0  # atno 6909 bound_to 6896
  144.8339  139.6452  143.6046 H   0  0  0  0  0  0  0  0  0  0  0  0  # atno 7974 bound_to 7965
  155.6708  140.3497  155.4818 H   0  0  0  0  0  0  0  0  0  0  0  0  # atno 8008 bound_to 7997
  155.9689  140.1152  157.0852 H   0  0  0  0  0  0  0  0  0  0  0  0  # atno 8009 bound_to 7997
  154.4161  140.1161  156.5266 H   0  0  0  0  0  0  0  0  0  0  0  0  # atno 8010 bound_to 7997
  140.3642  144.2189  150.6136 H   0  0  0  0  0  0  0  0  0  0  0  0  # atno 10167 bound_to 10162
  156.1338  130.4158  150.0221 H   0  0  0  0  0  0  0  0  0  0  0  0  # atno 10718 bound_to 10713
  154.8552  135.3530  154.5834 H   0  0  0  0  0  0  0  0  0  0  0  0  # atno 10763 bound_to 10752
  153.6445  135.6997  153.5235 H   0  0  0  0  0  0  0  0  0  0  0  0  # atno 10764 bound_to 10752
  153.2944  135.4225  155.1155 H   0  0  0  0  0  0  0  0  0  0  0  0  # atno 10765 bound_to 10752
  140.6788  133.9171  155.8542 H   0  0  0  0  0  0  0  0  0  0  0  0  # atno 11005 bound_to 11000
  146.2640  139.6476  142.9342 LP  0  0  0  0  0  0  0  0  0  0  0  0  # atno 17320 bound_to 7965
  145.4835  141.0438  143.2632 LP  0  0  0  0  0  0  0  0  0  0  0  0  # atno 17321 bound_to 7965
  140.5097  143.2294  151.8553 LP  0  0  0  0  0  0  0  0  0  0  0  0  # atno 17342 bound_to 10162
  139.4810  144.4963  151.9119 LP  0  0  0  0  0  0  0  0  0  0  0  0  # atno 17343 bound_to 10162
  156.8126  130.9330  151.3643 LP  0  0  0  0  0  0  0  0  0  0  0  0  # atno 17370 bound_to 10713
  157.6513  130.8887  149.9639 LP  0  0  0  0  0  0  0  0  0  0  0  0  # atno 17371 bound_to 10713
  141.0334  134.0724  157.3988 LP  0  0  0  0  0  0  0  0  0  0  0  0  # atno 17394 bound_to 11000
  139.8958  135.0143  156.7020 LP  0  0  0  0  0  0  0  0  0  0  0  0  # atno 17395 bound_to 11000

$$$$
