AV-unprocessed.smi:648|AV-procd|sdf|3172|dock3
  -GOLD-   22720 0 93D 1   1.00000     0.00000
 Structure written by MMmdl.
 46 47  0  0  0  0  0  0  0  0  2 V2000
  153.8925  141.4646  161.1347 C   0  0  0  0  0  0  0  0  0  0  0  0
  153.0999  142.0238  159.9438 C   0  0  2  0  0  0  0  0  0  0  0  0
  152.5359  143.4219  160.2632 C   0  0  0  0  0  0  0  0  0  0  0  0
  151.7330  144.0538  159.1008 C   0  0  0  0  0  0  0  0  0  0  0  0
  150.9668  145.2774  159.6492 C   0  0  0  0  0  0  0  0  0  0  0  0
  152.6820  144.5903  158.0046 C   0  0  0  0  0  0  0  0  0  0  0  0
  150.6819  143.0414  158.5533 C   0  0  0  0  0  0  0  0  0  0  0  0
  151.1379  141.5685  158.3193 C   0  0  2  0  0  0  0  0  0  0  0  0
  151.9691  141.4463  157.0127 C   0  0  0  0  0  0  0  0  0  0  0  0
  152.5445  140.1609  156.8736 O   0  0  0  0  0  0  0  0  0  0  0  0
  149.9261  140.7290  158.0835 N   0  3  0  0  0  0  0  0  0  0  0  0
  148.9215  141.1704  157.0877 C   0  0  0  0  0  0  0  0  0  0  0  0
  149.3457  140.7554  155.6718 C   0  0  0  0  0  0  0  0  0  0  0  0
  148.2778  140.9555  154.7120 N   0  0  0  0  0  0  0  0  0  0  0  0
  147.5799  142.0492  154.4015 C   0  0  0  0  0  0  0  0  0  0  0  0
  146.6679  141.8521  153.4598 N   0  0  0  0  0  0  0  0  0  0  0  0
  146.8696  140.5219  153.2208 C   0  0  0  0  0  0  0  0  0  0  0  0
  147.8241  139.9369  153.9451 N   0  0  0  0  0  0  0  0  0  0  0  0
  151.9524  141.0753  159.5490 C   0  0  0  0  0  0  0  0  0  0  0  0
  153.2602  141.3482  162.0156 H   0  0  0  0  0  0  0  0  0  0  0  0
  154.7174  142.1255  161.4027 H   0  0  0  0  0  0  0  0  0  0  0  0
  154.3182  140.4886  160.8995 H   0  0  0  0  0  0  0  0  0  0  0  0
  153.8026  142.1032  159.1159 H   0  0  0  0  0  0  0  0  0  0  0  0
  151.8922  143.3374  161.1405 H   0  0  0  0  0  0  0  0  0  0  0  0
  153.3465  144.0905  160.5570 H   0  0  0  0  0  0  0  0  0  0  0  0
  150.3853  145.7653  158.8657 H   0  0  0  0  0  0  0  0  0  0  0  0
  151.6463  146.0227  160.0647 H   0  0  0  0  0  0  0  0  0  0  0  0
  150.2736  144.9990  160.4438 H   0  0  0  0  0  0  0  0  0  0  0  0
  152.1322  144.8885  157.1113 H   0  0  0  0  0  0  0  0  0  0  0  0
  153.4471  143.8801  157.7062 H   0  0  0  0  0  0  0  0  0  0  0  0
  153.2248  145.4693  158.3546 H   0  0  0  0  0  0  0  0  0  0  0  0
  149.8684  143.0257  159.2771 H   0  0  0  0  0  0  0  0  0  0  0  0
  150.2294  143.4374  157.6430 H   0  0  0  0  0  0  0  0  0  0  0  0
  151.3441  141.6367  156.1395 H   0  0  0  0  0  0  0  0  0  0  0  0
  152.7898  142.1528  156.9667 H   0  0  0  0  0  0  0  0  0  0  0  0
  152.1093  139.5697  157.4697 H   0  0  0  0  0  0  0  0  0  0  0  0
  150.2434  139.8059  157.8249 H   0  0  0  0  0  0  0  0  0  0  0  0
  147.9568  140.7159  157.3149 H   0  0  0  0  0  0  0  0  0  0  0  0
  148.7884  142.2508  157.1248 H   0  0  0  0  0  0  0  0  0  0  0  0
  150.2142  141.3308  155.3476 H   0  0  0  0  0  0  0  0  0  0  0  0
  149.6355  139.7038  155.6533 H   0  0  0  0  0  0  0  0  0  0  0  0
  147.7428  143.0088  154.8702 H   0  0  0  0  0  0  0  0  0  0  0  0
  146.2965  139.9687  152.4914 H   0  0  0  0  0  0  0  0  0  0  0  0
  152.3402  140.0720  159.3701 H   0  0  0  0  0  0  0  0  0  0  0  0
  151.3073  140.9930  160.4233 H   0  0  0  0  0  0  0  0  0  0  0  0
  149.4466  140.6542  158.9699 H   0  0  0  0  0  0  0  0  0  0  0  0
  1  2  1  0  0  0  0
  1 20  1  0  0  0  0
  1 21  1  0  0  0  0
  1 22  1  0  0  0  0
  2 19  1  0  0  0  0
  2  3  1  0  0  0  0
  2 23  1  0  0  0  0
  3  4  1  0  0  0  0
  3 24  1  0  0  0  0
  3 25  1  0  0  0  0
  4  5  1  0  0  0  0
  4  6  1  0  0  0  0
  4  7  1  0  0  0  0
  5 26  1  0  0  0  0
  5 27  1  0  0  0  0
  5 28  1  0  0  0  0
  6 29  1  0  0  0  0
  6 30  1  0  0  0  0
  6 31  1  0  0  0  0
  7  8  1  0  0  0  0
  7 32  1  0  0  0  0
  7 33  1  0  0  0  0
  8  9  1  0  0  0  0
  8 11  1  0  0  0  0
  8 19  1  0  0  0  0
  9 10  1  0  0  0  0
  9 34  1  0  0  0  0
  9 35  1  0  0  0  0
 10 36  1  0  0  0  0
 11 12  1  0  0  0  0
 11 37  1  0  0  0  0
 11 46  1  0  0  0  0
 12 13  1  0  0  0  0
 12 38  1  0  0  0  0
 12 39  1  0  0  0  0
 13 14  1  0  0  0  0
 13 40  1  0  0  0  0
 13 41  1  0  0  0  0
 14 18  1  0  0  0  0
 14 15  1  0  0  0  0
 15 16  2  0  0  0  0
 15 42  1  0  0  0  0
 16 17  1  0  0  0  0
 17 18  2  0  0  0  0
 17 43  1  0  0  0  0
 19 44  1  0  0  0  0
 19 45  1  0  0  0  0
M  CHG  1  11   1
M  END
> <s_m_source_file>
AV-unprocessed.smi

> <i_m_source_file_index>
648

> <i_lp_mmshare_version>
43012

> <i_f3d_flags>
0

> <s_epik_input>
W0NIM11DMShbQ0gzXSlbQ0gyXVtDQEBIXShbQ0gzXSlbQ0gyXVtDQF0oW0NIMl0xKShbQ0gyXVtPSF0pW05IXVtDSDJdW0NIMl1uMltjSF1uW2NIXW4y

> <s_epik_cmdline>
J2VwaWtfcHl0aG9uJywgJy1waCcsICc3LjAnLCAnLXRuJywgJzgnLCAnLW1hJywgJzIwMCcsICctbWV0YWxfYmluZGluZycsICctaW1hZScsICc8aW5maWxlLm1hZT4nLCAnLW9tYWUnLCAnPG91dGZpbGUubWFlPic=

> <r_lp_tautomer_probability>
1

> <r_epik_Ionization_Penalty>
0.00942316

> <r_epik_Ionization_Penalty_Charging>
0.00942185

> <r_epik_Ionization_Penalty_Neutral>
1.31257e-06

> <r_epik_State_Penalty>
0.00715409

> <r_epik_Charging_Adjusted_Penalty>
0.0165759

> <i_epik_Tot_Q>
1

> <i_epik_Tot_abs_Q>
1

> <r_epik_Metal_State_Penalty>
0.00715563

> <b_epik_Metal_Only>
0

> <s_lp_Force_Field>
OPLS_2005

> <r_lp_Energy>
31.5344

> <b_lp_Chiralities_Consistent>
1

> <s_lp_Variant>
AV-unprocessed.smi:648-3

> <Gold.Version>
5.8.1

> <Gold.Id.Protein>
6NUR|6NUR_protein|mol2

> <Gold.PLP.Fitness>
46.1037

> <Gold.PLP.PLP>
-38.3164

> <Gold.PLP.part.hbond>
-1.0000

> <Gold.PLP.part.metal>
0.0000

> <Gold.PLP.part.buried>
-3.5197

> <Gold.PLP.part.nonpolar>
-34.3271

> <Gold.PLP.part.repulsive>
0.5275

> <Gold.PLP.ligand.clash>
0.0000

> <Gold.PLP.ligand.torsion>
0.3035

> <Gold.PLP.Chemscore.Hbond>
1.0000

> <Gold.PLP.Chemscore.CHOScore>
1.7594

> <Gold.PLP.Chemscore.Metal>
0.0000

> <Gold.Chemscore.Hbonds>
donor molecule, donor type, donor heavy atom, donor atom, acceptor molecule, acceptor atom, score
      P1  H  7997  8009       L1    10  1.00
      L1  C    15    42       P1  8028  1.00
      L1  C    17    43       P1 10175  0.49

> <Gold.PLP.Chemscore.Internal.Correction>
0.1160

> <Gold.Rescore>
     Score         DG    S(hbond)    S(metal)    S(lipo)     H(rot)  DE(clash)    DE(int)     intcor
     10.50     -12.54       0.96        0.00     102.30       3.17       0.43       1.61       ----

> <Gold.Chemscore.Fitness>
10.4968

> <Gold.Chemscore.DG>
-12.5396

> <Gold.Chemscore.ZeroCoef>
-5.4800

> <Gold.Chemscore.Hbond>
0.9635

> <Gold.Chemscore.Metal>
0.0000

> <Gold.Chemscore.Lipo>
102.3037

> <Gold.Chemscore.Internal_Hbond>
0.0000

> <Gold.Chemscore.DEClash>
0.4302

> <Gold.Chemscore.DEInternal>
1.6127

> <Gold.Chemscore.Rot>
3.1750

> <Gold.Chemscore.Internal.Correction>
   9.000000E+99

> <Gold.Chemscore.Hbonds>
donor molecule, donor type, donor heavy atom, donor atom, acceptor molecule, acceptor atom, score
      P1  H  7997  8009       L1    10  0.85

> <Gold.Chemscore.Hbond.Weighted>
-3.2180

> <Gold.Chemscore.Metal.Weighted>
-0.0000

> <Gold.Chemscore.Lipo.Weighted>
-11.9695

> <Gold.Chemscore.Internal_Hbond.Weighted>
0.0000

> <Gold.Chemscore.DEClash.Weighted>
0.4302

> <Gold.Chemscore.DEInternal.Weighted>
1.6127

> <Gold.Chemscore.Rot.Weighted>
8.1279

> <Gold.Chemscore.Internal.Correction.Weighted>
   9.000000E+99

> <Gold.Protein.RotatedTorsions>
[ 6907 6896 6895 6894 ] final  124.38 input  -60.11 | X-H torsion
[ 7974 7965 7964 7962 ] final  132.82 input  175.53 | X-H torsion
[ 8008 7997 7996 7995 ] final -163.16 input   59.86 | X-H torsion
[ 10167 10162 10161 10158 ] final  -61.31 input  -65.29 | X-H torsion
[ 10718 10713 10712 10709 ] final   86.94 input   66.30 | X-H torsion
[ 10763 10752 10751 10750 ] final -124.42 input  -60.55 | X-H torsion
[ 11005 11000 10999 10996 ] final  108.63 input  -57.11 | X-H torsion

> <Gold.Protein.ActiveResidues>
 VAL166  LYS551  ARG553  GLY616  TRP617  ASP618  TYR619  PRO620  LYS621  CYS622 
 ASP623  PHE694  ASN695  SER759  ASP760  ASP761  ALA762  ILE779  LEU786  VAL792 
 PHE793  MET794  SER795  GLU796  ALA797  LYS798  CYS799  TRP800  GLU811  SER814 

> <Gold.Protein.RotatedAtoms>
  152.4082  133.6922  159.6374 H   0  0  0  0  0  0  0  0  0  0  0  0  # atno 6907 bound_to 6896
  150.7965  133.8671  159.3257 H   0  0  0  0  0  0  0  0  0  0  0  0  # atno 6908 bound_to 6896
  151.6420  135.1013  160.0194 H   0  0  0  0  0  0  0  0  0  0  0  0  # atno 6909 bound_to 6896
  144.9928  139.4389  143.5331 H   0  0  0  0  0  0  0  0  0  0  0  0  # atno 7974 bound_to 7965
  155.8172  140.0914  157.1870 H   0  0  0  0  0  0  0  0  0  0  0  0  # atno 8008 bound_to 7997
  154.3979  140.1443  156.3517 H   0  0  0  0  0  0  0  0  0  0  0  0  # atno 8009 bound_to 7997
  155.8304  140.3443  155.5571 H   0  0  0  0  0  0  0  0  0  0  0  0  # atno 8010 bound_to 7997
  140.6014  143.2362  151.5920 H   0  0  0  0  0  0  0  0  0  0  0  0  # atno 10167 bound_to 10162
  157.6934  131.0235  150.3048 H   0  0  0  0  0  0  0  0  0  0  0  0  # atno 10718 bound_to 10713
  154.8723  135.4064  154.3103 H   0  0  0  0  0  0  0  0  0  0  0  0  # atno 10763 bound_to 10752
  153.3948  135.7016  153.6474 H   0  0  0  0  0  0  0  0  0  0  0  0  # atno 10764 bound_to 10752
  153.5242  135.3681  155.2617 H   0  0  0  0  0  0  0  0  0  0  0  0  # atno 10765 bound_to 10752
  139.8847  134.9436  156.6002 H   0  0  0  0  0  0  0  0  0  0  0  0  # atno 11005 bound_to 11000
  146.3435  139.9270  142.8759 LP  0  0  0  0  0  0  0  0  0  0  0  0  # atno 17320 bound_to 7965
  145.2261  140.9954  143.4017 LP  0  0  0  0  0  0  0  0  0  0  0  0  # atno 17321 bound_to 7965
  139.5294  144.2962  152.1111 LP  0  0  0  0  0  0  0  0  0  0  0  0  # atno 17342 bound_to 10162
  140.2144  144.4530  150.6371 LP  0  0  0  0  0  0  0  0  0  0  0  0  # atno 17343 bound_to 10162
  156.3558  130.3838  149.7291 LP  0  0  0  0  0  0  0  0  0  0  0  0  # atno 17370 bound_to 10713
  156.4754  130.8016  151.3032 LP  0  0  0  0  0  0  0  0  0  0  0  0  # atno 17371 bound_to 10713
  140.7889  133.8598  155.8630 LP  0  0  0  0  0  0  0  0  0  0  0  0  # atno 17394 bound_to 11000
  140.9694  134.1551  157.4589 LP  0  0  0  0  0  0  0  0  0  0  0  0  # atno 17395 bound_to 11000

$$$$
