AV-unprocessed.smi:870|AV-procd|sdf|4007|dock1
  -GOLD-   22720 1493D 1   1.00000     0.00000
 Structure written by MMmdl.
 46 48  0  0  0  0  0  0  0  0  1 V2000
  150.7725  136.5608  155.8091 C   0  0  0  0  0  0  0  0  0  0  0  0
  151.5481  136.8598  154.6625 O   0  0  0  0  0  0  0  0  0  0  0  0
  151.8879  138.2358  154.5825 C   0  0  0  0  0  0  0  0  0  0  0  0
  150.6187  139.0382  154.5294 C   0  0  0  0  0  0  0  0  0  0  0  0
  149.5984  138.7363  153.7224 N   0  0  0  0  0  0  0  0  0  0  0  0
  148.6739  139.7190  154.0147 C   0  0  0  0  0  0  0  0  0  0  0  0
  147.3813  139.9495  153.4919 C   0  0  0  0  0  0  0  0  0  0  0  0
  146.6076  141.0343  153.9543 C   0  0  0  0  0  0  0  0  0  0  0  0
  147.1138  141.9017  154.9441 C   0  0  0  0  0  0  0  0  0  0  0  0
  148.3993  141.6893  155.4782 C   0  0  0  0  0  0  0  0  0  0  0  0
  149.1676  140.6054  155.0124 C   0  0  0  0  0  0  0  0  0  0  0  0
  150.4376  140.1276  155.3187 N   0  0  0  0  0  0  0  0  0  0  0  0
  151.3521  140.7018  156.2975 C   0  0  0  0  0  0  0  0  0  0  0  0
  151.7169  139.7110  157.4214 C   0  0  2  0  0  0  0  0  0  0  0  0
  150.5332  139.2885  158.0699 O   0  0  0  0  0  0  0  0  0  0  0  0
  152.6485  140.3474  158.4652 C   0  0  0  0  0  0  0  0  0  0  0  0
  152.5385  141.7616  158.3769 O   0  0  0  0  0  0  0  0  0  0  0  0
  152.4106  142.4876  159.5434 C   0  0  0  0  0  0  0  0  0  0  0  0
  152.6638  141.9557  160.8340 C   0  0  0  0  0  0  0  0  0  0  0  0
  152.5103  142.7569  161.9814 C   0  0  0  0  0  0  0  0  0  0  0  0
  152.1031  144.0970  161.8572 C   0  0  0  0  0  0  0  0  0  0  0  0
  151.8492  144.6357  160.5829 C   0  0  0  0  0  0  0  0  0  0  0  0
  152.0019  143.8374  159.4298 C   0  0  0  0  0  0  0  0  0  0  0  0
  151.7226  144.4345  158.0631 C   0  0  0  0  0  0  0  0  0  0  0  0
  150.5344  135.4974  155.8233 H   0  0  0  0  0  0  0  0  0  0  0  0
  149.8339  137.1161  155.8058 H   0  0  0  0  0  0  0  0  0  0  0  0
  151.3162  136.7968  156.7246 H   0  0  0  0  0  0  0  0  0  0  0  0
  152.4691  138.5372  155.4552 H   0  0  0  0  0  0  0  0  0  0  0  0
  152.4802  138.4266  153.6869 H   0  0  0  0  0  0  0  0  0  0  0  0
  146.9850  139.2903  152.7338 H   0  0  0  0  0  0  0  0  0  0  0  0
  145.6210  141.2015  153.5475 H   0  0  0  0  0  0  0  0  0  0  0  0
  146.5149  142.7303  155.2926 H   0  0  0  0  0  0  0  0  0  0  0  0
  148.7905  142.3522  156.2356 H   0  0  0  0  0  0  0  0  0  0  0  0
  152.2548  141.0074  155.7669 H   0  0  0  0  0  0  0  0  0  0  0  0
  150.9256  141.6147  156.7131 H   0  0  0  0  0  0  0  0  0  0  0  0
  152.2055  138.8403  156.9819 H   0  0  0  0  0  0  0  0  0  0  0  0
  150.0621  138.7104  157.4895 H   0  0  0  0  0  0  0  0  0  0  0  0
  152.3317  140.0414  159.4637 H   0  0  0  0  0  0  0  0  0  0  0  0
  153.6773  140.0112  158.3232 H   0  0  0  0  0  0  0  0  0  0  0  0
  152.9771  140.9323  160.9729 H   0  0  0  0  0  0  0  0  0  0  0  0
  152.7053  142.3413  162.9591 H   0  0  0  0  0  0  0  0  0  0  0  0
  151.9851  144.7110  162.7378 H   0  0  0  0  0  0  0  0  0  0  0  0
  151.5360  145.6659  160.4954 H   0  0  0  0  0  0  0  0  0  0  0  0
  151.4592  145.4902  158.1341 H   0  0  0  0  0  0  0  0  0  0  0  0
  150.8957  143.9100  157.5836 H   0  0  0  0  0  0  0  0  0  0  0  0
  152.6020  144.3480  157.4244 H   0  0  0  0  0  0  0  0  0  0  0  0
  1  2  1  0  0  0  0
  1 25  1  0  0  0  0
  1 26  1  0  0  0  0
  1 27  1  0  0  0  0
  2  3  1  0  0  0  0
  3  4  1  0  0  0  0
  3 28  1  0  0  0  0
  3 29  1  0  0  0  0
  4 12  1  0  0  0  0
  4  5  2  0  0  0  0
  5  6  1  0  0  0  0
  6 11  2  0  0  0  0
  6  7  1  0  0  0  0
  7  8  2  0  0  0  0
  7 30  1  0  0  0  0
  8  9  1  0  0  0  0
  8 31  1  0  0  0  0
  9 10  2  0  0  0  0
  9 32  1  0  0  0  0
 10 11  1  0  0  0  0
 10 33  1  0  0  0  0
 11 12  1  0  0  0  0
 12 13  1  0  0  0  0
 13 14  1  0  0  0  0
 13 34  1  0  0  0  0
 13 35  1  0  0  0  0
 14 15  1  0  0  0  0
 14 16  1  0  0  0  0
 14 36  1  0  0  0  0
 15 37  1  0  0  0  0
 16 17  1  0  0  0  0
 16 38  1  0  0  0  0
 16 39  1  0  0  0  0
 17 18  1  0  0  0  0
 18 23  1  0  0  0  0
 18 19  2  0  0  0  0
 19 20  1  0  0  0  0
 19 40  1  0  0  0  0
 20 21  2  0  0  0  0
 20 41  1  0  0  0  0
 21 22  1  0  0  0  0
 21 42  1  0  0  0  0
 22 23  2  0  0  0  0
 22 43  1  0  0  0  0
 23 24  1  0  0  0  0
 24 44  1  0  0  0  0
 24 45  1  0  0  0  0
 24 46  1  0  0  0  0
M  END
> <s_m_source_file>
AV-unprocessed.smi

> <i_m_source_file_index>
870

> <i_lp_mmshare_version>
43012

> <i_f3d_flags>
0

> <s_epik_input>
W2NIXTFbY0hdW2NIXVtjSF1jKGMxMiluKGMobjIpW0NIMl1PW0NIM10pW0NIMl1bQ0BIXShbT0hdKVtDSDJdT2MzW2NIXVtjSF1bY0hdW2NIXWMzW0NIM10=

> <s_epik_cmdline>
J2VwaWtfcHl0aG9uJywgJy1waCcsICc3LjAnLCAnLXRuJywgJzgnLCAnLW1hJywgJzIwMCcsICctbWV0YWxfYmluZGluZycsICctaW1hZScsICc8aW5maWxlLm1hZT4nLCAnLW9tYWUnLCAnPG91dGZpbGUubWFlPic=

> <r_lp_tautomer_probability>
1

> <r_epik_Ionization_Penalty>
0.0447032

> <r_epik_Ionization_Penalty_Charging>
0

> <r_epik_Ionization_Penalty_Neutral>
0.0447032

> <r_epik_State_Penalty>
0.0379025

> <r_epik_Charging_Adjusted_Penalty>
0.0379025

> <i_epik_Tot_Q>
0

> <i_epik_Tot_abs_Q>
0

> <r_epik_Metal_State_Penalty>
3.91398e-05

> <b_epik_Metal_Only>
0

> <s_lp_Force_Field>
OPLS_2005

> <r_lp_Energy>
17.6925

> <b_lp_Chiralities_Consistent>
1

> <s_lp_Variant>
AV-unprocessed.smi:870-1

> <Gold.Version>
5.8.1

> <Gold.Id.Protein>
6NUR|6NUR_protein|mol2

> <Gold.PLP.Fitness>
54.8586

> <Gold.PLP.PLP>
-53.9583

> <Gold.PLP.part.hbond>
-1.0000

> <Gold.PLP.part.metal>
0.0000

> <Gold.PLP.part.buried>
-0.5254

> <Gold.PLP.part.nonpolar>
-53.2282

> <Gold.PLP.part.repulsive>
1.5067

> <Gold.PLP.ligand.clash>
0.0000

> <Gold.PLP.ligand.torsion>
1.1987

> <Gold.PLP.Chemscore.Hbond>
1.0000

> <Gold.PLP.Chemscore.CHOScore>
0.0000

> <Gold.PLP.Chemscore.Metal>
0.0000

> <Gold.Chemscore.Hbonds>
donor molecule, donor type, donor heavy atom, donor atom, acceptor molecule, acceptor atom, score
      P1  H 10752 10765       L1     2  1.00

> <Gold.PLP.Chemscore.Internal.Correction>
0.2976

> <Gold.Rescore>
     Score         DG    S(hbond)    S(metal)    S(lipo)     H(rot)  DE(clash)    DE(int)     intcor
     17.34     -20.18       0.86        0.00     152.76       2.36       1.49       1.35       ----

> <Gold.Chemscore.Fitness>
17.3355

> <Gold.Chemscore.DG>
-20.1770

> <Gold.Chemscore.ZeroCoef>
-5.4800

> <Gold.Chemscore.Hbond>
0.8569

> <Gold.Chemscore.Metal>
0.0000

> <Gold.Chemscore.Lipo>
152.7595

> <Gold.Chemscore.Internal_Hbond>
0.0000

> <Gold.Chemscore.DEClash>
1.4947

> <Gold.Chemscore.DEInternal>
1.3468

> <Gold.Chemscore.Rot>
2.3585

> <Gold.Chemscore.Internal.Correction>
   9.000000E+99

> <Gold.Chemscore.Hbonds>
donor molecule, donor type, donor heavy atom, donor atom, acceptor molecule, acceptor atom, score
      P1  H 10752 10765       L1     2  0.85

> <Gold.Chemscore.Hbond.Weighted>
-2.8620

> <Gold.Chemscore.Metal.Weighted>
-0.0000

> <Gold.Chemscore.Lipo.Weighted>
-17.8729

> <Gold.Chemscore.Internal_Hbond.Weighted>
0.0000

> <Gold.Chemscore.DEClash.Weighted>
1.4947

> <Gold.Chemscore.DEInternal.Weighted>
1.3468

> <Gold.Chemscore.Rot.Weighted>
6.0378

> <Gold.Chemscore.Internal.Correction.Weighted>
   9.000000E+99

> <Gold.Protein.RotatedTorsions>
[ 6907 6896 6895 6894 ] final  -86.30 input  -60.11 | X-H torsion
[ 7974 7965 7964 7962 ] final   60.72 input  175.53 | X-H torsion
[ 8008 7997 7996 7995 ] final -171.91 input   59.86 | X-H torsion
[ 10167 10162 10161 10158 ] final   14.34 input  -65.29 | X-H torsion
[ 10718 10713 10712 10709 ] final  154.66 input   66.30 | X-H torsion
[ 10763 10752 10751 10750 ] final  159.41 input  -60.55 | X-H torsion
[ 11005 11000 10999 10996 ] final -174.61 input  -57.11 | X-H torsion

> <Gold.Protein.ActiveResidues>
 VAL166  LYS551  ARG553  GLY616  TRP617  ASP618  TYR619  PRO620  LYS621  CYS622 
 ASP623  PHE694  ASN695  SER759  ASP760  ASP761  ALA762  ILE779  LEU786  VAL792 
 PHE793  MET794  SER795  GLU796  ALA797  LYS798  CYS799  TRP800  GLU811  SER814 

> <Gold.Protein.RotatedAtoms>
  150.6867  134.3072  159.4730 H   0  0  0  0  0  0  0  0  0  0  0  0  # atno 6907 bound_to 6896
  152.0962  134.9371  160.0580 H   0  0  0  0  0  0  0  0  0  0  0  0  # atno 6908 bound_to 6896
  152.0667  133.4053  159.4478 H   0  0  0  0  0  0  0  0  0  0  0  0  # atno 6909 bound_to 6896
  145.8928  139.3524  143.0639 H   0  0  0  0  0  0  0  0  0  0  0  0  # atno 7974 bound_to 7965
  155.9377  140.1103  157.1081 H   0  0  0  0  0  0  0  0  0  0  0  0  # atno 8008 bound_to 7997
  154.4083  140.1225  156.4952 H   0  0  0  0  0  0  0  0  0  0  0  0  # atno 8009 bound_to 7997
  155.7001  140.3472  155.4931 H   0  0  0  0  0  0  0  0  0  0  0  0  # atno 8010 bound_to 7997
  140.5942  143.8735  150.6902 H   0  0  0  0  0  0  0  0  0  0  0  0  # atno 10167 bound_to 10162
  157.2287  131.0734  151.1867 H   0  0  0  0  0  0  0  0  0  0  0  0  # atno 10718 bound_to 10713
  154.2314  135.2778  155.2888 H   0  0  0  0  0  0  0  0  0  0  0  0  # atno 10763 bound_to 10752
  154.5621  135.5644  153.7020 H   0  0  0  0  0  0  0  0  0  0  0  0  # atno 10764 bound_to 10752
  153.0019  135.6300  154.2456 H   0  0  0  0  0  0  0  0  0  0  0  0  # atno 10765 bound_to 10752
  140.4726  134.6151  157.4888 H   0  0  0  0  0  0  0  0  0  0  0  0  # atno 11005 bound_to 11000
  145.8887  140.9317  143.0563 LP  0  0  0  0  0  0  0  0  0  0  0  0  # atno 17320 bound_to 7965
  144.6731  140.0876  143.7466 LP  0  0  0  0  0  0  0  0  0  0  0  0  # atno 17321 bound_to 7965
  140.2265  143.3768  152.1600 LP  0  0  0  0  0  0  0  0  0  0  0  0  # atno 17342 bound_to 10162
  139.5247  144.7087  151.5274 LP  0  0  0  0  0  0  0  0  0  0  0  0  # atno 17343 bound_to 10162
  157.3500  130.7077  149.6435 LP  0  0  0  0  0  0  0  0  0  0  0  0  # atno 17370 bound_to 10713
  155.9677  130.4255  150.4657 LP  0  0  0  0  0  0  0  0  0  0  0  0  # atno 17371 bound_to 10713
  139.9875  134.7037  155.9747 LP  0  0  0  0  0  0  0  0  0  0  0  0  # atno 17394 bound_to 11000
  141.1569  133.6542  156.4192 LP  0  0  0  0  0  0  0  0  0  0  0  0  # atno 17395 bound_to 11000

$$$$
