AV-unprocessed.smi:55|AV-procd|sdf|561|dock4
  -GOLD-   2262016463D 1   1.00000     0.00000
 Structure written by MMmdl.
 31 32  0  0  0  0  0  0  0  0  1 V2000
  152.3326  144.9030  158.3698 C   0  0  0  0  0  0  0  0  0  0  0  0
  151.9414  143.4427  158.2155 C   0  0  0  0  0  0  0  0  0  0  0  0
  151.3094  142.9717  157.1105 C   0  0  0  0  0  0  0  0  0  0  0  0
  150.9370  141.6461  156.9392 N   0  0  0  0  0  0  0  0  0  0  0  0
  150.2132  141.2124  155.6845 C   0  0  2  0  0  0  0  0  0  0  0  0
  148.9578  140.3986  156.0187 C   0  0  0  0  0  0  0  0  0  0  0  0
  149.3449  138.9991  155.5750 C   0  0  1  0  0  0  0  0  0  0  0  0
  148.2170  138.2826  155.1155 O   0  0  0  0  0  0  0  0  0  0  0  0
  150.3599  139.2677  154.4605 C   0  0  2  0  0  0  0  0  0  0  0  0
  151.3321  138.1023  154.2226 C   0  0  0  0  0  0  0  0  0  0  0  0
  150.6180  136.8889  154.1213 O   0  0  0  0  0  0  0  0  0  0  0  0
  151.0732  140.4006  154.9449 O   0  0  0  0  0  0  0  0  0  0  0  0
  151.2088  140.7149  157.9645 C   0  0  0  0  0  0  0  0  0  0  0  0
  150.9119  139.5231  157.8917 O   0  0  0  0  0  0  0  0  0  0  0  0
  151.8580  141.1979  159.0997 N   0  0  0  0  0  0  0  0  0  0  0  0
  152.2573  142.5202  159.3092 C   0  0  0  0  0  0  0  0  0  0  0  0
  152.8274  142.8240  160.3559 O   0  0  0  0  0  0  0  0  0  0  0  0
  149.9863  142.1004  155.0939 H   0  0  0  0  0  0  0  0  0  0  0  0
  149.8116  138.4600  156.4002 H   0  0  0  0  0  0  0  0  0  0  0  0
  149.8350  139.5429  153.5433 H   0  0  0  0  0  0  0  0  0  0  0  0
  152.0566  140.5344  159.8342 H   0  0  0  0  0  0  0  0  0  0  0  0
  152.0571  145.4903  157.4936 H   0  0  0  0  0  0  0  0  0  0  0  0
  153.4101  144.9969  158.5090 H   0  0  0  0  0  0  0  0  0  0  0  0
  151.8351  145.3407  159.2360 H   0  0  0  0  0  0  0  0  0  0  0  0
  151.0787  143.6710  156.3208 H   0  0  0  0  0  0  0  0  0  0  0  0
  148.6894  140.4633  157.0739 H   0  0  0  0  0  0  0  0  0  0  0  0
  148.1316  140.7908  155.4234 H   0  0  0  0  0  0  0  0  0  0  0  0
  147.4603  138.5620  155.6080 H   0  0  0  0  0  0  0  0  0  0  0  0
  151.9361  138.2654  153.3295 H   0  0  0  0  0  0  0  0  0  0  0  0
  152.0179  138.0072  155.0650 H   0  0  0  0  0  0  0  0  0  0  0  0
  149.9879  136.9686  153.4214 H   0  0  0  0  0  0  0  0  0  0  0  0
  1  2  1  0  0  0  0
  1 22  1  0  0  0  0
  1 23  1  0  0  0  0
  1 24  1  0  0  0  0
  2 16  1  0  0  0  0
  2  3  2  0  0  0  0
  3  4  1  0  0  0  0
  3 25  1  0  0  0  0
  4  5  1  0  0  0  0
  4 13  1  0  0  0  0
  5 18  1  0  0  0  0
  5 12  1  0  0  0  0
  5  6  1  0  0  0  0
  6  7  1  0  0  0  0
  6 26  1  0  0  0  0
  6 27  1  0  0  0  0
  7 19  1  0  0  0  0
  7  8  1  0  0  0  0
  7  9  1  0  0  0  0
  8 28  1  0  0  0  0
  9 20  1  0  0  0  0
  9 10  1  0  0  0  0
  9 12  1  0  0  0  0
 10 11  1  0  0  0  0
 10 29  1  0  0  0  0
 10 30  1  0  0  0  0
 11 31  1  0  0  0  0
 13 14  2  0  0  0  0
 13 15  1  0  0  0  0
 15 21  1  0  0  0  0
 15 16  1  0  0  0  0
 16 17  2  0  0  0  0
M  END
> <s_m_source_file>
AV-unprocessed.smi

> <i_m_source_file_index>
55

> <i_lp_mmshare_version>
43012

> <i_f3d_flags>
0

> <s_epik_input>
Tz1jMVtuSF1jKD1PKW4oW2NIXWMxW0NIM10pW0NAQEhdMltDSDJdW0NAQEhdKFtPSF0pW0NAQEhdKE8yKVtDSDJdW09IXQ==

> <s_epik_cmdline>
J2VwaWtfcHl0aG9uJywgJy1waCcsICc3LjAnLCAnLXRuJywgJzgnLCAnLW1hJywgJzIwMCcsICctbWV0YWxfYmluZGluZycsICctaW1hZScsICc8aW5maWxlLm1hZT4nLCAnLW9tYWUnLCAnPG91dGZpbGUubWFlPic=

> <r_lp_tautomer_probability>
0.999537

> <r_epik_Ionization_Penalty>
0.00121888

> <r_epik_Ionization_Penalty_Charging>
0.00121876

> <r_epik_Ionization_Penalty_Neutral>
1.19946e-07

> <r_epik_State_Penalty>
0.000805124

> <r_epik_Charging_Adjusted_Penalty>
0.00202389

> <i_epik_Tot_Q>
0

> <i_epik_Tot_abs_Q>
0

> <r_epik_Metal_State_Penalty>
0.662472

> <b_epik_Metal_Only>
0

> <s_epik_Chemistry_Notes>
This compound contains an acetal/aminal-like group ( X-CH(R)-Y where X, Y are N, S, or O) that may be acid/base labile, releasing an aldehyde.

> <s_lp_Force_Field>
OPLS_2005

> <r_lp_Energy>
24.9707

> <b_lp_Chiralities_Consistent>
1

> <s_lp_Variant>
AV-unprocessed.smi:55-1

> <Gold.Version>
5.8.1

> <Gold.Id.Protein>
6NUR|6NUR_protein|mol2

> <Gold.PLP.Fitness>
40.2878

> <Gold.PLP.PLP>
-32.3127

> <Gold.PLP.part.hbond>
-3.0000

> <Gold.PLP.part.metal>
0.0000

> <Gold.PLP.part.buried>
-4.4640

> <Gold.PLP.part.nonpolar>
-24.4115

> <Gold.PLP.part.repulsive>
0.2012

> <Gold.PLP.ligand.clash>
0.0000

> <Gold.PLP.ligand.torsion>
0.2938

> <Gold.PLP.Chemscore.Hbond>
1.8500

> <Gold.PLP.Chemscore.CHOScore>
1.0000

> <Gold.PLP.Chemscore.Metal>
0.0000

> <Gold.Chemscore.Hbonds>
donor molecule, donor type, donor heavy atom, donor atom, acceptor molecule, acceptor atom, score
      L1  H    11    31       P1  7948  1.00
      P1  H  7989  7998       L1    12  0.80
      L1  C     3    25       P1  8028  1.00

> <Gold.PLP.Chemscore.Internal.Correction>
0.0127

> <Gold.Rescore>
     Score         DG    S(hbond)    S(metal)    S(lipo)     H(rot)  DE(clash)    DE(int)     intcor
      6.82     -10.80       1.52        0.00      61.85       2.73       0.39       3.59       ----

> <Gold.Chemscore.Fitness>
6.8194

> <Gold.Chemscore.DG>
-10.8049

> <Gold.Chemscore.ZeroCoef>
-5.4800

> <Gold.Chemscore.Hbond>
1.5167

> <Gold.Chemscore.Metal>
0.0000

> <Gold.Chemscore.Lipo>
61.8470

> <Gold.Chemscore.Internal_Hbond>
0.0000

> <Gold.Chemscore.DEClash>
0.3930

> <Gold.Chemscore.DEInternal>
3.5926

> <Gold.Chemscore.Rot>
2.7253

> <Gold.Chemscore.Internal.Correction>
   9.000000E+99

> <Gold.Chemscore.Hbonds>
donor molecule, donor type, donor heavy atom, donor atom, acceptor molecule, acceptor atom, score
      L1  H    11    31       P1  7948  0.24
      P1  H  7989  7998       L1    12  0.11

> <Gold.Chemscore.Hbond.Weighted>
-5.0657

> <Gold.Chemscore.Metal.Weighted>
-0.0000

> <Gold.Chemscore.Lipo.Weighted>
-7.2361

> <Gold.Chemscore.Internal_Hbond.Weighted>
0.0000

> <Gold.Chemscore.DEClash.Weighted>
0.3930

> <Gold.Chemscore.DEInternal.Weighted>
3.5926

> <Gold.Chemscore.Rot.Weighted>
6.9769

> <Gold.Chemscore.Internal.Correction.Weighted>
   9.000000E+99

> <Gold.Protein.RotatedTorsions>
[ 6907 6896 6895 6894 ] final -171.19 input  -60.11 | X-H torsion
[ 7974 7965 7964 7962 ] final  -93.08 input  175.53 | X-H torsion
[ 8008 7997 7996 7995 ] final   75.66 input   59.86 | X-H torsion
[ 10167 10162 10161 10158 ] final  164.95 input  -65.29 | X-H torsion
[ 10718 10713 10712 10709 ] final   94.94 input   66.30 | X-H torsion
[ 10763 10752 10751 10750 ] final   37.42 input  -60.55 | X-H torsion
[ 11005 11000 10999 10996 ] final  136.41 input  -57.11 | X-H torsion

> <Gold.Protein.ActiveResidues>
 VAL166  LYS551  ARG553  GLY616  TRP617  ASP618  TYR619  PRO620  LYS621  CYS622 
 ASP623  PHE694  ASN695  SER759  ASP760  ASP761  ALA762  ILE779  LEU786  VAL792 
 PHE793  MET794  SER795  GLU796  ALA797  LYS798  CYS799  TRP800  GLU811  SER814 

> <Gold.Protein.RotatedAtoms>
  151.5198  133.3469  159.2899 H   0  0  0  0  0  0  0  0  0  0  0  0  # atno 6907 bound_to 6896
  150.8660  134.8025  159.7130 H   0  0  0  0  0  0  0  0  0  0  0  0  # atno 6908 bound_to 6896
  152.4664  134.5074  159.9795 H   0  0  0  0  0  0  0  0  0  0  0  0  # atno 6909 bound_to 6896
  145.3913  140.9528  143.2339 H   0  0  0  0  0  0  0  0  0  0  0  0  # atno 7974 bound_to 7965
  155.8160  140.3471  155.5486 H   0  0  0  0  0  0  0  0  0  0  0  0  # atno 8008 bound_to 7997
  155.8391  140.0939  157.1766 H   0  0  0  0  0  0  0  0  0  0  0  0  # atno 8009 bound_to 7997
  154.4005  140.1398  156.3694 H   0  0  0  0  0  0  0  0  0  0  0  0  # atno 8010 bound_to 7997
  139.4897  144.4182  151.9218 H   0  0  0  0  0  0  0  0  0  0  0  0  # atno 10167 bound_to 10162
  157.6943  131.0529  150.4263 H   0  0  0  0  0  0  0  0  0  0  0  0  # atno 10718 bound_to 10713
  153.0038  135.6278  154.2142 H   0  0  0  0  0  0  0  0  0  0  0  0  # atno 10763 bound_to 10752
  154.1885  135.2810  155.3031 H   0  0  0  0  0  0  0  0  0  0  0  0  # atno 10764 bound_to 10752
  154.5778  135.5657  153.7216 H   0  0  0  0  0  0  0  0  0  0  0  0  # atno 10765 bound_to 10752
  140.0044  134.9465  157.0143 H   0  0  0  0  0  0  0  0  0  0  0  0  # atno 11005 bound_to 11000
  144.8438  139.5429  143.6888 LP  0  0  0  0  0  0  0  0  0  0  0  0  # atno 17320 bound_to 7965
  146.2796  139.6842  142.9238 LP  0  0  0  0  0  0  0  0  0  0  0  0  # atno 17321 bound_to 7965
  140.3625  144.2955  150.5931 LP  0  0  0  0  0  0  0  0  0  0  0  0  # atno 17342 bound_to 10162
  140.5390  143.2227  151.8116 LP  0  0  0  0  0  0  0  0  0  0  0  0  # atno 17343 bound_to 10162
  156.4634  130.4037  149.6562 LP  0  0  0  0  0  0  0  0  0  0  0  0  # atno 17370 bound_to 10713
  156.3669  130.7510  151.2489 LP  0  0  0  0  0  0  0  0  0  0  0  0  # atno 17371 bound_to 10713
  140.4668  134.1427  155.7198 LP  0  0  0  0  0  0  0  0  0  0  0  0  # atno 17394 bound_to 11000
  141.1666  133.8691  157.1696 LP  0  0  0  0  0  0  0  0  0  0  0  0  # atno 17395 bound_to 11000

$$$$
