AV-unprocessed.smi:618|AV-procd|sdf|3083|dock3
  -GOLD-   22720 0 03D 1   1.00000     0.00000
 Structure written by MMmdl.
 40 42  0  0  0  0  0  0  0  0  1 V2000
  145.7520  138.2954  154.4389 O   0  0  0  0  0  0  0  0  0  0  0  0
  146.6928  138.0785  153.6759 C   0  0  0  0  0  0  0  0  0  0  0  0
  147.8904  138.6701  153.7866 N   0  0  0  0  0  0  0  0  0  0  0  0
  148.2731  139.6167  154.8290 C   0  0  0  0  0  0  0  0  0  0  0  0
  149.4685  140.4867  154.3864 C   0  0  1  0  0  0  0  0  0  0  0  0
  149.7061  141.6996  155.3179 C   0  0  0  0  0  0  0  0  0  0  0  0
  150.3282  141.2810  156.5597 N   0  0  0  0  0  0  0  0  0  0  0  0
  150.6937  142.3260  157.4877 C   0  0  0  0  0  0  0  0  0  0  0  0
  151.6698  141.6452  158.4627 C   0  0  0  0  0  0  0  0  0  0  0  0
  152.1717  140.4007  157.6982 C   0  0  0  0  0  0  0  0  0  0  0  0
  151.5616  140.5876  156.3077 C   0  0  1  0  0  0  0  0  0  0  0  0
  151.3122  139.3262  155.4723 C   0  0  0  0  0  0  0  0  0  0  0  0
  150.6712  139.7114  154.2516 O   0  0  0  0  0  0  0  0  0  0  0  0
  146.6734  137.2162  152.6454 N   0  0  0  0  0  0  0  0  0  0  0  0
  145.6055  136.3882  152.2056 C   0  0  0  0  0  0  0  0  0  0  0  0
  144.3178  136.3677  152.7944 C   0  0  0  0  0  0  0  0  0  0  0  0
  143.3379  135.5124  152.2549 C   0  0  0  0  0  0  0  0  0  0  0  0
  143.6774  134.7164  151.1437 C   0  0  0  0  0  0  0  0  0  0  0  0
  144.8960  134.7363  150.5638 N   0  0  0  0  0  0  0  0  0  0  0  0
  145.8304  135.5586  151.0867 C   0  0  0  0  0  0  0  0  0  0  0  0
  148.6022  138.4282  153.1130 H   0  0  0  0  0  0  0  0  0  0  0  0
  147.4105  140.2564  155.0170 H   0  0  0  0  0  0  0  0  0  0  0  0
  148.4767  139.1076  155.7722 H   0  0  0  0  0  0  0  0  0  0  0  0
  149.2364  140.8765  153.3946 H   0  0  0  0  0  0  0  0  0  0  0  0
  150.3523  142.4180  154.8112 H   0  0  0  0  0  0  0  0  0  0  0  0
  148.7671  142.2151  155.5217 H   0  0  0  0  0  0  0  0  0  0  0  0
  151.2007  143.1366  156.9618 H   0  0  0  0  0  0  0  0  0  0  0  0
  149.8198  142.7423  157.9898 H   0  0  0  0  0  0  0  0  0  0  0  0
  152.4860  142.3154  158.7340 H   0  0  0  0  0  0  0  0  0  0  0  0
  151.1611  141.3469  159.3801 H   0  0  0  0  0  0  0  0  0  0  0  0
  153.2596  140.3360  157.6649 H   0  0  0  0  0  0  0  0  0  0  0  0
  151.7913  139.4929  158.1684 H   0  0  0  0  0  0  0  0  0  0  0  0
  152.2254  141.2433  155.7402 H   0  0  0  0  0  0  0  0  0  0  0  0
  152.2525  138.8267  155.2395 H   0  0  0  0  0  0  0  0  0  0  0  0
  150.6974  138.6117  156.0195 H   0  0  0  0  0  0  0  0  0  0  0  0
  147.5488  137.0878  152.1590 H   0  0  0  0  0  0  0  0  0  0  0  0
  144.0581  136.9950  153.6328 H   0  0  0  0  0  0  0  0  0  0  0  0
  142.3463  135.4709  152.6808 H   0  0  0  0  0  0  0  0  0  0  0  0
  142.9489  134.0507  150.7052 H   0  0  0  0  0  0  0  0  0  0  0  0
  146.7930  135.5495  150.5960 H   0  0  0  0  0  0  0  0  0  0  0  0
  1  2  2  0  0  0  0
  2  3  1  0  0  0  0
  2 14  1  0  0  0  0
  3  4  1  0  0  0  0
  3 21  1  0  0  0  0
  4  5  1  0  0  0  0
  4 22  1  0  0  0  0
  4 23  1  0  0  0  0
  5 13  1  0  0  0  0
  5  6  1  0  0  0  0
  5 24  1  0  0  0  0
  6  7  1  0  0  0  0
  6 25  1  0  0  0  0
  6 26  1  0  0  0  0
  7 11  1  0  0  0  0
  7  8  1  0  0  0  0
  8  9  1  0  0  0  0
  8 27  1  0  0  0  0
  8 28  1  0  0  0  0
  9 10  1  0  0  0  0
  9 29  1  0  0  0  0
  9 30  1  0  0  0  0
 10 11  1  0  0  0  0
 10 31  1  0  0  0  0
 10 32  1  0  0  0  0
 11 12  1  0  0  0  0
 11 33  1  0  0  0  0
 12 13  1  0  0  0  0
 12 34  1  0  0  0  0
 12 35  1  0  0  0  0
 14 15  1  0  0  0  0
 14 36  1  0  0  0  0
 15 20  1  0  0  0  0
 15 16  2  0  0  0  0
 16 17  1  0  0  0  0
 16 37  1  0  0  0  0
 17 18  2  0  0  0  0
 17 38  1  0  0  0  0
 18 19  1  0  0  0  0
 18 39  1  0  0  0  0
 19 20  2  0  0  0  0
 20 40  1  0  0  0  0
M  END
> <s_m_source_file>
AV-unprocessed.smi

> <i_m_source_file_index>
618

> <i_lp_mmshare_version>
43012

> <i_f3d_flags>
0

> <s_epik_input>
W2NIXTFuW2NIXVtjSF1bY0hdYzFbTkhdQyg9TylbTkhdW0NIMl1bQ0BIXShbQ0gyXTIpT1tDSDJdW0NAQEhdKE4yMylbQ0gyXVtDSDJdW0NIMl0z

> <s_epik_cmdline>
J2VwaWtfcHl0aG9uJywgJy1waCcsICc3LjAnLCAnLXRuJywgJzgnLCAnLW1hJywgJzIwMCcsICctbWV0YWxfYmluZGluZycsICctaW1hZScsICc8aW5maWxlLm1hZT4nLCAnLW9tYWUnLCAnPG91dGZpbGUubWFlPic=

> <r_epik_Ionization_Penalty>
1.07277

> <r_epik_Ionization_Penalty_Charging>
0

> <r_epik_Ionization_Penalty_Neutral>
1.07277

> <r_epik_State_Penalty>
1.13623

> <r_epik_Charging_Adjusted_Penalty>
1.13623

> <i_epik_Tot_Q>
0

> <i_epik_Tot_abs_Q>
0

> <r_epik_Metal_State_Penalty>
1.13277

> <b_epik_Metal_Only>
0

> <s_lp_Force_Field>
OPLS_2005

> <r_lp_Energy>
52.4756

> <b_lp_Chiralities_Consistent>
1

> <s_lp_Variant>
AV-unprocessed.smi:618-10

> <Gold.Version>
5.8.1

> <Gold.Id.Protein>
6NUR|6NUR_protein|mol2

> <Gold.PLP.Fitness>
40.4919

> <Gold.PLP.PLP>
-29.4059

> <Gold.PLP.part.hbond>
-2.2690

> <Gold.PLP.part.metal>
0.0000

> <Gold.PLP.part.buried>
-2.7761

> <Gold.PLP.part.nonpolar>
-24.1761

> <Gold.PLP.part.repulsive>
0.5565

> <Gold.PLP.ligand.clash>
0.0000

> <Gold.PLP.ligand.torsion>
0.2068

> <Gold.PLP.Chemscore.Hbond>
2.0000

> <Gold.PLP.Chemscore.CHOScore>
1.8304

> <Gold.PLP.Chemscore.Metal>
0.0000

> <Gold.Chemscore.Hbonds>
donor molecule, donor type, donor heavy atom, donor atom, acceptor molecule, acceptor atom, score
      L1  H    14    36       P1  7948  1.00
      P1  H  7989  7998       L1    13  0.95
      L1  C    18    39       P1 10186  1.00
      L1  C    20    40       P1  7948  0.85

> <Gold.PLP.Chemscore.Internal.Correction>
0.0083

> <Gold.Rescore>
     Score         DG    S(hbond)    S(metal)    S(lipo)     H(rot)  DE(clash)    DE(int)     intcor
     13.75     -15.22       1.20        0.00      76.38       1.25       0.01       1.46       ----

> <Gold.Chemscore.Fitness>
13.7499

> <Gold.Chemscore.DG>
-15.2175

> <Gold.Chemscore.ZeroCoef>
-5.4800

> <Gold.Chemscore.Hbond>
1.1950

> <Gold.Chemscore.Metal>
0.0000

> <Gold.Chemscore.Lipo>
76.3784

> <Gold.Chemscore.Internal_Hbond>
0.0000

> <Gold.Chemscore.DEClash>
0.0067

> <Gold.Chemscore.DEInternal>
1.4609

> <Gold.Chemscore.Rot>
1.2461

> <Gold.Chemscore.Internal.Correction>
   9.000000E+99

> <Gold.Chemscore.Hbonds>
donor molecule, donor type, donor heavy atom, donor atom, acceptor molecule, acceptor atom, score
      L1  H    14    36       P1  7948  0.97
      P1  H  7989  7998       L1    13  0.15

> <Gold.Chemscore.Hbond.Weighted>
-3.9913

> <Gold.Chemscore.Metal.Weighted>
-0.0000

> <Gold.Chemscore.Lipo.Weighted>
-8.9363

> <Gold.Chemscore.Internal_Hbond.Weighted>
0.0000

> <Gold.Chemscore.DEClash.Weighted>
0.0067

> <Gold.Chemscore.DEInternal.Weighted>
1.4609

> <Gold.Chemscore.Rot.Weighted>
3.1901

> <Gold.Chemscore.Internal.Correction.Weighted>
   9.000000E+99

> <Gold.Protein.RotatedTorsions>
[ 6907 6896 6895 6894 ] final   90.75 input  -60.11 | X-H torsion
[ 7974 7965 7964 7962 ] final  137.70 input  175.53 | X-H torsion
[ 8008 7997 7996 7995 ] final  -95.56 input   59.86 | X-H torsion
[ 10167 10162 10161 10158 ] final -176.57 input  -65.29 | X-H torsion
[ 10718 10713 10712 10709 ] final   68.21 input   66.30 | X-H torsion
[ 10763 10752 10751 10750 ] final  138.33 input  -60.55 | X-H torsion
[ 11005 11000 10999 10996 ] final  163.23 input  -57.11 | X-H torsion

> <Gold.Protein.ActiveResidues>
 VAL166  LYS551  ARG553  GLY616  TRP617  ASP618  TYR619  PRO620  LYS621  CYS622 
 ASP623  PHE694  ASN695  SER759  ASP760  ASP761  ALA762  ILE779  LEU786  VAL792 
 PHE793  MET794  SER795  GLU796  ALA797  LYS798  CYS799  TRP800  GLU811  SER814 

> <Gold.Protein.RotatedAtoms>
  152.5446  134.1764  159.8617 H   0  0  0  0  0  0  0  0  0  0  0  0  # atno 6907 bound_to 6896
  151.1770  133.4742  159.2601 H   0  0  0  0  0  0  0  0  0  0  0  0  # atno 6908 bound_to 6896
  151.1217  135.0094  159.8597 H   0  0  0  0  0  0  0  0  0  0  0  0  # atno 6909 bound_to 6896
  144.9442  139.4894  143.5557 H   0  0  0  0  0  0  0  0  0  0  0  0  # atno 7974 bound_to 7965
  154.7630  140.0479  157.0989 H   0  0  0  0  0  0  0  0  0  0  0  0  # atno 8008 bound_to 7997
  154.9914  140.3113  155.4885 H   0  0  0  0  0  0  0  0  0  0  0  0  # atno 8009 bound_to 7997
  156.2907  140.2218  156.5019 H   0  0  0  0  0  0  0  0  0  0  0  0  # atno 8010 bound_to 7997
  139.5523  144.2078  152.1098 H   0  0  0  0  0  0  0  0  0  0  0  0  # atno 10167 bound_to 10162
  157.6276  130.9361  150.0346 H   0  0  0  0  0  0  0  0  0  0  0  0  # atno 10718 bound_to 10713
  153.8878  135.3036  155.3447 H   0  0  0  0  0  0  0  0  0  0  0  0  # atno 10763 bound_to 10752
  154.7731  135.4875  153.9692 H   0  0  0  0  0  0  0  0  0  0  0  0  # atno 10764 bound_to 10752
  153.1315  135.6805  153.9269 H   0  0  0  0  0  0  0  0  0  0  0  0  # atno 10765 bound_to 10752
  140.2337  134.8104  157.3342 H   0  0  0  0  0  0  0  0  0  0  0  0  # atno 11005 bound_to 11000
  146.3297  139.8483  142.8878 LP  0  0  0  0  0  0  0  0  0  0  0  0  # atno 17320 bound_to 7965
  145.2944  141.0176  143.3645 LP  0  0  0  0  0  0  0  0  0  0  0  0  # atno 17321 bound_to 7965
  140.1576  144.5056  150.6651 LP  0  0  0  0  0  0  0  0  0  0  0  0  # atno 17342 bound_to 10162
  140.6788  143.2317  151.5438 LP  0  0  0  0  0  0  0  0  0  0  0  0  # atno 17343 bound_to 10162
  156.1458  130.3642  149.9513 LP  0  0  0  0  0  0  0  0  0  0  0  0  # atno 17370 bound_to 10713
  156.7544  130.9127  151.3639 LP  0  0  0  0  0  0  0  0  0  0  0  0  # atno 17371 bound_to 10713
  140.1724  134.4591  155.7823 LP  0  0  0  0  0  0  0  0  0  0  0  0  # atno 17394 bound_to 11000
  141.2216  133.6947  156.7731 LP  0  0  0  0  0  0  0  0  0  0  0  0  # atno 17395 bound_to 11000

$$$$
