AV-unprocessed.smi:657|AV-procd|sdf|3220|dock9
  -GOLD-   22720 0163D 1   1.00000     0.00000
 Structure written by MMmdl.
 47 48  0  0  0  0  0  0  0  0  2 V2000
  145.0542  136.0926  154.5584 C   0  0  0  0  0  0  0  0  0  0  0  0
  146.2846  136.4500  153.7006 C   0  0  0  0  0  0  0  0  0  0  0  0
  145.9075  137.3696  152.5260 C   0  0  0  0  0  0  0  0  0  0  0  0
  147.0651  135.2532  153.2350 N   0  3  2  0  0  0  0  0  0  0  0  0
  146.2893  134.3752  152.3085 C   0  0  0  0  0  0  0  0  0  0  0  0
  147.1589  133.2723  151.6929 C   0  0  0  0  0  0  0  0  0  0  0  0
  147.7740  132.4110  152.7952 C   0  0  0  0  0  0  0  0  0  0  0  0
  148.5835  133.3048  153.7357 C   0  0  0  0  0  0  0  0  0  0  0  0
  147.7424  134.4667  154.3220 C   0  0  1  0  0  0  0  0  0  0  0  0
  148.6933  135.3088  155.1893 C   0  0  0  0  0  0  0  0  0  0  0  0
  148.5607  135.3346  156.4134 O   0  0  0  0  0  0  0  0  0  0  0  0
  149.6200  136.0221  154.5328 N   0  0  0  0  0  0  0  0  0  0  0  0
  150.5480  136.9663  155.1482 C   0  0  0  0  0  0  0  0  0  0  0  0
  150.8463  138.1792  154.2429 C   0  0  0  0  0  0  0  0  0  0  0  0
  150.5488  139.4955  154.9139 C   0  0  0  0  0  0  0  0  0  0  0  0
  149.5894  140.4778  154.5356 C   0  0  0  0  0  0  0  0  0  0  0  0
  149.5543  141.5081  155.3646 N   0  0  0  0  0  0  0  0  0  0  0  0
  150.4917  141.2254  156.2923 N   0  0  0  0  0  0  0  0  0  0  0  0
  150.7249  142.1541  157.3775 C   0  0  0  0  0  0  0  0  0  0  0  0
  151.1132  140.0215  156.0417 C   0  0  0  0  0  0  0  0  0  0  0  0
  144.5900  136.9961  154.9551 H   0  0  0  0  0  0  0  0  0  0  0  0
  145.3216  135.4698  155.4117 H   0  0  0  0  0  0  0  0  0  0  0  0
  144.2895  135.5701  153.9836 H   0  0  0  0  0  0  0  0  0  0  0  0
  146.9238  137.0690  154.3273 H   0  0  0  0  0  0  0  0  0  0  0  0
  145.4947  138.3102  152.8919 H   0  0  0  0  0  0  0  0  0  0  0  0
  145.1564  136.9253  151.8736 H   0  0  0  0  0  0  0  0  0  0  0  0
  146.7808  137.6122  151.9198 H   0  0  0  0  0  0  0  0  0  0  0  0
  145.4600  133.9103  152.8428 H   0  0  0  0  0  0  0  0  0  0  0  0
  145.8548  134.9597  151.4991 H   0  0  0  0  0  0  0  0  0  0  0  0
  146.5576  132.6504  151.0290 H   0  0  0  0  0  0  0  0  0  0  0  0
  147.9446  133.7150  151.0793 H   0  0  0  0  0  0  0  0  0  0  0  0
  146.9909  131.8935  153.3509 H   0  0  0  0  0  0  0  0  0  0  0  0
  148.4142  131.6421  152.3618 H   0  0  0  0  0  0  0  0  0  0  0  0
  148.9952  132.6940  154.5408 H   0  0  0  0  0  0  0  0  0  0  0  0
  149.4403  133.7023  153.1879 H   0  0  0  0  0  0  0  0  0  0  0  0
  146.9679  134.0414  154.9622 H   0  0  0  0  0  0  0  0  0  0  0  0
  149.6527  135.9476  153.5261 H   0  0  0  0  0  0  0  0  0  0  0  0
  150.1783  137.2927  156.1214 H   0  0  0  0  0  0  0  0  0  0  0  0
  151.4744  136.4235  155.3373 H   0  0  0  0  0  0  0  0  0  0  0  0
  151.8937  138.1415  153.9409 H   0  0  0  0  0  0  0  0  0  0  0  0
  150.2771  138.0808  153.3183 H   0  0  0  0  0  0  0  0  0  0  0  0
  148.9113  140.4647  153.6952 H   0  0  0  0  0  0  0  0  0  0  0  0
  151.4237  141.7228  158.0946 H   0  0  0  0  0  0  0  0  0  0  0  0
  149.7859  142.3729  157.8867 H   0  0  0  0  0  0  0  0  0  0  0  0
  151.1448  143.0804  156.9850 H   0  0  0  0  0  0  0  0  0  0  0  0
  151.8882  139.6347  156.6869 H   0  0  0  0  0  0  0  0  0  0  0  0
  147.8232  135.6329  152.6858 H   0  0  0  0  0  0  0  0  0  0  0  0
  1  2  1  0  0  0  0
  1 21  1  0  0  0  0
  1 22  1  0  0  0  0
  1 23  1  0  0  0  0
  2  3  1  0  0  0  0
  2  4  1  0  0  0  0
  2 24  1  0  0  0  0
  3 25  1  0  0  0  0
  3 26  1  0  0  0  0
  3 27  1  0  0  0  0
  4  9  1  0  0  0  0
  4  5  1  0  0  0  0
  4 47  1  0  0  0  0
  5  6  1  0  0  0  0
  5 28  1  0  0  0  0
  5 29  1  0  0  0  0
  6  7  1  0  0  0  0
  6 30  1  0  0  0  0
  6 31  1  0  0  0  0
  7  8  1  0  0  0  0
  7 32  1  0  0  0  0
  7 33  1  0  0  0  0
  8  9  1  0  0  0  0
  8 34  1  0  0  0  0
  8 35  1  0  0  0  0
  9 10  1  0  0  0  0
  9 36  1  0  0  0  0
 10 11  2  0  0  0  0
 10 12  1  0  0  0  0
 12 13  1  0  0  0  0
 12 37  1  0  0  0  0
 13 14  1  0  0  0  0
 13 38  1  0  0  0  0
 13 39  1  0  0  0  0
 14 15  1  0  0  0  0
 14 40  1  0  0  0  0
 14 41  1  0  0  0  0
 15 20  2  0  0  0  0
 15 16  1  0  0  0  0
 16 17  2  0  0  0  0
 16 42  1  0  0  0  0
 17 18  1  0  0  0  0
 18 19  1  0  0  0  0
 18 20  1  0  0  0  0
 19 43  1  0  0  0  0
 19 44  1  0  0  0  0
 19 45  1  0  0  0  0
 20 46  1  0  0  0  0
M  CHG  1   4   1
M  END
> <s_m_source_file>
AV-unprocessed.smi

> <i_m_source_file_index>
657

> <i_lp_mmshare_version>
43012

> <i_f3d_flags>
0

> <s_epik_input>
W0NIM11bQ0hdKFtDSDNdKU4xW0NIMl1bQ0gyXVtDSDJdW0NIMl1bQ0BIXTFDKD1PKVtOSF1bQ0gyXVtDSDJdYzJbY0hdbm4oW0NIM10pW2NIXTI=

> <s_epik_cmdline>
J2VwaWtfcHl0aG9uJywgJy1waCcsICc3LjAnLCAnLXRuJywgJzgnLCAnLW1hJywgJzIwMCcsICctbWV0YWxfYmluZGluZycsICctaW1hZScsICc8aW5maWxlLm1hZT4nLCAnLW9tYWUnLCAnPG91dGZpbGUubWFlPic=

> <r_lp_tautomer_probability>
1

> <r_epik_Ionization_Penalty>
0.0244317

> <r_epik_Ionization_Penalty_Charging>
0.0240236

> <r_epik_Ionization_Penalty_Neutral>
0.00040815

> <r_epik_State_Penalty>
0.0194773

> <r_epik_Charging_Adjusted_Penalty>
0.0435009

> <i_epik_Tot_Q>
1

> <i_epik_Tot_abs_Q>
1

> <r_epik_Metal_State_Penalty>
0.0361957

> <b_epik_Metal_Only>
0

> <s_lp_Force_Field>
OPLS_2005

> <r_lp_Energy>
17.8505

> <b_lp_Chiralities_Consistent>
1

> <s_lp_Variant>
AV-unprocessed.smi:657-1

> <Gold.Version>
5.8.1

> <Gold.Id.Protein>
6NUR|6NUR_protein|mol2

> <Gold.PLP.Fitness>
43.5919

> <Gold.PLP.PLP>
-33.5830

> <Gold.PLP.part.hbond>
-2.1378

> <Gold.PLP.part.metal>
0.0000

> <Gold.PLP.part.buried>
-0.6377

> <Gold.PLP.part.nonpolar>
-30.5892

> <Gold.PLP.part.repulsive>
0.1795

> <Gold.PLP.ligand.clash>
0.0000

> <Gold.PLP.ligand.torsion>
0.7334

> <Gold.PLP.Chemscore.Hbond>
2.9000

> <Gold.PLP.Chemscore.CHOScore>
0.8829

> <Gold.PLP.Chemscore.Metal>
0.0000

> <Gold.Chemscore.Hbonds>
donor molecule, donor type, donor heavy atom, donor atom, acceptor molecule, acceptor atom, score
      L1  H     4    47       P1  7948  1.89
      L1  H    12    37       P1  7948  0.95
      L1  C    16    42       P1  7957  0.61

> <Gold.PLP.Chemscore.Internal.Correction>
0.1270

> <Gold.Rescore>
     Score         DG    S(hbond)    S(metal)    S(lipo)     H(rot)  DE(clash)    DE(int)     intcor
     15.05     -15.98       1.92        0.00      70.59       1.63       0.02       0.90       ----

> <Gold.Chemscore.Fitness>
15.0546

> <Gold.Chemscore.DG>
-15.9794

> <Gold.Chemscore.ZeroCoef>
-5.4800

> <Gold.Chemscore.Hbond>
1.9185

> <Gold.Chemscore.Metal>
0.0000

> <Gold.Chemscore.Lipo>
70.5899

> <Gold.Chemscore.Internal_Hbond>
0.0000

> <Gold.Chemscore.DEClash>
0.0204

> <Gold.Chemscore.DEInternal>
0.9044

> <Gold.Chemscore.Rot>
1.6279

> <Gold.Chemscore.Internal.Correction>
   9.000000E+99

> <Gold.Chemscore.Hbonds>
donor molecule, donor type, donor heavy atom, donor atom, acceptor molecule, acceptor atom, score
      L1  H     4    47       P1  7948  0.90
      L1  H    12    37       P1  7948  0.21

> <Gold.Chemscore.Hbond.Weighted>
-6.4077

> <Gold.Chemscore.Metal.Weighted>
-0.0000

> <Gold.Chemscore.Lipo.Weighted>
-8.2590

> <Gold.Chemscore.Internal_Hbond.Weighted>
0.0000

> <Gold.Chemscore.DEClash.Weighted>
0.0204

> <Gold.Chemscore.DEInternal.Weighted>
0.9044

> <Gold.Chemscore.Rot.Weighted>
4.1673

> <Gold.Chemscore.Internal.Correction.Weighted>
   9.000000E+99

> <Gold.Protein.RotatedTorsions>
[ 6907 6896 6895 6894 ] final    9.13 input  -60.11 | X-H torsion
[ 7974 7965 7964 7962 ] final  -41.13 input  175.53 | X-H torsion
[ 8008 7997 7996 7995 ] final  142.97 input   59.86 | X-H torsion
[ 10167 10162 10161 10158 ] final  101.28 input  -65.29 | X-H torsion
[ 10718 10713 10712 10709 ] final  158.95 input   66.30 | X-H torsion
[ 10763 10752 10751 10750 ] final   93.70 input  -60.55 | X-H torsion
[ 11005 11000 10999 10996 ] final   59.37 input  -57.11 | X-H torsion

> <Gold.Protein.ActiveResidues>
 VAL166  LYS551  ARG553  GLY616  TRP617  ASP618  TYR619  PRO620  LYS621  CYS622 
 ASP623  PHE694  ASN695  SER759  ASP760  ASP761  ALA762  ILE779  LEU786  VAL792 
 PHE793  MET794  SER795  GLU796  ALA797  LYS798  CYS799  TRP800  GLU811  SER814 

> <Gold.Protein.RotatedAtoms>
  151.7173  135.0901  160.0277 H   0  0  0  0  0  0  0  0  0  0  0  0  # atno 6907 bound_to 6896
  152.3624  133.6310  159.6033 H   0  0  0  0  0  0  0  0  0  0  0  0  # atno 6908 bound_to 6896
  150.7614  133.9318  159.3471 H   0  0  0  0  0  0  0  0  0  0  0  0  # atno 6909 bound_to 6896
  146.0240  140.6815  142.9165 H   0  0  0  0  0  0  0  0  0  0  0  0  # atno 7974 bound_to 7965
  156.2939  140.2274  156.4815 H   0  0  0  0  0  0  0  0  0  0  0  0  # atno 8008 bound_to 7997
  154.7848  140.0458  157.1177 H   0  0  0  0  0  0  0  0  0  0  0  0  # atno 8009 bound_to 7997
  154.9715  140.3067  155.4989 H   0  0  0  0  0  0  0  0  0  0  0  0  # atno 8010 bound_to 7997
  139.7452  144.7000  151.0514 H   0  0  0  0  0  0  0  0  0  0  0  0  # atno 10167 bound_to 10162
  157.1709  131.0610  151.2183 H   0  0  0  0  0  0  0  0  0  0  0  0  # atno 10718 bound_to 10713
  153.2333  135.4316  155.0619 H   0  0  0  0  0  0  0  0  0  0  0  0  # atno 10763 bound_to 10752
  154.8307  135.3385  154.6756 H   0  0  0  0  0  0  0  0  0  0  0  0  # atno 10764 bound_to 10752
  153.7182  135.7018  153.5076 H   0  0  0  0  0  0  0  0  0  0  0  0  # atno 10765 bound_to 10752
  140.0309  134.6014  155.9509 H   0  0  0  0  0  0  0  0  0  0  0  0  # atno 11005 bound_to 11000
  144.7001  140.3616  143.7162 LP  0  0  0  0  0  0  0  0  0  0  0  0  # atno 17320 bound_to 7965
  145.7148  139.1694  143.2518 LP  0  0  0  0  0  0  0  0  0  0  0  0  # atno 17321 bound_to 7965
  140.7791  143.4875  150.9936 LP  0  0  0  0  0  0  0  0  0  0  0  0  # atno 17342 bound_to 10162
  139.8563  143.7372  152.3176 LP  0  0  0  0  0  0  0  0  0  0  0  0  # atno 17343 bound_to 10162
  157.4044  130.7351  149.6791 LP  0  0  0  0  0  0  0  0  0  0  0  0  # atno 17370 bound_to 10713
  155.9738  130.4112  150.3969 LP  0  0  0  0  0  0  0  0  0  0  0  0  # atno 17371 bound_to 10713
  141.1830  133.6550  156.5099 LP  0  0  0  0  0  0  0  0  0  0  0  0  # atno 17394 bound_to 11000
  140.4228  134.7172  157.4899 LP  0  0  0  0  0  0  0  0  0  0  0  0  # atno 17395 bound_to 11000

$$$$
