AV-unprocessed.smi:1364|AV-procd|sdf|5567|dock1
  -GOLD-   22720 5163D 1   1.00000     0.00000
 Structure written by MMmdl.
 40 41  0  0  0  0  0  0  0  0  1 V2000
  156.3768  136.2998  161.1737 C   0  0  0  0  0  0  0  0  0  0  0  0
  154.8780  136.0643  161.4540 C   0  0  0  0  0  0  0  0  0  0  0  0
  154.4573  134.7138  160.8377 C   0  0  0  0  0  0  0  0  0  0  0  0
  154.6589  136.0034  162.9848 C   0  0  0  0  0  0  0  0  0  0  0  0
  154.0626  137.1945  160.7766 C   0  0  0  0  0  0  0  0  0  0  0  0
  153.1847  136.8929  159.9672 O   0  0  0  0  0  0  0  0  0  0  0  0
  154.3729  138.4673  161.0939 N   0  0  0  0  0  0  0  0  0  0  0  0
  153.7821  139.6715  160.6247 C   0  0  0  0  0  0  0  0  0  0  0  0
  152.8798  139.7468  159.5388 C   0  0  0  0  0  0  0  0  0  0  0  0
  152.3452  140.9995  159.1819 C   0  0  0  0  0  0  0  0  0  0  0  0
  152.7165  142.1483  159.9199 C   0  0  0  0  0  0  0  0  0  0  0  0
  152.1936  143.4145  159.5766 N   0  0  0  0  0  0  0  0  0  0  0  0
  152.1274  144.4363  160.6201 C   0  0  0  0  0  0  0  0  0  0  0  0
  151.2729  145.6265  160.1523 C   0  0  0  0  0  0  0  0  0  0  0  0
  151.7845  146.1295  158.9228 O   0  0  0  0  0  0  0  0  0  0  0  0
  151.7362  145.1507  157.8901 C   0  0  0  0  0  0  0  0  0  0  0  0
  152.6041  143.9406  158.2768 C   0  0  0  0  0  0  0  0  0  0  0  0
  153.5651  142.0674  160.9742 N   0  0  0  0  0  0  0  0  0  0  0  0
  154.0757  140.8651  161.3124 C   0  0  0  0  0  0  0  0  0  0  0  0
  156.9904  135.5197  161.6255 H   0  0  0  0  0  0  0  0  0  0  0  0
  156.7128  137.2546  161.5808 H   0  0  0  0  0  0  0  0  0  0  0  0
  156.5962  136.3023  160.1050 H   0  0  0  0  0  0  0  0  0  0  0  0
  154.6383  134.6824  159.7622 H   0  0  0  0  0  0  0  0  0  0  0  0
  153.3969  134.5150  160.9992 H   0  0  0  0  0  0  0  0  0  0  0  0
  155.0140  133.8874  161.2810 H   0  0  0  0  0  0  0  0  0  0  0  0
  155.2419  135.1969  163.4308 H   0  0  0  0  0  0  0  0  0  0  0  0
  153.6139  135.8193  163.2384 H   0  0  0  0  0  0  0  0  0  0  0  0
  154.9667  136.9276  163.4760 H   0  0  0  0  0  0  0  0  0  0  0  0
  155.1718  138.5853  161.7003 H   0  0  0  0  0  0  0  0  0  0  0  0
  152.5736  138.8726  158.9860 H   0  0  0  0  0  0  0  0  0  0  0  0
  151.6449  141.0593  158.3624 H   0  0  0  0  0  0  0  0  0  0  0  0
  151.6956  144.0195  161.5309 H   0  0  0  0  0  0  0  0  0  0  0  0
  153.1369  144.7729  160.8603 H   0  0  0  0  0  0  0  0  0  0  0  0
  150.2289  145.3327  160.0319 H   0  0  0  0  0  0  0  0  0  0  0  0
  151.2956  146.4208  160.8984 H   0  0  0  0  0  0  0  0  0  0  0  0
  150.7038  144.8466  157.7099 H   0  0  0  0  0  0  0  0  0  0  0  0
  152.1033  145.5938  156.9644 H   0  0  0  0  0  0  0  0  0  0  0  0
  153.6521  144.2371  158.3338 H   0  0  0  0  0  0  0  0  0  0  0  0
  152.5306  143.1885  157.4929 H   0  0  0  0  0  0  0  0  0  0  0  0
  154.7460  140.8589  162.1596 H   0  0  0  0  0  0  0  0  0  0  0  0
  1  2  1  0  0  0  0
  1 20  1  0  0  0  0
  1 21  1  0  0  0  0
  1 22  1  0  0  0  0
  2  3  1  0  0  0  0
  2  4  1  0  0  0  0
  2  5  1  0  0  0  0
  3 23  1  0  0  0  0
  3 24  1  0  0  0  0
  3 25  1  0  0  0  0
  4 26  1  0  0  0  0
  4 27  1  0  0  0  0
  4 28  1  0  0  0  0
  5  6  2  0  0  0  0
  5  7  1  0  0  0  0
  7  8  1  0  0  0  0
  7 29  1  0  0  0  0
  8 19  1  0  0  0  0
  8  9  2  0  0  0  0
  9 10  1  0  0  0  0
  9 30  1  0  0  0  0
 10 11  2  0  0  0  0
 10 31  1  0  0  0  0
 11 12  1  0  0  0  0
 11 18  1  0  0  0  0
 12 17  1  0  0  0  0
 12 13  1  0  0  0  0
 13 14  1  0  0  0  0
 13 32  1  0  0  0  0
 13 33  1  0  0  0  0
 14 15  1  0  0  0  0
 14 34  1  0  0  0  0
 14 35  1  0  0  0  0
 15 16  1  0  0  0  0
 16 17  1  0  0  0  0
 16 36  1  0  0  0  0
 16 37  1  0  0  0  0
 17 38  1  0  0  0  0
 17 39  1  0  0  0  0
 18 19  2  0  0  0  0
 19 40  1  0  0  0  0
M  END
> <s_m_source_file>
AV-unprocessed.smi

> <i_m_source_file_index>
1364

> <i_lp_mmshare_version>
43012

> <i_f3d_flags>
0

> <s_epik_input>
W0NIM11DKFtDSDNdKShbQ0gzXSlDKD1PKVtOSF1jMVtjSF1bY0hdYyhuW2NIXTEpTjJbQ0gyXVtDSDJdT1tDSDJdW0NIMl0y

> <s_epik_cmdline>
J2VwaWtfcHl0aG9uJywgJy1waCcsICc3LjAnLCAnLXRuJywgJzgnLCAnLW1hJywgJzIwMCcsICctbWV0YWxfYmluZGluZycsICctaW1hZScsICc8aW5maWxlLm1hZT4nLCAnLW9tYWUnLCAnPG91dGZpbGUubWFlPic=

> <r_lp_tautomer_probability>
1

> <r_epik_Ionization_Penalty>
0.000770434

> <r_epik_Ionization_Penalty_Charging>
0

> <r_epik_Ionization_Penalty_Neutral>
0.000770434

> <r_epik_State_Penalty>
0.00047801

> <r_epik_Charging_Adjusted_Penalty>
0.00047801

> <i_epik_Tot_Q>
0

> <i_epik_Tot_abs_Q>
0

> <r_epik_Metal_State_Penalty>
-0

> <b_epik_Metal_Only>
0

> <s_lp_Force_Field>
OPLS_2005

> <r_lp_Energy>
28.9923

> <b_lp_Chiralities_Consistent>
1

> <s_lp_Variant>
AV-unprocessed.smi:1364-1

> <Gold.Version>
5.8.1

> <Gold.Id.Protein>
6NUR|6NUR_protein|mol2

> <Gold.PLP.Fitness>
39.3206

> <Gold.PLP.PLP>
-36.9479

> <Gold.PLP.part.hbond>
-1.7911

> <Gold.PLP.part.metal>
0.0000

> <Gold.PLP.part.buried>
-6.8178

> <Gold.PLP.part.nonpolar>
-29.3044

> <Gold.PLP.part.repulsive>
0.1103

> <Gold.PLP.ligand.clash>
0.0000

> <Gold.PLP.ligand.torsion>
0.4821

> <Gold.PLP.Chemscore.Hbond>
0.9913

> <Gold.PLP.Chemscore.CHOScore>
0.0000

> <Gold.PLP.Chemscore.Metal>
0.0000

> <Gold.Chemscore.Hbonds>
donor molecule, donor type, donor heavy atom, donor atom, acceptor molecule, acceptor atom, score
      P1  H  6896  6909       L1     6  0.55

> <Gold.PLP.Chemscore.Internal.Correction>
0.3632

> <Gold.Rescore>
     Score         DG    S(hbond)    S(metal)    S(lipo)     H(rot)  DE(clash)    DE(int)     intcor
     15.81     -17.62       1.00        0.00     100.80       1.17       0.15       1.67       ----

> <Gold.Chemscore.Fitness>
15.8072

> <Gold.Chemscore.DG>
-17.6211

> <Gold.Chemscore.ZeroCoef>
-5.4800

> <Gold.Chemscore.Hbond>
0.9988

> <Gold.Chemscore.Metal>
0.0000

> <Gold.Chemscore.Lipo>
100.8016

> <Gold.Chemscore.Internal_Hbond>
0.0000

> <Gold.Chemscore.DEClash>
0.1461

> <Gold.Chemscore.DEInternal>
1.6677

> <Gold.Chemscore.Rot>
1.1675

> <Gold.Chemscore.Internal.Correction>
   9.000000E+99

> <Gold.Chemscore.Hbonds>
donor molecule, donor type, donor heavy atom, donor atom, acceptor molecule, acceptor atom, score
      P1  H  6896  6909       L1     6  0.55

> <Gold.Chemscore.Hbond.Weighted>
-3.3360

> <Gold.Chemscore.Metal.Weighted>
-0.0000

> <Gold.Chemscore.Lipo.Weighted>
-11.7938

> <Gold.Chemscore.Internal_Hbond.Weighted>
0.0000

> <Gold.Chemscore.DEClash.Weighted>
0.1461

> <Gold.Chemscore.DEInternal.Weighted>
1.6677

> <Gold.Chemscore.Rot.Weighted>
2.9888

> <Gold.Chemscore.Internal.Correction.Weighted>
   9.000000E+99

> <Gold.Protein.RotatedTorsions>
[ 6907 6896 6895 6894 ] final  165.10 input  -60.11 | X-H torsion
[ 7974 7965 7964 7962 ] final  113.27 input  175.53 | X-H torsion
[ 8008 7997 7996 7995 ] final  175.50 input   59.86 | X-H torsion
[ 10167 10162 10161 10158 ] final -137.62 input  -65.29 | X-H torsion
[ 10718 10713 10712 10709 ] final  124.35 input   66.30 | X-H torsion
[ 10763 10752 10751 10750 ] final  -38.28 input  -60.55 | X-H torsion
[ 11005 11000 10999 10996 ] final -172.04 input  -57.11 | X-H torsion

> <Gold.Protein.ActiveResidues>
 VAL166  LYS551  ARG553  GLY616  TRP617  ASP618  TYR619  PRO620  LYS621  CYS622 
 ASP623  PHE694  ASN695  SER759  ASP760  ASP761  ALA762  ILE779  LEU786  VAL792 
 PHE793  MET794  SER795  GLU796  ALA797  LYS798  CYS799  TRP800  GLU811  SER814 

> <Gold.Protein.RotatedAtoms>
  151.8997  133.3535  159.3826 H   0  0  0  0  0  0  0  0  0  0  0  0  # atno 6907 bound_to 6896
  150.7083  134.4841  159.5493 H   0  0  0  0  0  0  0  0  0  0  0  0  # atno 6908 bound_to 6896
  152.2427  134.8213  160.0509 H   0  0  0  0  0  0  0  0  0  0  0  0  # atno 6909 bound_to 6896
  145.2190  139.2871  143.4228 H   0  0  0  0  0  0  0  0  0  0  0  0  # atno 7974 bound_to 7965
  156.0864  140.1407  156.9648 H   0  0  0  0  0  0  0  0  0  0  0  0  # atno 8008 bound_to 7997
  154.4615  140.0941  156.6954 H   0  0  0  0  0  0  0  0  0  0  0  0  # atno 8009 bound_to 7997
  155.4992  140.3450  155.4370 H   0  0  0  0  0  0  0  0  0  0  0  0  # atno 8010 bound_to 7997
  139.8560  143.7138  152.2654 H   0  0  0  0  0  0  0  0  0  0  0  0  # atno 10167 bound_to 10162
  157.5592  131.1090  150.8568 H   0  0  0  0  0  0  0  0  0  0  0  0  # atno 10718 bound_to 10713
  153.9102  135.6793  153.4751 H   0  0  0  0  0  0  0  0  0  0  0  0  # atno 10763 bound_to 10752
  153.1083  135.4795  154.8987 H   0  0  0  0  0  0  0  0  0  0  0  0  # atno 10764 bound_to 10752
  154.7531  135.3190  154.8476 H   0  0  0  0  0  0  0  0  0  0  0  0  # atno 10765 bound_to 10752
  140.5014  134.5889  157.4989 H   0  0  0  0  0  0  0  0  0  0  0  0  # atno 11005 bound_to 11000
  146.3380  140.2490  142.8598 LP  0  0  0  0  0  0  0  0  0  0  0  0  # atno 17320 bound_to 7965
  144.9783  140.8435  143.5413 LP  0  0  0  0  0  0  0  0  0  0  0  0  # atno 17321 bound_to 7965
  139.7419  144.7557  151.0639 LP  0  0  0  0  0  0  0  0  0  0  0  0  # atno 17342 bound_to 10162
  140.7781  143.4962  150.9830 LP  0  0  0  0  0  0  0  0  0  0  0  0  # atno 17343 bound_to 10162
  156.9070  130.5267  149.5281 LP  0  0  0  0  0  0  0  0  0  0  0  0  # atno 17370 bound_to 10713
  156.0647  130.5692  150.9264 LP  0  0  0  0  0  0  0  0  0  0  0  0  # atno 17371 bound_to 10713
  139.9711  134.7291  156.0040 LP  0  0  0  0  0  0  0  0  0  0  0  0  # atno 17394 bound_to 11000
  141.1433  133.6560  156.3794 LP  0  0  0  0  0  0  0  0  0  0  0  0  # atno 17395 bound_to 11000

$$$$
