AV-unprocessed.smi:1487|AV-procd|sdf|6007|dock6
  -GOLD-   22720 6103D 1   1.00000     0.00000
 Structure written by MMmdl.
 48 50  0  0  0  0  0  0  0  0  2 V2000
  153.6671  142.2530  160.5244 C   0  0  0  0  0  0  0  0  0  0  0  0
  152.6703  142.0225  159.4020 C   0  0  0  0  0  0  0  0  0  0  0  0
  152.7201  140.8105  158.6772 C   0  0  0  0  0  0  0  0  0  0  0  0
  151.8131  140.5578  157.6252 C   0  0  0  0  0  0  0  0  0  0  0  0
  151.6805  139.4558  156.7979 N   0  0  0  0  0  0  0  0  0  0  0  0
  150.6600  139.8197  156.0273 C   0  0  0  0  0  0  0  0  0  0  0  0
  150.1094  141.0259  156.2629 N   0  0  0  0  0  0  0  0  0  0  0  0
  148.9868  141.6232  155.5637 C   0  0  0  0  0  0  0  0  0  0  0  0
  148.5740  140.8190  154.3153 C   0  0  2  0  0  0  0  0  0  0  0  0
  149.5113  141.1086  153.2976 O   0  0  0  0  0  0  0  0  0  0  0  0
  147.1531  141.1610  153.8102 C   0  0  0  0  0  0  0  0  0  0  0  0
  146.4516  139.9988  153.2071 N   0  3  1  0  0  0  0  0  0  0  0  0
  147.1312  139.4637  151.9953 C   0  0  0  0  0  0  0  0  0  0  0  0
  146.3077  138.3396  151.3442 C   0  0  0  0  0  0  0  0  0  0  0  0
  146.0233  137.2148  152.3474 C   0  0  0  0  0  0  0  0  0  0  0  0
  145.3477  137.7938  153.5988 C   0  0  1  0  0  0  0  0  0  0  0  0
  145.1800  136.7732  154.5587 O   0  0  0  0  0  0  0  0  0  0  0  0
  146.1940  138.9279  154.2049 C   0  0  0  0  0  0  0  0  0  0  0  0
  150.8467  141.5588  157.3154 C   0  0  0  0  0  0  0  0  0  0  0  0
  150.7854  142.7679  158.0307 C   0  0  0  0  0  0  0  0  0  0  0  0
  151.6990  143.0040  159.0791 C   0  0  0  0  0  0  0  0  0  0  0  0
  151.6246  144.3124  159.8459 C   0  0  0  0  0  0  0  0  0  0  0  0
  154.3714  141.4247  160.6079 H   0  0  0  0  0  0  0  0  0  0  0  0
  153.1504  142.3506  161.4794 H   0  0  0  0  0  0  0  0  0  0  0  0
  154.2421  143.1620  160.3468 H   0  0  0  0  0  0  0  0  0  0  0  0
  153.4587  140.0620  158.9240 H   0  0  0  0  0  0  0  0  0  0  0  0
  150.2854  139.1692  155.2502 H   0  0  0  0  0  0  0  0  0  0  0  0
  148.1502  141.7095  156.2584 H   0  0  0  0  0  0  0  0  0  0  0  0
  149.2633  142.6408  155.2837 H   0  0  0  0  0  0  0  0  0  0  0  0
  148.6533  139.7595  154.5556 H   0  0  0  0  0  0  0  0  0  0  0  0
  149.4005  140.4907  152.5917 H   0  0  0  0  0  0  0  0  0  0  0  0
  146.5316  141.5530  154.6159 H   0  0  0  0  0  0  0  0  0  0  0  0
  147.2368  141.9647  153.0765 H   0  0  0  0  0  0  0  0  0  0  0  0
  147.2840  140.2540  151.2616 H   0  0  0  0  0  0  0  0  0  0  0  0
  148.1208  139.0919  152.2664 H   0  0  0  0  0  0  0  0  0  0  0  0
  145.3669  138.7439  150.9679 H   0  0  0  0  0  0  0  0  0  0  0  0
  146.8404  137.9403  150.4805 H   0  0  0  0  0  0  0  0  0  0  0  0
  145.3910  136.4531  151.8891 H   0  0  0  0  0  0  0  0  0  0  0  0
  146.9593  136.7241  152.6193 H   0  0  0  0  0  0  0  0  0  0  0  0
  144.3605  138.1770  153.3368 H   0  0  0  0  0  0  0  0  0  0  0  0
  145.2943  137.1451  155.4204 H   0  0  0  0  0  0  0  0  0  0  0  0
  147.1463  138.5405  154.5718 H   0  0  0  0  0  0  0  0  0  0  0  0
  145.6690  139.3468  155.0646 H   0  0  0  0  0  0  0  0  0  0  0  0
  150.0413  143.5078  157.7757 H   0  0  0  0  0  0  0  0  0  0  0  0
  150.7927  144.9283  159.5030 H   0  0  0  0  0  0  0  0  0  0  0  0
  152.5428  144.8853  159.7125 H   0  0  0  0  0  0  0  0  0  0  0  0
  151.4839  144.1252  160.9107 H   0  0  0  0  0  0  0  0  0  0  0  0
  145.5440  140.3325  152.9166 H   0  0  0  0  0  0  0  0  0  0  0  0
  1  2  1  0  0  0  0
  1 23  1  0  0  0  0
  1 24  1  0  0  0  0
  1 25  1  0  0  0  0
  2 21  1  0  0  0  0
  2  3  2  0  0  0  0
  3  4  1  0  0  0  0
  3 26  1  0  0  0  0
  4 19  2  0  0  0  0
  4  5  1  0  0  0  0
  5  6  2  0  0  0  0
  6  7  1  0  0  0  0
  6 27  1  0  0  0  0
  7  8  1  0  0  0  0
  7 19  1  0  0  0  0
  8  9  1  0  0  0  0
  8 28  1  0  0  0  0
  8 29  1  0  0  0  0
  9 10  1  0  0  0  0
  9 11  1  0  0  0  0
  9 30  1  0  0  0  0
 10 31  1  0  0  0  0
 11 12  1  0  0  0  0
 11 32  1  0  0  0  0
 11 33  1  0  0  0  0
 12 18  1  0  0  0  0
 12 13  1  0  0  0  0
 12 48  1  0  0  0  0
 13 14  1  0  0  0  0
 13 34  1  0  0  0  0
 13 35  1  0  0  0  0
 14 15  1  0  0  0  0
 14 36  1  0  0  0  0
 14 37  1  0  0  0  0
 15 16  1  0  0  0  0
 15 38  1  0  0  0  0
 15 39  1  0  0  0  0
 16 17  1  0  0  0  0
 16 18  1  0  0  0  0
 16 40  1  0  0  0  0
 17 41  1  0  0  0  0
 18 42  1  0  0  0  0
 18 43  1  0  0  0  0
 19 20  1  0  0  0  0
 20 21  2  0  0  0  0
 20 44  1  0  0  0  0
 21 22  1  0  0  0  0
 22 45  1  0  0  0  0
 22 46  1  0  0  0  0
 22 47  1  0  0  0  0
M  CHG  1  12   1
M  END
> <s_m_source_file>
AV-unprocessed.smi

> <i_m_source_file_index>
1487

> <i_lp_mmshare_version>
43012

> <i_f3d_flags>
0

> <s_epik_input>
W0NIM11jKFtjSF0xKWMoW0NIM10pW2NIXWMoYzEyKW4oW2NIXW4yKVtDSDJdW0NASF0oW09IXSlbQ0gyXU4zW0NIMl1bQ0gyXVtDSDJdW0NAQEhdKFtPSF0pW0NIMl0z

> <s_epik_cmdline>
J2VwaWtfcHl0aG9uJywgJy1waCcsICc3LjAnLCAnLXRuJywgJzgnLCAnLW1hJywgJzIwMCcsICctbWV0YWxfYmluZGluZycsICctaW1hZScsICc8aW5maWxlLm1hZT4nLCAnLW9tYWUnLCAnPG91dGZpbGUubWFlPic=

> <r_epik_Ionization_Penalty>
0.0940186

> <r_epik_Ionization_Penalty_Charging>
0.00679686

> <r_epik_Ionization_Penalty_Neutral>
0.0872218

> <r_epik_State_Penalty>
0.0799311

> <r_epik_Charging_Adjusted_Penalty>
0.086728

> <i_epik_Tot_Q>
1

> <i_epik_Tot_abs_Q>
1

> <r_epik_Metal_State_Penalty>
7.95545e-05

> <b_epik_Metal_Only>
0

> <s_lp_Force_Field>
OPLS_2005

> <r_lp_Energy>
20.897

> <b_lp_Chiralities_Consistent>
1

> <s_lp_Variant>
AV-unprocessed.smi:1487-1

> <Gold.Version>
5.8.1

> <Gold.Id.Protein>
6NUR|6NUR_protein|mol2

> <Gold.PLP.Fitness>
52.5836

> <Gold.PLP.PLP>
-41.7738

> <Gold.PLP.part.hbond>
-3.4049

> <Gold.PLP.part.metal>
0.0000

> <Gold.PLP.part.buried>
0.7279

> <Gold.PLP.part.nonpolar>
-40.0600

> <Gold.PLP.part.repulsive>
0.0000

> <Gold.PLP.ligand.clash>
0.0000

> <Gold.PLP.ligand.torsion>
0.6671

> <Gold.PLP.Chemscore.Hbond>
4.0361

> <Gold.PLP.Chemscore.CHOScore>
0.0000

> <Gold.PLP.Chemscore.Metal>
0.0000

> <Gold.Chemscore.Hbonds>
donor molecule, donor type, donor heavy atom, donor atom, acceptor molecule, acceptor atom, score
      L1  H    10    31       P1  7957  0.96
      L1  H    12    48       P1 10175  2.00
      P1  H  7989  7998       L1    10  0.10
      P1  H  8011  8017       L1    10  0.75

> <Gold.PLP.Chemscore.Internal.Correction>
0.0358

> <Gold.Rescore>
     Score         DG    S(hbond)    S(metal)    S(lipo)     H(rot)  DE(clash)    DE(int)     intcor
     18.97     -20.09       2.27        0.00     118.56       2.67       0.29       0.82       ----

> <Gold.Chemscore.Fitness>
18.9718

> <Gold.Chemscore.DG>
-20.0874

> <Gold.Chemscore.ZeroCoef>
-5.4800

> <Gold.Chemscore.Hbond>
2.2678

> <Gold.Chemscore.Metal>
0.0000

> <Gold.Chemscore.Lipo>
118.5587

> <Gold.Chemscore.Internal_Hbond>
0.0000

> <Gold.Chemscore.DEClash>
0.2932

> <Gold.Chemscore.DEInternal>
0.8224

> <Gold.Chemscore.Rot>
2.6712

> <Gold.Chemscore.Internal.Correction>
   9.000000E+99

> <Gold.Chemscore.Hbonds>
donor molecule, donor type, donor heavy atom, donor atom, acceptor molecule, acceptor atom, score
      L1  H    10    31       P1  7957  0.86
      L1  H    12    48       P1 10175  0.92
      P1  H  7989  7998       L1    10  0.01
      P1  H  8011  8017       L1    10  0.09

> <Gold.Chemscore.Hbond.Weighted>
-7.5744

> <Gold.Chemscore.Metal.Weighted>
-0.0000

> <Gold.Chemscore.Lipo.Weighted>
-13.8714

> <Gold.Chemscore.Internal_Hbond.Weighted>
0.0000

> <Gold.Chemscore.DEClash.Weighted>
0.2932

> <Gold.Chemscore.DEInternal.Weighted>
0.8224

> <Gold.Chemscore.Rot.Weighted>
6.8383

> <Gold.Chemscore.Internal.Correction.Weighted>
   9.000000E+99

> <Gold.Protein.RotatedTorsions>
[ 6907 6896 6895 6894 ] final  -45.88 input  -60.11 | X-H torsion
[ 7974 7965 7964 7962 ] final   68.18 input  175.53 | X-H torsion
[ 8008 7997 7996 7995 ] final   -6.67 input   59.86 | X-H torsion
[ 10167 10162 10161 10158 ] final   74.61 input  -65.29 | X-H torsion
[ 10718 10713 10712 10709 ] final  135.66 input   66.30 | X-H torsion
[ 10763 10752 10751 10750 ] final  -97.77 input  -60.55 | X-H torsion
[ 11005 11000 10999 10996 ] final  -97.28 input  -57.11 | X-H torsion

> <Gold.Protein.ActiveResidues>
 VAL166  LYS551  ARG553  GLY616  TRP617  ASP618  TYR619  PRO620  LYS621  CYS622 
 ASP623  PHE694  ASN695  SER759  ASP760  ASP761  ALA762  ILE779  LEU786  VAL792 
 PHE793  MET794  SER795  GLU796  ALA797  LYS798  CYS799  TRP800  GLU811  SER814 

> <Gold.Protein.RotatedAtoms>
  150.9171  134.8589  159.7464 H   0  0  0  0  0  0  0  0  0  0  0  0  # atno 6907 bound_to 6896
  152.4974  134.4272  159.9510 H   0  0  0  0  0  0  0  0  0  0  0  0  # atno 6908 bound_to 6896
  151.4309  133.3631  159.2804 H   0  0  0  0  0  0  0  0  0  0  0  0  # atno 6909 bound_to 6896
  145.8057  139.3005  143.1129 H   0  0  0  0  0  0  0  0  0  0  0  0  # atno 7974 bound_to 7965
  154.5914  140.2427  155.7916 H   0  0  0  0  0  0  0  0  0  0  0  0  # atno 8008 bound_to 7997
  156.2249  140.2985  155.9997 H   0  0  0  0  0  0  0  0  0  0  0  0  # atno 8009 bound_to 7997
  155.2368  140.0405  157.2960 H   0  0  0  0  0  0  0  0  0  0  0  0  # atno 8010 bound_to 7997
  140.0119  144.5608  150.7652 H   0  0  0  0  0  0  0  0  0  0  0  0  # atno 10167 bound_to 10162
  157.4548  131.1069  150.9991 H   0  0  0  0  0  0  0  0  0  0  0  0  # atno 10718 bound_to 10713
  154.7357  135.5034  153.9038 H   0  0  0  0  0  0  0  0  0  0  0  0  # atno 10763 bound_to 10752
  153.0993  135.6681  153.9712 H   0  0  0  0  0  0  0  0  0  0  0  0  # atno 10764 bound_to 10752
  153.9502  135.3058  155.3418 H   0  0  0  0  0  0  0  0  0  0  0  0  # atno 10765 bound_to 10752
  141.1384  133.8159  157.0685 H   0  0  0  0  0  0  0  0  0  0  0  0  # atno 11005 bound_to 11000
  145.9831  140.8666  143.0104 LP  0  0  0  0  0  0  0  0  0  0  0  0  # atno 17320 bound_to 7965
  144.6763  140.2108  143.7377 LP  0  0  0  0  0  0  0  0  0  0  0  0  # atno 17321 bound_to 7965
  140.7378  143.2770  151.3712 LP  0  0  0  0  0  0  0  0  0  0  0  0  # atno 17342 bound_to 10162
  139.6199  144.0927  152.2381 LP  0  0  0  0  0  0  0  0  0  0  0  0  # atno 17343 bound_to 10162
  157.0808  130.5902  149.5420 LP  0  0  0  0  0  0  0  0  0  0  0  0  # atno 17370 bound_to 10713
  156.0002  130.5080  150.7636 LP  0  0  0  0  0  0  0  0  0  0  0  0  # atno 17371 bound_to 10713
  140.0526  134.9797  157.1163 LP  0  0  0  0  0  0  0  0  0  0  0  0  # atno 17394 bound_to 11000
  140.3967  134.2126  155.7164 LP  0  0  0  0  0  0  0  0  0  0  0  0  # atno 17395 bound_to 11000

$$$$
