AV-unprocessed.smi:3036|AV-procd|sdf|11582|dock6
  -GOLD-   2272016553D 1   1.00000     0.00000
 Structure written by MMmdl.
 42 43  0  0  0  0  0  0  0  0  2 V2000
  144.1783  135.9683  153.1485 C   0  0  0  0  0  0  0  0  0  0  0  0
  145.4628  136.2589  152.3611 C   0  0  2  0  0  0  0  0  0  0  0  0
  145.3386  135.8028  150.8942 C   0  0  0  0  0  0  0  0  0  0  0  0
  145.3834  134.3571  150.7608 N   0  0  0  0  0  0  0  0  0  0  0  0
  144.4520  133.5198  150.1841 C   0  0  0  0  0  0  0  0  0  0  0  0
  144.9362  132.2467  150.2804 C   0  0  0  0  0  0  0  0  0  0  0  0
  146.1856  132.4082  150.9413 C   0  0  0  0  0  0  0  0  0  0  0  0
  146.4518  133.6729  151.2257 N   0  0  0  0  0  0  0  0  0  0  0  0
  146.6103  135.5926  153.0160 N   0  3  0  0  0  0  0  0  0  0  0  0
  146.8579  136.0151  154.4113 C   0  0  0  0  0  0  0  0  0  0  0  0
  148.1902  136.7765  154.5600 C   0  0  0  0  0  0  0  0  0  0  0  0
  148.0569  138.3093  154.6426 C   0  0  0  0  0  0  0  0  0  0  0  0
  146.9653  138.7978  154.9390 O   0  0  0  0  0  0  0  0  0  0  0  0
  149.1440  139.0766  154.3878 N   0  0  0  0  0  0  0  0  0  0  0  0
  149.1377  140.5385  154.4956 C   0  0  0  0  0  0  0  0  0  0  0  0
  150.1045  140.9478  155.6214 C   0  0  0  0  0  0  0  0  0  0  0  0
  151.4076  140.4405  155.3446 O   0  0  0  0  0  0  0  0  0  0  0  0
  151.4391  139.0220  155.2085 C   0  0  0  0  0  0  0  0  0  0  0  0
  150.4920  138.5907  154.0744 C   0  0  0  0  0  0  0  0  0  0  0  0
  143.3211  136.4715  152.7000 H   0  0  0  0  0  0  0  0  0  0  0  0
  144.2613  136.3174  154.1785 H   0  0  0  0  0  0  0  0  0  0  0  0
  143.9599  134.9001  153.1750 H   0  0  0  0  0  0  0  0  0  0  0  0
  145.6155  137.3396  152.3691 H   0  0  0  0  0  0  0  0  0  0  0  0
  144.4127  136.1720  150.4499 H   0  0  0  0  0  0  0  0  0  0  0  0
  146.1544  136.2202  150.3024 H   0  0  0  0  0  0  0  0  0  0  0  0
  143.5339  133.8947  149.7562 H   0  0  0  0  0  0  0  0  0  0  0  0
  144.4685  131.3375  149.9322 H   0  0  0  0  0  0  0  0  0  0  0  0
  146.9024  131.6495  151.2191 H   0  0  0  0  0  0  0  0  0  0  0  0
  146.4576  134.5936  153.0035 H   0  0  0  0  0  0  0  0  0  0  0  0
  146.0419  136.6656  154.7295 H   0  0  0  0  0  0  0  0  0  0  0  0
  146.8383  135.1424  155.0660 H   0  0  0  0  0  0  0  0  0  0  0  0
  148.7067  136.4128  155.4492 H   0  0  0  0  0  0  0  0  0  0  0  0
  148.8213  136.5367  153.7036 H   0  0  0  0  0  0  0  0  0  0  0  0
  149.4580  140.9719  153.5471 H   0  0  0  0  0  0  0  0  0  0  0  0
  148.1469  140.9484  154.6954 H   0  0  0  0  0  0  0  0  0  0  0  0
  150.1578  142.0338  155.6974 H   0  0  0  0  0  0  0  0  0  0  0  0
  149.7570  140.5755  156.5864 H   0  0  0  0  0  0  0  0  0  0  0  0
  152.4605  138.7120  154.9870 H   0  0  0  0  0  0  0  0  0  0  0  0
  151.1583  138.5500  156.1513 H   0  0  0  0  0  0  0  0  0  0  0  0
  150.5536  137.5128  153.9360 H   0  0  0  0  0  0  0  0  0  0  0  0
  150.8188  139.0284  153.1300 H   0  0  0  0  0  0  0  0  0  0  0  0
  147.4378  135.7989  152.4739 H   0  0  0  0  0  0  0  0  0  0  0  0
  1  2  1  0  0  0  0
  1 20  1  0  0  0  0
  1 21  1  0  0  0  0
  1 22  1  0  0  0  0
  2  3  1  0  0  0  0
  2  9  1  0  0  0  0
  2 23  1  0  0  0  0
  3  4  1  0  0  0  0
  3 24  1  0  0  0  0
  3 25  1  0  0  0  0
  4  8  1  0  0  0  0
  4  5  1  0  0  0  0
  5  6  2  0  0  0  0
  5 26  1  0  0  0  0
  6  7  1  0  0  0  0
  6 27  1  0  0  0  0
  7  8  2  0  0  0  0
  7 28  1  0  0  0  0
  9 10  1  0  0  0  0
  9 29  1  0  0  0  0
  9 42  1  0  0  0  0
 10 11  1  0  0  0  0
 10 30  1  0  0  0  0
 10 31  1  0  0  0  0
 11 12  1  0  0  0  0
 11 32  1  0  0  0  0
 11 33  1  0  0  0  0
 12 13  2  0  0  0  0
 12 14  1  0  0  0  0
 14 19  1  0  0  0  0
 14 15  1  0  0  0  0
 15 16  1  0  0  0  0
 15 34  1  0  0  0  0
 15 35  1  0  0  0  0
 16 17  1  0  0  0  0
 16 36  1  0  0  0  0
 16 37  1  0  0  0  0
 17 18  1  0  0  0  0
 18 19  1  0  0  0  0
 18 38  1  0  0  0  0
 18 39  1  0  0  0  0
 19 40  1  0  0  0  0
 19 41  1  0  0  0  0
M  CHG  1   9   1
M  END
> <s_m_source_file>
AV-unprocessed.smi

> <i_m_source_file_index>
3036

> <i_lp_mmshare_version>
43012

> <i_f3d_flags>
0

> <s_epik_input>
bjFbY0hdW2NIXVtjSF1uMVtDSDJdW0NAQEhdKFtDSDNdKVtOSF1bQ0gyXVtDSDJdQyg9TylOMltDSDJdW0NIMl1PW0NIMl1bQ0gyXTI=

> <s_epik_cmdline>
J2VwaWtfcHl0aG9uJywgJy1waCcsICc3LjAnLCAnLXRuJywgJzgnLCAnLW1hJywgJzIwMCcsICctbWV0YWxfYmluZGluZycsICctaW1hZScsICc8aW5maWxlLm1hZT4nLCAnLW9tYWUnLCAnPG91dGZpbGUubWFlPic=

> <r_lp_tautomer_probability>
1

> <r_epik_Ionization_Penalty>
0.00797109

> <r_epik_Ionization_Penalty_Charging>
0.0079672

> <r_epik_Ionization_Penalty_Neutral>
3.88864e-06

> <r_epik_State_Penalty>
0.00597998

> <r_epik_Charging_Adjusted_Penalty>
0.0139472

> <i_epik_Tot_Q>
1

> <i_epik_Tot_abs_Q>
1

> <r_epik_Metal_State_Penalty>
0.00598029

> <b_epik_Metal_Only>
0

> <s_lp_Force_Field>
OPLS_2005

> <r_lp_Energy>
23.8433

> <b_lp_Chiralities_Consistent>
1

> <s_lp_Variant>
AV-unprocessed.smi:3036-1

> <Gold.Version>
5.8.1

> <Gold.Id.Protein>
6NUR|6NUR_protein|mol2

> <Gold.PLP.Fitness>
45.0638

> <Gold.PLP.PLP>
-32.2712

> <Gold.PLP.part.hbond>
-2.0000

> <Gold.PLP.part.metal>
0.0000

> <Gold.PLP.part.buried>
-3.7688

> <Gold.PLP.part.nonpolar>
-27.6632

> <Gold.PLP.part.repulsive>
0.2784

> <Gold.PLP.ligand.clash>
0.0000

> <Gold.PLP.ligand.torsion>
0.9972

> <Gold.PLP.Chemscore.Hbond>
2.9120

> <Gold.PLP.Chemscore.CHOScore>
1.9877

> <Gold.PLP.Chemscore.Metal>
0.0000

> <Gold.Chemscore.Hbonds>
donor molecule, donor type, donor heavy atom, donor atom, acceptor molecule, acceptor atom, score
      L1  H     9    42       P1  7948  2.00
      P1  H  7989  7998       L1    17  0.81
      L1  C     5    26       P1 10186  0.86
      L1  C     7    28       P1 10747  1.00

> <Gold.PLP.Chemscore.Internal.Correction>
0.0877

> <Gold.Rescore>
     Score         DG    S(hbond)    S(metal)    S(lipo)     H(rot)  DE(clash)    DE(int)     intcor
     11.68     -12.79       1.26        0.00      71.64       2.07       0.06       1.06       ----

> <Gold.Chemscore.Fitness>
11.6756

> <Gold.Chemscore.DG>
-12.7923

> <Gold.Chemscore.ZeroCoef>
-5.4800

> <Gold.Chemscore.Hbond>
1.2649

> <Gold.Chemscore.Metal>
0.0000

> <Gold.Chemscore.Lipo>
71.6383

> <Gold.Chemscore.Internal_Hbond>
0.0000

> <Gold.Chemscore.DEClash>
0.0580

> <Gold.Chemscore.DEInternal>
1.0587

> <Gold.Chemscore.Rot>
2.0680

> <Gold.Chemscore.Internal.Correction>
   9.000000E+99

> <Gold.Chemscore.Hbonds>
donor molecule, donor type, donor heavy atom, donor atom, acceptor molecule, acceptor atom, score
      L1  H     9    42       P1  7948  1.00
      P1  H  7989  7998       L1    17  0.06

> <Gold.Chemscore.Hbond.Weighted>
-4.2247

> <Gold.Chemscore.Metal.Weighted>
-0.0000

> <Gold.Chemscore.Lipo.Weighted>
-8.3817

> <Gold.Chemscore.Internal_Hbond.Weighted>
0.0000

> <Gold.Chemscore.DEClash.Weighted>
0.0580

> <Gold.Chemscore.DEInternal.Weighted>
1.0587

> <Gold.Chemscore.Rot.Weighted>
5.2941

> <Gold.Chemscore.Internal.Correction.Weighted>
   9.000000E+99

> <Gold.Protein.RotatedTorsions>
[ 6907 6896 6895 6894 ] final   50.00 input  -60.11 | X-H torsion
[ 7974 7965 7964 7962 ] final   -4.31 input  175.53 | X-H torsion
[ 8008 7997 7996 7995 ] final  144.25 input   59.86 | X-H torsion
[ 10167 10162 10161 10158 ] final  108.78 input  -65.29 | X-H torsion
[ 10718 10713 10712 10709 ] final -176.58 input   66.30 | X-H torsion
[ 10763 10752 10751 10750 ] final   11.88 input  -60.55 | X-H torsion
[ 11005 11000 10999 10996 ] final -122.72 input  -57.11 | X-H torsion

> <Gold.Protein.ActiveResidues>
 VAL166  LYS551  ARG553  GLY616  TRP617  ASP618  TYR619  PRO620  LYS621  CYS622 
 ASP623  PHE694  ASN695  SER759  ASP760  ASP761  ALA762  ILE779  LEU786  VAL792 
 PHE793  MET794  SER795  GLU796  ALA797  LYS798  CYS799  TRP800  GLU811  SER814 

> <Gold.Protein.RotatedAtoms>
  152.2970  134.7655  160.0365 H   0  0  0  0  0  0  0  0  0  0  0  0  # atno 6907 bound_to 6896
  151.8181  133.3385  159.3584 H   0  0  0  0  0  0  0  0  0  0  0  0  # atno 6908 bound_to 6896
  150.7256  134.5529  159.5848 H   0  0  0  0  0  0  0  0  0  0  0  0  # atno 6909 bound_to 6896
  146.2374  140.1853  142.8332 H   0  0  0  0  0  0  0  0  0  0  0  0  # atno 7974 bound_to 7965
  156.2912  140.2240  156.5023 H   0  0  0  0  0  0  0  0  0  0  0  0  # atno 8008 bound_to 7997
  154.7679  140.0468  157.1049 H   0  0  0  0  0  0  0  0  0  0  0  0  # atno 8009 bound_to 7997
  154.9910  140.3090  155.4909 H   0  0  0  0  0  0  0  0  0  0  0  0  # atno 8010 bound_to 7997
  139.6818  144.7117  151.1501 H   0  0  0  0  0  0  0  0  0  0  0  0  # atno 10167 bound_to 10162
  156.8168  130.9606  151.3113 H   0  0  0  0  0  0  0  0  0  0  0  0  # atno 10718 bound_to 10713
  153.1880  135.6838  153.8389 H   0  0  0  0  0  0  0  0  0  0  0  0  # atno 10763 bound_to 10752
  153.7698  135.3197  155.3351 H   0  0  0  0  0  0  0  0  0  0  0  0  # atno 10764 bound_to 10752
  154.8100  135.4723  154.0589 H   0  0  0  0  0  0  0  0  0  0  0  0  # atno 10765 bound_to 10752
  140.9974  134.0452  157.3580 H   0  0  0  0  0  0  0  0  0  0  0  0  # atno 11005 bound_to 11000
  144.9902  140.8539  143.5344 LP  0  0  0  0  0  0  0  0  0  0  0  0  # atno 17320 bound_to 7965
  145.1857  139.2327  143.5269 LP  0  0  0  0  0  0  0  0  0  0  0  0  # atno 17321 bound_to 7965
  140.7655  143.5687  150.9019 LP  0  0  0  0  0  0  0  0  0  0  0  0  # atno 17342 bound_to 10162
  139.9360  143.6438  152.3065 LP  0  0  0  0  0  0  0  0  0  0  0  0  # atno 17343 bound_to 10162
  157.6477  130.8858  149.9571 LP  0  0  0  0  0  0  0  0  0  0  0  0  # atno 17370 bound_to 10713
  156.1012  130.3655  150.0215 LP  0  0  0  0  0  0  0  0  0  0  0  0  # atno 17371 bound_to 10713
  139.9021  135.0168  156.7319 LP  0  0  0  0  0  0  0  0  0  0  0  0  # atno 17394 bound_to 11000
  140.6944  133.9361  155.7986 LP  0  0  0  0  0  0  0  0  0  0  0  0  # atno 17395 bound_to 11000

$$$$
