AV-unprocessed.smi:1070|AV-procd|sdf|4676|dock6
  -GOLD-   22720 3193D 1   1.00000     0.00000
 Structure written by MMmdl.
 48 49  0  0  0  0  0  0  0  0  1 V2000
  142.0608  135.1076  152.8389 C   0  0  0  0  0  0  0  0  0  0  0  0
  143.5623  135.3644  152.6919 C   0  0  0  0  0  0  0  0  0  0  0  0
  144.2120  134.1357  152.4178 O   0  0  0  0  0  0  0  0  0  0  0  0
  143.8844  133.6124  151.1381 C   0  0  0  0  0  0  0  0  0  0  0  0
  144.6076  132.2803  150.9406 C   0  0  0  0  0  0  0  0  0  0  0  0
  144.3154  131.5672  149.9814 O   0  0  0  0  0  0  0  0  0  0  0  0
  145.5418  131.9794  151.8598 N   0  0  0  0  0  0  0  0  0  0  0  0
  146.2896  130.7770  151.9940 C   0  0  0  0  0  0  0  0  0  0  0  0
  146.0379  129.6355  151.1971 C   0  0  0  0  0  0  0  0  0  0  0  0
  146.8491  128.4974  151.3539 C   0  0  0  0  0  0  0  0  0  0  0  0
  147.8953  128.5361  152.2939 C   0  0  0  0  0  0  0  0  0  0  0  0
  148.6905  127.4189  152.4469 O   0  0  0  0  0  0  0  0  0  0  0  0
  148.8860  126.5709  151.3205 C   0  0  0  0  0  0  0  0  0  0  0  0
  148.1515  129.6302  153.0506 N   0  0  0  0  0  0  0  0  0  0  0  0
  147.3737  130.7298  152.9099 C   0  0  0  0  0  0  0  0  0  0  0  0
  147.6659  131.8368  153.7312 N   0  0  0  0  0  0  0  0  0  0  0  0
  148.9182  132.5500  153.4740 C   0  0  0  0  0  0  0  0  0  0  0  0
  148.9614  133.8692  154.2690 C   0  0  0  0  0  0  0  0  0  0  0  0
  148.7291  133.5810  155.6908 N   0  0  0  0  0  0  0  0  0  0  0  0
  149.6767  133.7585  156.6416 C   0  0  0  0  0  0  0  0  0  0  0  0
  151.0360  134.3384  156.2442 C   0  0  0  0  0  0  0  0  0  0  0  0
  149.4941  133.4716  157.8248 O   0  0  0  0  0  0  0  0  0  0  0  0
  147.4071  132.9754  155.9047 C   0  0  0  0  0  0  0  0  0  0  0  0
  147.3409  131.6384  155.1440 C   0  0  0  0  0  0  0  0  0  0  0  0
  141.5237  136.0364  153.0317 H   0  0  0  0  0  0  0  0  0  0  0  0
  141.8602  134.4282  153.6673 H   0  0  0  0  0  0  0  0  0  0  0  0
  141.6482  134.6637  151.9325 H   0  0  0  0  0  0  0  0  0  0  0  0
  143.7431  136.0722  151.8817 H   0  0  0  0  0  0  0  0  0  0  0  0
  143.9557  135.8038  153.6098 H   0  0  0  0  0  0  0  0  0  0  0  0
  142.8068  133.4605  151.0546 H   0  0  0  0  0  0  0  0  0  0  0  0
  144.1890  134.3047  150.3518 H   0  0  0  0  0  0  0  0  0  0  0  0
  145.6178  132.6252  152.6328 H   0  0  0  0  0  0  0  0  0  0  0  0
  145.2504  129.6219  150.4589 H   0  0  0  0  0  0  0  0  0  0  0  0
  146.6762  127.6134  150.7579 H   0  0  0  0  0  0  0  0  0  0  0  0
  149.5381  125.7437  151.6003 H   0  0  0  0  0  0  0  0  0  0  0  0
  149.3639  127.1044  150.4974 H   0  0  0  0  0  0  0  0  0  0  0  0
  147.9434  126.1462  150.9723 H   0  0  0  0  0  0  0  0  0  0  0  0
  149.7630  131.9207  153.7580 H   0  0  0  0  0  0  0  0  0  0  0  0
  149.0117  132.7560  152.4069 H   0  0  0  0  0  0  0  0  0  0  0  0
  149.9091  134.3770  154.0864 H   0  0  0  0  0  0  0  0  0  0  0  0
  148.1855  134.5476  153.9112 H   0  0  0  0  0  0  0  0  0  0  0  0
  150.9211  135.3332  155.8127 H   0  0  0  0  0  0  0  0  0  0  0  0
  151.5350  133.6923  155.5215 H   0  0  0  0  0  0  0  0  0  0  0  0
  151.6860  134.4268  157.1154 H   0  0  0  0  0  0  0  0  0  0  0  0
  147.1599  132.8130  156.9526 H   0  0  0  0  0  0  0  0  0  0  0  0
  146.6421  133.6538  155.5255 H   0  0  0  0  0  0  0  0  0  0  0  0
  146.3496  131.2006  155.2597 H   0  0  0  0  0  0  0  0  0  0  0  0
  148.0491  130.9284  155.5733 H   0  0  0  0  0  0  0  0  0  0  0  0
  1  2  1  0  0  0  0
  1 25  1  0  0  0  0
  1 26  1  0  0  0  0
  1 27  1  0  0  0  0
  2  3  1  0  0  0  0
  2 28  1  0  0  0  0
  2 29  1  0  0  0  0
  3  4  1  0  0  0  0
  4  5  1  0  0  0  0
  4 30  1  0  0  0  0
  4 31  1  0  0  0  0
  5  6  2  0  0  0  0
  5  7  1  0  0  0  0
  7  8  1  0  0  0  0
  7 32  1  0  0  0  0
  8 15  1  0  0  0  0
  8  9  2  0  0  0  0
  9 10  1  0  0  0  0
  9 33  1  0  0  0  0
 10 11  2  0  0  0  0
 10 34  1  0  0  0  0
 11 12  1  0  0  0  0
 11 14  1  0  0  0  0
 12 13  1  0  0  0  0
 13 35  1  0  0  0  0
 13 36  1  0  0  0  0
 13 37  1  0  0  0  0
 14 15  2  0  0  0  0
 15 16  1  0  0  0  0
 16 24  1  0  0  0  0
 16 17  1  0  0  0  0
 17 18  1  0  0  0  0
 17 38  1  0  0  0  0
 17 39  1  0  0  0  0
 18 19  1  0  0  0  0
 18 40  1  0  0  0  0
 18 41  1  0  0  0  0
 19 20  1  0  0  0  0
 19 23  1  0  0  0  0
 20 21  1  0  0  0  0
 20 22  2  0  0  0  0
 21 42  1  0  0  0  0
 21 43  1  0  0  0  0
 21 44  1  0  0  0  0
 23 24  1  0  0  0  0
 23 45  1  0  0  0  0
 23 46  1  0  0  0  0
 24 47  1  0  0  0  0
 24 48  1  0  0  0  0
M  END
> <s_m_source_file>
AV-unprocessed.smi

> <i_m_source_file_index>
1070

> <i_lp_mmshare_version>
43012

> <i_f3d_flags>
0

> <s_epik_input>
W0NIM11bQ0gyXU9bQ0gyXUMoPU8pW05IXWMxW2NIXVtjSF1jKE9bQ0gzXSluYzFOMltDSDJdW0NIMl1OKEMoPU8pW0NIM10pW0NIMl1bQ0gyXTI=

> <s_epik_cmdline>
J2VwaWtfcHl0aG9uJywgJy1waCcsICc3LjAnLCAnLXRuJywgJzgnLCAnLW1hJywgJzIwMCcsICctbWV0YWxfYmluZGluZycsICctaW1hZScsICc8aW5maWxlLm1hZT4nLCAnLW9tYWUnLCAnPG91dGZpbGUubWFlPic=

> <r_lp_tautomer_probability>
1

> <r_epik_Ionization_Penalty>
0.000131804

> <r_epik_Ionization_Penalty_Charging>
0

> <r_epik_Ionization_Penalty_Neutral>
0.000131804

> <r_epik_State_Penalty>
-0

> <r_epik_Charging_Adjusted_Penalty>
0

> <i_epik_Tot_Q>
0

> <i_epik_Tot_abs_Q>
0

> <r_epik_Metal_State_Penalty>
-0

> <b_epik_Metal_Only>
0

> <s_lp_Force_Field>
OPLS_2005

> <r_lp_Energy>
37.3921

> <b_lp_Chiralities_Consistent>
1

> <s_lp_Variant>
AV-unprocessed.smi:1070-1

> <Gold.Version>
5.8.1

> <Gold.Id.Protein>
6NUR|6NUR_protein|mol2

> <Gold.PLP.Fitness>
40.9078

> <Gold.PLP.PLP>
-37.4214

> <Gold.PLP.part.hbond>
-2.0000

> <Gold.PLP.part.metal>
0.0000

> <Gold.PLP.part.buried>
-5.8977

> <Gold.PLP.part.nonpolar>
-29.8041

> <Gold.PLP.part.repulsive>
0.6906

> <Gold.PLP.ligand.clash>
0.0000

> <Gold.PLP.ligand.torsion>
0.6842

> <Gold.PLP.Chemscore.Hbond>
1.4680

> <Gold.PLP.Chemscore.CHOScore>
0.0000

> <Gold.PLP.Chemscore.Metal>
0.0000

> <Gold.Chemscore.Hbonds>
donor molecule, donor type, donor heavy atom, donor atom, acceptor molecule, acceptor atom, score
      P1  H  6896  6907       L1    22  1.00
      P1  H 10785 10796       L1     6  0.36

> <Gold.PLP.Chemscore.Internal.Correction>
0.4509

> <Gold.Rescore>
     Score         DG    S(hbond)    S(metal)    S(lipo)     H(rot)  DE(clash)    DE(int)     intcor
     11.17     -13.03       0.98        0.00      77.31       1.86       0.05       1.81       ----

> <Gold.Chemscore.Fitness>
11.1726

> <Gold.Chemscore.DG>
-13.0297

> <Gold.Chemscore.ZeroCoef>
-5.4800

> <Gold.Chemscore.Hbond>
0.9802

> <Gold.Chemscore.Metal>
0.0000

> <Gold.Chemscore.Lipo>
77.3105

> <Gold.Chemscore.Internal_Hbond>
0.0000

> <Gold.Chemscore.DEClash>
0.0519

> <Gold.Chemscore.DEInternal>
1.8052

> <Gold.Chemscore.Rot>
1.8631

> <Gold.Chemscore.Internal.Correction>
   9.000000E+99

> <Gold.Chemscore.Hbonds>
donor molecule, donor type, donor heavy atom, donor atom, acceptor molecule, acceptor atom, score
      P1  H  6896  6907       L1    22  0.93
      P1  H 10785 10796       L1     6  0.35

> <Gold.Chemscore.Hbond.Weighted>
-3.2739

> <Gold.Chemscore.Metal.Weighted>
-0.0000

> <Gold.Chemscore.Lipo.Weighted>
-9.0453

> <Gold.Chemscore.Internal_Hbond.Weighted>
0.0000

> <Gold.Chemscore.DEClash.Weighted>
0.0519

> <Gold.Chemscore.DEInternal.Weighted>
1.8052

> <Gold.Chemscore.Rot.Weighted>
4.7696

> <Gold.Chemscore.Internal.Correction.Weighted>
   9.000000E+99

> <Gold.Protein.RotatedTorsions>
[ 6907 6896 6895 6894 ] final -134.09 input  -60.11 | X-H torsion
[ 7974 7965 7964 7962 ] final   41.58 input  175.53 | X-H torsion
[ 8008 7997 7996 7995 ] final  163.40 input   59.86 | X-H torsion
[ 10167 10162 10161 10158 ] final -130.15 input  -65.29 | X-H torsion
[ 10718 10713 10712 10709 ] final   26.56 input   66.30 | X-H torsion
[ 10763 10752 10751 10750 ] final  -30.92 input  -60.55 | X-H torsion
[ 11005 11000 10999 10996 ] final -154.83 input  -57.11 | X-H torsion

> <Gold.Protein.ActiveResidues>
 VAL166  LYS551  ARG553  GLY616  TRP617  ASP618  TYR619  PRO620  LYS621  CYS622 
 ASP623  PHE694  ASN695  SER759  ASP760  ASP761  ALA762  ILE779  LEU786  VAL792 
 PHE793  MET794  SER795  GLU796  ALA797  LYS798  CYS799  TRP800  GLU811  SER814 

> <Gold.Protein.RotatedAtoms>
  150.9817  133.6239  159.2721 H   0  0  0  0  0  0  0  0  0  0  0  0  # atno 6907 bound_to 6896
  151.3491  135.0879  159.9407 H   0  0  0  0  0  0  0  0  0  0  0  0  # atno 6908 bound_to 6896
  152.5217  133.9413  159.7682 H   0  0  0  0  0  0  0  0  0  0  0  0  # atno 6909 bound_to 6896
  146.0812  139.5399  142.9536 H   0  0  0  0  0  0  0  0  0  0  0  0  # atno 7974 bound_to 7965
  156.1960  140.1724  156.7997 H   0  0  0  0  0  0  0  0  0  0  0  0  # atno 8008 bound_to 7997
  154.5530  140.0714  156.8729 H   0  0  0  0  0  0  0  0  0  0  0  0  # atno 8009 bound_to 7997
  155.2992  140.3360  155.4251 H   0  0  0  0  0  0  0  0  0  0  0  0  # atno 8010 bound_to 7997
  139.9323  143.6258  152.2526 H   0  0  0  0  0  0  0  0  0  0  0  0  # atno 10167 bound_to 10162
  157.2084  130.6923  149.6218 H   0  0  0  0  0  0  0  0  0  0  0  0  # atno 10718 bound_to 10713
  153.7889  135.6899  153.4875 H   0  0  0  0  0  0  0  0  0  0  0  0  # atno 10763 bound_to 10752
  153.1763  135.4523  154.9967 H   0  0  0  0  0  0  0  0  0  0  0  0  # atno 10764 bound_to 10752
  154.8052  135.3354  154.7386 H   0  0  0  0  0  0  0  0  0  0  0  0  # atno 10765 bound_to 10752
  140.6931  134.4019  157.5217 H   0  0  0  0  0  0  0  0  0  0  0  0  # atno 11005 bound_to 11000
  145.6215  141.0321  143.1912 LP  0  0  0  0  0  0  0  0  0  0  0  0  # atno 17320 bound_to 7965
  144.7294  139.7772  143.7353 LP  0  0  0  0  0  0  0  0  0  0  0  0  # atno 17321 bound_to 7965
  139.6772  144.7658  151.1674 LP  0  0  0  0  0  0  0  0  0  0  0  0  # atno 17342 bound_to 10162
  140.7634  143.5778  150.8927 LP  0  0  0  0  0  0  0  0  0  0  0  0  # atno 17343 bound_to 10162
  155.9693  130.4559  150.5906 LP  0  0  0  0  0  0  0  0  0  0  0  0  # atno 17370 bound_to 10713
  157.3697  131.0763  151.1568 LP  0  0  0  0  0  0  0  0  0  0  0  0  # atno 17371 bound_to 10713
  139.8918  134.8771  156.2303 LP  0  0  0  0  0  0  0  0  0  0  0  0  # atno 17394 bound_to 11000
  141.0225  133.7033  156.1292 LP  0  0  0  0  0  0  0  0  0  0  0  0  # atno 17395 bound_to 11000

$$$$
