AV-unprocessed.smi:1952|AV-procd|sdf|7891|dock1
  -GOLD-   2272010 43D 1   1.00000     0.00000
 Structure written by MMmdl.
 39 40  0  0  0  0  0  0  0  0  3 V2000
  147.5125  136.2831  163.1510 C   0  0  0  0  0  0  0  0  0  0  0  0
  147.4959  136.0915  161.6728 C   0  0  0  0  0  0  0  0  0  0  0  0
  147.3868  134.9819  160.8831 C   0  0  0  0  0  0  0  0  0  0  0  0
  147.4406  135.5160  159.5684 C   0  0  0  0  0  0  0  0  0  0  0  0
  147.3685  134.6623  158.4364 N   0  0  0  0  0  0  0  0  0  0  0  0
  147.5126  134.9756  157.1366 C   0  0  0  0  0  0  0  0  0  0  0  0
  147.6713  136.1523  156.7906 O   0  0  0  0  0  0  0  0  0  0  0  0
  147.4729  133.8775  156.3314 N   0  5  0  0  0  0  0  0  0  0  0  0
  147.6044  133.8908  154.8684 C   0  0  2  0  0  0  0  0  0  0  0  0
  149.0845  134.0818  154.5085 C   0  0  0  0  0  0  0  0  0  0  0  0
  146.7290  135.0159  154.2631 C   0  0  0  0  0  0  0  0  0  0  0  0
  146.5013  134.8289  152.8051 N   0  3  0  0  0  0  0  0  0  0  0  0
  146.3974  133.4096  152.3951 C   0  0  0  0  0  0  0  0  0  0  0  0
  146.3071  133.3115  150.8630 C   0  0  0  0  0  0  0  0  0  0  0  0
  145.1968  134.0703  150.3981 O   0  0  0  0  0  0  0  0  0  0  0  0
  145.3195  135.4502  150.7237 C   0  0  0  0  0  0  0  0  0  0  0  0
  145.3710  135.6155  152.2509 C   0  0  0  0  0  0  0  0  0  0  0  0
  147.5754  136.8339  159.5572 N   0  0  0  0  0  0  0  0  0  0  0  0
  147.6088  137.2095  160.9053 O   0  0  0  0  0  0  0  0  0  0  0  0
  148.2045  135.5855  163.6229 H   0  0  0  0  0  0  0  0  0  0  0  0
  146.5215  136.1136  163.5720 H   0  0  0  0  0  0  0  0  0  0  0  0
  147.8227  137.2947  163.4135 H   0  0  0  0  0  0  0  0  0  0  0  0
  147.2851  133.9539  161.1973 H   0  0  0  0  0  0  0  0  0  0  0  0
  147.2111  133.6858  158.6364 H   0  0  0  0  0  0  0  0  0  0  0  0
  147.2883  132.9438  154.4286 H   0  0  0  0  0  0  0  0  0  0  0  0
  149.2259  134.0871  153.4274 H   0  0  0  0  0  0  0  0  0  0  0  0
  149.6959  133.2748  154.9139 H   0  0  0  0  0  0  0  0  0  0  0  0
  149.4733  135.0233  154.8981 H   0  0  0  0  0  0  0  0  0  0  0  0
  145.7735  135.0326  154.7907 H   0  0  0  0  0  0  0  0  0  0  0  0
  147.1809  135.9929  154.4401 H   0  0  0  0  0  0  0  0  0  0  0  0
  147.2726  132.8596  152.7433 H   0  0  0  0  0  0  0  0  0  0  0  0
  145.5210  132.9549  152.8590 H   0  0  0  0  0  0  0  0  0  0  0  0
  147.2272  133.6678  150.3964 H   0  0  0  0  0  0  0  0  0  0  0  0
  146.1777  132.2724  150.5599 H   0  0  0  0  0  0  0  0  0  0  0  0
  146.2124  135.8694  150.2568 H   0  0  0  0  0  0  0  0  0  0  0  0
  144.4638  135.9881  150.3156 H   0  0  0  0  0  0  0  0  0  0  0  0
  144.4341  135.2805  152.6985 H   0  0  0  0  0  0  0  0  0  0  0  0
  145.4869  136.6707  152.5001 H   0  0  0  0  0  0  0  0  0  0  0  0
  147.3419  135.1805  152.3662 H   0  0  0  0  0  0  0  0  0  0  0  0
  1  2  1  0  0  0  0
  1 20  1  0  0  0  0
  1 21  1  0  0  0  0
  1 22  1  0  0  0  0
  2 19  1  0  0  0  0
  2  3  2  0  0  0  0
  3  4  1  0  0  0  0
  3 23  1  0  0  0  0
  4  5  1  0  0  0  0
  4 18  2  0  0  0  0
  5  6  1  0  0  0  0
  5 24  1  0  0  0  0
  6  7  2  0  0  0  0
  6  8  1  0  0  0  0
  8  9  1  0  0  0  0
  9 10  1  0  0  0  0
  9 11  1  0  0  0  0
  9 25  1  0  0  0  0
 10 26  1  0  0  0  0
 10 27  1  0  0  0  0
 10 28  1  0  0  0  0
 11 12  1  0  0  0  0
 11 29  1  0  0  0  0
 11 30  1  0  0  0  0
 12 17  1  0  0  0  0
 12 13  1  0  0  0  0
 12 39  1  0  0  0  0
 13 14  1  0  0  0  0
 13 31  1  0  0  0  0
 13 32  1  0  0  0  0
 14 15  1  0  0  0  0
 14 33  1  0  0  0  0
 14 34  1  0  0  0  0
 15 16  1  0  0  0  0
 16 17  1  0  0  0  0
 16 35  1  0  0  0  0
 16 36  1  0  0  0  0
 17 37  1  0  0  0  0
 17 38  1  0  0  0  0
 18 19  1  0  0  0  0
M  CHG  1   8  -1
M  CHG  1  12   1
M  END
> <s_m_source_file>
AV-unprocessed.smi

> <i_m_source_file_index>
1952

> <i_lp_mmshare_version>
43012

> <i_f3d_flags>
0

> <s_epik_input>
W0NIM11jMVtjSF1jKG5vMSlbTkhdQyg9TylbTkhdW0NASF0oW0NIM10pW0NIMl1OMltDSDJdW0NIMl1PW0NIMl1bQ0gyXTI=

> <s_epik_cmdline>
J2VwaWtfcHl0aG9uJywgJy1waCcsICc3LjAnLCAnLXRuJywgJzgnLCAnLW1hJywgJzIwMCcsICctbWV0YWxfYmluZGluZycsICctaW1hZScsICc8aW5maWxlLm1hZT4nLCAnLW9tYWUnLCAnPG91dGZpbGUubWFlPic=

> <r_epik_Ionization_Penalty>
6.76648

> <r_epik_Ionization_Penalty_Charging>
6.76648

> <r_epik_Ionization_Penalty_Neutral>
5.6208e-06

> <r_epik_State_Penalty>
7.45901

> <r_epik_Charging_Adjusted_Penalty>
14.2255

> <i_epik_Tot_Q>
0

> <i_epik_Tot_abs_Q>
2

> <r_epik_Metal_State_Penalty>
3.38802

> <b_epik_Metal_Only>
1

> <s_lp_Force_Field>
OPLS_2005

> <r_lp_Energy>
9.23167

> <b_lp_Chiralities_Consistent>
1

> <s_lp_Variant>
AV-unprocessed.smi:1952-9

> <Gold.Version>
5.8.1

> <Gold.Id.Protein>
6NUR|6NUR_protein|mol2

> <Gold.PLP.Fitness>
37.0329

> <Gold.PLP.PLP>
-26.5680

> <Gold.PLP.part.hbond>
-3.0000

> <Gold.PLP.part.metal>
0.0000

> <Gold.PLP.part.buried>
-4.0470

> <Gold.PLP.part.nonpolar>
-20.4827

> <Gold.PLP.part.repulsive>
0.9271

> <Gold.PLP.ligand.clash>
0.0000

> <Gold.PLP.ligand.torsion>
0.5613

> <Gold.PLP.Chemscore.Hbond>
3.7600

> <Gold.PLP.Chemscore.CHOScore>
0.0000

> <Gold.PLP.Chemscore.Metal>
0.0000

> <Gold.Chemscore.Hbonds>
donor molecule, donor type, donor heavy atom, donor atom, acceptor molecule, acceptor atom, score
      L1  H    12    39       P1  7948  2.00
      P1  H  6931  6943       L1    19  0.85
      P1  H  6934  6947       L1    19  0.94

> <Gold.PLP.Chemscore.Internal.Correction>
0.3075

> <Gold.Rescore>
     Score         DG    S(hbond)    S(metal)    S(lipo)     H(rot)  DE(clash)    DE(int)     intcor
     12.56     -15.36       2.14        0.00      58.05       1.58       0.01       2.79       ----

> <Gold.Chemscore.Fitness>
12.5639

> <Gold.Chemscore.DG>
-15.3587

> <Gold.Chemscore.ZeroCoef>
-5.4800

> <Gold.Chemscore.Hbond>
2.1352

> <Gold.Chemscore.Metal>
0.0000

> <Gold.Chemscore.Lipo>
58.0467

> <Gold.Chemscore.Internal_Hbond>
0.0000

> <Gold.Chemscore.DEClash>
0.0065

> <Gold.Chemscore.DEInternal>
2.7883

> <Gold.Chemscore.Rot>
1.5798

> <Gold.Chemscore.Internal.Correction>
   9.000000E+99

> <Gold.Chemscore.Hbonds>
donor molecule, donor type, donor heavy atom, donor atom, acceptor molecule, acceptor atom, score
      L1  H    12    39       P1  7948  0.98
      P1  H  6931  6943       L1    19  0.27
      P1  H  6934  6947       L1    19  0.51

> <Gold.Chemscore.Hbond.Weighted>
-7.1314

> <Gold.Chemscore.Metal.Weighted>
-0.0000

> <Gold.Chemscore.Lipo.Weighted>
-6.7915

> <Gold.Chemscore.Internal_Hbond.Weighted>
0.0000

> <Gold.Chemscore.DEClash.Weighted>
0.0065

> <Gold.Chemscore.DEInternal.Weighted>
2.7883

> <Gold.Chemscore.Rot.Weighted>
4.0442

> <Gold.Chemscore.Internal.Correction.Weighted>
   9.000000E+99

> <Gold.Protein.RotatedTorsions>
[ 6907 6896 6895 6894 ] final  156.42 input  -60.11 | X-H torsion
[ 7974 7965 7964 7962 ] final  -43.69 input  175.53 | X-H torsion
[ 8008 7997 7996 7995 ] final  -61.33 input   59.86 | X-H torsion
[ 10167 10162 10161 10158 ] final -175.01 input  -65.29 | X-H torsion
[ 10718 10713 10712 10709 ] final  -14.33 input   66.30 | X-H torsion
[ 10763 10752 10751 10750 ] final   56.27 input  -60.55 | X-H torsion
[ 11005 11000 10999 10996 ] final   25.25 input  -57.11 | X-H torsion

> <Gold.Protein.ActiveResidues>
 VAL166  LYS551  ARG553  GLY616  TRP617  ASP618  TYR619  PRO620  LYS621  CYS622 
 ASP623  PHE694  ASN695  SER759  ASP760  ASP761  ALA762  ILE779  LEU786  VAL792 
 PHE793  MET794  SER795  GLU796  ALA797  LYS798  CYS799  TRP800  GLU811  SER814 

> <Gold.Protein.RotatedAtoms>
  152.0299  133.3933  159.4292 H   0  0  0  0  0  0  0  0  0  0  0  0  # atno 6907 bound_to 6896
  150.6883  134.3533  159.4927 H   0  0  0  0  0  0  0  0  0  0  0  0  # atno 6908 bound_to 6896
  152.1317  134.9129  160.0609 H   0  0  0  0  0  0  0  0  0  0  0  0  # atno 6909 bound_to 6896
  145.9994  140.7091  142.9278 H   0  0  0  0  0  0  0  0  0  0  0  0  # atno 7974 bound_to 7965
  154.4442  140.1020  156.6413 H   0  0  0  0  0  0  0  0  0  0  0  0  # atno 8008 bound_to 7997
  155.5498  140.3485  155.4447 H   0  0  0  0  0  0  0  0  0  0  0  0  # atno 8009 bound_to 7997
  156.0537  140.1310  157.0010 H   0  0  0  0  0  0  0  0  0  0  0  0  # atno 8010 bound_to 7997
  139.5603  144.1886  152.1228 H   0  0  0  0  0  0  0  0  0  0  0  0  # atno 10167 bound_to 10162
  156.6175  130.4866  149.6177 H   0  0  0  0  0  0  0  0  0  0  0  0  # atno 10718 bound_to 10713
  152.9829  135.5682  154.5202 H   0  0  0  0  0  0  0  0  0  0  0  0  # atno 10763 bound_to 10752
  154.4691  135.2784  155.1658 H   0  0  0  0  0  0  0  0  0  0  0  0  # atno 10764 bound_to 10752
  154.3213  135.6268  153.5562 H   0  0  0  0  0  0  0  0  0  0  0  0  # atno 10765 bound_to 10752
  140.3498  134.2241  155.7681 H   0  0  0  0  0  0  0  0  0  0  0  0  # atno 11005 bound_to 11000
  144.6914  140.3207  143.7233 LP  0  0  0  0  0  0  0  0  0  0  0  0  # atno 17320 bound_to 7965
  145.7510  139.1794  143.2321 LP  0  0  0  0  0  0  0  0  0  0  0  0  # atno 17321 bound_to 7965
  140.1398  144.5212  150.6751 LP  0  0  0  0  0  0  0  0  0  0  0  0  # atno 17342 bound_to 10162
  140.6882  143.2361  151.5203 LP  0  0  0  0  0  0  0  0  0  0  0  0  # atno 17343 bound_to 10162
  156.2339  130.6811  151.1491 LP  0  0  0  0  0  0  0  0  0  0  0  0  # atno 17370 bound_to 10713
  157.7237  131.0664  150.6025 LP  0  0  0  0  0  0  0  0  0  0  0  0  # atno 17371 bound_to 10713
  141.2015  133.7961  157.0437 LP  0  0  0  0  0  0  0  0  0  0  0  0  # atno 17394 bound_to 11000
  140.0712  134.9701  157.1470 LP  0  0  0  0  0  0  0  0  0  0  0  0  # atno 17395 bound_to 11000

$$$$
