AV-unprocessed.smi:2198|AV-procd|sdf|8911|dock4
  -GOLD-   2272012123D 1   1.00000     0.00000
 Structure written by MMmdl.
 43 44  0  0  0  0  0  0  0  0  1 V2000
  154.3070  142.9385  163.5880 C   0  0  0  0  0  0  0  0  0  0  0  0
  153.6013  142.9152  162.2487 C   0  0  0  0  0  0  0  0  0  0  0  0
  152.8301  143.8610  161.8229 N   0  0  0  0  0  0  0  0  0  0  0  0
  152.2328  143.7270  160.5617 C   0  0  0  0  0  0  0  0  0  0  0  0
  151.3431  144.8803  160.1307 C   0  0  0  0  0  0  0  0  0  0  0  0
  152.4466  142.6271  159.7816 C   0  0  0  0  0  0  0  0  0  0  0  0
  151.8142  142.4553  158.4013 C   0  0  0  0  0  0  0  0  0  0  0  0
  150.7682  141.3444  158.2796 C   0  0  0  0  0  0  0  0  0  0  0  0
  150.7332  140.4277  159.1007 O   0  0  0  0  0  0  0  0  0  0  0  0
  149.9217  141.4402  157.2433 N   0  0  0  0  0  0  0  0  0  0  0  0
  148.8567  140.4910  156.9241 C   0  0  2  0  0  0  0  0  0  0  0  0
  149.2886  139.5785  155.7604 C   0  0  0  0  0  0  0  0  0  0  0  0
  149.3428  140.3328  154.4207 C   0  0  0  0  0  0  0  0  0  0  0  0
  148.0056  141.0254  154.1156 C   0  0  0  0  0  0  0  0  0  0  0  0
  147.5860  141.9740  155.2547 C   0  0  1  0  0  0  0  0  0  0  0  0
  146.2485  142.6616  154.9461 C   0  0  0  0  0  0  0  0  0  0  0  0
  147.5321  141.2148  156.5970 C   0  0  0  0  0  0  0  0  0  0  0  0
  153.3280  141.5527  160.2782 C   0  0  0  0  0  0  0  0  0  0  0  0
  153.5917  140.5234  159.6585 O   0  0  0  0  0  0  0  0  0  0  0  0
  153.8592  141.7664  161.5028 N   0  0  0  0  0  0  0  0  0  0  0  0
  154.4708  141.0605  161.8860 H   0  0  0  0  0  0  0  0  0  0  0  0
  154.9859  143.7897  163.6398 H   0  0  0  0  0  0  0  0  0  0  0  0
  154.8866  142.0294  163.7539 H   0  0  0  0  0  0  0  0  0  0  0  0
  153.5792  143.0304  164.3943 H   0  0  0  0  0  0  0  0  0  0  0  0
  150.3132  144.5444  160.0093 H   0  0  0  0  0  0  0  0  0  0  0  0
  151.6859  145.2992  159.1846 H   0  0  0  0  0  0  0  0  0  0  0  0
  151.3476  145.6819  160.8704 H   0  0  0  0  0  0  0  0  0  0  0  0
  151.3567  143.3880  158.0698 H   0  0  0  0  0  0  0  0  0  0  0  0
  152.6107  142.2668  157.6807 H   0  0  0  0  0  0  0  0  0  0  0  0
  150.0247  142.2299  156.6227 H   0  0  0  0  0  0  0  0  0  0  0  0
  148.6983  139.8570  157.7984 H   0  0  0  0  0  0  0  0  0  0  0  0
  150.2571  139.1249  155.9746 H   0  0  0  0  0  0  0  0  0  0  0  0
  148.5806  138.7534  155.6732 H   0  0  0  0  0  0  0  0  0  0  0  0
  150.1420  141.0746  154.4450 H   0  0  0  0  0  0  0  0  0  0  0  0
  149.5929  139.6405  153.6162 H   0  0  0  0  0  0  0  0  0  0  0  0
  148.0873  141.5790  153.1796 H   0  0  0  0  0  0  0  0  0  0  0  0
  147.2334  140.2705  153.9607 H   0  0  0  0  0  0  0  0  0  0  0  0
  148.3413  142.7568  155.3368 H   0  0  0  0  0  0  0  0  0  0  0  0
  145.4418  141.9346  154.8483 H   0  0  0  0  0  0  0  0  0  0  0  0
  146.3027  143.2258  154.0146 H   0  0  0  0  0  0  0  0  0  0  0  0
  145.9742  143.3593  155.7378 H   0  0  0  0  0  0  0  0  0  0  0  0
  146.7296  140.4770  156.5577 H   0  0  0  0  0  0  0  0  0  0  0  0
  147.2682  141.8992  157.4044 H   0  0  0  0  0  0  0  0  0  0  0  0
  1  2  1  0  0  0  0
  1 22  1  0  0  0  0
  1 23  1  0  0  0  0
  1 24  1  0  0  0  0
  2 20  1  0  0  0  0
  2  3  2  0  0  0  0
  3  4  1  0  0  0  0
  4  5  1  0  0  0  0
  4  6  2  0  0  0  0
  5 25  1  0  0  0  0
  5 26  1  0  0  0  0
  5 27  1  0  0  0  0
  6  7  1  0  0  0  0
  6 18  1  0  0  0  0
  7  8  1  0  0  0  0
  7 28  1  0  0  0  0
  7 29  1  0  0  0  0
  8  9  2  0  0  0  0
  8 10  1  0  0  0  0
 10 11  1  0  0  0  0
 10 30  1  0  0  0  0
 11 17  1  0  0  0  0
 11 12  1  0  0  0  0
 11 31  1  0  0  0  0
 12 13  1  0  0  0  0
 12 32  1  0  0  0  0
 12 33  1  0  0  0  0
 13 14  1  0  0  0  0
 13 34  1  0  0  0  0
 13 35  1  0  0  0  0
 14 15  1  0  0  0  0
 14 36  1  0  0  0  0
 14 37  1  0  0  0  0
 15 16  1  0  0  0  0
 15 17  1  0  0  0  0
 15 38  1  0  0  0  0
 16 39  1  0  0  0  0
 16 40  1  0  0  0  0
 16 41  1  0  0  0  0
 17 42  1  0  0  0  0
 17 43  1  0  0  0  0
 18 19  2  0  0  0  0
 18 20  1  0  0  0  0
 20 21  1  0  0  0  0
M  END
> <s_m_source_file>
AV-unprocessed.smi

> <i_m_source_file_index>
2198

> <i_lp_mmshare_version>
43012

> <i_f3d_flags>
0

> <s_epik_input>
W0NIM11jMW5jKFtDSDNdKWMoYyg9TylbbkhdMSlbQ0gyXUMoPU8pW05IXVtDQEBIXTJbQ0gyXVtDSDJdW0NIMl1bQ0BASF0oW0NIM10pW0NIMl0y

> <s_epik_cmdline>
J2VwaWtfcHl0aG9uJywgJy1waCcsICc3LjAnLCAnLXRuJywgJzgnLCAnLW1hJywgJzIwMCcsICctbWV0YWxfYmluZGluZycsICctaW1hZScsICc8aW5maWxlLm1hZT4nLCAnLW9tYWUnLCAnPG91dGZpbGUubWFlPic=

> <r_lp_tautomer_probability>
0.839158

> <r_epik_Ionization_Penalty>
0.000372587

> <r_epik_Ionization_Penalty_Charging>
0.000337977

> <r_epik_Ionization_Penalty_Neutral>
3.46101e-05

> <r_epik_State_Penalty>
0.09125

> <r_epik_Charging_Adjusted_Penalty>
0.091588

> <i_epik_Tot_Q>
0

> <i_epik_Tot_abs_Q>
0

> <r_epik_Metal_State_Penalty>
0.25197

> <b_epik_Metal_Only>
0

> <s_lp_Force_Field>
OPLS_2005

> <r_lp_Energy>
10.2455

> <b_lp_Chiralities_Consistent>
1

> <s_lp_Variant>
AV-unprocessed.smi:2198-1

> <Gold.Version>
5.8.1

> <Gold.Id.Protein>
6NUR|6NUR_protein|mol2

> <Gold.PLP.Fitness>
37.8756

> <Gold.PLP.PLP>
-38.9511

> <Gold.PLP.part.hbond>
-0.9180

> <Gold.PLP.part.metal>
0.0000

> <Gold.PLP.part.buried>
-1.6020

> <Gold.PLP.part.nonpolar>
-35.4816

> <Gold.PLP.part.repulsive>
0.2440

> <Gold.PLP.ligand.clash>
0.0000

> <Gold.PLP.ligand.torsion>
0.5439

> <Gold.PLP.Chemscore.Hbond>
0.0000

> <Gold.PLP.Chemscore.CHOScore>
0.0000

> <Gold.PLP.Chemscore.Metal>
0.0000

> <Gold.PLP.Chemscore.Internal.Correction>
0.0124

> <Gold.Rescore>
     Score         DG    S(hbond)    S(metal)    S(lipo)     H(rot)  DE(clash)    DE(int)     intcor
     11.09     -11.68       0.00        0.00      85.37       1.48       0.08       0.51       ----

> <Gold.Chemscore.Fitness>
11.0938

> <Gold.Chemscore.DG>
-11.6790

> <Gold.Chemscore.ZeroCoef>
-5.4800

> <Gold.Chemscore.Hbond>
0.0000

> <Gold.Chemscore.Metal>
0.0000

> <Gold.Chemscore.Lipo>
85.3683

> <Gold.Chemscore.Internal_Hbond>
0.0000

> <Gold.Chemscore.DEClash>
0.0758

> <Gold.Chemscore.DEInternal>
0.5094

> <Gold.Chemscore.Rot>
1.4801

> <Gold.Chemscore.Internal.Correction>
   9.000000E+99

> <Gold.Chemscore.Hbond.Weighted>
-0.0000

> <Gold.Chemscore.Metal.Weighted>
-0.0000

> <Gold.Chemscore.Lipo.Weighted>
-9.9881

> <Gold.Chemscore.Internal_Hbond.Weighted>
0.0000

> <Gold.Chemscore.DEClash.Weighted>
0.0758

> <Gold.Chemscore.DEInternal.Weighted>
0.5094

> <Gold.Chemscore.Rot.Weighted>
3.7891

> <Gold.Chemscore.Internal.Correction.Weighted>
   9.000000E+99

> <Gold.Protein.RotatedTorsions>
[ 6907 6896 6895 6894 ] final   68.97 input  -60.11 | X-H torsion
[ 7974 7965 7964 7962 ] final   83.63 input  175.53 | X-H torsion
[ 8008 7997 7996 7995 ] final  160.23 input   59.86 | X-H torsion
[ 10167 10162 10161 10158 ] final   60.30 input  -65.29 | X-H torsion
[ 10718 10713 10712 10709 ] final   79.88 input   66.30 | X-H torsion
[ 10763 10752 10751 10750 ] final -154.82 input  -60.55 | X-H torsion
[ 11005 11000 10999 10996 ] final -164.45 input  -57.11 | X-H torsion

> <Gold.Protein.ActiveResidues>
 VAL166  LYS551  ARG553  GLY616  TRP617  ASP618  TYR619  PRO620  LYS621  CYS622 
 ASP623  PHE694  ASN695  SER759  ASP760  ASP761  ALA762  ILE779  LEU786  VAL792 
 PHE793  MET794  SER795  GLU796  ALA797  LYS798  CYS799  TRP800  GLU811  SER814 

> <Gold.Protein.RotatedAtoms>
  152.4656  134.5084  159.9745 H   0  0  0  0  0  0  0  0  0  0  0  0  # atno 6907 bound_to 6896
  151.5122  133.3477  159.2895 H   0  0  0  0  0  0  0  0  0  0  0  0  # atno 6908 bound_to 6896
  150.8638  134.8025  159.7165 H   0  0  0  0  0  0  0  0  0  0  0  0  # atno 6909 bound_to 6896
  145.6094  139.2366  143.2200 H   0  0  0  0  0  0  0  0  0  0  0  0  # atno 7974 bound_to 7965
  156.2186  140.1810  156.7529 H   0  0  0  0  0  0  0  0  0  0  0  0  # atno 8008 bound_to 7997
  154.5830  140.0663  156.9160 H   0  0  0  0  0  0  0  0  0  0  0  0  # atno 8009 bound_to 7997
  155.2468  140.3326  155.4289 H   0  0  0  0  0  0  0  0  0  0  0  0  # atno 8010 bound_to 7997
  140.1671  144.4313  150.6680 H   0  0  0  0  0  0  0  0  0  0  0  0  # atno 10167 bound_to 10162
  157.6790  130.9934  150.1998 H   0  0  0  0  0  0  0  0  0  0  0  0  # atno 10718 bound_to 10713
  154.7831  135.3181  154.7945 H   0  0  0  0  0  0  0  0  0  0  0  0  # atno 10763 bound_to 10752
  153.8652  135.6849  153.4783 H   0  0  0  0  0  0  0  0  0  0  0  0  # atno 10764 bound_to 10752
  153.1474  135.4713  154.9524 H   0  0  0  0  0  0  0  0  0  0  0  0  # atno 10765 bound_to 10752
  140.5868  134.5085  157.5187 H   0  0  0  0  0  0  0  0  0  0  0  0  # atno 11005 bound_to 11000
  146.1515  140.6918  142.9319 LP  0  0  0  0  0  0  0  0  0  0  0  0  # atno 17320 bound_to 7965
  144.7276  140.4573  143.6961 LP  0  0  0  0  0  0  0  0  0  0  0  0  # atno 17321 bound_to 7965
  140.6606  143.2251  151.5865 LP  0  0  0  0  0  0  0  0  0  0  0  0  # atno 17342 bound_to 10162
  139.5354  144.2795  152.1241 LP  0  0  0  0  0  0  0  0  0  0  0  0  # atno 17343 bound_to 10162
  156.2691  130.3719  149.8050 LP  0  0  0  0  0  0  0  0  0  0  0  0  # atno 17370 bound_to 10713
  156.5772  130.8450  151.3373 LP  0  0  0  0  0  0  0  0  0  0  0  0  # atno 17371 bound_to 10713
  139.9292  134.7997  156.0980 LP  0  0  0  0  0  0  0  0  0  0  0  0  # atno 17394 bound_to 11000
  141.0961  133.6695  156.2647 LP  0  0  0  0  0  0  0  0  0  0  0  0  # atno 17395 bound_to 11000

$$$$
