AV-unprocessed.smi:1464|AV-procd|sdf|5935|dock10
  -GOLD-   22720 6 13D 1   1.00000     0.00000
 Structure written by MMmdl.
 40 41  0  0  0  0  0  0  0  0  2 V2000
  151.4668  145.3670  161.1205 C   0  0  0  0  0  0  0  0  0  0  0  0
  151.9656  143.9308  160.8807 C   0  0  2  0  0  0  0  0  0  0  0  0
  152.8636  143.4877  162.0542 C   0  0  0  0  0  0  0  0  0  0  0  0
  153.3834  142.0542  161.8800 C   0  0  0  0  0  0  0  0  0  0  0  0
  154.1204  141.8921  160.5418 C   0  0  0  0  0  0  0  0  0  0  0  0
  153.2433  142.3141  159.3486 C   0  0  1  0  0  0  0  0  0  0  0  0
  152.1548  141.3497  159.1772 N   0  0  0  0  0  0  0  0  0  0  0  0
  152.2430  140.1428  158.5969 C   0  0  0  0  0  0  0  0  0  0  0  0
  153.2926  139.6769  158.1524 O   0  0  0  0  0  0  0  0  0  0  0  0
  150.9392  139.3375  158.5192 C   0  0  0  0  0  0  0  0  0  0  0  0
  150.8444  138.5256  157.2981 N   0  0  0  0  0  0  0  0  0  0  0  0
  151.3613  137.1681  157.4458 N   0  5  0  0  0  0  0  0  0  0  0  0
  151.3445  136.3328  156.3733 C   0  0  0  0  0  0  0  0  0  0  0  0
  151.7823  135.1854  156.4151 O   0  0  0  0  0  0  0  0  0  0  0  0
  150.7776  136.8272  155.1294 C   0  0  0  0  0  0  0  0  0  0  0  0
  150.2833  138.0768  155.0291 C   0  0  0  0  0  0  0  0  0  0  0  0
  150.2891  139.0091  156.1496 C   0  0  0  0  0  0  0  0  0  0  0  0
  149.8285  140.1483  156.0678 O   0  0  0  0  0  0  0  0  0  0  0  0
  152.7153  143.7644  159.5291 C   0  0  1  0  0  0  0  0  0  0  0  0
  151.8867  144.2322  158.3156 C   0  0  0  0  0  0  0  0  0  0  0  0
  152.2851  146.0855  161.0671 H   0  0  0  0  0  0  0  0  0  0  0  0
  151.0059  145.4622  162.1039 H   0  0  0  0  0  0  0  0  0  0  0  0
  150.7125  145.6596  160.3904 H   0  0  0  0  0  0  0  0  0  0  0  0
  151.0880  143.2828  160.8680 H   0  0  0  0  0  0  0  0  0  0  0  0
  153.7109  144.1690  162.1439 H   0  0  0  0  0  0  0  0  0  0  0  0
  152.3127  143.5590  162.9927 H   0  0  0  0  0  0  0  0  0  0  0  0
  154.0523  141.8008  162.7029 H   0  0  0  0  0  0  0  0  0  0  0  0
  152.5509  141.3519  161.9350 H   0  0  0  0  0  0  0  0  0  0  0  0
  155.0245  142.5020  160.5553 H   0  0  0  0  0  0  0  0  0  0  0  0
  154.4532  140.8603  160.4210 H   0  0  0  0  0  0  0  0  0  0  0  0
  153.8792  142.2894  158.4618 H   0  0  0  0  0  0  0  0  0  0  0  0
  151.2462  141.6371  159.5103 H   0  0  0  0  0  0  0  0  0  0  0  0
  150.8812  138.7066  159.4079 H   0  0  0  0  0  0  0  0  0  0  0  0
  150.0782  140.0063  158.5776 H   0  0  0  0  0  0  0  0  0  0  0  0
  150.7490  136.1769  154.2675 H   0  0  0  0  0  0  0  0  0  0  0  0
  149.8695  138.4018  154.0861 H   0  0  0  0  0  0  0  0  0  0  0  0
  153.5932  144.4115  159.5658 H   0  0  0  0  0  0  0  0  0  0  0  0
  150.9148  143.7403  158.2767 H   0  0  0  0  0  0  0  0  0  0  0  0
  152.4062  144.0167  157.3816 H   0  0  0  0  0  0  0  0  0  0  0  0
  151.7129  145.3076  158.3381 H   0  0  0  0  0  0  0  0  0  0  0  0
  1  2  1  0  0  0  0
  1 21  1  0  0  0  0
  1 22  1  0  0  0  0
  1 23  1  0  0  0  0
  2 19  1  0  0  0  0
  2  3  1  0  0  0  0
  2 24  1  0  0  0  0
  3  4  1  0  0  0  0
  3 25  1  0  0  0  0
  3 26  1  0  0  0  0
  4  5  1  0  0  0  0
  4 27  1  0  0  0  0
  4 28  1  0  0  0  0
  5  6  1  0  0  0  0
  5 29  1  0  0  0  0
  5 30  1  0  0  0  0
  6  7  1  0  0  0  0
  6 19  1  0  0  0  0
  6 31  1  0  0  0  0
  7  8  1  0  0  0  0
  7 32  1  0  0  0  0
  8  9  2  0  0  0  0
  8 10  1  0  0  0  0
 10 33  1  0  0  0  0
 10 34  1  0  0  0  0
 10 11  1  0  0  0  0
 11 12  1  0  0  0  0
 11 17  1  0  0  0  0
 12 13  1  0  0  0  0
 13 14  2  0  0  0  0
 13 15  1  0  0  0  0
 15 35  1  0  0  0  0
 15 16  2  0  0  0  0
 16 36  1  0  0  0  0
 16 17  1  0  0  0  0
 17 18  2  0  0  0  0
 19 20  1  0  0  0  0
 19 37  1  0  0  0  0
 20 38  1  0  0  0  0
 20 39  1  0  0  0  0
 20 40  1  0  0  0  0
M  CHG  1  12  -1
M  END
> <s_m_source_file>
AV-unprocessed.smi

> <i_m_source_file_index>
1464

> <i_lp_mmshare_version>
43012

> <i_f3d_flags>
0

> <s_epik_input>
W0NIM11bQ0BASF0xW0NIMl1bQ0gyXVtDSDJdW0NASF0oW0NASF0xW0NIM10pW05IXUMoPU8pW0NIMl1uMltuSF1jKD1PKVtjSF1bY0hdYzI9Tw==

> <s_epik_cmdline>
J2VwaWtfcHl0aG9uJywgJy1waCcsICc3LjAnLCAnLXRuJywgJzgnLCAnLW1hJywgJzIwMCcsICctbWV0YWxfYmluZGluZycsICctaW1hZScsICc8aW5maWxlLm1hZT4nLCAnLW9tYWUnLCAnPG91dGZpbGUubWFlPic=

> <r_lp_tautomer_probability>
1

> <r_epik_Ionization_Penalty>
0.101366

> <r_epik_Ionization_Penalty_Charging>
0.101366

> <r_epik_Ionization_Penalty_Neutral>
1.90469e-08

> <r_epik_State_Penalty>
0.035861

> <r_epik_Charging_Adjusted_Penalty>
0.137227

> <i_epik_Tot_Q>
-1

> <i_epik_Tot_abs_Q>
1

> <r_epik_Metal_State_Penalty>
0.035861

> <b_epik_Metal_Only>
0

> <s_lp_Force_Field>
OPLS_2005

> <r_lp_Energy>
26.1624

> <b_lp_Chiralities_Consistent>
1

> <s_lp_Variant>
AV-unprocessed.smi:1464-1

> <Gold.Version>
5.8.1

> <Gold.Id.Protein>
6NUR|6NUR_protein|mol2

> <Gold.PLP.Fitness>
52.0099

> <Gold.PLP.PLP>
-45.9536

> <Gold.PLP.part.hbond>
-3.0000

> <Gold.PLP.part.metal>
0.0000

> <Gold.PLP.part.buried>
-3.4824

> <Gold.PLP.part.nonpolar>
-39.2947

> <Gold.PLP.part.repulsive>
0.2077

> <Gold.PLP.ligand.clash>
0.0000

> <Gold.PLP.ligand.torsion>
1.0133

> <Gold.PLP.Chemscore.Hbond>
2.6912

> <Gold.PLP.Chemscore.CHOScore>
0.0000

> <Gold.PLP.Chemscore.Metal>
0.0000

> <Gold.Chemscore.Hbonds>
donor molecule, donor type, donor heavy atom, donor atom, acceptor molecule, acceptor atom, score
      P1  H  7997  8008       L1     9  1.00
      P1  H 10752 10763       L1    14  0.90

> <Gold.PLP.Chemscore.Internal.Correction>
0.0093

> <Gold.Rescore>
     Score         DG    S(hbond)    S(metal)    S(lipo)     H(rot)  DE(clash)    DE(int)     intcor
     20.43     -21.66       1.99        0.00     117.38       1.64       0.46       0.76       ----

> <Gold.Chemscore.Fitness>
20.4316

> <Gold.Chemscore.DG>
-21.6575

> <Gold.Chemscore.ZeroCoef>
-5.4800

> <Gold.Chemscore.Hbond>
1.9916

> <Gold.Chemscore.Metal>
0.0000

> <Gold.Chemscore.Lipo>
117.3798

> <Gold.Chemscore.Internal_Hbond>
0.0000

> <Gold.Chemscore.DEClash>
0.4623

> <Gold.Chemscore.DEInternal>
0.7636

> <Gold.Chemscore.Rot>
1.6438

> <Gold.Chemscore.Internal.Correction>
   9.000000E+99

> <Gold.Chemscore.Hbonds>
donor molecule, donor type, donor heavy atom, donor atom, acceptor molecule, acceptor atom, score
      P1  H  7997  8008       L1     9  0.99
      P1  H 10752 10763       L1    14  0.18

> <Gold.Chemscore.Hbond.Weighted>
-6.6521

> <Gold.Chemscore.Metal.Weighted>
-0.0000

> <Gold.Chemscore.Lipo.Weighted>
-13.7334

> <Gold.Chemscore.Internal_Hbond.Weighted>
0.0000

> <Gold.Chemscore.DEClash.Weighted>
0.4623

> <Gold.Chemscore.DEInternal.Weighted>
0.7636

> <Gold.Chemscore.Rot.Weighted>
4.2080

> <Gold.Chemscore.Internal.Correction.Weighted>
   9.000000E+99

> <Gold.Protein.RotatedTorsions>
[ 6907 6896 6895 6894 ] final -179.74 input  -60.11 | X-H torsion
[ 7974 7965 7964 7962 ] final  -97.42 input  175.53 | X-H torsion
[ 8008 7997 7996 7995 ] final  -73.45 input   59.86 | X-H torsion
[ 10167 10162 10161 10158 ] final   53.89 input  -65.29 | X-H torsion
[ 10718 10713 10712 10709 ] final   38.31 input   66.30 | X-H torsion
[ 10763 10752 10751 10750 ] final   96.87 input  -60.55 | X-H torsion
[ 11005 11000 10999 10996 ] final    3.60 input  -57.11 | X-H torsion

> <Gold.Protein.ActiveResidues>
 VAL166  LYS551  ARG553  GLY616  TRP617  ASP618  TYR619  PRO620  LYS621  CYS622 
 ASP623  PHE694  ASN695  SER759  ASP760  ASP761  ALA762  ILE779  LEU786  VAL792 
 PHE793  MET794  SER795  GLU796  ALA797  LYS798  CYS799  TRP800  GLU811  SER814 

> <Gold.Protein.RotatedAtoms>
  151.6583  133.3318  159.3167 H   0  0  0  0  0  0  0  0  0  0  0  0  # atno 6907 bound_to 6896
  150.7926  134.6965  159.6536 H   0  0  0  0  0  0  0  0  0  0  0  0  # atno 6908 bound_to 6896
  152.4008  134.6293  160.0123 H   0  0  0  0  0  0  0  0  0  0  0  0  # atno 6909 bound_to 6896
  145.3339  140.9447  143.2646 H   0  0  0  0  0  0  0  0  0  0  0  0  # atno 7974 bound_to 7965
  154.5248  140.0779  156.8239 H   0  0  0  0  0  0  0  0  0  0  0  0  # atno 8008 bound_to 7997
  155.3498  140.3412  155.4221 H   0  0  0  0  0  0  0  0  0  0  0  0  # atno 8009 bound_to 7997
  156.1720  140.1623  156.8417 H   0  0  0  0  0  0  0  0  0  0  0  0  # atno 8010 bound_to 7997
  140.2360  144.3635  150.6397 H   0  0  0  0  0  0  0  0  0  0  0  0  # atno 10167 bound_to 10162
  157.3573  130.7630  149.7021 H   0  0  0  0  0  0  0  0  0  0  0  0  # atno 10718 bound_to 10713
  153.2701  135.4203  155.0980 H   0  0  0  0  0  0  0  0  0  0  0  0  # atno 10763 bound_to 10752
  154.8453  135.3470  154.6255 H   0  0  0  0  0  0  0  0  0  0  0  0  # atno 10764 bound_to 10752
  153.6675  135.7045  153.5215 H   0  0  0  0  0  0  0  0  0  0  0  0  # atno 10765 bound_to 10752
  140.5913  133.9921  155.8090 H   0  0  0  0  0  0  0  0  0  0  0  0  # atno 11005 bound_to 11000
  144.8842  139.4862  143.6708 LP  0  0  0  0  0  0  0  0  0  0  0  0  # atno 17320 bound_to 7965
  146.3034  139.7501  142.9074 LP  0  0  0  0  0  0  0  0  0  0  0  0  # atno 17321 bound_to 7965
  140.6149  143.2172  151.6811 LP  0  0  0  0  0  0  0  0  0  0  0  0  # atno 17342 bound_to 10162
  139.5093  144.3580  152.0589 LP  0  0  0  0  0  0  0  0  0  0  0  0  # atno 17343 bound_to 10162
  155.9731  130.4124  150.4028 LP  0  0  0  0  0  0  0  0  0  0  0  0  # atno 17370 bound_to 10713
  157.2100  131.0458  151.2604 LP  0  0  0  0  0  0  0  0  0  0  0  0  # atno 17371 bound_to 10713
  141.0933  133.9883  157.3202 LP  0  0  0  0  0  0  0  0  0  0  0  0  # atno 17394 bound_to 11000
  139.9273  135.0201  156.8278 LP  0  0  0  0  0  0  0  0  0  0  0  0  # atno 17395 bound_to 11000

$$$$
