AV-unprocessed.smi:564|AV-procd|sdf|2948|dock1
  -GOLD-   2262023443D 1   1.00000     0.00000
 Structure written by MMmdl.
 50 51  0  0  0  0  0  0  0  0  2 V2000
  148.7784  136.9098  158.6554 C   0  0  0  0  0  0  0  0  0  0  0  0
  148.2798  136.3654  159.9635 C   0  0  0  0  0  0  0  0  0  0  0  0
  148.2318  137.1574  161.0217 N   0  0  0  0  0  0  0  0  0  0  0  0
  147.7454  136.3811  162.0107 N   0  0  0  0  0  0  0  0  0  0  0  0
  147.5643  136.9465  163.3337 C   0  0  0  0  0  0  0  0  0  0  0  0
  147.4871  135.0953  161.5766 C   0  0  0  0  0  0  0  0  0  0  0  0
  146.9394  134.0425  162.4851 C   0  0  0  0  0  0  0  0  0  0  0  0
  147.8253  135.0448  160.2504 C   0  0  0  0  0  0  0  0  0  0  0  0
  147.7456  133.8783  159.2978 C   0  0  0  0  0  0  0  0  0  0  0  0
  146.7599  134.1801  158.1659 C   0  0  0  0  0  0  0  0  0  0  0  0
  145.5484  134.2030  158.3849 O   0  0  0  0  0  0  0  0  0  0  0  0
  147.2913  134.4145  156.9572 N   0  0  0  0  0  0  0  0  0  0  0  0
  146.5176  134.7169  155.7609 C   0  0  0  0  0  0  0  0  0  0  0  0
  147.4046  135.4021  154.7078 C   0  0  0  0  0  0  0  0  0  0  0  0
  146.8642  135.3023  153.3248 N   0  3  1  0  0  0  0  0  0  0  0  0
  146.5990  133.8917  152.9310 C   0  0  0  0  0  0  0  0  0  0  0  0
  146.2552  133.7802  151.4373 C   0  0  0  0  0  0  0  0  0  0  0  0
  145.0678  134.6789  151.0771 C   0  0  0  0  0  0  0  0  0  0  0  0
  145.3583  136.1227  151.5085 C   0  0  0  0  0  0  0  0  0  0  0  0
  145.7270  136.2227  153.0042 C   0  0  1  0  0  0  0  0  0  0  0  0
  144.4984  136.0329  153.9200 C   0  0  0  0  0  0  0  0  0  0  0  0
  148.0688  136.7049  157.8536 H   0  0  0  0  0  0  0  0  0  0  0  0
  149.7295  136.4532  158.3819 H   0  0  0  0  0  0  0  0  0  0  0  0
  148.9274  137.9895  158.6954 H   0  0  0  0  0  0  0  0  0  0  0  0
  148.2727  136.4911  164.0256 H   0  0  0  0  0  0  0  0  0  0  0  0
  146.5497  136.7525  163.6818 H   0  0  0  0  0  0  0  0  0  0  0  0
  147.7286  138.0248  163.3175 H   0  0  0  0  0  0  0  0  0  0  0  0
  146.7580  133.1118  161.9480 H   0  0  0  0  0  0  0  0  0  0  0  0
  145.9941  134.3622  162.9238 H   0  0  0  0  0  0  0  0  0  0  0  0
  147.6358  133.8310  163.2968 H   0  0  0  0  0  0  0  0  0  0  0  0
  148.7175  133.6634  158.8528 H   0  0  0  0  0  0  0  0  0  0  0  0
  147.4481  132.9677  159.8195 H   0  0  0  0  0  0  0  0  0  0  0  0
  148.2961  134.3768  156.8629 H   0  0  0  0  0  0  0  0  0  0  0  0
  146.1093  133.7790  155.3850 H   0  0  0  0  0  0  0  0  0  0  0  0
  145.6751  135.3631  156.0132 H   0  0  0  0  0  0  0  0  0  0  0  0
  147.4762  136.4587  154.9707 H   0  0  0  0  0  0  0  0  0  0  0  0
  148.4235  135.0164  154.7478 H   0  0  0  0  0  0  0  0  0  0  0  0
  147.4819  133.2837  153.1319 H   0  0  0  0  0  0  0  0  0  0  0  0
  145.7942  133.4774  153.5389 H   0  0  0  0  0  0  0  0  0  0  0  0
  147.1229  134.0631  150.8399 H   0  0  0  0  0  0  0  0  0  0  0  0
  146.0294  132.7442  151.1827 H   0  0  0  0  0  0  0  0  0  0  0  0
  144.8788  134.6385  150.0038 H   0  0  0  0  0  0  0  0  0  0  0  0
  144.1628  134.3145  151.5644 H   0  0  0  0  0  0  0  0  0  0  0  0
  146.1837  136.5110  150.9100 H   0  0  0  0  0  0  0  0  0  0  0  0
  144.5009  136.7589  151.2852 H   0  0  0  0  0  0  0  0  0  0  0  0
  146.0749  137.2445  153.1511 H   0  0  0  0  0  0  0  0  0  0  0  0
  143.6917  136.7044  153.6247 H   0  0  0  0  0  0  0  0  0  0  0  0
  144.7284  136.2625  154.9600 H   0  0  0  0  0  0  0  0  0  0  0  0
  144.1032  135.0182  153.8813 H   0  0  0  0  0  0  0  0  0  0  0  0
  147.6209  135.5997  152.7250 H   0  0  0  0  0  0  0  0  0  0  0  0
  1  2  1  0  0  0  0
  1 22  1  0  0  0  0
  1 23  1  0  0  0  0
  1 24  1  0  0  0  0
  2  8  1  0  0  0  0
  2  3  2  0  0  0  0
  3  4  1  0  0  0  0
  4  5  1  0  0  0  0
  4  6  1  0  0  0  0
  5 25  1  0  0  0  0
  5 26  1  0  0  0  0
  5 27  1  0  0  0  0
  6  7  1  0  0  0  0
  6  8  2  0  0  0  0
  7 28  1  0  0  0  0
  7 29  1  0  0  0  0
  7 30  1  0  0  0  0
  8  9  1  0  0  0  0
  9 10  1  0  0  0  0
  9 31  1  0  0  0  0
  9 32  1  0  0  0  0
 10 11  2  0  0  0  0
 10 12  1  0  0  0  0
 12 13  1  0  0  0  0
 12 33  1  0  0  0  0
 13 14  1  0  0  0  0
 13 34  1  0  0  0  0
 13 35  1  0  0  0  0
 14 15  1  0  0  0  0
 14 36  1  0  0  0  0
 14 37  1  0  0  0  0
 15 20  1  0  0  0  0
 15 16  1  0  0  0  0
 15 50  1  0  0  0  0
 16 17  1  0  0  0  0
 16 38  1  0  0  0  0
 16 39  1  0  0  0  0
 17 18  1  0  0  0  0
 17 40  1  0  0  0  0
 17 41  1  0  0  0  0
 18 19  1  0  0  0  0
 18 42  1  0  0  0  0
 18 43  1  0  0  0  0
 19 20  1  0  0  0  0
 19 44  1  0  0  0  0
 19 45  1  0  0  0  0
 20 21  1  0  0  0  0
 20 46  1  0  0  0  0
 21 47  1  0  0  0  0
 21 48  1  0  0  0  0
 21 49  1  0  0  0  0
M  CHG  1  15   1
M  END
> <s_m_source_file>
AV-unprocessed.smi

> <i_m_source_file_index>
564

> <i_lp_mmshare_version>
43012

> <i_f3d_flags>
0

> <s_epik_input>
W0NIM11jMW5uKFtDSDNdKWMoW0NIM10pYzFbQ0gyXUMoPU8pW05IXVtDSDJdW0NIMl1OMltDSDJdW0NIMl1bQ0gyXVtDSDJdW0NASF0yW0NIM10=

> <s_epik_cmdline>
J2VwaWtfcHl0aG9uJywgJy1waCcsICc3LjAnLCAnLXRuJywgJzgnLCAnLW1hJywgJzIwMCcsICctbWV0YWxfYmluZGluZycsICctaW1hZScsICc8aW5maWxlLm1hZT4nLCAnLW9tYWUnLCAnPG91dGZpbGUubWFlPic=

> <r_lp_tautomer_probability>
1

> <r_epik_Ionization_Penalty>
0.00456826

> <r_epik_Ionization_Penalty_Charging>
0.00240401

> <r_epik_Ionization_Penalty_Neutral>
0.00216425

> <r_epik_State_Penalty>
-0

> <r_epik_Charging_Adjusted_Penalty>
0.00240401

> <i_epik_Tot_Q>
1

> <i_epik_Tot_abs_Q>
1

> <r_epik_Metal_State_Penalty>
-0

> <b_epik_Metal_Only>
0

> <s_lp_Force_Field>
OPLS_2005

> <r_lp_Energy>
16.0318

> <b_lp_Chiralities_Consistent>
1

> <s_lp_Variant>
AV-unprocessed.smi:564-2

> <Gold.Version>
5.8.1

> <Gold.Id.Protein>
6NUR|6NUR_protein|mol2

> <Gold.PLP.Fitness>
43.8174

> <Gold.PLP.PLP>
-33.6641

> <Gold.PLP.part.hbond>
-3.0000

> <Gold.PLP.part.metal>
0.0000

> <Gold.PLP.part.buried>
-3.5182

> <Gold.PLP.part.nonpolar>
-26.9180

> <Gold.PLP.part.repulsive>
0.0027

> <Gold.PLP.ligand.clash>
0.0000

> <Gold.PLP.ligand.torsion>
0.4557

> <Gold.PLP.Chemscore.Hbond>
3.6281

> <Gold.PLP.Chemscore.CHOScore>
0.0000

> <Gold.PLP.Chemscore.Metal>
0.0000

> <Gold.Chemscore.Hbonds>
donor molecule, donor type, donor heavy atom, donor atom, acceptor molecule, acceptor atom, score
      L1  H    15    50       P1  7948  2.00
      P1  H  6931  6943       L1     3  0.99
      P1  H  6934  6947       L1     3  0.47

> <Gold.PLP.Chemscore.Internal.Correction>
0.1804

> <Gold.Rescore>
     Score         DG    S(hbond)    S(metal)    S(lipo)     H(rot)  DE(clash)    DE(int)     intcor
     16.57     -17.09       2.22        0.00      71.23       1.61       0.13       0.39       ----

> <Gold.Chemscore.Fitness>
16.5684

> <Gold.Chemscore.DG>
-17.0883

> <Gold.Chemscore.ZeroCoef>
-5.4800

> <Gold.Chemscore.Hbond>
2.2175

> <Gold.Chemscore.Metal>
0.0000

> <Gold.Chemscore.Lipo>
71.2323

> <Gold.Chemscore.Internal_Hbond>
0.0000

> <Gold.Chemscore.DEClash>
0.1346

> <Gold.Chemscore.DEInternal>
0.3853

> <Gold.Chemscore.Rot>
1.6142

> <Gold.Chemscore.Internal.Correction>
   9.000000E+99

> <Gold.Chemscore.Hbonds>
donor molecule, donor type, donor heavy atom, donor atom, acceptor molecule, acceptor atom, score
      L1  H    15    50       P1  7948  1.00
      P1  H  6931  6943       L1     3  0.24
      P1  H  6934  6947       L1     3  0.37

> <Gold.Chemscore.Hbond.Weighted>
-7.4065

> <Gold.Chemscore.Metal.Weighted>
-0.0000

> <Gold.Chemscore.Lipo.Weighted>
-8.3342

> <Gold.Chemscore.Internal_Hbond.Weighted>
0.0000

> <Gold.Chemscore.DEClash.Weighted>
0.1346

> <Gold.Chemscore.DEInternal.Weighted>
0.3853

> <Gold.Chemscore.Rot.Weighted>
4.1324

> <Gold.Chemscore.Internal.Correction.Weighted>
   9.000000E+99

> <Gold.Protein.RotatedTorsions>
[ 6907 6896 6895 6894 ] final  108.16 input  -60.11 | X-H torsion
[ 7974 7965 7964 7962 ] final -176.30 input  175.53 | X-H torsion
[ 8008 7997 7996 7995 ] final  -81.85 input   59.86 | X-H torsion
[ 10167 10162 10161 10158 ] final   25.08 input  -65.29 | X-H torsion
[ 10718 10713 10712 10709 ] final  -18.69 input   66.30 | X-H torsion
[ 10763 10752 10751 10750 ] final  -96.44 input  -60.55 | X-H torsion
[ 11005 11000 10999 10996 ] final  -54.51 input  -57.11 | X-H torsion

> <Gold.Protein.ActiveResidues>
 VAL166  LYS551  ARG553  GLY616  TRP617  ASP618  TYR619  PRO620  LYS621  CYS622 
 ASP623  PHE694  ASN695  SER759  ASP760  ASP761  ALA762  ILE779  LEU786  VAL792 
 PHE793  MET794  SER795  GLU796  ALA797  LYS798  CYS799  TRP800  GLU811  SER814 

> <Gold.Protein.RotatedAtoms>
  152.5124  133.9130  159.7496 H   0  0  0  0  0  0  0  0  0  0  0  0  # atno 6907 bound_to 6896
  150.9519  133.6532  159.2777 H   0  0  0  0  0  0  0  0  0  0  0  0  # atno 6908 bound_to 6896
  151.3807  135.0944  159.9548 H   0  0  0  0  0  0  0  0  0  0  0  0  # atno 6909 bound_to 6896
  144.7127  140.1192  143.6406 H   0  0  0  0  0  0  0  0  0  0  0  0  # atno 7974 bound_to 7965
  154.6025  140.0642  156.9388 H   0  0  0  0  0  0  0  0  0  0  0  0  # atno 8008 bound_to 7997
  155.2108  140.3322  155.4311 H   0  0  0  0  0  0  0  0  0  0  0  0  # atno 8009 bound_to 7997
  156.2327  140.1848  156.7184 H   0  0  0  0  0  0  0  0  0  0  0  0  # atno 8010 bound_to 7997
  140.5135  144.0120  150.6383 H   0  0  0  0  0  0  0  0  0  0  0  0  # atno 10167 bound_to 10162
  156.5560  130.4713  149.6429 H   0  0  0  0  0  0  0  0  0  0  0  0  # atno 10718 bound_to 10713
  154.7239  135.5083  153.8856 H   0  0  0  0  0  0  0  0  0  0  0  0  # atno 10763 bound_to 10752
  153.0887  135.6653  153.9905 H   0  0  0  0  0  0  0  0  0  0  0  0  # atno 10764 bound_to 10752
  153.9722  135.3037  155.3406 H   0  0  0  0  0  0  0  0  0  0  0  0  # atno 10765 bound_to 10752
  141.1029  133.6616  156.4331 H   0  0  0  0  0  0  0  0  0  0  0  0  # atno 11005 bound_to 11000
  145.9386  139.2654  143.1282 LP  0  0  0  0  0  0  0  0  0  0  0  0  # atno 17320 bound_to 7965
  145.9447  140.8953  143.0290 LP  0  0  0  0  0  0  0  0  0  0  0  0  # atno 17321 bound_to 7965
  140.3449  143.2997  152.0548 LP  0  0  0  0  0  0  0  0  0  0  0  0  # atno 17342 bound_to 10162
  139.4903  144.6415  151.6866 LP  0  0  0  0  0  0  0  0  0  0  0  0  # atno 17343 bound_to 10162
  156.2842  130.7088  151.1920 LP  0  0  0  0  0  0  0  0  0  0  0  0  # atno 17370 bound_to 10713
  157.7378  131.0548  150.5333 LP  0  0  0  0  0  0  0  0  0  0  0  0  # atno 17371 bound_to 10713
  140.4976  134.6516  157.5236 LP  0  0  0  0  0  0  0  0  0  0  0  0  # atno 17394 bound_to 11000
  139.9887  134.7020  155.9727 LP  0  0  0  0  0  0  0  0  0  0  0  0  # atno 17395 bound_to 11000

$$$$
