AV-unprocessed.smi:2847|AV-procd|sdf|10953|dock7
  -GOLD-   2272015403D 1   1.00000     0.00000
 Structure written by MMmdl.
 45 46  0  0  0  0  0  0  0  0  1 V2000
  145.9473  134.0094  162.2085 C   0  0  0  0  0  0  0  0  0  0  0  0
  144.7114  134.8118  161.7377 C   0  0  0  0  0  0  0  0  0  0  0  0
  143.5012  134.2160  162.4956 C   0  0  0  0  0  0  0  0  0  0  0  0
  144.8818  136.2929  162.1216 C   0  0  0  0  0  0  0  0  0  0  0  0
  144.5233  134.6949  160.2151 C   0  0  0  0  0  0  0  0  0  0  0  0
  143.3998  134.1072  159.7831 N   0  0  0  0  0  0  0  0  0  0  0  0
  143.2803  133.8817  158.4580 C   0  0  0  0  0  0  0  0  0  0  0  0
  144.3076  134.2057  157.5500 C   0  0  0  0  0  0  0  0  0  0  0  0
  144.1071  133.9546  156.1666 N   0  0  0  0  0  0  0  0  0  0  0  0
  144.7482  134.4966  155.1178 C   0  0  0  0  0  0  0  0  0  0  0  0
  145.6716  135.3060  155.1955 O   0  0  0  0  0  0  0  0  0  0  0  0
  144.2562  134.0227  153.9611 N   0  0  0  0  0  0  0  0  0  0  0  0
  144.6695  134.3448  152.5881 C   0  0  1  0  0  0  0  0  0  0  0  0
  144.5236  135.8804  152.4488 C   0  0  0  0  0  0  0  0  0  0  0  0
  146.1595  133.9603  152.3773 C   0  0  0  0  0  0  0  0  0  0  0  0
  147.0389  134.7186  153.1856 O   0  0  0  0  0  0  0  0  0  0  0  0
  143.8311  133.5888  151.5425 C   0  0  0  0  0  0  0  0  0  0  0  0
  144.0787  132.1531  151.1383 C   0  0  0  0  0  0  0  0  0  0  0  0
  144.2986  133.2745  150.1405 C   0  0  0  0  0  0  0  0  0  0  0  0
  145.4647  134.7931  158.1149 C   0  0  0  0  0  0  0  0  0  0  0  0
  145.5699  135.0148  159.4425 N   0  0  0  0  0  0  0  0  0  0  0  0
  146.0586  134.0507  163.2924 H   0  0  0  0  0  0  0  0  0  0  0  0
  146.8732  134.3985  161.7833 H   0  0  0  0  0  0  0  0  0  0  0  0
  145.8698  132.9586  161.9269 H   0  0  0  0  0  0  0  0  0  0  0  0
  143.3361  133.1729  162.2225 H   0  0  0  0  0  0  0  0  0  0  0  0
  142.5799  134.7617  162.2892 H   0  0  0  0  0  0  0  0  0  0  0  0
  143.6518  134.2516  163.5751 H   0  0  0  0  0  0  0  0  0  0  0  0
  145.0164  136.4127  163.1970 H   0  0  0  0  0  0  0  0  0  0  0  0
  144.0099  136.8802  161.8314 H   0  0  0  0  0  0  0  0  0  0  0  0
  145.7512  136.7314  161.6304 H   0  0  0  0  0  0  0  0  0  0  0  0
  142.3585  133.4287  158.1232 H   0  0  0  0  0  0  0  0  0  0  0  0
  143.4195  133.2478  155.9500 H   0  0  0  0  0  0  0  0  0  0  0  0
  143.4949  133.3641  154.0344 H   0  0  0  0  0  0  0  0  0  0  0  0
  144.8925  136.2433  151.4900 H   0  0  0  0  0  0  0  0  0  0  0  0
  145.0917  136.4051  153.2178 H   0  0  0  0  0  0  0  0  0  0  0  0
  143.4908  136.2090  152.5583 H   0  0  0  0  0  0  0  0  0  0  0  0
  146.3309  132.9031  152.5800 H   0  0  0  0  0  0  0  0  0  0  0  0
  146.4412  134.1176  151.3357 H   0  0  0  0  0  0  0  0  0  0  0  0
  147.5690  135.2623  152.6231 H   0  0  0  0  0  0  0  0  0  0  0  0
  142.7736  133.8359  151.6112 H   0  0  0  0  0  0  0  0  0  0  0  0
  144.9614  131.6387  151.5092 H   0  0  0  0  0  0  0  0  0  0  0  0
  143.2062  131.5193  150.9939 H   0  0  0  0  0  0  0  0  0  0  0  0
  143.5706  133.3809  149.3388 H   0  0  0  0  0  0  0  0  0  0  0  0
  145.3240  133.5005  149.8598 H   0  0  0  0  0  0  0  0  0  0  0  0
  146.3112  135.1053  157.5238 H   0  0  0  0  0  0  0  0  0  0  0  0
  1  2  1  0  0  0  0
  1 22  1  0  0  0  0
  1 23  1  0  0  0  0
  1 24  1  0  0  0  0
  2  3  1  0  0  0  0
  2  4  1  0  0  0  0
  2  5  1  0  0  0  0
  3 25  1  0  0  0  0
  3 26  1  0  0  0  0
  3 27  1  0  0  0  0
  4 28  1  0  0  0  0
  4 29  1  0  0  0  0
  4 30  1  0  0  0  0
  5 21  1  0  0  0  0
  5  6  2  0  0  0  0
  6  7  1  0  0  0  0
  7  8  2  0  0  0  0
  7 31  1  0  0  0  0
  8  9  1  0  0  0  0
  8 20  1  0  0  0  0
  9 10  1  0  0  0  0
  9 32  1  0  0  0  0
 10 11  2  0  0  0  0
 10 12  1  0  0  0  0
 12 13  1  0  0  0  0
 12 33  1  0  0  0  0
 13 14  1  0  0  0  0
 13 15  1  0  0  0  0
 13 17  1  0  0  0  0
 14 34  1  0  0  0  0
 14 35  1  0  0  0  0
 14 36  1  0  0  0  0
 15 16  1  0  0  0  0
 15 37  1  0  0  0  0
 15 38  1  0  0  0  0
 16 39  1  0  0  0  0
 17 19  1  0  0  0  0
 17 18  1  0  0  0  0
 17 40  1  0  0  0  0
 18 19  1  0  0  0  0
 18 41  1  0  0  0  0
 18 42  1  0  0  0  0
 19 43  1  0  0  0  0
 19 44  1  0  0  0  0
 20 21  2  0  0  0  0
 20 45  1  0  0  0  0
M  END
> <s_m_source_file>
AV-unprocessed.smi

> <i_m_source_file_index>
2847

> <i_lp_mmshare_version>
43012

> <i_f3d_flags>
0

> <s_epik_input>
W0NIM11DKFtDSDNdKShbQ0gzXSljMW5bY0hdYyhbY0hdbjEpW05IXUMoPU8pW05IXVtDQEBdKFtDSDNdKShbQ0gyXVtPSF0pW0NIXTJbQ0gyXVtDSDJdMg==

> <s_epik_cmdline>
J2VwaWtfcHl0aG9uJywgJy1waCcsICc3LjAnLCAnLXRuJywgJzgnLCAnLW1hJywgJzIwMCcsICctbWV0YWxfYmluZGluZycsICctaW1hZScsICc8aW5maWxlLm1hZT4nLCAnLW9tYWUnLCAnPG91dGZpbGUubWFlPic=

> <r_lp_tautomer_probability>
1

> <r_epik_Ionization_Penalty>
2.57177e-05

> <r_epik_Ionization_Penalty_Charging>
0

> <r_epik_Ionization_Penalty_Neutral>
2.57177e-05

> <r_epik_State_Penalty>
-0

> <r_epik_Charging_Adjusted_Penalty>
0

> <i_epik_Tot_Q>
0

> <i_epik_Tot_abs_Q>
0

> <r_epik_Metal_State_Penalty>
-0

> <b_epik_Metal_Only>
0

> <s_lp_Force_Field>
OPLS_2005

> <r_lp_Energy>
20.4005

> <b_lp_Chiralities_Consistent>
1

> <s_lp_Variant>
AV-unprocessed.smi:2847-1

> <Gold.Version>
5.8.1

> <Gold.Id.Protein>
6NUR|6NUR_protein|mol2

> <Gold.PLP.Fitness>
37.9780

> <Gold.PLP.PLP>
-26.2349

> <Gold.PLP.part.hbond>
-3.0000

> <Gold.PLP.part.metal>
0.0000

> <Gold.PLP.part.buried>
-5.0610

> <Gold.PLP.part.nonpolar>
-18.0151

> <Gold.PLP.part.repulsive>
0.0235

> <Gold.PLP.ligand.clash>
0.0000

> <Gold.PLP.ligand.torsion>
0.9175

> <Gold.PLP.Chemscore.Hbond>
3.0000

> <Gold.PLP.Chemscore.CHOScore>
1.0000

> <Gold.PLP.Chemscore.Metal>
0.0000

> <Gold.Chemscore.Hbonds>
donor molecule, donor type, donor heavy atom, donor atom, acceptor molecule, acceptor atom, score
      L1  H     9    32       P1 10957  1.00
      L1  H    12    33       P1 10957  1.00
      L1  H    16    39       P1  7948  1.00
      L1  C     7    31       P1 11000  1.00

> <Gold.PLP.Chemscore.Internal.Correction>
1.5780

> <Gold.Rescore>
     Score         DG    S(hbond)    S(metal)    S(lipo)     H(rot)  DE(clash)    DE(int)     intcor
     14.14     -17.20       2.96        0.00      62.98       2.17       0.00       3.05       ----

> <Gold.Chemscore.Fitness>
14.1431

> <Gold.Chemscore.DG>
-17.1957

> <Gold.Chemscore.ZeroCoef>
-5.4800

> <Gold.Chemscore.Hbond>
2.9633

> <Gold.Chemscore.Metal>
0.0000

> <Gold.Chemscore.Lipo>
62.9767

> <Gold.Chemscore.Internal_Hbond>
0.0000

> <Gold.Chemscore.DEClash>
0.0000

> <Gold.Chemscore.DEInternal>
3.0526

> <Gold.Chemscore.Rot>
2.1679

> <Gold.Chemscore.Internal.Correction>
   9.000000E+99

> <Gold.Chemscore.Hbonds>
donor molecule, donor type, donor heavy atom, donor atom, acceptor molecule, acceptor atom, score
      L1  H     9    32       P1 10957  0.93
      L1  H    12    33       P1 10957  0.95
      L1  H    16    39       P1  7948  1.00

> <Gold.Chemscore.Hbond.Weighted>
-9.8973

> <Gold.Chemscore.Metal.Weighted>
-0.0000

> <Gold.Chemscore.Lipo.Weighted>
-7.3683

> <Gold.Chemscore.Internal_Hbond.Weighted>
0.0000

> <Gold.Chemscore.DEClash.Weighted>
0.0000

> <Gold.Chemscore.DEInternal.Weighted>
3.0526

> <Gold.Chemscore.Rot.Weighted>
5.5499

> <Gold.Chemscore.Internal.Correction.Weighted>
   9.000000E+99

> <Gold.Protein.RotatedTorsions>
[ 6907 6896 6895 6894 ] final  -28.15 input  -60.11 | X-H torsion
[ 7974 7965 7964 7962 ] final   82.27 input  175.53 | X-H torsion
[ 8008 7997 7996 7995 ] final    1.67 input   59.86 | X-H torsion
[ 10167 10162 10161 10158 ] final  173.50 input  -65.29 | X-H torsion
[ 10718 10713 10712 10709 ] final  -98.22 input   66.30 | X-H torsion
[ 10763 10752 10751 10750 ] final  -97.35 input  -60.55 | X-H torsion
[ 11005 11000 10999 10996 ] final  106.14 input  -57.11 | X-H torsion

> <Gold.Protein.ActiveResidues>
 VAL166  LYS551  ARG553  GLY616  TRP617  ASP618  TYR619  PRO620  LYS621  CYS622 
 ASP623  PHE694  ASN695  SER759  ASP760  ASP761  ALA762  ILE779  LEU786  VAL792 
 PHE793  MET794  SER795  GLU796  ALA797  LYS798  CYS799  TRP800  GLU811  SER814 

> <Gold.Protein.RotatedAtoms>
  151.1369  135.0159  159.8607 H   0  0  0  0  0  0  0  0  0  0  0  0  # atno 6907 bound_to 6896
  152.5452  134.1544  159.8542 H   0  0  0  0  0  0  0  0  0  0  0  0  # atno 6908 bound_to 6896
  151.1616  133.4796  159.2627 H   0  0  0  0  0  0  0  0  0  0  0  0  # atno 6909 bound_to 6896
  145.6273  139.2397  143.2104 H   0  0  0  0  0  0  0  0  0  0  0  0  # atno 7974 bound_to 7965
  154.6825  140.2635  155.6894 H   0  0  0  0  0  0  0  0  0  0  0  0  # atno 8008 bound_to 7997
  156.2702  140.2807  156.1296 H   0  0  0  0  0  0  0  0  0  0  0  0  # atno 8009 bound_to 7997
  155.1012  140.0374  157.2687 H   0  0  0  0  0  0  0  0  0  0  0  0  # atno 8010 bound_to 7997
  139.5110  144.3254  152.0162 H   0  0  0  0  0  0  0  0  0  0  0  0  # atno 10167 bound_to 10162
  156.0102  130.5228  150.6491 H   0  0  0  0  0  0  0  0  0  0  0  0  # atno 10718 bound_to 10713
  154.7320  135.5050  153.8980 H   0  0  0  0  0  0  0  0  0  0  0  0  # atno 10763 bound_to 10752
  153.0959  135.6672  153.9773 H   0  0  0  0  0  0  0  0  0  0  0  0  # atno 10764 bound_to 10752
  153.9571  135.3051  155.3415 H   0  0  0  0  0  0  0  0  0  0  0  0  # atno 10765 bound_to 10752
  139.8810  134.9359  156.5621 H   0  0  0  0  0  0  0  0  0  0  0  0  # atno 11005 bound_to 11000
  146.1384  140.7091  142.9378 LP  0  0  0  0  0  0  0  0  0  0  0  0  # atno 17320 bound_to 7965
  144.7207  140.4364  143.7010 LP  0  0  0  0  0  0  0  0  0  0  0  0  # atno 17321 bound_to 7965
  140.2695  144.3980  150.6156 LP  0  0  0  0  0  0  0  0  0  0  0  0  # atno 17342 bound_to 10162
  140.6099  143.2169  151.6907 LP  0  0  0  0  0  0  0  0  0  0  0  0  # atno 17343 bound_to 10162
  157.4256  131.0842  151.1089 LP  0  0  0  0  0  0  0  0  0  0  0  0  # atno 17370 bound_to 10713
  157.1677  130.6254  149.5631 LP  0  0  0  0  0  0  0  0  0  0  0  0  # atno 17371 bound_to 10713
  140.8161  133.8390  155.8854 LP  0  0  0  0  0  0  0  0  0  0  0  0  # atno 17394 bound_to 11000
  140.9461  134.1838  157.4762 LP  0  0  0  0  0  0  0  0  0  0  0  0  # atno 17395 bound_to 11000

$$$$
