AV-unprocessed.smi:83|AV-procd|sdf|800|dock10
  -GOLD-   2262017183D 1   1.00000     0.00000
 Structure written by MMmdl.
 56 59  0  0  0  0  0  0  0  0  1 V2000
  151.5633  145.2725  160.5272 C   0  0  0  0  0  0  0  0  0  0  0  0
  152.1122  143.9423  161.0467 C   0  0  0  0  0  0  0  0  0  0  0  0
  152.2694  143.7951  162.2584 O   0  0  0  0  0  0  0  0  0  0  0  0
  152.4068  142.9743  160.1553 N   0  0  0  0  0  0  0  0  0  0  0  0
  152.9387  141.6649  160.5231 C   0  0  0  0  0  0  0  0  0  0  0  0
  153.1859  140.9376  159.1979 C   0  0  0  0  0  0  0  0  0  0  0  0
  152.2129  141.5907  158.2167 C   0  0  1  0  0  0  0  0  0  0  0  0
  150.8377  140.8814  158.2776 C   0  0  0  0  0  0  0  0  0  0  0  0
  150.3771  140.3529  156.9924 N   0  0  0  0  0  0  0  0  0  0  0  0
  151.1154  140.7692  155.8012 C   0  0  0  0  0  0  0  0  0  0  0  0
  149.1180  139.8418  156.8413 C   0  0  0  0  0  0  0  0  0  0  0  0
  148.3514  139.6901  157.9562 N   0  0  0  0  0  0  0  0  0  0  0  0
  147.1292  139.1582  157.8879 C   0  0  0  0  0  0  0  0  0  0  0  0
  146.4769  138.7085  156.8173 N   0  0  0  0  0  0  0  0  0  0  0  0
  147.2214  138.8653  155.6875 C   0  0  0  0  0  0  0  0  0  0  0  0
  148.5315  139.4250  155.6033 C   0  0  0  0  0  0  0  0  0  0  0  0
  148.9371  139.4240  154.2715 N   0  0  0  0  0  0  0  0  0  0  0  0
  147.9479  138.8810  153.6192 C   0  0  0  0  0  0  0  0  0  0  0  0
  146.8756  138.5139  154.3946 N   0  0  0  0  0  0  0  0  0  0  0  0
  145.6488  137.8888  153.9333 C   0  0  0  0  0  0  0  0  0  0  0  0
  145.7334  137.4449  152.4604 C   0  0  2  0  0  0  0  0  0  0  0  0
  145.7053  138.5668  151.5985 O   0  0  0  0  0  0  0  0  0  0  0  0
  144.6327  136.4339  152.0784 C   0  0  2  0  0  0  0  0  0  0  0  0
  144.4492  135.2351  153.0137 C   0  0  0  0  0  0  0  0  0  0  0  0
  143.7886  134.2382  152.0882 C   0  0  0  0  0  0  0  0  0  0  0  0
  144.5186  134.5036  150.7739 C   0  0  0  0  0  0  0  0  0  0  0  0
  144.8285  135.8944  150.7731 O   0  0  0  0  0  0  0  0  0  0  0  0
  152.2047  143.0463  158.7103 C   0  0  0  0  0  0  0  0  0  0  0  0
  152.2218  145.6936  159.7674 H   0  0  0  0  0  0  0  0  0  0  0  0
  151.4792  145.9966  161.3380 H   0  0  0  0  0  0  0  0  0  0  0  0
  150.5720  145.1376  160.0951 H   0  0  0  0  0  0  0  0  0  0  0  0
  153.8538  141.7481  161.1112 H   0  0  0  0  0  0  0  0  0  0  0  0
  152.1971  141.1327  161.1209 H   0  0  0  0  0  0  0  0  0  0  0  0
  154.2095  141.1232  158.8696 H   0  0  0  0  0  0  0  0  0  0  0  0
  153.0609  139.8573  159.2801 H   0  0  0  0  0  0  0  0  0  0  0  0
  152.5993  141.5320  157.1985 H   0  0  0  0  0  0  0  0  0  0  0  0
  150.9271  140.0298  158.9528 H   0  0  0  0  0  0  0  0  0  0  0  0
  150.0975  141.5121  158.7578 H   0  0  0  0  0  0  0  0  0  0  0  0
  151.1759  139.9557  155.0774 H   0  0  0  0  0  0  0  0  0  0  0  0
  152.1350  141.0604  156.0542 H   0  0  0  0  0  0  0  0  0  0  0  0
  150.6319  141.6238  155.3267 H   0  0  0  0  0  0  0  0  0  0  0  0
  146.6009  139.0762  158.8265 H   0  0  0  0  0  0  0  0  0  0  0  0
  147.9747  138.7320  152.5496 H   0  0  0  0  0  0  0  0  0  0  0  0
  145.4450  137.0297  154.5734 H   0  0  0  0  0  0  0  0  0  0  0  0
  144.8238  138.5869  154.0796 H   0  0  0  0  0  0  0  0  0  0  0  0
  146.6976  136.9601  152.3023 H   0  0  0  0  0  0  0  0  0  0  0  0
  144.8187  138.6903  151.2959 H   0  0  0  0  0  0  0  0  0  0  0  0
  143.6816  136.9673  152.0354 H   0  0  0  0  0  0  0  0  0  0  0  0
  145.4060  134.8370  153.3525 H   0  0  0  0  0  0  0  0  0  0  0  0
  143.8474  135.4693  153.8920 H   0  0  0  0  0  0  0  0  0  0  0  0
  143.8836  133.2065  152.4281 H   0  0  0  0  0  0  0  0  0  0  0  0
  142.7278  134.4690  151.9831 H   0  0  0  0  0  0  0  0  0  0  0  0
  145.4528  133.9421  150.7396 H   0  0  0  0  0  0  0  0  0  0  0  0
  143.9247  134.2263  149.9028 H   0  0  0  0  0  0  0  0  0  0  0  0
  151.3064  143.5884  158.4259 H   0  0  0  0  0  0  0  0  0  0  0  0
  153.0483  143.5878  158.2800 H   0  0  0  0  0  0  0  0  0  0  0  0
  1  2  1  0  0  0  0
  1 29  1  0  0  0  0
  1 30  1  0  0  0  0
  1 31  1  0  0  0  0
  2  3  2  0  0  0  0
  2  4  1  0  0  0  0
  4 28  1  0  0  0  0
  4  5  1  0  0  0  0
  5  6  1  0  0  0  0
  5 32  1  0  0  0  0
  5 33  1  0  0  0  0
  6  7  1  0  0  0  0
  6 34  1  0  0  0  0
  6 35  1  0  0  0  0
  7  8  1  0  0  0  0
  7 28  1  0  0  0  0
  7 36  1  0  0  0  0
  8  9  1  0  0  0  0
  8 37  1  0  0  0  0
  8 38  1  0  0  0  0
  9 10  1  0  0  0  0
  9 11  1  0  0  0  0
 10 39  1  0  0  0  0
 10 40  1  0  0  0  0
 10 41  1  0  0  0  0
 11 16  1  0  0  0  0
 11 12  2  0  0  0  0
 12 13  1  0  0  0  0
 13 14  2  0  0  0  0
 13 42  1  0  0  0  0
 14 15  1  0  0  0  0
 15 19  1  0  0  0  0
 15 16  2  0  0  0  0
 16 17  1  0  0  0  0
 17 18  2  0  0  0  0
 18 19  1  0  0  0  0
 18 43  1  0  0  0  0
 19 20  1  0  0  0  0
 20 21  1  0  0  0  0
 20 44  1  0  0  0  0
 20 45  1  0  0  0  0
 21 22  1  0  0  0  0
 21 23  1  0  0  0  0
 21 46  1  0  0  0  0
 22 47  1  0  0  0  0
 23 27  1  0  0  0  0
 23 24  1  0  0  0  0
 23 48  1  0  0  0  0
 24 25  1  0  0  0  0
 24 49  1  0  0  0  0
 24 50  1  0  0  0  0
 25 26  1  0  0  0  0
 25 51  1  0  0  0  0
 25 52  1  0  0  0  0
 26 27  1  0  0  0  0
 26 53  1  0  0  0  0
 26 54  1  0  0  0  0
 28 55  1  0  0  0  0
 28 56  1  0  0  0  0
M  END
> <s_m_source_file>
AV-unprocessed.smi

> <i_m_source_file_index>
83

> <i_lp_mmshare_version>
43012

> <i_f3d_flags>
0

> <s_epik_input>
W0NIM11DKD1PKU4xW0NIMl1bQ0gyXVtDQEhdKFtDSDJdMSlbQ0gyXU4oW0NIM10pYyhuW2NIXW4yKWMoYzIzKW5bY0hdbjNbQ0gyXVtDQEhdKFtPSF0pW0NAQEhdNFtDSDJdW0NIMl1bQ0gyXU80

> <s_epik_cmdline>
J2VwaWtfcHl0aG9uJywgJy1waCcsICc3LjAnLCAnLXRuJywgJzgnLCAnLW1hJywgJzIwMCcsICctbWV0YWxfYmluZGluZycsICctaW1hZScsICc8aW5maWxlLm1hZT4nLCAnLW9tYWUnLCAnPG91dGZpbGUubWFlPic=

> <r_lp_tautomer_probability>
1

> <r_epik_Ionization_Penalty>
0.00109752

> <r_epik_Ionization_Penalty_Charging>
0

> <r_epik_Ionization_Penalty_Neutral>
0.00109752

> <r_epik_State_Penalty>
0.000634803

> <r_epik_Charging_Adjusted_Penalty>
0.000634803

> <i_epik_Tot_Q>
0

> <i_epik_Tot_abs_Q>
0

> <r_epik_Metal_State_Penalty>
-0

> <b_epik_Metal_Only>
0

> <s_lp_Force_Field>
OPLS_2005

> <r_lp_Energy>
57.114

> <b_lp_Chiralities_Consistent>
1

> <s_lp_Variant>
AV-unprocessed.smi:83-1

> <Gold.Version>
5.8.1

> <Gold.Id.Protein>
6NUR|6NUR_protein|mol2

> <Gold.PLP.Fitness>
49.5863

> <Gold.PLP.PLP>
-43.8132

> <Gold.PLP.part.hbond>
-1.9969

> <Gold.PLP.part.metal>
0.0000

> <Gold.PLP.part.buried>
-7.1042

> <Gold.PLP.part.nonpolar>
-35.9750

> <Gold.PLP.part.repulsive>
0.8313

> <Gold.PLP.ligand.clash>
0.0000

> <Gold.PLP.ligand.torsion>
1.1264

> <Gold.PLP.Chemscore.Hbond>
1.0000

> <Gold.PLP.Chemscore.CHOScore>
1.5400

> <Gold.PLP.Chemscore.Metal>
0.0000

> <Gold.Chemscore.Hbonds>
donor molecule, donor type, donor heavy atom, donor atom, acceptor molecule, acceptor atom, score
      L1  H    22    47       P1 10171  0.80
      L1  C    18    43       P1  7948  0.31
      L1  C    18    43       P1  7957  0.81

> <Gold.PLP.Chemscore.Internal.Correction>
0.4057

> <Gold.Rescore>
     Score         DG    S(hbond)    S(metal)    S(lipo)     H(rot)  DE(clash)    DE(int)     intcor
     10.44     -12.72       0.99        0.00      90.94       2.62       0.07       2.20       ----

> <Gold.Chemscore.Fitness>
10.4429

> <Gold.Chemscore.DG>
-12.7151

> <Gold.Chemscore.ZeroCoef>
-5.4800

> <Gold.Chemscore.Hbond>
0.9852

> <Gold.Chemscore.Metal>
0.0000

> <Gold.Chemscore.Lipo>
90.9355

> <Gold.Chemscore.Internal_Hbond>
0.0000

> <Gold.Chemscore.DEClash>
0.0704

> <Gold.Chemscore.DEInternal>
2.2019

> <Gold.Chemscore.Rot>
2.6152

> <Gold.Chemscore.Internal.Correction>
   9.000000E+99

> <Gold.Chemscore.Hbonds>
donor molecule, donor type, donor heavy atom, donor atom, acceptor molecule, acceptor atom, score
      L1  H    22    47       P1 10171  0.80

> <Gold.Chemscore.Hbond.Weighted>
-3.2906

> <Gold.Chemscore.Metal.Weighted>
-0.0000

> <Gold.Chemscore.Lipo.Weighted>
-10.6395

> <Gold.Chemscore.Internal_Hbond.Weighted>
0.0000

> <Gold.Chemscore.DEClash.Weighted>
0.0704

> <Gold.Chemscore.DEInternal.Weighted>
2.2019

> <Gold.Chemscore.Rot.Weighted>
6.6949

> <Gold.Chemscore.Internal.Correction.Weighted>
   9.000000E+99

> <Gold.Protein.RotatedTorsions>
[ 6907 6896 6895 6894 ] final  139.86 input  -60.11 | X-H torsion
[ 7974 7965 7964 7962 ] final  106.54 input  175.53 | X-H torsion
[ 8008 7997 7996 7995 ] final  -92.88 input   59.86 | X-H torsion
[ 10167 10162 10161 10158 ] final  125.33 input  -65.29 | X-H torsion
[ 10718 10713 10712 10709 ] final   66.15 input   66.30 | X-H torsion
[ 10763 10752 10751 10750 ] final -153.82 input  -60.55 | X-H torsion
[ 11005 11000 10999 10996 ] final   46.08 input  -57.11 | X-H torsion

> <Gold.Protein.ActiveResidues>
 VAL166  LYS551  ARG553  GLY616  TRP617  ASP618  TYR619  PRO620  LYS621  CYS622 
 ASP623  PHE694  ASN695  SER759  ASP760  ASP761  ALA762  ILE779  LEU786  VAL792 
 PHE793  MET794  SER795  GLU796  ALA797  LYS798  CYS799  TRP800  GLU811  SER814 

> <Gold.Protein.RotatedAtoms>
  152.2500  133.5206  159.5319 H   0  0  0  0  0  0  0  0  0  0  0  0  # atno 6907 bound_to 6896
  150.7090  134.0974  159.3962 H   0  0  0  0  0  0  0  0  0  0  0  0  # atno 6908 bound_to 6896
  151.8893  135.0423  160.0547 H   0  0  0  0  0  0  0  0  0  0  0  0  # atno 6909 bound_to 6896
  145.3053  139.2557  143.3792 H   0  0  0  0  0  0  0  0  0  0  0  0  # atno 7974 bound_to 7965
  154.7286  140.0504  157.0706 H   0  0  0  0  0  0  0  0  0  0  0  0  # atno 8008 bound_to 7997
  155.0331  140.3160  155.4732 H   0  0  0  0  0  0  0  0  0  0  0  0  # atno 8009 bound_to 7997
  156.2835  140.2146  156.5453 H   0  0  0  0  0  0  0  0  0  0  0  0  # atno 8010 bound_to 7997
  139.5691  144.6929  151.3827 H   0  0  0  0  0  0  0  0  0  0  0  0  # atno 10167 bound_to 10162
  157.6151  130.9252  150.0071 H   0  0  0  0  0  0  0  0  0  0  0  0  # atno 10718 bound_to 10713
  154.7902  135.3204  154.7795 H   0  0  0  0  0  0  0  0  0  0  0  0  # atno 10763 bound_to 10752
  153.8486  135.6864  153.4799 H   0  0  0  0  0  0  0  0  0  0  0  0  # atno 10764 bound_to 10752
  153.1569  135.4676  154.9657 H   0  0  0  0  0  0  0  0  0  0  0  0  # atno 10765 bound_to 10752
  140.1401  134.4593  155.8456 H   0  0  0  0  0  0  0  0  0  0  0  0  # atno 11005 bound_to 11000
  146.3137  140.3576  142.8662 LP  0  0  0  0  0  0  0  0  0  0  0  0  # atno 17320 bound_to 7965
  144.9060  140.7700  143.5837 LP  0  0  0  0  0  0  0  0  0  0  0  0  # atno 17321 bound_to 7965
  140.6976  143.7712  150.7351 LP  0  0  0  0  0  0  0  0  0  0  0  0  # atno 17342 bound_to 10162
  140.1213  143.4610  152.2311 LP  0  0  0  0  0  0  0  0  0  0  0  0  # atno 17343 bound_to 10162
  156.1270  130.3644  149.9794 LP  0  0  0  0  0  0  0  0  0  0  0  0  # atno 17370 bound_to 10713
  156.7862  130.9239  151.3646 LP  0  0  0  0  0  0  0  0  0  0  0  0  # atno 17371 bound_to 10713
  141.2184  133.6830  156.7231 LP  0  0  0  0  0  0  0  0  0  0  0  0  # atno 17394 bound_to 11000
  140.2732  134.8375  157.3866 LP  0  0  0  0  0  0  0  0  0  0  0  0  # atno 17395 bound_to 11000

$$$$
