AV-unprocessed.smi:779|AV-procd|sdf|3704|dock5
  -GOLD-   22720 1123D 1   1.00000     0.00000
 Structure written by MMmdl.
 21 21  0  0  0  0  0  0  0  0  2 V2000
  153.4485  139.1886  154.8413 O   0  0  0  0  0  0  0  0  0  0  0  0
  152.3194  138.6511  154.7995 C   0  0  0  0  0  0  0  0  0  0  0  0
  152.0854  137.4824  154.4181 O   0  5  0  0  0  0  0  0  0  0  0  0
  151.1113  139.5694  155.2739 C   0  0  0  0  0  0  0  0  0  0  0  0
  149.9461  139.6984  154.5860 C   0  0  0  0  0  0  0  0  0  0  0  0
  148.8921  140.4958  155.0035 N   0  0  0  0  0  0  0  0  0  0  0  0
  147.6579  140.5975  154.2643 C   0  0  0  0  0  0  0  0  0  0  0  0
  147.2711  142.0529  153.9531 C   0  0  0  0  0  0  0  0  0  0  0  0
  148.4338  142.8181  153.7209 O   0  0  0  0  0  0  0  0  0  0  0  0
  148.9967  141.2144  156.2137 C   0  0  0  0  0  0  0  0  0  0  0  0
  148.0957  141.9264  156.6582 O   0  0  0  0  0  0  0  0  0  0  0  0
  150.1920  141.0863  156.9180 N   0  0  0  0  0  0  0  0  0  0  0  0
  151.2916  140.3071  156.5431 C   0  0  0  0  0  0  0  0  0  0  0  0
  152.2744  140.3099  157.2841 O   0  0  0  0  0  0  0  0  0  0  0  0
  150.2723  141.6021  157.7818 H   0  0  0  0  0  0  0  0  0  0  0  0
  149.8244  139.1499  153.6628 H   0  0  0  0  0  0  0  0  0  0  0  0
  147.7549  139.9835  153.3662 H   0  0  0  0  0  0  0  0  0  0  0  0
  146.8962  140.1164  154.8801 H   0  0  0  0  0  0  0  0  0  0  0  0
  146.6365  142.0997  153.0676 H   0  0  0  0  0  0  0  0  0  0  0  0
  146.7137  142.4980  154.7778 H   0  0  0  0  0  0  0  0  0  0  0  0
  148.8689  142.9603  154.5477 H   0  0  0  0  0  0  0  0  0  0  0  0
  1  2  2  0  0  0  0
  2  3  1  0  0  0  0
  2  4  1  0  0  0  0
  4 13  1  0  0  0  0
  4  5  2  0  0  0  0
  5  6  1  0  0  0  0
  5 16  1  0  0  0  0
  6  7  1  0  0  0  0
  6 10  1  0  0  0  0
  7  8  1  0  0  0  0
  7 17  1  0  0  0  0
  7 18  1  0  0  0  0
  8  9  1  0  0  0  0
  8 19  1  0  0  0  0
  8 20  1  0  0  0  0
  9 21  1  0  0  0  0
 10 11  2  0  0  0  0
 10 12  1  0  0  0  0
 12 15  1  0  0  0  0
 12 13  1  0  0  0  0
 13 14  2  0  0  0  0
M  CHG  1   3  -1
M  END
> <s_m_source_file>
AV-unprocessed.smi

> <i_m_source_file_index>
779

> <i_lp_mmshare_version>
43012

> <i_f3d_flags>
0

> <s_epik_input>
Tz1DKFtPSF0pYzFbY0hdbihbQ0gyXVtDSDJdW09IXSljKD1PKVtuSF1jMT1P

> <s_epik_cmdline>
J2VwaWtfcHl0aG9uJywgJy1waCcsICc3LjAnLCAnLXRuJywgJzgnLCAnLW1hJywgJzIwMCcsICctbWV0YWxfYmluZGluZycsICctaW1hZScsICc8aW5maWxlLm1hZT4nLCAnLW9tYWUnLCAnPG91dGZpbGUubWFlPic=

> <r_lp_tautomer_probability>
1

> <r_epik_Ionization_Penalty>
0.00105006

> <r_epik_Ionization_Penalty_Charging>
0.0010499

> <r_epik_Ionization_Penalty_Neutral>
1.56052e-07

> <r_epik_State_Penalty>
-0

> <r_epik_Charging_Adjusted_Penalty>
0.0010499

> <i_epik_Tot_Q>
-1

> <i_epik_Tot_abs_Q>
1

> <r_epik_Metal_State_Penalty>
0.521421

> <b_epik_Metal_Only>
0

> <s_lp_Force_Field>
OPLS_2005

> <r_lp_Energy>
14.2726

> <b_lp_Chiralities_Consistent>
1

> <s_lp_Variant>
AV-unprocessed.smi:779-1

> <Gold.Version>
5.8.1

> <Gold.Id.Protein>
6NUR|6NUR_protein|mol2

> <Gold.PLP.Fitness>
41.0697

> <Gold.PLP.PLP>
-25.4627

> <Gold.PLP.part.hbond>
-5.2521

> <Gold.PLP.part.metal>
0.0000

> <Gold.PLP.part.buried>
-2.6334

> <Gold.PLP.part.nonpolar>
-17.4585

> <Gold.PLP.part.repulsive>
0.3054

> <Gold.PLP.ligand.clash>
0.0000

> <Gold.PLP.ligand.torsion>
0.9820

> <Gold.PLP.Chemscore.Hbond>
4.8560

> <Gold.PLP.Chemscore.CHOScore>
1.0000

> <Gold.PLP.Chemscore.Metal>
0.0000

> <Gold.Chemscore.Hbonds>
donor molecule, donor type, donor heavy atom, donor atom, acceptor molecule, acceptor atom, score
      L1  H     9    21       P1  8028  0.47
      P1  H  7997  8010       L1     1  2.00
      P1  H  8022  8030       L1     9  0.13
      P1  H 10752 10765       L1     3  1.66
      L1  C     5    16       P1  7957  0.68

> <Gold.PLP.Chemscore.Internal.Correction>
0.0031

> <Gold.Rescore>
     Score         DG    S(hbond)    S(metal)    S(lipo)     H(rot)  DE(clash)    DE(int)     intcor
      9.75     -12.39       2.80        0.00      27.21       2.19       0.07       2.57       ----

> <Gold.Chemscore.Fitness>
9.7517

> <Gold.Chemscore.DG>
-12.3924

> <Gold.Chemscore.ZeroCoef>
-5.4800

> <Gold.Chemscore.Hbond>
2.7952

> <Gold.Chemscore.Metal>
0.0000

> <Gold.Chemscore.Lipo>
27.2062

> <Gold.Chemscore.Internal_Hbond>
0.0000

> <Gold.Chemscore.DEClash>
0.0683

> <Gold.Chemscore.DEInternal>
2.5724

> <Gold.Chemscore.Rot>
2.1902

> <Gold.Chemscore.Internal.Correction>
   9.000000E+99

> <Gold.Chemscore.Hbonds>
donor molecule, donor type, donor heavy atom, donor atom, acceptor molecule, acceptor atom, score
      L1  H     9    21       P1  8028  0.44
      P1  H  7997  8010       L1     1  1.00
      P1  H  8011  8017       L1     9  0.03
      P1  H 10752 10765       L1     3  0.78

> <Gold.Chemscore.Hbond.Weighted>
-9.3361

> <Gold.Chemscore.Metal.Weighted>
-0.0000

> <Gold.Chemscore.Lipo.Weighted>
-3.1831

> <Gold.Chemscore.Internal_Hbond.Weighted>
0.0000

> <Gold.Chemscore.DEClash.Weighted>
0.0683

> <Gold.Chemscore.DEInternal.Weighted>
2.5724

> <Gold.Chemscore.Rot.Weighted>
5.6069

> <Gold.Chemscore.Internal.Correction.Weighted>
   9.000000E+99

> <Gold.Protein.RotatedTorsions>
[ 6907 6896 6895 6894 ] final -115.68 input  -60.11 | X-H torsion
[ 7974 7965 7964 7962 ] final   71.47 input  175.53 | X-H torsion
[ 8008 7997 7996 7995 ] final  109.40 input   59.86 | X-H torsion
[ 10167 10162 10161 10158 ] final  157.78 input  -65.29 | X-H torsion
[ 10718 10713 10712 10709 ] final   80.70 input   66.30 | X-H torsion
[ 10763 10752 10751 10750 ] final  152.12 input  -60.55 | X-H torsion
[ 11005 11000 10999 10996 ] final -131.16 input  -57.11 | X-H torsion

> <Gold.Protein.ActiveResidues>
 VAL166  LYS551  ARG553  GLY616  TRP617  ASP618  TYR619  PRO620  LYS621  CYS622 
 ASP623  PHE694  ASN695  SER759  ASP760  ASP761  ALA762  ILE779  LEU786  VAL792 
 PHE793  MET794  SER795  GLU796  ALA797  LYS798  CYS799  TRP800  GLU811  SER814 

> <Gold.Protein.RotatedAtoms>
  150.7997  133.8623  159.3235 H   0  0  0  0  0  0  0  0  0  0  0  0  # atno 6907 bound_to 6896
  151.6439  135.1008  160.0156 H   0  0  0  0  0  0  0  0  0  0  0  0  # atno 6908 bound_to 6896
  152.4083  133.6883  159.6410 H   0  0  0  0  0  0  0  0  0  0  0  0  # atno 6909 bound_to 6896
  145.7654  139.2819  143.1352 H   0  0  0  0  0  0  0  0  0  0  0  0  # atno 7974 bound_to 7965
  156.1976  140.3058  155.9459 H   0  0  0  0  0  0  0  0  0  0  0  0  # atno 8008 bound_to 7997
  155.3030  140.0447  157.3047 H   0  0  0  0  0  0  0  0  0  0  0  0  # atno 8009 bound_to 7997
  154.5529  140.2297  155.8465 H   0  0  0  0  0  0  0  0  0  0  0  0  # atno 8010 bound_to 7997
  139.4824  144.4886  151.8342 H   0  0  0  0  0  0  0  0  0  0  0  0  # atno 10167 bound_to 10162
  157.6813  130.9971  150.2118 H   0  0  0  0  0  0  0  0  0  0  0  0  # atno 10718 bound_to 10713
  154.1148  135.2836  155.3222 H   0  0  0  0  0  0  0  0  0  0  0  0  # atno 10763 bound_to 10752
  154.6464  135.5384  153.7853 H   0  0  0  0  0  0  0  0  0  0  0  0  # atno 10764 bound_to 10752
  153.0333  135.6499  154.1305 H   0  0  0  0  0  0  0  0  0  0  0  0  # atno 10765 bound_to 10752
  140.9282  134.1354  157.4257 H   0  0  0  0  0  0  0  0  0  0  0  0  # atno 11005 bound_to 11000
  146.0223  140.8336  142.9917 LP  0  0  0  0  0  0  0  0  0  0  0  0  # atno 17320 bound_to 7965
  144.6822  140.2647  143.7314 LP  0  0  0  0  0  0  0  0  0  0  0  0  # atno 17321 bound_to 7965
  140.4368  144.2041  150.5889 LP  0  0  0  0  0  0  0  0  0  0  0  0  # atno 17342 bound_to 10162
  140.4724  143.2408  151.9070 LP  0  0  0  0  0  0  0  0  0  0  0  0  # atno 17343 bound_to 10162
  156.2788  130.3731  149.7956 LP  0  0  0  0  0  0  0  0  0  0  0  0  # atno 17370 bound_to 10713
  156.5651  130.8400  151.3340 LP  0  0  0  0  0  0  0  0  0  0  0  0  # atno 17371 bound_to 10713
  139.8790  134.9996  156.5962 LP  0  0  0  0  0  0  0  0  0  0  0  0  # atno 17394 bound_to 11000
  140.7897  133.8592  155.8636 LP  0  0  0  0  0  0  0  0  0  0  0  0  # atno 17395 bound_to 11000

$$$$
