AV-unprocessed.smi:419|AV-procd|sdf|2530|dock10
  -GOLD-   2262022493D 1   1.00000     0.00000
 Structure written by MMmdl.
 44 46  0  0  0  0  0  0  0  0  1 V2000
  144.3718  143.5149  155.0621 C   0  0  0  0  0  0  0  0  0  0  0  0
  145.3029  142.9953  156.0002 O   0  0  0  0  0  0  0  0  0  0  0  0
  146.4209  142.3509  155.5154 C   0  0  0  0  0  0  0  0  0  0  0  0
  147.3312  141.8432  156.4629 C   0  0  0  0  0  0  0  0  0  0  0  0
  148.4984  141.1714  156.0534 C   0  0  0  0  0  0  0  0  0  0  0  0
  148.7841  140.9901  154.6860 C   0  0  0  0  0  0  0  0  0  0  0  0
  149.9472  140.3203  154.3716 O   0  0  0  0  0  0  0  0  0  0  0  0
  150.4282  139.3419  155.2844 C   0  0  0  0  0  0  0  0  0  0  0  0
  151.5287  139.9711  156.1545 C   0  0  2  0  0  0  0  0  0  0  0  0
  152.7693  139.6635  155.5499 O   0  0  0  0  0  0  0  0  0  0  0  0
  151.5400  139.3786  157.5787 C   0  0  0  0  0  0  0  0  0  0  0  0
  152.2006  140.2674  158.5337 N   0  0  0  0  0  0  0  0  0  0  0  0
  153.0443  139.8978  159.5267 C   0  0  0  0  0  0  0  0  0  0  0  0
  153.3897  138.7455  159.7876 O   0  0  0  0  0  0  0  0  0  0  0  0
  153.4401  141.0158  160.1788 N   0  0  0  0  0  0  0  0  0  0  0  0
  154.3522  141.0938  161.3135 C   0  0  0  0  0  0  0  0  0  0  0  0
  152.8356  142.1318  159.5864 C   0  0  0  0  0  0  0  0  0  0  0  0
  152.9278  143.5005  159.8914 C   0  0  0  0  0  0  0  0  0  0  0  0
  152.1765  144.3923  159.0907 C   0  0  0  0  0  0  0  0  0  0  0  0
  151.3672  143.9103  158.0293 C   0  0  0  0  0  0  0  0  0  0  0  0
  151.2938  142.5265  157.7438 C   0  0  0  0  0  0  0  0  0  0  0  0
  152.0529  141.6623  158.5524 C   0  0  0  0  0  0  0  0  0  0  0  0
  147.8717  141.4988  153.7291 C   0  0  0  0  0  0  0  0  0  0  0  0
  146.7038  142.1714  154.1389 C   0  0  0  0  0  0  0  0  0  0  0  0
  143.5501  143.9913  155.5966 H   0  0  0  0  0  0  0  0  0  0  0  0
  143.9469  142.7243  154.4420 H   0  0  0  0  0  0  0  0  0  0  0  0
  144.8301  144.2701  154.4221 H   0  0  0  0  0  0  0  0  0  0  0  0
  147.1322  141.9695  157.5171 H   0  0  0  0  0  0  0  0  0  0  0  0
  149.1816  140.7900  156.7980 H   0  0  0  0  0  0  0  0  0  0  0  0
  149.5968  139.0337  155.9204 H   0  0  0  0  0  0  0  0  0  0  0  0
  150.7995  138.4547  154.7676 H   0  0  0  0  0  0  0  0  0  0  0  0
  151.3885  141.0523  156.1942 H   0  0  0  0  0  0  0  0  0  0  0  0
  152.6920  139.8122  154.6197 H   0  0  0  0  0  0  0  0  0  0  0  0
  150.5152  139.2356  157.9251 H   0  0  0  0  0  0  0  0  0  0  0  0
  151.9904  138.3854  157.5885 H   0  0  0  0  0  0  0  0  0  0  0  0
  153.9129  141.6915  162.1124 H   0  0  0  0  0  0  0  0  0  0  0  0
  155.2884  141.5628  161.0106 H   0  0  0  0  0  0  0  0  0  0  0  0
  154.5824  140.1089  161.7220 H   0  0  0  0  0  0  0  0  0  0  0  0
  153.5450  143.8589  160.7019 H   0  0  0  0  0  0  0  0  0  0  0  0
  152.2190  145.4529  159.2904 H   0  0  0  0  0  0  0  0  0  0  0  0
  150.7997  144.6083  157.4317 H   0  0  0  0  0  0  0  0  0  0  0  0
  150.6776  142.1557  156.9383 H   0  0  0  0  0  0  0  0  0  0  0  0
  148.0435  141.3862  152.6697 H   0  0  0  0  0  0  0  0  0  0  0  0
  146.0384  142.5409  153.3735 H   0  0  0  0  0  0  0  0  0  0  0  0
  1  2  1  0  0  0  0
  1 25  1  0  0  0  0
  1 26  1  0  0  0  0
  1 27  1  0  0  0  0
  2  3  1  0  0  0  0
  3 24  1  0  0  0  0
  3  4  2  0  0  0  0
  4  5  1  0  0  0  0
  4 28  1  0  0  0  0
  5  6  2  0  0  0  0
  5 29  1  0  0  0  0
  6  7  1  0  0  0  0
  6 23  1  0  0  0  0
  7  8  1  0  0  0  0
  8  9  1  0  0  0  0
  8 30  1  0  0  0  0
  8 31  1  0  0  0  0
  9 10  1  0  0  0  0
  9 11  1  0  0  0  0
  9 32  1  0  0  0  0
 10 33  1  0  0  0  0
 11 12  1  0  0  0  0
 11 34  1  0  0  0  0
 11 35  1  0  0  0  0
 12 22  1  0  0  0  0
 12 13  1  0  0  0  0
 13 14  2  0  0  0  0
 13 15  1  0  0  0  0
 15 16  1  0  0  0  0
 15 17  1  0  0  0  0
 16 36  1  0  0  0  0
 16 37  1  0  0  0  0
 16 38  1  0  0  0  0
 17 22  2  0  0  0  0
 17 18  1  0  0  0  0
 18 19  2  0  0  0  0
 18 39  1  0  0  0  0
 19 20  1  0  0  0  0
 19 40  1  0  0  0  0
 20 21  2  0  0  0  0
 20 41  1  0  0  0  0
 21 22  1  0  0  0  0
 21 42  1  0  0  0  0
 23 24  2  0  0  0  0
 23 43  1  0  0  0  0
 24 44  1  0  0  0  0
M  END
> <s_m_source_file>
AV-unprocessed.smi

> <i_m_source_file_index>
419

> <i_lp_mmshare_version>
43012

> <i_f3d_flags>
0

> <s_epik_input>
W0NIM11PYzFbY0hdW2NIXWMoW2NIXVtjSF0xKU9bQ0gyXVtDQEhdKFtPSF0pW0NIMl1uKGMoPU8pbjJbQ0gzXSljKGMyMylbY0hdW2NIXVtjSF1bY0hdMw==

> <s_epik_cmdline>
J2VwaWtfcHl0aG9uJywgJy1waCcsICc3LjAnLCAnLXRuJywgJzgnLCAnLW1hJywgJzIwMCcsICctbWV0YWxfYmluZGluZycsICctaW1hZScsICc8aW5maWxlLm1hZT4nLCAnLW9tYWUnLCAnPG91dGZpbGUubWFlPic=

> <r_lp_tautomer_probability>
1

> <r_epik_Ionization_Penalty>
2.40131e-06

> <r_epik_Ionization_Penalty_Charging>
2.01037e-09

> <r_epik_Ionization_Penalty_Neutral>
2.3993e-06

> <r_epik_State_Penalty>
-0

> <r_epik_Charging_Adjusted_Penalty>
2.01037e-09

> <i_epik_Tot_Q>
0

> <i_epik_Tot_abs_Q>
0

> <r_epik_Metal_State_Penalty>
-0

> <b_epik_Metal_Only>
0

> <s_lp_Force_Field>
OPLS_2005

> <r_lp_Energy>
51.0107

> <b_lp_Chiralities_Consistent>
1

> <s_lp_Variant>
AV-unprocessed.smi:419-1

> <Gold.Version>
5.8.1

> <Gold.Id.Protein>
6NUR|6NUR_protein|mol2

> <Gold.PLP.Fitness>
55.9928

> <Gold.PLP.PLP>
-53.3444

> <Gold.PLP.part.hbond>
-2.0000

> <Gold.PLP.part.metal>
0.0000

> <Gold.PLP.part.buried>
-6.1483

> <Gold.PLP.part.nonpolar>
-45.8057

> <Gold.PLP.part.repulsive>
0.2677

> <Gold.PLP.ligand.clash>
0.0000

> <Gold.PLP.ligand.torsion>
1.5886

> <Gold.PLP.Chemscore.Hbond>
1.9120

> <Gold.PLP.Chemscore.CHOScore>
0.0000

> <Gold.PLP.Chemscore.Metal>
0.0000

> <Gold.Chemscore.Hbonds>
donor molecule, donor type, donor heavy atom, donor atom, acceptor molecule, acceptor atom, score
      P1  H  7989  7998       L1     7  0.90
      P1  H  7997  8009       L1    10  1.00

> <Gold.PLP.Chemscore.Internal.Correction>
0.0896

> <Gold.Rescore>
     Score         DG    S(hbond)    S(metal)    S(lipo)     H(rot)  DE(clash)    DE(int)     intcor
     18.56     -20.08       1.69        0.00     128.90       2.40       0.11       1.41       ----

> <Gold.Chemscore.Fitness>
18.5606

> <Gold.Chemscore.DG>
-20.0800

> <Gold.Chemscore.ZeroCoef>
-5.4800

> <Gold.Chemscore.Hbond>
1.6919

> <Gold.Chemscore.Metal>
0.0000

> <Gold.Chemscore.Lipo>
128.8959

> <Gold.Chemscore.Internal_Hbond>
0.0000

> <Gold.Chemscore.DEClash>
0.1114

> <Gold.Chemscore.DEInternal>
1.4081

> <Gold.Chemscore.Rot>
2.3952

> <Gold.Chemscore.Internal.Correction>
   9.000000E+99

> <Gold.Chemscore.Hbonds>
donor molecule, donor type, donor heavy atom, donor atom, acceptor molecule, acceptor atom, score
      P1  H  7989  7998       L1     7  0.30
      P1  H  7997  8009       L1    10  0.78

> <Gold.Chemscore.Hbond.Weighted>
-5.6509

> <Gold.Chemscore.Metal.Weighted>
-0.0000

> <Gold.Chemscore.Lipo.Weighted>
-15.0808

> <Gold.Chemscore.Internal_Hbond.Weighted>
0.0000

> <Gold.Chemscore.DEClash.Weighted>
0.1114

> <Gold.Chemscore.DEInternal.Weighted>
1.4081

> <Gold.Chemscore.Rot.Weighted>
6.1316

> <Gold.Chemscore.Internal.Correction.Weighted>
   9.000000E+99

> <Gold.Protein.RotatedTorsions>
[ 6907 6896 6895 6894 ] final  -57.37 input  -60.11 | X-H torsion
[ 7974 7965 7964 7962 ] final -137.85 input  175.53 | X-H torsion
[ 8008 7997 7996 7995 ] final -151.56 input   59.86 | X-H torsion
[ 10167 10162 10161 10158 ] final  155.88 input  -65.29 | X-H torsion
[ 10718 10713 10712 10709 ] final   -1.16 input   66.30 | X-H torsion
[ 10763 10752 10751 10750 ] final   52.65 input  -60.55 | X-H torsion
[ 11005 11000 10999 10996 ] final -119.39 input  -57.11 | X-H torsion

> <Gold.Protein.ActiveResidues>
 VAL166  LYS551  ARG553  GLY616  TRP617  ASP618  TYR619  PRO620  LYS621  CYS622 
 ASP623  PHE694  ASN695  SER759  ASP760  ASP761  ALA762  ILE779  LEU786  VAL792 
 PHE793  MET794  SER795  GLU796  ALA797  LYS798  CYS799  TRP800  GLU811  SER814 

> <Gold.Protein.RotatedAtoms>
  150.8091  134.7235  159.6671 H   0  0  0  0  0  0  0  0  0  0  0  0  # atno 6907 bound_to 6896
  152.4211  134.5950  159.9994 H   0  0  0  0  0  0  0  0  0  0  0  0  # atno 6908 bound_to 6896
  151.6165  133.3305  159.3114 H   0  0  0  0  0  0  0  0  0  0  0  0  # atno 6909 bound_to 6896
  144.8807  140.6503  143.5208 H   0  0  0  0  0  0  0  0  0  0  0  0  # atno 7974 bound_to 7965
  155.6413  140.0702  157.2617 H   0  0  0  0  0  0  0  0  0  0  0  0  # atno 8008 bound_to 7997
  154.4183  140.1750  156.1626 H   0  0  0  0  0  0  0  0  0  0  0  0  # atno 8009 bound_to 7997
  155.9853  140.3350  155.6704 H   0  0  0  0  0  0  0  0  0  0  0  0  # atno 8010 bound_to 7997
  139.4821  144.5059  151.8098 H   0  0  0  0  0  0  0  0  0  0  0  0  # atno 10167 bound_to 10162
  156.8098  130.5420  149.5710 H   0  0  0  0  0  0  0  0  0  0  0  0  # atno 10718 bound_to 10713
  152.9790  135.5805  154.4614 H   0  0  0  0  0  0  0  0  0  0  0  0  # atno 10763 bound_to 10752
  154.4189  135.2771  155.1990 H   0  0  0  0  0  0  0  0  0  0  0  0  # atno 10764 bound_to 10752
  154.3748  135.6160  153.5813 H   0  0  0  0  0  0  0  0  0  0  0  0  # atno 10765 bound_to 10752
  141.0219  134.0111  157.3270 H   0  0  0  0  0  0  0  0  0  0  0  0  # atno 11005 bound_to 11000
  145.3959  139.1607  143.4203 LP  0  0  0  0  0  0  0  0  0  0  0  0  # atno 17320 bound_to 7965
  146.2992  140.4052  142.8710 LP  0  0  0  0  0  0  0  0  0  0  0  0  # atno 17321 bound_to 7965
  140.4557  144.1793  150.5901 LP  0  0  0  0  0  0  0  0  0  0  0  0  # atno 17342 bound_to 10162
  140.4538  143.2476  151.9312 LP  0  0  0  0  0  0  0  0  0  0  0  0  # atno 17343 bound_to 10162
  156.1051  130.5998  150.9958 LP  0  0  0  0  0  0  0  0  0  0  0  0  # atno 17370 bound_to 10713
  157.6512  131.0896  150.8047 LP  0  0  0  0  0  0  0  0  0  0  0  0  # atno 17371 bound_to 10713
  139.9151  135.0196  156.7850 LP  0  0  0  0  0  0  0  0  0  0  0  0  # atno 17394 bound_to 11000
  140.6558  133.9690  155.7779 LP  0  0  0  0  0  0  0  0  0  0  0  0  # atno 17395 bound_to 11000

$$$$
