AV-unprocessed.smi:1809|AV-procd|sdf|7330|dock7
  -GOLD-   22720 8583D 1   1.00000     0.00000
 Structure written by MMmdl.
 38 40  0  0  0  0  0  0  0  0  2 V2000
  148.8186  132.3959  157.0212 C   0  0  0  0  0  0  0  0  0  0  0  0
  149.6016  133.6621  156.9545 C   0  0  0  0  0  0  0  0  0  0  0  0
  149.6468  134.5379  157.9612 N   0  0  0  0  0  0  0  0  0  0  0  0
  150.4382  135.6375  157.6620 N   0  0  0  0  0  0  0  0  0  0  0  0
  150.9685  135.5850  156.4318 C   0  0  0  0  0  0  0  0  0  0  0  0
  151.7677  136.5514  155.9501 N   0  5  0  0  0  0  0  0  0  0  0  0
  151.5932  137.8329  156.3458 C   0  0  0  0  0  0  0  0  0  0  0  0
  151.5273  138.8223  155.6124 O   0  0  0  0  0  0  0  0  0  0  0  0
  151.4902  137.9798  157.6729 N   0  0  0  0  0  0  0  0  0  0  0  0
  151.2948  139.2481  158.3632 C   0  0  0  0  0  0  0  0  0  0  0  0
  152.4013  140.2521  157.9866 C   0  0  1  0  0  0  0  0  0  0  0  0
  152.0215  141.7149  158.3185 C   0  0  0  0  0  0  0  0  0  0  0  0
  152.1147  141.9585  159.7460 N   0  0  0  0  0  0  0  0  0  0  0  0
  151.8788  143.3115  160.1923 C   0  0  0  0  0  0  0  0  0  0  0  0
  152.4389  143.3426  161.6248 C   0  0  0  0  0  0  0  0  0  0  0  0
  153.4121  142.1445  161.6836 C   0  0  0  0  0  0  0  0  0  0  0  0
  153.4304  141.6499  160.2360 C   0  0  1  0  0  0  0  0  0  0  0  0
  153.7666  140.1717  159.9979 C   0  0  0  0  0  0  0  0  0  0  0  0
  153.6566  139.9073  158.5958 O   0  0  0  0  0  0  0  0  0  0  0  0
  150.5349  134.1256  155.5417 S   0  0  0  0  0  0  0  0  0  0  0  0
  147.7753  132.5909  156.7733 H   0  0  0  0  0  0  0  0  0  0  0  0
  148.8690  131.9714  158.0243 H   0  0  0  0  0  0  0  0  0  0  0  0
  149.2171  131.6678  156.3147 H   0  0  0  0  0  0  0  0  0  0  0  0
  151.5426  137.1488  158.2437 H   0  0  0  0  0  0  0  0  0  0  0  0
  150.3215  139.6551  158.0851 H   0  0  0  0  0  0  0  0  0  0  0  0
  151.2672  139.0774  159.4399 H   0  0  0  0  0  0  0  0  0  0  0  0
  152.5480  140.1845  156.9079 H   0  0  0  0  0  0  0  0  0  0  0  0
  152.6968  142.3883  157.7888 H   0  0  0  0  0  0  0  0  0  0  0  0
  151.0153  141.9388  157.9628 H   0  0  0  0  0  0  0  0  0  0  0  0
  152.4275  144.0159  159.5650 H   0  0  0  0  0  0  0  0  0  0  0  0
  150.8209  143.5713  160.1481 H   0  0  0  0  0  0  0  0  0  0  0  0
  152.9407  144.2886  161.8302 H   0  0  0  0  0  0  0  0  0  0  0  0
  151.6415  143.2194  162.3585 H   0  0  0  0  0  0  0  0  0  0  0  0
  154.4052  142.4252  162.0352 H   0  0  0  0  0  0  0  0  0  0  0  0
  153.0202  141.3747  162.3499 H   0  0  0  0  0  0  0  0  0  0  0  0
  154.1592  142.2527  159.6897 H   0  0  0  0  0  0  0  0  0  0  0  0
  154.7831  139.9521  160.3245 H   0  0  0  0  0  0  0  0  0  0  0  0
  153.1011  139.5179  160.5625 H   0  0  0  0  0  0  0  0  0  0  0  0
  1  2  1  0  0  0  0
  1 21  1  0  0  0  0
  1 22  1  0  0  0  0
  1 23  1  0  0  0  0
  2 20  1  0  0  0  0
  2  3  2  0  0  0  0
  3  4  1  0  0  0  0
  4  5  2  0  0  0  0
  5  6  1  0  0  0  0
  5 20  1  0  0  0  0
  6  7  1  0  0  0  0
  7  8  2  0  0  0  0
  7  9  1  0  0  0  0
  9 10  1  0  0  0  0
  9 24  1  0  0  0  0
 10 11  1  0  0  0  0
 10 25  1  0  0  0  0
 10 26  1  0  0  0  0
 11 19  1  0  0  0  0
 11 12  1  0  0  0  0
 11 27  1  0  0  0  0
 12 13  1  0  0  0  0
 12 28  1  0  0  0  0
 12 29  1  0  0  0  0
 13 17  1  0  0  0  0
 13 14  1  0  0  0  0
 14 15  1  0  0  0  0
 14 30  1  0  0  0  0
 14 31  1  0  0  0  0
 15 16  1  0  0  0  0
 15 32  1  0  0  0  0
 15 33  1  0  0  0  0
 16 17  1  0  0  0  0
 16 34  1  0  0  0  0
 16 35  1  0  0  0  0
 17 18  1  0  0  0  0
 17 36  1  0  0  0  0
 18 19  1  0  0  0  0
 18 37  1  0  0  0  0
 18 38  1  0  0  0  0
M  CHG  1   6  -1
M  END
> <s_m_source_file>
AV-unprocessed.smi

> <i_m_source_file_index>
1809

> <i_lp_mmshare_version>
43012

> <i_f3d_flags>
0

> <s_epik_input>
W0NIM11jMW5uYyhzMSlbTkhdQyg9TylbTkhdW0NIMl1bQ0BIXShbQ0gyXTIpT1tDSDJdW0NAQEhdKE4yMylbQ0gyXVtDSDJdW0NIMl0z

> <s_epik_cmdline>
J2VwaWtfcHl0aG9uJywgJy1waCcsICc3LjAnLCAnLXRuJywgJzgnLCAnLW1hJywgJzIwMCcsICctbWV0YWxfYmluZGluZycsICctaW1hZScsICc8aW5maWxlLm1hZT4nLCAnLW9tYWUnLCAnPG91dGZpbGUubWFlPic=

> <r_lp_tautomer_probability>
1

> <r_epik_Ionization_Penalty>
4.48809

> <r_epik_Ionization_Penalty_Charging>
3.27284

> <r_epik_Ionization_Penalty_Neutral>
1.21525

> <r_epik_State_Penalty>
4.69427

> <r_epik_Charging_Adjusted_Penalty>
7.96711

> <i_epik_Tot_Q>
-1

> <i_epik_Tot_abs_Q>
1

> <r_epik_Metal_State_Penalty>
1.91976

> <b_epik_Metal_Only>
1

> <s_lp_Force_Field>
OPLS_2005

> <r_lp_Energy>
48.8238

> <b_lp_Chiralities_Consistent>
1

> <s_lp_Variant>
AV-unprocessed.smi:1809-22

> <Gold.Version>
5.8.1

> <Gold.Id.Protein>
6NUR|6NUR_protein|mol2

> <Gold.PLP.Fitness>
41.6139

> <Gold.PLP.PLP>
-32.1859

> <Gold.PLP.part.hbond>
-4.0000

> <Gold.PLP.part.metal>
0.0000

> <Gold.PLP.part.buried>
-4.5047

> <Gold.PLP.part.nonpolar>
-23.1910

> <Gold.PLP.part.repulsive>
0.0655

> <Gold.PLP.ligand.clash>
0.0973

> <Gold.PLP.ligand.torsion>
0.7448

> <Gold.PLP.Chemscore.Hbond>
3.6656

> <Gold.PLP.Chemscore.CHOScore>
0.0000

> <Gold.PLP.Chemscore.Metal>
0.0000

> <Gold.Chemscore.Hbonds>
donor molecule, donor type, donor heavy atom, donor atom, acceptor molecule, acceptor atom, score
      P1  H  6896  6908       L1     3  0.67
      P1  H  7997  8010       L1    19  1.00
      P1  H 10752 10765       L1     6  2.00

> <Gold.PLP.Chemscore.Internal.Correction>
0.0182

> <Gold.Rescore>
     Score         DG    S(hbond)    S(metal)    S(lipo)     H(rot)  DE(clash)    DE(int)     intcor
     15.79     -17.63       1.86        0.00      79.20       1.31       0.04       1.79       ----

> <Gold.Chemscore.Fitness>
15.7922

> <Gold.Chemscore.DG>
-17.6251

> <Gold.Chemscore.ZeroCoef>
-5.4800

> <Gold.Chemscore.Hbond>
1.8623

> <Gold.Chemscore.Metal>
0.0000

> <Gold.Chemscore.Lipo>
79.1996

> <Gold.Chemscore.Internal_Hbond>
0.0000

> <Gold.Chemscore.DEClash>
0.0420

> <Gold.Chemscore.DEInternal>
1.7909

> <Gold.Chemscore.Rot>
1.3051

> <Gold.Chemscore.Internal.Correction>
   9.000000E+99

> <Gold.Chemscore.Hbonds>
donor molecule, donor type, donor heavy atom, donor atom, acceptor molecule, acceptor atom, score
      P1  H  6896  6908       L1     3  0.06
      P1  H  7997  8010       L1    19  0.25
      P1  H 10752 10765       L1     6  0.34

> <Gold.Chemscore.Hbond.Weighted>
-6.2199

> <Gold.Chemscore.Metal.Weighted>
-0.0000

> <Gold.Chemscore.Lipo.Weighted>
-9.2663

> <Gold.Chemscore.Internal_Hbond.Weighted>
0.0000

> <Gold.Chemscore.DEClash.Weighted>
0.0420

> <Gold.Chemscore.DEInternal.Weighted>
1.7909

> <Gold.Chemscore.Rot.Weighted>
3.3412

> <Gold.Chemscore.Internal.Correction.Weighted>
   9.000000E+99

> <Gold.Protein.RotatedTorsions>
[ 6907 6896 6895 6894 ] final  120.60 input  -60.11 | X-H torsion
[ 7974 7965 7964 7962 ] final  139.95 input  175.53 | X-H torsion
[ 8008 7997 7996 7995 ] final   23.89 input   59.86 | X-H torsion
[ 10167 10162 10161 10158 ] final  111.41 input  -65.29 | X-H torsion
[ 10718 10713 10712 10709 ] final  -48.95 input   66.30 | X-H torsion
[ 10763 10752 10751 10750 ] final -158.64 input  -60.55 | X-H torsion
[ 11005 11000 10999 10996 ] final   82.71 input  -57.11 | X-H torsion

> <Gold.Protein.ActiveResidues>
 VAL166  LYS551  ARG553  GLY616  TRP617  ASP618  TYR619  PRO620  LYS621  CYS622 
 ASP623  PHE694  ASN695  SER759  ASP760  ASP761  ALA762  ILE779  LEU786  VAL792 
 PHE793  MET794  SER795  GLU796  ALA797  LYS798  CYS799  TRP800  GLU811  SER814 

> <Gold.Protein.RotatedAtoms>
  152.4386  133.7406  159.6638 H   0  0  0  0  0  0  0  0  0  0  0  0  # atno 6907 bound_to 6896
  150.8273  133.8140  159.3119 H   0  0  0  0  0  0  0  0  0  0  0  0  # atno 6908 bound_to 6896
  151.5804  135.1061  160.0067 H   0  0  0  0  0  0  0  0  0  0  0  0  # atno 6909 bound_to 6896
  144.9231  139.5142  143.5653 H   0  0  0  0  0  0  0  0  0  0  0  0  # atno 7974 bound_to 7965
  154.9878  140.3110  155.4919 H   0  0  0  0  0  0  0  0  0  0  0  0  # atno 8008 bound_to 7997
  156.2944  140.2254  156.4921 H   0  0  0  0  0  0  0  0  0  0  0  0  # atno 8009 bound_to 7997
  154.7731  140.0451  157.1055 H   0  0  0  0  0  0  0  0  0  0  0  0  # atno 8010 bound_to 7997
  139.6613  144.7128  151.1859 H   0  0  0  0  0  0  0  0  0  0  0  0  # atno 10167 bound_to 10162
  156.1939  130.4153  149.9333 H   0  0  0  0  0  0  0  0  0  0  0  0  # atno 10718 bound_to 10713
  154.7540  135.3100  154.8504 H   0  0  0  0  0  0  0  0  0  0  0  0  # atno 10763 bound_to 10752
  153.9284  135.6788  153.4750 H   0  0  0  0  0  0  0  0  0  0  0  0  # atno 10764 bound_to 10752
  153.1137  135.4854  154.9007 H   0  0  0  0  0  0  0  0  0  0  0  0  # atno 10765 bound_to 10752
  139.9055  134.8091  156.2211 H   0  0  0  0  0  0  0  0  0  0  0  0  # atno 11005 bound_to 11000
  146.3214  139.8126  142.8943 LP  0  0  0  0  0  0  0  0  0  0  0  0  # atno 17320 bound_to 7965
  145.3263  141.0256  143.3472 LP  0  0  0  0  0  0  0  0  0  0  0  0  # atno 17321 bound_to 7965
  140.7581  143.5989  150.8720 LP  0  0  0  0  0  0  0  0  0  0  0  0  # atno 17342 bound_to 10162
  139.9647  143.6124  152.2992 LP  0  0  0  0  0  0  0  0  0  0  0  0  # atno 17343 bound_to 10162
  156.7064  130.8953  151.3605 LP  0  0  0  0  0  0  0  0  0  0  0  0  # atno 17370 bound_to 10713
  157.6946  130.9268  150.0608 LP  0  0  0  0  0  0  0  0  0  0  0  0  # atno 17371 bound_to 10713
  141.0405  133.6940  156.1589 LP  0  0  0  0  0  0  0  0  0  0  0  0  # atno 17394 bound_to 11000
  140.6962  134.4613  157.5587 LP  0  0  0  0  0  0  0  0  0  0  0  0  # atno 17395 bound_to 11000

$$$$
