AV-unprocessed.smi:2419|AV-procd|sdf|9553|dock4
  -GOLD-   2272013183D 1   1.00000     0.00000
 Structure written by MMmdl.
 27 28  0  0  0  0  0  0  0  0  2 V2000
  151.7682  139.3801  158.8648 O   0  0  0  0  0  0  0  0  0  0  0  0
  152.1860  140.0760  157.9364 C   0  0  0  0  0  0  0  0  0  0  0  0
  152.1940  141.4100  158.0552 N   0  0  0  0  0  0  0  0  0  0  0  0
  151.7481  142.1541  159.2278 C   0  0  0  0  0  0  0  0  0  0  0  0
  151.3953  143.6030  158.8665 C   0  0  0  0  0  0  0  0  0  0  0  0
  150.2975  143.5094  157.9794 O   0  0  0  0  0  0  0  0  0  0  0  0
  151.1532  144.5815  160.0307 C   0  0  0  0  0  0  0  0  0  0  0  0
  151.9121  145.6605  159.2562 C   0  0  0  0  0  0  0  0  0  0  0  0
  152.5212  144.5469  158.4029 C   0  0  0  0  0  0  0  0  0  0  0  0
  152.6626  139.6307  156.7514 N   0  5  0  0  0  0  0  0  0  0  0  0
  151.8376  139.0289  155.8788 C   0  0  0  0  0  0  0  0  0  0  0  0
  151.1975  139.6881  154.9061 N   0  0  0  0  0  0  0  0  0  0  0  0
  150.3875  138.8673  154.1193 C   0  0  0  0  0  0  0  0  0  0  0  0
  150.4028  137.5541  154.5083 C   0  0  0  0  0  0  0  0  0  0  0  0
  151.4432  137.3075  155.8818 S   0  0  0  0  0  0  0  0  0  0  0  0
  152.5359  141.9485  157.2729 H   0  0  0  0  0  0  0  0  0  0  0  0
  150.9082  141.6371  159.6959 H   0  0  0  0  0  0  0  0  0  0  0  0
  152.5574  142.1401  159.9592 H   0  0  0  0  0  0  0  0  0  0  0  0
  150.4111  144.1839  157.3278 H   0  0  0  0  0  0  0  0  0  0  0  0
  150.1062  144.8202  160.2207 H   0  0  0  0  0  0  0  0  0  0  0  0
  151.6649  144.2910  160.9496 H   0  0  0  0  0  0  0  0  0  0  0  0
  151.2510  146.3151  158.6864 H   0  0  0  0  0  0  0  0  0  0  0  0
  152.6322  146.2252  159.8489 H   0  0  0  0  0  0  0  0  0  0  0  0
  153.5066  144.2404  158.7580 H   0  0  0  0  0  0  0  0  0  0  0  0
  152.5322  144.7559  157.3325 H   0  0  0  0  0  0  0  0  0  0  0  0
  149.8320  139.3037  153.3026 H   0  0  0  0  0  0  0  0  0  0  0  0
  149.8691  136.7218  154.0750 H   0  0  0  0  0  0  0  0  0  0  0  0
  1  2  2  0  0  0  0
  2  3  1  0  0  0  0
  2 10  1  0  0  0  0
  3  4  1  0  0  0  0
  3 16  1  0  0  0  0
  4  5  1  0  0  0  0
  4 17  1  0  0  0  0
  4 18  1  0  0  0  0
  5  9  1  0  0  0  0
  5  6  1  0  0  0  0
  5  7  1  0  0  0  0
  6 19  1  0  0  0  0
  7  8  1  0  0  0  0
  7 20  1  0  0  0  0
  7 21  1  0  0  0  0
  8  9  1  0  0  0  0
  8 22  1  0  0  0  0
  8 23  1  0  0  0  0
  9 24  1  0  0  0  0
  9 25  1  0  0  0  0
 10 11  1  0  0  0  0
 11 15  1  0  0  0  0
 11 12  2  0  0  0  0
 12 13  1  0  0  0  0
 13 14  2  0  0  0  0
 13 26  1  0  0  0  0
 14 15  1  0  0  0  0
 14 27  1  0  0  0  0
M  CHG  1  10  -1
M  END
> <s_m_source_file>
AV-unprocessed.smi

> <i_m_source_file_index>
2419

> <i_lp_mmshare_version>
43012

> <i_f3d_flags>
0

> <s_epik_input>
czFbY0hdW2NIXW5jMVtOSF1DKD1PKVtOSF1bQ0gyXUMyKFtPSF0pW0NIMl1bQ0gyXVtDSDJdMg==

> <s_epik_cmdline>
J2VwaWtfcHl0aG9uJywgJy1waCcsICc3LjAnLCAnLXRuJywgJzgnLCAnLW1hJywgJzIwMCcsICctbWV0YWxfYmluZGluZycsICctaW1hZScsICc8aW5maWxlLm1hZT4nLCAnLW9tYWUnLCAnPG91dGZpbGUubWFlPic=

> <r_lp_tautomer_probability>
0.999

> <r_epik_Ionization_Penalty>
8.31551

> <r_epik_Ionization_Penalty_Charging>
6.6872

> <r_epik_Ionization_Penalty_Neutral>
1.62831

> <r_epik_State_Penalty>
6.68737

> <r_epik_Charging_Adjusted_Penalty>
13.3746

> <i_epik_Tot_Q>
-1

> <i_epik_Tot_abs_Q>
1

> <r_epik_Metal_State_Penalty>
2.60943

> <b_epik_Metal_Only>
1

> <s_lp_Force_Field>
OPLS_2005

> <r_lp_Energy>
8.45088

> <b_lp_Chiralities_Consistent>
1

> <s_lp_Variant>
AV-unprocessed.smi:2419-2

> <Gold.Version>
5.8.1

> <Gold.Id.Protein>
6NUR|6NUR_protein|mol2

> <Gold.PLP.Fitness>
43.4019

> <Gold.PLP.PLP>
-30.8432

> <Gold.PLP.part.hbond>
-3.0000

> <Gold.PLP.part.metal>
0.0000

> <Gold.PLP.part.buried>
-2.0759

> <Gold.PLP.part.nonpolar>
-26.0491

> <Gold.PLP.part.repulsive>
0.1341

> <Gold.PLP.ligand.clash>
0.0000

> <Gold.PLP.ligand.torsion>
1.5798

> <Gold.PLP.Chemscore.Hbond>
3.2069

> <Gold.PLP.Chemscore.CHOScore>
2.0000

> <Gold.PLP.Chemscore.Metal>
0.0000

> <Gold.Chemscore.Hbonds>
donor molecule, donor type, donor heavy atom, donor atom, acceptor molecule, acceptor atom, score
      L1  H     6    19       P1  8028  0.18
      P1  H  7989  7998       L1    12  0.75
      P1  H  7997  8008       L1    10  2.00
      L1  C    13    26       P1  7957  1.00
      L1  C    14    27       P1  7948  1.00

> <Gold.PLP.Chemscore.Internal.Correction>
0.0977

> <Gold.Rescore>
     Score         DG    S(hbond)    S(metal)    S(lipo)     H(rot)  DE(clash)    DE(int)     intcor
     14.15     -16.85       2.34        0.00      71.37       1.88       1.15       1.56       ----

> <Gold.Chemscore.Fitness>
14.1491

> <Gold.Chemscore.DG>
-16.8516

> <Gold.Chemscore.ZeroCoef>
-5.4800

> <Gold.Chemscore.Hbond>
2.3431

> <Gold.Chemscore.Metal>
0.0000

> <Gold.Chemscore.Lipo>
71.3667

> <Gold.Chemscore.Internal_Hbond>
0.0000

> <Gold.Chemscore.DEClash>
1.1458

> <Gold.Chemscore.DEInternal>
1.5566

> <Gold.Chemscore.Rot>
1.8767

> <Gold.Chemscore.Internal.Correction>
   9.000000E+99

> <Gold.Chemscore.Hbonds>
donor molecule, donor type, donor heavy atom, donor atom, acceptor molecule, acceptor atom, score
      L1  H     6    19       P1  8028  0.14
      P1  H  7989  7998       L1    12  0.09
      P1  H  7997  8008       L1    10  0.49

> <Gold.Chemscore.Hbond.Weighted>
-7.8259

> <Gold.Chemscore.Metal.Weighted>
-0.0000

> <Gold.Chemscore.Lipo.Weighted>
-8.3499

> <Gold.Chemscore.Internal_Hbond.Weighted>
0.0000

> <Gold.Chemscore.DEClash.Weighted>
1.1458

> <Gold.Chemscore.DEInternal.Weighted>
1.5566

> <Gold.Chemscore.Rot.Weighted>
4.8043

> <Gold.Chemscore.Internal.Correction.Weighted>
   9.000000E+99

> <Gold.Protein.RotatedTorsions>
[ 6907 6896 6895 6894 ] final   19.52 input  -60.11 | X-H torsion
[ 7974 7965 7964 7962 ] final -103.42 input  175.53 | X-H torsion
[ 8008 7997 7996 7995 ] final  -67.88 input   59.86 | X-H torsion
[ 10167 10162 10161 10158 ] final  -75.26 input  -65.29 | X-H torsion
[ 10718 10713 10712 10709 ] final  -44.47 input   66.30 | X-H torsion
[ 10763 10752 10751 10750 ] final   43.00 input  -60.55 | X-H torsion
[ 11005 11000 10999 10996 ] final   85.71 input  -57.11 | X-H torsion

> <Gold.Protein.ActiveResidues>
 VAL166  LYS551  ARG553  GLY616  TRP617  ASP618  TYR619  PRO620  LYS621  CYS622 
 ASP623  PHE694  ASN695  SER759  ASP760  ASP761  ALA762  ILE779  LEU786  VAL792 
 PHE793  MET794  SER795  GLU796  ALA797  LYS798  CYS799  TRP800  GLU811  SER814 

> <Gold.Protein.RotatedAtoms>
  151.8822  135.0449  160.0489 H   0  0  0  0  0  0  0  0  0  0  0  0  # atno 6907 bound_to 6896
  152.2503  133.5205  159.5330 H   0  0  0  0  0  0  0  0  0  0  0  0  # atno 6908 bound_to 6896
  150.7082  134.0885  159.3965 H   0  0  0  0  0  0  0  0  0  0  0  0  # atno 6909 bound_to 6896
  145.2561  140.9254  143.3067 H   0  0  0  0  0  0  0  0  0  0  0  0  # atno 7974 bound_to 7965
  154.4830  140.0884  156.7421 H   0  0  0  0  0  0  0  0  0  0  0  0  # atno 8008 bound_to 7997
  155.4422  140.3454  155.4273 H   0  0  0  0  0  0  0  0  0  0  0  0  # atno 8009 bound_to 7997
  156.1219  140.1476  156.9180 H   0  0  0  0  0  0  0  0  0  0  0  0  # atno 8010 bound_to 7997
  140.4958  143.2371  151.7833 H   0  0  0  0  0  0  0  0  0  0  0  0  # atno 10167 bound_to 10162
  156.2382  130.4178  149.8792 H   0  0  0  0  0  0  0  0  0  0  0  0  # atno 10718 bound_to 10713
  152.9870  135.6115  154.3040 H   0  0  0  0  0  0  0  0  0  0  0  0  # atno 10763 bound_to 10752
  154.2759  135.2778  155.2720 H   0  0  0  0  0  0  0  0  0  0  0  0  # atno 10764 bound_to 10752
  154.5081  135.5848  153.6640 H   0  0  0  0  0  0  0  0  0  0  0  0  # atno 10765 bound_to 10752
  139.8964  134.8305  156.2620 H   0  0  0  0  0  0  0  0  0  0  0  0  # atno 11005 bound_to 11000
  144.9459  139.4136  143.6426 LP  0  0  0  0  0  0  0  0  0  0  0  0  # atno 17320 bound_to 7965
  146.3288  139.8443  142.8885 LP  0  0  0  0  0  0  0  0  0  0  0  0  # atno 17321 bound_to 7965
  139.4861  144.4589  151.9565 LP  0  0  0  0  0  0  0  0  0  0  0  0  # atno 17342 bound_to 10162
  140.3676  144.2895  150.5924 LP  0  0  0  0  0  0  0  0  0  0  0  0  # atno 17343 bound_to 10162
  156.6382  130.8694  151.3509 LP  0  0  0  0  0  0  0  0  0  0  0  0  # atno 17370 bound_to 10713
  157.7164  130.9502  150.1271 LP  0  0  0  0  0  0  0  0  0  0  0  0  # atno 17371 bound_to 10713
  141.0156  133.7070  156.1184 LP  0  0  0  0  0  0  0  0  0  0  0  0  # atno 17394 bound_to 11000
  140.7305  134.4259  157.5566 LP  0  0  0  0  0  0  0  0  0  0  0  0  # atno 17395 bound_to 11000

$$$$
