AV-unprocessed.smi:20|AV-procd|sdf|115|dock9
  -GOLD-   2262015283D 1   1.00000     0.00000
 Structure written by MMmdl.
 57 61  0  0  0  0  0  0  0  0  1 V2000
  151.0004  140.5894  154.7730 O   0  0  0  0  0  0  0  0  0  0  0  0
  150.7102  141.2074  155.7946 C   0  0  0  0  0  0  0  0  0  0  0  0
  151.6295  142.2169  156.4611 C   0  0  0  0  0  0  0  0  0  0  0  0
  150.9939  142.4099  157.8581 C   0  0  2  0  0  0  0  0  0  0  0  0
  151.0905  143.8638  158.3746 C   0  0  0  0  0  0  0  0  0  0  0  0
  152.5392  144.2406  158.7240 C   0  0  0  0  0  0  0  0  0  0  0  0
  153.1382  143.2463  159.7292 C   0  0  0  0  0  0  0  0  0  0  0  0
  153.0018  141.8768  159.2419 N   0  0  0  0  0  0  0  0  0  0  0  0
  153.8057  140.9120  159.7563 C   0  0  0  0  0  0  0  0  0  0  0  0
  154.2341  139.9434  158.9056 N   0  0  0  0  0  0  0  0  0  0  0  0
  155.0309  138.9632  159.3392 C   0  0  0  0  0  0  0  0  0  0  0  0
  155.5073  138.7587  160.5675 N   0  0  0  0  0  0  0  0  0  0  0  0
  155.0752  139.7204  161.4316 C   0  0  0  0  0  0  0  0  0  0  0  0
  154.2362  140.8280  161.1147 C   0  0  0  0  0  0  0  0  0  0  0  0
  154.0161  141.5859  162.2605 N   0  0  0  0  0  0  0  0  0  0  0  0
  154.6854  140.9676  163.1939 C   0  0  0  0  0  0  0  0  0  0  0  0
  155.3321  139.8232  162.7877 N   0  0  0  0  0  0  0  0  0  0  0  0
  156.1410  138.9447  163.6141 C   0  0  0  0  0  0  0  0  0  0  0  0
  155.3619  138.1864  164.7259 C   0  0  1  0  0  0  0  0  0  0  0  0
  154.4401  137.1318  164.0662 C   0  0  0  0  0  0  0  0  0  0  0  0
  153.5229  136.5933  164.9964 O   0  0  0  0  0  0  0  0  0  0  0  0
  156.2916  137.5414  165.7986 C   0  0  2  0  0  0  0  0  0  0  0  0
  157.1915  138.5157  166.5454 C   0  0  0  0  0  0  0  0  0  0  0  0
  158.2519  137.5961  167.1314 C   0  0  0  0  0  0  0  0  0  0  0  0
  158.4870  136.6410  166.1104 O   0  0  0  0  0  0  0  0  0  0  0  0
  157.3432  136.5513  165.2658 C   0  0  0  0  0  0  0  0  0  0  0  0
  151.6433  141.4558  158.8940 C   0  0  0  0  0  0  0  0  0  0  0  0
  149.5248  141.9877  157.6240 C   0  0  0  0  0  0  0  0  0  0  0  0
  149.5707  141.1042  156.4747 N   0  0  0  0  0  0  0  0  0  0  0  0
  152.6583  141.8574  156.5007 H   0  0  0  0  0  0  0  0  0  0  0  0
  151.6126  143.1379  155.8773 H   0  0  0  0  0  0  0  0  0  0  0  0
  150.6934  144.5602  157.6352 H   0  0  0  0  0  0  0  0  0  0  0  0
  150.4688  143.9757  159.2642 H   0  0  0  0  0  0  0  0  0  0  0  0
  153.1457  144.2541  157.8177 H   0  0  0  0  0  0  0  0  0  0  0  0
  152.5750  145.2501  159.1343 H   0  0  0  0  0  0  0  0  0  0  0  0
  154.1896  143.4865  159.8919 H   0  0  0  0  0  0  0  0  0  0  0  0
  152.6277  143.3385  160.6885 H   0  0  0  0  0  0  0  0  0  0  0  0
  155.3273  138.2381  158.5956 H   0  0  0  0  0  0  0  0  0  0  0  0
  154.7113  141.3233  164.2134 H   0  0  0  0  0  0  0  0  0  0  0  0
  156.6264  138.2397  162.9387 H   0  0  0  0  0  0  0  0  0  0  0  0
  156.9417  139.5344  164.0624 H   0  0  0  0  0  0  0  0  0  0  0  0
  154.7125  138.8963  165.2399 H   0  0  0  0  0  0  0  0  0  0  0  0
  153.8929  137.5648  163.2280 H   0  0  0  0  0  0  0  0  0  0  0  0
  155.0100  136.2897  163.6764 H   0  0  0  0  0  0  0  0  0  0  0  0
  153.6954  135.6687  165.0889 H   0  0  0  0  0  0  0  0  0  0  0  0
  155.6763  137.0277  166.5392 H   0  0  0  0  0  0  0  0  0  0  0  0
  157.6522  139.2218  165.8528 H   0  0  0  0  0  0  0  0  0  0  0  0
  156.6693  139.0807  167.3179 H   0  0  0  0  0  0  0  0  0  0  0  0
  159.1651  138.1236  167.4073 H   0  0  0  0  0  0  0  0  0  0  0  0
  157.8696  137.0848  168.0160 H   0  0  0  0  0  0  0  0  0  0  0  0
  156.9742  135.5266  165.2562 H   0  0  0  0  0  0  0  0  0  0  0  0
  157.6552  136.8087  164.2531 H   0  0  0  0  0  0  0  0  0  0  0  0
  151.0538  141.4494  159.8119 H   0  0  0  0  0  0  0  0  0  0  0  0
  151.6270  140.4334  158.5150 H   0  0  0  0  0  0  0  0  0  0  0  0
  149.0816  141.4913  158.4881 H   0  0  0  0  0  0  0  0  0  0  0  0
  148.8964  142.8436  157.3731 H   0  0  0  0  0  0  0  0  0  0  0  0
  148.8074  140.4940  156.2203 H   0  0  0  0  0  0  0  0  0  0  0  0
  1  2  2  0  0  0  0
  2 29  1  0  0  0  0
  2  3  1  0  0  0  0
  3  4  1  0  0  0  0
  3 30  1  0  0  0  0
  3 31  1  0  0  0  0
  4 27  1  0  0  0  0
  4  5  1  0  0  0  0
  4 28  1  0  0  0  0
  5  6  1  0  0  0  0
  5 32  1  0  0  0  0
  5 33  1  0  0  0  0
  6  7  1  0  0  0  0
  6 34  1  0  0  0  0
  6 35  1  0  0  0  0
  7  8  1  0  0  0  0
  7 36  1  0  0  0  0
  7 37  1  0  0  0  0
  8  9  1  0  0  0  0
  8 27  1  0  0  0  0
  9 14  1  0  0  0  0
  9 10  2  0  0  0  0
 10 11  1  0  0  0  0
 11 12  2  0  0  0  0
 11 38  1  0  0  0  0
 12 13  1  0  0  0  0
 13 17  1  0  0  0  0
 13 14  2  0  0  0  0
 14 15  1  0  0  0  0
 15 16  2  0  0  0  0
 16 17  1  0  0  0  0
 16 39  1  0  0  0  0
 17 18  1  0  0  0  0
 18 19  1  0  0  0  0
 18 40  1  0  0  0  0
 18 41  1  0  0  0  0
 19 20  1  0  0  0  0
 19 22  1  0  0  0  0
 19 42  1  0  0  0  0
 20 21  1  0  0  0  0
 20 43  1  0  0  0  0
 20 44  1  0  0  0  0
 21 45  1  0  0  0  0
 22 26  1  0  0  0  0
 22 23  1  0  0  0  0
 22 46  1  0  0  0  0
 23 24  1  0  0  0  0
 23 47  1  0  0  0  0
 23 48  1  0  0  0  0
 24 25  1  0  0  0  0
 24 49  1  0  0  0  0
 24 50  1  0  0  0  0
 25 26  1  0  0  0  0
 26 51  1  0  0  0  0
 26 52  1  0  0  0  0
 27 53  1  0  0  0  0
 27 54  1  0  0  0  0
 28 29  1  0  0  0  0
 28 55  1  0  0  0  0
 28 56  1  0  0  0  0
 29 57  1  0  0  0  0
M  END
> <s_m_source_file>
AV-unprocessed.smi

> <i_m_source_file_index>
20

> <i_lp_mmshare_version>
43012

> <i_f3d_flags>
0

> <s_epik_input>
W0NIMl0xW05IXUMoPU8pW0NIMl1bQ0BAXTEyW0NIMl1bQ0gyXVtDSDJdTihbQ0gyXTIpYyhuW2NIXW4zKWMoYzM0KW5bY0hdbjRbQ0gyXVtDQEhdKFtDSDJdW09IXSlbQ0BASF01W0NIMl1bQ0gyXU9bQ0gyXTU=

> <s_epik_cmdline>
J2VwaWtfcHl0aG9uJywgJy1waCcsICc3LjAnLCAnLXRuJywgJzgnLCAnLW1hJywgJzIwMCcsICctbWV0YWxfYmluZGluZycsICctaW1hZScsICc8aW5maWxlLm1hZT4nLCAnLW9tYWUnLCAnPG91dGZpbGUubWFlPic=

> <r_lp_tautomer_probability>
1

> <r_epik_Ionization_Penalty>
0.0019697

> <r_epik_Ionization_Penalty_Charging>
0

> <r_epik_Ionization_Penalty_Neutral>
0.0019697

> <r_epik_State_Penalty>
0.00113613

> <r_epik_Charging_Adjusted_Penalty>
0.00113613

> <i_epik_Tot_Q>
0

> <i_epik_Tot_abs_Q>
0

> <r_epik_Metal_State_Penalty>
-0

> <b_epik_Metal_Only>
0

> <s_lp_Force_Field>
OPLS_2005

> <r_lp_Energy>
60.5509

> <b_lp_Chiralities_Consistent>
1

> <s_lp_Variant>
AV-unprocessed.smi:20-3

> <Gold.Version>
5.8.1

> <Gold.Id.Protein>
6NUR|6NUR_protein|mol2

> <Gold.PLP.Fitness>
53.6877

> <Gold.PLP.PLP>
-49.5543

> <Gold.PLP.part.hbond>
-5.0000

> <Gold.PLP.part.metal>
0.0000

> <Gold.PLP.part.buried>
-4.5463

> <Gold.PLP.part.nonpolar>
-38.9166

> <Gold.PLP.part.repulsive>
0.1011

> <Gold.PLP.ligand.clash>
0.0000

> <Gold.PLP.ligand.torsion>
1.0893

> <Gold.PLP.Chemscore.Hbond>
2.0000

> <Gold.PLP.Chemscore.CHOScore>
0.0000

> <Gold.PLP.Chemscore.Metal>
0.0000

> <Gold.Chemscore.Hbonds>
donor molecule, donor type, donor heavy atom, donor atom, acceptor molecule, acceptor atom, score
      P1  H  7989  7998       L1     1  0.80
      P1  H  7997  8010       L1    10  0.98

> <Gold.PLP.Chemscore.Internal.Correction>
0.3119

> <Gold.Rescore>
     Score         DG    S(hbond)    S(metal)    S(lipo)     H(rot)  DE(clash)    DE(int)     intcor
     12.74     -14.69       1.54        0.00      87.80       2.43       0.62       1.32       ----

> <Gold.Chemscore.Fitness>
12.7412

> <Gold.Chemscore.DG>
-14.6861

> <Gold.Chemscore.ZeroCoef>
-5.4800

> <Gold.Chemscore.Hbond>
1.5439

> <Gold.Chemscore.Metal>
0.0000

> <Gold.Chemscore.Lipo>
87.7989

> <Gold.Chemscore.Internal_Hbond>
0.0000

> <Gold.Chemscore.DEClash>
0.6229

> <Gold.Chemscore.DEInternal>
1.3220

> <Gold.Chemscore.Rot>
2.4309

> <Gold.Chemscore.Internal.Correction>
   9.000000E+99

> <Gold.Chemscore.Hbonds>
donor molecule, donor type, donor heavy atom, donor atom, acceptor molecule, acceptor atom, score
      P1  H  7989  7998       L1     1  0.74
      P1  H  7997  8010       L1    10  0.24

> <Gold.Chemscore.Hbond.Weighted>
-5.1567

> <Gold.Chemscore.Metal.Weighted>
-0.0000

> <Gold.Chemscore.Lipo.Weighted>
-10.2725

> <Gold.Chemscore.Internal_Hbond.Weighted>
0.0000

> <Gold.Chemscore.DEClash.Weighted>
0.6229

> <Gold.Chemscore.DEInternal.Weighted>
1.3220

> <Gold.Chemscore.Rot.Weighted>
6.2231

> <Gold.Chemscore.Internal.Correction.Weighted>
   9.000000E+99

> <Gold.Protein.RotatedTorsions>
[ 6907 6896 6895 6894 ] final  154.86 input  -60.11 | X-H torsion
[ 7974 7965 7964 7962 ] final -110.13 input  175.53 | X-H torsion
[ 8008 7997 7996 7995 ] final   21.98 input   59.86 | X-H torsion
[ 10167 10162 10161 10158 ] final   -8.26 input  -65.29 | X-H torsion
[ 10718 10713 10712 10709 ] final  126.86 input   66.30 | X-H torsion
[ 10763 10752 10751 10750 ] final   32.28 input  -60.55 | X-H torsion
[ 11005 11000 10999 10996 ] final   10.62 input  -57.11 | X-H torsion

> <Gold.Protein.ActiveResidues>
 VAL166  LYS551  ARG553  GLY616  TRP617  ASP618  TYR619  PRO620  LYS621  CYS622 
 ASP623  PHE694  ASN695  SER759  ASP760  ASP761  ALA762  ILE779  LEU786  VAL792 
 PHE793  MET794  SER795  GLU796  ALA797  LYS798  CYS799  TRP800  GLU811  SER814 

> <Gold.Protein.RotatedAtoms>
  152.0524  133.4025  159.4382 H   0  0  0  0  0  0  0  0  0  0  0  0  # atno 6907 bound_to 6896
  150.6869  134.3293  159.4829 H   0  0  0  0  0  0  0  0  0  0  0  0  # atno 6908 bound_to 6896
  152.1104  134.9278  160.0617 H   0  0  0  0  0  0  0  0  0  0  0  0  # atno 6909 bound_to 6896
  145.1720  140.8930  143.3530 H   0  0  0  0  0  0  0  0  0  0  0  0  # atno 7974 bound_to 7965
  154.9588  140.3075  155.5040 H   0  0  0  0  0  0  0  0  0  0  0  0  # atno 8008 bound_to 7997
  156.2979  140.2305  156.4610 H   0  0  0  0  0  0  0  0  0  0  0  0  # atno 8009 bound_to 7997
  154.7985  140.0435  157.1243 H   0  0  0  0  0  0  0  0  0  0  0  0  # atno 8010 bound_to 7997
  140.7054  143.5988  150.8818 H   0  0  0  0  0  0  0  0  0  0  0  0  # atno 10167 bound_to 10162
  157.5383  131.1097  150.8900 H   0  0  0  0  0  0  0  0  0  0  0  0  # atno 10718 bound_to 10713
  153.0271  135.6417  154.1330 H   0  0  0  0  0  0  0  0  0  0  0  0  # atno 10763 bound_to 10752
  154.1058  135.2856  155.3243 H   0  0  0  0  0  0  0  0  0  0  0  0  # atno 10764 bound_to 10752
  154.6367  135.5474  153.7805 H   0  0  0  0  0  0  0  0  0  0  0  0  # atno 10765 bound_to 10752
  140.5124  134.0639  155.7822 H   0  0  0  0  0  0  0  0  0  0  0  0  # atno 11005 bound_to 11000
  145.0223  139.3413  143.6066 LP  0  0  0  0  0  0  0  0  0  0  0  0  # atno 17320 bound_to 7965
  146.3467  139.9528  142.8727 LP  0  0  0  0  0  0  0  0  0  0  0  0  # atno 17321 bound_to 7965
  139.9713  143.6053  152.2972 LP  0  0  0  0  0  0  0  0  0  0  0  0  # atno 17342 bound_to 10162
  139.6641  144.7662  151.1906 LP  0  0  0  0  0  0  0  0  0  0  0  0  # atno 17343 bound_to 10162
  156.9461  130.5402  149.5281 LP  0  0  0  0  0  0  0  0  0  0  0  0  # atno 17370 bound_to 10713
  156.0476  130.5550  150.8916 LP  0  0  0  0  0  0  0  0  0  0  0  0  # atno 17371 bound_to 10713
  141.1378  133.9191  157.2394 LP  0  0  0  0  0  0  0  0  0  0  0  0  # atno 17394 bound_to 11000
  139.9651  135.0144  156.9366 LP  0  0  0  0  0  0  0  0  0  0  0  0  # atno 17395 bound_to 11000

$$$$
