AV-unprocessed.smi:2417|AV-procd|sdf|9548|dock3
  -GOLD-   2272013183D 1   1.00000     0.00000
 Structure written by MMmdl.
 38 39  0  0  0  0  0  0  0  0  1 V2000
  152.2755  143.3831  161.5764 C   0  0  0  0  0  0  0  0  0  0  0  0
  152.0039  142.8415  160.1839 C   0  0  0  0  0  0  0  0  0  0  0  0
  151.0249  143.5204  159.4525 N   0  0  0  0  0  0  0  0  0  0  0  0
  150.7257  143.1292  158.2571 C   0  0  0  0  0  0  0  0  0  0  0  0
  151.3609  142.0276  157.6608 N   0  0  0  0  0  0  0  0  0  0  0  0
  150.9288  141.6863  156.2954 C   0  0  0  0  0  0  0  0  0  0  0  0
  150.6983  140.1687  156.1165 C   0  0  2  0  0  0  0  0  0  0  0  0
  150.6240  139.8374  154.7442 O   0  0  0  0  0  0  0  0  0  0  0  0
  149.4078  139.6727  156.7907 C   0  0  0  0  0  0  0  0  0  0  0  0
  148.6516  140.7792  157.2679 O   0  0  0  0  0  0  0  0  0  0  0  0
  147.7598  141.3818  156.4074 C   0  0  0  0  0  0  0  0  0  0  0  0
  146.6396  142.0125  156.9875 C   0  0  0  0  0  0  0  0  0  0  0  0
  145.6764  142.6531  156.1845 C   0  0  0  0  0  0  0  0  0  0  0  0
  145.8254  142.6688  154.7856 C   0  0  0  0  0  0  0  0  0  0  0  0
  144.9006  143.2844  154.0115 F   0  0  0  0  0  0  0  0  0  0  0  0
  146.9381  142.0436  154.1929 C   0  0  0  0  0  0  0  0  0  0  0  0
  147.9017  141.4030  154.9964 C   0  0  0  0  0  0  0  0  0  0  0  0
  152.3321  141.3143  158.3009 C   0  0  0  0  0  0  0  0  0  0  0  0
  152.8923  140.3575  157.7626 O   0  0  0  0  0  0  0  0  0  0  0  0
  152.6596  141.7690  159.6620 C   0  0  0  0  0  0  0  0  0  0  0  0
  153.7353  140.9920  160.4105 C   0  0  0  0  0  0  0  0  0  0  0  0
  152.0737  142.6211  162.3297 H   0  0  0  0  0  0  0  0  0  0  0  0
  151.6454  144.2455  161.7971 H   0  0  0  0  0  0  0  0  0  0  0  0
  153.3152  143.6985  161.6673 H   0  0  0  0  0  0  0  0  0  0  0  0
  149.9730  143.6272  157.6435 H   0  0  0  0  0  0  0  0  0  0  0  0
  149.9984  142.2181  156.0874 H   0  0  0  0  0  0  0  0  0  0  0  0
  151.6237  142.0580  155.5392 H   0  0  0  0  0  0  0  0  0  0  0  0
  151.5302  139.6054  156.5408 H   0  0  0  0  0  0  0  0  0  0  0  0
  149.7143  139.7470  154.5046 H   0  0  0  0  0  0  0  0  0  0  0  0
  148.8240  139.0656  156.0965 H   0  0  0  0  0  0  0  0  0  0  0  0
  149.6798  139.0390  157.6366 H   0  0  0  0  0  0  0  0  0  0  0  0
  146.5176  142.0049  158.0608 H   0  0  0  0  0  0  0  0  0  0  0  0
  144.8235  143.1321  156.6425 H   0  0  0  0  0  0  0  0  0  0  0  0
  147.0539  142.0553  153.1192 H   0  0  0  0  0  0  0  0  0  0  0  0
  148.7409  140.9351  154.5050 H   0  0  0  0  0  0  0  0  0  0  0  0
  154.6749  141.0236  159.8581 H   0  0  0  0  0  0  0  0  0  0  0  0
  153.4398  139.9477  160.5170 H   0  0  0  0  0  0  0  0  0  0  0  0
  153.9297  141.3801  161.4090 H   0  0  0  0  0  0  0  0  0  0  0  0
  1  2  1  0  0  0  0
  1 22  1  0  0  0  0
  1 23  1  0  0  0  0
  1 24  1  0  0  0  0
  2 20  2  0  0  0  0
  2  3  1  0  0  0  0
  3  4  2  0  0  0  0
  4  5  1  0  0  0  0
  4 25  1  0  0  0  0
  5  6  1  0  0  0  0
  5 18  1  0  0  0  0
  6  7  1  0  0  0  0
  6 26  1  0  0  0  0
  6 27  1  0  0  0  0
  7  8  1  0  0  0  0
  7  9  1  0  0  0  0
  7 28  1  0  0  0  0
  8 29  1  0  0  0  0
  9 10  1  0  0  0  0
  9 30  1  0  0  0  0
  9 31  1  0  0  0  0
 10 11  1  0  0  0  0
 11 17  1  0  0  0  0
 11 12  2  0  0  0  0
 12 13  1  0  0  0  0
 12 32  1  0  0  0  0
 13 14  2  0  0  0  0
 13 33  1  0  0  0  0
 14 15  1  0  0  0  0
 14 16  1  0  0  0  0
 16 17  2  0  0  0  0
 16 34  1  0  0  0  0
 17 35  1  0  0  0  0
 18 19  2  0  0  0  0
 18 20  1  0  0  0  0
 20 21  1  0  0  0  0
 21 36  1  0  0  0  0
 21 37  1  0  0  0  0
 21 38  1  0  0  0  0
M  END
> <s_m_source_file>
AV-unprocessed.smi

> <i_m_source_file_index>
2417

> <i_lp_mmshare_version>
43012

> <i_f3d_flags>
0

> <s_epik_input>
W0NIM11jMW5bY0hdbihjKD1PKWMxW0NIM10pW0NIMl1bQ0BIXShbT0hdKVtDSDJdT2MyW2NIXVtjSF1jKEYpW2NIXVtjSF0y

> <s_epik_cmdline>
J2VwaWtfcHl0aG9uJywgJy1waCcsICc3LjAnLCAnLXRuJywgJzgnLCAnLW1hJywgJzIwMCcsICctbWV0YWxfYmluZGluZycsICctaW1hZScsICc8aW5maWxlLm1hZT4nLCAnLW9tYWUnLCAnPG91dGZpbGUubWFlPic=

> <r_lp_tautomer_probability>
1

> <r_epik_Ionization_Penalty>
3.65384e-05

> <r_epik_Ionization_Penalty_Charging>
8.23007e-08

> <r_epik_Ionization_Penalty_Neutral>
3.64561e-05

> <r_epik_State_Penalty>
-0

> <r_epik_Charging_Adjusted_Penalty>
8.23007e-08

> <i_epik_Tot_Q>
0

> <i_epik_Tot_abs_Q>
0

> <r_epik_Metal_State_Penalty>
-0

> <b_epik_Metal_Only>
0

> <s_lp_Force_Field>
OPLS_2005

> <r_lp_Energy>
23.7128

> <b_lp_Chiralities_Consistent>
1

> <s_lp_Variant>
AV-unprocessed.smi:2417-1

> <Gold.Version>
5.8.1

> <Gold.Id.Protein>
6NUR|6NUR_protein|mol2

> <Gold.PLP.Fitness>
48.3000

> <Gold.PLP.PLP>
-42.3814

> <Gold.PLP.part.hbond>
-2.0000

> <Gold.PLP.part.metal>
0.0000

> <Gold.PLP.part.buried>
-5.3435

> <Gold.PLP.part.nonpolar>
-34.0645

> <Gold.PLP.part.repulsive>
0.0959

> <Gold.PLP.ligand.clash>
0.0220

> <Gold.PLP.ligand.torsion>
1.5455

> <Gold.PLP.Chemscore.Hbond>
1.9920

> <Gold.PLP.Chemscore.CHOScore>
1.0000

> <Gold.PLP.Chemscore.Metal>
0.0000

> <Gold.Chemscore.Hbonds>
donor molecule, donor type, donor heavy atom, donor atom, acceptor molecule, acceptor atom, score
      P1  H  7989  7998       L1     8  1.00
      P1  H  7997  8008       L1    19  0.90
      L1  C     4    25       P1  8028  1.00

> <Gold.PLP.Chemscore.Internal.Correction>
0.0557

> <Gold.Rescore>
     Score         DG    S(hbond)    S(metal)    S(lipo)     H(rot)  DE(clash)    DE(int)     intcor
     10.76     -14.63       1.83        0.00      81.51       2.54       0.02       3.85       ----

> <Gold.Chemscore.Fitness>
10.7622

> <Gold.Chemscore.DG>
-14.6321

> <Gold.Chemscore.ZeroCoef>
-5.4800

> <Gold.Chemscore.Hbond>
1.8281

> <Gold.Chemscore.Metal>
0.0000

> <Gold.Chemscore.Lipo>
81.5138

> <Gold.Chemscore.Internal_Hbond>
0.0000

> <Gold.Chemscore.DEClash>
0.0221

> <Gold.Chemscore.DEInternal>
3.8478

> <Gold.Chemscore.Rot>
2.5355

> <Gold.Chemscore.Internal.Correction>
   9.000000E+99

> <Gold.Chemscore.Hbonds>
donor molecule, donor type, donor heavy atom, donor atom, acceptor molecule, acceptor atom, score
      P1  H  7989  7998       L1     8  0.82
      P1  H  7997  8008       L1    19  0.88

> <Gold.Chemscore.Hbond.Weighted>
-6.1058

> <Gold.Chemscore.Metal.Weighted>
-0.0000

> <Gold.Chemscore.Lipo.Weighted>
-9.5371

> <Gold.Chemscore.Internal_Hbond.Weighted>
0.0000

> <Gold.Chemscore.DEClash.Weighted>
0.0221

> <Gold.Chemscore.DEInternal.Weighted>
3.8478

> <Gold.Chemscore.Rot.Weighted>
6.4908

> <Gold.Chemscore.Internal.Correction.Weighted>
   9.000000E+99

> <Gold.Protein.RotatedTorsions>
[ 6907 6896 6895 6894 ] final  -19.57 input  -60.11 | X-H torsion
[ 7974 7965 7964 7962 ] final   23.98 input  175.53 | X-H torsion
[ 8008 7997 7996 7995 ] final  -72.20 input   59.86 | X-H torsion
[ 10167 10162 10161 10158 ] final  138.80 input  -65.29 | X-H torsion
[ 10718 10713 10712 10709 ] final   92.15 input   66.30 | X-H torsion
[ 10763 10752 10751 10750 ] final   99.00 input  -60.55 | X-H torsion
[ 11005 11000 10999 10996 ] final -150.89 input  -57.11 | X-H torsion

> <Gold.Protein.ActiveResidues>
 VAL166  LYS551  ARG553  GLY616  TRP617  ASP618  TYR619  PRO620  LYS621  CYS622 
 ASP623  PHE694  ASN695  SER759  ASP760  ASP761  ALA762  ILE779  LEU786  VAL792 
 PHE793  MET794  SER795  GLU796  ALA797  LYS798  CYS799  TRP800  GLU811  SER814 

> <Gold.Protein.RotatedAtoms>
  151.2611  135.0654  159.9098 H   0  0  0  0  0  0  0  0  0  0  0  0  # atno 6907 bound_to 6896
  152.5366  134.0230  159.8000 H   0  0  0  0  0  0  0  0  0  0  0  0  # atno 6908 bound_to 6896
  151.0453  133.5621  159.2678 H   0  0  0  0  0  0  0  0  0  0  0  0  # atno 6909 bound_to 6896
  146.1959  139.7668  142.8797 H   0  0  0  0  0  0  0  0  0  0  0  0  # atno 7974 bound_to 7965
  154.5147  140.0801  156.8058 H   0  0  0  0  0  0  0  0  0  0  0  0  # atno 8008 bound_to 7997
  155.3707  140.3423  155.4225 H   0  0  0  0  0  0  0  0  0  0  0  0  # atno 8009 bound_to 7997
  156.1614  140.1589  156.8593 H   0  0  0  0  0  0  0  0  0  0  0  0  # atno 8010 bound_to 7997
  139.5099  144.6332  151.5763 H   0  0  0  0  0  0  0  0  0  0  0  0  # atno 10167 bound_to 10162
  157.6959  131.0433  150.3837 H   0  0  0  0  0  0  0  0  0  0  0  0  # atno 10718 bound_to 10713
  153.2960  135.4128  155.1210 H   0  0  0  0  0  0  0  0  0  0  0  0  # atno 10763 bound_to 10752
  154.8535  135.3530  154.5917 H   0  0  0  0  0  0  0  0  0  0  0  0  # atno 10764 bound_to 10752
  153.6340  135.7059  153.5323 H   0  0  0  0  0  0  0  0  0  0  0  0  # atno 10765 bound_to 10752
  140.7354  134.3574  157.5158 H   0  0  0  0  0  0  0  0  0  0  0  0  # atno 11005 bound_to 11000
  145.3645  141.0332  143.3266 LP  0  0  0  0  0  0  0  0  0  0  0  0  # atno 17320 bound_to 7965
  144.8580  139.5221  143.6826 LP  0  0  0  0  0  0  0  0  0  0  0  0  # atno 17321 bound_to 7965
  140.6072  143.9502  150.6427 LP  0  0  0  0  0  0  0  0  0  0  0  0  # atno 17342 bound_to 10162
  140.2733  143.3440  152.1218 LP  0  0  0  0  0  0  0  0  0  0  0  0  # atno 17343 bound_to 10162
  156.4248  130.3960  149.6800 LP  0  0  0  0  0  0  0  0  0  0  0  0  # atno 17370 bound_to 10713
  156.4038  130.7688  151.2697 LP  0  0  0  0  0  0  0  0  0  0  0  0  # atno 17371 bound_to 10713
  139.8817  134.9046  156.2880 LP  0  0  0  0  0  0  0  0  0  0  0  0  # atno 17394 bound_to 11000
  140.9884  133.7224  156.0777 LP  0  0  0  0  0  0  0  0  0  0  0  0  # atno 17395 bound_to 11000

$$$$
