AV-unprocessed.smi:2106|AV-procd|sdf|8597|dock5
  -GOLD-   2272011333D 1   1.00000     0.00000
 Structure written by MMmdl.
 48 49  0  0  0  0  0  0  0  0  2 V2000
  151.4315  144.8347  158.8267 C   0  0  0  0  0  0  0  0  0  0  0  0
  152.0779  143.6476  159.4775 C   0  0  0  0  0  0  0  0  0  0  0  0
  152.8344  143.6064  160.6818 C   0  0  0  0  0  0  0  0  0  0  0  0
  153.1820  142.2919  160.8181 C   0  0  0  0  0  0  0  0  0  0  0  0
  153.9773  141.6133  161.8847 C   0  0  0  0  0  0  0  0  0  0  0  0
  152.6444  141.6207  159.7337 N   0  0  0  0  0  0  0  0  0  0  0  0
  152.7087  140.2056  159.4042 C   0  0  0  0  0  0  0  0  0  0  0  0
  152.2000  139.9491  157.9851 C   0  0  0  0  0  0  0  0  0  0  0  0
  152.9001  139.3351  157.1800 O   0  0  0  0  0  0  0  0  0  0  0  0
  150.9780  140.4198  157.6914 N   0  0  0  0  0  0  0  0  0  0  0  0
  150.2985  140.2441  156.4136 C   0  0  0  0  0  0  0  0  0  0  0  0
  149.7414  141.5761  155.8732 C   0  0  0  0  0  0  0  0  0  0  0  0
  148.2636  141.6618  155.9806 N   0  3  1  0  0  0  0  0  0  0  0  0
  147.5805  141.0404  154.8209 C   0  0  0  0  0  0  0  0  0  0  0  0
  146.0506  141.1966  154.9224 C   0  0  2  0  0  0  0  0  0  0  0  0
  145.5572  142.6251  154.6310 C   0  0  0  0  0  0  0  0  0  0  0  0
  145.5879  140.7105  156.1824 O   0  0  0  0  0  0  0  0  0  0  0  0
  146.2016  141.3134  157.3184 C   0  0  1  0  0  0  0  0  0  0  0  0
  145.5937  140.6820  158.5757 C   0  0  0  0  0  0  0  0  0  0  0  0
  147.7256  141.1086  157.2471 C   0  0  0  0  0  0  0  0  0  0  0  0
  151.9682  142.4558  158.9143 N   0  0  0  0  0  0  0  0  0  0  0  0
  151.6396  145.7500  159.3814 H   0  0  0  0  0  0  0  0  0  0  0  0
  150.3489  144.7152  158.7794 H   0  0  0  0  0  0  0  0  0  0  0  0
  151.7978  144.9738  157.8091 H   0  0  0  0  0  0  0  0  0  0  0  0
  153.0830  144.4201  161.3468 H   0  0  0  0  0  0  0  0  0  0  0  0
  154.2741  142.3212  162.6588 H   0  0  0  0  0  0  0  0  0  0  0  0
  154.8835  141.1701  161.4715 H   0  0  0  0  0  0  0  0  0  0  0  0
  153.3978  140.8225  162.3609 H   0  0  0  0  0  0  0  0  0  0  0  0
  153.7376  139.8559  159.5066 H   0  0  0  0  0  0  0  0  0  0  0  0
  152.1119  139.6417  160.1219 H   0  0  0  0  0  0  0  0  0  0  0  0
  150.4720  140.9057  158.4183 H   0  0  0  0  0  0  0  0  0  0  0  0
  150.9920  139.7826  155.7103 H   0  0  0  0  0  0  0  0  0  0  0  0
  149.4846  139.5333  156.5589 H   0  0  0  0  0  0  0  0  0  0  0  0
  150.1870  142.3871  156.4514 H   0  0  0  0  0  0  0  0  0  0  0  0
  150.0387  141.7385  154.8361 H   0  0  0  0  0  0  0  0  0  0  0  0
  147.9376  141.4828  153.8899 H   0  0  0  0  0  0  0  0  0  0  0  0
  147.8386  139.9806  154.7851 H   0  0  0  0  0  0  0  0  0  0  0  0
  145.6017  140.5502  154.1677 H   0  0  0  0  0  0  0  0  0  0  0  0
  145.8092  142.9205  153.6123 H   0  0  0  0  0  0  0  0  0  0  0  0
  146.0006  143.3622  155.2998 H   0  0  0  0  0  0  0  0  0  0  0  0
  144.4734  142.6894  154.7322 H   0  0  0  0  0  0  0  0  0  0  0  0
  145.9761  142.3798  157.3364 H   0  0  0  0  0  0  0  0  0  0  0  0
  146.0227  141.1145  159.4802 H   0  0  0  0  0  0  0  0  0  0  0  0
  145.7692  139.6063  158.6033 H   0  0  0  0  0  0  0  0  0  0  0  0
  144.5161  140.8442  158.6107 H   0  0  0  0  0  0  0  0  0  0  0  0
  147.9692  140.0468  157.3144 H   0  0  0  0  0  0  0  0  0  0  0  0
  148.1893  141.5952  158.1042 H   0  0  0  0  0  0  0  0  0  0  0  0
  148.0275  142.6436  155.9590 H   0  0  0  0  0  0  0  0  0  0  0  0
  1  2  1  0  0  0  0
  1 22  1  0  0  0  0
  1 23  1  0  0  0  0
  1 24  1  0  0  0  0
  2 21  2  0  0  0  0
  2  3  1  0  0  0  0
  3  4  2  0  0  0  0
  3 25  1  0  0  0  0
  4  5  1  0  0  0  0
  4  6  1  0  0  0  0
  5 26  1  0  0  0  0
  5 27  1  0  0  0  0
  5 28  1  0  0  0  0
  6  7  1  0  0  0  0
  6 21  1  0  0  0  0
  7  8  1  0  0  0  0
  7 29  1  0  0  0  0
  7 30  1  0  0  0  0
  8  9  2  0  0  0  0
  8 10  1  0  0  0  0
 10 11  1  0  0  0  0
 10 31  1  0  0  0  0
 11 12  1  0  0  0  0
 11 32  1  0  0  0  0
 11 33  1  0  0  0  0
 12 13  1  0  0  0  0
 12 34  1  0  0  0  0
 12 35  1  0  0  0  0
 13 20  1  0  0  0  0
 13 14  1  0  0  0  0
 13 48  1  0  0  0  0
 14 15  1  0  0  0  0
 14 36  1  0  0  0  0
 14 37  1  0  0  0  0
 15 16  1  0  0  0  0
 15 17  1  0  0  0  0
 15 38  1  0  0  0  0
 16 39  1  0  0  0  0
 16 40  1  0  0  0  0
 16 41  1  0  0  0  0
 17 18  1  0  0  0  0
 18 19  1  0  0  0  0
 18 20  1  0  0  0  0
 18 42  1  0  0  0  0
 19 43  1  0  0  0  0
 19 44  1  0  0  0  0
 19 45  1  0  0  0  0
 20 46  1  0  0  0  0
 20 47  1  0  0  0  0
M  CHG  1  13   1
M  END
> <s_m_source_file>
AV-unprocessed.smi

> <i_m_source_file_index>
2106

> <i_lp_mmshare_version>
43012

> <i_f3d_flags>
0

> <s_epik_input>
W0NIM11jMVtjSF1jKFtDSDNdKW4objEpW0NIMl1DKD1PKVtOSF1bQ0gyXVtDSDJdTjJbQ0gyXVtDQEBIXShbQ0gzXSlPW0NAQEhdKFtDSDNdKVtDSDJdMg==

> <s_epik_cmdline>
J2VwaWtfcHl0aG9uJywgJy1waCcsICc3LjAnLCAnLXRuJywgJzgnLCAnLW1hJywgJzIwMCcsICctbWV0YWxfYmluZGluZycsICctaW1hZScsICc8aW5maWxlLm1hZT4nLCAnLW9tYWUnLCAnPG91dGZpbGUubWFlPic=

> <r_lp_tautomer_probability>
1

> <r_epik_Ionization_Penalty>
0.748586

> <r_epik_Ionization_Penalty_Charging>
0.748396

> <r_epik_Ionization_Penalty_Neutral>
0.000189656

> <r_epik_State_Penalty>
0.775162

> <r_epik_Charging_Adjusted_Penalty>
1.52356

> <i_epik_Tot_Q>
1

> <i_epik_Tot_abs_Q>
1

> <r_epik_Metal_State_Penalty>
0.775295

> <b_epik_Metal_Only>
0

> <s_lp_Force_Field>
OPLS_2005

> <r_lp_Energy>
15.7435

> <b_lp_Chiralities_Consistent>
1

> <s_lp_Variant>
AV-unprocessed.smi:2106-5

> <Gold.Version>
5.8.1

> <Gold.Id.Protein>
6NUR|6NUR_protein|mol2

> <Gold.PLP.Fitness>
51.3811

> <Gold.PLP.PLP>
-43.8665

> <Gold.PLP.part.hbond>
-2.0000

> <Gold.PLP.part.metal>
0.0000

> <Gold.PLP.part.buried>
-6.6490

> <Gold.PLP.part.nonpolar>
-35.7060

> <Gold.PLP.part.repulsive>
0.2647

> <Gold.PLP.ligand.clash>
0.0000

> <Gold.PLP.ligand.torsion>
0.7731

> <Gold.PLP.Chemscore.Hbond>
3.0000

> <Gold.PLP.Chemscore.CHOScore>
0.0000

> <Gold.PLP.Chemscore.Metal>
0.0000

> <Gold.Chemscore.Hbonds>
donor molecule, donor type, donor heavy atom, donor atom, acceptor molecule, acceptor atom, score
      L1  H    13    48       P1  8028  0.82
      P1  H  7997  8008       L1     9  1.00

> <Gold.PLP.Chemscore.Internal.Correction>
0.0608

> <Gold.Rescore>
     Score         DG    S(hbond)    S(metal)    S(lipo)     H(rot)  DE(clash)    DE(int)     intcor
     18.00     -20.16       1.97        0.00     107.12       1.73       0.04       2.12       ----

> <Gold.Chemscore.Fitness>
18.0041

> <Gold.Chemscore.DG>
-20.1639

> <Gold.Chemscore.ZeroCoef>
-5.4800

> <Gold.Chemscore.Hbond>
1.9714

> <Gold.Chemscore.Metal>
0.0000

> <Gold.Chemscore.Lipo>
107.1153

> <Gold.Chemscore.Internal_Hbond>
0.0000

> <Gold.Chemscore.DEClash>
0.0396

> <Gold.Chemscore.DEInternal>
2.1203

> <Gold.Chemscore.Rot>
1.7316

> <Gold.Chemscore.Internal.Correction>
   9.000000E+99

> <Gold.Chemscore.Hbonds>
donor molecule, donor type, donor heavy atom, donor atom, acceptor molecule, acceptor atom, score
      L1  H    13    48       P1  8028  0.33
      P1  H  7997  8008       L1     9  0.96

> <Gold.Chemscore.Hbond.Weighted>
-6.5844

> <Gold.Chemscore.Metal.Weighted>
-0.0000

> <Gold.Chemscore.Lipo.Weighted>
-12.5325

> <Gold.Chemscore.Internal_Hbond.Weighted>
0.0000

> <Gold.Chemscore.DEClash.Weighted>
0.0396

> <Gold.Chemscore.DEInternal.Weighted>
2.1203

> <Gold.Chemscore.Rot.Weighted>
4.4330

> <Gold.Chemscore.Internal.Correction.Weighted>
   9.000000E+99

> <Gold.Protein.RotatedTorsions>
[ 6907 6896 6895 6894 ] final  -59.98 input  -60.11 | X-H torsion
[ 7974 7965 7964 7962 ] final  -35.65 input  175.53 | X-H torsion
[ 8008 7997 7996 7995 ] final  -60.22 input   59.86 | X-H torsion
[ 10167 10162 10161 10158 ] final  134.93 input  -65.29 | X-H torsion
[ 10718 10713 10712 10709 ] final  174.13 input   66.30 | X-H torsion
[ 10763 10752 10751 10750 ] final  -53.11 input  -60.55 | X-H torsion
[ 11005 11000 10999 10996 ] final  171.45 input  -57.11 | X-H torsion

> <Gold.Protein.ActiveResidues>
 VAL166  LYS551  ARG553  GLY616  TRP617  ASP618  TYR619  PRO620  LYS621  CYS622 
 ASP623  PHE694  ASN695  SER759  ASP760  ASP761  ALA762  ILE779  LEU786  VAL792 
 PHE793  MET794  SER795  GLU796  ALA797  LYS798  CYS799  TRP800  GLU811  SER814 

> <Gold.Protein.RotatedAtoms>
  150.7890  134.6897  159.6489 H   0  0  0  0  0  0  0  0  0  0  0  0  # atno 6907 bound_to 6896
  152.3991  134.6312  160.0086 H   0  0  0  0  0  0  0  0  0  0  0  0  # atno 6908 bound_to 6896
  151.6589  133.3281  159.3205 H   0  0  0  0  0  0  0  0  0  0  0  0  # atno 6909 bound_to 6896
  146.0728  140.6185  142.8944 H   0  0  0  0  0  0  0  0  0  0  0  0  # atno 7974 bound_to 7965
  154.4389  140.1044  156.6240 H   0  0  0  0  0  0  0  0  0  0  0  0  # atno 8008 bound_to 7997
  155.5677  140.3488  155.4488 H   0  0  0  0  0  0  0  0  0  0  0  0  # atno 8009 bound_to 7997
  156.0413  140.1282  157.0142 H   0  0  0  0  0  0  0  0  0  0  0  0  # atno 8010 bound_to 7997
  139.5237  144.6543  151.5210 H   0  0  0  0  0  0  0  0  0  0  0  0  # atno 10167 bound_to 10162
  156.9541  131.0040  151.2942 H   0  0  0  0  0  0  0  0  0  0  0  0  # atno 10718 bound_to 10713
  154.1536  135.6486  153.4969 H   0  0  0  0  0  0  0  0  0  0  0  0  # atno 10763 bound_to 10752
  153.0130  135.5344  154.6783 H   0  0  0  0  0  0  0  0  0  0  0  0  # atno 10764 bound_to 10752
  154.6077  135.2950  155.0438 H   0  0  0  0  0  0  0  0  0  0  0  0  # atno 10765 bound_to 10752
  140.3192  134.7452  157.4051 H   0  0  0  0  0  0  0  0  0  0  0  0  # atno 11005 bound_to 11000
  144.7242  140.4473  143.6985 LP  0  0  0  0  0  0  0  0  0  0  0  0  # atno 17320 bound_to 7965
  145.6360  139.1543  143.2942 LP  0  0  0  0  0  0  0  0  0  0  0  0  # atno 17321 bound_to 7965
  140.6361  143.8981  150.6649 LP  0  0  0  0  0  0  0  0  0  0  0  0  # atno 17342 bound_to 10162
  140.2301  143.3742  152.1573 LP  0  0  0  0  0  0  0  0  0  0  0  0  # atno 17343 bound_to 10162
  157.5702  130.8305  149.8381 LP  0  0  0  0  0  0  0  0  0  0  0  0  # atno 17370 bound_to 10713
  156.0350  130.3754  150.1584 LP  0  0  0  0  0  0  0  0  0  0  0  0  # atno 17371 bound_to 10713
  140.0957  134.5541  155.8401 LP  0  0  0  0  0  0  0  0  0  0  0  0  # atno 17394 bound_to 11000
  141.2090  133.6680  156.6413 LP  0  0  0  0  0  0  0  0  0  0  0  0  # atno 17395 bound_to 11000

$$$$
