AV-unprocessed.smi:2059|AV-procd|sdf|8352|dock8
  -GOLD-   2272011 23D 1   1.00000     0.00000
 Structure written by MMmdl.
 29 30  0  0  0  0  0  0  0  0  2 V2000
  151.4780  137.8722  154.1814 C   0  0  0  0  0  0  0  0  0  0  0  0
  151.9443  138.0850  155.5808 C   0  0  0  0  0  0  0  0  0  0  0  0
  151.8724  139.1501  156.4336 C   0  0  0  0  0  0  0  0  0  0  0  0
  152.5165  138.6721  157.6069 C   0  0  0  0  0  0  0  0  0  0  0  0
  152.6398  139.5189  158.7460 N   0  0  0  0  0  0  0  0  0  0  0  0
  153.7241  139.9891  159.3997 C   0  0  0  0  0  0  0  0  0  0  0  0
  154.8103  139.6274  158.9356 O   0  0  0  0  0  0  0  0  0  0  0  0
  153.5301  140.7981  160.4816 N   0  5  0  0  0  0  0  0  0  0  0  0
  153.2591  142.2365  160.4257 C   0  0  2  0  0  0  0  0  0  0  0  0
  152.8180  142.7621  161.8058 C   0  0  0  0  0  0  0  0  0  0  0  0
  152.2154  144.1635  161.6288 C   0  0  0  0  0  0  0  0  0  0  0  0
  151.4312  144.1633  159.9700 S   0  0  0  0  0  0  0  0  0  0  0  0
  149.9733  144.0279  160.1147 O   0  0  0  0  0  0  0  0  0  0  0  0
  152.0089  145.2541  159.1688 O   0  0  0  0  0  0  0  0  0  0  0  0
  152.1342  142.5561  159.4286 C   0  0  0  0  0  0  0  0  0  0  0  0
  152.9383  137.4218  157.4771 N   0  0  0  0  0  0  0  0  0  0  0  0
  152.5751  137.0403  156.1803 O   0  0  0  0  0  0  0  0  0  0  0  0
  151.1012  138.7999  153.7506 H   0  0  0  0  0  0  0  0  0  0  0  0
  150.6765  137.1341  154.1500 H   0  0  0  0  0  0  0  0  0  0  0  0
  152.2936  137.5148  153.5523 H   0  0  0  0  0  0  0  0  0  0  0  0
  151.4306  140.1174  156.2461 H   0  0  0  0  0  0  0  0  0  0  0  0
  151.7593  139.8258  159.1317 H   0  0  0  0  0  0  0  0  0  0  0  0
  154.1421  142.8061  160.1307 H   0  0  0  0  0  0  0  0  0  0  0  0
  152.0512  142.1032  162.2169 H   0  0  0  0  0  0  0  0  0  0  0  0
  153.6434  142.7717  162.5184 H   0  0  0  0  0  0  0  0  0  0  0  0
  151.4773  144.4042  162.3937 H   0  0  0  0  0  0  0  0  0  0  0  0
  152.9897  144.9321  161.6400 H   0  0  0  0  0  0  0  0  0  0  0  0
  152.4863  142.6240  158.3992 H   0  0  0  0  0  0  0  0  0  0  0  0
  151.3383  141.8121  159.4771 H   0  0  0  0  0  0  0  0  0  0  0  0
  1  2  1  0  0  0  0
  1 18  1  0  0  0  0
  1 19  1  0  0  0  0
  1 20  1  0  0  0  0
  2 17  1  0  0  0  0
  2  3  2  0  0  0  0
  3  4  1  0  0  0  0
  3 21  1  0  0  0  0
  4  5  1  0  0  0  0
  4 16  2  0  0  0  0
  5  6  1  0  0  0  0
  5 22  1  0  0  0  0
  6  7  2  0  0  0  0
  6  8  1  0  0  0  0
  8  9  1  0  0  0  0
  9 15  1  0  0  0  0
  9 10  1  0  0  0  0
  9 23  1  0  0  0  0
 10 11  1  0  0  0  0
 10 24  1  0  0  0  0
 10 25  1  0  0  0  0
 11 12  1  0  0  0  0
 11 26  1  0  0  0  0
 11 27  1  0  0  0  0
 12 13  2  0  0  0  0
 12 14  2  0  0  0  0
 12 15  1  0  0  0  0
 15 28  1  0  0  0  0
 15 29  1  0  0  0  0
 16 17  1  0  0  0  0
M  CHG  1   8  -1
M  END
> <s_m_source_file>
AV-unprocessed.smi

> <i_m_source_file_index>
2059

> <i_lp_mmshare_version>
43012

> <i_f3d_flags>
0

> <s_epik_input>
W0NIM11jMVtjSF1jKG5vMSlbTkhdQyg9TylbTkhdW0NAQEhdKFtDSDJdMilbQ0gyXVtDSDJdUzIoPU8pPU8=

> <s_epik_cmdline>
J2VwaWtfcHl0aG9uJywgJy1waCcsICc3LjAnLCAnLXRuJywgJzgnLCAnLW1hJywgJzIwMCcsICctbWV0YWxfYmluZGluZycsICctaW1hZScsICc8aW5maWxlLm1hZT4nLCAnLW9tYWUnLCAnPG91dGZpbGUubWFlPic=

> <r_lp_tautomer_probability>
1

> <r_epik_Ionization_Penalty>
6.6071

> <r_epik_Ionization_Penalty_Charging>
6.60709

> <r_epik_Ionization_Penalty_Neutral>
5.42629e-06

> <r_epik_State_Penalty>
6.6352

> <r_epik_Charging_Adjusted_Penalty>
13.2423

> <i_epik_Tot_Q>
-1

> <i_epik_Tot_abs_Q>
1

> <r_epik_Metal_State_Penalty>
2.57602

> <b_epik_Metal_Only>
1

> <s_lp_Force_Field>
OPLS_2005

> <r_lp_Energy>
11.3724

> <b_lp_Chiralities_Consistent>
1

> <s_lp_Variant>
AV-unprocessed.smi:2059-5

> <Gold.Version>
5.8.1

> <Gold.Id.Protein>
6NUR|6NUR_protein|mol2

> <Gold.PLP.Fitness>
35.8221

> <Gold.PLP.PLP>
-33.1248

> <Gold.PLP.part.hbond>
-2.6306

> <Gold.PLP.part.metal>
0.0000

> <Gold.PLP.part.buried>
-5.5295

> <Gold.PLP.part.nonpolar>
-24.8694

> <Gold.PLP.part.repulsive>
0.3268

> <Gold.PLP.ligand.clash>
0.0000

> <Gold.PLP.ligand.torsion>
1.4245

> <Gold.PLP.Chemscore.Hbond>
1.8480

> <Gold.PLP.Chemscore.CHOScore>
0.0000

> <Gold.PLP.Chemscore.Metal>
0.0000

> <Gold.Chemscore.Hbonds>
donor molecule, donor type, donor heavy atom, donor atom, acceptor molecule, acceptor atom, score
      P1  H  7997  8010       L1     7  1.00
      P1  H 10752 10763       L1    17  0.86

> <Gold.PLP.Chemscore.Internal.Correction>
0.0023

> <Gold.Rescore>
     Score         DG    S(hbond)    S(metal)    S(lipo)     H(rot)  DE(clash)    DE(int)     intcor
     16.22     -17.54       2.09        0.00      65.14       1.00       0.00       1.31       ----

> <Gold.Chemscore.Fitness>
16.2225

> <Gold.Chemscore.DG>
-17.5362

> <Gold.Chemscore.ZeroCoef>
-5.4800

> <Gold.Chemscore.Hbond>
2.0944

> <Gold.Chemscore.Metal>
0.0000

> <Gold.Chemscore.Lipo>
65.1351

> <Gold.Chemscore.Internal_Hbond>
0.0000

> <Gold.Chemscore.DEClash>
0.0000

> <Gold.Chemscore.DEInternal>
1.3137

> <Gold.Chemscore.Rot>
1.0000

> <Gold.Chemscore.Internal.Correction>
   9.000000E+99

> <Gold.Chemscore.Hbonds>
donor molecule, donor type, donor heavy atom, donor atom, acceptor molecule, acceptor atom, score
      P1  H  7997  8010       L1     7  0.98
      P1  H 10752 10763       L1    17  0.80

> <Gold.Chemscore.Hbond.Weighted>
-6.9954

> <Gold.Chemscore.Metal.Weighted>
-0.0000

> <Gold.Chemscore.Lipo.Weighted>
-7.6208

> <Gold.Chemscore.Internal_Hbond.Weighted>
0.0000

> <Gold.Chemscore.DEClash.Weighted>
0.0000

> <Gold.Chemscore.DEInternal.Weighted>
1.3137

> <Gold.Chemscore.Rot.Weighted>
2.5600

> <Gold.Chemscore.Internal.Correction.Weighted>
   9.000000E+99

> <Gold.Protein.RotatedTorsions>
[ 6907 6896 6895 6894 ] final  -34.52 input  -60.11 | X-H torsion
[ 7974 7965 7964 7962 ] final  -50.49 input  175.53 | X-H torsion
[ 8008 7997 7996 7995 ] final   -8.48 input   59.86 | X-H torsion
[ 10167 10162 10161 10158 ] final -127.62 input  -65.29 | X-H torsion
[ 10718 10713 10712 10709 ] final  154.24 input   66.30 | X-H torsion
[ 10763 10752 10751 10750 ] final   95.53 input  -60.55 | X-H torsion
[ 11005 11000 10999 10996 ] final   78.92 input  -57.11 | X-H torsion

> <Gold.Protein.ActiveResidues>
 VAL166  LYS551  ARG553  GLY616  TRP617  ASP618  TYR619  PRO620  LYS621  CYS622 
 ASP623  PHE694  ASN695  SER759  ASP760  ASP761  ALA762  ILE779  LEU786  VAL792 
 PHE793  MET794  SER795  GLU796  ALA797  LYS798  CYS799  TRP800  GLU811  SER814 

> <Gold.Protein.RotatedAtoms>
  151.0516  134.9677  159.8214 H   0  0  0  0  0  0  0  0  0  0  0  0  # atno 6907 bound_to 6896
  152.5381  134.2530  159.8916 H   0  0  0  0  0  0  0  0  0  0  0  0  # atno 6908 bound_to 6896
  151.2546  133.4290  159.2647 H   0  0  0  0  0  0  0  0  0  0  0  0  # atno 6909 bound_to 6896
  145.9293  140.7764  142.9608 H   0  0  0  0  0  0  0  0  0  0  0  0  # atno 7974 bound_to 7965
  154.5737  140.2380  155.8153 H   0  0  0  0  0  0  0  0  0  0  0  0  # atno 8008 bound_to 7997
  156.2127  140.3021  155.9726 H   0  0  0  0  0  0  0  0  0  0  0  0  # atno 8009 bound_to 7997
  155.2665  140.0416  157.2993 H   0  0  0  0  0  0  0  0  0  0  0  0  # atno 8010 bound_to 7997
  139.9589  143.5972  152.2451 H   0  0  0  0  0  0  0  0  0  0  0  0  # atno 10167 bound_to 10162
  157.2342  131.0745  151.1834 H   0  0  0  0  0  0  0  0  0  0  0  0  # atno 10718 bound_to 10713
  153.2543  135.4251  155.0829 H   0  0  0  0  0  0  0  0  0  0  0  0  # atno 10763 bound_to 10752
  154.8394  135.3433  154.6469 H   0  0  0  0  0  0  0  0  0  0  0  0  # atno 10764 bound_to 10752
  153.6890  135.7035  153.5152 H   0  0  0  0  0  0  0  0  0  0  0  0  # atno 10765 bound_to 10752
  139.9193  134.7802  156.1712 H   0  0  0  0  0  0  0  0  0  0  0  0  # atno 11005 bound_to 11000
  144.6763  140.2101  143.7378 LP  0  0  0  0  0  0  0  0  0  0  0  0  # atno 17320 bound_to 7965
  145.8447  139.2146  143.1807 LP  0  0  0  0  0  0  0  0  0  0  0  0  # atno 17321 bound_to 7965
  139.6569  144.7662  151.2038 LP  0  0  0  0  0  0  0  0  0  0  0  0  # atno 17342 bound_to 10162
  140.7559  143.6071  150.8642 LP  0  0  0  0  0  0  0  0  0  0  0  0  # atno 17343 bound_to 10162
  157.3447  130.7051  149.6403 LP  0  0  0  0  0  0  0  0  0  0  0  0  # atno 17370 bound_to 10713
  155.9673  130.4270  150.4723 LP  0  0  0  0  0  0  0  0  0  0  0  0  # atno 17371 bound_to 10713
  141.0699  133.6801  156.2120 LP  0  0  0  0  0  0  0  0  0  0  0  0  # atno 17394 bound_to 11000
  140.6523  134.5054  157.5578 LP  0  0  0  0  0  0  0  0  0  0  0  0  # atno 17395 bound_to 11000

$$$$
