AV-unprocessed.smi:634|AV-procd|sdf|3133|dock3
  -GOLD-   22720 0 53D 1   1.00000     0.00000
 Structure written by MMmdl.
 33 34  0  0  0  0  0  0  0  0  1 V2000
  143.7142  132.5216  148.8152 C   0  0  0  0  0  0  0  0  0  0  0  0
  144.5423  133.2896  149.7876 C   0  0  0  0  0  0  0  0  0  0  0  0
  145.7020  133.0036  150.4515 C   0  0  0  0  0  0  0  0  0  0  0  0
  145.9343  134.1811  151.2110 C   0  0  0  0  0  0  0  0  0  0  0  0
  147.0710  134.2915  152.0517 N   0  0  0  0  0  0  0  0  0  0  0  0
  147.5285  133.3873  152.9342 C   0  0  0  0  0  0  0  0  0  0  0  0
  147.0212  132.2853  153.1431 O   0  0  0  0  0  0  0  0  0  0  0  0
  148.6197  133.8450  153.5707 N   0  0  0  0  0  0  0  0  0  0  0  0
  149.4061  133.1833  154.6213 C   0  0  1  0  0  0  0  0  0  0  0  0
  149.9159  131.8112  154.1314 C   0  0  0  0  0  0  0  0  0  0  0  0
  150.6054  134.1067  154.9446 C   0  0  0  0  0  0  0  0  0  0  0  0
  150.1305  135.2989  155.7851 C   0  0  0  0  0  0  0  0  0  0  0  0
  148.7459  134.6682  156.8013 S   0  0  0  0  0  0  0  0  0  0  0  0
  149.2095  134.4313  158.1768 O   0  0  0  0  0  0  0  0  0  0  0  0
  147.5513  135.4833  156.5337 O   0  0  0  0  0  0  0  0  0  0  0  0
  148.5954  133.0601  155.9331 C   0  0  0  0  0  0  0  0  0  0  0  0
  144.9987  135.1007  151.0309 N   0  0  0  0  0  0  0  0  0  0  0  0
  144.1015  134.5337  150.1181 O   0  0  0  0  0  0  0  0  0  0  0  0
  144.2520  131.6457  148.4518 H   0  0  0  0  0  0  0  0  0  0  0  0
  143.4554  133.1385  147.9547 H   0  0  0  0  0  0  0  0  0  0  0  0
  142.7888  132.1823  149.2804 H   0  0  0  0  0  0  0  0  0  0  0  0
  146.2884  132.0984  150.3977 H   0  0  0  0  0  0  0  0  0  0  0  0
  147.5827  135.1585  151.9832 H   0  0  0  0  0  0  0  0  0  0  0  0
  148.9400  134.7661  153.3099 H   0  0  0  0  0  0  0  0  0  0  0  0
  150.5825  131.3532  154.8628 H   0  0  0  0  0  0  0  0  0  0  0  0
  150.4707  131.9059  153.1974 H   0  0  0  0  0  0  0  0  0  0  0  0
  149.1003  131.1084  153.9624 H   0  0  0  0  0  0  0  0  0  0  0  0
  151.3340  133.5492  155.5349 H   0  0  0  0  0  0  0  0  0  0  0  0
  151.1269  134.4362  154.0449 H   0  0  0  0  0  0  0  0  0  0  0  0
  150.9125  135.7080  156.4247 H   0  0  0  0  0  0  0  0  0  0  0  0
  149.7463  136.0966  155.1491 H   0  0  0  0  0  0  0  0  0  0  0  0
  147.5445  132.8052  155.7996 H   0  0  0  0  0  0  0  0  0  0  0  0
  149.0353  132.3033  156.5831 H   0  0  0  0  0  0  0  0  0  0  0  0
  1  2  1  0  0  0  0
  1 19  1  0  0  0  0
  1 20  1  0  0  0  0
  1 21  1  0  0  0  0
  2 18  1  0  0  0  0
  2  3  2  0  0  0  0
  3  4  1  0  0  0  0
  3 22  1  0  0  0  0
  4  5  1  0  0  0  0
  4 17  2  0  0  0  0
  5  6  1  0  0  0  0
  5 23  1  0  0  0  0
  6  7  2  0  0  0  0
  6  8  1  0  0  0  0
  8  9  1  0  0  0  0
  8 24  1  0  0  0  0
  9 16  1  0  0  0  0
  9 10  1  0  0  0  0
  9 11  1  0  0  0  0
 10 25  1  0  0  0  0
 10 26  1  0  0  0  0
 10 27  1  0  0  0  0
 11 12  1  0  0  0  0
 11 28  1  0  0  0  0
 11 29  1  0  0  0  0
 12 13  1  0  0  0  0
 12 30  1  0  0  0  0
 12 31  1  0  0  0  0
 13 14  2  0  0  0  0
 13 15  2  0  0  0  0
 13 16  1  0  0  0  0
 16 32  1  0  0  0  0
 16 33  1  0  0  0  0
 17 18  1  0  0  0  0
M  END
> <s_m_source_file>
AV-unprocessed.smi

> <i_m_source_file_index>
634

> <i_lp_mmshare_version>
43012

> <i_f3d_flags>
0

> <s_epik_input>
W0NIM11jMVtjSF1jKG5vMSlbTkhdQyg9TylbTkhdW0NAQF0yKFtDSDNdKVtDSDJdW0NIMl1TKD1PKSg9TylbQ0gyXTI=

> <s_epik_cmdline>
J2VwaWtfcHl0aG9uJywgJy1waCcsICc3LjAnLCAnLXRuJywgJzgnLCAnLW1hJywgJzIwMCcsICctbWV0YWxfYmluZGluZycsICctaW1hZScsICc8aW5maWxlLm1hZT4nLCAnLW9tYWUnLCAnPG91dGZpbGUubWFlPic=

> <r_lp_tautomer_probability>
1

> <r_epik_Ionization_Penalty>
3.87281e-05

> <r_epik_Ionization_Penalty_Charging>
0

> <r_epik_Ionization_Penalty_Neutral>
3.87281e-05

> <r_epik_State_Penalty>
-0

> <r_epik_Charging_Adjusted_Penalty>
0

> <i_epik_Tot_Q>
0

> <i_epik_Tot_abs_Q>
0

> <r_epik_Metal_State_Penalty>
0.0249287

> <b_epik_Metal_Only>
0

> <s_lp_Force_Field>
OPLS_2005

> <r_lp_Energy>
3.17223

> <b_lp_Chiralities_Consistent>
1

> <s_lp_Variant>
AV-unprocessed.smi:634-1

> <Gold.Version>
5.8.1

> <Gold.Id.Protein>
6NUR|6NUR_protein|mol2

> <Gold.PLP.Fitness>
31.9815

> <Gold.PLP.PLP>
-24.1150

> <Gold.PLP.part.hbond>
-3.0000

> <Gold.PLP.part.metal>
0.0000

> <Gold.PLP.part.buried>
-4.2651

> <Gold.PLP.part.nonpolar>
-17.5662

> <Gold.PLP.part.repulsive>
0.5979

> <Gold.PLP.ligand.clash>
0.0000

> <Gold.PLP.ligand.torsion>
0.4423

> <Gold.PLP.Chemscore.Hbond>
2.9120

> <Gold.PLP.Chemscore.CHOScore>
0.0000

> <Gold.PLP.Chemscore.Metal>
0.0000

> <Gold.Chemscore.Hbonds>
donor molecule, donor type, donor heavy atom, donor atom, acceptor molecule, acceptor atom, score
      L1  H     5    23       P1  7948  1.00
      L1  H     8    24       P1  7948  0.82
      P1  H  6896  6908       L1    14  1.00

> <Gold.PLP.Chemscore.Internal.Correction>
0.0151

> <Gold.Rescore>
     Score         DG    S(hbond)    S(metal)    S(lipo)     H(rot)  DE(clash)    DE(int)     intcor
     16.39     -16.99       2.33        0.00      53.71       1.00       0.15       0.46       ----

> <Gold.Chemscore.Fitness>
16.3856

> <Gold.Chemscore.DG>
-16.9944

> <Gold.Chemscore.ZeroCoef>
-5.4800

> <Gold.Chemscore.Hbond>
2.3325

> <Gold.Chemscore.Metal>
0.0000

> <Gold.Chemscore.Lipo>
53.7076

> <Gold.Chemscore.Internal_Hbond>
0.0000

> <Gold.Chemscore.DEClash>
0.1536

> <Gold.Chemscore.DEInternal>
0.4551

> <Gold.Chemscore.Rot>
1.0000

> <Gold.Chemscore.Internal.Correction>
   9.000000E+99

> <Gold.Chemscore.Hbonds>
donor molecule, donor type, donor heavy atom, donor atom, acceptor molecule, acceptor atom, score
      L1  H     5    23       P1  7948  0.93
      L1  H     8    24       P1  7948  0.15
      P1  H  6896  6908       L1    14  1.00

> <Gold.Chemscore.Hbond.Weighted>
-7.7906

> <Gold.Chemscore.Metal.Weighted>
-0.0000

> <Gold.Chemscore.Lipo.Weighted>
-6.2838

> <Gold.Chemscore.Internal_Hbond.Weighted>
0.0000

> <Gold.Chemscore.DEClash.Weighted>
0.1536

> <Gold.Chemscore.DEInternal.Weighted>
0.4551

> <Gold.Chemscore.Rot.Weighted>
2.5600

> <Gold.Chemscore.Internal.Correction.Weighted>
   9.000000E+99

> <Gold.Protein.RotatedTorsions>
[ 6907 6896 6895 6894 ] final  141.13 input  -60.11 | X-H torsion
[ 7974 7965 7964 7962 ] final  -47.73 input  175.53 | X-H torsion
[ 8008 7997 7996 7995 ] final   -0.98 input   59.86 | X-H torsion
[ 10167 10162 10161 10158 ] final  -53.07 input  -65.29 | X-H torsion
[ 10718 10713 10712 10709 ] final -118.52 input   66.30 | X-H torsion
[ 10763 10752 10751 10750 ] final -139.62 input  -60.55 | X-H torsion
[ 11005 11000 10999 10996 ] final  113.97 input  -57.11 | X-H torsion

> <Gold.Protein.ActiveResidues>
 VAL166  LYS551  ARG553  GLY616  TRP617  ASP618  TYR619  PRO620  LYS621  CYS622 
 ASP623  PHE694  ASN695  SER759  ASP760  ASP761  ALA762  ILE779  LEU786  VAL792 
 PHE793  MET794  SER795  GLU796  ALA797  LYS798  CYS799  TRP800  GLU811  SER814 

> <Gold.Protein.RotatedAtoms>
  152.2347  133.5086  159.5235 H   0  0  0  0  0  0  0  0  0  0  0  0  # atno 6907 bound_to 6896
  150.7047  134.1170  159.4030 H   0  0  0  0  0  0  0  0  0  0  0  0  # atno 6908 bound_to 6896
  151.9091  135.0346  160.0563 H   0  0  0  0  0  0  0  0  0  0  0  0  # atno 6909 bound_to 6896
  145.9586  140.7502  142.9469 H   0  0  0  0  0  0  0  0  0  0  0  0  # atno 7974 bound_to 7965
  154.6519  140.2570  155.7205 H   0  0  0  0  0  0  0  0  0  0  0  0  # atno 8008 bound_to 7997
  156.2579  140.2866  156.0877 H   0  0  0  0  0  0  0  0  0  0  0  0  # atno 8009 bound_to 7997
  155.1438  140.0381  157.2795 H   0  0  0  0  0  0  0  0  0  0  0  0  # atno 8010 bound_to 7997
  140.6504  143.2562  151.4739 H   0  0  0  0  0  0  0  0  0  0  0  0  # atno 10167 bound_to 10162
  156.1112  130.6250  150.9301 H   0  0  0  0  0  0  0  0  0  0  0  0  # atno 10718 bound_to 10713
  154.8603  135.3577  154.5576 H   0  0  0  0  0  0  0  0  0  0  0  0  # atno 10763 bound_to 10752
  153.6192  135.7006  153.5322 H   0  0  0  0  0  0  0  0  0  0  0  0  # atno 10764 bound_to 10752
  153.3143  135.4169  155.1323 H   0  0  0  0  0  0  0  0  0  0  0  0  # atno 10765 bound_to 10752
  139.8967  134.9559  156.6820 H   0  0  0  0  0  0  0  0  0  0  0  0  # atno 11005 bound_to 11000
  144.6810  140.2553  143.7326 LP  0  0  0  0  0  0  0  0  0  0  0  0  # atno 17320 bound_to 7965
  145.8072  139.1988  143.2014 LP  0  0  0  0  0  0  0  0  0  0  0  0  # atno 17321 bound_to 7965
  139.5719  144.1909  152.1848 LP  0  0  0  0  0  0  0  0  0  0  0  0  # atno 17342 bound_to 10162
  140.1208  144.5375  150.6864 LP  0  0  0  0  0  0  0  0  0  0  0  0  # atno 17343 bound_to 10162
  157.6293  131.0922  150.8472 LP  0  0  0  0  0  0  0  0  0  0  0  0  # atno 17370 bound_to 10713
  156.8582  130.5104  149.5306 LP  0  0  0  0  0  0  0  0  0  0  0  0  # atno 17371 bound_to 10713
  140.7292  133.9074  155.8199 LP  0  0  0  0  0  0  0  0  0  0  0  0  # atno 17394 bound_to 11000
  141.0167  134.0946  157.4165 LP  0  0  0  0  0  0  0  0  0  0  0  0  # atno 17395 bound_to 11000

$$$$
