AV-unprocessed.smi:912|AV-procd|sdf|4145|dock3
  -GOLD-   22720 2 53D 1   1.00000     0.00000
 Structure written by MMmdl.
 27 27  0  0  0  0  0  0  0  0  2 V2000
  152.6315  140.2305  160.3697 C   0  0  0  0  0  0  0  0  0  0  0  0
  152.8437  139.4812  159.1330 N   0  0  0  0  0  0  0  0  0  0  0  0
  151.6788  139.1495  158.2924 C   0  0  2  0  0  0  0  0  0  0  0  0
  150.6616  138.4522  159.2328 C   0  0  0  0  0  0  0  0  0  0  0  0
  152.0816  138.2223  157.1131 C   0  0  0  0  0  0  0  0  0  0  0  0
  151.5012  137.0185  157.0473 N   0  0  0  0  0  0  0  0  0  0  0  0
  152.9076  138.5792  156.2747 O   0  0  0  0  0  0  0  0  0  0  0  0
  151.0195  140.4124  157.6977 C   0  0  0  0  0  0  0  0  0  0  0  0
  150.8390  140.5885  156.3000 C   0  0  0  0  0  0  0  0  0  0  0  0
  150.2361  141.7663  155.8132 C   0  0  0  0  0  0  0  0  0  0  0  0
  149.8314  142.7229  156.6742 N   0  3  0  0  0  0  0  0  0  0  0  0
  149.9785  142.6083  158.0103 C   0  0  0  0  0  0  0  0  0  0  0  0
  150.5761  141.4536  158.5534 C   0  0  0  0  0  0  0  0  0  0  0  0
  153.5986  140.5219  160.7789 H   0  0  0  0  0  0  0  0  0  0  0  0
  152.1294  139.6319  161.1298 H   0  0  0  0  0  0  0  0  0  0  0  0
  152.0574  141.1420  160.2083 H   0  0  0  0  0  0  0  0  0  0  0  0
  153.4116  138.6630  159.2971 H   0  0  0  0  0  0  0  0  0  0  0  0
  149.7405  138.1837  158.7146 H   0  0  0  0  0  0  0  0  0  0  0  0
  150.3819  139.1046  160.0610 H   0  0  0  0  0  0  0  0  0  0  0  0
  151.0518  137.5305  159.6644 H   0  0  0  0  0  0  0  0  0  0  0  0
  151.7440  136.3789  156.3053 H   0  0  0  0  0  0  0  0  0  0  0  0
  150.8297  136.7490  157.7519 H   0  0  0  0  0  0  0  0  0  0  0  0
  151.1547  139.8430  155.5859 H   0  0  0  0  0  0  0  0  0  0  0  0
  150.0678  141.9697  154.7657 H   0  0  0  0  0  0  0  0  0  0  0  0
  149.6164  143.4372  158.6010 H   0  0  0  0  0  0  0  0  0  0  0  0
  150.6876  141.3707  159.6249 H   0  0  0  0  0  0  0  0  0  0  0  0
  149.3973  143.5672  156.2999 H   0  0  0  0  0  0  0  0  0  0  0  0
  1  2  1  0  0  0  0
  1 14  1  0  0  0  0
  1 15  1  0  0  0  0
  1 16  1  0  0  0  0
  2  3  1  0  0  0  0
  2 17  1  0  0  0  0
  3  4  1  0  0  0  0
  3  5  1  0  0  0  0
  3  8  1  0  0  0  0
  4 18  1  0  0  0  0
  4 19  1  0  0  0  0
  4 20  1  0  0  0  0
  5  6  1  0  0  0  0
  5  7  2  0  0  0  0
  6 21  1  0  0  0  0
  6 22  1  0  0  0  0
  8 13  1  0  0  0  0
  8  9  2  0  0  0  0
  9 10  1  0  0  0  0
  9 23  1  0  0  0  0
 10 11  2  0  0  0  0
 10 24  1  0  0  0  0
 11 12  1  0  0  0  0
 11 27  1  0  0  0  0
 12 13  2  0  0  0  0
 12 25  1  0  0  0  0
 13 26  1  0  0  0  0
M  CHG  1  11   1
M  END
> <s_m_source_file>
AV-unprocessed.smi

> <i_m_source_file_index>
912

> <i_lp_mmshare_version>
43012

> <i_f3d_flags>
0

> <s_epik_input>
W0NIM11bTkhdW0NAQF0oW0NIM10pKEMoPU8pW05IMl0pYzFbY0hdW2NIXW5bY0hdW2NIXTE=

> <s_epik_cmdline>
J2VwaWtfcHl0aG9uJywgJy1waCcsICc3LjAnLCAnLXRuJywgJzgnLCAnLW1hJywgJzIwMCcsICctbWV0YWxfYmluZGluZycsICctaW1hZScsICc8aW5maWxlLm1hZT4nLCAnLW9tYWUnLCAnPG91dGZpbGUubWFlPic=

> <r_epik_Ionization_Penalty>
0.562542

> <r_epik_Ionization_Penalty_Charging>
0.554844

> <r_epik_Ionization_Penalty_Neutral>
0.00769834

> <r_epik_State_Penalty>
1.39075

> <r_epik_Charging_Adjusted_Penalty>
1.94559

> <i_epik_Tot_Q>
1

> <i_epik_Tot_abs_Q>
1

> <r_epik_Metal_State_Penalty>
1.55563

> <b_epik_Metal_Only>
0

> <s_lp_Force_Field>
OPLS_2005

> <r_lp_Energy>
18.1992

> <b_lp_Chiralities_Consistent>
1

> <s_lp_Variant>
AV-unprocessed.smi:912-6

> <Gold.Version>
5.8.1

> <Gold.Id.Protein>
6NUR|6NUR_protein|mol2

> <Gold.PLP.Fitness>
30.0985

> <Gold.PLP.PLP>
-21.4286

> <Gold.PLP.part.hbond>
-3.0000

> <Gold.PLP.part.metal>
0.0000

> <Gold.PLP.part.buried>
-3.6033

> <Gold.PLP.part.nonpolar>
-14.6873

> <Gold.PLP.part.repulsive>
0.1750

> <Gold.PLP.ligand.clash>
0.1704

> <Gold.PLP.ligand.torsion>
0.0572

> <Gold.PLP.Chemscore.Hbond>
2.9760

> <Gold.PLP.Chemscore.CHOScore>
0.0000

> <Gold.PLP.Chemscore.Metal>
0.0000

> <Gold.Chemscore.Hbonds>
donor molecule, donor type, donor heavy atom, donor atom, acceptor molecule, acceptor atom, score
      L1  H    11    27       P1  8028  1.40
      P1  H  7997  8009       L1     7  0.80

> <Gold.PLP.Chemscore.Internal.Correction>
0.0268

> <Gold.Rescore>
     Score         DG    S(hbond)    S(metal)    S(lipo)     H(rot)  DE(clash)    DE(int)     intcor
     11.35     -12.83       1.85        0.00      49.78       1.82       0.00       1.48       ----

> <Gold.Chemscore.Fitness>
11.3544

> <Gold.Chemscore.DG>
-12.8329

> <Gold.Chemscore.ZeroCoef>
-5.4800

> <Gold.Chemscore.Hbond>
1.8546

> <Gold.Chemscore.Metal>
0.0000

> <Gold.Chemscore.Lipo>
49.7813

> <Gold.Chemscore.Internal_Hbond>
0.0000

> <Gold.Chemscore.DEClash>
0.0033

> <Gold.Chemscore.DEInternal>
1.4752

> <Gold.Chemscore.Rot>
1.8226

> <Gold.Chemscore.Internal.Correction>
   9.000000E+99

> <Gold.Chemscore.Hbonds>
donor molecule, donor type, donor heavy atom, donor atom, acceptor molecule, acceptor atom, score
      L1  H    11    27       P1  8028  0.71
      P1  H  7997  8009       L1     7  0.76

> <Gold.Chemscore.Hbond.Weighted>
-6.1944

> <Gold.Chemscore.Metal.Weighted>
-0.0000

> <Gold.Chemscore.Lipo.Weighted>
-5.8244

> <Gold.Chemscore.Internal_Hbond.Weighted>
0.0000

> <Gold.Chemscore.DEClash.Weighted>
0.0033

> <Gold.Chemscore.DEInternal.Weighted>
1.4752

> <Gold.Chemscore.Rot.Weighted>
4.6659

> <Gold.Chemscore.Internal.Correction.Weighted>
   9.000000E+99

> <Gold.Protein.RotatedTorsions>
[ 6907 6896 6895 6894 ] final   97.59 input  -60.11 | X-H torsion
[ 7974 7965 7964 7962 ] final -168.54 input  175.53 | X-H torsion
[ 8008 7997 7996 7995 ] final -155.46 input   59.86 | X-H torsion
[ 10167 10162 10161 10158 ] final -123.80 input  -65.29 | X-H torsion
[ 10718 10713 10712 10709 ] final  -61.17 input   66.30 | X-H torsion
[ 10763 10752 10751 10750 ] final  -55.08 input  -60.55 | X-H torsion
[ 11005 11000 10999 10996 ] final  108.68 input  -57.11 | X-H torsion

> <Gold.Protein.ActiveResidues>
 VAL166  LYS551  ARG553  GLY616  TRP617  ASP618  TYR619  PRO620  LYS621  CYS622 
 ASP623  PHE694  ASN695  SER759  ASP760  ASP761  ALA762  ILE779  LEU786  VAL792 
 PHE793  MET794  SER795  GLU796  ALA797  LYS798  CYS799  TRP800  GLU811  SER814 

> <Gold.Protein.RotatedAtoms>
  152.5421  134.0710  159.8193 H   0  0  0  0  0  0  0  0  0  0  0  0  # atno 6907 bound_to 6896
  151.0825  133.5372  159.2627 H   0  0  0  0  0  0  0  0  0  0  0  0  # atno 6908 bound_to 6896
  151.2193  135.0521  159.8997 H   0  0  0  0  0  0  0  0  0  0  0  0  # atno 6909 bound_to 6896
  144.7201  140.2355  143.6298 H   0  0  0  0  0  0  0  0  0  0  0  0  # atno 7974 bound_to 7965
  155.7021  140.0768  157.2406 H   0  0  0  0  0  0  0  0  0  0  0  0  # atno 8008 bound_to 7997
  154.4071  140.1645  156.2255 H   0  0  0  0  0  0  0  0  0  0  0  0  # atno 8009 bound_to 7997
  155.9358  140.3388  155.6290 H   0  0  0  0  0  0  0  0  0  0  0  0  # atno 8010 bound_to 7997
  139.9996  143.5554  152.2309 H   0  0  0  0  0  0  0  0  0  0  0  0  # atno 10167 bound_to 10162
  156.0940  130.4195  150.0956 H   0  0  0  0  0  0  0  0  0  0  0  0  # atno 10718 bound_to 10713
  154.1852  135.6436  153.5045 H   0  0  0  0  0  0  0  0  0  0  0  0  # atno 10763 bound_to 10752
  153.0049  135.5415  154.6473 H   0  0  0  0  0  0  0  0  0  0  0  0  # atno 10764 bound_to 10752
  154.5847  135.2928  155.0669 H   0  0  0  0  0  0  0  0  0  0  0  0  # atno 10765 bound_to 10752
  139.8848  134.9437  156.6010 H   0  0  0  0  0  0  0  0  0  0  0  0  # atno 11005 bound_to 11000
  145.8370  139.2112  143.1850 LP  0  0  0  0  0  0  0  0  0  0  0  0  # atno 17320 bound_to 7965
  146.0380  140.8193  142.9843 LP  0  0  0  0  0  0  0  0  0  0  0  0  # atno 17321 bound_to 7965
  139.6281  144.7640  151.2595 LP  0  0  0  0  0  0  0  0  0  0  0  0  # atno 17342 bound_to 10162
  140.7424  143.6528  150.8233 LP  0  0  0  0  0  0  0  0  0  0  0  0  # atno 17343 bound_to 10162
  156.8959  130.9604  151.3582 LP  0  0  0  0  0  0  0  0  0  0  0  0  # atno 17370 bound_to 10713
  157.6096  130.8573  149.8931 LP  0  0  0  0  0  0  0  0  0  0  0  0  # atno 17371 bound_to 10713
  140.7883  133.8603  155.8625 LP  0  0  0  0  0  0  0  0  0  0  0  0  # atno 17394 bound_to 11000
  140.9699  134.1544  157.4585 LP  0  0  0  0  0  0  0  0  0  0  0  0  # atno 17395 bound_to 11000

$$$$
