AV-unprocessed.smi:2286|AV-procd|sdf|9204|dock1
  -GOLD-   2272012423D 1   1.00000     0.00000
 Structure written by MMmdl.
 46 47  0  0  0  0  0  0  0  0  1 V2000
  152.5750  140.7957  158.7424 C   0  0  0  0  0  0  0  0  0  0  0  0
  151.8966  140.5023  157.4206 C   0  0  0  0  0  0  0  0  0  0  0  0
  152.2618  139.3795  156.6536 C   0  0  0  0  0  0  0  0  0  0  0  0
  151.5920  139.1617  155.4335 C   0  0  0  0  0  0  0  0  0  0  0  0
  151.9322  137.9716  154.5616 C   0  0  0  0  0  0  0  0  0  0  0  0
  150.6186  139.9754  154.9715 N   0  0  0  0  0  0  0  0  0  0  0  0
  150.2588  141.0601  155.7017 C   0  0  0  0  0  0  0  0  0  0  0  0
  149.2466  141.9750  155.3078 N   0  0  0  0  0  0  0  0  0  0  0  0
  148.0667  141.7077  154.7208 C   0  0  0  0  0  0  0  0  0  0  0  0
  147.6707  140.5894  154.3898 O   0  0  0  0  0  0  0  0  0  0  0  0
  147.3534  142.8285  154.5351 N   0  0  0  0  0  0  0  0  0  0  0  0
  146.0302  142.8911  153.9193 C   0  0  0  0  0  0  0  0  0  0  0  0
  144.9409  143.3841  154.8793 C   0  0  0  0  0  0  0  0  0  0  0  0
  144.6320  142.7304  155.8771 O   0  0  0  0  0  0  0  0  0  0  0  0
  144.3468  144.5395  154.5436 N   0  0  0  0  0  0  0  0  0  0  0  0
  143.2726  145.1881  155.2897 C   0  0  0  0  0  0  0  0  0  0  0  0
  141.9995  144.3156  155.2792 C   0  0  0  0  0  0  0  0  0  0  0  0
  140.8272  145.0177  155.9836 C   0  0  0  0  0  0  0  0  0  0  0  0
  140.5534  146.3998  155.3704 C   0  0  0  0  0  0  0  0  0  0  0  0
  141.8168  147.2739  155.3902 C   0  0  0  0  0  0  0  0  0  0  0  0
  142.9891  146.5754  154.6821 C   0  0  0  0  0  0  0  0  0  0  0  0
  150.8831  141.3531  156.9352 C   0  0  0  0  0  0  0  0  0  0  0  0
  153.2543  139.9914  159.0269 H   0  0  0  0  0  0  0  0  0  0  0  0
  151.8323  140.9084  159.5325 H   0  0  0  0  0  0  0  0  0  0  0  0
  153.1489  141.7202  158.6746 H   0  0  0  0  0  0  0  0  0  0  0  0
  153.0334  138.7028  156.9908 H   0  0  0  0  0  0  0  0  0  0  0  0
  152.8765  137.5185  154.8648 H   0  0  0  0  0  0  0  0  0  0  0  0
  152.0215  138.2735  153.5175 H   0  0  0  0  0  0  0  0  0  0  0  0
  151.1500  137.2159  154.6357 H   0  0  0  0  0  0  0  0  0  0  0  0
  149.4353  142.9447  155.5136 H   0  0  0  0  0  0  0  0  0  0  0  0
  147.7585  143.7053  154.8278 H   0  0  0  0  0  0  0  0  0  0  0  0
  146.0569  143.5245  153.0306 H   0  0  0  0  0  0  0  0  0  0  0  0
  145.7647  141.8897  153.5805 H   0  0  0  0  0  0  0  0  0  0  0  0
  144.6630  145.0059  153.7056 H   0  0  0  0  0  0  0  0  0  0  0  0
  143.5951  145.3304  156.3232 H   0  0  0  0  0  0  0  0  0  0  0  0
  141.7170  144.0875  154.2504 H   0  0  0  0  0  0  0  0  0  0  0  0
  142.1929  143.3582  155.7646 H   0  0  0  0  0  0  0  0  0  0  0  0
  139.9317  144.3990  155.9196 H   0  0  0  0  0  0  0  0  0  0  0  0
  141.0524  145.1270  157.0451 H   0  0  0  0  0  0  0  0  0  0  0  0
  140.2056  146.2821  154.3433 H   0  0  0  0  0  0  0  0  0  0  0  0
  139.7491  146.8955  155.9146 H   0  0  0  0  0  0  0  0  0  0  0  0
  141.6126  148.2325  154.9127 H   0  0  0  0  0  0  0  0  0  0  0  0
  142.0920  147.4949  156.4223 H   0  0  0  0  0  0  0  0  0  0  0  0
  143.8805  147.2006  154.7461 H   0  0  0  0  0  0  0  0  0  0  0  0
  142.7583  146.4744  153.6204 H   0  0  0  0  0  0  0  0  0  0  0  0
  150.5870  142.2206  157.5077 H   0  0  0  0  0  0  0  0  0  0  0  0
  1  2  1  0  0  0  0
  1 23  1  0  0  0  0
  1 24  1  0  0  0  0
  1 25  1  0  0  0  0
  2 22  1  0  0  0  0
  2  3  2  0  0  0  0
  3  4  1  0  0  0  0
  3 26  1  0  0  0  0
  4  5  1  0  0  0  0
  4  6  2  0  0  0  0
  5 27  1  0  0  0  0
  5 28  1  0  0  0  0
  5 29  1  0  0  0  0
  6  7  1  0  0  0  0
  7  8  1  0  0  0  0
  7 22  2  0  0  0  0
  8  9  1  0  0  0  0
  8 30  1  0  0  0  0
  9 10  2  0  0  0  0
  9 11  1  0  0  0  0
 11 12  1  0  0  0  0
 11 31  1  0  0  0  0
 12 13  1  0  0  0  0
 12 32  1  0  0  0  0
 12 33  1  0  0  0  0
 13 14  2  0  0  0  0
 13 15  1  0  0  0  0
 15 16  1  0  0  0  0
 15 34  1  0  0  0  0
 16 21  1  0  0  0  0
 16 17  1  0  0  0  0
 16 35  1  0  0  0  0
 17 18  1  0  0  0  0
 17 36  1  0  0  0  0
 17 37  1  0  0  0  0
 18 19  1  0  0  0  0
 18 38  1  0  0  0  0
 18 39  1  0  0  0  0
 19 20  1  0  0  0  0
 19 40  1  0  0  0  0
 19 41  1  0  0  0  0
 20 21  1  0  0  0  0
 20 42  1  0  0  0  0
 20 43  1  0  0  0  0
 21 44  1  0  0  0  0
 21 45  1  0  0  0  0
 22 46  1  0  0  0  0
M  END
> <s_m_source_file>
AV-unprocessed.smi

> <i_m_source_file_index>
2286

> <i_lp_mmshare_version>
43012

> <i_f3d_flags>
0

> <s_epik_input>
W0NIM11jMVtjSF1jKFtDSDNdKW5jKFtjSF0xKVtOSF1DKD1PKVtOSF1bQ0gyXUMoPU8pW05IXVtDSF0yW0NIMl1bQ0gyXVtDSDJdW0NIMl1bQ0gyXTI=

> <s_epik_cmdline>
J2VwaWtfcHl0aG9uJywgJy1waCcsICc3LjAnLCAnLXRuJywgJzgnLCAnLW1hJywgJzIwMCcsICctbWV0YWxfYmluZGluZycsICctaW1hZScsICc8aW5maWxlLm1hZT4nLCAnLW9tYWUnLCAnPG91dGZpbGUubWFlPic=

> <r_lp_tautomer_probability>
1

> <r_epik_Ionization_Penalty>
0.000219548

> <r_epik_Ionization_Penalty_Charging>
0

> <r_epik_Ionization_Penalty_Neutral>
0.000219548

> <r_epik_State_Penalty>
-0

> <r_epik_Charging_Adjusted_Penalty>
0

> <i_epik_Tot_Q>
0

> <i_epik_Tot_abs_Q>
0

> <r_epik_Metal_State_Penalty>
-0

> <b_epik_Metal_Only>
0

> <s_lp_Force_Field>
OPLS_2005

> <r_lp_Energy>
6.54337

> <b_lp_Chiralities_Consistent>
1

> <s_lp_Variant>
AV-unprocessed.smi:2286-1

> <Gold.Version>
5.8.1

> <Gold.Id.Protein>
6NUR|6NUR_protein|mol2

> <Gold.PLP.Fitness>
47.7890

> <Gold.PLP.PLP>
-39.5135

> <Gold.PLP.part.hbond>
-3.0000

> <Gold.PLP.part.metal>
0.0000

> <Gold.PLP.part.buried>
-7.0282

> <Gold.PLP.part.nonpolar>
-30.4404

> <Gold.PLP.part.repulsive>
0.7498

> <Gold.PLP.ligand.clash>
0.0000

> <Gold.PLP.ligand.torsion>
0.3658

> <Gold.PLP.Chemscore.Hbond>
3.0000

> <Gold.PLP.Chemscore.CHOScore>
0.0000

> <Gold.PLP.Chemscore.Metal>
0.0000

> <Gold.Chemscore.Hbonds>
donor molecule, donor type, donor heavy atom, donor atom, acceptor molecule, acceptor atom, score
      L1  H     8    30       P1  8028  1.00
      L1  H    11    31       P1  8028  1.00
      P1  H  7989  7998       L1     6  0.95

> <Gold.PLP.Chemscore.Internal.Correction>
0.0072

> <Gold.Rescore>
     Score         DG    S(hbond)    S(metal)    S(lipo)     H(rot)  DE(clash)    DE(int)     intcor
     14.99     -16.12       1.39        0.00      83.66       1.48       0.05       1.08       ----

> <Gold.Chemscore.Fitness>
14.9945

> <Gold.Chemscore.DG>
-16.1205

> <Gold.Chemscore.ZeroCoef>
-5.4800

> <Gold.Chemscore.Hbond>
1.3933

> <Gold.Chemscore.Metal>
0.0000

> <Gold.Chemscore.Lipo>
83.6581

> <Gold.Chemscore.Internal_Hbond>
0.0000

> <Gold.Chemscore.DEClash>
0.0509

> <Gold.Chemscore.DEInternal>
1.0751

> <Gold.Chemscore.Rot>
1.4849

> <Gold.Chemscore.Internal.Correction>
   9.000000E+99

> <Gold.Chemscore.Hbonds>
donor molecule, donor type, donor heavy atom, donor atom, acceptor molecule, acceptor atom, score
      L1  H     8    30       P1  8028  0.95
      L1  H    11    31       P1  8028  0.25
      P1  H  7989  7998       L1     6  0.05

> <Gold.Chemscore.Hbond.Weighted>
-4.6537

> <Gold.Chemscore.Metal.Weighted>
-0.0000

> <Gold.Chemscore.Lipo.Weighted>
-9.7880

> <Gold.Chemscore.Internal_Hbond.Weighted>
0.0000

> <Gold.Chemscore.DEClash.Weighted>
0.0509

> <Gold.Chemscore.DEInternal.Weighted>
1.0751

> <Gold.Chemscore.Rot.Weighted>
3.8012

> <Gold.Chemscore.Internal.Correction.Weighted>
   9.000000E+99

> <Gold.Protein.RotatedTorsions>
[ 6907 6896 6895 6894 ] final  -86.99 input  -60.11 | X-H torsion
[ 7974 7965 7964 7962 ] final   -7.22 input  175.53 | X-H torsion
[ 8008 7997 7996 7995 ] final -124.97 input   59.86 | X-H torsion
[ 10167 10162 10161 10158 ] final   56.23 input  -65.29 | X-H torsion
[ 10718 10713 10712 10709 ] final  103.48 input   66.30 | X-H torsion
[ 10763 10752 10751 10750 ] final -126.57 input  -60.55 | X-H torsion
[ 11005 11000 10999 10996 ] final -175.50 input  -57.11 | X-H torsion

> <Gold.Protein.ActiveResidues>
 VAL166  LYS551  ARG553  GLY616  TRP617  ASP618  TYR619  PRO620  LYS621  CYS622 
 ASP623  PHE694  ASN695  SER759  ASP760  ASP761  ALA762  ILE779  LEU786  VAL792 
 PHE793  MET794  SER795  GLU796  ALA797  LYS798  CYS799  TRP800  GLU811  SER814 

> <Gold.Protein.RotatedAtoms>
  150.6866  134.2966  159.4688 H   0  0  0  0  0  0  0  0  0  0  0  0  # atno 6907 bound_to 6896
  152.0866  134.9433  160.0582 H   0  0  0  0  0  0  0  0  0  0  0  0  # atno 6908 bound_to 6896
  152.0765  133.4097  159.4519 H   0  0  0  0  0  0  0  0  0  0  0  0  # atno 6909 bound_to 6896
  146.2312  140.2287  142.8339 H   0  0  0  0  0  0  0  0  0  0  0  0  # atno 7974 bound_to 7965
  155.2056  140.0417  157.2925 H   0  0  0  0  0  0  0  0  0  0  0  0  # atno 8008 bound_to 7997
  154.6046  140.2461  155.7720 H   0  0  0  0  0  0  0  0  0  0  0  0  # atno 8009 bound_to 7997
  156.2342  140.2927  156.0277 H   0  0  0  0  0  0  0  0  0  0  0  0  # atno 8010 bound_to 7997
  140.2110  144.3889  150.6489 H   0  0  0  0  0  0  0  0  0  0  0  0  # atno 10167 bound_to 10162
  157.6771  131.0780  150.5561 H   0  0  0  0  0  0  0  0  0  0  0  0  # atno 10718 bound_to 10713
  154.8746  135.3991  154.3452 H   0  0  0  0  0  0  0  0  0  0  0  0  # atno 10763 bound_to 10752
  153.4245  135.7024  153.6277 H   0  0  0  0  0  0  0  0  0  0  0  0  # atno 10764 bound_to 10752
  153.4925  135.3745  155.2469 H   0  0  0  0  0  0  0  0  0  0  0  0  # atno 10765 bound_to 10752
  140.4626  134.6240  157.4849 H   0  0  0  0  0  0  0  0  0  0  0  0  # atno 11005 bound_to 11000
  144.9574  140.8241  143.5534 LP  0  0  0  0  0  0  0  0  0  0  0  0  # atno 17320 bound_to 7965
  145.2254  139.2139  143.5071 LP  0  0  0  0  0  0  0  0  0  0  0  0  # atno 17321 bound_to 7965
  140.6323  143.2189  151.6468 LP  0  0  0  0  0  0  0  0  0  0  0  0  # atno 17342 bound_to 10162
  139.5180  144.3298  152.0836 LP  0  0  0  0  0  0  0  0  0  0  0  0  # atno 17343 bound_to 10162
  156.5865  130.4318  149.5955 LP  0  0  0  0  0  0  0  0  0  0  0  0  # atno 17370 bound_to 10713
  156.2618  130.6967  151.1738 LP  0  0  0  0  0  0  0  0  0  0  0  0  # atno 17371 bound_to 10713
  139.9936  134.6947  155.9648 LP  0  0  0  0  0  0  0  0  0  0  0  0  # atno 17394 bound_to 11000
  141.1614  133.6538  156.4332 LP  0  0  0  0  0  0  0  0  0  0  0  0  # atno 17395 bound_to 11000

$$$$
