AV-unprocessed.smi:2774|AV-procd|sdf|10684|dock3
  -GOLD-   2272015133D 1   1.00000     0.00000
 Structure written by MMmdl.
 34 35  0  0  0  0  0  0  0  0  1 V2000
  151.1564  140.5078  155.1337 O   0  0  0  0  0  0  0  0  0  0  0  0
  149.9931  141.3115  155.1655 C   0  0  2  0  0  0  0  0  0  0  0  0
  149.7160  141.7508  156.6166 C   0  0  0  0  0  0  0  0  0  0  0  0
  150.4952  142.9328  156.9948 N   0  0  0  0  0  0  0  0  0  0  0  0
  150.9514  142.9802  158.3868 C   0  0  2  0  0  0  0  0  0  0  0  0
  151.5646  144.3549  158.7450 C   0  0  0  0  0  0  0  0  0  0  0  0
  152.0142  144.4454  160.2128 C   0  0  0  0  0  0  0  0  0  0  0  0
  153.0917  143.4126  160.5654 C   0  0  0  0  0  0  0  0  0  0  0  0
  152.4665  141.7258  160.3541 S   0  0  0  0  0  0  0  0  0  0  0  0
  151.9682  141.8461  158.6147 C   0  0  0  0  0  0  0  0  0  0  0  0
  148.7888  140.6787  154.4781 C   0  0  0  0  0  0  0  0  0  0  0  0
  147.6177  141.4199  154.2036 C   0  0  0  0  0  0  0  0  0  0  0  0
  146.5442  140.7717  153.5611 C   0  0  0  0  0  0  0  0  0  0  0  0
  146.5739  139.4727  153.1943 N   0  0  0  0  0  0  0  0  0  0  0  0
  147.6956  138.7692  153.4578 C   0  0  0  0  0  0  0  0  0  0  0  0
  148.8252  139.3219  154.0934 C   0  0  0  0  0  0  0  0  0  0  0  0
  150.8955  139.6032  155.2164 H   0  0  0  0  0  0  0  0  0  0  0  0
  150.2490  142.2063  154.5970 H   0  0  0  0  0  0  0  0  0  0  0  0
  148.6477  141.9305  156.7309 H   0  0  0  0  0  0  0  0  0  0  0  0
  149.9652  140.9285  157.2882 H   0  0  0  0  0  0  0  0  0  0  0  0
  149.9609  143.7689  156.7801 H   0  0  0  0  0  0  0  0  0  0  0  0
  150.0965  142.8006  159.0402 H   0  0  0  0  0  0  0  0  0  0  0  0
  152.4112  144.5660  158.0900 H   0  0  0  0  0  0  0  0  0  0  0  0
  150.8425  145.1523  158.5752 H   0  0  0  0  0  0  0  0  0  0  0  0
  152.4004  145.4462  160.4077 H   0  0  0  0  0  0  0  0  0  0  0  0
  151.1533  144.3179  160.8704 H   0  0  0  0  0  0  0  0  0  0  0  0
  153.9720  143.5497  159.9364 H   0  0  0  0  0  0  0  0  0  0  0  0
  153.4132  143.5393  161.5995 H   0  0  0  0  0  0  0  0  0  0  0  0
  151.5390  140.8874  158.3210 H   0  0  0  0  0  0  0  0  0  0  0  0
  152.8582  141.9969  158.0022 H   0  0  0  0  0  0  0  0  0  0  0  0
  147.5408  142.4639  154.4692 H   0  0  0  0  0  0  0  0  0  0  0  0
  145.6371  141.3126  153.3356 H   0  0  0  0  0  0  0  0  0  0  0  0
  147.6932  137.7332  153.1530 H   0  0  0  0  0  0  0  0  0  0  0  0
  149.6991  138.7149  154.2792 H   0  0  0  0  0  0  0  0  0  0  0  0
  1  2  1  0  0  0  0
  1 17  1  0  0  0  0
  2  3  1  0  0  0  0
  2 11  1  0  0  0  0
  2 18  1  0  0  0  0
  3  4  1  0  0  0  0
  3 19  1  0  0  0  0
  3 20  1  0  0  0  0
  4  5  1  0  0  0  0
  4 21  1  0  0  0  0
  5 10  1  0  0  0  0
  5  6  1  0  0  0  0
  5 22  1  0  0  0  0
  6  7  1  0  0  0  0
  6 23  1  0  0  0  0
  6 24  1  0  0  0  0
  7  8  1  0  0  0  0
  7 25  1  0  0  0  0
  7 26  1  0  0  0  0
  8  9  1  0  0  0  0
  8 27  1  0  0  0  0
  8 28  1  0  0  0  0
  9 10  1  0  0  0  0
 10 29  1  0  0  0  0
 10 30  1  0  0  0  0
 11 16  1  0  0  0  0
 11 12  2  0  0  0  0
 12 13  1  0  0  0  0
 12 31  1  0  0  0  0
 13 14  2  0  0  0  0
 13 32  1  0  0  0  0
 14 15  1  0  0  0  0
 15 16  2  0  0  0  0
 15 33  1  0  0  0  0
 16 34  1  0  0  0  0
M  END
> <s_m_source_file>
AV-unprocessed.smi

> <i_m_source_file_index>
2774

> <i_lp_mmshare_version>
43012

> <i_f3d_flags>
0

> <s_epik_input>
W2NIXTFbY0hdbltjSF1bY0hdYzFbQ0BIXShbT0hdKVtDSDJdW05IXVtDQEBIXTJbQ0gyXVtDSDJdW0NIMl1TW0NIMl0y

> <s_epik_cmdline>
J2VwaWtfcHl0aG9uJywgJy1waCcsICc3LjAnLCAnLXRuJywgJzgnLCAnLW1hJywgJzIwMCcsICctbWV0YWxfYmluZGluZycsICctaW1hZScsICc8aW5maWxlLm1hZT4nLCAnLW9tYWUnLCAnPG91dGZpbGUubWFlPic=

> <r_epik_Ionization_Penalty>
2.08116

> <r_epik_Ionization_Penalty_Charging>
0

> <r_epik_Ionization_Penalty_Neutral>
2.08116

> <r_epik_State_Penalty>
2.1944

> <r_epik_Charging_Adjusted_Penalty>
2.1944

> <i_epik_Tot_Q>
0

> <i_epik_Tot_abs_Q>
0

> <r_epik_Metal_State_Penalty>
2.1769

> <b_epik_Metal_Only>
0

> <s_lp_Force_Field>
OPLS_2005

> <r_lp_Energy>
17.4742

> <b_lp_Chiralities_Consistent>
1

> <s_lp_Variant>
AV-unprocessed.smi:2774-5

> <Gold.Version>
5.8.1

> <Gold.Id.Protein>
6NUR|6NUR_protein|mol2

> <Gold.PLP.Fitness>
41.7194

> <Gold.PLP.PLP>
-31.6814

> <Gold.PLP.part.hbond>
-2.0000

> <Gold.PLP.part.metal>
0.0000

> <Gold.PLP.part.buried>
-0.6144

> <Gold.PLP.part.nonpolar>
-28.4646

> <Gold.PLP.part.repulsive>
0.2356

> <Gold.PLP.ligand.clash>
0.0000

> <Gold.PLP.ligand.torsion>
0.7382

> <Gold.PLP.Chemscore.Hbond>
1.8160

> <Gold.PLP.Chemscore.CHOScore>
2.0000

> <Gold.PLP.Chemscore.Metal>
0.0000

> <Gold.Chemscore.Hbonds>
donor molecule, donor type, donor heavy atom, donor atom, acceptor molecule, acceptor atom, score
      L1  H     4    21       P1  8028  1.00
      P1  H  7989  7998       L1     1  0.82
      L1  C    13    32       P1 10175  0.93
      L1  C    15    33       P1  7948  1.00

> <Gold.PLP.Chemscore.Internal.Correction>
0.0663

> <Gold.Rescore>
     Score         DG    S(hbond)    S(metal)    S(lipo)     H(rot)  DE(clash)    DE(int)     intcor
     16.19     -17.04       1.06        0.00     109.89       1.89       0.19       0.66       ----

> <Gold.Chemscore.Fitness>
16.1871

> <Gold.Chemscore.DG>
-17.0368

> <Gold.Chemscore.ZeroCoef>
-5.4800

> <Gold.Chemscore.Hbond>
1.0614

> <Gold.Chemscore.Metal>
0.0000

> <Gold.Chemscore.Lipo>
109.8929

> <Gold.Chemscore.Internal_Hbond>
0.0000

> <Gold.Chemscore.DEClash>
0.1870

> <Gold.Chemscore.DEInternal>
0.6628

> <Gold.Chemscore.Rot>
1.8928

> <Gold.Chemscore.Internal.Correction>
   9.000000E+99

> <Gold.Chemscore.Hbonds>
donor molecule, donor type, donor heavy atom, donor atom, acceptor molecule, acceptor atom, score
      L1  H     4    21       P1  8028  0.96
      P1  H  7989  7998       L1     1  0.11

> <Gold.Chemscore.Hbond.Weighted>
-3.5449

> <Gold.Chemscore.Metal.Weighted>
-0.0000

> <Gold.Chemscore.Lipo.Weighted>
-12.8575

> <Gold.Chemscore.Internal_Hbond.Weighted>
0.0000

> <Gold.Chemscore.DEClash.Weighted>
0.1870

> <Gold.Chemscore.DEInternal.Weighted>
0.6628

> <Gold.Chemscore.Rot.Weighted>
4.8455

> <Gold.Chemscore.Internal.Correction.Weighted>
   9.000000E+99

> <Gold.Protein.RotatedTorsions>
[ 6907 6896 6895 6894 ] final  121.90 input  -60.11 | X-H torsion
[ 7974 7965 7964 7962 ] final -126.40 input  175.53 | X-H torsion
[ 8008 7997 7996 7995 ] final  103.00 input   59.86 | X-H torsion
[ 10167 10162 10161 10158 ] final  111.56 input  -65.29 | X-H torsion
[ 10718 10713 10712 10709 ] final  -89.90 input   66.30 | X-H torsion
[ 10763 10752 10751 10750 ] final    0.48 input  -60.55 | X-H torsion
[ 11005 11000 10999 10996 ] final  108.69 input  -57.11 | X-H torsion

> <Gold.Protein.ActiveResidues>
 VAL166  LYS551  ARG553  GLY616  TRP617  ASP618  TYR619  PRO620  LYS621  CYS622 
 ASP623  PHE694  ASN695  SER759  ASP760  ASP761  ALA762  ILE779  LEU786  VAL792 
 PHE793  MET794  SER795  GLU796  ALA797  LYS798  CYS799  TRP800  GLU811  SER814 

> <Gold.Protein.RotatedAtoms>
  152.4286  133.7237  159.6547 H   0  0  0  0  0  0  0  0  0  0  0  0  # atno 6907 bound_to 6896
  150.8163  133.8320  159.3165 H   0  0  0  0  0  0  0  0  0  0  0  0  # atno 6908 bound_to 6896
  151.6015  135.1049  160.0113 H   0  0  0  0  0  0  0  0  0  0  0  0  # atno 6909 bound_to 6896
  144.9877  140.7702  143.4573 H   0  0  0  0  0  0  0  0  0  0  0  0  # atno 7974 bound_to 7965
  156.1444  140.3172  155.8547 H   0  0  0  0  0  0  0  0  0  0  0  0  # atno 8008 bound_to 7997
  155.4092  140.0505  157.3049 H   0  0  0  0  0  0  0  0  0  0  0  0  # atno 8009 bound_to 7997
  154.5003  140.2127  155.9371 H   0  0  0  0  0  0  0  0  0  0  0  0  # atno 8010 bound_to 7997
  139.6602  144.7129  151.1879 H   0  0  0  0  0  0  0  0  0  0  0  0  # atno 10167 bound_to 10162
  155.9986  130.4889  150.5242 H   0  0  0  0  0  0  0  0  0  0  0  0  # atno 10718 bound_to 10713
  153.3201  135.6968  153.7038 H   0  0  0  0  0  0  0  0  0  0  0  0  # atno 10763 bound_to 10752
  153.5881  135.3485  155.2901 H   0  0  0  0  0  0  0  0  0  0  0  0  # atno 10764 bound_to 10752
  154.8595  135.4311  154.2363 H   0  0  0  0  0  0  0  0  0  0  0  0  # atno 10765 bound_to 10752
  139.8848  134.9437  156.6011 H   0  0  0  0  0  0  0  0  0  0  0  0  # atno 11005 bound_to 11000
  145.2330  139.2106  143.5033 LP  0  0  0  0  0  0  0  0  0  0  0  0  # atno 17320 bound_to 7965
  146.3424  140.2211  142.8591 LP  0  0  0  0  0  0  0  0  0  0  0  0  # atno 17321 bound_to 7965
  140.7577  143.6006  150.8703 LP  0  0  0  0  0  0  0  0  0  0  0  0  # atno 17342 bound_to 10162
  139.9663  143.6107  152.2987 LP  0  0  0  0  0  0  0  0  0  0  0  0  # atno 17343 bound_to 10162
  157.3199  131.0680  151.1939 LP  0  0  0  0  0  0  0  0  0  0  0  0  # atno 17370 bound_to 10713
  157.2856  130.6771  149.6088 LP  0  0  0  0  0  0  0  0  0  0  0  0  # atno 17371 bound_to 10713
  140.7882  133.8604  155.8624 LP  0  0  0  0  0  0  0  0  0  0  0  0  # atno 17394 bound_to 11000
  140.9700  134.1543  157.4584 LP  0  0  0  0  0  0  0  0  0  0  0  0  # atno 17395 bound_to 11000

$$$$
