AV-unprocessed.smi:97|AV-procd|sdf|861|dock6
  -GOLD-   2262017303D 1   1.00000     0.00000
 Structure written by MMmdl.
 46 49  0  0  0  0  0  0  0  0  1 V2000
  150.1957  136.5308  156.4156 O   0  0  0  0  0  0  0  0  0  0  0  0
  150.0764  136.6879  155.1994 C   0  0  0  0  0  0  0  0  0  0  0  0
  150.8355  137.8033  154.4649 C   0  0  0  0  0  0  0  0  0  0  0  0
  150.4428  139.1629  154.8959 N   0  0  0  0  0  0  0  0  0  0  0  0
  149.2275  139.7020  154.4048 C   0  0  0  0  0  0  0  0  0  0  0  0
  148.5196  139.0695  153.6194 O   0  0  0  0  0  0  0  0  0  0  0  0
  148.8815  141.0289  154.9011 C   0  0  0  0  0  0  0  0  0  0  0  0
  147.7387  141.6126  154.5022 F   0  0  0  0  0  0  0  0  0  0  0  0
  149.6908  141.6810  155.7608 C   0  0  0  0  0  0  0  0  0  0  0  0
  150.8841  141.1540  156.2145 N   0  0  0  0  0  0  0  0  0  0  0  0
  151.7026  141.9358  157.2159 C   0  0  2  0  0  0  0  0  0  0  0  0
  151.8318  141.2402  158.5842 C   0  0  0  0  0  0  0  0  0  0  0  0
  151.2451  142.2633  159.5429 C   0  0  0  0  0  0  0  0  0  0  0  0
  151.3582  143.5664  158.7596 C   0  0  0  0  0  0  0  0  0  0  0  0
  151.0896  143.1707  157.4236 O   0  0  0  0  0  0  0  0  0  0  0  0
  151.2718  139.8553  155.8108 C   0  0  0  0  0  0  0  0  0  0  0  0
  152.2992  139.3350  156.2486 O   0  0  0  0  0  0  0  0  0  0  0  0
  149.2900  135.9155  154.4352 N   0  0  0  0  0  0  0  0  0  0  0  0
  148.4502  134.8315  154.9342 C   0  0  0  0  0  0  0  0  0  0  0  0
  149.2310  133.6165  155.4170 C   0  0  0  0  0  0  0  0  0  0  0  0
  149.0885  132.3812  154.7322 C   0  0  0  0  0  0  0  0  0  0  0  0
  149.7966  131.2321  155.1520 C   0  0  0  0  0  0  0  0  0  0  0  0
  150.6389  131.3543  156.2687 C   0  0  0  0  0  0  0  0  0  0  0  0
  150.7777  132.5497  156.9426 C   0  0  0  0  0  0  0  0  0  0  0  0
  150.0849  133.7048  156.5461 C   0  0  0  0  0  0  0  0  0  0  0  0
  151.6437  132.3918  157.9756 O   0  0  0  0  0  0  0  0  0  0  0  0
  152.0530  131.0493  157.9316 C   0  0  0  0  0  0  0  0  0  0  0  0
  151.4141  130.4082  156.8574 O   0  0  0  0  0  0  0  0  0  0  0  0
  151.9052  137.6350  154.5983 H   0  0  0  0  0  0  0  0  0  0  0  0
  150.6819  137.6841  153.3908 H   0  0  0  0  0  0  0  0  0  0  0  0
  149.3853  142.6591  156.1024 H   0  0  0  0  0  0  0  0  0  0  0  0
  152.6770  142.0930  156.7511 H   0  0  0  0  0  0  0  0  0  0  0  0
  151.3167  140.2797  158.6173 H   0  0  0  0  0  0  0  0  0  0  0  0
  152.8895  141.0719  158.7890 H   0  0  0  0  0  0  0  0  0  0  0  0
  150.1967  142.0375  159.7387 H   0  0  0  0  0  0  0  0  0  0  0  0
  151.7661  142.2979  160.4999 H   0  0  0  0  0  0  0  0  0  0  0  0
  150.6566  144.3271  159.1022 H   0  0  0  0  0  0  0  0  0  0  0  0
  152.3688  143.9731  158.8245 H   0  0  0  0  0  0  0  0  0  0  0  0
  149.2517  136.1057  153.4444 H   0  0  0  0  0  0  0  0  0  0  0  0
  147.8619  135.2135  155.7686 H   0  0  0  0  0  0  0  0  0  0  0  0
  147.7363  134.5368  154.1631 H   0  0  0  0  0  0  0  0  0  0  0  0
  148.4345  132.3129  153.8752 H   0  0  0  0  0  0  0  0  0  0  0  0
  149.6934  130.2915  154.6316 H   0  0  0  0  0  0  0  0  0  0  0  0
  150.2078  134.6285  157.0920 H   0  0  0  0  0  0  0  0  0  0  0  0
  153.1338  131.0013  157.7954 H   0  0  0  0  0  0  0  0  0  0  0  0
  151.7835  130.5547  158.8653 H   0  0  0  0  0  0  0  0  0  0  0  0
  1  2  2  0  0  0  0
  2  3  1  0  0  0  0
  2 18  1  0  0  0  0
  3  4  1  0  0  0  0
  3 29  1  0  0  0  0
  3 30  1  0  0  0  0
  4 16  1  0  0  0  0
  4  5  1  0  0  0  0
  5  6  2  0  0  0  0
  5  7  1  0  0  0  0
  7  8  1  0  0  0  0
  7  9  2  0  0  0  0
  9 10  1  0  0  0  0
  9 31  1  0  0  0  0
 10 11  1  0  0  0  0
 10 16  1  0  0  0  0
 11 15  1  0  0  0  0
 11 12  1  0  0  0  0
 11 32  1  0  0  0  0
 12 13  1  0  0  0  0
 12 33  1  0  0  0  0
 12 34  1  0  0  0  0
 13 14  1  0  0  0  0
 13 35  1  0  0  0  0
 13 36  1  0  0  0  0
 14 15  1  0  0  0  0
 14 37  1  0  0  0  0
 14 38  1  0  0  0  0
 16 17  2  0  0  0  0
 18 19  1  0  0  0  0
 18 39  1  0  0  0  0
 19 20  1  0  0  0  0
 19 40  1  0  0  0  0
 19 41  1  0  0  0  0
 20 25  1  0  0  0  0
 20 21  2  0  0  0  0
 21 22  1  0  0  0  0
 21 42  1  0  0  0  0
 22 23  2  0  0  0  0
 22 43  1  0  0  0  0
 23 28  1  0  0  0  0
 23 24  1  0  0  0  0
 24 25  2  0  0  0  0
 24 26  1  0  0  0  0
 25 44  1  0  0  0  0
 26 27  1  0  0  0  0
 27 28  1  0  0  0  0
 27 45  1  0  0  0  0
 27 46  1  0  0  0  0
M  END
> <s_m_source_file>
AV-unprocessed.smi

> <i_m_source_file_index>
97

> <i_lp_mmshare_version>
43012

> <i_f3d_flags>
0

> <s_epik_input>
TzFbQ0gyXU9jKGMxMilbY0hdYyhbY0hdW2NIXTIpW0NIMl1bTkhdQyg9TylbQ0gyXW4zYyg9TyljKEYpW2NIXW4oYzM9TylbQ0BASF00W0NIMl1bQ0gyXVtDSDJdTzQ=

> <s_epik_cmdline>
J2VwaWtfcHl0aG9uJywgJy1waCcsICc3LjAnLCAnLXRuJywgJzgnLCAnLW1hJywgJzIwMCcsICctbWV0YWxfYmluZGluZycsICctaW1hZScsICc8aW5maWxlLm1hZT4nLCAnLW9tYWUnLCAnPG91dGZpbGUubWFlPic=

> <r_lp_tautomer_probability>
1

> <r_epik_Ionization_Penalty>
3.79042e-08

> <r_epik_Ionization_Penalty_Charging>
3.81036e-09

> <r_epik_Ionization_Penalty_Neutral>
3.40938e-08

> <r_epik_State_Penalty>
-0

> <r_epik_Charging_Adjusted_Penalty>
3.81036e-09

> <i_epik_Tot_Q>
0

> <i_epik_Tot_abs_Q>
0

> <r_epik_Metal_State_Penalty>
-0

> <b_epik_Metal_Only>
0

> <s_epik_Chemistry_Notes>
This compound contains an acetal/aminal-like group ( X-CH(R)-Y where X, Y are N, S, or O) that may be acid/base labile, releasing an aldehyde.

> <s_lp_Force_Field>
OPLS_2005

> <r_lp_Energy>
33.0069

> <b_lp_Chiralities_Consistent>
1

> <s_lp_Variant>
AV-unprocessed.smi:97-1

> <Gold.Version>
5.8.1

> <Gold.Id.Protein>
6NUR|6NUR_protein|mol2

> <Gold.PLP.Fitness>
56.8594

> <Gold.PLP.PLP>
-45.5526

> <Gold.PLP.part.hbond>
-3.1662

> <Gold.PLP.part.metal>
0.0000

> <Gold.PLP.part.buried>
-6.3046

> <Gold.PLP.part.nonpolar>
-37.3005

> <Gold.PLP.part.repulsive>
1.6365

> <Gold.PLP.ligand.clash>
0.0000

> <Gold.PLP.ligand.torsion>
0.3702

> <Gold.PLP.Chemscore.Hbond>
3.0000

> <Gold.PLP.Chemscore.CHOScore>
1.0000

> <Gold.PLP.Chemscore.Metal>
0.0000

> <Gold.Chemscore.Hbonds>
donor molecule, donor type, donor heavy atom, donor atom, acceptor molecule, acceptor atom, score
      L1  H    18    39       P1  7948  1.00
      P1  H  6896  6907       L1    26  0.78
      P1  H  7997  8010       L1    17  0.62
      L1  C     9    31       P1  8028  1.00

> <Gold.PLP.Chemscore.Internal.Correction>
0.0472

> <Gold.Rescore>
     Score         DG    S(hbond)    S(metal)    S(lipo)     H(rot)  DE(clash)    DE(int)     intcor
     14.81     -18.20       2.88        0.00      83.00       2.58       1.44       1.94       ----

> <Gold.Chemscore.Fitness>
14.8084

> <Gold.Chemscore.DG>
-18.1961

> <Gold.Chemscore.ZeroCoef>
-5.4800

> <Gold.Chemscore.Hbond>
2.8774

> <Gold.Chemscore.Metal>
0.0000

> <Gold.Chemscore.Lipo>
82.9974

> <Gold.Chemscore.Internal_Hbond>
0.0000

> <Gold.Chemscore.DEClash>
1.4446

> <Gold.Chemscore.DEInternal>
1.9431

> <Gold.Chemscore.Rot>
2.5801

> <Gold.Chemscore.Internal.Correction>
   9.000000E+99

> <Gold.Chemscore.Hbonds>
donor molecule, donor type, donor heavy atom, donor atom, acceptor molecule, acceptor atom, score
      L1  H    18    39       P1  7948  0.81
      P1  H  6896  6907       L1    26  0.76
      P1  H  7997  8010       L1    17  0.63

> <Gold.Chemscore.Hbond.Weighted>
-9.6105

> <Gold.Chemscore.Metal.Weighted>
-0.0000

> <Gold.Chemscore.Lipo.Weighted>
-9.7107

> <Gold.Chemscore.Internal_Hbond.Weighted>
0.0000

> <Gold.Chemscore.DEClash.Weighted>
1.4446

> <Gold.Chemscore.DEInternal.Weighted>
1.9431

> <Gold.Chemscore.Rot.Weighted>
6.6050

> <Gold.Chemscore.Internal.Correction.Weighted>
   9.000000E+99

> <Gold.Protein.RotatedTorsions>
[ 6907 6896 6895 6894 ] final  159.49 input  -60.11 | X-H torsion
[ 7974 7965 7964 7962 ] final  126.09 input  175.53 | X-H torsion
[ 8008 7997 7996 7995 ] final   75.27 input   59.86 | X-H torsion
[ 10167 10162 10161 10158 ] final   40.70 input  -65.29 | X-H torsion
[ 10718 10713 10712 10709 ] final  -48.00 input   66.30 | X-H torsion
[ 10763 10752 10751 10750 ] final   29.55 input  -60.55 | X-H torsion
[ 11005 11000 10999 10996 ] final -172.58 input  -57.11 | X-H torsion

> <Gold.Protein.ActiveResidues>
 VAL166  LYS551  ARG553  GLY616  TRP617  ASP618  TYR619  PRO620  LYS621  CYS622 
 ASP623  PHE694  ASN695  SER759  ASP760  ASP761  ALA762  ILE779  LEU786  VAL792 
 PHE793  MET794  SER795  GLU796  ALA797  LYS798  CYS799  TRP800  GLU811  SER814 

> <Gold.Protein.RotatedAtoms>
  151.9848  133.3770  159.4121 H   0  0  0  0  0  0  0  0  0  0  0  0  # atno 6907 bound_to 6896
  150.6929  134.4000  159.5124 H   0  0  0  0  0  0  0  0  0  0  0  0  # atno 6908 bound_to 6896
  152.1724  134.8823  160.0584 H   0  0  0  0  0  0  0  0  0  0  0  0  # atno 6909 bound_to 6896
  145.0656  139.3770  143.4983 H   0  0  0  0  0  0  0  0  0  0  0  0  # atno 7974 bound_to 7965
  155.8104  140.3473  155.5454 H   0  0  0  0  0  0  0  0  0  0  0  0  # atno 8008 bound_to 7997
  155.8446  140.0947  157.1733 H   0  0  0  0  0  0  0  0  0  0  0  0  # atno 8009 bound_to 7997
  154.4006  140.1388  156.3758 H   0  0  0  0  0  0  0  0  0  0  0  0  # atno 8010 bound_to 7997
  140.3716  144.2097  150.6133 H   0  0  0  0  0  0  0  0  0  0  0  0  # atno 10167 bound_to 10162
  156.2030  130.4157  149.9216 H   0  0  0  0  0  0  0  0  0  0  0  0  # atno 10718 bound_to 10713
  153.0424  135.6486  154.0908 H   0  0  0  0  0  0  0  0  0  0  0  0  # atno 10763 bound_to 10752
  154.0612  135.2888  155.3326 H   0  0  0  0  0  0  0  0  0  0  0  0  # atno 10764 bound_to 10752
  154.6656  135.5375  153.8138 H   0  0  0  0  0  0  0  0  0  0  0  0  # atno 10765 bound_to 10752
  140.4953  134.5945  157.4969 H   0  0  0  0  0  0  0  0  0  0  0  0  # atno 11005 bound_to 11000
  146.3526  140.0376  142.8645 LP  0  0  0  0  0  0  0  0  0  0  0  0  # atno 17320 bound_to 7965
  145.1355  140.9542  143.4519 LP  0  0  0  0  0  0  0  0  0  0  0  0  # atno 17321 bound_to 7965
  140.5027  143.2313  151.8654 LP  0  0  0  0  0  0  0  0  0  0  0  0  # atno 17342 bound_to 10162
  139.4803  144.5041  151.9022 LP  0  0  0  0  0  0  0  0  0  0  0  0  # atno 17343 bound_to 10162
  156.6919  130.8899  151.3589 LP  0  0  0  0  0  0  0  0  0  0  0  0  # atno 17370 bound_to 10713
  157.6996  130.9319  150.0746 LP  0  0  0  0  0  0  0  0  0  0  0  0  # atno 17371 bound_to 10713
  139.9745  134.7238  155.9977 LP  0  0  0  0  0  0  0  0  0  0  0  0  # atno 17394 bound_to 11000
  141.1463  133.6555  156.3878 LP  0  0  0  0  0  0  0  0  0  0  0  0  # atno 17395 bound_to 11000

$$$$
