AV-unprocessed.smi:748|AV-procd|sdf|3582|dock2
  -GOLD-   22720 0573D 1   1.00000     0.00000
 Structure written by MMmdl.
 50 51  0  0  0  0  0  0  0  0  1 V2000
  145.9717  130.2402  151.5923 C   0  0  0  0  0  0  0  0  0  0  0  0
  146.1248  131.7575  151.3969 C   0  0  0  0  0  0  0  0  0  0  0  0
  145.8762  132.1664  149.9388 C   0  0  0  0  0  0  0  0  0  0  0  0
  147.4565  132.1981  151.8026 N   0  0  0  0  0  0  0  0  0  0  0  0
  147.7377  132.9305  152.8919 C   0  0  0  0  0  0  0  0  0  0  0  0
  146.8814  133.3175  153.6871 O   0  0  0  0  0  0  0  0  0  0  0  0
  149.2100  133.2832  153.1147 C   0  0  0  0  0  0  0  0  0  0  0  0
  149.4809  133.7830  154.5456 C   0  0  0  0  0  0  0  0  0  0  0  0
  149.7236  135.2203  154.5655 N   0  0  0  0  0  0  0  0  0  0  0  0
  150.4086  135.8749  155.5174 C   0  0  0  0  0  0  0  0  0  0  0  0
  150.9012  135.3211  156.5007 O   0  0  0  0  0  0  0  0  0  0  0  0
  150.4857  137.3668  155.3521 C   0  0  0  0  0  0  0  0  0  0  0  0
  150.1984  137.9888  154.1166 C   0  0  0  0  0  0  0  0  0  0  0  0
  150.3153  139.3876  154.0269 C   0  0  0  0  0  0  0  0  0  0  0  0
  150.6927  140.1673  155.0604 N   0  0  0  0  0  0  0  0  0  0  0  0
  150.9787  139.5863  156.2515 C   0  0  0  0  0  0  0  0  0  0  0  0
  151.3828  140.4170  157.3197 N   0  0  0  0  0  0  0  0  0  0  0  0
  152.5184  139.9884  158.1342 C   0  0  0  0  0  0  0  0  0  0  0  0
  152.6080  140.8353  159.4142 C   0  0  0  0  0  0  0  0  0  0  0  0
  152.6622  142.2164  159.0724 O   0  0  0  0  0  0  0  0  0  0  0  0
  151.4940  142.6426  158.3767 C   0  0  1  0  0  0  0  0  0  0  0  0
  151.6006  144.1520  158.1368 C   0  0  0  0  0  0  0  0  0  0  0  0
  151.3703  141.8543  157.0582 C   0  0  0  0  0  0  0  0  0  0  0  0
  150.8916  138.1846  156.4302 C   0  0  0  0  0  0  0  0  0  0  0  0
  144.9797  129.9054  151.2876 H   0  0  0  0  0  0  0  0  0  0  0  0
  146.1035  129.9580  152.6374 H   0  0  0  0  0  0  0  0  0  0  0  0
  146.7045  129.6878  151.0033 H   0  0  0  0  0  0  0  0  0  0  0  0
  145.3829  132.2647  152.0164 H   0  0  0  0  0  0  0  0  0  0  0  0
  144.8754  131.8779  149.6165 H   0  0  0  0  0  0  0  0  0  0  0  0
  146.5914  131.6927  149.2652 H   0  0  0  0  0  0  0  0  0  0  0  0
  145.9632  133.2461  149.8119 H   0  0  0  0  0  0  0  0  0  0  0  0
  148.2239  131.9278  151.2046 H   0  0  0  0  0  0  0  0  0  0  0  0
  149.8325  132.4118  152.9051 H   0  0  0  0  0  0  0  0  0  0  0  0
  149.4909  134.0484  152.3899 H   0  0  0  0  0  0  0  0  0  0  0  0
  148.6519  133.5334  155.2110 H   0  0  0  0  0  0  0  0  0  0  0  0
  150.3640  133.2895  154.9534 H   0  0  0  0  0  0  0  0  0  0  0  0
  149.3362  135.7613  153.8060 H   0  0  0  0  0  0  0  0  0  0  0  0
  149.9017  137.4190  153.2482 H   0  0  0  0  0  0  0  0  0  0  0  0
  150.1036  139.8949  153.0974 H   0  0  0  0  0  0  0  0  0  0  0  0
  152.4170  138.9366  158.4055 H   0  0  0  0  0  0  0  0  0  0  0  0
  153.4366  140.0899  157.5541 H   0  0  0  0  0  0  0  0  0  0  0  0
  151.7555  140.6440  160.0680 H   0  0  0  0  0  0  0  0  0  0  0  0
  153.5045  140.5725  159.9760 H   0  0  0  0  0  0  0  0  0  0  0  0
  150.6181  142.4526  159.0000 H   0  0  0  0  0  0  0  0  0  0  0  0
  150.7226  144.5288  157.6117 H   0  0  0  0  0  0  0  0  0  0  0  0
  152.4791  144.3957  157.5384 H   0  0  0  0  0  0  0  0  0  0  0  0
  151.6801  144.6913  159.0809 H   0  0  0  0  0  0  0  0  0  0  0  0
  152.2032  142.0956  156.3964 H   0  0  0  0  0  0  0  0  0  0  0  0
  150.4611  142.1644  156.5458 H   0  0  0  0  0  0  0  0  0  0  0  0
  151.1475  137.7327  157.3773 H   0  0  0  0  0  0  0  0  0  0  0  0
  1  2  1  0  0  0  0
  1 25  1  0  0  0  0
  1 26  1  0  0  0  0
  1 27  1  0  0  0  0
  2  3  1  0  0  0  0
  2  4  1  0  0  0  0
  2 28  1  0  0  0  0
  3 29  1  0  0  0  0
  3 30  1  0  0  0  0
  3 31  1  0  0  0  0
  4  5  1  0  0  0  0
  4 32  1  0  0  0  0
  5  6  2  0  0  0  0
  5  7  1  0  0  0  0
  7  8  1  0  0  0  0
  7 33  1  0  0  0  0
  7 34  1  0  0  0  0
  8  9  1  0  0  0  0
  8 35  1  0  0  0  0
  8 36  1  0  0  0  0
  9 10  1  0  0  0  0
  9 37  1  0  0  0  0
 10 11  2  0  0  0  0
 10 12  1  0  0  0  0
 12 24  1  0  0  0  0
 12 13  2  0  0  0  0
 13 14  1  0  0  0  0
 13 38  1  0  0  0  0
 14 15  2  0  0  0  0
 14 39  1  0  0  0  0
 15 16  1  0  0  0  0
 16 17  1  0  0  0  0
 16 24  2  0  0  0  0
 17 23  1  0  0  0  0
 17 18  1  0  0  0  0
 18 19  1  0  0  0  0
 18 40  1  0  0  0  0
 18 41  1  0  0  0  0
 19 20  1  0  0  0  0
 19 42  1  0  0  0  0
 19 43  1  0  0  0  0
 20 21  1  0  0  0  0
 21 22  1  0  0  0  0
 21 23  1  0  0  0  0
 21 44  1  0  0  0  0
 22 45  1  0  0  0  0
 22 46  1  0  0  0  0
 22 47  1  0  0  0  0
 23 48  1  0  0  0  0
 23 49  1  0  0  0  0
 24 50  1  0  0  0  0
M  END
> <s_m_source_file>
AV-unprocessed.smi

> <i_m_source_file_index>
748

> <i_lp_mmshare_version>
43012

> <i_f3d_flags>
0

> <s_epik_input>
W0NIM11bQ0hdKFtDSDNdKVtOSF1DKD1PKVtDSDJdW0NIMl1bTkhdQyg9TyljMVtjSF1bY0hdbmMoW2NIXTEpTjJbQ0gyXVtDSDJdT1tDQEBIXShbQ0gzXSlbQ0gyXTI=

> <s_epik_cmdline>
J2VwaWtfcHl0aG9uJywgJy1waCcsICc3LjAnLCAnLXRuJywgJzgnLCAnLW1hJywgJzIwMCcsICctbWV0YWxfYmluZGluZycsICctaW1hZScsICc8aW5maWxlLm1hZT4nLCAnLW9tYWUnLCAnPG91dGZpbGUubWFlPic=

> <r_lp_tautomer_probability>
1

> <r_epik_Ionization_Penalty>
1.38678e-05

> <r_epik_Ionization_Penalty_Charging>
0

> <r_epik_Ionization_Penalty_Neutral>
1.38678e-05

> <r_epik_State_Penalty>
-0

> <r_epik_Charging_Adjusted_Penalty>
0

> <i_epik_Tot_Q>
0

> <i_epik_Tot_abs_Q>
0

> <r_epik_Metal_State_Penalty>
-0

> <b_epik_Metal_Only>
0

> <s_lp_Force_Field>
OPLS_2005

> <r_lp_Energy>
16.8499

> <b_lp_Chiralities_Consistent>
1

> <s_lp_Variant>
AV-unprocessed.smi:748-1

> <Gold.Version>
5.8.1

> <Gold.Id.Protein>
6NUR|6NUR_protein|mol2

> <Gold.PLP.Fitness>
47.0427

> <Gold.PLP.PLP>
-39.8448

> <Gold.PLP.part.hbond>
-3.0000

> <Gold.PLP.part.metal>
0.0000

> <Gold.PLP.part.buried>
-2.7672

> <Gold.PLP.part.nonpolar>
-33.1326

> <Gold.PLP.part.repulsive>
0.1884

> <Gold.PLP.ligand.clash>
0.0000

> <Gold.PLP.ligand.torsion>
1.0965

> <Gold.PLP.Chemscore.Hbond>
1.9750

> <Gold.PLP.Chemscore.CHOScore>
1.0000

> <Gold.PLP.Chemscore.Metal>
0.0000

> <Gold.Chemscore.Hbonds>
donor molecule, donor type, donor heavy atom, donor atom, acceptor molecule, acceptor atom, score
      L1  H     4    32       P1 10747  1.00
      L1  H     9    37       P1  7948  1.00
      L1  C    14    39       P1  7957  0.92

> <Gold.PLP.Chemscore.Internal.Correction>
0.4658

> <Gold.Rescore>
     Score         DG    S(hbond)    S(metal)    S(lipo)     H(rot)  DE(clash)    DE(int)     intcor
     17.68     -18.88       1.67        0.00     107.72       1.87       0.19       1.02       ----

> <Gold.Chemscore.Fitness>
17.6798

> <Gold.Chemscore.DG>
-18.8849

> <Gold.Chemscore.ZeroCoef>
-5.4800

> <Gold.Chemscore.Hbond>
1.6727

> <Gold.Chemscore.Metal>
0.0000

> <Gold.Chemscore.Lipo>
107.7205

> <Gold.Chemscore.Internal_Hbond>
0.0000

> <Gold.Chemscore.DEClash>
0.1897

> <Gold.Chemscore.DEInternal>
1.0155

> <Gold.Chemscore.Rot>
1.8692

> <Gold.Chemscore.Internal.Correction>
   9.000000E+99

> <Gold.Chemscore.Hbonds>
donor molecule, donor type, donor heavy atom, donor atom, acceptor molecule, acceptor atom, score
      L1  H     4    32       P1 10747  0.95
      L1  H     9    37       P1  7948  0.56

> <Gold.Chemscore.Hbond.Weighted>
-5.5868

> <Gold.Chemscore.Metal.Weighted>
-0.0000

> <Gold.Chemscore.Lipo.Weighted>
-12.6033

> <Gold.Chemscore.Internal_Hbond.Weighted>
0.0000

> <Gold.Chemscore.DEClash.Weighted>
0.1897

> <Gold.Chemscore.DEInternal.Weighted>
1.0155

> <Gold.Chemscore.Rot.Weighted>
4.7852

> <Gold.Chemscore.Internal.Correction.Weighted>
   9.000000E+99

> <Gold.Protein.RotatedTorsions>
[ 6907 6896 6895 6894 ] final   91.07 input  -60.11 | X-H torsion
[ 7974 7965 7964 7962 ] final  -38.00 input  175.53 | X-H torsion
[ 8008 7997 7996 7995 ] final    9.40 input   59.86 | X-H torsion
[ 10167 10162 10161 10158 ] final  159.96 input  -65.29 | X-H torsion
[ 10718 10713 10712 10709 ] final   94.48 input   66.30 | X-H torsion
[ 10763 10752 10751 10750 ] final  -38.82 input  -60.55 | X-H torsion
[ 11005 11000 10999 10996 ] final  155.81 input  -57.11 | X-H torsion

> <Gold.Protein.ActiveResidues>
 VAL166  LYS551  ARG553  GLY616  TRP617  ASP618  TYR619  PRO620  LYS621  CYS622 
 ASP623  PHE694  ASN695  SER759  ASP760  ASP761  ALA762  ILE779  LEU786  VAL792 
 PHE793  MET794  SER795  GLU796  ALA797  LYS798  CYS799  TRP800  GLU811  SER814 

> <Gold.Protein.RotatedAtoms>
  152.5448  134.1713  159.8597 H   0  0  0  0  0  0  0  0  0  0  0  0  # atno 6907 bound_to 6896
  151.1723  133.4769  159.2601 H   0  0  0  0  0  0  0  0  0  0  0  0  # atno 6908 bound_to 6896
  151.1262  135.0117  159.8617 H   0  0  0  0  0  0  0  0  0  0  0  0  # atno 6909 bound_to 6896
  146.0525  140.6461  142.9035 H   0  0  0  0  0  0  0  0  0  0  0  0  # atno 7974 bound_to 7965
  154.7796  140.2816  155.6074 H   0  0  0  0  0  0  0  0  0  0  0  0  # atno 8008 bound_to 7997
  156.2947  140.2626  156.2546 H   0  0  0  0  0  0  0  0  0  0  0  0  # atno 8009 bound_to 7997
  154.9801  140.0375  157.2263 H   0  0  0  0  0  0  0  0  0  0  0  0  # atno 8010 bound_to 7997
  139.4836  144.4680  151.8615 H   0  0  0  0  0  0  0  0  0  0  0  0  # atno 10167 bound_to 10162
  157.6947  131.0513  150.4192 H   0  0  0  0  0  0  0  0  0  0  0  0  # atno 10718 bound_to 10713
  153.9192  135.6784  153.4748 H   0  0  0  0  0  0  0  0  0  0  0  0  # atno 10763 bound_to 10752
  153.1037  135.4815  154.8911 H   0  0  0  0  0  0  0  0  0  0  0  0  # atno 10764 bound_to 10752
  154.7487  135.3179  154.8554 H   0  0  0  0  0  0  0  0  0  0  0  0  # atno 10765 bound_to 10752
  140.1616  134.8605  157.2581 H   0  0  0  0  0  0  0  0  0  0  0  0  # atno 11005 bound_to 11000
  144.7130  140.4109  143.7066 LP  0  0  0  0  0  0  0  0  0  0  0  0  # atno 17320 bound_to 7965
  145.6700  139.1597  143.2760 LP  0  0  0  0  0  0  0  0  0  0  0  0  # atno 17321 bound_to 7965
  140.4147  144.2323  150.5888 LP  0  0  0  0  0  0  0  0  0  0  0  0  # atno 17342 bound_to 10162
  140.4932  143.2341  151.8787 LP  0  0  0  0  0  0  0  0  0  0  0  0  # atno 17343 bound_to 10162
  156.4569  130.4023  149.6601 LP  0  0  0  0  0  0  0  0  0  0  0  0  # atno 17370 bound_to 10713
  156.3730  130.7540  151.2525 LP  0  0  0  0  0  0  0  0  0  0  0  0  # atno 17371 bound_to 10713
  140.2483  134.3714  155.7452 LP  0  0  0  0  0  0  0  0  0  0  0  0  # atno 17394 bound_to 11000
  141.2210  133.7302  156.8895 LP  0  0  0  0  0  0  0  0  0  0  0  0  # atno 17395 bound_to 11000

$$$$
