AV-unprocessed.smi:2926|AV-procd|sdf|11229|dock3
  -GOLD-   2272016123D 1   1.00000     0.00000
 Structure written by MMmdl.
 31 31  0  0  0  0  0  0  0  0  2 V2000
  152.6328  144.2743  158.3307 C   0  0  0  0  0  0  0  0  0  0  0  0
  152.1541  143.0963  159.2091 C   0  0  0  0  0  0  0  0  0  0  0  0
  153.1979  142.7811  160.3062 C   0  0  0  0  0  0  0  0  0  0  0  0
  151.6820  141.8608  158.3824 C   0  0  2  0  0  0  0  0  0  0  0  0
  150.4926  142.1802  157.4522 C   0  0  0  0  0  0  0  0  0  0  0  0
  150.9147  142.8816  156.2997 O   0  0  0  0  0  0  0  0  0  0  0  0
  151.3322  140.7597  159.2751 N   0  5  0  0  0  0  0  0  0  0  0  0
  151.8717  139.2637  158.9583 S   0  0  0  0  0  0  0  0  0  0  0  0
  152.9343  139.2451  157.9400 O   0  0  0  0  0  0  0  0  0  0  0  0
  152.1066  138.4759  160.1799 O   0  0  0  0  0  0  0  0  0  0  0  0
  150.3809  138.5313  158.1575 C   0  0  0  0  0  0  0  0  0  0  0  0
  150.7597  137.8593  156.8668 C   0  0  0  0  0  0  0  0  0  0  0  0
  150.4216  138.2368  155.5374 C   0  0  0  0  0  0  0  0  0  0  0  0
  151.0304  137.2864  154.7701 C   0  0  0  0  0  0  0  0  0  0  0  0
  151.6997  136.4018  155.5515 O   0  0  0  0  0  0  0  0  0  0  0  0
  151.5239  136.7774  156.8881 N   0  0  0  0  0  0  0  0  0  0  0  0
  152.5190  141.5924  157.7355 H   0  0  0  0  0  0  0  0  0  0  0  0
  153.5495  144.0368  157.7877 H   0  0  0  0  0  0  0  0  0  0  0  0
  152.8464  145.1485  158.9463 H   0  0  0  0  0  0  0  0  0  0  0  0
  151.8818  144.5810  157.6000 H   0  0  0  0  0  0  0  0  0  0  0  0
  151.2700  143.4643  159.7315 H   0  0  0  0  0  0  0  0  0  0  0  0
  154.1406  142.4228  159.8890 H   0  0  0  0  0  0  0  0  0  0  0  0
  152.8433  142.0375  161.0213 H   0  0  0  0  0  0  0  0  0  0  0  0
  153.4277  143.6783  160.8814 H   0  0  0  0  0  0  0  0  0  0  0  0
  149.9764  141.2710  157.1424 H   0  0  0  0  0  0  0  0  0  0  0  0
  149.7626  142.8009  157.9722 H   0  0  0  0  0  0  0  0  0  0  0  0
  150.2295  143.4787  156.0430 H   0  0  0  0  0  0  0  0  0  0  0  0
  149.9355  137.8199  158.8522 H   0  0  0  0  0  0  0  0  0  0  0  0
  149.6585  139.3312  157.9929 H   0  0  0  0  0  0  0  0  0  0  0  0
  149.8199  139.0691  155.2031 H   0  0  0  0  0  0  0  0  0  0  0  0
  151.0815  137.1132  153.7055 H   0  0  0  0  0  0  0  0  0  0  0  0
  1  2  1  0  0  0  0
  1 18  1  0  0  0  0
  1 19  1  0  0  0  0
  1 20  1  0  0  0  0
  2  3  1  0  0  0  0
  2  4  1  0  0  0  0
  2 21  1  0  0  0  0
  3 22  1  0  0  0  0
  3 23  1  0  0  0  0
  3 24  1  0  0  0  0
  4 17  1  0  0  0  0
  4  5  1  0  0  0  0
  4  7  1  0  0  0  0
  5  6  1  0  0  0  0
  5 25  1  0  0  0  0
  5 26  1  0  0  0  0
  6 27  1  0  0  0  0
  7  8  1  0  0  0  0
  8  9  2  0  0  0  0
  8 10  2  0  0  0  0
  8 11  1  0  0  0  0
 11 12  1  0  0  0  0
 11 28  1  0  0  0  0
 11 29  1  0  0  0  0
 12 16  2  0  0  0  0
 12 13  1  0  0  0  0
 13 14  2  0  0  0  0
 13 30  1  0  0  0  0
 14 15  1  0  0  0  0
 14 31  1  0  0  0  0
 15 16  1  0  0  0  0
M  CHG  1   7  -1
M  END
> <s_m_source_file>
AV-unprocessed.smi

> <i_m_source_file_index>
2926

> <i_lp_mmshare_version>
43012

> <i_f3d_flags>
0

> <s_epik_input>
W0NIM11bQ0hdKFtDSDNdKVtDQEBIXShbQ0gyXVtPSF0pW05IXVMoPU8pKD1PKVtDSDJdYzFbY0hdW2NIXW9uMQ==

> <s_epik_cmdline>
J2VwaWtfcHl0aG9uJywgJy1waCcsICc3LjAnLCAnLXRuJywgJzgnLCAnLW1hJywgJzIwMCcsICctbWV0YWxfYmluZGluZycsICctaW1hZScsICc8aW5maWxlLm1hZT4nLCAnLW9tYWUnLCAnPG91dGZpbGUubWFlPic=

> <r_lp_tautomer_probability>
1

> <r_epik_Ionization_Penalty>
4.75719

> <r_epik_Ionization_Penalty_Charging>
4.75718

> <r_epik_Ionization_Penalty_Neutral>
1.48962e-06

> <r_epik_State_Penalty>
4.75699

> <r_epik_Charging_Adjusted_Penalty>
9.51417

> <i_epik_Tot_Q>
-1

> <i_epik_Tot_abs_Q>
1

> <r_epik_Metal_State_Penalty>
0.961449

> <b_epik_Metal_Only>
1

> <s_lp_Force_Field>
OPLS_2005

> <r_lp_Energy>
3.36492

> <b_lp_Chiralities_Consistent>
1

> <s_lp_Variant>
AV-unprocessed.smi:2926-4

> <Gold.Version>
5.8.1

> <Gold.Id.Protein>
6NUR|6NUR_protein|mol2

> <Gold.PLP.Fitness>
40.2887

> <Gold.PLP.PLP>
-29.2437

> <Gold.PLP.part.hbond>
-2.9078

> <Gold.PLP.part.metal>
0.0000

> <Gold.PLP.part.buried>
-4.5891

> <Gold.PLP.part.nonpolar>
-22.1144

> <Gold.PLP.part.repulsive>
0.1431

> <Gold.PLP.ligand.clash>
0.0000

> <Gold.PLP.ligand.torsion>
1.1328

> <Gold.PLP.Chemscore.Hbond>
3.0000

> <Gold.PLP.Chemscore.CHOScore>
1.0429

> <Gold.PLP.Chemscore.Metal>
0.0000

> <Gold.Chemscore.Hbonds>
donor molecule, donor type, donor heavy atom, donor atom, acceptor molecule, acceptor atom, score
      L1  H     6    27       P1  8028  1.00
      P1  H  7997  8008       L1     9  0.94
      P1  H 10752 10763       L1    15  0.96
      L1  C    14    31       P1  7948  0.02
      L1  C    14    31       P1  7949  1.00

> <Gold.PLP.Chemscore.Internal.Correction>
1.1821

> <Gold.Rescore>
     Score         DG    S(hbond)    S(metal)    S(lipo)     H(rot)  DE(clash)    DE(int)     intcor
     15.72     -17.56       2.95        0.00      75.34       2.58       0.04       1.81       ----

> <Gold.Chemscore.Fitness>
15.7154

> <Gold.Chemscore.DG>
-17.5640

> <Gold.Chemscore.ZeroCoef>
-5.4800

> <Gold.Chemscore.Hbond>
2.9546

> <Gold.Chemscore.Metal>
0.0000

> <Gold.Chemscore.Lipo>
75.3354

> <Gold.Chemscore.Internal_Hbond>
0.0000

> <Gold.Chemscore.DEClash>
0.0428

> <Gold.Chemscore.DEInternal>
1.8058

> <Gold.Chemscore.Rot>
2.5776

> <Gold.Chemscore.Internal.Correction>
   9.000000E+99

> <Gold.Chemscore.Hbonds>
donor molecule, donor type, donor heavy atom, donor atom, acceptor molecule, acceptor atom, score
      L1  H     6    27       P1  8028  1.00
      P1  H  7997  8008       L1     9  0.90
      P1  H 10752 10763       L1    15  0.51

> <Gold.Chemscore.Hbond.Weighted>
-9.8684

> <Gold.Chemscore.Metal.Weighted>
-0.0000

> <Gold.Chemscore.Lipo.Weighted>
-8.8142

> <Gold.Chemscore.Internal_Hbond.Weighted>
0.0000

> <Gold.Chemscore.DEClash.Weighted>
0.0428

> <Gold.Chemscore.DEInternal.Weighted>
1.8058

> <Gold.Chemscore.Rot.Weighted>
6.5987

> <Gold.Chemscore.Internal.Correction.Weighted>
   9.000000E+99

> <Gold.Protein.RotatedTorsions>
[ 6907 6896 6895 6894 ] final  113.21 input  -60.11 | X-H torsion
[ 7974 7965 7964 7962 ] final   84.34 input  175.53 | X-H torsion
[ 8008 7997 7996 7995 ] final  -86.09 input   59.86 | X-H torsion
[ 10167 10162 10161 10158 ] final  -49.30 input  -65.29 | X-H torsion
[ 10718 10713 10712 10709 ] final -122.64 input   66.30 | X-H torsion
[ 10763 10752 10751 10750 ] final   51.28 input  -60.55 | X-H torsion
[ 11005 11000 10999 10996 ] final   16.25 input  -57.11 | X-H torsion

> <Gold.Protein.ActiveResidues>
 VAL166  LYS551  ARG553  GLY616  TRP617  ASP618  TYR619  PRO620  LYS621  CYS622 
 ASP623  PHE694  ASN695  SER759  ASP760  ASP761  ALA762  ILE779  LEU786  VAL792 
 PHE793  MET794  SER795  GLU796  ALA797  LYS798  CYS799  TRP800  GLU811  SER814 

> <Gold.Protein.RotatedAtoms>
  152.4873  133.8407  159.7150 H   0  0  0  0  0  0  0  0  0  0  0  0  # atno 6907 bound_to 6896
  150.8971  133.7157  159.2895 H   0  0  0  0  0  0  0  0  0  0  0  0  # atno 6908 bound_to 6896
  151.4610  135.1042  159.9777 H   0  0  0  0  0  0  0  0  0  0  0  0  # atno 6909 bound_to 6896
  145.6000  139.2351  143.2251 H   0  0  0  0  0  0  0  0  0  0  0  0  # atno 7974 bound_to 7965
  154.6480  140.0583  156.9923 H   0  0  0  0  0  0  0  0  0  0  0  0  # atno 8008 bound_to 7997
  155.1415  140.3266  155.4432 H   0  0  0  0  0  0  0  0  0  0  0  0  # atno 8009 bound_to 7997
  156.2563  140.1963  156.6530 H   0  0  0  0  0  0  0  0  0  0  0  0  # atno 8010 bound_to 7997
  140.6691  143.2703  151.4195 H   0  0  0  0  0  0  0  0  0  0  0  0  # atno 10167 bound_to 10162
  156.1435  130.6483  150.9807 H   0  0  0  0  0  0  0  0  0  0  0  0  # atno 10718 bound_to 10713
  152.9785  135.5851  154.4389 H   0  0  0  0  0  0  0  0  0  0  0  0  # atno 10763 bound_to 10752
  154.3993  135.2768  155.2108 H   0  0  0  0  0  0  0  0  0  0  0  0  # atno 10764 bound_to 10752
  154.3946  135.6117  153.5917 H   0  0  0  0  0  0  0  0  0  0  0  0  # atno 10765 bound_to 10752
  140.4492  134.1242  155.7700 H   0  0  0  0  0  0  0  0  0  0  0  0  # atno 11005 bound_to 11000
  146.1583  140.6825  142.9289 LP  0  0  0  0  0  0  0  0  0  0  0  0  # atno 17320 bound_to 7965
  144.7314  140.4682  143.6935 LP  0  0  0  0  0  0  0  0  0  0  0  0  # atno 17321 bound_to 7965
  139.5952  144.1412  152.2135 LP  0  0  0  0  0  0  0  0  0  0  0  0  # atno 17342 bound_to 10162
  140.0779  144.5725  150.7143 LP  0  0  0  0  0  0  0  0  0  0  0  0  # atno 17343 bound_to 10162
  157.6597  131.0883  150.7867 LP  0  0  0  0  0  0  0  0  0  0  0  0  # atno 17370 bound_to 10713
  156.7941  130.4899  149.5380 LP  0  0  0  0  0  0  0  0  0  0  0  0  # atno 17371 bound_to 10713
  141.1672  133.8680  157.1680 LP  0  0  0  0  0  0  0  0  0  0  0  0  # atno 17394 bound_to 11000
  140.0018  135.0024  157.0207 LP  0  0  0  0  0  0  0  0  0  0  0  0  # atno 17395 bound_to 11000

$$$$
