AV-unprocessed.smi:2191|AV-procd|sdf|8892|dock1
  -GOLD-   2272012 93D 1   1.00000     0.00000
 Structure written by MMmdl.
 36 38  0  0  0  0  0  0  0  0  1 V2000
  148.3742  146.1743  160.9449 O   0  0  0  0  0  0  0  0  0  0  0  0
  149.0062  145.3901  159.9517 C   0  0  2  0  0  0  0  0  0  0  0  0
  148.2402  144.0642  159.8234 C   0  0  0  0  0  0  0  0  0  0  0  0
  147.6255  143.7670  161.0701 O   0  0  0  0  0  0  0  0  0  0  0  0
  146.2613  143.9311  161.1822 C   0  0  0  0  0  0  0  0  0  0  0  0
  145.5923  144.4928  160.0749 C   0  0  0  0  0  0  0  0  0  0  0  0
  144.1990  144.6951  160.1004 C   0  0  0  0  0  0  0  0  0  0  0  0
  143.4570  144.3358  161.2406 C   0  0  0  0  0  0  0  0  0  0  0  0
  144.1114  143.7757  162.3536 C   0  0  0  0  0  0  0  0  0  0  0  0
  145.5052  143.5726  162.3275 C   0  0  0  0  0  0  0  0  0  0  0  0
  150.4788  145.1661  160.3474 C   0  0  0  0  0  0  0  0  0  0  0  0
  151.0913  144.0644  159.6257 N   0  0  0  0  0  0  0  0  0  0  0  0
  150.8358  143.6851  158.3588 C   0  0  0  0  0  0  0  0  0  0  0  0
  151.5100  142.6402  157.8872 N   0  0  0  0  0  0  0  0  0  0  0  0
  152.2948  142.3002  158.9758 C   0  0  0  0  0  0  0  0  0  0  0  0
  153.2442  141.2651  159.1338 C   0  0  0  0  0  0  0  0  0  0  0  0
  153.9313  141.1063  160.3555 C   0  0  0  0  0  0  0  0  0  0  0  0
  153.6825  141.9791  161.4347 C   0  0  0  0  0  0  0  0  0  0  0  0
  152.7425  143.0189  161.3003 C   0  0  0  0  0  0  0  0  0  0  0  0
  152.0565  143.1723  160.0809 C   0  0  0  0  0  0  0  0  0  0  0  0
  148.8520  146.0724  161.7540 H   0  0  0  0  0  0  0  0  0  0  0  0
  148.9729  145.9268  159.0026 H   0  0  0  0  0  0  0  0  0  0  0  0
  147.4567  144.1703  159.0712 H   0  0  0  0  0  0  0  0  0  0  0  0
  148.9078  143.2632  159.4999 H   0  0  0  0  0  0  0  0  0  0  0  0
  146.1544  144.7714  159.1955 H   0  0  0  0  0  0  0  0  0  0  0  0
  143.7002  145.1259  159.2451 H   0  0  0  0  0  0  0  0  0  0  0  0
  142.3882  144.4896  161.2618 H   0  0  0  0  0  0  0  0  0  0  0  0
  143.5432  143.5005  163.2298 H   0  0  0  0  0  0  0  0  0  0  0  0
  145.9703  143.1395  163.1999 H   0  0  0  0  0  0  0  0  0  0  0  0
  151.0629  146.0698  160.1693 H   0  0  0  0  0  0  0  0  0  0  0  0
  150.5536  144.9540  161.4149 H   0  0  0  0  0  0  0  0  0  0  0  0
  150.1137  144.2070  157.7480 H   0  0  0  0  0  0  0  0  0  0  0  0
  153.4432  140.5911  158.3138 H   0  0  0  0  0  0  0  0  0  0  0  0
  154.6534  140.3104  160.4646 H   0  0  0  0  0  0  0  0  0  0  0  0
  154.2145  141.8507  162.3661 H   0  0  0  0  0  0  0  0  0  0  0  0
  152.5519  143.6911  162.1235 H   0  0  0  0  0  0  0  0  0  0  0  0
  1  2  1  0  0  0  0
  1 21  1  0  0  0  0
  2  3  1  0  0  0  0
  2 11  1  0  0  0  0
  2 22  1  0  0  0  0
  3  4  1  0  0  0  0
  3 23  1  0  0  0  0
  3 24  1  0  0  0  0
  4  5  1  0  0  0  0
  5 10  1  0  0  0  0
  5  6  2  0  0  0  0
  6  7  1  0  0  0  0
  6 25  1  0  0  0  0
  7  8  2  0  0  0  0
  7 26  1  0  0  0  0
  8  9  1  0  0  0  0
  8 27  1  0  0  0  0
  9 10  2  0  0  0  0
  9 28  1  0  0  0  0
 10 29  1  0  0  0  0
 11 12  1  0  0  0  0
 11 30  1  0  0  0  0
 11 31  1  0  0  0  0
 12 20  1  0  0  0  0
 12 13  1  0  0  0  0
 13 14  2  0  0  0  0
 13 32  1  0  0  0  0
 14 15  1  0  0  0  0
 15 20  2  0  0  0  0
 15 16  1  0  0  0  0
 16 17  2  0  0  0  0
 16 33  1  0  0  0  0
 17 18  1  0  0  0  0
 17 34  1  0  0  0  0
 18 19  2  0  0  0  0
 18 35  1  0  0  0  0
 19 20  1  0  0  0  0
 19 36  1  0  0  0  0
M  END
> <s_m_source_file>
AV-unprocessed.smi

> <i_m_source_file_index>
2191

> <i_lp_mmshare_version>
43012

> <i_f3d_flags>
0

> <s_epik_input>
W2NIXTFbY0hdW2NIXVtjSF1jKGMxMiluKFtjSF1uMilbQ0gyXVtDQEhdKFtPSF0pW0NIMl1PYzNbY0hdW2NIXVtjSF1bY0hdW2NIXTM=

> <s_epik_cmdline>
J2VwaWtfcHl0aG9uJywgJy1waCcsICc3LjAnLCAnLXRuJywgJzgnLCAnLW1hJywgJzIwMCcsICctbWV0YWxfYmluZGluZycsICctaW1hZScsICc8aW5maWxlLm1hZT4nLCAnLW9tYWUnLCAnPG91dGZpbGUubWFlPic=

> <r_lp_tautomer_probability>
1

> <r_epik_Ionization_Penalty>
0.0640132

> <r_epik_Ionization_Penalty_Charging>
0

> <r_epik_Ionization_Penalty_Neutral>
0.0640132

> <r_epik_State_Penalty>
0.0557325

> <r_epik_Charging_Adjusted_Penalty>
0.0557325

> <i_epik_Tot_Q>
0

> <i_epik_Tot_abs_Q>
0

> <r_epik_Metal_State_Penalty>
5.8435e-05

> <b_epik_Metal_Only>
0

> <s_lp_Force_Field>
OPLS_2005

> <r_lp_Energy>
16.2786

> <b_lp_Chiralities_Consistent>
1

> <s_lp_Variant>
AV-unprocessed.smi:2191-1

> <Gold.Version>
5.8.1

> <Gold.Id.Protein>
6NUR|6NUR_protein|mol2

> <Gold.PLP.Fitness>
45.3662

> <Gold.PLP.PLP>
-43.6443

> <Gold.PLP.part.hbond>
-3.6054

> <Gold.PLP.part.metal>
0.0000

> <Gold.PLP.part.buried>
-2.2077

> <Gold.PLP.part.nonpolar>
-37.6367

> <Gold.PLP.part.repulsive>
0.1497

> <Gold.PLP.ligand.clash>
2.0105

> <Gold.PLP.ligand.torsion>
1.2799

> <Gold.PLP.Chemscore.Hbond>
1.0000

> <Gold.PLP.Chemscore.CHOScore>
1.0525

> <Gold.PLP.Chemscore.Metal>
0.0000

> <Gold.Chemscore.Hbonds>
donor molecule, donor type, donor heavy atom, donor atom, acceptor molecule, acceptor atom, score
      P1  H  6933  6944       L1     4  0.95
      L1  C    13    32       P1  8028  1.00
      L1  C    13    32       P1  8029  0.05

> <Gold.PLP.Chemscore.Internal.Correction>
0.1346

> <Gold.Rescore>
     Score         DG    S(hbond)    S(metal)    S(lipo)     H(rot)  DE(clash)    DE(int)     intcor
     12.24     -16.15       0.84        0.00     115.79       2.22       2.88       1.02       ----

> <Gold.Chemscore.Fitness>
12.2436

> <Gold.Chemscore.DG>
-16.1465

> <Gold.Chemscore.ZeroCoef>
-5.4800

> <Gold.Chemscore.Hbond>
0.8391

> <Gold.Chemscore.Metal>
0.0000

> <Gold.Chemscore.Lipo>
115.7872

> <Gold.Chemscore.Internal_Hbond>
0.0000

> <Gold.Chemscore.DEClash>
2.8834

> <Gold.Chemscore.DEInternal>
1.0195

> <Gold.Chemscore.Rot>
2.2200

> <Gold.Chemscore.Internal.Correction>
   9.000000E+99

> <Gold.Chemscore.Hbonds>
donor molecule, donor type, donor heavy atom, donor atom, acceptor molecule, acceptor atom, score
      P1  H  6933  6944       L1     4  0.22

> <Gold.Chemscore.Hbond.Weighted>
-2.8026

> <Gold.Chemscore.Metal.Weighted>
-0.0000

> <Gold.Chemscore.Lipo.Weighted>
-13.5471

> <Gold.Chemscore.Internal_Hbond.Weighted>
0.0000

> <Gold.Chemscore.DEClash.Weighted>
2.8834

> <Gold.Chemscore.DEInternal.Weighted>
1.0195

> <Gold.Chemscore.Rot.Weighted>
5.6832

> <Gold.Chemscore.Internal.Correction.Weighted>
   9.000000E+99

> <Gold.Protein.RotatedTorsions>
[ 6907 6896 6895 6894 ] final -123.72 input  -60.11 | X-H torsion
[ 7974 7965 7964 7962 ] final  -30.99 input  175.53 | X-H torsion
[ 8008 7997 7996 7995 ] final  -87.36 input   59.86 | X-H torsion
[ 10167 10162 10161 10158 ] final -132.79 input  -65.29 | X-H torsion
[ 10718 10713 10712 10709 ] final  -63.88 input   66.30 | X-H torsion
[ 10763 10752 10751 10750 ] final -119.44 input  -60.55 | X-H torsion
[ 11005 11000 10999 10996 ] final -164.93 input  -57.11 | X-H torsion

> <Gold.Protein.ActiveResidues>
 VAL166  LYS551  ARG553  GLY616  TRP617  ASP618  TYR619  PRO620  LYS621  CYS622 
 ASP623  PHE694  ASN695  SER759  ASP760  ASP761  ALA762  ILE779  LEU786  VAL792 
 PHE793  MET794  SER795  GLU796  ALA797  LYS798  CYS799  TRP800  GLU811  SER814 

> <Gold.Protein.RotatedAtoms>
  150.8698  133.7521  159.2964 H   0  0  0  0  0  0  0  0  0  0  0  0  # atno 6907 bound_to 6896
  151.5137  135.1064  159.9870 H   0  0  0  0  0  0  0  0  0  0  0  0  # atno 6908 bound_to 6896
  152.4687  133.7936  159.6971 H   0  0  0  0  0  0  0  0  0  0  0  0  # atno 6909 bound_to 6896
  146.1101  140.5610  142.8782 H   0  0  0  0  0  0  0  0  0  0  0  0  # atno 7974 bound_to 7965
  154.6624  140.0567  157.0076 H   0  0  0  0  0  0  0  0  0  0  0  0  # atno 8008 bound_to 7997
  155.1209  140.3247  155.4479 H   0  0  0  0  0  0  0  0  0  0  0  0  # atno 8009 bound_to 7997
  156.2623  140.1997  156.6331 H   0  0  0  0  0  0  0  0  0  0  0  0  # atno 8010 bound_to 7997
  139.9050  143.6562  152.2587 H   0  0  0  0  0  0  0  0  0  0  0  0  # atno 10167 bound_to 10162
  156.0763  130.4226  150.1341 H   0  0  0  0  0  0  0  0  0  0  0  0  # atno 10718 bound_to 10713
  154.8617  135.4238  154.2299 H   0  0  0  0  0  0  0  0  0  0  0  0  # atno 10763 bound_to 10752
  153.3286  135.6987  153.6973 H   0  0  0  0  0  0  0  0  0  0  0  0  # atno 10764 bound_to 10752
  153.5999  135.3539  155.2915 H   0  0  0  0  0  0  0  0  0  0  0  0  # atno 10765 bound_to 10752
  140.5814  134.5137  157.5179 H   0  0  0  0  0  0  0  0  0  0  0  0  # atno 11005 bound_to 11000
  144.7504  140.5177  143.6806 LP  0  0  0  0  0  0  0  0  0  0  0  0  # atno 17320 bound_to 7965
  145.5680  139.1482  143.3304 LP  0  0  0  0  0  0  0  0  0  0  0  0  # atno 17321 bound_to 7965
  139.6992  144.7637  151.1302 LP  0  0  0  0  0  0  0  0  0  0  0  0  # atno 17342 bound_to 10162
  140.7698  143.5481  150.9236 LP  0  0  0  0  0  0  0  0  0  0  0  0  # atno 17343 bound_to 10162
  156.9382  130.9736  151.3521 LP  0  0  0  0  0  0  0  0  0  0  0  0  # atno 17370 bound_to 10713
  157.5860  130.8410  149.8590 LP  0  0  0  0  0  0  0  0  0  0  0  0  # atno 17371 bound_to 10713
  139.9315  134.7954  156.0917 LP  0  0  0  0  0  0  0  0  0  0  0  0  # atno 17394 bound_to 11000
  141.0993  133.6683  156.2718 LP  0  0  0  0  0  0  0  0  0  0  0  0  # atno 17395 bound_to 11000

$$$$
