AV-unprocessed.smi:2687|AV-procd|sdf|10385|dock6
  -GOLD-   2272014413D 1   1.00000     0.00000
 Structure written by MMmdl.
 38 39  0  0  0  0  0  0  0  0  1 V2000
  149.9374  136.1413  158.4075 O   0  0  0  0  0  0  0  0  0  0  0  0
  149.1565  137.0813  158.2639 C   0  0  0  0  0  0  0  0  0  0  0  0
  147.8493  137.0951  159.0536 C   0  0  0  0  0  0  0  0  0  0  0  0
  148.1600  137.2274  160.4307 O   0  0  0  0  0  0  0  0  0  0  0  0
  148.1413  135.9883  161.1213 C   0  0  0  0  0  0  0  0  0  0  0  0
  147.1815  136.0807  162.3139 C   0  0  0  0  0  0  0  0  0  0  0  0
  146.0232  136.5984  161.9067 F   0  0  0  0  0  0  0  0  0  0  0  0
  146.9536  134.8684  162.8184 F   0  0  0  0  0  0  0  0  0  0  0  0
  147.6942  136.8695  163.2580 F   0  0  0  0  0  0  0  0  0  0  0  0
  149.3553  138.1201  157.4328 N   0  0  0  0  0  0  0  0  0  0  0  0
  150.4758  138.3738  156.5917 C   0  0  0  0  0  0  0  0  0  0  0  0
  151.7450  137.7853  156.8104 C   0  0  0  0  0  0  0  0  0  0  0  0
  152.8091  138.1099  155.9494 C   0  0  0  0  0  0  0  0  0  0  0  0
  152.5701  139.0201  154.9040 C   0  0  0  0  0  0  0  0  0  0  0  0
  151.3718  139.6010  154.6908 N   0  0  0  0  0  0  0  0  0  0  0  0
  150.3439  139.2907  155.5176 C   0  0  0  0  0  0  0  0  0  0  0  0
  149.1076  139.9104  155.2697 N   0  0  0  0  0  0  0  0  0  0  0  0
  149.1997  141.0714  154.3940 C   0  0  0  0  0  0  0  0  0  0  0  0
  147.8281  141.7608  154.2912 C   0  0  0  0  0  0  0  0  0  0  0  0
  146.8514  140.8211  153.8508 O   0  0  0  0  0  0  0  0  0  0  0  0
  146.7167  139.7253  154.7517 C   0  0  0  0  0  0  0  0  0  0  0  0
  148.0590  138.9829  154.8637 C   0  0  0  0  0  0  0  0  0  0  0  0
  147.2097  137.9170  158.7261 H   0  0  0  0  0  0  0  0  0  0  0  0
  147.3129  136.1629  158.8697 H   0  0  0  0  0  0  0  0  0  0  0  0
  147.8240  135.1897  160.4489 H   0  0  0  0  0  0  0  0  0  0  0  0
  149.1448  135.7419  161.4716 H   0  0  0  0  0  0  0  0  0  0  0  0
  148.5850  138.7657  157.3349 H   0  0  0  0  0  0  0  0  0  0  0  0
  151.9236  137.1062  157.6299 H   0  0  0  0  0  0  0  0  0  0  0  0
  153.7874  137.6759  156.0914 H   0  0  0  0  0  0  0  0  0  0  0  0
  153.3635  139.2939  154.2246 H   0  0  0  0  0  0  0  0  0  0  0  0
  149.9426  141.7688  154.7827 H   0  0  0  0  0  0  0  0  0  0  0  0
  149.5331  140.7616  153.4027 H   0  0  0  0  0  0  0  0  0  0  0  0
  147.5324  142.1844  155.2524 H   0  0  0  0  0  0  0  0  0  0  0  0
  147.8742  142.5854  153.5798 H   0  0  0  0  0  0  0  0  0  0  0  0
  146.3862  140.0816  155.7287 H   0  0  0  0  0  0  0  0  0  0  0  0
  145.9448  139.0515  154.3798 H   0  0  0  0  0  0  0  0  0  0  0  0
  148.3134  138.5339  153.9027 H   0  0  0  0  0  0  0  0  0  0  0  0
  147.9816  138.1726  155.5896 H   0  0  0  0  0  0  0  0  0  0  0  0
  1  2  2  0  0  0  0
  2  3  1  0  0  0  0
  2 10  1  0  0  0  0
  3  4  1  0  0  0  0
  3 23  1  0  0  0  0
  3 24  1  0  0  0  0
  4  5  1  0  0  0  0
  5  6  1  0  0  0  0
  5 25  1  0  0  0  0
  5 26  1  0  0  0  0
  6  7  1  0  0  0  0
  6  8  1  0  0  0  0
  6  9  1  0  0  0  0
 10 11  1  0  0  0  0
 10 27  1  0  0  0  0
 11 16  1  0  0  0  0
 11 12  2  0  0  0  0
 12 13  1  0  0  0  0
 12 28  1  0  0  0  0
 13 14  2  0  0  0  0
 13 29  1  0  0  0  0
 14 15  1  0  0  0  0
 14 30  1  0  0  0  0
 15 16  2  0  0  0  0
 16 17  1  0  0  0  0
 17 22  1  0  0  0  0
 17 18  1  0  0  0  0
 18 19  1  0  0  0  0
 18 31  1  0  0  0  0
 18 32  1  0  0  0  0
 19 20  1  0  0  0  0
 19 33  1  0  0  0  0
 19 34  1  0  0  0  0
 20 21  1  0  0  0  0
 21 22  1  0  0  0  0
 21 35  1  0  0  0  0
 21 36  1  0  0  0  0
 22 37  1  0  0  0  0
 22 38  1  0  0  0  0
M  END
> <s_m_source_file>
AV-unprocessed.smi

> <i_m_source_file_index>
2687

> <i_lp_mmshare_version>
43012

> <i_f3d_flags>
0

> <s_epik_input>
RkMoRikoRilbQ0gyXU9bQ0gyXUMoPU8pW05IXWMxW2NIXVtjSF1bY0hdbmMxTjJbQ0gyXVtDSDJdT1tDSDJdW0NIMl0y

> <s_epik_cmdline>
J2VwaWtfcHl0aG9uJywgJy1waCcsICc3LjAnLCAnLXRuJywgJzgnLCAnLW1hJywgJzIwMCcsICctbWV0YWxfYmluZGluZycsICctaW1hZScsICc8aW5maWxlLm1hZT4nLCAnLW9tYWUnLCAnPG91dGZpbGUubWFlPic=

> <r_lp_tautomer_probability>
1

> <r_epik_Ionization_Penalty>
0.00040187

> <r_epik_Ionization_Penalty_Charging>
0

> <r_epik_Ionization_Penalty_Neutral>
0.00040187

> <r_epik_State_Penalty>
0.000245652

> <r_epik_Charging_Adjusted_Penalty>
0.000245652

> <i_epik_Tot_Q>
0

> <i_epik_Tot_abs_Q>
0

> <r_epik_Metal_State_Penalty>
-0

> <b_epik_Metal_Only>
0

> <s_lp_Force_Field>
OPLS_2005

> <r_lp_Energy>
25.827

> <b_lp_Chiralities_Consistent>
1

> <s_lp_Variant>
AV-unprocessed.smi:2687-1

> <Gold.Version>
5.8.1

> <Gold.Id.Protein>
6NUR|6NUR_protein|mol2

> <Gold.PLP.Fitness>
45.6547

> <Gold.PLP.PLP>
-38.1358

> <Gold.PLP.part.hbond>
-4.0000

> <Gold.PLP.part.metal>
0.0000

> <Gold.PLP.part.buried>
-4.9678

> <Gold.PLP.part.nonpolar>
-29.9660

> <Gold.PLP.part.repulsive>
0.3200

> <Gold.PLP.ligand.clash>
0.0000

> <Gold.PLP.ligand.torsion>
1.0846

> <Gold.PLP.Chemscore.Hbond>
3.1598

> <Gold.PLP.Chemscore.CHOScore>
0.0000

> <Gold.PLP.Chemscore.Metal>
0.0000

> <Gold.Chemscore.Hbonds>
donor molecule, donor type, donor heavy atom, donor atom, acceptor molecule, acceptor atom, score
      P1  H  6896  6908       L1     1  0.99
      P1  H  6931  6943       L1     4  0.58
      P1  H  6934  6947       L1     4  0.57
      P1  H  7989  7998       L1    15  1.00

> <Gold.PLP.Chemscore.Internal.Correction>
0.2087

> <Gold.Rescore>
     Score         DG    S(hbond)    S(metal)    S(lipo)     H(rot)  DE(clash)    DE(int)     intcor
     13.08     -16.47       2.60        0.00      63.64       2.01       0.08       3.30       ----

> <Gold.Chemscore.Fitness>
13.0833

> <Gold.Chemscore.DG>
-16.4662

> <Gold.Chemscore.ZeroCoef>
-5.4800

> <Gold.Chemscore.Hbond>
2.6041

> <Gold.Chemscore.Metal>
0.0000

> <Gold.Chemscore.Lipo>
63.6364

> <Gold.Chemscore.Internal_Hbond>
0.0000

> <Gold.Chemscore.DEClash>
0.0818

> <Gold.Chemscore.DEInternal>
3.3011

> <Gold.Chemscore.Rot>
2.0144

> <Gold.Chemscore.Internal.Correction>
   9.000000E+99

> <Gold.Chemscore.Hbonds>
donor molecule, donor type, donor heavy atom, donor atom, acceptor molecule, acceptor atom, score
      P1  H  6896  6908       L1     1  0.89
      P1  H  6931  6943       L1     4  0.08
      P1  H  6934  6947       L1     4  0.19
      P1  H  7989  7998       L1    15  0.55

> <Gold.Chemscore.Hbond.Weighted>
-8.6975

> <Gold.Chemscore.Metal.Weighted>
-0.0000

> <Gold.Chemscore.Lipo.Weighted>
-7.4455

> <Gold.Chemscore.Internal_Hbond.Weighted>
0.0000

> <Gold.Chemscore.DEClash.Weighted>
0.0818

> <Gold.Chemscore.DEInternal.Weighted>
3.3011

> <Gold.Chemscore.Rot.Weighted>
5.1568

> <Gold.Chemscore.Internal.Correction.Weighted>
   9.000000E+99

> <Gold.Protein.RotatedTorsions>
[ 6907 6896 6895 6894 ] final  176.03 input  -60.11 | X-H torsion
[ 7974 7965 7964 7962 ] final  140.57 input  175.53 | X-H torsion
[ 8008 7997 7996 7995 ] final   12.81 input   59.86 | X-H torsion
[ 10167 10162 10161 10158 ] final  164.14 input  -65.29 | X-H torsion
[ 10718 10713 10712 10709 ] final   -6.89 input   66.30 | X-H torsion
[ 10763 10752 10751 10750 ] final  -41.04 input  -60.55 | X-H torsion
[ 11005 11000 10999 10996 ] final  104.54 input  -57.11 | X-H torsion

> <Gold.Protein.ActiveResidues>
 VAL166  LYS551  ARG553  GLY616  TRP617  ASP618  TYR619  PRO620  LYS621  CYS622 
 ASP623  PHE694  ASN695  SER759  ASP760  ASP761  ALA762  ILE779  LEU786  VAL792 
 PHE793  MET794  SER795  GLU796  ALA797  LYS798  CYS799  TRP800  GLU811  SER814 

> <Gold.Protein.RotatedAtoms>
  151.7268  133.3316  159.3329 H   0  0  0  0  0  0  0  0  0  0  0  0  # atno 6907 bound_to 6896
  150.7629  134.6399  159.6241 H   0  0  0  0  0  0  0  0  0  0  0  0  # atno 6908 bound_to 6896
  152.3617  134.6864  160.0256 H   0  0  0  0  0  0  0  0  0  0  0  0  # atno 6909 bound_to 6896
  144.9175  139.5211  143.5679 H   0  0  0  0  0  0  0  0  0  0  0  0  # atno 7974 bound_to 7965
  154.8258  140.2891  155.5756 H   0  0  0  0  0  0  0  0  0  0  0  0  # atno 8008 bound_to 7997
  156.3001  140.2541  156.3104 H   0  0  0  0  0  0  0  0  0  0  0  0  # atno 8009 bound_to 7997
  154.9287  140.0384  157.2026 H   0  0  0  0  0  0  0  0  0  0  0  0  # atno 8010 bound_to 7997
  139.4884  144.4266  151.9122 H   0  0  0  0  0  0  0  0  0  0  0  0  # atno 10167 bound_to 10162
  156.7252  130.5163  149.5858 H   0  0  0  0  0  0  0  0  0  0  0  0  # atno 10718 bound_to 10713
  153.9558  135.6745  153.4744 H   0  0  0  0  0  0  0  0  0  0  0  0  # atno 10763 bound_to 10752
  153.0862  135.4898  154.8598 H   0  0  0  0  0  0  0  0  0  0  0  0  # atno 10764 bound_to 10752
  154.7300  135.3136  154.8867 H   0  0  0  0  0  0  0  0  0  0  0  0  # atno 10765 bound_to 10752
  139.8793  134.9304  156.5377 H   0  0  0  0  0  0  0  0  0  0  0  0  # atno 11005 bound_to 11000
  146.3189  139.8028  142.8962 LP  0  0  0  0  0  0  0  0  0  0  0  0  # atno 17320 bound_to 7965
  145.3352  141.0275  143.3424 LP  0  0  0  0  0  0  0  0  0  0  0  0  # atno 17321 bound_to 7965
  140.3712  144.2853  150.5920 LP  0  0  0  0  0  0  0  0  0  0  0  0  # atno 17342 bound_to 10162
  140.5317  143.2242  151.8227 LP  0  0  0  0  0  0  0  0  0  0  0  0  # atno 17343 bound_to 10162
  156.1567  130.6346  151.0666 LP  0  0  0  0  0  0  0  0  0  0  0  0  # atno 17370 bound_to 10713
  157.6881  131.0818  150.7184 LP  0  0  0  0  0  0  0  0  0  0  0  0  # atno 17371 bound_to 10713
  140.8333  133.8262  155.9005 LP  0  0  0  0  0  0  0  0  0  0  0  0  # atno 17394 bound_to 11000
  140.9307  134.2025  157.4865 LP  0  0  0  0  0  0  0  0  0  0  0  0  # atno 17395 bound_to 11000

$$$$
