AV-unprocessed.smi:1815|AV-procd|sdf|7355|dock6
  -GOLD-   22720 9 13D 1   1.00000     0.00000
 Structure written by MMmdl.
 40 41  0  0  0  0  0  0  0  0  2 V2000
  152.1921  138.1170  154.4111 C   0  0  0  0  0  0  0  0  0  0  0  0
  150.9667  138.8651  154.9474 C   0  0  2  0  0  0  0  0  0  0  0  0
  149.8282  138.9315  153.9123 C   0  0  0  0  0  0  0  0  0  0  0  0
  148.6914  139.7251  154.4365 N   0  3  2  0  0  0  0  0  0  0  0  0
  147.5466  139.7605  153.4925 C   0  0  0  0  0  0  0  0  0  0  0  0
  146.5331  138.6290  153.7518 C   0  0  0  0  0  0  0  0  0  0  0  0
  146.8187  137.4556  152.9339 N   0  0  0  0  0  0  0  0  0  0  0  0
  145.8930  136.6026  152.4717 C   0  0  0  0  0  0  0  0  0  0  0  0
  144.6892  136.7235  152.7017 O   0  0  0  0  0  0  0  0  0  0  0  0
  146.4520  135.6208  151.7431 N   0  0  0  0  0  0  0  0  0  0  0  0
  145.8085  134.5297  151.1020 C   0  0  0  0  0  0  0  0  0  0  0  0
  144.4908  134.4540  150.8817 N   0  0  0  0  0  0  0  0  0  0  0  0
  144.1348  133.2681  150.2342 C   0  0  0  0  0  0  0  0  0  0  0  0
  145.2017  132.4464  149.9682 C   0  0  0  0  0  0  0  0  0  0  0  0
  146.7049  133.1337  150.5218 S   0  0  0  0  0  0  0  0  0  0  0  0
  149.1543  141.0684  154.8638 C   0  0  0  0  0  0  0  0  0  0  0  0
  150.3124  140.9447  155.8723 C   0  0  2  0  0  0  0  0  0  0  0  0
  150.8737  142.3118  156.2783 C   0  0  0  0  0  0  0  0  0  0  0  0
  151.3653  140.1896  155.2830 O   0  0  0  0  0  0  0  0  0  0  0  0
  151.9417  137.0880  154.1519 H   0  0  0  0  0  0  0  0  0  0  0  0
  152.9871  138.0868  155.1566 H   0  0  0  0  0  0  0  0  0  0  0  0
  152.5909  138.5998  153.5183 H   0  0  0  0  0  0  0  0  0  0  0  0
  150.6171  138.3560  155.8474 H   0  0  0  0  0  0  0  0  0  0  0  0
  150.1861  139.3795  152.9835 H   0  0  0  0  0  0  0  0  0  0  0  0
  149.4927  137.9216  153.6729 H   0  0  0  0  0  0  0  0  0  0  0  0
  147.0587  140.7354  153.5369 H   0  0  0  0  0  0  0  0  0  0  0  0
  147.9313  139.6551  152.4770 H   0  0  0  0  0  0  0  0  0  0  0  0
  146.5281  138.3537  154.8080 H   0  0  0  0  0  0  0  0  0  0  0  0
  145.5213  138.9517  153.5095 H   0  0  0  0  0  0  0  0  0  0  0  0
  147.7858  137.2855  152.6983 H   0  0  0  0  0  0  0  0  0  0  0  0
  147.4550  135.6543  151.6359 H   0  0  0  0  0  0  0  0  0  0  0  0
  143.0958  133.0895  149.9999 H   0  0  0  0  0  0  0  0  0  0  0  0
  145.1940  131.4824  149.4816 H   0  0  0  0  0  0  0  0  0  0  0  0
  149.4752  141.6378  153.9897 H   0  0  0  0  0  0  0  0  0  0  0  0
  148.3370  141.6225  155.3241 H   0  0  0  0  0  0  0  0  0  0  0  0
  149.9638  140.4332  156.7714 H   0  0  0  0  0  0  0  0  0  0  0  0
  150.1052  142.9295  156.7438 H   0  0  0  0  0  0  0  0  0  0  0  0
  151.2603  142.8530  155.4142 H   0  0  0  0  0  0  0  0  0  0  0  0
  151.6889  142.2013  156.9937 H   0  0  0  0  0  0  0  0  0  0  0  0
  148.3686  139.2440  155.2640 H   0  0  0  0  0  0  0  0  0  0  0  0
  1  2  1  0  0  0  0
  1 20  1  0  0  0  0
  1 21  1  0  0  0  0
  1 22  1  0  0  0  0
  2 19  1  0  0  0  0
  2  3  1  0  0  0  0
  2 23  1  0  0  0  0
  3  4  1  0  0  0  0
  3 24  1  0  0  0  0
  3 25  1  0  0  0  0
  4  5  1  0  0  0  0
  4 16  1  0  0  0  0
  4 40  1  0  0  0  0
  5  6  1  0  0  0  0
  5 26  1  0  0  0  0
  5 27  1  0  0  0  0
  6  7  1  0  0  0  0
  6 28  1  0  0  0  0
  6 29  1  0  0  0  0
  7  8  1  0  0  0  0
  7 30  1  0  0  0  0
  8  9  2  0  0  0  0
  8 10  1  0  0  0  0
 10 11  1  0  0  0  0
 10 31  1  0  0  0  0
 11 15  1  0  0  0  0
 11 12  2  0  0  0  0
 12 13  1  0  0  0  0
 13 14  2  0  0  0  0
 13 32  1  0  0  0  0
 14 15  1  0  0  0  0
 14 33  1  0  0  0  0
 16 17  1  0  0  0  0
 16 34  1  0  0  0  0
 16 35  1  0  0  0  0
 17 18  1  0  0  0  0
 17 19  1  0  0  0  0
 17 36  1  0  0  0  0
 18 37  1  0  0  0  0
 18 38  1  0  0  0  0
 18 39  1  0  0  0  0
M  CHG  1   4   1
M  END
> <s_m_source_file>
AV-unprocessed.smi

> <i_m_source_file_index>
1815

> <i_lp_mmshare_version>
43012

> <i_f3d_flags>
0

> <s_epik_input>
W0NIM11bQ0BASF0xW0NIMl1OKFtDSDJdW0NASF0oTzEpW0NIM10pW0NIMl1bQ0gyXVtOSF1DKD1PKVtOSF1jMm5bY0hdW2NIXXMy

> <s_epik_cmdline>
J2VwaWtfcHl0aG9uJywgJy1waCcsICc3LjAnLCAnLXRuJywgJzgnLCAnLW1hJywgJzIwMCcsICctbWV0YWxfYmluZGluZycsICctaW1hZScsICc8aW5maWxlLm1hZT4nLCAnLW9tYWUnLCAnPG91dGZpbGUubWFlPic=

> <r_lp_tautomer_probability>
0.999

> <r_epik_Ionization_Penalty>
0.695838

> <r_epik_Ionization_Penalty_Charging>
0.695697

> <r_epik_Ionization_Penalty_Neutral>
0.000141198

> <r_epik_State_Penalty>
0.717972

> <r_epik_Charging_Adjusted_Penalty>
1.41367

> <i_epik_Tot_Q>
1

> <i_epik_Tot_abs_Q>
1

> <r_epik_Metal_State_Penalty>
0.756405

> <b_epik_Metal_Only>
0

> <s_lp_Force_Field>
OPLS_2005

> <r_lp_Energy>
12.0644

> <b_lp_Chiralities_Consistent>
1

> <s_lp_Variant>
AV-unprocessed.smi:1815-6

> <Gold.Version>
5.8.1

> <Gold.Id.Protein>
6NUR|6NUR_protein|mol2

> <Gold.PLP.Fitness>
43.7846

> <Gold.PLP.PLP>
-33.7173

> <Gold.PLP.part.hbond>
-3.0000

> <Gold.PLP.part.metal>
0.0000

> <Gold.PLP.part.buried>
-2.9141

> <Gold.PLP.part.nonpolar>
-27.6600

> <Gold.PLP.part.repulsive>
0.5449

> <Gold.PLP.ligand.clash>
0.0000

> <Gold.PLP.ligand.torsion>
0.9206

> <Gold.PLP.Chemscore.Hbond>
2.9600

> <Gold.PLP.Chemscore.CHOScore>
1.0000

> <Gold.PLP.Chemscore.Metal>
0.0000

> <Gold.Chemscore.Hbonds>
donor molecule, donor type, donor heavy atom, donor atom, acceptor molecule, acceptor atom, score
      L1  H     7    30       P1  7948  0.94
      L1  H    10    31       P1  7948  1.00
      P1  H  7989  7998       L1    19  0.95
      L1  C    13    32       P1 10186  1.00

> <Gold.PLP.Chemscore.Internal.Correction>
0.0285

> <Gold.Rescore>
     Score         DG    S(hbond)    S(metal)    S(lipo)     H(rot)  DE(clash)    DE(int)     intcor
     16.24     -18.59       2.28        0.00      82.74       1.64       0.22       2.14       ----

> <Gold.Chemscore.Fitness>
16.2363

> <Gold.Chemscore.DG>
-18.5933

> <Gold.Chemscore.ZeroCoef>
-5.4800

> <Gold.Chemscore.Hbond>
2.2836

> <Gold.Chemscore.Metal>
0.0000

> <Gold.Chemscore.Lipo>
82.7408

> <Gold.Chemscore.Internal_Hbond>
0.0000

> <Gold.Chemscore.DEClash>
0.2162

> <Gold.Chemscore.DEInternal>
2.1409

> <Gold.Chemscore.Rot>
1.6385

> <Gold.Chemscore.Internal.Correction>
   9.000000E+99

> <Gold.Chemscore.Hbonds>
donor molecule, donor type, donor heavy atom, donor atom, acceptor molecule, acceptor atom, score
      L1  H     7    30       P1  7948  0.91
      L1  H    10    31       P1  7948  0.96
      P1  H  7989  7998       L1    19  0.13

> <Gold.Chemscore.Hbond.Weighted>
-7.6271

> <Gold.Chemscore.Metal.Weighted>
-0.0000

> <Gold.Chemscore.Lipo.Weighted>
-9.6807

> <Gold.Chemscore.Internal_Hbond.Weighted>
0.0000

> <Gold.Chemscore.DEClash.Weighted>
0.2162

> <Gold.Chemscore.DEInternal.Weighted>
2.1409

> <Gold.Chemscore.Rot.Weighted>
4.1945

> <Gold.Chemscore.Internal.Correction.Weighted>
   9.000000E+99

> <Gold.Protein.RotatedTorsions>
[ 6907 6896 6895 6894 ] final  -53.52 input  -60.11 | X-H torsion
[ 7974 7965 7964 7962 ] final -179.12 input  175.53 | X-H torsion
[ 8008 7997 7996 7995 ] final  166.34 input   59.86 | X-H torsion
[ 10167 10162 10161 10158 ] final -115.13 input  -65.29 | X-H torsion
[ 10718 10713 10712 10709 ] final   69.21 input   66.30 | X-H torsion
[ 10763 10752 10751 10750 ] final  -86.10 input  -60.55 | X-H torsion
[ 11005 11000 10999 10996 ] final  -77.00 input  -57.11 | X-H torsion

> <Gold.Protein.ActiveResidues>
 VAL166  LYS551  ARG553  GLY616  TRP617  ASP618  TYR619  PRO620  LYS621  CYS622 
 ASP623  PHE694  ASN695  SER759  ASP760  ASP761  ALA762  ILE779  LEU786  VAL792 
 PHE793  MET794  SER795  GLU796  ALA797  LYS798  CYS799  TRP800  GLU811  SER814 

> <Gold.Protein.RotatedAtoms>
  150.8419  134.7714  159.6938 H   0  0  0  0  0  0  0  0  0  0  0  0  # atno 6907 bound_to 6896
  152.4504  134.5401  159.9846 H   0  0  0  0  0  0  0  0  0  0  0  0  # atno 6908 bound_to 6896
  151.5540  133.3375  159.2994 H   0  0  0  0  0  0  0  0  0  0  0  0  # atno 6909 bound_to 6896
  144.7134  140.0765  143.6427 H   0  0  0  0  0  0  0  0  0  0  0  0  # atno 7974 bound_to 7965
  156.1726  140.1646  156.8420 H   0  0  0  0  0  0  0  0  0  0  0  0  # atno 8008 bound_to 7997
  154.5273  140.0764  156.8315 H   0  0  0  0  0  0  0  0  0  0  0  0  # atno 8009 bound_to 7997
  155.3480  140.3388  155.4241 H   0  0  0  0  0  0  0  0  0  0  0  0  # atno 8010 bound_to 7997
  140.0934  143.4678  152.1856 H   0  0  0  0  0  0  0  0  0  0  0  0  # atno 10167 bound_to 10162
  157.6333  130.9414  150.0482 H   0  0  0  0  0  0  0  0  0  0  0  0  # atno 10718 bound_to 10713
  154.6186  135.5461  153.7551 H   0  0  0  0  0  0  0  0  0  0  0  0  # atno 10763 bound_to 10752
  153.0228  135.6407  154.1473 H   0  0  0  0  0  0  0  0  0  0  0  0  # atno 10764 bound_to 10752
  154.1409  135.2908  155.3141 H   0  0  0  0  0  0  0  0  0  0  0  0  # atno 10765 bound_to 10752
  141.1657  133.7005  156.7754 H   0  0  0  0  0  0  0  0  0  0  0  0  # atno 11005 bound_to 11000
  145.9739  139.2890  143.1082 LP  0  0  0  0  0  0  0  0  0  0  0  0  # atno 17320 bound_to 7965
  145.9086  140.9195  143.0465 LP  0  0  0  0  0  0  0  0  0  0  0  0  # atno 17321 bound_to 7965
  139.5712  144.7463  151.3887 LP  0  0  0  0  0  0  0  0  0  0  0  0  # atno 17342 bound_to 10162
  140.7016  143.7617  150.7413 LP  0  0  0  0  0  0  0  0  0  0  0  0  # atno 17343 bound_to 10162
  156.1552  130.3643  149.9379 LP  0  0  0  0  0  0  0  0  0  0  0  0  # atno 17370 bound_to 10713
  156.7389  130.9072  151.3631 LP  0  0  0  0  0  0  0  0  0  0  0  0  # atno 17371 bound_to 10713
  140.2434  134.8596  157.3596 LP  0  0  0  0  0  0  0  0  0  0  0  0  # atno 17394 bound_to 11000
  140.1774  134.4533  155.7793 LP  0  0  0  0  0  0  0  0  0  0  0  0  # atno 17395 bound_to 11000

$$$$
