AV-unprocessed.smi:2888|AV-procd|sdf|11103|dock2
  -GOLD-   2272015573D 1   1.00000     0.00000
 Structure written by MMmdl.
 33 35  0  0  0  0  0  0  0  0  1 V2000
  151.5845  145.6392  160.0187 C   0  0  0  0  0  0  0  0  0  0  0  0
  151.7096  144.2373  159.4615 C   0  0  0  0  0  0  0  0  0  0  0  0
  152.6096  143.3008  160.0113 C   0  0  0  0  0  0  0  0  0  0  0  0
  152.6306  142.0290  159.4010 C   0  0  0  0  0  0  0  0  0  0  0  0
  153.5523  140.9315  159.8891 C   0  0  0  0  0  0  0  0  0  0  0  0
  151.8345  141.7297  158.3506 N   0  0  0  0  0  0  0  0  0  0  0  0
  151.0229  142.6942  157.9090 C   0  0  0  0  0  0  0  0  0  0  0  0
  150.2300  142.3556  156.8281 N   0  0  0  0  0  0  0  0  0  0  0  0
  149.8190  140.9952  156.5037 C   0  0  1  0  0  0  0  0  0  0  0  0
  149.0074  140.9090  155.2049 C   0  0  0  0  0  0  0  0  0  0  0  0
  149.8208  139.8951  154.3909 C   0  0  2  0  0  0  0  0  0  0  0  0
  149.7417  138.4797  154.9791 C   0  0  0  0  0  0  0  0  0  0  0  0
  150.6184  138.6096  156.2244 C   0  0  0  0  0  0  0  0  0  0  0  0
  151.0188  140.0906  156.1764 C   0  0  1  0  0  0  0  0  0  0  0  0
  151.1333  140.2661  154.7731 O   0  0  0  0  0  0  0  0  0  0  0  0
  150.9186  143.9312  158.4099 N   0  0  0  0  0  0  0  0  0  0  0  0
  152.1996  145.7652  160.9102 H   0  0  0  0  0  0  0  0  0  0  0  0
  150.5491  145.8510  160.2870 H   0  0  0  0  0  0  0  0  0  0  0  0
  151.9048  146.3704  159.2762 H   0  0  0  0  0  0  0  0  0  0  0  0
  153.2462  143.5437  160.8496 H   0  0  0  0  0  0  0  0  0  0  0  0
  154.0676  141.2282  160.8028 H   0  0  0  0  0  0  0  0  0  0  0  0
  154.3027  140.7036  159.1321 H   0  0  0  0  0  0  0  0  0  0  0  0
  152.9863  140.0232  160.0979 H   0  0  0  0  0  0  0  0  0  0  0  0
  149.7801  143.1135  156.3358 H   0  0  0  0  0  0  0  0  0  0  0  0
  149.2637  140.5843  157.3479 H   0  0  0  0  0  0  0  0  0  0  0  0
  147.9804  140.5831  155.3724 H   0  0  0  0  0  0  0  0  0  0  0  0
  148.9755  141.8677  154.6848 H   0  0  0  0  0  0  0  0  0  0  0  0
  149.6359  139.9407  153.3174 H   0  0  0  0  0  0  0  0  0  0  0  0
  148.7174  138.1851  155.2097 H   0  0  0  0  0  0  0  0  0  0  0  0
  150.1622  137.7463  154.2902 H   0  0  0  0  0  0  0  0  0  0  0  0
  150.0925  138.3481  157.1431 H   0  0  0  0  0  0  0  0  0  0  0  0
  151.4976  137.9698  156.1405 H   0  0  0  0  0  0  0  0  0  0  0  0
  151.9252  140.3158  156.7399 H   0  0  0  0  0  0  0  0  0  0  0  0
  1  2  1  0  0  0  0
  1 17  1  0  0  0  0
  1 18  1  0  0  0  0
  1 19  1  0  0  0  0
  2 16  1  0  0  0  0
  2  3  2  0  0  0  0
  3  4  1  0  0  0  0
  3 20  1  0  0  0  0
  4  5  1  0  0  0  0
  4  6  2  0  0  0  0
  5 21  1  0  0  0  0
  5 22  1  0  0  0  0
  5 23  1  0  0  0  0
  6  7  1  0  0  0  0
  7  8  1  0  0  0  0
  7 16  2  0  0  0  0
  8  9  1  0  0  0  0
  8 24  1  0  0  0  0
  9 14  1  0  0  0  0
  9 10  1  0  0  0  0
  9 25  1  0  0  0  0
 10 11  1  0  0  0  0
 10 26  1  0  0  0  0
 10 27  1  0  0  0  0
 11 15  1  0  0  0  0
 11 12  1  0  0  0  0
 11 28  1  0  0  0  0
 12 13  1  0  0  0  0
 12 29  1  0  0  0  0
 12 30  1  0  0  0  0
 13 14  1  0  0  0  0
 13 31  1  0  0  0  0
 13 32  1  0  0  0  0
 14 15  1  0  0  0  0
 14 33  1  0  0  0  0
M  END
> <s_m_source_file>
AV-unprocessed.smi

> <i_m_source_file_index>
2888

> <i_lp_mmshare_version>
43012

> <i_f3d_flags>
0

> <s_epik_input>
W0NIM11jMVtjSF1jKFtDSDNdKW5jKG4xKVtOSF1bQ0BIXShbQ0gyXVtDQEBIXTIzKVtDQEBIXShPMylbQ0gyXVtDSDJdMg==

> <s_epik_cmdline>
J2VwaWtfcHl0aG9uJywgJy1waCcsICc3LjAnLCAnLXRuJywgJzgnLCAnLW1hJywgJzIwMCcsICctbWV0YWxfYmluZGluZycsICctaW1hZScsICc8aW5maWxlLm1hZT4nLCAnLW9tYWUnLCAnPG91dGZpbGUubWFlPic=

> <r_lp_tautomer_probability>
1

> <r_epik_Ionization_Penalty>
0.00890508

> <r_epik_Ionization_Penalty_Charging>
0

> <r_epik_Ionization_Penalty_Neutral>
0.00890508

> <r_epik_State_Penalty>
0.0067342

> <r_epik_Charging_Adjusted_Penalty>
0.0067342

> <i_epik_Tot_Q>
0

> <i_epik_Tot_abs_Q>
0

> <r_epik_Metal_State_Penalty>
0.00663442

> <b_epik_Metal_Only>
0

> <s_lp_Force_Field>
OPLS_2005

> <r_lp_Energy>
31.5377

> <b_lp_Chiralities_Consistent>
1

> <s_lp_Variant>
AV-unprocessed.smi:2888-4

> <Gold.Version>
5.8.1

> <Gold.Id.Protein>
6NUR|6NUR_protein|mol2

> <Gold.PLP.Fitness>
40.2537

> <Gold.PLP.PLP>
-34.5593

> <Gold.PLP.part.hbond>
-1.9096

> <Gold.PLP.part.metal>
0.0000

> <Gold.PLP.part.buried>
-3.8433

> <Gold.PLP.part.nonpolar>
-29.2884

> <Gold.PLP.part.repulsive>
0.2504

> <Gold.PLP.ligand.clash>
0.0000

> <Gold.PLP.ligand.torsion>
0.1492

> <Gold.PLP.Chemscore.Hbond>
1.9913

> <Gold.PLP.Chemscore.CHOScore>
0.0000

> <Gold.PLP.Chemscore.Metal>
0.0000

> <Gold.Chemscore.Hbonds>
donor molecule, donor type, donor heavy atom, donor atom, acceptor molecule, acceptor atom, score
      L1  H     8    24       P1  8028  1.00
      P1  H  7989  7998       L1    15  0.91

> <Gold.PLP.Chemscore.Internal.Correction>
0.0191

> <Gold.Rescore>
     Score         DG    S(hbond)    S(metal)    S(lipo)     H(rot)  DE(clash)    DE(int)     intcor
     18.45     -20.02       1.96        0.00      90.16       1.00       0.21       1.36       ----

> <Gold.Chemscore.Fitness>
18.4523

> <Gold.Chemscore.DG>
-20.0235

> <Gold.Chemscore.ZeroCoef>
-5.4800

> <Gold.Chemscore.Hbond>
1.9626

> <Gold.Chemscore.Metal>
0.0000

> <Gold.Chemscore.Lipo>
90.1567

> <Gold.Chemscore.Internal_Hbond>
0.0000

> <Gold.Chemscore.DEClash>
0.2102

> <Gold.Chemscore.DEInternal>
1.3611

> <Gold.Chemscore.Rot>
1.0000

> <Gold.Chemscore.Internal.Correction>
   9.000000E+99

> <Gold.Chemscore.Hbonds>
donor molecule, donor type, donor heavy atom, donor atom, acceptor molecule, acceptor atom, score
      L1  H     8    24       P1  8028  0.99
      P1  H  7989  7998       L1    15  0.26

> <Gold.Chemscore.Hbond.Weighted>
-6.5552

> <Gold.Chemscore.Metal.Weighted>
-0.0000

> <Gold.Chemscore.Lipo.Weighted>
-10.5483

> <Gold.Chemscore.Internal_Hbond.Weighted>
0.0000

> <Gold.Chemscore.DEClash.Weighted>
0.2102

> <Gold.Chemscore.DEInternal.Weighted>
1.3611

> <Gold.Chemscore.Rot.Weighted>
2.5600

> <Gold.Chemscore.Internal.Correction.Weighted>
   9.000000E+99

> <Gold.Protein.RotatedTorsions>
[ 6907 6896 6895 6894 ] final -136.74 input  -60.11 | X-H torsion
[ 7974 7965 7964 7962 ] final   64.72 input  175.53 | X-H torsion
[ 8008 7997 7996 7995 ] final   64.58 input   59.86 | X-H torsion
[ 10167 10162 10161 10158 ] final  171.59 input  -65.29 | X-H torsion
[ 10718 10713 10712 10709 ] final  -95.12 input   66.30 | X-H torsion
[ 10763 10752 10751 10750 ] final   48.67 input  -60.55 | X-H torsion
[ 11005 11000 10999 10996 ] final -133.66 input  -57.11 | X-H torsion

> <Gold.Protein.ActiveResidues>
 VAL166  LYS551  ARG553  GLY616  TRP617  ASP618  TYR619  PRO620  LYS621  CYS622 
 ASP623  PHE694  ASN695  SER759  ASP760  ASP761  ALA762  ILE779  LEU786  VAL792 
 PHE793  MET794  SER795  GLU796  ALA797  LYS798  CYS799  TRP800  GLU811  SER814 

> <Gold.Protein.RotatedAtoms>
  151.0137  133.5941  159.2679 H   0  0  0  0  0  0  0  0  0  0  0  0  # atno 6907 bound_to 6896
  151.3083  135.0786  159.9273 H   0  0  0  0  0  0  0  0  0  0  0  0  # atno 6908 bound_to 6896
  152.5306  133.9807  159.7859 H   0  0  0  0  0  0  0  0  0  0  0  0  # atno 6909 bound_to 6896
  145.8469  139.3230  143.0898 H   0  0  0  0  0  0  0  0  0  0  0  0  # atno 7974 bound_to 7965
  155.6483  140.3497  155.4739 H   0  0  0  0  0  0  0  0  0  0  0  0  # atno 8008 bound_to 7997
  155.9869  140.1186  157.0698 H   0  0  0  0  0  0  0  0  0  0  0  0  # atno 8009 bound_to 7997
  154.4207  140.1127  156.5498 H   0  0  0  0  0  0  0  0  0  0  0  0  # atno 8010 bound_to 7997
  139.5051  144.3469  151.9962 H   0  0  0  0  0  0  0  0  0  0  0  0  # atno 10167 bound_to 10162
  156.0038  130.5096  150.6029 H   0  0  0  0  0  0  0  0  0  0  0  0  # atno 10718 bound_to 10713
  152.9790  135.5936  154.3964 H   0  0  0  0  0  0  0  0  0  0  0  0  # atno 10763 bound_to 10752
  154.3614  135.2767  155.2319 H   0  0  0  0  0  0  0  0  0  0  0  0  # atno 10764 bound_to 10752
  154.4315  135.6035  153.6126 H   0  0  0  0  0  0  0  0  0  0  0  0  # atno 10765 bound_to 10752
  140.9061  134.1628  157.4424 H   0  0  0  0  0  0  0  0  0  0  0  0  # atno 11005 bound_to 11000
  145.9401  140.8986  143.0312 LP  0  0  0  0  0  0  0  0  0  0  0  0  # atno 17320 bound_to 7965
  144.6731  140.1537  143.7428 LP  0  0  0  0  0  0  0  0  0  0  0  0  # atno 17321 bound_to 7965
  140.2906  144.3758  150.6090 LP  0  0  0  0  0  0  0  0  0  0  0  0  # atno 17342 bound_to 10162
  140.5949  143.2167  151.7183 LP  0  0  0  0  0  0  0  0  0  0  0  0  # atno 17343 bound_to 10162
  157.3875  131.0790  151.1423 LP  0  0  0  0  0  0  0  0  0  0  0  0  # atno 17370 bound_to 10713
  157.2125  130.6444  149.5780 LP  0  0  0  0  0  0  0  0  0  0  0  0  # atno 17371 bound_to 10713
  139.8749  134.9917  156.5563 LP  0  0  0  0  0  0  0  0  0  0  0  0  # atno 17394 bound_to 11000
  140.8169  133.8384  155.8860 LP  0  0  0  0  0  0  0  0  0  0  0  0  # atno 17395 bound_to 11000

$$$$
