AV-unprocessed.smi:99|AV-procd|sdf|889|dock1
  -GOLD-   2262017373D 1   1.00000     0.00000
 Structure written by MMmdl.
 52 55  0  0  0  0  0  0  0  0  2 V2000
  147.3294  137.8932  159.6404 O   0  0  0  0  0  0  0  0  0  0  0  0
  147.8578  136.9040  160.1527 C   0  0  0  0  0  0  0  0  0  0  0  0
  149.1270  136.5249  159.9063 O   0  0  0  0  0  0  0  0  0  0  0  0
  149.9215  137.2615  158.9919 C   0  0  0  0  0  0  0  0  0  0  0  0
  149.2155  137.3040  157.6218 C   0  0  2  0  0  0  0  0  0  0  0  0
  148.7809  135.9896  157.3012 O   0  0  0  0  0  0  0  0  0  0  0  0
  149.7977  135.3015  156.6360 C   0  0  1  0  0  0  0  0  0  0  0  0
  149.1621  134.4806  155.5336 N   0  0  0  0  0  0  0  0  0  0  0  0
  148.0096  134.9320  154.9138 C   0  0  0  0  0  0  0  0  0  0  0  0
  147.4170  134.2244  153.9303 C   0  0  0  0  0  0  0  0  0  0  0  0
  148.0022  132.9544  153.5097 C   0  0  0  0  0  0  0  0  0  0  0  0
  147.4513  132.3116  152.6181 O   0  0  0  0  0  0  0  0  0  0  0  0
  149.1439  132.5365  154.1295 N   0  5  0  0  0  0  0  0  0  0  0  0
  149.7505  133.2539  155.1203 C   0  0  0  0  0  0  0  0  0  0  0  0
  150.7918  132.8929  155.6685 O   0  0  0  0  0  0  0  0  0  0  0  0
  150.8162  136.3402  156.1128 C   0  0  1  0  0  0  0  0  0  0  0  0
  151.0930  136.2507  154.7270 O   0  0  0  0  0  0  0  0  0  0  0  0
  150.1311  137.6611  156.4439 C   0  0  2  0  0  0  0  0  0  0  0  0
  151.0639  138.6670  156.8214 O   0  0  0  0  0  0  0  0  0  0  0  0
  151.0719  139.8738  156.2192 C   0  0  0  0  0  0  0  0  0  0  0  0
  150.7307  140.0595  155.0497 O   0  0  0  0  0  0  0  0  0  0  0  0
  151.5342  140.9645  157.1254 C   0  0  0  0  0  0  0  0  0  0  0  0
  151.1255  142.2954  156.8748 C   0  0  0  0  0  0  0  0  0  0  0  0
  151.5427  143.3444  157.7167 C   0  0  0  0  0  0  0  0  0  0  0  0
  152.3736  143.0758  158.8198 C   0  0  0  0  0  0  0  0  0  0  0  0
  152.7879  141.7565  159.0798 C   0  0  0  0  0  0  0  0  0  0  0  0
  152.3723  140.7060  158.2388 C   0  0  0  0  0  0  0  0  0  0  0  0
  147.1577  136.0012  161.1113 C   0  0  0  0  0  0  0  0  0  0  0  0
  147.7060  134.7275  161.3909 C   0  0  0  0  0  0  0  0  0  0  0  0
  147.0671  133.8533  162.2916 C   0  0  0  0  0  0  0  0  0  0  0  0
  145.8715  134.2419  162.9236 C   0  0  0  0  0  0  0  0  0  0  0  0
  145.3156  135.5060  162.6538 C   0  0  0  0  0  0  0  0  0  0  0  0
  145.9535  136.3819  161.7538 C   0  0  0  0  0  0  0  0  0  0  0  0
  150.0446  138.2715  159.3847 H   0  0  0  0  0  0  0  0  0  0  0  0
  150.9155  136.8202  158.9073 H   0  0  0  0  0  0  0  0  0  0  0  0
  148.3671  137.9876  157.6660 H   0  0  0  0  0  0  0  0  0  0  0  0
  150.2404  134.6028  157.3463 H   0  0  0  0  0  0  0  0  0  0  0  0
  147.5744  135.8729  155.2161 H   0  0  0  0  0  0  0  0  0  0  0  0
  146.5191  134.5929  153.4562 H   0  0  0  0  0  0  0  0  0  0  0  0
  151.7385  136.2260  156.6840 H   0  0  0  0  0  0  0  0  0  0  0  0
  150.2824  136.3551  154.2525 H   0  0  0  0  0  0  0  0  0  0  0  0
  149.5023  137.9797  155.6104 H   0  0  0  0  0  0  0  0  0  0  0  0
  150.4867  142.5263  156.0345 H   0  0  0  0  0  0  0  0  0  0  0  0
  151.2236  144.3566  157.5160 H   0  0  0  0  0  0  0  0  0  0  0  0
  152.6925  143.8802  159.4659 H   0  0  0  0  0  0  0  0  0  0  0  0
  153.4253  141.5486  159.9265 H   0  0  0  0  0  0  0  0  0  0  0  0
  152.7088  139.7056  158.4684 H   0  0  0  0  0  0  0  0  0  0  0  0
  148.6229  134.4069  160.9172 H   0  0  0  0  0  0  0  0  0  0  0  0
  147.4955  132.8834  162.4972 H   0  0  0  0  0  0  0  0  0  0  0  0
  145.3818  133.5711  163.6139 H   0  0  0  0  0  0  0  0  0  0  0  0
  144.3974  135.8052  163.1376 H   0  0  0  0  0  0  0  0  0  0  0  0
  145.5000  137.3450  161.5697 H   0  0  0  0  0  0  0  0  0  0  0  0
  1  2  2  0  0  0  0
  2  3  1  0  0  0  0
  2 28  1  0  0  0  0
  3  4  1  0  0  0  0
  4  5  1  0  0  0  0
  4 34  1  0  0  0  0
  4 35  1  0  0  0  0
  5 18  1  0  0  0  0
  5  6  1  0  0  0  0
  5 36  1  0  0  0  0
  6  7  1  0  0  0  0
  7  8  1  0  0  0  0
  7 16  1  0  0  0  0
  7 37  1  0  0  0  0
  8 14  1  0  0  0  0
  8  9  1  0  0  0  0
  9 10  2  0  0  0  0
  9 38  1  0  0  0  0
 10 11  1  0  0  0  0
 10 39  1  0  0  0  0
 11 12  2  0  0  0  0
 11 13  1  0  0  0  0
 13 14  1  0  0  0  0
 14 15  2  0  0  0  0
 16 17  1  0  0  0  0
 16 18  1  0  0  0  0
 16 40  1  0  0  0  0
 17 41  1  0  0  0  0
 18 19  1  0  0  0  0
 18 42  1  0  0  0  0
 19 20  1  0  0  0  0
 20 21  2  0  0  0  0
 20 22  1  0  0  0  0
 22 27  1  0  0  0  0
 22 23  2  0  0  0  0
 23 24  1  0  0  0  0
 23 43  1  0  0  0  0
 24 25  2  0  0  0  0
 24 44  1  0  0  0  0
 25 26  1  0  0  0  0
 25 45  1  0  0  0  0
 26 27  2  0  0  0  0
 26 46  1  0  0  0  0
 27 47  1  0  0  0  0
 28 33  1  0  0  0  0
 28 29  2  0  0  0  0
 29 30  1  0  0  0  0
 29 48  1  0  0  0  0
 30 31  2  0  0  0  0
 30 49  1  0  0  0  0
 31 32  1  0  0  0  0
 31 50  1  0  0  0  0
 32 33  2  0  0  0  0
 32 51  1  0  0  0  0
 33 52  1  0  0  0  0
M  CHG  1  13  -1
M  END
> <s_m_source_file>
AV-unprocessed.smi

> <i_m_source_file_index>
99

> <i_lp_mmshare_version>
43012

> <i_f3d_flags>
0

> <s_epik_input>
W2NIXTFbY0hdW2NIXVtjSF1bY0hdYzFDKD1PKU9bQ0gyXVtDQEBIXTJPW0NAQEhdKG4zW2NIXVtjSF1jKD1PKVtuSF1jMz1PKVtDQEBIXShbT0hdKVtDQEhdMk9DKD1PKWM0W2NIXVtjSF1bY0hdW2NIXVtjSF00

> <s_epik_cmdline>
J2VwaWtfcHl0aG9uJywgJy1waCcsICc3LjAnLCAnLXRuJywgJzgnLCAnLW1hJywgJzIwMCcsICctbWV0YWxfYmluZGluZycsICctaW1hZScsICc8aW5maWxlLm1hZT4nLCAnLW9tYWUnLCAnPG91dGZpbGUubWFlPic=

> <r_lp_tautomer_probability>
1

> <r_epik_Ionization_Penalty>
2.89159

> <r_epik_Ionization_Penalty_Charging>
2.1077e-08

> <r_epik_Ionization_Penalty_Neutral>
2.89159

> <r_epik_State_Penalty>
2.88671

> <r_epik_Charging_Adjusted_Penalty>
2.88671

> <i_epik_Tot_Q>
-1

> <i_epik_Tot_abs_Q>
1

> <r_epik_Metal_State_Penalty>
0.0727308

> <b_epik_Metal_Only>
1

> <s_epik_Chemistry_Notes>
This compound has an ester and may undergo hydrolysis at high or low pH. This compound contains an acetal/aminal-like group ( X-CH(R)-Y where X, Y are N, S, or O) that may be acid/base labile, releasing an aldehyde.

> <s_lp_Force_Field>
OPLS_2005

> <r_lp_Energy>
49.6514

> <b_lp_Chiralities_Consistent>
1

> <s_lp_Variant>
AV-unprocessed.smi:99-25

> <Gold.Version>
5.8.1

> <Gold.Id.Protein>
6NUR|6NUR_protein|mol2

> <Gold.PLP.Fitness>
53.2361

> <Gold.PLP.PLP>
-49.2705

> <Gold.PLP.part.hbond>
-4.2009

> <Gold.PLP.part.metal>
0.0000

> <Gold.PLP.part.buried>
-6.0906

> <Gold.PLP.part.nonpolar>
-39.2799

> <Gold.PLP.part.repulsive>
0.5302

> <Gold.PLP.ligand.clash>
0.0000

> <Gold.PLP.ligand.torsion>
2.3534

> <Gold.PLP.Chemscore.Hbond>
2.6953

> <Gold.PLP.Chemscore.CHOScore>
0.0000

> <Gold.PLP.Chemscore.Metal>
0.0000

> <Gold.Chemscore.Hbonds>
donor molecule, donor type, donor heavy atom, donor atom, acceptor molecule, acceptor atom, score
      P1  H  6934  6947       L1     1  0.70
      P1  H  7989  7998       L1    21  1.00
      P1  H 10752 10765       L1    17  1.00

> <Gold.PLP.Chemscore.Internal.Correction>
0.5866

> <Gold.Rescore>
     Score         DG    S(hbond)    S(metal)    S(lipo)     H(rot)  DE(clash)    DE(int)     intcor
     15.67     -19.55       2.50        0.00     117.39       3.13       0.40       3.48       ----

> <Gold.Chemscore.Fitness>
15.6691

> <Gold.Chemscore.DG>
-19.5516

> <Gold.Chemscore.ZeroCoef>
-5.4800

> <Gold.Chemscore.Hbond>
2.5036

> <Gold.Chemscore.Metal>
0.0000

> <Gold.Chemscore.Lipo>
117.3856

> <Gold.Chemscore.Internal_Hbond>
0.0000

> <Gold.Chemscore.DEClash>
0.3997

> <Gold.Chemscore.DEInternal>
3.4828

> <Gold.Chemscore.Rot>
3.1346

> <Gold.Chemscore.Internal.Correction>
   9.000000E+99

> <Gold.Chemscore.Hbonds>
donor molecule, donor type, donor heavy atom, donor atom, acceptor molecule, acceptor atom, score
      P1  H  6934  6947       L1     1  0.39
      P1  H  7989  7998       L1    21  0.98
      P1  H 10752 10765       L1    17  0.77

> <Gold.Chemscore.Hbond.Weighted>
-8.3621

> <Gold.Chemscore.Metal.Weighted>
-0.0000

> <Gold.Chemscore.Lipo.Weighted>
-13.7341

> <Gold.Chemscore.Internal_Hbond.Weighted>
0.0000

> <Gold.Chemscore.DEClash.Weighted>
0.3997

> <Gold.Chemscore.DEInternal.Weighted>
3.4828

> <Gold.Chemscore.Rot.Weighted>
8.0246

> <Gold.Chemscore.Internal.Correction.Weighted>
   9.000000E+99

> <Gold.Protein.RotatedTorsions>
[ 6907 6896 6895 6894 ] final  -15.35 input  -60.11 | X-H torsion
[ 7974 7965 7964 7962 ] final -108.22 input  175.53 | X-H torsion
[ 8008 7997 7996 7995 ] final -108.09 input   59.86 | X-H torsion
[ 10167 10162 10161 10158 ] final   -6.88 input  -65.29 | X-H torsion
[ 10718 10713 10712 10709 ] final   44.37 input   66.30 | X-H torsion
[ 10763 10752 10751 10750 ] final  169.49 input  -60.55 | X-H torsion
[ 11005 11000 10999 10996 ] final  107.08 input  -57.11 | X-H torsion

> <Gold.Protein.ActiveResidues>
 VAL166  LYS551  ARG553  GLY616  TRP617  ASP618  TYR619  PRO620  LYS621  CYS622 
 ASP623  PHE694  ASN695  SER759  ASP760  ASP761  ALA762  ILE779  LEU786  VAL792 
 PHE793  MET794  SER795  GLU796  ALA797  LYS798  CYS799  TRP800  GLU811  SER814 

> <Gold.Protein.RotatedAtoms>
  151.3253  135.0828  159.9319 H   0  0  0  0  0  0  0  0  0  0  0  0  # atno 6907 bound_to 6896
  152.5247  133.9598  159.7722 H   0  0  0  0  0  0  0  0  0  0  0  0  # atno 6908 bound_to 6896
  150.9926  133.6082  159.2736 H   0  0  0  0  0  0  0  0  0  0  0  0  # atno 6909 bound_to 6896
  145.1956  140.9034  143.3399 H   0  0  0  0  0  0  0  0  0  0  0  0  # atno 7974 bound_to 7965
  154.9391  140.0403  157.2087 H   0  0  0  0  0  0  0  0  0  0  0  0  # atno 8008 bound_to 7997
  154.8086  140.2864  155.5847 H   0  0  0  0  0  0  0  0  0  0  0  0  # atno 8009 bound_to 7997
  156.2969  140.2541  156.2970 H   0  0  0  0  0  0  0  0  0  0  0  0  # atno 8010 bound_to 7997
  140.7011  143.6143  150.8673 H   0  0  0  0  0  0  0  0  0  0  0  0  # atno 10167 bound_to 10162
  157.4261  130.7997  149.7559 H   0  0  0  0  0  0  0  0  0  0  0  0  # atno 10718 bound_to 10713
  154.3840  135.2753  155.2194 H   0  0  0  0  0  0  0  0  0  0  0  0  # atno 10763 bound_to 10752
  154.4289  135.5982  153.6060 H   0  0  0  0  0  0  0  0  0  0  0  0  # atno 10764 bound_to 10752
  152.9834  135.5991  154.4086 H   0  0  0  0  0  0  0  0  0  0  0  0  # atno 10765 bound_to 10752
  139.8823  134.9390  156.5765 H   0  0  0  0  0  0  0  0  0  0  0  0  # atno 11005 bound_to 11000
  144.9998  139.3609  143.6173 LP  0  0  0  0  0  0  0  0  0  0  0  0  # atno 17320 bound_to 7965
  146.3428  139.9216  142.8766 LP  0  0  0  0  0  0  0  0  0  0  0  0  # atno 17321 bound_to 7965
  139.9866  143.5893  152.2925 LP  0  0  0  0  0  0  0  0  0  0  0  0  # atno 17342 bound_to 10162
  139.6533  144.7661  151.2105 LP  0  0  0  0  0  0  0  0  0  0  0  0  # atno 17343 bound_to 10162
  155.9897  130.3950  150.3062 LP  0  0  0  0  0  0  0  0  0  0  0  0  # atno 17370 bound_to 10713
  157.1214  131.0248  151.3007 LP  0  0  0  0  0  0  0  0  0  0  0  0  # atno 17371 bound_to 10713
  140.8059  133.8468  155.8767 LP  0  0  0  0  0  0  0  0  0  0  0  0  # atno 17394 bound_to 11000
  140.9550  134.1729  157.4698 LP  0  0  0  0  0  0  0  0  0  0  0  0  # atno 17395 bound_to 11000

$$$$
