AV-unprocessed.smi:1515|AV-procd|sdf|6117|dock3
  -GOLD-   22720 6253D 1   1.00000     0.00000
 Structure written by MMmdl.
 34 35  0  0  0  0  0  0  0  0  1 V2000
  146.5889  141.9250  153.6746 C   0  0  0  0  0  0  0  0  0  0  0  0
  147.7728  142.0776  154.4503 O   0  0  0  0  0  0  0  0  0  0  0  0
  148.6113  140.9886  154.5961 C   0  0  0  0  0  0  0  0  0  0  0  0
  148.2557  139.8183  154.0087 N   0  0  0  0  0  0  0  0  0  0  0  0
  149.0756  138.7559  154.1433 C   0  0  0  0  0  0  0  0  0  0  0  0
  150.2856  138.8029  154.8589 C   0  0  0  0  0  0  0  0  0  0  0  0
  150.6564  140.0149  155.4698 C   0  0  0  0  0  0  0  0  0  0  0  0
  149.7996  141.1362  155.3494 C   0  0  0  0  0  0  0  0  0  0  0  0
  150.0889  142.4128  155.9069 N   0  0  0  0  0  0  0  0  0  0  0  0
  150.9359  142.7211  156.9037 C   0  0  0  0  0  0  0  0  0  0  0  0
  151.5924  141.9099  157.5561 O   0  0  0  0  0  0  0  0  0  0  0  0
  150.9670  144.0440  157.1192 N   0  0  0  0  0  0  0  0  0  0  0  0
  151.7867  144.7172  158.1205 C   0  0  0  0  0  0  0  0  0  0  0  0
  151.4182  144.2718  159.5336 C   0  0  0  0  0  0  0  0  0  0  0  0
  151.6841  145.1979  160.7317 C   0  0  0  0  0  0  0  0  0  0  0  0
  151.9986  143.9538  161.5658 C   0  0  0  0  0  0  0  0  0  0  0  0
  152.2916  143.2302  160.2488 C   0  0  0  0  0  0  0  0  0  0  0  0
  146.0457  142.8697  153.6574 H   0  0  0  0  0  0  0  0  0  0  0  0
  145.9265  141.1706  154.1014 H   0  0  0  0  0  0  0  0  0  0  0  0
  146.8188  141.6573  152.6423 H   0  0  0  0  0  0  0  0  0  0  0  0
  148.7611  137.8427  153.6601 H   0  0  0  0  0  0  0  0  0  0  0  0
  150.9183  137.9309  154.9330 H   0  0  0  0  0  0  0  0  0  0  0  0
  151.5939  140.0624  156.0013 H   0  0  0  0  0  0  0  0  0  0  0  0
  149.5490  143.1783  155.5302 H   0  0  0  0  0  0  0  0  0  0  0  0
  150.3869  144.6324  156.5395 H   0  0  0  0  0  0  0  0  0  0  0  0
  152.8295  144.4759  157.9138 H   0  0  0  0  0  0  0  0  0  0  0  0
  151.7028  145.8006  158.0191 H   0  0  0  0  0  0  0  0  0  0  0  0
  150.3797  143.9357  159.5737 H   0  0  0  0  0  0  0  0  0  0  0  0
  152.5563  145.8382  160.5890 H   0  0  0  0  0  0  0  0  0  0  0  0
  150.8180  145.7692  161.0673 H   0  0  0  0  0  0  0  0  0  0  0  0
  152.8547  144.0550  162.2336 H   0  0  0  0  0  0  0  0  0  0  0  0
  151.1232  143.5572  162.0825 H   0  0  0  0  0  0  0  0  0  0  0  0
  151.9174  142.2074  160.1959 H   0  0  0  0  0  0  0  0  0  0  0  0
  153.3430  143.2887  159.9621 H   0  0  0  0  0  0  0  0  0  0  0  0
  1  2  1  0  0  0  0
  1 18  1  0  0  0  0
  1 19  1  0  0  0  0
  1 20  1  0  0  0  0
  2  3  1  0  0  0  0
  3  8  1  0  0  0  0
  3  4  2  0  0  0  0
  4  5  1  0  0  0  0
  5  6  2  0  0  0  0
  5 21  1  0  0  0  0
  6  7  1  0  0  0  0
  6 22  1  0  0  0  0
  7  8  2  0  0  0  0
  7 23  1  0  0  0  0
  8  9  1  0  0  0  0
  9 10  1  0  0  0  0
  9 24  1  0  0  0  0
 10 11  2  0  0  0  0
 10 12  1  0  0  0  0
 12 13  1  0  0  0  0
 12 25  1  0  0  0  0
 13 14  1  0  0  0  0
 13 26  1  0  0  0  0
 13 27  1  0  0  0  0
 14 17  1  0  0  0  0
 14 15  1  0  0  0  0
 14 28  1  0  0  0  0
 15 16  1  0  0  0  0
 15 29  1  0  0  0  0
 15 30  1  0  0  0  0
 16 17  1  0  0  0  0
 16 31  1  0  0  0  0
 16 32  1  0  0  0  0
 17 33  1  0  0  0  0
 17 34  1  0  0  0  0
M  END
> <s_m_source_file>
AV-unprocessed.smi

> <i_m_source_file_index>
1515

> <i_lp_mmshare_version>
43012

> <i_f3d_flags>
0

> <s_epik_input>
W0NIM11PYzFuW2NIXVtjSF1bY0hdYzFbTkhdQyg9TylbTkhdW0NIMl1bQ0hdMltDSDJdW0NIMl1bQ0gyXTI=

> <s_epik_cmdline>
J2VwaWtfcHl0aG9uJywgJy1waCcsICc3LjAnLCAnLXRuJywgJzgnLCAnLW1hJywgJzIwMCcsICctbWV0YWxfYmluZGluZycsICctaW1hZScsICc8aW5maWxlLm1hZT4nLCAnLW9tYWUnLCAnPG91dGZpbGUubWFlPic=

> <r_lp_tautomer_probability>
1

> <r_epik_Ionization_Penalty>
9.92152e-05

> <r_epik_Ionization_Penalty_Charging>
0

> <r_epik_Ionization_Penalty_Neutral>
9.92152e-05

> <r_epik_State_Penalty>
-0

> <r_epik_Charging_Adjusted_Penalty>
0

> <i_epik_Tot_Q>
0

> <i_epik_Tot_abs_Q>
0

> <r_epik_Metal_State_Penalty>
-0

> <b_epik_Metal_Only>
0

> <s_lp_Force_Field>
OPLS_2005

> <r_lp_Energy>
15.166

> <b_lp_Chiralities_Consistent>
1

> <s_lp_Variant>
AV-unprocessed.smi:1515-1

> <Gold.Version>
5.8.1

> <Gold.Id.Protein>
6NUR|6NUR_protein|mol2

> <Gold.PLP.Fitness>
49.2144

> <Gold.PLP.PLP>
-41.1974

> <Gold.PLP.part.hbond>
-2.0000

> <Gold.PLP.part.metal>
0.0000

> <Gold.PLP.part.buried>
-5.2148

> <Gold.PLP.part.nonpolar>
-35.8803

> <Gold.PLP.part.repulsive>
0.6065

> <Gold.PLP.ligand.clash>
0.0000

> <Gold.PLP.ligand.torsion>
0.5125

> <Gold.PLP.Chemscore.Hbond>
1.9920

> <Gold.PLP.Chemscore.CHOScore>
1.0000

> <Gold.PLP.Chemscore.Metal>
0.0000

> <Gold.Chemscore.Hbonds>
donor molecule, donor type, donor heavy atom, donor atom, acceptor molecule, acceptor atom, score
      L1  H     9    24       P1  8028  1.00
      L1  H    12    25       P1  8028  0.93
      L1  C     5    21       P1  7948  1.00

> <Gold.PLP.Chemscore.Internal.Correction>
0.0661

> <Gold.Rescore>
     Score         DG    S(hbond)    S(metal)    S(lipo)     H(rot)  DE(clash)    DE(int)     intcor
     17.56     -19.41       1.92        0.00      95.66       1.44       0.09       1.77       ----

> <Gold.Chemscore.Fitness>
17.5559

> <Gold.Chemscore.DG>
-19.4144

> <Gold.Chemscore.ZeroCoef>
-5.4800

> <Gold.Chemscore.Hbond>
1.9241

> <Gold.Chemscore.Metal>
0.0000

> <Gold.Chemscore.Lipo>
95.6586

> <Gold.Chemscore.Internal_Hbond>
0.0000

> <Gold.Chemscore.DEClash>
0.0885

> <Gold.Chemscore.DEInternal>
1.7700

> <Gold.Chemscore.Rot>
1.4391

> <Gold.Chemscore.Internal.Correction>
   9.000000E+99

> <Gold.Chemscore.Hbonds>
donor molecule, donor type, donor heavy atom, donor atom, acceptor molecule, acceptor atom, score
      L1  H     9    24       P1  8028  0.96
      L1  H    12    25       P1  8028  0.84

> <Gold.Chemscore.Hbond.Weighted>
-6.4263

> <Gold.Chemscore.Metal.Weighted>
-0.0000

> <Gold.Chemscore.Lipo.Weighted>
-11.1921

> <Gold.Chemscore.Internal_Hbond.Weighted>
0.0000

> <Gold.Chemscore.DEClash.Weighted>
0.0885

> <Gold.Chemscore.DEInternal.Weighted>
1.7700

> <Gold.Chemscore.Rot.Weighted>
3.6840

> <Gold.Chemscore.Internal.Correction.Weighted>
   9.000000E+99

> <Gold.Protein.RotatedTorsions>
[ 6907 6896 6895 6894 ] final  -44.37 input  -60.11 | X-H torsion
[ 7974 7965 7964 7962 ] final  -85.61 input  175.53 | X-H torsion
[ 8008 7997 7996 7995 ] final -175.54 input   59.86 | X-H torsion
[ 10167 10162 10161 10158 ] final -130.93 input  -65.29 | X-H torsion
[ 10718 10713 10712 10709 ] final   26.79 input   66.30 | X-H torsion
[ 10763 10752 10751 10750 ] final  158.99 input  -60.55 | X-H torsion
[ 11005 11000 10999 10996 ] final   32.54 input  -57.11 | X-H torsion

> <Gold.Protein.ActiveResidues>
 VAL166  LYS551  ARG553  GLY616  TRP617  ASP618  TYR619  PRO620  LYS621  CYS622 
 ASP623  PHE694  ASN695  SER759  ASP760  ASP761  ALA762  ILE779  LEU786  VAL792 
 PHE793  MET794  SER795  GLU796  ALA797  LYS798  CYS799  TRP800  GLU811  SER814 

> <Gold.Protein.RotatedAtoms>
  150.9336  134.8750  159.7566 H   0  0  0  0  0  0  0  0  0  0  0  0  # atno 6907 bound_to 6896
  152.5049  134.4043  159.9437 H   0  0  0  0  0  0  0  0  0  0  0  0  # atno 6908 bound_to 6896
  151.4068  133.3700  159.2774 H   0  0  0  0  0  0  0  0  0  0  0  0  # atno 6909 bound_to 6896
  145.4910  140.9553  143.1812 H   0  0  0  0  0  0  0  0  0  0  0  0  # atno 7974 bound_to 7965
  155.9838  140.1187  157.0702 H   0  0  0  0  0  0  0  0  0  0  0  0  # atno 8008 bound_to 7997
  154.4191  140.1139  156.5540 H   0  0  0  0  0  0  0  0  0  0  0  0  # atno 8009 bound_to 7997
  155.6435  140.3473  155.4725 H   0  0  0  0  0  0  0  0  0  0  0  0  # atno 8010 bound_to 7997
  139.9242  143.6347  152.2546 H   0  0  0  0  0  0  0  0  0  0  0  0  # atno 10167 bound_to 10162
  157.2116  130.6937  149.6231 H   0  0  0  0  0  0  0  0  0  0  0  0  # atno 10718 bound_to 10713
  154.2247  135.2780  155.2912 H   0  0  0  0  0  0  0  0  0  0  0  0  # atno 10763 bound_to 10752
  154.5673  135.5629  153.7065 H   0  0  0  0  0  0  0  0  0  0  0  0  # atno 10764 bound_to 10752
  153.0033  135.6312  154.2388 H   0  0  0  0  0  0  0  0  0  0  0  0  # atno 10765 bound_to 10752
  140.2724  134.3067  155.7824 H   0  0  0  0  0  0  0  0  0  0  0  0  # atno 11005 bound_to 11000
  144.7834  139.6478  143.7144 LP  0  0  0  0  0  0  0  0  0  0  0  0  # atno 17320 bound_to 7965
  146.2284  139.5767  142.9572 LP  0  0  0  0  0  0  0  0  0  0  0  0  # atno 17321 bound_to 7965
  139.6836  144.7653  151.1564 LP  0  0  0  0  0  0  0  0  0  0  0  0  # atno 17342 bound_to 10162
  140.7654  143.5689  150.9017 LP  0  0  0  0  0  0  0  0  0  0  0  0  # atno 17343 bound_to 10162
  155.9690  130.4549  150.5868 LP  0  0  0  0  0  0  0  0  0  0  0  0  # atno 17370 bound_to 10713
  157.3667  131.0759  151.1592 LP  0  0  0  0  0  0  0  0  0  0  0  0  # atno 17371 bound_to 10713
  141.2175  133.7475  156.9355 LP  0  0  0  0  0  0  0  0  0  0  0  0  # atno 17394 bound_to 11000
  140.1360  134.9325  157.2403 LP  0  0  0  0  0  0  0  0  0  0  0  0  # atno 17395 bound_to 11000

$$$$
