AV-unprocessed.smi:2991|AV-procd|sdf|11397|dock4
  -GOLD-   2272016323D 1   1.00000     0.00000
 Structure written by MMmdl.
 37 38  0  0  0  0  0  0  0  0  1 V2000
  149.6603  130.4448  154.3901 C   0  0  0  0  0  0  0  0  0  0  0  0
  150.0033  131.7996  154.9810 C   0  0  0  0  0  0  0  0  0  0  0  0
  150.7918  131.7768  156.0776 N   0  0  0  0  0  0  0  0  0  0  0  0
  151.1204  132.9541  156.6477 C   0  0  0  0  0  0  0  0  0  0  0  0
  150.6894  134.2005  156.1551 C   0  0  0  0  0  0  0  0  0  0  0  0
  149.8763  134.2293  154.9967 C   0  0  0  0  0  0  0  0  0  0  0  0
  149.3673  135.4303  154.4293 N   0  0  0  0  0  0  0  0  0  0  0  0
  149.1839  136.6250  155.0166 C   0  0  0  0  0  0  0  0  0  0  0  0
  149.4461  136.8912  156.1896 O   0  0  0  0  0  0  0  0  0  0  0  0
  148.6876  137.5171  154.1475 N   0  0  0  0  0  0  0  0  0  0  0  0
  148.4108  138.9256  154.4298 C   0  0  2  0  0  0  0  0  0  0  0  0
  147.3712  139.4918  153.4274 C   0  0  0  0  0  0  0  0  0  0  0  0
  147.4220  141.0143  153.1824 C   0  0  0  0  0  0  0  0  0  0  0  0
  147.3409  141.8948  154.4461 C   0  0  0  0  0  0  0  0  0  0  0  0
  148.3768  141.6094  155.5593 C   0  0  0  0  0  0  0  0  0  0  0  0
  149.6115  140.9849  155.0861 N   0  0  0  0  0  0  0  0  0  0  0  0
  149.7078  139.7458  154.5739 C   0  0  0  0  0  0  0  0  0  0  0  0
  150.7891  139.2836  154.2115 O   0  0  0  0  0  0  0  0  0  0  0  0
  149.5151  132.9960  154.4049 C   0  0  0  0  0  0  0  0  0  0  0  0
  148.5024  132.9505  153.0003 Cl  0  0  0  0  0  0  0  0  0  0  0  0
  148.5804  130.2944  154.3904 H   0  0  0  0  0  0  0  0  0  0  0  0
  150.1132  129.6317  154.9591 H   0  0  0  0  0  0  0  0  0  0  0  0
  150.0180  130.3776  153.3625 H   0  0  0  0  0  0  0  0  0  0  0  0
  151.7413  132.9010  157.5297 H   0  0  0  0  0  0  0  0  0  0  0  0
  150.9767  135.0994  156.6781 H   0  0  0  0  0  0  0  0  0  0  0  0
  149.1897  135.3937  153.4360 H   0  0  0  0  0  0  0  0  0  0  0  0
  148.5108  137.2102  153.2018 H   0  0  0  0  0  0  0  0  0  0  0  0
  147.9533  138.9466  155.4198 H   0  0  0  0  0  0  0  0  0  0  0  0
  147.4981  139.0024  152.4607 H   0  0  0  0  0  0  0  0  0  0  0  0
  146.3711  139.2167  153.7648 H   0  0  0  0  0  0  0  0  0  0  0  0
  148.3290  141.2612  152.6288 H   0  0  0  0  0  0  0  0  0  0  0  0
  146.6036  141.2868  152.5154 H   0  0  0  0  0  0  0  0  0  0  0  0
  147.4552  142.9322  154.1299 H   0  0  0  0  0  0  0  0  0  0  0  0
  146.3393  141.8301  154.8726 H   0  0  0  0  0  0  0  0  0  0  0  0
  148.6341  142.5412  156.0634 H   0  0  0  0  0  0  0  0  0  0  0  0
  147.9324  140.9804  156.3314 H   0  0  0  0  0  0  0  0  0  0  0  0
  150.4589  141.5278  155.1682 H   0  0  0  0  0  0  0  0  0  0  0  0
  1  2  1  0  0  0  0
  1 21  1  0  0  0  0
  1 22  1  0  0  0  0
  1 23  1  0  0  0  0
  2 19  1  0  0  0  0
  2  3  2  0  0  0  0
  3  4  1  0  0  0  0
  4  5  2  0  0  0  0
  4 24  1  0  0  0  0
  5  6  1  0  0  0  0
  5 25  1  0  0  0  0
  6  7  1  0  0  0  0
  6 19  2  0  0  0  0
  7  8  1  0  0  0  0
  7 26  1  0  0  0  0
  8  9  2  0  0  0  0
  8 10  1  0  0  0  0
 10 11  1  0  0  0  0
 10 27  1  0  0  0  0
 11 17  1  0  0  0  0
 11 12  1  0  0  0  0
 11 28  1  0  0  0  0
 12 13  1  0  0  0  0
 12 29  1  0  0  0  0
 12 30  1  0  0  0  0
 13 14  1  0  0  0  0
 13 31  1  0  0  0  0
 13 32  1  0  0  0  0
 14 15  1  0  0  0  0
 14 33  1  0  0  0  0
 14 34  1  0  0  0  0
 15 16  1  0  0  0  0
 15 35  1  0  0  0  0
 15 36  1  0  0  0  0
 16 17  1  0  0  0  0
 16 37  1  0  0  0  0
 17 18  2  0  0  0  0
 19 20  1  0  0  0  0
M  END
> <s_m_source_file>
AV-unprocessed.smi

> <i_m_source_file_index>
2991

> <i_lp_mmshare_version>
43012

> <i_f3d_flags>
0

> <s_epik_input>
W0NIM11jMW5bY0hdW2NIXWMoYzFDbClbTkhdQyg9TylbTkhdW0NAQEhdMltDSDJdW0NIMl1bQ0gyXVtDSDJdW05IXUMyPU8=

> <s_epik_cmdline>
J2VwaWtfcHl0aG9uJywgJy1waCcsICc3LjAnLCAnLXRuJywgJzgnLCAnLW1hJywgJzIwMCcsICctbWV0YWxfYmluZGluZycsICctaW1hZScsICc8aW5maWxlLm1hZT4nLCAnLW9tYWUnLCAnPG91dGZpbGUubWFlPic=

> <r_epik_Ionization_Penalty>
0.00809016

> <r_epik_Ionization_Penalty_Charging>
0

> <r_epik_Ionization_Penalty_Neutral>
0.00809016

> <r_epik_State_Penalty>
0.00605324

> <r_epik_Charging_Adjusted_Penalty>
0.00605324

> <i_epik_Tot_Q>
0

> <i_epik_Tot_abs_Q>
0

> <r_epik_Metal_State_Penalty>
0.00597181

> <b_epik_Metal_Only>
0

> <s_lp_Force_Field>
OPLS_2005

> <r_lp_Energy>
20.4462

> <b_lp_Chiralities_Consistent>
1

> <s_lp_Variant>
AV-unprocessed.smi:2991-1

> <Gold.Version>
5.8.1

> <Gold.Id.Protein>
6NUR|6NUR_protein|mol2

> <Gold.PLP.Fitness>
40.8904

> <Gold.PLP.PLP>
-32.5805

> <Gold.PLP.part.hbond>
-3.0000

> <Gold.PLP.part.metal>
0.0000

> <Gold.PLP.part.buried>
-1.3959

> <Gold.PLP.part.nonpolar>
-27.1894

> <Gold.PLP.part.repulsive>
0.3963

> <Gold.PLP.ligand.clash>
0.0000

> <Gold.PLP.ligand.torsion>
0.3359

> <Gold.PLP.Chemscore.Hbond>
2.9760

> <Gold.PLP.Chemscore.CHOScore>
0.0000

> <Gold.PLP.Chemscore.Metal>
0.0000

> <Gold.Chemscore.Hbonds>
donor molecule, donor type, donor heavy atom, donor atom, acceptor molecule, acceptor atom, score
      L1  H     7    26       P1  7948  1.00
      L1  H    10    27       P1  7948  0.98
      P1  H  7989  7998       L1    18  1.00

> <Gold.PLP.Chemscore.Internal.Correction>
0.0536

> <Gold.Rescore>
     Score         DG    S(hbond)    S(metal)    S(lipo)     H(rot)  DE(clash)    DE(int)     intcor
     14.08     -15.61       1.44        0.00      67.29       1.00       0.02       1.51       ----

> <Gold.Chemscore.Fitness>
14.0813

> <Gold.Chemscore.DG>
-15.6116

> <Gold.Chemscore.ZeroCoef>
-5.4800

> <Gold.Chemscore.Hbond>
1.4429

> <Gold.Chemscore.Metal>
0.0000

> <Gold.Chemscore.Lipo>
67.2862

> <Gold.Chemscore.Internal_Hbond>
0.0000

> <Gold.Chemscore.DEClash>
0.0157

> <Gold.Chemscore.DEInternal>
1.5147

> <Gold.Chemscore.Rot>
1.0000

> <Gold.Chemscore.Internal.Correction>
   9.000000E+99

> <Gold.Chemscore.Hbonds>
donor molecule, donor type, donor heavy atom, donor atom, acceptor molecule, acceptor atom, score
      L1  H     7    26       P1  7948  0.33
      L1  H    10    27       P1  7948  0.93
      P1  H  7989  7998       L1    18  0.30

> <Gold.Chemscore.Hbond.Weighted>
-4.8191

> <Gold.Chemscore.Metal.Weighted>
-0.0000

> <Gold.Chemscore.Lipo.Weighted>
-7.8725

> <Gold.Chemscore.Internal_Hbond.Weighted>
0.0000

> <Gold.Chemscore.DEClash.Weighted>
0.0157

> <Gold.Chemscore.DEInternal.Weighted>
1.5147

> <Gold.Chemscore.Rot.Weighted>
2.5600

> <Gold.Chemscore.Internal.Correction.Weighted>
   9.000000E+99

> <Gold.Protein.RotatedTorsions>
[ 6907 6896 6895 6894 ] final   85.59 input  -60.11 | X-H torsion
[ 7974 7965 7964 7962 ] final  -77.56 input  175.53 | X-H torsion
[ 8008 7997 7996 7995 ] final   70.98 input   59.86 | X-H torsion
[ 10167 10162 10161 10158 ] final -165.00 input  -65.29 | X-H torsion
[ 10718 10713 10712 10709 ] final  -14.49 input   66.30 | X-H torsion
[ 10763 10752 10751 10750 ] final   38.65 input  -60.55 | X-H torsion
[ 11005 11000 10999 10996 ] final  -39.77 input  -57.11 | X-H torsion

> <Gold.Protein.ActiveResidues>
 VAL166  LYS551  ARG553  GLY616  TRP617  ASP618  TYR619  PRO620  LYS621  CYS622 
 ASP623  PHE694  ASN695  SER759  ASP760  ASP761  ALA762  ILE779  LEU786  VAL792 
 PHE793  MET794  SER795  GLU796  ALA797  LYS798  CYS799  TRP800  GLU811  SER814 

> <Gold.Protein.RotatedAtoms>
  152.5378  134.2562  159.8917 H   0  0  0  0  0  0  0  0  0  0  0  0  # atno 6907 bound_to 6896
  151.2523  133.4337  159.2619 H   0  0  0  0  0  0  0  0  0  0  0  0  # atno 6908 bound_to 6896
  151.0528  134.9698  159.8276 H   0  0  0  0  0  0  0  0  0  0  0  0  # atno 6909 bound_to 6896
  145.5981  140.9415  143.1256 H   0  0  0  0  0  0  0  0  0  0  0  0  # atno 7974 bound_to 7965
  155.7470  140.3489  155.5132 H   0  0  0  0  0  0  0  0  0  0  0  0  # atno 8008 bound_to 7997
  155.9040  140.1039  157.1350 H   0  0  0  0  0  0  0  0  0  0  0  0  # atno 8009 bound_to 7997
  154.4047  140.1280  156.4459 H   0  0  0  0  0  0  0  0  0  0  0  0  # atno 8010 bound_to 7997
  139.6212  144.0621  152.1934 H   0  0  0  0  0  0  0  0  0  0  0  0  # atno 10167 bound_to 10162
  156.6152  130.4860  149.6186 H   0  0  0  0  0  0  0  0  0  0  0  0  # atno 10718 bound_to 10713
  152.9993  135.6243  154.2339 H   0  0  0  0  0  0  0  0  0  0  0  0  # atno 10763 bound_to 10752
  154.2081  135.2801  155.2969 H   0  0  0  0  0  0  0  0  0  0  0  0  # atno 10764 bound_to 10752
  154.5629  135.5700  153.7083 H   0  0  0  0  0  0  0  0  0  0  0  0  # atno 10765 bound_to 10752
  141.0126  133.6901  156.2231 H   0  0  0  0  0  0  0  0  0  0  0  0  # atno 11005 bound_to 11000
  144.7322  139.7692  143.7343 LP  0  0  0  0  0  0  0  0  0  0  0  0  # atno 17320 bound_to 7965
  146.1597  139.4707  142.9996 LP  0  0  0  0  0  0  0  0  0  0  0  0  # atno 17321 bound_to 7965
  140.0263  144.6115  150.7525 LP  0  0  0  0  0  0  0  0  0  0  0  0  # atno 17342 bound_to 10162
  140.7383  143.2776  151.3694 LP  0  0  0  0  0  0  0  0  0  0  0  0  # atno 17343 bound_to 10162
  156.2357  130.6821  151.1507 LP  0  0  0  0  0  0  0  0  0  0  0  0  # atno 17370 bound_to 10713
  157.7243  131.0660  150.6000 LP  0  0  0  0  0  0  0  0  0  0  0  0  # atno 17371 bound_to 10713
  140.6708  134.4869  157.5587 LP  0  0  0  0  0  0  0  0  0  0  0  0  # atno 17394 bound_to 11000
  139.9098  134.8369  156.1569 LP  0  0  0  0  0  0  0  0  0  0  0  0  # atno 17395 bound_to 11000

$$$$
