AV-unprocessed.smi:2275|AV-procd|sdf|9170|dock9
  -GOLD-   2272012383D 1   1.00000     0.00000
 Structure written by MMmdl.
 38 39  0  0  0  0  0  0  0  0  1 V2000
  154.2424  137.9989  158.0100 C   0  0  0  0  0  0  0  0  0  0  0  0
  153.0425  138.5073  157.2307 C   0  0  0  0  0  0  0  0  0  0  0  0
  153.3275  139.0696  155.9829 N   0  0  0  0  0  0  0  0  0  0  0  0
  152.3686  139.5357  155.2515 C   0  0  0  0  0  0  0  0  0  0  0  0
  151.0304  139.4936  155.6752 N   0  0  0  0  0  0  0  0  0  0  0  0
  150.0358  140.0621  154.7505 C   0  0  0  0  0  0  0  0  0  0  0  0
  149.4375  141.3866  155.2751 C   0  0  2  0  0  0  0  0  0  0  0  0
  148.8202  142.1025  154.2239 O   0  0  0  0  0  0  0  0  0  0  0  0
  150.4880  142.3088  155.9175 C   0  0  0  0  0  0  0  0  0  0  0  0
  150.9988  141.7130  157.1045 O   0  0  0  0  0  0  0  0  0  0  0  0
  151.4245  142.5408  158.1210 C   0  0  0  0  0  0  0  0  0  0  0  0
  151.9252  141.9192  159.2838 C   0  0  0  0  0  0  0  0  0  0  0  0
  152.3828  142.6865  160.3722 C   0  0  0  0  0  0  0  0  0  0  0  0
  152.3441  144.0915  160.3075 C   0  0  0  0  0  0  0  0  0  0  0  0
  151.8459  144.7255  159.1542 C   0  0  0  0  0  0  0  0  0  0  0  0
  151.3876  143.9575  158.0658 C   0  0  0  0  0  0  0  0  0  0  0  0
  150.6632  138.9483  156.8710 C   0  0  0  0  0  0  0  0  0  0  0  0
  149.4831  138.8968  157.2228 O   0  0  0  0  0  0  0  0  0  0  0  0
  151.7661  138.4306  157.6969 C   0  0  0  0  0  0  0  0  0  0  0  0
  151.3961  137.8314  159.0479 C   0  0  0  0  0  0  0  0  0  0  0  0
  154.3383  138.5344  158.9550 H   0  0  0  0  0  0  0  0  0  0  0  0
  155.1682  138.1392  157.4505 H   0  0  0  0  0  0  0  0  0  0  0  0
  154.1386  136.9343  158.2206 H   0  0  0  0  0  0  0  0  0  0  0  0
  152.5373  139.9815  154.2697 H   0  0  0  0  0  0  0  0  0  0  0  0
  150.5240  140.2444  153.7911 H   0  0  0  0  0  0  0  0  0  0  0  0
  149.2411  139.3510  154.5146 H   0  0  0  0  0  0  0  0  0  0  0  0
  148.6707  141.1859  156.0244 H   0  0  0  0  0  0  0  0  0  0  0  0
  148.6327  142.9781  154.5249 H   0  0  0  0  0  0  0  0  0  0  0  0
  151.2890  142.5251  155.2082 H   0  0  0  0  0  0  0  0  0  0  0  0
  150.0098  143.2551  156.1749 H   0  0  0  0  0  0  0  0  0  0  0  0
  151.9595  140.8411  159.3413 H   0  0  0  0  0  0  0  0  0  0  0  0
  152.7637  142.1966  161.2560 H   0  0  0  0  0  0  0  0  0  0  0  0
  152.6953  144.6814  161.1414 H   0  0  0  0  0  0  0  0  0  0  0  0
  151.8151  145.8040  159.1030 H   0  0  0  0  0  0  0  0  0  0  0  0
  151.0119  144.4802  157.1994 H   0  0  0  0  0  0  0  0  0  0  0  0
  150.7309  136.9782  158.9117 H   0  0  0  0  0  0  0  0  0  0  0  0
  150.8773  138.5711  159.6586 H   0  0  0  0  0  0  0  0  0  0  0  0
  152.2587  137.4873  159.6159 H   0  0  0  0  0  0  0  0  0  0  0  0
  1  2  1  0  0  0  0
  1 21  1  0  0  0  0
  1 22  1  0  0  0  0
  1 23  1  0  0  0  0
  2 19  2  0  0  0  0
  2  3  1  0  0  0  0
  3  4  2  0  0  0  0
  4  5  1  0  0  0  0
  4 24  1  0  0  0  0
  5  6  1  0  0  0  0
  5 17  1  0  0  0  0
  6  7  1  0  0  0  0
  6 25  1  0  0  0  0
  6 26  1  0  0  0  0
  7  8  1  0  0  0  0
  7  9  1  0  0  0  0
  7 27  1  0  0  0  0
  8 28  1  0  0  0  0
  9 10  1  0  0  0  0
  9 29  1  0  0  0  0
  9 30  1  0  0  0  0
 10 11  1  0  0  0  0
 11 16  1  0  0  0  0
 11 12  2  0  0  0  0
 12 13  1  0  0  0  0
 12 31  1  0  0  0  0
 13 14  2  0  0  0  0
 13 32  1  0  0  0  0
 14 15  1  0  0  0  0
 14 33  1  0  0  0  0
 15 16  2  0  0  0  0
 15 34  1  0  0  0  0
 16 35  1  0  0  0  0
 17 18  2  0  0  0  0
 17 19  1  0  0  0  0
 19 20  1  0  0  0  0
 20 36  1  0  0  0  0
 20 37  1  0  0  0  0
 20 38  1  0  0  0  0
M  END
> <s_m_source_file>
AV-unprocessed.smi

> <i_m_source_file_index>
2275

> <i_lp_mmshare_version>
43012

> <i_f3d_flags>
0

> <s_epik_input>
W0NIM11jMW5bY0hdbihjKD1PKWMxW0NIM10pW0NIMl1bQ0BIXShbT0hdKVtDSDJdT2MyW2NIXVtjSF1bY0hdW2NIXVtjSF0y

> <s_epik_cmdline>
J2VwaWtfcHl0aG9uJywgJy1waCcsICc3LjAnLCAnLXRuJywgJzgnLCAnLW1hJywgJzIwMCcsICctbWV0YWxfYmluZGluZycsICctaW1hZScsICc8aW5maWxlLm1hZT4nLCAnLW9tYWUnLCAnPG91dGZpbGUubWFlPic=

> <r_lp_tautomer_probability>
1

> <r_epik_Ionization_Penalty>
4.18311e-05

> <r_epik_Ionization_Penalty_Charging>
1.04093e-07

> <r_epik_Ionization_Penalty_Neutral>
4.1727e-05

> <r_epik_State_Penalty>
-0

> <r_epik_Charging_Adjusted_Penalty>
1.04093e-07

> <i_epik_Tot_Q>
0

> <i_epik_Tot_abs_Q>
0

> <r_epik_Metal_State_Penalty>
-0

> <b_epik_Metal_Only>
0

> <s_lp_Force_Field>
OPLS_2005

> <r_lp_Energy>
24.2901

> <b_lp_Chiralities_Consistent>
1

> <s_lp_Variant>
AV-unprocessed.smi:2275-1

> <Gold.Version>
5.8.1

> <Gold.Id.Protein>
6NUR|6NUR_protein|mol2

> <Gold.PLP.Fitness>
45.4497

> <Gold.PLP.PLP>
-39.4792

> <Gold.PLP.part.hbond>
-3.0000

> <Gold.PLP.part.metal>
0.0000

> <Gold.PLP.part.buried>
-4.0057

> <Gold.PLP.part.nonpolar>
-32.5890

> <Gold.PLP.part.repulsive>
0.0513

> <Gold.PLP.ligand.clash>
0.0000

> <Gold.PLP.ligand.torsion>
0.4821

> <Gold.PLP.Chemscore.Hbond>
2.2860

> <Gold.PLP.Chemscore.CHOScore>
0.0000

> <Gold.PLP.Chemscore.Metal>
0.0000

> <Gold.Chemscore.Hbonds>
donor molecule, donor type, donor heavy atom, donor atom, acceptor molecule, acceptor atom, score
      L1  H     8    28       P1  8028  0.91
      P1  H  7997  8008       L1     3  0.77
      P1  H  8011  8017       L1     8  0.25

> <Gold.PLP.Chemscore.Internal.Correction>
0.0767

> <Gold.Rescore>
     Score         DG    S(hbond)    S(metal)    S(lipo)     H(rot)  DE(clash)    DE(int)     intcor
     14.49     -17.77       1.75        0.00     107.16       2.38       1.30       1.98       ----

> <Gold.Chemscore.Fitness>
14.4927

> <Gold.Chemscore.DG>
-17.7696

> <Gold.Chemscore.ZeroCoef>
-5.4800

> <Gold.Chemscore.Hbond>
1.7519

> <Gold.Chemscore.Metal>
0.0000

> <Gold.Chemscore.Lipo>
107.1600

> <Gold.Chemscore.Internal_Hbond>
0.0000

> <Gold.Chemscore.DEClash>
1.2959

> <Gold.Chemscore.DEInternal>
1.9810

> <Gold.Chemscore.Rot>
2.3826

> <Gold.Chemscore.Internal.Correction>
   9.000000E+99

> <Gold.Chemscore.Hbonds>
donor molecule, donor type, donor heavy atom, donor atom, acceptor molecule, acceptor atom, score
      L1  H     8    28       P1  8028  0.86
      P1  H  7997  8008       L1     3  0.10
      P1  H  8011  8017       L1     8  0.10

> <Gold.Chemscore.Hbond.Weighted>
-5.8514

> <Gold.Chemscore.Metal.Weighted>
-0.0000

> <Gold.Chemscore.Lipo.Weighted>
-12.5377

> <Gold.Chemscore.Internal_Hbond.Weighted>
0.0000

> <Gold.Chemscore.DEClash.Weighted>
1.2959

> <Gold.Chemscore.DEInternal.Weighted>
1.9810

> <Gold.Chemscore.Rot.Weighted>
6.0996

> <Gold.Chemscore.Internal.Correction.Weighted>
   9.000000E+99

> <Gold.Protein.RotatedTorsions>
[ 6907 6896 6895 6894 ] final  163.55 input  -60.11 | X-H torsion
[ 7974 7965 7964 7962 ] final  -76.13 input  175.53 | X-H torsion
[ 8008 7997 7996 7995 ] final  -53.12 input   59.86 | X-H torsion
[ 10167 10162 10161 10158 ] final  -36.78 input  -65.29 | X-H torsion
[ 10718 10713 10712 10709 ] final  -93.76 input   66.30 | X-H torsion
[ 10763 10752 10751 10750 ] final    0.07 input  -60.55 | X-H torsion
[ 11005 11000 10999 10996 ] final -118.06 input  -57.11 | X-H torsion

> <Gold.Protein.ActiveResidues>
 VAL166  LYS551  ARG553  GLY616  TRP617  ASP618  TYR619  PRO620  LYS621  CYS622 
 ASP623  PHE694  ASN695  SER759  ASP760  ASP761  ALA762  ILE779  LEU786  VAL792 
 PHE793  MET794  SER795  GLU796  ALA797  LYS798  CYS799  TRP800  GLU811  SER814 

> <Gold.Protein.RotatedAtoms>
  151.9235  133.3592  159.3905 H   0  0  0  0  0  0  0  0  0  0  0  0  # atno 6907 bound_to 6896
  150.7032  134.4610  159.5390 H   0  0  0  0  0  0  0  0  0  0  0  0  # atno 6908 bound_to 6896
  152.2238  134.8387  160.0533 H   0  0  0  0  0  0  0  0  0  0  0  0  # atno 6909 bound_to 6896
  145.6169  140.9373  143.1159 H   0  0  0  0  0  0  0  0  0  0  0  0  # atno 7974 bound_to 7965
  154.4124  140.1207  156.5102 H   0  0  0  0  0  0  0  0  0  0  0  0  # atno 8008 bound_to 7997
  155.6806  140.3496  155.4834 H   0  0  0  0  0  0  0  0  0  0  0  0  # atno 8009 bound_to 7997
  155.9554  140.1113  157.0931 H   0  0  0  0  0  0  0  0  0  0  0  0  # atno 8010 bound_to 7997
  140.7134  143.3386  151.2408 H   0  0  0  0  0  0  0  0  0  0  0  0  # atno 10167 bound_to 10162
  156.0017  130.5040  150.5824 H   0  0  0  0  0  0  0  0  0  0  0  0  # atno 10718 bound_to 10713
  153.3253  135.6972  153.6994 H   0  0  0  0  0  0  0  0  0  0  0  0  # atno 10763 bound_to 10752
  153.5818  135.3496  155.2878 H   0  0  0  0  0  0  0  0  0  0  0  0  # atno 10764 bound_to 10752
  154.8606  135.4297  154.2428 H   0  0  0  0  0  0  0  0  0  0  0  0  # atno 10765 bound_to 10752
  141.0312  133.9978  157.3140 H   0  0  0  0  0  0  0  0  0  0  0  0  # atno 11005 bound_to 11000
  144.7247  139.7915  143.7369 LP  0  0  0  0  0  0  0  0  0  0  0  0  # atno 17320 bound_to 7965
  146.1461  139.4531  143.0078 LP  0  0  0  0  0  0  0  0  0  0  0  0  # atno 17321 bound_to 7965
  139.6887  143.9729  152.2848 LP  0  0  0  0  0  0  0  0  0  0  0  0  # atno 17342 bound_to 10162
  139.9383  144.6698  150.8292 LP  0  0  0  0  0  0  0  0  0  0  0  0  # atno 17343 bound_to 10162
  157.3702  131.0764  151.1564 LP  0  0  0  0  0  0  0  0  0  0  0  0  # atno 17370 bound_to 10713
  157.2319  130.6529  149.5853 LP  0  0  0  0  0  0  0  0  0  0  0  0  # atno 17371 bound_to 10713
  139.9209  135.0200  156.8060 LP  0  0  0  0  0  0  0  0  0  0  0  0  # atno 17394 bound_to 11000
  140.6403  133.9824  155.7704 LP  0  0  0  0  0  0  0  0  0  0  0  0  # atno 17395 bound_to 11000

$$$$
