AV-unprocessed.smi:2638|AV-procd|sdf|10263|dock8
  -GOLD-   2272014273D 1   1.00000     0.00000
 Structure written by MMmdl.
 43 44  0  0  0  0  0  0  0  0  1 V2000
  144.3890  136.3503  152.5975 O   0  0  0  0  0  0  0  0  0  0  0  0
  145.5924  136.2913  152.3463 C   0  0  0  0  0  0  0  0  0  0  0  0
  146.1941  135.3035  151.6608 N   0  0  0  0  0  0  0  0  0  0  0  0
  145.6137  134.1351  151.0989 C   0  0  0  0  0  0  0  0  0  0  0  0
  144.2083  133.9394  151.1215 C   0  0  0  0  0  0  0  0  0  0  0  0
  143.6622  132.7820  150.5336 C   0  0  0  0  0  0  0  0  0  0  0  0
  144.5282  131.8559  149.9261 C   0  0  0  0  0  0  0  0  0  0  0  0
  145.9061  132.1374  149.9298 C   0  0  0  0  0  0  0  0  0  0  0  0
  146.4334  133.2455  150.4925 N   0  0  0  0  0  0  0  0  0  0  0  0
  146.4848  137.2139  152.7431 N   0  0  0  0  0  0  0  0  0  0  0  0
  146.2197  138.4392  153.5080 C   0  0  1  0  0  0  0  0  0  0  0  0
  145.5868  138.1148  154.8869 C   0  0  0  0  0  0  0  0  0  0  0  0
  144.1039  138.5089  155.0062 C   0  0  0  0  0  0  0  0  0  0  0  0
  143.9674  139.9061  154.8638 O   0  0  0  0  0  0  0  0  0  0  0  0
  147.4664  139.3748  153.5751 C   0  0  0  0  0  0  0  0  0  0  0  0
  148.6372  138.7461  154.3706 C   0  0  0  0  0  0  0  0  0  0  0  0
  149.8573  139.6782  154.4551 C   0  0  0  0  0  0  0  0  0  0  0  0
  149.4831  141.0382  155.0568 C   0  0  0  0  0  0  0  0  0  0  0  0
  148.3459  141.6864  154.2583 C   0  0  0  0  0  0  0  0  0  0  0  0
  147.1226  140.7601  154.1810 C   0  0  0  0  0  0  0  0  0  0  0  0
  147.2019  135.3426  151.6225 H   0  0  0  0  0  0  0  0  0  0  0  0
  143.5402  134.6606  151.5672 H   0  0  0  0  0  0  0  0  0  0  0  0
  142.5957  132.6119  150.5431 H   0  0  0  0  0  0  0  0  0  0  0  0
  144.1462  130.9575  149.4642 H   0  0  0  0  0  0  0  0  0  0  0  0
  146.6046  131.4566  149.4663 H   0  0  0  0  0  0  0  0  0  0  0  0
  147.4492  137.0577  152.4888 H   0  0  0  0  0  0  0  0  0  0  0  0
  145.4588  138.9663  152.9312 H   0  0  0  0  0  0  0  0  0  0  0  0
  145.7021  137.0539  155.1119 H   0  0  0  0  0  0  0  0  0  0  0  0
  146.1263  138.6474  155.6689 H   0  0  0  0  0  0  0  0  0  0  0  0
  143.5124  138.0154  154.2345 H   0  0  0  0  0  0  0  0  0  0  0  0
  143.6910  138.2184  155.9725 H   0  0  0  0  0  0  0  0  0  0  0  0
  143.9217  140.1118  153.9426 H   0  0  0  0  0  0  0  0  0  0  0  0
  147.8228  139.5401  152.5576 H   0  0  0  0  0  0  0  0  0  0  0  0
  148.3035  138.4916  155.3774 H   0  0  0  0  0  0  0  0  0  0  0  0
  148.9634  137.8159  153.9077 H   0  0  0  0  0  0  0  0  0  0  0  0
  150.6399  139.2110  155.0534 H   0  0  0  0  0  0  0  0  0  0  0  0
  150.2762  139.8218  153.4582 H   0  0  0  0  0  0  0  0  0  0  0  0
  149.1767  140.9093  156.0955 H   0  0  0  0  0  0  0  0  0  0  0  0
  150.3538  141.6945  155.0681 H   0  0  0  0  0  0  0  0  0  0  0  0
  148.0646  142.6347  154.7170 H   0  0  0  0  0  0  0  0  0  0  0  0
  148.6912  141.9208  153.2505 H   0  0  0  0  0  0  0  0  0  0  0  0
  146.3548  141.2621  153.5926 H   0  0  0  0  0  0  0  0  0  0  0  0
  146.7053  140.6289  155.1801 H   0  0  0  0  0  0  0  0  0  0  0  0
  1  2  2  0  0  0  0
  2  3  1  0  0  0  0
  2 10  1  0  0  0  0
  3  4  1  0  0  0  0
  3 21  1  0  0  0  0
  4  9  1  0  0  0  0
  4  5  2  0  0  0  0
  5  6  1  0  0  0  0
  5 22  1  0  0  0  0
  6  7  2  0  0  0  0
  6 23  1  0  0  0  0
  7  8  1  0  0  0  0
  7 24  1  0  0  0  0
  8  9  2  0  0  0  0
  8 25  1  0  0  0  0
 10 11  1  0  0  0  0
 10 26  1  0  0  0  0
 11 12  1  0  0  0  0
 11 15  1  0  0  0  0
 11 27  1  0  0  0  0
 12 13  1  0  0  0  0
 12 28  1  0  0  0  0
 12 29  1  0  0  0  0
 13 14  1  0  0  0  0
 13 30  1  0  0  0  0
 13 31  1  0  0  0  0
 14 32  1  0  0  0  0
 15 20  1  0  0  0  0
 15 16  1  0  0  0  0
 15 33  1  0  0  0  0
 16 17  1  0  0  0  0
 16 34  1  0  0  0  0
 16 35  1  0  0  0  0
 17 18  1  0  0  0  0
 17 36  1  0  0  0  0
 17 37  1  0  0  0  0
 18 19  1  0  0  0  0
 18 38  1  0  0  0  0
 18 39  1  0  0  0  0
 19 20  1  0  0  0  0
 19 40  1  0  0  0  0
 19 41  1  0  0  0  0
 20 42  1  0  0  0  0
 20 43  1  0  0  0  0
M  END
> <s_m_source_file>
AV-unprocessed.smi

> <i_m_source_file_index>
2638

> <i_lp_mmshare_version>
43012

> <i_f3d_flags>
0

> <s_epik_input>
bjFbY0hdW2NIXVtjSF1bY0hdYzFbTkhdQyg9TylbTkhdW0NASF0oW0NIMl1bQ0gyXVtPSF0pW0NIXTJbQ0gyXVtDSDJdW0NIMl1bQ0gyXVtDSDJdMg==

> <s_epik_cmdline>
J2VwaWtfcHl0aG9uJywgJy1waCcsICc3LjAnLCAnLXRuJywgJzgnLCAnLW1hJywgJzIwMCcsICctbWV0YWxfYmluZGluZycsICctaW1hZScsICc8aW5maWxlLm1hZT4nLCAnLW9tYWUnLCAnPG91dGZpbGUubWFlPic=

> <r_lp_tautomer_probability>
1

> <r_epik_Ionization_Penalty>
5.22449e-05

> <r_epik_Ionization_Penalty_Charging>
0

> <r_epik_Ionization_Penalty_Neutral>
5.22449e-05

> <r_epik_State_Penalty>
-0

> <r_epik_Charging_Adjusted_Penalty>
0

> <i_epik_Tot_Q>
0

> <i_epik_Tot_abs_Q>
0

> <r_epik_Metal_State_Penalty>
-0

> <b_epik_Metal_Only>
0

> <s_lp_Force_Field>
OPLS_2005

> <r_lp_Energy>
21.512

> <b_lp_Chiralities_Consistent>
1

> <s_lp_Variant>
AV-unprocessed.smi:2638-2

> <Gold.Version>
5.8.1

> <Gold.Id.Protein>
6NUR|6NUR_protein|mol2

> <Gold.PLP.Fitness>
44.3078

> <Gold.PLP.PLP>
-33.8708

> <Gold.PLP.part.hbond>
-3.0000

> <Gold.PLP.part.metal>
0.0000

> <Gold.PLP.part.buried>
-4.2593

> <Gold.PLP.part.nonpolar>
-28.1565

> <Gold.PLP.part.repulsive>
0.4241

> <Gold.PLP.ligand.clash>
0.0000

> <Gold.PLP.ligand.torsion>
0.8006

> <Gold.PLP.Chemscore.Hbond>
3.0000

> <Gold.PLP.Chemscore.CHOScore>
0.9754

> <Gold.PLP.Chemscore.Metal>
0.0000

> <Gold.Chemscore.Hbonds>
donor molecule, donor type, donor heavy atom, donor atom, acceptor molecule, acceptor atom, score
      L1  H     3    21       P1  7948  1.00
      L1  H    10    26       P1  7948  1.00
      L1  H    14    32       P1 10175  0.94
      L1  C     8    25       P1 10747  0.91

> <Gold.PLP.Chemscore.Internal.Correction>
0.1120

> <Gold.Rescore>
     Score         DG    S(hbond)    S(metal)    S(lipo)     H(rot)  DE(clash)    DE(int)     intcor
     16.93     -19.14       2.95        0.00      82.75       2.30       0.04       2.17       ----

> <Gold.Chemscore.Fitness>
16.9326

> <Gold.Chemscore.DG>
-19.1389

> <Gold.Chemscore.ZeroCoef>
-5.4800

> <Gold.Chemscore.Hbond>
2.9516

> <Gold.Chemscore.Metal>
0.0000

> <Gold.Chemscore.Lipo>
82.7477

> <Gold.Chemscore.Internal_Hbond>
0.0000

> <Gold.Chemscore.DEClash>
0.0395

> <Gold.Chemscore.DEInternal>
2.1668

> <Gold.Chemscore.Rot>
2.2972

> <Gold.Chemscore.Internal.Correction>
   9.000000E+99

> <Gold.Chemscore.Hbonds>
donor molecule, donor type, donor heavy atom, donor atom, acceptor molecule, acceptor atom, score
      L1  H     3    21       P1  7948  0.94
      L1  H    10    26       P1  7948  1.00
      L1  H    14    32       P1 10175  0.90

> <Gold.Chemscore.Hbond.Weighted>
-9.8582

> <Gold.Chemscore.Metal.Weighted>
-0.0000

> <Gold.Chemscore.Lipo.Weighted>
-9.6815

> <Gold.Chemscore.Internal_Hbond.Weighted>
0.0000

> <Gold.Chemscore.DEClash.Weighted>
0.0395

> <Gold.Chemscore.DEInternal.Weighted>
2.1668

> <Gold.Chemscore.Rot.Weighted>
5.8807

> <Gold.Chemscore.Internal.Correction.Weighted>
   9.000000E+99

> <Gold.Protein.RotatedTorsions>
[ 6907 6896 6895 6894 ] final   36.54 input  -60.11 | X-H torsion
[ 7974 7965 7964 7962 ] final   58.30 input  175.53 | X-H torsion
[ 8008 7997 7996 7995 ] final   58.91 input   59.86 | X-H torsion
[ 10167 10162 10161 10158 ] final   94.41 input  -65.29 | X-H torsion
[ 10718 10713 10712 10709 ] final   28.26 input   66.30 | X-H torsion
[ 10763 10752 10751 10750 ] final   55.71 input  -60.55 | X-H torsion
[ 11005 11000 10999 10996 ] final  150.83 input  -57.11 | X-H torsion

> <Gold.Protein.ActiveResidues>
 VAL166  LYS551  ARG553  GLY616  TRP617  ASP618  TYR619  PRO620  LYS621  CYS622 
 ASP623  PHE694  ASN695  SER759  ASP760  ASP761  ALA762  ILE779  LEU786  VAL792 
 PHE793  MET794  SER795  GLU796  ALA797  LYS798  CYS799  TRP800  GLU811  SER814 

> <Gold.Protein.RotatedAtoms>
  152.1311  134.9134  160.0558 H   0  0  0  0  0  0  0  0  0  0  0  0  # atno 6907 bound_to 6896
  152.0238  133.3904  159.4277 H   0  0  0  0  0  0  0  0  0  0  0  0  # atno 6908 bound_to 6896
  150.6856  134.3518  159.4956 H   0  0  0  0  0  0  0  0  0  0  0  0  # atno 6909 bound_to 6896
  145.9196  139.3719  143.0486 H   0  0  0  0  0  0  0  0  0  0  0  0  # atno 7974 bound_to 7965
  155.5577  140.3487  155.4484 H   0  0  0  0  0  0  0  0  0  0  0  0  # atno 8008 bound_to 7997
  156.0537  140.1323  157.0047 H   0  0  0  0  0  0  0  0  0  0  0  0  # atno 8009 bound_to 7997
  154.4446  140.0999  156.6399 H   0  0  0  0  0  0  0  0  0  0  0  0  # atno 8010 bound_to 7997
  139.8087  144.6783  150.9669 H   0  0  0  0  0  0  0  0  0  0  0  0  # atno 10167 bound_to 10162
  157.2311  130.7024  149.6314 H   0  0  0  0  0  0  0  0  0  0  0  0  # atno 10718 bound_to 10713
  152.9821  135.5701  154.5110 H   0  0  0  0  0  0  0  0  0  0  0  0  # atno 10763 bound_to 10752
  154.4614  135.2781  155.1712 H   0  0  0  0  0  0  0  0  0  0  0  0  # atno 10764 bound_to 10752
  154.3298  135.6251  153.5599 H   0  0  0  0  0  0  0  0  0  0  0  0  # atno 10765 bound_to 10752
  140.1165  134.8891  157.2012 H   0  0  0  0  0  0  0  0  0  0  0  0  # atno 11005 bound_to 11000
  145.8566  140.9499  143.0722 LP  0  0  0  0  0  0  0  0  0  0  0  0  # atno 17320 bound_to 7965
  144.6751  140.0476  143.7479 LP  0  0  0  0  0  0  0  0  0  0  0  0  # atno 17321 bound_to 7965
  140.7818  143.4207  151.0845 LP  0  0  0  0  0  0  0  0  0  0  0  0  # atno 17342 bound_to 10162
  139.7875  143.8266  152.3147 LP  0  0  0  0  0  0  0  0  0  0  0  0  # atno 17343 bound_to 10162
  155.9675  130.4488  150.5635 LP  0  0  0  0  0  0  0  0  0  0  0  0  # atno 17370 bound_to 10713
  157.3477  131.0728  151.1738 LP  0  0  0  0  0  0  0  0  0  0  0  0  # atno 17371 bound_to 10713
  140.3021  134.3120  155.7287 LP  0  0  0  0  0  0  0  0  0  0  0  0  # atno 17394 bound_to 11000
  141.2142  133.7598  156.9656 LP  0  0  0  0  0  0  0  0  0  0  0  0  # atno 17395 bound_to 11000

$$$$
