AV-unprocessed.smi:1362|AV-procd|sdf|5562|dock1
  -GOLD-   22720 5153D 1   1.00000     0.00000
 Structure written by MMmdl.
 38 38  0  0  0  0  0  0  0  0  2 V2000
  146.9364  142.5075  153.3402 C   0  0  0  0  0  0  0  0  0  0  0  0
  147.7516  141.8751  154.4477 C   0  0  0  0  0  0  0  0  0  0  0  0
  147.3031  141.8978  155.6449 N   0  0  0  0  0  0  0  0  0  0  0  0
  148.0571  141.3138  156.6767 C   0  0  0  0  0  0  0  0  0  0  0  0
  147.4511  141.3895  158.0673 C   0  0  0  0  0  0  0  0  0  0  0  0
  149.2595  140.7219  156.4241 C   0  0  0  0  0  0  0  0  0  0  0  0
  150.1197  140.0778  157.5119 C   0  0  0  0  0  0  0  0  0  0  0  0
  151.4946  140.7065  157.7541 C   0  0  0  0  0  0  0  0  0  0  0  0
  152.5016  140.2514  157.2110 O   0  0  0  0  0  0  0  0  0  0  0  0
  151.5170  141.7597  158.5853 N   0  0  0  0  0  0  0  0  0  0  0  0
  152.7063  142.5219  158.9640 C   0  0  2  0  0  0  0  0  0  0  0  0
  153.1012  142.1419  160.4043 C   0  0  0  0  0  0  0  0  0  0  0  0
  152.4483  144.0410  158.7784 C   0  0  0  0  0  0  0  0  0  0  0  0
  151.5409  144.6187  159.8827 C   0  0  0  0  0  0  0  0  0  0  0  0
  151.8495  144.3711  157.3992 C   0  0  0  0  0  0  0  0  0  0  0  0
  149.7377  140.7108  155.0301 C   0  0  0  0  0  0  0  0  0  0  0  0
  150.8084  140.1756  154.7452 O   0  0  0  0  0  0  0  0  0  0  0  0
  148.9526  141.3061  154.0873 N   0  5  0  0  0  0  0  0  0  0  0  0
  145.9332  142.7595  153.6861 H   0  0  0  0  0  0  0  0  0  0  0  0
  146.8428  141.8229  152.4964 H   0  0  0  0  0  0  0  0  0  0  0  0
  147.4195  143.4211  152.9930 H   0  0  0  0  0  0  0  0  0  0  0  0
  148.0699  142.0070  158.7184 H   0  0  0  0  0  0  0  0  0  0  0  0
  147.3684  140.3949  158.5058 H   0  0  0  0  0  0  0  0  0  0  0  0
  146.4521  141.8262  158.0405 H   0  0  0  0  0  0  0  0  0  0  0  0
  149.5809  140.0503  158.4594 H   0  0  0  0  0  0  0  0  0  0  0  0
  150.2725  139.0303  157.2515 H   0  0  0  0  0  0  0  0  0  0  0  0
  150.6400  142.0613  158.9840 H   0  0  0  0  0  0  0  0  0  0  0  0
  153.5268  142.2406  158.3011 H   0  0  0  0  0  0  0  0  0  0  0  0
  154.0536  142.5849  160.6932 H   0  0  0  0  0  0  0  0  0  0  0  0
  153.2137  141.0624  160.5103 H   0  0  0  0  0  0  0  0  0  0  0  0
  152.3470  142.4669  161.1216 H   0  0  0  0  0  0  0  0  0  0  0  0
  153.4072  144.5568  158.8470 H   0  0  0  0  0  0  0  0  0  0  0  0
  150.5731  144.1168  159.9010 H   0  0  0  0  0  0  0  0  0  0  0  0
  151.3585  145.6821  159.7253 H   0  0  0  0  0  0  0  0  0  0  0  0
  151.9866  144.5176  160.8722 H   0  0  0  0  0  0  0  0  0  0  0  0
  150.9160  143.8325  157.2326 H   0  0  0  0  0  0  0  0  0  0  0  0
  152.5327  144.1190  156.5890 H   0  0  0  0  0  0  0  0  0  0  0  0
  151.6366  145.4367  157.3094 H   0  0  0  0  0  0  0  0  0  0  0  0
  1  2  1  0  0  0  0
  1 19  1  0  0  0  0
  1 20  1  0  0  0  0
  1 21  1  0  0  0  0
  2 18  1  0  0  0  0
  2  3  2  0  0  0  0
  3  4  1  0  0  0  0
  4  5  1  0  0  0  0
  4  6  2  0  0  0  0
  5 22  1  0  0  0  0
  5 23  1  0  0  0  0
  5 24  1  0  0  0  0
  6  7  1  0  0  0  0
  6 16  1  0  0  0  0
  7  8  1  0  0  0  0
  7 25  1  0  0  0  0
  7 26  1  0  0  0  0
  8  9  2  0  0  0  0
  8 10  1  0  0  0  0
 10 11  1  0  0  0  0
 10 27  1  0  0  0  0
 11 12  1  0  0  0  0
 11 13  1  0  0  0  0
 11 28  1  0  0  0  0
 12 29  1  0  0  0  0
 12 30  1  0  0  0  0
 12 31  1  0  0  0  0
 13 14  1  0  0  0  0
 13 15  1  0  0  0  0
 13 32  1  0  0  0  0
 14 33  1  0  0  0  0
 14 34  1  0  0  0  0
 14 35  1  0  0  0  0
 15 36  1  0  0  0  0
 15 37  1  0  0  0  0
 15 38  1  0  0  0  0
 16 17  2  0  0  0  0
 16 18  1  0  0  0  0
M  CHG  1  18  -1
M  END
> <s_m_source_file>
AV-unprocessed.smi

> <i_m_source_file_index>
1362

> <i_lp_mmshare_version>
43012

> <i_f3d_flags>
0

> <s_epik_input>
W0NIM11jMW5jKFtDSDNdKWMoYyg9TylbbkhdMSlbQ0gyXUMoPU8pW05IXVtDQEhdKFtDSDNdKVtDSF0oW0NIM10pW0NIM10=

> <s_epik_cmdline>
J2VwaWtfcHl0aG9uJywgJy1waCcsICc3LjAnLCAnLXRuJywgJzgnLCAnLW1hJywgJzIwMCcsICctbWV0YWxfYmluZGluZycsICctaW1hZScsICc8aW5maWxlLm1hZT4nLCAnLW9tYWUnLCAnPG91dGZpbGUubWFlPic=

> <r_lp_tautomer_probability>
0.839158

> <r_epik_Ionization_Penalty>
6.62204

> <r_epik_Ionization_Penalty_Charging>
7.30593e-08

> <r_epik_Ionization_Penalty_Neutral>
6.62204

> <r_epik_State_Penalty>
4.44062

> <r_epik_Charging_Adjusted_Penalty>
4.44062

> <i_epik_Tot_Q>
-1

> <i_epik_Tot_abs_Q>
1

> <r_epik_Metal_State_Penalty>
0.802984

> <b_epik_Metal_Only>
1

> <s_lp_Force_Field>
OPLS_2005

> <r_lp_Energy>
10.6651

> <b_lp_Chiralities_Consistent>
1

> <s_lp_Variant>
AV-unprocessed.smi:1362-5

> <Gold.Version>
5.8.1

> <Gold.Id.Protein>
6NUR|6NUR_protein|mol2

> <Gold.PLP.Fitness>
41.7589

> <Gold.PLP.PLP>
-35.3670

> <Gold.PLP.part.hbond>
-3.3786

> <Gold.PLP.part.metal>
0.0000

> <Gold.PLP.part.buried>
-3.3399

> <Gold.PLP.part.nonpolar>
-26.4415

> <Gold.PLP.part.repulsive>
0.5909

> <Gold.PLP.ligand.clash>
0.0000

> <Gold.PLP.ligand.torsion>
0.6331

> <Gold.PLP.Chemscore.Hbond>
2.5382

> <Gold.PLP.Chemscore.CHOScore>
0.0000

> <Gold.PLP.Chemscore.Metal>
0.0000

> <Gold.Chemscore.Hbonds>
donor molecule, donor type, donor heavy atom, donor atom, acceptor molecule, acceptor atom, score
      P1  H  7989  7998       L1    17  1.00
      P1  H  7997  8008       L1     9  1.00
      P1  H  8011  8017       L1    18  0.37

> <Gold.PLP.Chemscore.Internal.Correction>
0.0434

> <Gold.Rescore>
     Score         DG    S(hbond)    S(metal)    S(lipo)     H(rot)  DE(clash)    DE(int)     intcor
     15.92     -17.84       2.19        0.00      79.20       1.64       1.42       0.51       ----

> <Gold.Chemscore.Fitness>
15.9175

> <Gold.Chemscore.DG>
-17.8431

> <Gold.Chemscore.ZeroCoef>
-5.4800

> <Gold.Chemscore.Hbond>
2.1867

> <Gold.Chemscore.Metal>
0.0000

> <Gold.Chemscore.Lipo>
79.2009

> <Gold.Chemscore.Internal_Hbond>
0.0000

> <Gold.Chemscore.DEClash>
1.4152

> <Gold.Chemscore.DEInternal>
0.5104

> <Gold.Chemscore.Rot>
1.6433

> <Gold.Chemscore.Internal.Correction>
   9.000000E+99

> <Gold.Chemscore.Hbonds>
donor molecule, donor type, donor heavy atom, donor atom, acceptor molecule, acceptor atom, score
      P1  H  7989  7998       L1    17  0.90
      P1  H  7997  8008       L1     9  0.94
      P1  H  8011  8017       L1    18  0.25

> <Gold.Chemscore.Hbond.Weighted>
-7.3035

> <Gold.Chemscore.Metal.Weighted>
-0.0000

> <Gold.Chemscore.Lipo.Weighted>
-9.2665

> <Gold.Chemscore.Internal_Hbond.Weighted>
0.0000

> <Gold.Chemscore.DEClash.Weighted>
1.4152

> <Gold.Chemscore.DEInternal.Weighted>
0.5104

> <Gold.Chemscore.Rot.Weighted>
4.2069

> <Gold.Chemscore.Internal.Correction.Weighted>
   9.000000E+99

> <Gold.Protein.RotatedTorsions>
[ 6907 6896 6895 6894 ] final  163.84 input  -60.11 | X-H torsion
[ 7974 7965 7964 7962 ] final  166.54 input  175.53 | X-H torsion
[ 8008 7997 7996 7995 ] final  -62.10 input   59.86 | X-H torsion
[ 10167 10162 10161 10158 ] final -154.62 input  -65.29 | X-H torsion
[ 10718 10713 10712 10709 ] final -153.96 input   66.30 | X-H torsion
[ 10763 10752 10751 10750 ] final -100.15 input  -60.55 | X-H torsion
[ 11005 11000 10999 10996 ] final  -79.52 input  -57.11 | X-H torsion

> <Gold.Protein.ActiveResidues>
 VAL166  LYS551  ARG553  GLY616  TRP617  ASP618  TYR619  PRO620  LYS621  CYS622 
 ASP623  PHE694  ASN695  SER759  ASP760  ASP761  ALA762  ILE779  LEU786  VAL792 
 PHE793  MET794  SER795  GLU796  ALA797  LYS798  CYS799  TRP800  GLU811  SER814 

> <Gold.Protein.RotatedAtoms>
  151.9191  133.3581  159.3890 H   0  0  0  0  0  0  0  0  0  0  0  0  # atno 6907 bound_to 6896
  150.7041  134.4653  159.5409 H   0  0  0  0  0  0  0  0  0  0  0  0  # atno 6908 bound_to 6896
  152.2274  134.8355  160.0529 H   0  0  0  0  0  0  0  0  0  0  0  0  # atno 6909 bound_to 6896
  144.7458  139.8630  143.6382 H   0  0  0  0  0  0  0  0  0  0  0  0  # atno 7974 bound_to 7965
  154.4482  140.1003  156.6535 H   0  0  0  0  0  0  0  0  0  0  0  0  # atno 8008 bound_to 7997
  155.5372  140.3482  155.4420 H   0  0  0  0  0  0  0  0  0  0  0  0  # atno 8009 bound_to 7997
  156.0623  140.1329  156.9916 H   0  0  0  0  0  0  0  0  0  0  0  0  # atno 8010 bound_to 7997
  139.6998  143.9282  152.2423 H   0  0  0  0  0  0  0  0  0  0  0  0  # atno 10167 bound_to 10162
  156.4928  130.8355  151.2577 H   0  0  0  0  0  0  0  0  0  0  0  0  # atno 10718 bound_to 10713
  154.7556  135.4945  153.9369 H   0  0  0  0  0  0  0  0  0  0  0  0  # atno 10763 bound_to 10752
  153.1192  135.6728  153.9372 H   0  0  0  0  0  0  0  0  0  0  0  0  # atno 10764 bound_to 10752
  153.9109  135.3099  155.3427 H   0  0  0  0  0  0  0  0  0  0  0  0  # atno 10765 bound_to 10752
  141.1667  133.7109  156.8134 H   0  0  0  0  0  0  0  0  0  0  0  0  # atno 11005 bound_to 11000
  146.1335  139.4375  143.0154 LP  0  0  0  0  0  0  0  0  0  0  0  0  # atno 17320 bound_to 7965
  145.7127  141.0101  143.1444 LP  0  0  0  0  0  0  0  0  0  0  0  0  # atno 17321 bound_to 7965
  139.9121  144.6850  150.8551 LP  0  0  0  0  0  0  0  0  0  0  0  0  # atno 17342 bound_to 10162
  140.7706  143.3436  151.2157 LP  0  0  0  0  0  0  0  0  0  0  0  0  # atno 17343 bound_to 10162
  157.7472  131.0008  150.2938 LP  0  0  0  0  0  0  0  0  0  0  0  0  # atno 17370 bound_to 10713
  156.3409  130.3815  149.7409 LP  0  0  0  0  0  0  0  0  0  0  0  0  # atno 17371 bound_to 10713
  140.2171  134.8785  157.3337 LP  0  0  0  0  0  0  0  0  0  0  0  0  # atno 17394 bound_to 11000
  140.2026  134.4236  155.7654 LP  0  0  0  0  0  0  0  0  0  0  0  0  # atno 17395 bound_to 11000

$$$$
