AV-unprocessed.smi:2222|AV-procd|sdf|8986|dock1
  -GOLD-   2272012193D 1   1.00000     0.00000
 Structure written by MMmdl.
 34 35  0  0  0  0  0  0  0  0  1 V2000
  152.3913  145.3026  158.6949 C   0  0  0  0  0  0  0  0  0  0  0  0
  151.7861  144.1788  158.0725 O   0  0  0  0  0  0  0  0  0  0  0  0
  152.1884  142.9175  158.4668 C   0  0  0  0  0  0  0  0  0  0  0  0
  153.2212  142.6825  159.4101 C   0  0  0  0  0  0  0  0  0  0  0  0
  153.5616  141.3611  159.7471 C   0  0  0  0  0  0  0  0  0  0  0  0
  152.8554  140.3146  159.1280 C   0  0  0  0  0  0  0  0  0  0  0  0
  153.1710  138.8672  159.4401 C   0  0  0  0  0  0  0  0  0  0  0  0
  151.8720  140.5254  158.2303 N   0  0  0  0  0  0  0  0  0  0  0  0
  151.5329  141.7954  157.8969 C   0  0  0  0  0  0  0  0  0  0  0  0
  150.5087  142.0999  156.9589 N   0  0  0  0  0  0  0  0  0  0  0  0
  150.1822  141.4485  155.8249 C   0  0  0  0  0  0  0  0  0  0  0  0
  150.7177  140.4133  155.4326 O   0  0  0  0  0  0  0  0  0  0  0  0
  149.1655  142.0043  155.1418 N   0  0  0  0  0  0  0  0  0  0  0  0
  148.5838  141.5591  153.9097 C   0  0  1  0  0  0  0  0  0  0  0  0
  147.5552  140.4524  153.9965 C   0  0  0  0  0  0  0  0  0  0  0  0
  147.1190  141.8480  153.6367 C   0  0  1  0  0  0  0  0  0  0  0  0
  146.2670  142.6625  154.5906 C   0  0  0  0  0  0  0  0  0  0  0  0
  151.9730  146.2155  158.2716 H   0  0  0  0  0  0  0  0  0  0  0  0
  153.4681  145.3225  158.5215 H   0  0  0  0  0  0  0  0  0  0  0  0
  152.1966  145.3180  159.7681 H   0  0  0  0  0  0  0  0  0  0  0  0
  153.7604  143.4892  159.8827 H   0  0  0  0  0  0  0  0  0  0  0  0
  154.3460  141.1606  160.4623 H   0  0  0  0  0  0  0  0  0  0  0  0
  153.8782  138.7857  160.2658 H   0  0  0  0  0  0  0  0  0  0  0  0
  153.6067  138.3795  158.5677 H   0  0  0  0  0  0  0  0  0  0  0  0
  152.2632  138.3303  159.7167 H   0  0  0  0  0  0  0  0  0  0  0  0
  149.9642  142.9230  157.1708 H   0  0  0  0  0  0  0  0  0  0  0  0
  148.7140  142.7961  155.5766 H   0  0  0  0  0  0  0  0  0  0  0  0
  149.2362  141.5023  153.0395 H   0  0  0  0  0  0  0  0  0  0  0  0
  147.5509  139.7073  153.2036 H   0  0  0  0  0  0  0  0  0  0  0  0
  147.2949  140.0779  154.9850 H   0  0  0  0  0  0  0  0  0  0  0  0
  146.8670  142.0133  152.5909 H   0  0  0  0  0  0  0  0  0  0  0  0
  146.4900  142.4145  155.6286 H   0  0  0  0  0  0  0  0  0  0  0  0
  145.2108  142.4626  154.4095 H   0  0  0  0  0  0  0  0  0  0  0  0
  146.4502  143.7264  154.4395 H   0  0  0  0  0  0  0  0  0  0  0  0
  1  2  1  0  0  0  0
  1 18  1  0  0  0  0
  1 19  1  0  0  0  0
  1 20  1  0  0  0  0
  2  3  1  0  0  0  0
  3  9  1  0  0  0  0
  3  4  2  0  0  0  0
  4  5  1  0  0  0  0
  4 21  1  0  0  0  0
  5  6  2  0  0  0  0
  5 22  1  0  0  0  0
  6  7  1  0  0  0  0
  6  8  1  0  0  0  0
  7 23  1  0  0  0  0
  7 24  1  0  0  0  0
  7 25  1  0  0  0  0
  8  9  2  0  0  0  0
  9 10  1  0  0  0  0
 10 11  1  0  0  0  0
 10 26  1  0  0  0  0
 11 12  2  0  0  0  0
 11 13  1  0  0  0  0
 13 14  1  0  0  0  0
 13 27  1  0  0  0  0
 14 16  1  0  0  0  0
 14 15  1  0  0  0  0
 14 28  1  0  0  0  0
 15 16  1  0  0  0  0
 15 29  1  0  0  0  0
 15 30  1  0  0  0  0
 16 17  1  0  0  0  0
 16 31  1  0  0  0  0
 17 32  1  0  0  0  0
 17 33  1  0  0  0  0
 17 34  1  0  0  0  0
M  END
> <s_m_source_file>
AV-unprocessed.smi

> <i_m_source_file_index>
2222

> <i_lp_mmshare_version>
43012

> <i_f3d_flags>
0

> <s_epik_input>
W0NIM11PYzFbY0hdW2NIXWMoW0NIM10pbmMxW05IXUMoPU8pW05IXVtDQEBIXTJbQ0gyXVtDQEhdMltDSDNd

> <s_epik_cmdline>
J2VwaWtfcHl0aG9uJywgJy1waCcsICc3LjAnLCAnLXRuJywgJzgnLCAnLW1hJywgJzIwMCcsICctbWV0YWxfYmluZGluZycsICctaW1hZScsICc8aW5maWxlLm1hZT4nLCAnLW9tYWUnLCAnPG91dGZpbGUubWFlPic=

> <r_lp_tautomer_probability>
1

> <r_epik_Ionization_Penalty>
6.59103e-05

> <r_epik_Ionization_Penalty_Charging>
0

> <r_epik_Ionization_Penalty_Neutral>
6.59103e-05

> <r_epik_State_Penalty>
-0

> <r_epik_Charging_Adjusted_Penalty>
0

> <i_epik_Tot_Q>
0

> <i_epik_Tot_abs_Q>
0

> <r_epik_Metal_State_Penalty>
-0

> <b_epik_Metal_Only>
0

> <s_lp_Force_Field>
OPLS_2005

> <r_lp_Energy>
34.1661

> <b_lp_Chiralities_Consistent>
1

> <s_lp_Variant>
AV-unprocessed.smi:2222-2

> <Gold.Version>
5.8.1

> <Gold.Id.Protein>
6NUR|6NUR_protein|mol2

> <Gold.PLP.Fitness>
40.3429

> <Gold.PLP.PLP>
-36.5399

> <Gold.PLP.part.hbond>
-2.0000

> <Gold.PLP.part.metal>
0.0000

> <Gold.PLP.part.buried>
-4.6440

> <Gold.PLP.part.nonpolar>
-29.2081

> <Gold.PLP.part.repulsive>
0.3782

> <Gold.PLP.ligand.clash>
0.0000

> <Gold.PLP.ligand.torsion>
0.6253

> <Gold.PLP.Chemscore.Hbond>
1.6715

> <Gold.PLP.Chemscore.CHOScore>
0.0000

> <Gold.PLP.Chemscore.Metal>
0.0000

> <Gold.Chemscore.Hbonds>
donor molecule, donor type, donor heavy atom, donor atom, acceptor molecule, acceptor atom, score
      L1  H    13    27       P1  8028  0.80
      P1  H  7989  7998       L1    12  0.62

> <Gold.PLP.Chemscore.Internal.Correction>
0.0392

> <Gold.Rescore>
     Score         DG    S(hbond)    S(metal)    S(lipo)     H(rot)  DE(clash)    DE(int)     intcor
     16.10     -18.16       1.68        0.00      87.03       1.22       0.41       1.65       ----

> <Gold.Chemscore.Fitness>
16.1032

> <Gold.Chemscore.DG>
-18.1632

> <Gold.Chemscore.ZeroCoef>
-5.4800

> <Gold.Chemscore.Hbond>
1.6814

> <Gold.Chemscore.Metal>
0.0000

> <Gold.Chemscore.Lipo>
87.0297

> <Gold.Chemscore.Internal_Hbond>
0.0000

> <Gold.Chemscore.DEClash>
0.4073

> <Gold.Chemscore.DEInternal>
1.6527

> <Gold.Chemscore.Rot>
1.2168

> <Gold.Chemscore.Internal.Correction>
   9.000000E+99

> <Gold.Chemscore.Hbonds>
donor molecule, donor type, donor heavy atom, donor atom, acceptor molecule, acceptor atom, score
      L1  H    13    27       P1  8028  0.79
      P1  H  7989  7998       L1    12  0.33

> <Gold.Chemscore.Hbond.Weighted>
-5.6157

> <Gold.Chemscore.Metal.Weighted>
-0.0000

> <Gold.Chemscore.Lipo.Weighted>
-10.1825

> <Gold.Chemscore.Internal_Hbond.Weighted>
0.0000

> <Gold.Chemscore.DEClash.Weighted>
0.4073

> <Gold.Chemscore.DEInternal.Weighted>
1.6527

> <Gold.Chemscore.Rot.Weighted>
3.1150

> <Gold.Chemscore.Internal.Correction.Weighted>
   9.000000E+99

> <Gold.Protein.RotatedTorsions>
[ 6907 6896 6895 6894 ] final   31.81 input  -60.11 | X-H torsion
[ 7974 7965 7964 7962 ] final   68.39 input  175.53 | X-H torsion
[ 8008 7997 7996 7995 ] final  170.61 input   59.86 | X-H torsion
[ 10167 10162 10161 10158 ] final  -87.89 input  -65.29 | X-H torsion
[ 10718 10713 10712 10709 ] final -147.42 input   66.30 | X-H torsion
[ 10763 10752 10751 10750 ] final   -4.56 input  -60.55 | X-H torsion
[ 11005 11000 10999 10996 ] final  -90.99 input  -57.11 | X-H torsion

> <Gold.Protein.ActiveResidues>
 VAL166  LYS551  ARG553  GLY616  TRP617  ASP618  TYR619  PRO620  LYS621  CYS622 
 ASP623  PHE694  ASN695  SER759  ASP760  ASP761  ALA762  ILE779  LEU786  VAL792 
 PHE793  MET794  SER795  GLU796  ALA797  LYS798  CYS799  TRP800  GLU811  SER814 

> <Gold.Protein.RotatedAtoms>
  152.0655  134.9567  160.0574 H   0  0  0  0  0  0  0  0  0  0  0  0  # atno 6907 bound_to 6896
  152.0913  133.4197  159.4553 H   0  0  0  0  0  0  0  0  0  0  0  0  # atno 6908 bound_to 6896
  150.6837  134.2788  159.4662 H   0  0  0  0  0  0  0  0  0  0  0  0  # atno 6909 bound_to 6896
  145.8031  139.2993  143.1143 H   0  0  0  0  0  0  0  0  0  0  0  0  # atno 7974 bound_to 7965
  156.1349  140.1533  156.9009 H   0  0  0  0  0  0  0  0  0  0  0  0  # atno 8008 bound_to 7997
  154.4939  140.0843  156.7694 H   0  0  0  0  0  0  0  0  0  0  0  0  # atno 8009 bound_to 7997
  155.4187  140.3422  155.4272 H   0  0  0  0  0  0  0  0  0  0  0  0  # atno 8010 bound_to 7997
  140.3800  143.2753  151.9395 H   0  0  0  0  0  0  0  0  0  0  0  0  # atno 10167 bound_to 10162
  156.4073  130.7964  151.2179 H   0  0  0  0  0  0  0  0  0  0  0  0  # atno 10718 bound_to 10713
  153.3865  135.7000  153.6526 H   0  0  0  0  0  0  0  0  0  0  0  0  # atno 10763 bound_to 10752
  153.5116  135.3630  155.2590 H   0  0  0  0  0  0  0  0  0  0  0  0  # atno 10764 bound_to 10752
  154.8698  135.4136  154.3173 H   0  0  0  0  0  0  0  0  0  0  0  0  # atno 10765 bound_to 10752
  141.1554  133.7727  156.9816 H   0  0  0  0  0  0  0  0  0  0  0  0  # atno 11005 bound_to 11000
  145.9856  140.8646  143.0092 LP  0  0  0  0  0  0  0  0  0  0  0  0  # atno 17320 bound_to 7965
  144.6766  140.2143  143.7373 LP  0  0  0  0  0  0  0  0  0  0  0  0  # atno 17321 bound_to 7965
  139.4796  144.5827  151.7905 LP  0  0  0  0  0  0  0  0  0  0  0  0  # atno 17342 bound_to 10162
  140.4947  144.1258  150.5957 LP  0  0  0  0  0  0  0  0  0  0  0  0  # atno 17343 bound_to 10162
  157.7506  131.0268  150.3979 LP  0  0  0  0  0  0  0  0  0  0  0  0  # atno 17370 bound_to 10713
  156.4270  130.3964  149.6786 LP  0  0  0  0  0  0  0  0  0  0  0  0  # atno 17371 bound_to 10713
  140.1062  134.9505  157.1997 LP  0  0  0  0  0  0  0  0  0  0  0  0  # atno 17394 bound_to 11000
  140.3253  134.2870  155.7238 LP  0  0  0  0  0  0  0  0  0  0  0  0  # atno 17395 bound_to 11000

$$$$
