AV-unprocessed.smi:671|AV-procd|sdf|3278|dock8
  -GOLD-   22720 0233D 1   1.00000     0.00000
 Structure written by MMmdl.
 49 50  0  0  0  0  0  0  0  0  1 V2000
  152.7124  138.2968  154.7751 C   0  0  0  0  0  0  0  0  0  0  0  0
  152.0294  139.2450  155.7190 C   0  0  0  0  0  0  0  0  0  0  0  0
  152.5793  139.4725  156.8998 N   0  0  0  0  0  0  0  0  0  0  0  0
  151.7492  140.3438  157.5058 N   0  0  0  0  0  0  0  0  0  0  0  0
  152.0627  140.8114  158.8421 C   0  0  0  0  0  0  0  0  0  0  0  0
  150.6704  140.6673  156.7068 C   0  0  0  0  0  0  0  0  0  0  0  0
  149.6058  141.6158  157.1568 C   0  0  0  0  0  0  0  0  0  0  0  0
  150.8135  139.9705  155.5368 C   0  0  0  0  0  0  0  0  0  0  0  0
  149.8998  139.9715  154.3359 C   0  0  0  0  0  0  0  0  0  0  0  0
  148.5336  139.3205  154.6294 C   0  0  1  0  0  0  0  0  0  0  0  0
  147.3958  140.0466  153.8985 C   0  0  0  0  0  0  0  0  0  0  0  0
  148.5388  137.9119  154.2204 N   0  0  0  0  0  0  0  0  0  0  0  0
  148.2697  136.8076  154.9406 C   0  0  0  0  0  0  0  0  0  0  0  0
  147.9546  136.8752  156.1270 O   0  0  0  0  0  0  0  0  0  0  0  0
  148.3624  135.6494  154.2674 N   0  0  0  0  0  0  0  0  0  0  0  0
  148.1444  134.3224  154.8434 C   0  0  2  0  0  0  0  0  0  0  0  0
  149.4775  133.5528  154.9739 C   0  0  0  0  0  0  0  0  0  0  0  0
  149.3508  132.2975  154.1027 C   0  0  0  0  0  0  0  0  0  0  0  0
  148.2152  132.5996  153.1285 C   0  0  0  0  0  0  0  0  0  0  0  0
  147.2411  133.4402  153.9545 C   0  0  2  0  0  0  0  0  0  0  0  0
  146.1809  134.1708  153.1161 C   0  0  0  0  0  0  0  0  0  0  0  0
  152.5674  137.2633  155.0899 H   0  0  0  0  0  0  0  0  0  0  0  0
  153.7857  138.4850  154.7338 H   0  0  0  0  0  0  0  0  0  0  0  0
  152.3244  138.3902  153.7611 H   0  0  0  0  0  0  0  0  0  0  0  0
  151.1789  140.7376  159.4761 H   0  0  0  0  0  0  0  0  0  0  0  0
  152.3850  141.8519  158.7983 H   0  0  0  0  0  0  0  0  0  0  0  0
  152.8589  140.2099  159.2828 H   0  0  0  0  0  0  0  0  0  0  0  0
  148.8474  141.7572  156.3872 H   0  0  0  0  0  0  0  0  0  0  0  0
  150.0310  142.5919  157.3908 H   0  0  0  0  0  0  0  0  0  0  0  0
  149.1053  141.2428  158.0503 H   0  0  0  0  0  0  0  0  0  0  0  0
  149.7380  140.9947  153.9961 H   0  0  0  0  0  0  0  0  0  0  0  0
  150.3681  139.4692  153.4889 H   0  0  0  0  0  0  0  0  0  0  0  0
  148.3323  139.4278  155.6960 H   0  0  0  0  0  0  0  0  0  0  0  0
  147.3424  141.0941  154.1969 H   0  0  0  0  0  0  0  0  0  0  0  0
  146.4308  139.5921  154.1255 H   0  0  0  0  0  0  0  0  0  0  0  0
  147.5331  140.0152  152.8169 H   0  0  0  0  0  0  0  0  0  0  0  0
  148.7415  137.7541  153.2439 H   0  0  0  0  0  0  0  0  0  0  0  0
  148.6139  135.6865  153.2904 H   0  0  0  0  0  0  0  0  0  0  0  0
  147.6724  134.4360  155.8214 H   0  0  0  0  0  0  0  0  0  0  0  0
  150.3190  134.1566  154.6305 H   0  0  0  0  0  0  0  0  0  0  0  0
  149.6832  133.2869  156.0112 H   0  0  0  0  0  0  0  0  0  0  0  0
  150.2817  132.0464  153.5934 H   0  0  0  0  0  0  0  0  0  0  0  0
  149.0770  131.4462  154.7276 H   0  0  0  0  0  0  0  0  0  0  0  0
  148.5949  133.1813  152.2872 H   0  0  0  0  0  0  0  0  0  0  0  0
  147.7556  131.6946  152.7299 H   0  0  0  0  0  0  0  0  0  0  0  0
  146.7131  132.7547  154.6196 H   0  0  0  0  0  0  0  0  0  0  0  0
  146.6357  134.8252  152.3729 H   0  0  0  0  0  0  0  0  0  0  0  0
  145.5353  134.7768  153.7517 H   0  0  0  0  0  0  0  0  0  0  0  0
  145.5479  133.4611  152.5832 H   0  0  0  0  0  0  0  0  0  0  0  0
  1  2  1  0  0  0  0
  1 22  1  0  0  0  0
  1 23  1  0  0  0  0
  1 24  1  0  0  0  0
  2  8  1  0  0  0  0
  2  3  2  0  0  0  0
  3  4  1  0  0  0  0
  4  5  1  0  0  0  0
  4  6  1  0  0  0  0
  5 25  1  0  0  0  0
  5 26  1  0  0  0  0
  5 27  1  0  0  0  0
  6  7  1  0  0  0  0
  6  8  2  0  0  0  0
  7 28  1  0  0  0  0
  7 29  1  0  0  0  0
  7 30  1  0  0  0  0
  8  9  1  0  0  0  0
  9 10  1  0  0  0  0
  9 31  1  0  0  0  0
  9 32  1  0  0  0  0
 10 11  1  0  0  0  0
 10 12  1  0  0  0  0
 10 33  1  0  0  0  0
 11 34  1  0  0  0  0
 11 35  1  0  0  0  0
 11 36  1  0  0  0  0
 12 13  1  0  0  0  0
 12 37  1  0  0  0  0
 13 14  2  0  0  0  0
 13 15  1  0  0  0  0
 15 16  1  0  0  0  0
 15 38  1  0  0  0  0
 16 20  1  0  0  0  0
 16 17  1  0  0  0  0
 16 39  1  0  0  0  0
 17 18  1  0  0  0  0
 17 40  1  0  0  0  0
 17 41  1  0  0  0  0
 18 19  1  0  0  0  0
 18 42  1  0  0  0  0
 18 43  1  0  0  0  0
 19 20  1  0  0  0  0
 19 44  1  0  0  0  0
 19 45  1  0  0  0  0
 20 21  1  0  0  0  0
 20 46  1  0  0  0  0
 21 47  1  0  0  0  0
 21 48  1  0  0  0  0
 21 49  1  0  0  0  0
M  END
> <s_m_source_file>
AV-unprocessed.smi

> <i_m_source_file_index>
671

> <i_lp_mmshare_version>
43012

> <i_f3d_flags>
0

> <s_epik_input>
W0NIM11jMW5uKFtDSDNdKWMoW0NIM10pYzFbQ0gyXVtDQEhdKFtDSDNdKVtOSF1DKD1PKVtOSF1bQ0BASF0yW0NIMl1bQ0gyXVtDSDJdW0NASF0yW0NIM10=

> <s_epik_cmdline>
J2VwaWtfcHl0aG9uJywgJy1waCcsICc3LjAnLCAnLXRuJywgJzgnLCAnLW1hJywgJzIwMCcsICctbWV0YWxfYmluZGluZycsICctaW1hZScsICc8aW5maWxlLm1hZT4nLCAnLW9tYWUnLCAnPG91dGZpbGUubWFlPic=

> <r_lp_tautomer_probability>
1

> <r_epik_Ionization_Penalty>
0.0126855

> <r_epik_Ionization_Penalty_Charging>
0

> <r_epik_Ionization_Penalty_Neutral>
0.0126855

> <r_epik_State_Penalty>
0.00977547

> <r_epik_Charging_Adjusted_Penalty>
0.00977547

> <i_epik_Tot_Q>
0

> <i_epik_Tot_abs_Q>
0

> <r_epik_Metal_State_Penalty>
0.00957132

> <b_epik_Metal_Only>
0

> <s_lp_Force_Field>
OPLS_2005

> <r_lp_Energy>
22.0359

> <b_lp_Chiralities_Consistent>
1

> <s_lp_Variant>
AV-unprocessed.smi:671-6

> <Gold.Version>
5.8.1

> <Gold.Id.Protein>
6NUR|6NUR_protein|mol2

> <Gold.PLP.Fitness>
41.8847

> <Gold.PLP.PLP>
-34.7784

> <Gold.PLP.part.hbond>
-2.9817

> <Gold.PLP.part.metal>
0.0000

> <Gold.PLP.part.buried>
-1.3682

> <Gold.PLP.part.nonpolar>
-31.1578

> <Gold.PLP.part.repulsive>
0.0289

> <Gold.PLP.ligand.clash>
0.0000

> <Gold.PLP.ligand.torsion>
0.7183

> <Gold.PLP.Chemscore.Hbond>
2.8406

> <Gold.PLP.Chemscore.CHOScore>
0.0000

> <Gold.PLP.Chemscore.Metal>
0.0000

> <Gold.Chemscore.Hbonds>
donor molecule, donor type, donor heavy atom, donor atom, acceptor molecule, acceptor atom, score
      L1  H    12    37       P1  7948  0.81
      L1  H    15    38       P1  7948  1.00
      P1  H  7997  8008       L1     3  1.00

> <Gold.PLP.Chemscore.Internal.Correction>
0.0211

> <Gold.Rescore>
     Score         DG    S(hbond)    S(metal)    S(lipo)     H(rot)  DE(clash)    DE(int)     intcor
     20.01     -21.42       2.83        0.00      87.08       1.45       0.72       0.69       ----

> <Gold.Chemscore.Fitness>
20.0054

> <Gold.Chemscore.DG>
-21.4161

> <Gold.Chemscore.ZeroCoef>
-5.4800

> <Gold.Chemscore.Hbond>
2.8323

> <Gold.Chemscore.Metal>
0.0000

> <Gold.Chemscore.Lipo>
87.0776

> <Gold.Chemscore.Internal_Hbond>
0.0000

> <Gold.Chemscore.DEClash>
0.7225

> <Gold.Chemscore.DEInternal>
0.6882

> <Gold.Chemscore.Rot>
1.4499

> <Gold.Chemscore.Internal.Correction>
   9.000000E+99

> <Gold.Chemscore.Hbonds>
donor molecule, donor type, donor heavy atom, donor atom, acceptor molecule, acceptor atom, score
      L1  H    12    37       P1  7948  0.75
      L1  H    15    38       P1  7948  0.94
      P1  H  7997  8008       L1     3  0.60

> <Gold.Chemscore.Hbond.Weighted>
-9.4599

> <Gold.Chemscore.Metal.Weighted>
-0.0000

> <Gold.Chemscore.Lipo.Weighted>
-10.1881

> <Gold.Chemscore.Internal_Hbond.Weighted>
0.0000

> <Gold.Chemscore.DEClash.Weighted>
0.7225

> <Gold.Chemscore.DEInternal.Weighted>
0.6882

> <Gold.Chemscore.Rot.Weighted>
3.7118

> <Gold.Chemscore.Internal.Correction.Weighted>
   9.000000E+99

> <Gold.Protein.RotatedTorsions>
[ 6907 6896 6895 6894 ] final  -56.38 input  -60.11 | X-H torsion
[ 7974 7965 7964 7962 ] final  -11.99 input  175.53 | X-H torsion
[ 8008 7997 7996 7995 ] final  -59.07 input   59.86 | X-H torsion
[ 10167 10162 10161 10158 ] final  149.47 input  -65.29 | X-H torsion
[ 10718 10713 10712 10709 ] final   50.21 input   66.30 | X-H torsion
[ 10763 10752 10751 10750 ] final   36.82 input  -60.55 | X-H torsion
[ 11005 11000 10999 10996 ] final  138.79 input  -57.11 | X-H torsion

> <Gold.Protein.ActiveResidues>
 VAL166  LYS551  ARG553  GLY616  TRP617  ASP618  TYR619  PRO620  LYS621  CYS622 
 ASP623  PHE694  ASN695  SER759  ASP760  ASP761  ALA762  ILE779  LEU786  VAL792 
 PHE793  MET794  SER795  GLU796  ALA797  LYS798  CYS799  TRP800  GLU811  SER814 

> <Gold.Protein.RotatedAtoms>
  150.8172  134.7360  159.6740 H   0  0  0  0  0  0  0  0  0  0  0  0  # atno 6907 bound_to 6896
  152.4290  134.5810  159.9957 H   0  0  0  0  0  0  0  0  0  0  0  0  # atno 6908 bound_to 6896
  151.6004  133.3319  159.3082 H   0  0  0  0  0  0  0  0  0  0  0  0  # atno 6909 bound_to 6896
  146.2168  140.2992  142.8374 H   0  0  0  0  0  0  0  0  0  0  0  0  # atno 7974 bound_to 7965
  154.4336  140.1070  156.6057 H   0  0  0  0  0  0  0  0  0  0  0  0  # atno 8008 bound_to 7997
  155.5863  140.3491  155.4535 H   0  0  0  0  0  0  0  0  0  0  0  0  # atno 8009 bound_to 7997
  156.0280  140.1254  157.0277 H   0  0  0  0  0  0  0  0  0  0  0  0  # atno 8010 bound_to 7997
  139.4861  144.5599  151.7250 H   0  0  0  0  0  0  0  0  0  0  0  0  # atno 10167 bound_to 10162
  157.4863  130.8347  149.8150 H   0  0  0  0  0  0  0  0  0  0  0  0  # atno 10718 bound_to 10713
  153.0061  135.6295  154.2047 H   0  0  0  0  0  0  0  0  0  0  0  0  # atno 10763 bound_to 10752
  154.1790  135.2814  155.3059 H   0  0  0  0  0  0  0  0  0  0  0  0  # atno 10764 bound_to 10752
  154.5849  135.5636  153.7281 H   0  0  0  0  0  0  0  0  0  0  0  0  # atno 10765 bound_to 10752
  140.0209  134.9397  157.0471 H   0  0  0  0  0  0  0  0  0  0  0  0  # atno 11005 bound_to 11000
  144.9070  140.7711  143.5831 LP  0  0  0  0  0  0  0  0  0  0  0  0  # atno 17320 bound_to 7965
  145.2920  139.1880  143.4735 LP  0  0  0  0  0  0  0  0  0  0  0  0  # atno 17321 bound_to 7965
  140.5167  144.0942  150.6010 LP  0  0  0  0  0  0  0  0  0  0  0  0  # atno 17342 bound_to 10162
  140.3886  143.2764  152.0086 LP  0  0  0  0  0  0  0  0  0  0  0  0  # atno 17343 bound_to 10162
  156.0148  130.3818  150.2145 LP  0  0  0  0  0  0  0  0  0  0  0  0  # atno 17370 bound_to 10713
  157.0332  131.0013  151.3306 LP  0  0  0  0  0  0  0  0  0  0  0  0  # atno 17371 bound_to 10713
  140.4389  134.1701  155.7172 LP  0  0  0  0  0  0  0  0  0  0  0  0  # atno 17394 bound_to 11000
  141.1773  133.8488  157.1379 LP  0  0  0  0  0  0  0  0  0  0  0  0  # atno 17395 bound_to 11000

$$$$
