AV-unprocessed.smi:178|AV-procd|sdf|1448|dock5
  -GOLD-   2262019243D 1   1.00000     0.00000
 Structure written by MMmdl.
 50 52  0  0  0  0  0  0  0  0  1 V2000
  145.6620  132.1960  149.6312 C   0  0  0  0  0  0  0  0  0  0  0  0
  146.0465  132.3617  150.9867 O   0  0  0  0  0  0  0  0  0  0  0  0
  145.2328  133.2666  151.7243 C   0  0  0  0  0  0  0  0  0  0  0  0
  145.4539  134.7472  151.3393 C   0  0  0  0  0  0  0  0  0  0  0  0
  144.9286  135.7039  152.3149 N   0  0  0  0  0  0  0  0  0  0  0  0
  143.4834  135.9122  152.2568 C   0  0  0  0  0  0  0  0  0  0  0  0
  142.8946  136.4633  153.5653 C   0  0  0  0  0  0  0  0  0  0  0  0
  141.5740  135.8921  153.8673 C   0  0  0  0  0  0  0  0  0  0  0  0
  140.5351  135.4421  154.1052 N   0  0  0  0  0  0  0  0  0  0  0  0
  145.6259  136.8611  152.3653 C   0  0  0  0  0  0  0  0  0  0  0  0
  145.7801  137.5428  151.2036 N   0  0  0  0  0  0  0  0  0  0  0  0
  146.4325  138.7090  151.1971 C   0  0  0  0  0  0  0  0  0  0  0  0
  146.9944  139.3577  152.2196 N   0  0  0  0  0  0  0  0  0  0  0  0
  146.8447  138.6693  153.3879 C   0  0  0  0  0  0  0  0  0  0  0  0
  146.1866  137.4186  153.5490 C   0  0  0  0  0  0  0  0  0  0  0  0
  146.2378  137.0221  154.8798 N   0  0  0  0  0  0  0  0  0  0  0  0
  146.8833  137.9886  155.4735 C   0  0  0  0  0  0  0  0  0  0  0  0
  147.2751  139.0237  154.6544 N   0  0  0  0  0  0  0  0  0  0  0  0
  147.9926  140.2257  155.0507 C   0  0  0  0  0  0  0  0  0  0  0  0
  149.4822  140.2212  154.6171 C   0  0  2  0  0  0  0  0  0  0  0  0
  149.5697  140.8802  153.3642 O   0  0  0  0  0  0  0  0  0  0  0  0
  150.0707  138.8236  154.4506 C   0  0  0  0  0  0  0  0  0  0  0  0
  151.5535  139.0490  154.7033 C   0  0  0  0  0  0  0  0  0  0  0  0
  151.5471  139.9770  155.7740 O   0  0  0  0  0  0  0  0  0  0  0  0
  150.4874  140.9121  155.5812 C   0  0  2  0  0  0  0  0  0  0  0  0
  149.9581  141.2937  156.9726 C   0  0  0  0  0  0  0  0  0  0  0  0
  146.3179  131.4654  149.1580 H   0  0  0  0  0  0  0  0  0  0  0  0
  145.7431  133.1239  149.0662 H   0  0  0  0  0  0  0  0  0  0  0  0
  144.6389  131.8266  149.5535 H   0  0  0  0  0  0  0  0  0  0  0  0
  144.1838  132.9986  151.5905 H   0  0  0  0  0  0  0  0  0  0  0  0
  145.4439  133.1321  152.7857 H   0  0  0  0  0  0  0  0  0  0  0  0
  146.5020  134.9541  151.1264 H   0  0  0  0  0  0  0  0  0  0  0  0
  144.9248  134.9259  150.4027 H   0  0  0  0  0  0  0  0  0  0  0  0
  143.2389  136.5783  151.4285 H   0  0  0  0  0  0  0  0  0  0  0  0
  143.0068  134.9575  152.0322 H   0  0  0  0  0  0  0  0  0  0  0  0
  143.5533  136.2393  154.4046 H   0  0  0  0  0  0  0  0  0  0  0  0
  142.7776  137.5463  153.5213 H   0  0  0  0  0  0  0  0  0  0  0  0
  146.5113  139.1946  150.2357 H   0  0  0  0  0  0  0  0  0  0  0  0
  147.0851  137.9785  156.5348 H   0  0  0  0  0  0  0  0  0  0  0  0
  147.4745  141.0874  154.6275 H   0  0  0  0  0  0  0  0  0  0  0  0
  147.9082  140.3163  156.1337 H   0  0  0  0  0  0  0  0  0  0  0  0
  149.4350  140.2413  152.6810 H   0  0  0  0  0  0  0  0  0  0  0  0
  149.6816  138.1584  155.2223 H   0  0  0  0  0  0  0  0  0  0  0  0
  149.8622  138.3674  153.4818 H   0  0  0  0  0  0  0  0  0  0  0  0
  152.0820  138.1328  154.9673 H   0  0  0  0  0  0  0  0  0  0  0  0
  152.0400  139.4923  153.8330 H   0  0  0  0  0  0  0  0  0  0  0  0
  150.9089  141.8060  155.1176 H   0  0  0  0  0  0  0  0  0  0  0  0
  149.1479  142.0199  156.9060 H   0  0  0  0  0  0  0  0  0  0  0  0
  150.7488  141.7428  157.5742 H   0  0  0  0  0  0  0  0  0  0  0  0
  149.5927  140.4210  157.5145 H   0  0  0  0  0  0  0  0  0  0  0  0
  1  2  1  0  0  0  0
  1 27  1  0  0  0  0
  1 28  1  0  0  0  0
  1 29  1  0  0  0  0
  2  3  1  0  0  0  0
  3  4  1  0  0  0  0
  3 30  1  0  0  0  0
  3 31  1  0  0  0  0
  4  5  1  0  0  0  0
  4 32  1  0  0  0  0
  4 33  1  0  0  0  0
  5  6  1  0  0  0  0
  5 10  1  0  0  0  0
  6  7  1  0  0  0  0
  6 34  1  0  0  0  0
  6 35  1  0  0  0  0
  7  8  1  0  0  0  0
  7 36  1  0  0  0  0
  7 37  1  0  0  0  0
  8  9  3  0  0  0  0
 10 15  1  0  0  0  0
 10 11  2  0  0  0  0
 11 12  1  0  0  0  0
 12 13  2  0  0  0  0
 12 38  1  0  0  0  0
 13 14  1  0  0  0  0
 14 18  1  0  0  0  0
 14 15  2  0  0  0  0
 15 16  1  0  0  0  0
 16 17  2  0  0  0  0
 17 18  1  0  0  0  0
 17 39  1  0  0  0  0
 18 19  1  0  0  0  0
 19 20  1  0  0  0  0
 19 40  1  0  0  0  0
 19 41  1  0  0  0  0
 20 25  1  0  0  0  0
 20 21  1  0  0  0  0
 20 22  1  0  0  0  0
 21 42  1  0  0  0  0
 22 23  1  0  0  0  0
 22 43  1  0  0  0  0
 22 44  1  0  0  0  0
 23 24  1  0  0  0  0
 23 45  1  0  0  0  0
 23 46  1  0  0  0  0
 24 25  1  0  0  0  0
 25 26  1  0  0  0  0
 25 47  1  0  0  0  0
 26 48  1  0  0  0  0
 26 49  1  0  0  0  0
 26 50  1  0  0  0  0
M  END
> <s_m_source_file>
AV-unprocessed.smi

> <i_m_source_file_index>
178

> <i_lp_mmshare_version>
43012

> <i_f3d_flags>
0

> <s_epik_input>
W0NIM11PW0NIMl1bQ0gyXU4oW0NIMl1bQ0gyXUMjTiljKG5bY0hdbjEpYyhjMTIpbltjSF1uMltDSDJdW0NAQF0zKFtPSF0pW0NIMl1bQ0gyXU9bQ0BIXTNbQ0gzXQ==

> <s_epik_cmdline>
J2VwaWtfcHl0aG9uJywgJy1waCcsICc3LjAnLCAnLXRuJywgJzgnLCAnLW1hJywgJzIwMCcsICctbWV0YWxfYmluZGluZycsICctaW1hZScsICc8aW5maWxlLm1hZT4nLCAnLW9tYWUnLCAnPG91dGZpbGUubWFlPic=

> <r_lp_tautomer_probability>
1

> <r_epik_Ionization_Penalty>
0.000885317

> <r_epik_Ionization_Penalty_Charging>
0

> <r_epik_Ionization_Penalty_Neutral>
0.000885317

> <r_epik_State_Penalty>
0.00047273

> <r_epik_Charging_Adjusted_Penalty>
0.00047273

> <i_epik_Tot_Q>
0

> <i_epik_Tot_abs_Q>
0

> <r_epik_Metal_State_Penalty>
-0

> <b_epik_Metal_Only>
0

> <s_lp_Force_Field>
OPLS_2005

> <r_lp_Energy>
31.3349

> <b_lp_Chiralities_Consistent>
1

> <s_lp_Variant>
AV-unprocessed.smi:178-4

> <Gold.Version>
5.8.1

> <Gold.Id.Protein>
6NUR|6NUR_protein|mol2

> <Gold.PLP.Fitness>
43.8479

> <Gold.PLP.PLP>
-38.0005

> <Gold.PLP.part.hbond>
-4.0271

> <Gold.PLP.part.metal>
0.0000

> <Gold.PLP.part.buried>
-7.7868

> <Gold.PLP.part.nonpolar>
-31.9162

> <Gold.PLP.part.repulsive>
5.6222

> <Gold.PLP.ligand.clash>
0.0000

> <Gold.PLP.ligand.torsion>
1.8921

> <Gold.PLP.Chemscore.Hbond>
2.9523

> <Gold.PLP.Chemscore.CHOScore>
0.1149

> <Gold.PLP.Chemscore.Metal>
0.0000

> <Gold.Chemscore.Hbonds>
donor molecule, donor type, donor heavy atom, donor atom, acceptor molecule, acceptor atom, score
      L1  H    21    42       P1  7957  0.83
      P1  H  7989  7998       L1    21  0.15
      P1  H  8011  8017       L1    21  1.00
      P1  H 11000 11005       L1     9  1.00
      L1  C    12    38       P1 10171  0.11

> <Gold.PLP.Chemscore.Internal.Correction>
0.4301

> <Gold.Rescore>
     Score         DG    S(hbond)    S(metal)    S(lipo)     H(rot)  DE(clash)    DE(int)     intcor
      6.15     -10.93       1.95        0.00      71.67       3.69       2.99       1.79       ----

> <Gold.Chemscore.Fitness>
6.1487

> <Gold.Chemscore.DG>
-10.9299

> <Gold.Chemscore.ZeroCoef>
-5.4800

> <Gold.Chemscore.Hbond>
1.9513

> <Gold.Chemscore.Metal>
0.0000

> <Gold.Chemscore.Lipo>
71.6652

> <Gold.Chemscore.Internal_Hbond>
0.0000

> <Gold.Chemscore.DEClash>
2.9890

> <Gold.Chemscore.DEInternal>
1.7923

> <Gold.Chemscore.Rot>
3.6923

> <Gold.Chemscore.Internal.Correction>
   9.000000E+99

> <Gold.Chemscore.Hbonds>
donor molecule, donor type, donor heavy atom, donor atom, acceptor molecule, acceptor atom, score
      L1  H    21    42       P1  7957  0.77
      P1  H  8011  8017       L1    21  0.25
      P1  H 11000 11005       L1     9  0.94

> <Gold.Chemscore.Hbond.Weighted>
-6.5175

> <Gold.Chemscore.Metal.Weighted>
-0.0000

> <Gold.Chemscore.Lipo.Weighted>
-8.3848

> <Gold.Chemscore.Internal_Hbond.Weighted>
0.0000

> <Gold.Chemscore.DEClash.Weighted>
2.9890

> <Gold.Chemscore.DEInternal.Weighted>
1.7923

> <Gold.Chemscore.Rot.Weighted>
9.4524

> <Gold.Chemscore.Internal.Correction.Weighted>
   9.000000E+99

> <Gold.Protein.RotatedTorsions>
[ 6907 6896 6895 6894 ] final   22.35 input  -60.11 | X-H torsion
[ 7974 7965 7964 7962 ] final   37.22 input  175.53 | X-H torsion
[ 8008 7997 7996 7995 ] final  -59.48 input   59.86 | X-H torsion
[ 10167 10162 10161 10158 ] final -114.66 input  -65.29 | X-H torsion
[ 10718 10713 10712 10709 ] final  -48.37 input   66.30 | X-H torsion
[ 10763 10752 10751 10750 ] final   95.38 input  -60.55 | X-H torsion
[ 11005 11000 10999 10996 ] final   52.83 input  -57.11 | X-H torsion

> <Gold.Protein.ActiveResidues>
 VAL166  LYS551  ARG553  GLY616  TRP617  ASP618  TYR619  PRO620  LYS621  CYS622 
 ASP623  PHE694  ASN695  SER759  ASP760  ASP761  ALA762  ILE779  LEU786  VAL792 
 PHE793  MET794  SER795  GLU796  ALA797  LYS798  CYS799  TRP800  GLU811  SER814 

> <Gold.Protein.RotatedAtoms>
  151.9257  135.0278  160.0525 H   0  0  0  0  0  0  0  0  0  0  0  0  # atno 6907 bound_to 6896
  152.2161  133.4943  159.5145 H   0  0  0  0  0  0  0  0  0  0  0  0  # atno 6908 bound_to 6896
  150.6988  134.1320  159.4116 H   0  0  0  0  0  0  0  0  0  0  0  0  # atno 6909 bound_to 6896
  146.1153  139.5920  142.9325 H   0  0  0  0  0  0  0  0  0  0  0  0  # atno 7974 bound_to 7965
  154.4354  140.1061  156.6122 H   0  0  0  0  0  0  0  0  0  0  0  0  # atno 8008 bound_to 7997
  155.5797  140.3490  155.4518 H   0  0  0  0  0  0  0  0  0  0  0  0  # atno 8009 bound_to 7997
  156.0327  140.1264  157.0230 H   0  0  0  0  0  0  0  0  0  0  0  0  # atno 8010 bound_to 7997
  140.0986  143.4634  152.1826 H   0  0  0  0  0  0  0  0  0  0  0  0  # atno 10167 bound_to 10162
  156.1994  130.4155  149.9261 H   0  0  0  0  0  0  0  0  0  0  0  0  # atno 10718 bound_to 10713
  153.2525  135.4256  155.0812 H   0  0  0  0  0  0  0  0  0  0  0  0  # atno 10763 bound_to 10752
  154.8388  135.3429  154.6492 H   0  0  0  0  0  0  0  0  0  0  0  0  # atno 10764 bound_to 10752
  153.6913  135.7033  153.5146 H   0  0  0  0  0  0  0  0  0  0  0  0  # atno 10765 bound_to 10752
  140.0817  134.5330  155.8940 H   0  0  0  0  0  0  0  0  0  0  0  0  # atno 11005 bound_to 11000
  145.5579  141.0407  143.2242 LP  0  0  0  0  0  0  0  0  0  0  0  0  # atno 17320 bound_to 7965
  144.7548  139.7103  143.7258 LP  0  0  0  0  0  0  0  0  0  0  0  0  # atno 17321 bound_to 7965
  139.5684  144.7448  151.3959 LP  0  0  0  0  0  0  0  0  0  0  0  0  # atno 17342 bound_to 10162
  140.6990  143.7678  150.7372 LP  0  0  0  0  0  0  0  0  0  0  0  0  # atno 17343 bound_to 10162
  156.6975  130.8920  151.3595 LP  0  0  0  0  0  0  0  0  0  0  0  0  # atno 17370 bound_to 10713
  157.6977  130.9299  150.0693 LP  0  0  0  0  0  0  0  0  0  0  0  0  # atno 17371 bound_to 10713
  141.2049  133.6642  156.6147 LP  0  0  0  0  0  0  0  0  0  0  0  0  # atno 17394 bound_to 11000
  140.3479  134.7794  157.4445 LP  0  0  0  0  0  0  0  0  0  0  0  0  # atno 17395 bound_to 11000

$$$$
