AV-unprocessed.smi:2667|AV-procd|sdf|10334|dock7
  -GOLD-   2272014353D 1   1.00000     0.00000
 Structure written by MMmdl.
 44 46  0  0  0  0  0  0  0  0  1 V2000
  141.8774  146.2243  154.1592 C   0  0  0  0  0  0  0  0  0  0  0  0
  143.2687  146.0184  154.7789 C   0  0  0  0  0  0  0  0  0  0  0  0
  144.2851  145.3666  153.8286 C   0  0  0  0  0  0  0  0  0  0  0  0
  144.5012  145.8704  152.7253 O   0  0  0  0  0  0  0  0  0  0  0  0
  144.9735  144.1309  154.3027 C   0  0  0  0  0  0  0  0  0  0  0  0
  144.6483  143.5181  155.5354 C   0  0  0  0  0  0  0  0  0  0  0  0
  145.3220  142.3553  155.9547 C   0  0  0  0  0  0  0  0  0  0  0  0
  146.3309  141.7756  155.1608 C   0  0  0  0  0  0  0  0  0  0  0  0
  146.9414  140.6415  155.6511 O   0  0  0  0  0  0  0  0  0  0  0  0
  148.0065  140.0696  154.9020 C   0  0  0  0  0  0  0  0  0  0  0  0
  149.2378  140.9896  154.9549 C   0  0  2  0  0  0  0  0  0  0  0  0
  149.5728  141.3808  153.6357 O   0  0  0  0  0  0  0  0  0  0  0  0
  150.4217  140.4139  155.7775 C   0  0  0  0  0  0  0  0  0  0  0  0
  150.8949  141.2844  156.8415 N   0  0  0  0  0  0  0  0  0  0  0  0
  150.7411  142.6202  156.9249 C   0  0  0  0  0  0  0  0  0  0  0  0
  151.2650  143.2295  157.9844 N   0  0  0  0  0  0  0  0  0  0  0  0
  151.8192  142.1640  158.6730 C   0  0  0  0  0  0  0  0  0  0  0  0
  152.5318  142.1321  159.8932 C   0  0  0  0  0  0  0  0  0  0  0  0
  153.0078  140.9095  160.4112 C   0  0  0  0  0  0  0  0  0  0  0  0
  152.7758  139.7020  159.7209 C   0  0  0  0  0  0  0  0  0  0  0  0
  152.0670  139.7090  158.5047 C   0  0  0  0  0  0  0  0  0  0  0  0
  151.5994  140.9311  157.9874 C   0  0  0  0  0  0  0  0  0  0  0  0
  146.6555  142.3849  153.9242 C   0  0  0  0  0  0  0  0  0  0  0  0
  145.9833  143.5488  153.5035 C   0  0  0  0  0  0  0  0  0  0  0  0
  141.2020  146.6866  154.8791 H   0  0  0  0  0  0  0  0  0  0  0  0
  141.4328  145.2763  153.8538 H   0  0  0  0  0  0  0  0  0  0  0  0
  141.9223  146.8754  153.2856 H   0  0  0  0  0  0  0  0  0  0  0  0
  143.6634  146.9822  155.1018 H   0  0  0  0  0  0  0  0  0  0  0  0
  143.1762  145.3955  155.6689 H   0  0  0  0  0  0  0  0  0  0  0  0
  143.8834  143.9227  156.1810 H   0  0  0  0  0  0  0  0  0  0  0  0
  145.0583  141.9030  156.8995 H   0  0  0  0  0  0  0  0  0  0  0  0
  148.2585  139.0770  155.2797 H   0  0  0  0  0  0  0  0  0  0  0  0
  147.6960  139.9609  153.8617 H   0  0  0  0  0  0  0  0  0  0  0  0
  148.9229  141.9113  155.4458 H   0  0  0  0  0  0  0  0  0  0  0  0
  149.5221  140.6222  153.0749 H   0  0  0  0  0  0  0  0  0  0  0  0
  150.1220  139.4679  156.2304 H   0  0  0  0  0  0  0  0  0  0  0  0
  151.2662  140.1698  155.1321 H   0  0  0  0  0  0  0  0  0  0  0  0
  150.2201  143.1775  156.1601 H   0  0  0  0  0  0  0  0  0  0  0  0
  152.7129  143.0506  160.4315 H   0  0  0  0  0  0  0  0  0  0  0  0
  153.5523  140.8979  161.3438 H   0  0  0  0  0  0  0  0  0  0  0  0
  153.1420  138.7700  160.1257 H   0  0  0  0  0  0  0  0  0  0  0  0
  151.8836  138.7862  157.9766 H   0  0  0  0  0  0  0  0  0  0  0  0
  147.4192  141.9802  153.2780 H   0  0  0  0  0  0  0  0  0  0  0  0
  146.2560  143.9899  152.5554 H   0  0  0  0  0  0  0  0  0  0  0  0
  1  2  1  0  0  0  0
  1 25  1  0  0  0  0
  1 26  1  0  0  0  0
  1 27  1  0  0  0  0
  2  3  1  0  0  0  0
  2 28  1  0  0  0  0
  2 29  1  0  0  0  0
  3  4  2  0  0  0  0
  3  5  1  0  0  0  0
  5 24  1  0  0  0  0
  5  6  2  0  0  0  0
  6  7  1  0  0  0  0
  6 30  1  0  0  0  0
  7  8  2  0  0  0  0
  7 31  1  0  0  0  0
  8  9  1  0  0  0  0
  8 23  1  0  0  0  0
  9 10  1  0  0  0  0
 10 11  1  0  0  0  0
 10 32  1  0  0  0  0
 10 33  1  0  0  0  0
 11 12  1  0  0  0  0
 11 13  1  0  0  0  0
 11 34  1  0  0  0  0
 12 35  1  0  0  0  0
 13 14  1  0  0  0  0
 13 36  1  0  0  0  0
 13 37  1  0  0  0  0
 14 22  1  0  0  0  0
 14 15  1  0  0  0  0
 15 16  2  0  0  0  0
 15 38  1  0  0  0  0
 16 17  1  0  0  0  0
 17 22  2  0  0  0  0
 17 18  1  0  0  0  0
 18 19  2  0  0  0  0
 18 39  1  0  0  0  0
 19 20  1  0  0  0  0
 19 40  1  0  0  0  0
 20 21  2  0  0  0  0
 20 41  1  0  0  0  0
 21 22  1  0  0  0  0
 21 42  1  0  0  0  0
 23 24  2  0  0  0  0
 23 43  1  0  0  0  0
 24 44  1  0  0  0  0
M  END
> <s_m_source_file>
AV-unprocessed.smi

> <i_m_source_file_index>
2667

> <i_lp_mmshare_version>
43012

> <i_f3d_flags>
0

> <s_epik_input>
W0NIM11bQ0gyXUMoPU8pYzFbY0hdW2NIXWMoW2NIXVtjSF0xKU9bQ0gyXVtDQEhdKFtPSF0pW0NIMl1uKFtjSF1uMiljKGMyMylbY0hdW2NIXVtjSF1bY0hdMw==

> <s_epik_cmdline>
J2VwaWtfcHl0aG9uJywgJy1waCcsICc3LjAnLCAnLXRuJywgJzgnLCAnLW1hJywgJzIwMCcsICctbWV0YWxfYmluZGluZycsICctaW1hZScsICc8aW5maWxlLm1hZT4nLCAnLW9tYWUnLCAnPG91dGZpbGUubWFlPic=

> <r_lp_tautomer_probability>
0.9999

> <r_epik_Ionization_Penalty>
0.0583018

> <r_epik_Ionization_Penalty_Charging>
0

> <r_epik_Ionization_Penalty_Neutral>
0.0583018

> <r_epik_State_Penalty>
0.0504087

> <r_epik_Charging_Adjusted_Penalty>
0.0504087

> <i_epik_Tot_Q>
0

> <i_epik_Tot_abs_Q>
0

> <r_epik_Metal_State_Penalty>
5.26129e-05

> <b_epik_Metal_Only>
0

> <s_lp_Force_Field>
OPLS_2005

> <r_lp_Energy>
26.5089

> <b_lp_Chiralities_Consistent>
1

> <s_lp_Variant>
AV-unprocessed.smi:2667-1

> <Gold.Version>
5.8.1

> <Gold.Id.Protein>
6NUR|6NUR_protein|mol2

> <Gold.PLP.Fitness>
55.9874

> <Gold.PLP.PLP>
-51.4996

> <Gold.PLP.part.hbond>
-4.4222

> <Gold.PLP.part.metal>
0.0000

> <Gold.PLP.part.buried>
-6.0309

> <Gold.PLP.part.nonpolar>
-39.9931

> <Gold.PLP.part.repulsive>
0.3046

> <Gold.PLP.ligand.clash>
0.0000

> <Gold.PLP.ligand.torsion>
1.8311

> <Gold.PLP.Chemscore.Hbond>
1.6619

> <Gold.PLP.Chemscore.CHOScore>
1.0000

> <Gold.PLP.Chemscore.Metal>
0.0000

> <Gold.Chemscore.Hbonds>
donor molecule, donor type, donor heavy atom, donor atom, acceptor molecule, acceptor atom, score
      L1  H    12    35       P1  7957  0.85
      P1  H  8011  8017       L1    12  0.55
      L1  C    15    38       P1  8028  1.00

> <Gold.PLP.Chemscore.Internal.Correction>
0.1644

> <Gold.Rescore>
     Score         DG    S(hbond)    S(metal)    S(lipo)     H(rot)  DE(clash)    DE(int)     intcor
     12.98     -16.28       1.24        0.00     111.45       2.49       1.43       1.87       ----

> <Gold.Chemscore.Fitness>
12.9762

> <Gold.Chemscore.DG>
-16.2810

> <Gold.Chemscore.ZeroCoef>
-5.4800

> <Gold.Chemscore.Hbond>
1.2408

> <Gold.Chemscore.Metal>
0.0000

> <Gold.Chemscore.Lipo>
111.4474

> <Gold.Chemscore.Internal_Hbond>
0.0000

> <Gold.Chemscore.DEClash>
1.4326

> <Gold.Chemscore.DEInternal>
1.8722

> <Gold.Chemscore.Rot>
2.4932

> <Gold.Chemscore.Internal.Correction>
   9.000000E+99

> <Gold.Chemscore.Hbonds>
donor molecule, donor type, donor heavy atom, donor atom, acceptor molecule, acceptor atom, score
      L1  H    12    35       P1  7957  0.80
      P1  H  8011  8017       L1    12  0.05

> <Gold.Chemscore.Hbond.Weighted>
-4.1443

> <Gold.Chemscore.Metal.Weighted>
-0.0000

> <Gold.Chemscore.Lipo.Weighted>
-13.0394

> <Gold.Chemscore.Internal_Hbond.Weighted>
0.0000

> <Gold.Chemscore.DEClash.Weighted>
1.4326

> <Gold.Chemscore.DEInternal.Weighted>
1.8722

> <Gold.Chemscore.Rot.Weighted>
6.3826

> <Gold.Chemscore.Internal.Correction.Weighted>
   9.000000E+99

> <Gold.Protein.RotatedTorsions>
[ 6907 6896 6895 6894 ] final  146.77 input  -60.11 | X-H torsion
[ 7974 7965 7964 7962 ] final -154.48 input  175.53 | X-H torsion
[ 8008 7997 7996 7995 ] final -168.01 input   59.86 | X-H torsion
[ 10167 10162 10161 10158 ] final   20.20 input  -65.29 | X-H torsion
[ 10718 10713 10712 10709 ] final  -80.46 input   66.30 | X-H torsion
[ 10763 10752 10751 10750 ] final  120.24 input  -60.55 | X-H torsion
[ 11005 11000 10999 10996 ] final  -36.85 input  -57.11 | X-H torsion

> <Gold.Protein.ActiveResidues>
 VAL166  LYS551  ARG553  GLY616  TRP617  ASP618  TYR619  PRO620  LYS621  CYS622 
 ASP623  PHE694  ASN695  SER759  ASP760  ASP761  ALA762  ILE779  LEU786  VAL792 
 PHE793  MET794  SER795  GLU796  ALA797  LYS798  CYS799  TRP800  GLU811  SER814 

> <Gold.Protein.RotatedAtoms>
  152.1636  133.4597  159.4872 H   0  0  0  0  0  0  0  0  0  0  0  0  # atno 6907 bound_to 6896
  150.6910  134.2041  159.4343 H   0  0  0  0  0  0  0  0  0  0  0  0  # atno 6908 bound_to 6896
  151.9945  134.9961  160.0613 H   0  0  0  0  0  0  0  0  0  0  0  0  # atno 6909 bound_to 6896
  144.7687  140.4382  143.5923 H   0  0  0  0  0  0  0  0  0  0  0  0  # atno 7974 bound_to 7965
  155.8856  140.1016  157.1455 H   0  0  0  0  0  0  0  0  0  0  0  0  # atno 8008 bound_to 7997
  154.4009  140.1320  156.4314 H   0  0  0  0  0  0  0  0  0  0  0  0  # atno 8009 bound_to 7997
  155.7593  140.3463  155.5192 H   0  0  0  0  0  0  0  0  0  0  0  0  # atno 8010 bound_to 7997
  140.5521  143.9490  150.6585 H   0  0  0  0  0  0  0  0  0  0  0  0  # atno 10167 bound_to 10162
  156.0070  130.4575  150.3804 H   0  0  0  0  0  0  0  0  0  0  0  0  # atno 10718 bound_to 10713
  153.5954  135.3458  155.2926 H   0  0  0  0  0  0  0  0  0  0  0  0  # atno 10763 bound_to 10752
  154.8645  135.4215  154.2471 H   0  0  0  0  0  0  0  0  0  0  0  0  # atno 10764 bound_to 10752
  153.3287  135.7043  153.7037 H   0  0  0  0  0  0  0  0  0  0  0  0  # atno 10765 bound_to 10752
  140.9907  133.7006  156.1845 H   0  0  0  0  0  0  0  0  0  0  0  0  # atno 11005 bound_to 11000
  145.6390  139.1547  143.2926 LP  0  0  0  0  0  0  0  0  0  0  0  0  # atno 17320 bound_to 7965
  146.1816  140.6488  142.9186 LP  0  0  0  0  0  0  0  0  0  0  0  0  # atno 17321 bound_to 7965
  140.2919  143.3319  152.1055 LP  0  0  0  0  0  0  0  0  0  0  0  0  # atno 17342 bound_to 10162
  139.5032  144.6750  151.6150 LP  0  0  0  0  0  0  0  0  0  0  0  0  # atno 17343 bound_to 10162
  157.1884  131.0409  151.2713 LP  0  0  0  0  0  0  0  0  0  0  0  0  # atno 17370 bound_to 10713
  157.4084  130.7371  149.6820 LP  0  0  0  0  0  0  0  0  0  0  0  0  # atno 17371 bound_to 10713
  140.7045  134.4529  157.5585 LP  0  0  0  0  0  0  0  0  0  0  0  0  # atno 17394 bound_to 11000
  139.8991  134.8599  156.1975 LP  0  0  0  0  0  0  0  0  0  0  0  0  # atno 17395 bound_to 11000

$$$$
