AV-unprocessed.smi:1500|AV-procd|sdf|6063|dock3
  -GOLD-   22720 6183D 1   1.00000     0.00000
 Structure written by MMmdl.
 32 33  0  0  0  0  0  0  0  0  1 V2000
  147.1071  142.5687  155.2760 N   0  0  0  0  0  0  0  0  0  0  0  0
  147.3573  141.4809  154.5426 C   0  0  0  0  0  0  0  0  0  0  0  0
  146.5073  140.6172  154.3375 O   0  0  0  0  0  0  0  0  0  0  0  0
  148.7650  141.3392  153.9597 C   0  0  0  0  0  0  0  0  0  0  0  0
  149.7470  141.1213  155.0076 N   0  0  0  0  0  0  0  0  0  0  0  0
  149.8602  141.7738  156.2203 C   0  0  0  0  0  0  0  0  0  0  0  0
  150.9358  141.2101  156.8459 C   0  0  0  0  0  0  0  0  0  0  0  0
  151.4911  141.4997  158.1179 N   0  0  0  0  0  0  0  0  0  0  0  0
  152.5143  140.8737  158.7312 C   0  0  0  0  0  0  0  0  0  0  0  0
  153.1290  139.9240  158.2440 O   0  0  0  0  0  0  0  0  0  0  0  0
  152.8225  141.3924  159.9406 N   0  0  0  0  0  0  0  0  0  0  0  0
  152.3839  142.6849  160.4767 C   0  0  0  0  0  0  0  0  0  0  0  0
  152.8018  142.6900  161.9475 C   0  0  0  0  0  0  0  0  0  0  0  0
  153.9739  141.7213  162.0052 C   0  0  0  0  0  0  0  0  0  0  0  0
  153.6657  140.6978  160.9127 C   0  0  0  0  0  0  0  0  0  0  0  0
  151.4313  140.2260  155.9516 C   0  0  0  0  0  0  0  0  0  0  0  0
  150.7095  140.1795  154.8424 N   0  0  0  0  0  0  0  0  0  0  0  0
  146.1903  142.7002  155.6785 H   0  0  0  0  0  0  0  0  0  0  0  0
  147.8316  143.2556  155.4262 H   0  0  0  0  0  0  0  0  0  0  0  0
  148.7857  140.5038  153.2579 H   0  0  0  0  0  0  0  0  0  0  0  0
  149.0436  142.2336  153.4009 H   0  0  0  0  0  0  0  0  0  0  0  0
  149.1766  142.5561  156.5150 H   0  0  0  0  0  0  0  0  0  0  0  0
  151.0708  142.2702  158.6169 H   0  0  0  0  0  0  0  0  0  0  0  0
  152.8899  143.4848  159.9340 H   0  0  0  0  0  0  0  0  0  0  0  0
  151.3073  142.8317  160.3767 H   0  0  0  0  0  0  0  0  0  0  0  0
  153.0574  143.6855  162.3112 H   0  0  0  0  0  0  0  0  0  0  0  0
  151.9845  142.3096  162.5616 H   0  0  0  0  0  0  0  0  0  0  0  0
  154.8960  142.2506  161.7611 H   0  0  0  0  0  0  0  0  0  0  0  0
  154.0998  141.2664  162.9880 H   0  0  0  0  0  0  0  0  0  0  0  0
  153.1099  139.8537  161.3240 H   0  0  0  0  0  0  0  0  0  0  0  0
  154.5818  140.3127  160.4616 H   0  0  0  0  0  0  0  0  0  0  0  0
  152.2717  139.5576  156.0670 H   0  0  0  0  0  0  0  0  0  0  0  0
  1  2  1  0  0  0  0
  1 18  1  0  0  0  0
  1 19  1  0  0  0  0
  2  3  2  0  0  0  0
  2  4  1  0  0  0  0
  4  5  1  0  0  0  0
  4 20  1  0  0  0  0
  4 21  1  0  0  0  0
  5 17  1  0  0  0  0
  5  6  1  0  0  0  0
  6  7  2  0  0  0  0
  6 22  1  0  0  0  0
  7  8  1  0  0  0  0
  7 16  1  0  0  0  0
  8  9  1  0  0  0  0
  8 23  1  0  0  0  0
  9 10  2  0  0  0  0
  9 11  1  0  0  0  0
 11 15  1  0  0  0  0
 11 12  1  0  0  0  0
 12 13  1  0  0  0  0
 12 24  1  0  0  0  0
 12 25  1  0  0  0  0
 13 14  1  0  0  0  0
 13 26  1  0  0  0  0
 13 27  1  0  0  0  0
 14 15  1  0  0  0  0
 14 28  1  0  0  0  0
 14 29  1  0  0  0  0
 15 30  1  0  0  0  0
 15 31  1  0  0  0  0
 16 17  2  0  0  0  0
 16 32  1  0  0  0  0
M  END
> <s_m_source_file>
AV-unprocessed.smi

> <i_m_source_file_index>
1500

> <i_lp_mmshare_version>
43012

> <i_f3d_flags>
0

> <s_epik_input>
W05IMl1DKD1PKVtDSDJdbjFbY0hdYyhbY0hdbjEpW05IXUMoPU8pTjJbQ0gyXVtDSDJdW0NIMl1bQ0gyXTI=

> <s_epik_cmdline>
J2VwaWtfcHl0aG9uJywgJy1waCcsICc3LjAnLCAnLXRuJywgJzgnLCAnLW1hJywgJzIwMCcsICctbWV0YWxfYmluZGluZycsICctaW1hZScsICc8aW5maWxlLm1hZT4nLCAnLW9tYWUnLCAnPG91dGZpbGUubWFlPic=

> <r_lp_tautomer_probability>
1

> <r_epik_Ionization_Penalty>
4.95516e-05

> <r_epik_Ionization_Penalty_Charging>
0

> <r_epik_Ionization_Penalty_Neutral>
4.95516e-05

> <r_epik_State_Penalty>
-0

> <r_epik_Charging_Adjusted_Penalty>
0

> <i_epik_Tot_Q>
0

> <i_epik_Tot_abs_Q>
0

> <r_epik_Metal_State_Penalty>
-0

> <b_epik_Metal_Only>
0

> <s_lp_Force_Field>
OPLS_2005

> <r_lp_Energy>
39.2894

> <b_lp_Chiralities_Consistent>
1

> <s_lp_Variant>
AV-unprocessed.smi:1500-1

> <Gold.Version>
5.8.1

> <Gold.Id.Protein>
6NUR|6NUR_protein|mol2

> <Gold.PLP.Fitness>
48.6496

> <Gold.PLP.PLP>
-37.3968

> <Gold.PLP.part.hbond>
-3.0000

> <Gold.PLP.part.metal>
0.0000

> <Gold.PLP.part.buried>
-0.1729

> <Gold.PLP.part.nonpolar>
-33.1709

> <Gold.PLP.part.repulsive>
0.3390

> <Gold.PLP.ligand.clash>
0.0000

> <Gold.PLP.ligand.torsion>
0.3744

> <Gold.PLP.Chemscore.Hbond>
3.0000

> <Gold.PLP.Chemscore.CHOScore>
1.0000

> <Gold.PLP.Chemscore.Metal>
0.0000

> <Gold.Chemscore.Hbonds>
donor molecule, donor type, donor heavy atom, donor atom, acceptor molecule, acceptor atom, score
      L1  H     1    19       P1  8028  1.00
      P1  H  7989  7998       L1    17  1.00
      P1  H  7997  8009       L1    10  1.00
      L1  C     6    22       P1  8028  1.00

> <Gold.PLP.Chemscore.Internal.Correction>
0.0015

> <Gold.Rescore>
     Score         DG    S(hbond)    S(metal)    S(lipo)     H(rot)  DE(clash)    DE(int)     intcor
     13.38     -15.58       1.72        0.00      71.01       1.54       0.44       1.76       ----

> <Gold.Chemscore.Fitness>
13.3768

> <Gold.Chemscore.DG>
-15.5757

> <Gold.Chemscore.ZeroCoef>
-5.4800

> <Gold.Chemscore.Hbond>
1.7188

> <Gold.Chemscore.Metal>
0.0000

> <Gold.Chemscore.Lipo>
71.0056

> <Gold.Chemscore.Internal_Hbond>
0.0000

> <Gold.Chemscore.DEClash>
0.4423

> <Gold.Chemscore.DEInternal>
1.7567

> <Gold.Chemscore.Rot>
1.5440

> <Gold.Chemscore.Internal.Correction>
   9.000000E+99

> <Gold.Chemscore.Hbonds>
donor molecule, donor type, donor heavy atom, donor atom, acceptor molecule, acceptor atom, score
      L1  H     1    19       P1  8028  0.50
      P1  H  7989  7998       L1    17  0.22
      P1  H  7997  8009       L1    10  0.95

> <Gold.Chemscore.Hbond.Weighted>
-5.7407

> <Gold.Chemscore.Metal.Weighted>
-0.0000

> <Gold.Chemscore.Lipo.Weighted>
-8.3077

> <Gold.Chemscore.Internal_Hbond.Weighted>
0.0000

> <Gold.Chemscore.DEClash.Weighted>
0.4423

> <Gold.Chemscore.DEInternal.Weighted>
1.7567

> <Gold.Chemscore.Rot.Weighted>
3.9526

> <Gold.Chemscore.Internal.Correction.Weighted>
   9.000000E+99

> <Gold.Protein.RotatedTorsions>
[ 6907 6896 6895 6894 ] final  -57.75 input  -60.11 | X-H torsion
[ 7974 7965 7964 7962 ] final  174.42 input  175.53 | X-H torsion
[ 8008 7997 7996 7995 ] final  166.70 input   59.86 | X-H torsion
[ 10167 10162 10161 10158 ] final -143.01 input  -65.29 | X-H torsion
[ 10718 10713 10712 10709 ] final   -5.68 input   66.30 | X-H torsion
[ 10763 10752 10751 10750 ] final  175.82 input  -60.55 | X-H torsion
[ 11005 11000 10999 10996 ] final -121.09 input  -57.11 | X-H torsion

> <Gold.Protein.ActiveResidues>
 VAL166  LYS551  ARG553  GLY616  TRP617  ASP618  TYR619  PRO620  LYS621  CYS622 
 ASP623  PHE694  ASN695  SER759  ASP760  ASP761  ALA762  ILE779  LEU786  VAL792 
 PHE793  MET794  SER795  GLU796  ALA797  LYS798  CYS799  TRP800  GLU811  SER814 

> <Gold.Protein.RotatedAtoms>
  150.8061  134.7187  159.6645 H   0  0  0  0  0  0  0  0  0  0  0  0  # atno 6907 bound_to 6896
  152.4181  134.6002  160.0008 H   0  0  0  0  0  0  0  0  0  0  0  0  # atno 6908 bound_to 6896
  151.6225  133.3301  159.3127 H   0  0  0  0  0  0  0  0  0  0  0  0  # atno 6909 bound_to 6896
  144.7222  139.9794  143.6438 H   0  0  0  0  0  0  0  0  0  0  0  0  # atno 7974 bound_to 7965
  156.1696  140.1636  156.8470 H   0  0  0  0  0  0  0  0  0  0  0  0  # atno 8008 bound_to 7997
  154.5243  140.0771  156.8264 H   0  0  0  0  0  0  0  0  0  0  0  0  # atno 8009 bound_to 7997
  155.3539  140.3391  155.4242 H   0  0  0  0  0  0  0  0  0  0  0  0  # atno 8010 bound_to 7997
  139.8034  143.7802  152.2659 H   0  0  0  0  0  0  0  0  0  0  0  0  # atno 10167 bound_to 10162
  156.7429  130.5215  149.5820 H   0  0  0  0  0  0  0  0  0  0  0  0  # atno 10718 bound_to 10713
  154.4728  135.2772  155.1629 H   0  0  0  0  0  0  0  0  0  0  0  0  # atno 10763 bound_to 10752
  154.3371  135.6178  153.5582 H   0  0  0  0  0  0  0  0  0  0  0  0  # atno 10764 bound_to 10752
  152.9866  135.5779  154.5113 H   0  0  0  0  0  0  0  0  0  0  0  0  # atno 10765 bound_to 10752
  141.0096  134.0284  157.3431 H   0  0  0  0  0  0  0  0  0  0  0  0  # atno 11005 bound_to 11000
  146.0500  139.3502  143.0645 LP  0  0  0  0  0  0  0  0  0  0  0  0  # atno 17320 bound_to 7965
  145.8227  140.9671  143.0890 LP  0  0  0  0  0  0  0  0  0  0  0  0  # atno 17321 bound_to 7965
  139.7929  144.7403  150.9930 LP  0  0  0  0  0  0  0  0  0  0  0  0  # atno 17342 bound_to 10162
  140.7820  143.4424  151.0533 LP  0  0  0  0  0  0  0  0  0  0  0  0  # atno 17343 bound_to 10162
  156.1452  130.6272  151.0522 LP  0  0  0  0  0  0  0  0  0  0  0  0  # atno 17370 bound_to 10713
  157.6810  131.0838  150.7368 LP  0  0  0  0  0  0  0  0  0  0  0  0  # atno 17371 bound_to 10713
  139.9082  135.0184  156.7580 LP  0  0  0  0  0  0  0  0  0  0  0  0  # atno 17394 bound_to 11000
  140.6755  133.9521  155.7881 LP  0  0  0  0  0  0  0  0  0  0  0  0  # atno 17395 bound_to 11000

$$$$
