AV-unprocessed.smi:411|AV-procd|sdf|2508|dock10
  -GOLD-   2262022463D 1   1.00000     0.00000
 Structure written by MMmdl.
 35 36  0  0  0  0  0  0  0  0  1 V2000
  149.8715  139.6802  155.1494 O   0  0  0  0  0  0  0  0  0  0  0  0
  150.1758  140.2225  156.2111 C   0  0  0  0  0  0  0  0  0  0  0  0
  150.9947  141.5250  156.1778 C   0  0  0  0  0  0  0  0  0  0  0  0
  151.4990  141.9751  157.4889 N   0  0  0  0  0  0  0  0  0  0  0  0
  151.0056  143.2005  157.9711 C   0  0  0  0  0  0  0  0  0  0  0  0
  151.3869  143.6978  159.1552 C   0  0  0  0  0  0  0  0  0  0  0  0
  152.3312  142.9413  159.9406 C   0  0  0  0  0  0  0  0  0  0  0  0
  152.8196  141.7567  159.5058 C   0  0  0  0  0  0  0  0  0  0  0  0
  153.8194  140.9431  160.3238 C   0  0  0  0  0  0  0  0  0  0  0  0
  153.4456  139.6642  160.3785 F   0  0  0  0  0  0  0  0  0  0  0  0
  155.0334  140.9992  159.7747 F   0  0  0  0  0  0  0  0  0  0  0  0
  153.9177  141.3935  161.5755 F   0  0  0  0  0  0  0  0  0  0  0  0
  152.3895  141.2159  158.2001 C   0  0  0  0  0  0  0  0  0  0  0  0
  152.7952  140.1360  157.7675 O   0  0  0  0  0  0  0  0  0  0  0  0
  149.8206  139.7254  157.4081 N   0  0  0  0  0  0  0  0  0  0  0  0
  149.0552  138.5037  157.6247 C   0  0  2  0  0  0  0  0  0  0  0  0
  147.5401  138.7769  157.7193 C   0  0  0  0  0  0  0  0  0  0  0  0
  146.8554  137.5459  158.3248 C   0  0  0  0  0  0  0  0  0  0  0  0
  148.0817  136.7849  159.4546 S   0  0  0  0  0  0  0  0  0  0  0  0
  147.7409  137.1150  160.8468 O   0  0  0  0  0  0  0  0  0  0  0  0
  148.3120  135.3926  159.0408 O   0  0  0  0  0  0  0  0  0  0  0  0
  149.4974  137.8203  158.9262 C   0  0  0  0  0  0  0  0  0  0  0  0
  151.8210  141.3958  155.4766 H   0  0  0  0  0  0  0  0  0  0  0  0
  150.3713  142.3007  155.7310 H   0  0  0  0  0  0  0  0  0  0  0  0
  150.2981  143.6998  157.3248 H   0  0  0  0  0  0  0  0  0  0  0  0
  150.9954  144.6385  159.5138 H   0  0  0  0  0  0  0  0  0  0  0  0
  152.6428  143.3426  160.8935 H   0  0  0  0  0  0  0  0  0  0  0  0
  150.1079  140.2333  158.2321 H   0  0  0  0  0  0  0  0  0  0  0  0
  149.2328  137.8087  156.8017 H   0  0  0  0  0  0  0  0  0  0  0  0
  147.3701  139.6295  158.3784 H   0  0  0  0  0  0  0  0  0  0  0  0
  147.1106  139.0343  156.7505 H   0  0  0  0  0  0  0  0  0  0  0  0
  145.9421  137.7905  158.8671 H   0  0  0  0  0  0  0  0  0  0  0  0
  146.6163  136.8173  157.5499 H   0  0  0  0  0  0  0  0  0  0  0  0
  150.3889  137.2049  158.8032 H   0  0  0  0  0  0  0  0  0  0  0  0
  149.6846  138.5501  159.7148 H   0  0  0  0  0  0  0  0  0  0  0  0
  1  2  2  0  0  0  0
  2  3  1  0  0  0  0
  2 15  1  0  0  0  0
  3  4  1  0  0  0  0
  3 23  1  0  0  0  0
  3 24  1  0  0  0  0
  4 13  1  0  0  0  0
  4  5  1  0  0  0  0
  5  6  2  0  0  0  0
  5 25  1  0  0  0  0
  6  7  1  0  0  0  0
  6 26  1  0  0  0  0
  7  8  2  0  0  0  0
  7 27  1  0  0  0  0
  8  9  1  0  0  0  0
  8 13  1  0  0  0  0
  9 10  1  0  0  0  0
  9 11  1  0  0  0  0
  9 12  1  0  0  0  0
 13 14  2  0  0  0  0
 15 16  1  0  0  0  0
 15 28  1  0  0  0  0
 16 22  1  0  0  0  0
 16 17  1  0  0  0  0
 16 29  1  0  0  0  0
 17 18  1  0  0  0  0
 17 30  1  0  0  0  0
 17 31  1  0  0  0  0
 18 19  1  0  0  0  0
 18 32  1  0  0  0  0
 18 33  1  0  0  0  0
 19 20  2  0  0  0  0
 19 21  2  0  0  0  0
 19 22  1  0  0  0  0
 22 34  1  0  0  0  0
 22 35  1  0  0  0  0
M  END
> <s_m_source_file>
AV-unprocessed.smi

> <i_m_source_file_index>
411

> <i_lp_mmshare_version>
43012

> <i_f3d_flags>
0

> <s_epik_input>
Tz1TMSg9TylbQ0gyXVtDSDJdW0NASF0oW0NIMl0xKVtOSF1DKD1PKVtDSDJdbjJbY0hdW2NIXVtjSF1jKEMoRikoRilGKWMyPU8=

> <s_epik_cmdline>
J2VwaWtfcHl0aG9uJywgJy1waCcsICc3LjAnLCAnLXRuJywgJzgnLCAnLW1hJywgJzIwMCcsICctbWV0YWxfYmluZGluZycsICctaW1hZScsICc8aW5maWxlLm1hZT4nLCAnLW9tYWUnLCAnPG91dGZpbGUubWFlPic=

> <r_lp_tautomer_probability>
1

> <r_epik_Ionization_Penalty>
1.08759e-07

> <r_epik_Ionization_Penalty_Charging>
1.56656e-09

> <r_epik_Ionization_Penalty_Neutral>
1.07193e-07

> <r_epik_State_Penalty>
-0

> <r_epik_Charging_Adjusted_Penalty>
1.56656e-09

> <i_epik_Tot_Q>
0

> <i_epik_Tot_abs_Q>
0

> <r_epik_Metal_State_Penalty>
-0

> <b_epik_Metal_Only>
0

> <s_lp_Force_Field>
OPLS_2005

> <r_lp_Energy>
11.8943

> <b_lp_Chiralities_Consistent>
1

> <s_lp_Variant>
AV-unprocessed.smi:411-1

> <Gold.Version>
5.8.1

> <Gold.Id.Protein>
6NUR|6NUR_protein|mol2

> <Gold.PLP.Fitness>
47.0117

> <Gold.PLP.PLP>
-37.0432

> <Gold.PLP.part.hbond>
-3.0000

> <Gold.PLP.part.metal>
0.0000

> <Gold.PLP.part.buried>
-5.0368

> <Gold.PLP.part.nonpolar>
-28.9811

> <Gold.PLP.part.repulsive>
0.1229

> <Gold.PLP.ligand.clash>
0.0000

> <Gold.PLP.ligand.torsion>
0.8908

> <Gold.PLP.Chemscore.Hbond>
2.8080

> <Gold.PLP.Chemscore.CHOScore>
1.0000

> <Gold.PLP.Chemscore.Metal>
0.0000

> <Gold.Chemscore.Hbonds>
donor molecule, donor type, donor heavy atom, donor atom, acceptor molecule, acceptor atom, score
      P1  H  6931  6943       L1    20  0.90
      P1  H  6934  6947       L1    20  0.90
      P1  H  7997  8010       L1    14  1.00
      L1  C     5    25       P1  8028  1.00

> <Gold.PLP.Chemscore.Internal.Correction>
0.3260

> <Gold.Rescore>
     Score         DG    S(hbond)    S(metal)    S(lipo)     H(rot)  DE(clash)    DE(int)     intcor
     12.84     -15.65       2.08        0.00      65.34       1.73       0.13       2.68       ----

> <Gold.Chemscore.Fitness>
12.8392

> <Gold.Chemscore.DG>
-15.6532

> <Gold.Chemscore.ZeroCoef>
-5.4800

> <Gold.Chemscore.Hbond>
2.0840

> <Gold.Chemscore.Metal>
0.0000

> <Gold.Chemscore.Lipo>
65.3419

> <Gold.Chemscore.Internal_Hbond>
0.0000

> <Gold.Chemscore.DEClash>
0.1326

> <Gold.Chemscore.DEInternal>
2.6814

> <Gold.Chemscore.Rot>
1.7314

> <Gold.Chemscore.Internal.Correction>
   9.000000E+99

> <Gold.Chemscore.Hbonds>
donor molecule, donor type, donor heavy atom, donor atom, acceptor molecule, acceptor atom, score
      P1  H  6931  6943       L1    20  0.78
      P1  H  6934  6947       L1    20  0.60
      P1  H  7997  8010       L1    14  0.93

> <Gold.Chemscore.Hbond.Weighted>
-6.9605

> <Gold.Chemscore.Metal.Weighted>
-0.0000

> <Gold.Chemscore.Lipo.Weighted>
-7.6450

> <Gold.Chemscore.Internal_Hbond.Weighted>
0.0000

> <Gold.Chemscore.DEClash.Weighted>
0.1326

> <Gold.Chemscore.DEInternal.Weighted>
2.6814

> <Gold.Chemscore.Rot.Weighted>
4.4324

> <Gold.Chemscore.Internal.Correction.Weighted>
   9.000000E+99

> <Gold.Protein.RotatedTorsions>
[ 6907 6896 6895 6894 ] final -130.71 input  -60.11 | X-H torsion
[ 7974 7965 7964 7962 ] final  -59.56 input  175.53 | X-H torsion
[ 8008 7997 7996 7995 ] final   47.41 input   59.86 | X-H torsion
[ 10167 10162 10161 10158 ] final  -91.31 input  -65.29 | X-H torsion
[ 10718 10713 10712 10709 ] final  -55.22 input   66.30 | X-H torsion
[ 10763 10752 10751 10750 ] final  158.26 input  -60.55 | X-H torsion
[ 11005 11000 10999 10996 ] final -128.08 input  -57.11 | X-H torsion

> <Gold.Protein.ActiveResidues>
 VAL166  LYS551  ARG553  GLY616  TRP617  ASP618  TYR619  PRO620  LYS621  CYS622 
 ASP623  PHE694  ASN695  SER759  ASP760  ASP761  ALA762  ILE779  LEU786  VAL792 
 PHE793  MET794  SER795  GLU796  ALA797  LYS798  CYS799  TRP800  GLU811  SER814 

> <Gold.Protein.RotatedAtoms>
  150.9428  133.6637  159.2787 H   0  0  0  0  0  0  0  0  0  0  0  0  # atno 6907 bound_to 6896
  151.4020  135.0971  159.9568 H   0  0  0  0  0  0  0  0  0  0  0  0  # atno 6908 bound_to 6896
  152.5077  133.8920  159.7453 H   0  0  0  0  0  0  0  0  0  0  0  0  # atno 6909 bound_to 6896
  145.8260  140.8510  143.0108 H   0  0  0  0  0  0  0  0  0  0  0  0  # atno 7974 bound_to 7965
  155.3686  140.3422  155.4242 H   0  0  0  0  0  0  0  0  0  0  0  0  # atno 8008 bound_to 7997
  156.1675  140.1621  156.8540 H   0  0  0  0  0  0  0  0  0  0  0  0  # atno 8009 bound_to 7997
  154.5199  140.0769  156.8135 H   0  0  0  0  0  0  0  0  0  0  0  0  # atno 8010 bound_to 7997
  140.3462  143.2915  151.9779 H   0  0  0  0  0  0  0  0  0  0  0  0  # atno 10167 bound_to 10162
  156.1386  130.4155  150.0142 H   0  0  0  0  0  0  0  0  0  0  0  0  # atno 10718 bound_to 10713
  154.2132  135.2785  155.2951 H   0  0  0  0  0  0  0  0  0  0  0  0  # atno 10763 bound_to 10752
  154.5761  135.5603  153.7144 H   0  0  0  0  0  0  0  0  0  0  0  0  # atno 10764 bound_to 10752
  153.0059  135.6333  154.2271 H   0  0  0  0  0  0  0  0  0  0  0  0  # atno 10765 bound_to 10752
  140.9546  134.1019  157.4029 H   0  0  0  0  0  0  0  0  0  0  0  0  # atno 11005 bound_to 11000
  144.6743  140.0603  143.7476 LP  0  0  0  0  0  0  0  0  0  0  0  0  # atno 17320 bound_to 7965
  145.9623  139.2809  143.1148 LP  0  0  0  0  0  0  0  0  0  0  0  0  # atno 17321 bound_to 7965
  139.4833  144.6115  151.7425 LP  0  0  0  0  0  0  0  0  0  0  0  0  # atno 17342 bound_to 10162
  140.5262  144.0801  150.6038 LP  0  0  0  0  0  0  0  0  0  0  0  0  # atno 17343 bound_to 10162
  156.8034  130.9299  151.3645 LP  0  0  0  0  0  0  0  0  0  0  0  0  # atno 17370 bound_to 10713
  157.6555  130.8921  149.9720 LP  0  0  0  0  0  0  0  0  0  0  0  0  # atno 17371 bound_to 10713
  139.8858  135.0075  156.6458 LP  0  0  0  0  0  0  0  0  0  0  0  0  # atno 17394 bound_to 11000
  140.7555  133.8862  155.8378 LP  0  0  0  0  0  0  0  0  0  0  0  0  # atno 17395 bound_to 11000

$$$$
