AV-unprocessed.smi:2007|AV-procd|sdf|8135|dock8
  -GOLD-   2272010373D 1   1.00000     0.00000
 Structure written by MMmdl.
 37 38  0  0  0  0  0  0  0  0  2 V2000
  146.5629  138.2518  152.6150 C   0  0  0  0  0  0  0  0  0  0  0  0
  145.5071  137.3202  153.2255 C   0  0  2  0  0  0  0  0  0  0  0  0
  145.4675  135.9623  152.4856 C   0  0  0  0  0  0  0  0  0  0  0  0
  146.6518  135.1095  152.7606 N   0  3  0  0  0  0  0  0  0  0  0  0
  146.9882  135.0304  154.2014 C   0  0  0  0  0  0  0  0  0  0  0  0
  148.2624  134.1932  154.4073 C   0  0  0  0  0  0  0  0  0  0  0  0
  148.0844  132.9008  153.8408 O   0  0  0  0  0  0  0  0  0  0  0  0
  147.8436  132.9620  152.4403 C   0  0  0  0  0  0  0  0  0  0  0  0
  146.5498  133.7498  152.1771 C   0  0  0  0  0  0  0  0  0  0  0  0
  144.2063  137.9907  153.1911 N   0  0  0  0  0  0  0  0  0  0  0  0
  143.0343  137.4577  153.5686 C   0  0  0  0  0  0  0  0  0  0  0  0
  142.9139  136.2984  153.9657 O   0  0  0  0  0  0  0  0  0  0  0  0
  142.0315  138.3442  153.4446 N   0  0  0  0  0  0  0  0  0  0  0  0
  140.6496  138.1446  153.7018 C   0  0  0  0  0  0  0  0  0  0  0  0
  139.7188  139.1011  153.6036 N   0  0  0  0  0  0  0  0  0  0  0  0
  138.4433  138.6255  153.9183 C   0  0  0  0  0  0  0  0  0  0  0  0
  138.4222  137.2965  154.2615 C   0  0  0  0  0  0  0  0  0  0  0  0
  140.0122  136.5839  154.1986 S   0  0  0  0  0  0  0  0  0  0  0  0
  147.5551  137.8022  152.6610 H   0  0  0  0  0  0  0  0  0  0  0  0
  146.6083  139.2005  153.1512 H   0  0  0  0  0  0  0  0  0  0  0  0
  146.3455  138.4702  151.5687 H   0  0  0  0  0  0  0  0  0  0  0  0
  145.7961  137.1578  154.2646 H   0  0  0  0  0  0  0  0  0  0  0  0
  144.5661  135.4329  152.7989 H   0  0  0  0  0  0  0  0  0  0  0  0
  145.3702  136.1122  151.4092 H   0  0  0  0  0  0  0  0  0  0  0  0
  147.1422  136.0331  154.6023 H   0  0  0  0  0  0  0  0  0  0  0  0
  146.1545  134.5880  154.7488 H   0  0  0  0  0  0  0  0  0  0  0  0
  149.1276  134.6839  153.9583 H   0  0  0  0  0  0  0  0  0  0  0  0
  148.4737  134.0863  155.4715 H   0  0  0  0  0  0  0  0  0  0  0  0
  148.6916  133.4231  151.9311 H   0  0  0  0  0  0  0  0  0  0  0  0
  147.7516  131.9477  152.0520 H   0  0  0  0  0  0  0  0  0  0  0  0
  145.6978  133.2248  152.6117 H   0  0  0  0  0  0  0  0  0  0  0  0
  146.3743  133.8079  151.1031 H   0  0  0  0  0  0  0  0  0  0  0  0
  144.2056  138.9511  152.8792 H   0  0  0  0  0  0  0  0  0  0  0  0
  142.2822  139.2674  153.1218 H   0  0  0  0  0  0  0  0  0  0  0  0
  137.6042  139.3040  153.8732 H   0  0  0  0  0  0  0  0  0  0  0  0
  137.5709  136.6956  154.5455 H   0  0  0  0  0  0  0  0  0  0  0  0
  147.4369  135.5603  152.3119 H   0  0  0  0  0  0  0  0  0  0  0  0
  1  2  1  0  0  0  0
  1 19  1  0  0  0  0
  1 20  1  0  0  0  0
  1 21  1  0  0  0  0
  2  3  1  0  0  0  0
  2 10  1  0  0  0  0
  2 22  1  0  0  0  0
  3  4  1  0  0  0  0
  3 23  1  0  0  0  0
  3 24  1  0  0  0  0
  4  9  1  0  0  0  0
  4  5  1  0  0  0  0
  4 37  1  0  0  0  0
  5  6  1  0  0  0  0
  5 25  1  0  0  0  0
  5 26  1  0  0  0  0
  6  7  1  0  0  0  0
  6 27  1  0  0  0  0
  6 28  1  0  0  0  0
  7  8  1  0  0  0  0
  8  9  1  0  0  0  0
  8 29  1  0  0  0  0
  8 30  1  0  0  0  0
  9 31  1  0  0  0  0
  9 32  1  0  0  0  0
 10 11  1  0  0  0  0
 10 33  1  0  0  0  0
 11 12  2  0  0  0  0
 11 13  1  0  0  0  0
 13 14  1  0  0  0  0
 13 34  1  0  0  0  0
 14 18  1  0  0  0  0
 14 15  2  0  0  0  0
 15 16  1  0  0  0  0
 16 17  2  0  0  0  0
 16 35  1  0  0  0  0
 17 18  1  0  0  0  0
 17 36  1  0  0  0  0
M  CHG  1   4   1
M  END
> <s_m_source_file>
AV-unprocessed.smi

> <i_m_source_file_index>
2007

> <i_lp_mmshare_version>
43012

> <i_f3d_flags>
0

> <s_epik_input>
W0NIMl0xW0NIMl1PW0NIMl1bQ0gyXU4xW0NIMl1bQ0BASF0oW0NIM10pW05IXUMoPU8pW05IXWMybltjSF1bY0hdczI=

> <s_epik_cmdline>
J2VwaWtfcHl0aG9uJywgJy1waCcsICc3LjAnLCAnLXRuJywgJzgnLCAnLW1hJywgJzIwMCcsICctbWV0YWxfYmluZGluZycsICctaW1hZScsICc8aW5maWxlLm1hZT4nLCAnLW9tYWUnLCAnPG91dGZpbGUubWFlPic=

> <r_lp_tautomer_probability>
0.999

> <r_epik_Ionization_Penalty>
0.695848

> <r_epik_Ionization_Penalty_Charging>
0.695697

> <r_epik_Ionization_Penalty_Neutral>
0.000150585

> <r_epik_State_Penalty>
0.717972

> <r_epik_Charging_Adjusted_Penalty>
1.41367

> <i_epik_Tot_Q>
1

> <i_epik_Tot_abs_Q>
1

> <r_epik_Metal_State_Penalty>
0.763271

> <b_epik_Metal_Only>
0

> <s_lp_Force_Field>
OPLS_2005

> <r_lp_Energy>
20.6348

> <b_lp_Chiralities_Consistent>
1

> <s_lp_Variant>
AV-unprocessed.smi:2007-3

> <Gold.Version>
5.8.1

> <Gold.Id.Protein>
6NUR|6NUR_protein|mol2

> <Gold.PLP.Fitness>
39.5648

> <Gold.PLP.PLP>
-27.8862

> <Gold.PLP.part.hbond>
-3.0765

> <Gold.PLP.part.metal>
0.0000

> <Gold.PLP.part.buried>
-3.9927

> <Gold.PLP.part.nonpolar>
-22.2886

> <Gold.PLP.part.repulsive>
1.6594

> <Gold.PLP.ligand.clash>
0.0000

> <Gold.PLP.ligand.torsion>
0.1674

> <Gold.PLP.Chemscore.Hbond>
3.9920

> <Gold.PLP.Chemscore.CHOScore>
0.0000

> <Gold.PLP.Chemscore.Metal>
0.0000

> <Gold.Chemscore.Hbonds>
donor molecule, donor type, donor heavy atom, donor atom, acceptor molecule, acceptor atom, score
      L1  H     4    37       P1  7948  2.00
      L1  H    10    33       P1 10175  1.00
      L1  H    13    34       P1 10175  0.99

> <Gold.PLP.Chemscore.Internal.Correction>
0.0374

> <Gold.Rescore>
     Score         DG    S(hbond)    S(metal)    S(lipo)     H(rot)  DE(clash)    DE(int)     intcor
     15.93     -17.34       2.96        0.00      52.66       1.63       0.01       1.40       ----

> <Gold.Chemscore.Fitness>
15.9321

> <Gold.Chemscore.DG>
-17.3380

> <Gold.Chemscore.ZeroCoef>
-5.4800

> <Gold.Chemscore.Hbond>
2.9555

> <Gold.Chemscore.Metal>
0.0000

> <Gold.Chemscore.Lipo>
52.6578

> <Gold.Chemscore.Internal_Hbond>
0.0000

> <Gold.Chemscore.DEClash>
0.0073

> <Gold.Chemscore.DEInternal>
1.3986

> <Gold.Chemscore.Rot>
1.6306

> <Gold.Chemscore.Internal.Correction>
   9.000000E+99

> <Gold.Chemscore.Hbonds>
donor molecule, donor type, donor heavy atom, donor atom, acceptor molecule, acceptor atom, score
      L1  H     4    37       P1  7948  1.00
      L1  H    10    33       P1 10175  0.99
      L1  H    13    34       P1 10175  0.93

> <Gold.Chemscore.Hbond.Weighted>
-9.8713

> <Gold.Chemscore.Metal.Weighted>
-0.0000

> <Gold.Chemscore.Lipo.Weighted>
-6.1610

> <Gold.Chemscore.Internal_Hbond.Weighted>
0.0000

> <Gold.Chemscore.DEClash.Weighted>
0.0073

> <Gold.Chemscore.DEInternal.Weighted>
1.3986

> <Gold.Chemscore.Rot.Weighted>
4.1743

> <Gold.Chemscore.Internal.Correction.Weighted>
   9.000000E+99

> <Gold.Protein.RotatedTorsions>
[ 6907 6896 6895 6894 ] final   93.59 input  -60.11 | X-H torsion
[ 7974 7965 7964 7962 ] final -179.79 input  175.53 | X-H torsion
[ 8008 7997 7996 7995 ] final  161.42 input   59.86 | X-H torsion
[ 10167 10162 10161 10158 ] final  -27.85 input  -65.29 | X-H torsion
[ 10718 10713 10712 10709 ] final -106.50 input   66.30 | X-H torsion
[ 10763 10752 10751 10750 ] final   81.24 input  -60.55 | X-H torsion
[ 11005 11000 10999 10996 ] final -111.47 input  -57.11 | X-H torsion

> <Gold.Protein.ActiveResidues>
 VAL166  LYS551  ARG553  GLY616  TRP617  ASP618  TYR619  PRO620  LYS621  CYS622 
 ASP623  PHE694  ASN695  SER759  ASP760  ASP761  ALA762  ILE779  LEU786  VAL792 
 PHE793  MET794  SER795  GLU796  ALA797  LYS798  CYS799  TRP800  GLU811  SER814 

> <Gold.Protein.RotatedAtoms>
  152.5452  134.1325  159.8444 H   0  0  0  0  0  0  0  0  0  0  0  0  # atno 6907 bound_to 6896
  151.1369  133.4991  159.2605 H   0  0  0  0  0  0  0  0  0  0  0  0  # atno 6908 bound_to 6896
  151.1615  135.0285  159.8767 H   0  0  0  0  0  0  0  0  0  0  0  0  # atno 6909 bound_to 6896
  144.7139  140.0665  143.6431 H   0  0  0  0  0  0  0  0  0  0  0  0  # atno 7974 bound_to 7965
  156.2104  140.1778  156.7707 H   0  0  0  0  0  0  0  0  0  0  0  0  # atno 8008 bound_to 7997
  154.5715  140.0681  156.9001 H   0  0  0  0  0  0  0  0  0  0  0  0  # atno 8009 bound_to 7997
  155.2665  140.3339  155.4271 H   0  0  0  0  0  0  0  0  0  0  0  0  # atno 8010 bound_to 7997
  140.7274  143.4059  151.1186 H   0  0  0  0  0  0  0  0  0  0  0  0  # atno 10167 bound_to 10162
  156.0393  130.5616  150.7689 H   0  0  0  0  0  0  0  0  0  0  0  0  # atno 10718 bound_to 10713
  153.1100  135.4772  154.9019 H   0  0  0  0  0  0  0  0  0  0  0  0  # atno 10763 bound_to 10752
  154.7471  135.3096  154.8627 H   0  0  0  0  0  0  0  0  0  0  0  0  # atno 10764 bound_to 10752
  153.9219  135.6854  153.4801 H   0  0  0  0  0  0  0  0  0  0  0  0  # atno 10765 bound_to 10752
  141.0732  133.9345  157.2443 H   0  0  0  0  0  0  0  0  0  0  0  0  # atno 11005 bound_to 11000
  145.9820  139.2948  143.1036 LP  0  0  0  0  0  0  0  0  0  0  0  0  # atno 17320 bound_to 7965
  145.9000  140.9249  143.0508 LP  0  0  0  0  0  0  0  0  0  0  0  0  # atno 17321 bound_to 7965
  139.7685  143.8529  152.3115 LP  0  0  0  0  0  0  0  0  0  0  0  0  # atno 17342 bound_to 10162
  139.8439  144.7197  150.9297 LP  0  0  0  0  0  0  0  0  0  0  0  0  # atno 17343 bound_to 10162
  157.5188  131.0930  151.0105 LP  0  0  0  0  0  0  0  0  0  0  0  0  # atno 17370 bound_to 10713
  157.0441  130.5761  149.5360 LP  0  0  0  0  0  0  0  0  0  0  0  0  # atno 17371 bound_to 10713
  139.9545  135.0168  156.9088 LP  0  0  0  0  0  0  0  0  0  0  0  0  # atno 17394 bound_to 11000
  140.5629  134.0517  155.7405 LP  0  0  0  0  0  0  0  0  0  0  0  0  # atno 17395 bound_to 11000

$$$$
