AV-unprocessed.smi:2019|AV-procd|sdf|8171|dock4
  -GOLD-   2272010423D 1   1.00000     0.00000
 Structure written by MMmdl.
 36 37  0  0  0  0  0  0  0  0  1 V2000
  150.9955  140.9851  157.8145 O   0  0  0  0  0  0  0  0  0  0  0  0
  150.8356  142.1053  157.3282 C   0  0  0  0  0  0  0  0  0  0  0  0
  151.6102  143.3152  157.8687 C   0  0  0  0  0  0  0  0  0  0  0  0
  152.0398  143.1505  159.2673 N   0  0  0  0  0  0  0  0  0  0  0  0
  152.8741  142.0527  159.5583 C   0  0  0  0  0  0  0  0  0  0  0  0
  153.3216  141.8105  160.8006 C   0  0  0  0  0  0  0  0  0  0  0  0
  152.9263  142.7125  161.8564 C   0  0  0  0  0  0  0  0  0  0  0  0
  152.1262  143.7639  161.5896 C   0  0  0  0  0  0  0  0  0  0  0  0
  151.6333  144.0314  160.2334 C   0  0  0  0  0  0  0  0  0  0  0  0
  150.9018  144.9891  159.9811 O   0  0  0  0  0  0  0  0  0  0  0  0
  150.0060  142.3493  156.3012 N   0  0  0  0  0  0  0  0  0  0  0  0
  149.1531  141.3571  155.6427 C   0  0  2  0  0  0  0  0  0  0  0  0
  148.2857  140.6893  156.7346 C   0  0  0  0  0  0  0  0  0  0  0  0
  146.9993  140.0403  156.1951 C   0  0  0  0  0  0  0  0  0  0  0  0
  147.2210  138.8466  155.2535 C   0  0  0  0  0  0  0  0  0  0  0  0
  147.9691  139.2104  153.9597 C   0  0  0  0  0  0  0  0  0  0  0  0
  149.4022  139.3579  154.1779 N   0  0  0  0  0  0  0  0  0  0  0  0
  150.0112  140.2764  154.9432 C   0  0  0  0  0  0  0  0  0  0  0  0
  151.2336  140.2528  155.0871 O   0  0  0  0  0  0  0  0  0  0  0  0
  152.4705  143.4830  157.2195 H   0  0  0  0  0  0  0  0  0  0  0  0
  150.9988  144.2145  157.7706 H   0  0  0  0  0  0  0  0  0  0  0  0
  153.1176  141.4226  158.7153 H   0  0  0  0  0  0  0  0  0  0  0  0
  153.9571  140.9616  161.0054 H   0  0  0  0  0  0  0  0  0  0  0  0
  153.2728  142.5421  162.8653 H   0  0  0  0  0  0  0  0  0  0  0  0
  151.8396  144.4274  162.3923 H   0  0  0  0  0  0  0  0  0  0  0  0
  149.9341  143.2998  155.9685 H   0  0  0  0  0  0  0  0  0  0  0  0
  148.5165  141.8613  154.9132 H   0  0  0  0  0  0  0  0  0  0  0  0
  148.8659  139.9611  157.3046 H   0  0  0  0  0  0  0  0  0  0  0  0
  147.9796  141.4467  157.4580 H   0  0  0  0  0  0  0  0  0  0  0  0
  146.3986  139.7059  157.0416 H   0  0  0  0  0  0  0  0  0  0  0  0
  146.3985  140.7958  155.6867 H   0  0  0  0  0  0  0  0  0  0  0  0
  147.7420  138.0438  155.7774 H   0  0  0  0  0  0  0  0  0  0  0  0
  146.2446  138.4423  154.9848 H   0  0  0  0  0  0  0  0  0  0  0  0
  147.8367  138.4092  153.2323 H   0  0  0  0  0  0  0  0  0  0  0  0
  147.5557  140.1109  153.5031 H   0  0  0  0  0  0  0  0  0  0  0  0
  149.9934  138.6749  153.7264 H   0  0  0  0  0  0  0  0  0  0  0  0
  1  2  2  0  0  0  0
  2  3  1  0  0  0  0
  2 11  1  0  0  0  0
  3  4  1  0  0  0  0
  3 20  1  0  0  0  0
  3 21  1  0  0  0  0
  4  9  1  0  0  0  0
  4  5  1  0  0  0  0
  5  6  2  0  0  0  0
  5 22  1  0  0  0  0
  6  7  1  0  0  0  0
  6 23  1  0  0  0  0
  7  8  2  0  0  0  0
  7 24  1  0  0  0  0
  8  9  1  0  0  0  0
  8 25  1  0  0  0  0
  9 10  2  0  0  0  0
 11 12  1  0  0  0  0
 11 26  1  0  0  0  0
 12 18  1  0  0  0  0
 12 13  1  0  0  0  0
 12 27  1  0  0  0  0
 13 14  1  0  0  0  0
 13 28  1  0  0  0  0
 13 29  1  0  0  0  0
 14 15  1  0  0  0  0
 14 30  1  0  0  0  0
 14 31  1  0  0  0  0
 15 16  1  0  0  0  0
 15 32  1  0  0  0  0
 15 33  1  0  0  0  0
 16 17  1  0  0  0  0
 16 34  1  0  0  0  0
 16 35  1  0  0  0  0
 17 18  1  0  0  0  0
 17 36  1  0  0  0  0
 18 19  2  0  0  0  0
M  END
> <s_m_source_file>
AV-unprocessed.smi

> <i_m_source_file_index>
2019

> <i_lp_mmshare_version>
43012

> <i_f3d_flags>
0

> <s_epik_input>
Tz1jMVtjSF1bY0hdW2NIXVtjSF1uMVtDSDJdQyg9TylbTkhdW0NAQEhdMltDSDJdW0NIMl1bQ0gyXVtDSDJdW05IXUMyPU8=

> <s_epik_cmdline>
J2VwaWtfcHl0aG9uJywgJy1waCcsICc3LjAnLCAnLXRuJywgJzgnLCAnLW1hJywgJzIwMCcsICctbWV0YWxfYmluZGluZycsICctaW1hZScsICc8aW5maWxlLm1hZT4nLCAnLW9tYWUnLCAnPG91dGZpbGUubWFlPic=

> <r_lp_tautomer_probability>
1

> <r_epik_Ionization_Penalty>
3.70786e-07

> <r_epik_Ionization_Penalty_Charging>
3.17464e-07

> <r_epik_Ionization_Penalty_Neutral>
5.33217e-08

> <r_epik_State_Penalty>
-0

> <r_epik_Charging_Adjusted_Penalty>
3.17464e-07

> <i_epik_Tot_Q>
0

> <i_epik_Tot_abs_Q>
0

> <r_epik_Metal_State_Penalty>
-0

> <b_epik_Metal_Only>
0

> <s_lp_Force_Field>
OPLS_2005

> <r_lp_Energy>
20.44

> <b_lp_Chiralities_Consistent>
1

> <s_lp_Variant>
AV-unprocessed.smi:2019-1

> <Gold.Version>
5.8.1

> <Gold.Id.Protein>
6NUR|6NUR_protein|mol2

> <Gold.PLP.Fitness>
44.6548

> <Gold.PLP.PLP>
-39.3926

> <Gold.PLP.part.hbond>
-3.0000

> <Gold.PLP.part.metal>
0.0000

> <Gold.PLP.part.buried>
-5.4432

> <Gold.PLP.part.nonpolar>
-32.0204

> <Gold.PLP.part.repulsive>
0.4068

> <Gold.PLP.ligand.clash>
0.0000

> <Gold.PLP.ligand.torsion>
0.3694

> <Gold.PLP.Chemscore.Hbond>
2.0000

> <Gold.PLP.Chemscore.CHOScore>
0.0000

> <Gold.PLP.Chemscore.Metal>
0.0000

> <Gold.Chemscore.Hbonds>
donor molecule, donor type, donor heavy atom, donor atom, acceptor molecule, acceptor atom, score
      L1  H    11    26       P1  8028  0.96
      P1  H  7989  7998       L1    19  0.85

> <Gold.PLP.Chemscore.Internal.Correction>
0.0010

> <Gold.Rescore>
     Score         DG    S(hbond)    S(metal)    S(lipo)     H(rot)  DE(clash)    DE(int)     intcor
      7.46     -13.54       1.00        0.00      75.33       1.59       0.09       6.00       ----

> <Gold.Chemscore.Fitness>
7.4587

> <Gold.Chemscore.DG>
-13.5422

> <Gold.Chemscore.ZeroCoef>
-5.4800

> <Gold.Chemscore.Hbond>
0.9968

> <Gold.Chemscore.Metal>
0.0000

> <Gold.Chemscore.Lipo>
75.3268

> <Gold.Chemscore.Internal_Hbond>
0.0000

> <Gold.Chemscore.DEClash>
0.0882

> <Gold.Chemscore.DEInternal>
5.9952

> <Gold.Chemscore.Rot>
1.5939

> <Gold.Chemscore.Internal.Correction>
   9.000000E+99

> <Gold.Chemscore.Hbonds>
donor molecule, donor type, donor heavy atom, donor atom, acceptor molecule, acceptor atom, score
      L1  H    11    26       P1  8028  0.92
      P1  H  7989  7998       L1    19  0.14

> <Gold.Chemscore.Hbond.Weighted>
-3.3294

> <Gold.Chemscore.Metal.Weighted>
-0.0000

> <Gold.Chemscore.Lipo.Weighted>
-8.8132

> <Gold.Chemscore.Internal_Hbond.Weighted>
0.0000

> <Gold.Chemscore.DEClash.Weighted>
0.0882

> <Gold.Chemscore.DEInternal.Weighted>
5.9952

> <Gold.Chemscore.Rot.Weighted>
4.0804

> <Gold.Chemscore.Internal.Correction.Weighted>
   9.000000E+99

> <Gold.Protein.RotatedTorsions>
[ 6907 6896 6895 6894 ] final  -79.74 input  -60.11 | X-H torsion
[ 7974 7965 7964 7962 ] final  -50.06 input  175.53 | X-H torsion
[ 8008 7997 7996 7995 ] final  -40.18 input   59.86 | X-H torsion
[ 10167 10162 10161 10158 ] final  -38.25 input  -65.29 | X-H torsion
[ 10718 10713 10712 10709 ] final  167.04 input   66.30 | X-H torsion
[ 10763 10752 10751 10750 ] final  164.85 input  -60.55 | X-H torsion
[ 11005 11000 10999 10996 ] final  -20.40 input  -57.11 | X-H torsion

> <Gold.Protein.ActiveResidues>
 VAL166  LYS551  ARG553  GLY616  TRP617  ASP618  TYR619  PRO620  LYS621  CYS622 
 ASP623  PHE694  ASN695  SER759  ASP760  ASP761  ALA762  ILE779  LEU786  VAL792 
 PHE793  MET794  SER795  GLU796  ALA797  LYS798  CYS799  TRP800  GLU811  SER814 

> <Gold.Protein.RotatedAtoms>
  150.6943  134.4075  159.5146 H   0  0  0  0  0  0  0  0  0  0  0  0  # atno 6907 bound_to 6896
  152.1838  134.8728  160.0533 H   0  0  0  0  0  0  0  0  0  0  0  0  # atno 6908 bound_to 6896
  151.9709  133.3690  159.4107 H   0  0  0  0  0  0  0  0  0  0  0  0  # atno 6909 bound_to 6896
  145.9339  140.7724  142.9586 H   0  0  0  0  0  0  0  0  0  0  0  0  # atno 7974 bound_to 7965
  154.4015  140.1532  156.2985 H   0  0  0  0  0  0  0  0  0  0  0  0  # atno 8008 bound_to 7997
  155.8721  140.3448  155.5807 H   0  0  0  0  0  0  0  0  0  0  0  0  # atno 8009 bound_to 7997
  155.7762  140.0837  157.2073 H   0  0  0  0  0  0  0  0  0  0  0  0  # atno 8010 bound_to 7997
  140.7097  143.3289  151.2614 H   0  0  0  0  0  0  0  0  0  0  0  0  # atno 10167 bound_to 10162
  157.0572  131.0330  151.2660 H   0  0  0  0  0  0  0  0  0  0  0  0  # atno 10718 bound_to 10713
  154.3152  135.2756  155.2547 H   0  0  0  0  0  0  0  0  0  0  0  0  # atno 10763 bound_to 10752
  154.4924  135.5830  153.6473 H   0  0  0  0  0  0  0  0  0  0  0  0  # atno 10764 bound_to 10752
  152.9883  135.6138  154.3332 H   0  0  0  0  0  0  0  0  0  0  0  0  # atno 10765 bound_to 10752
  140.8461  133.7891  155.9914 H   0  0  0  0  0  0  0  0  0  0  0  0  # atno 11005 bound_to 11000
  144.6769  140.2171  143.7370 LP  0  0  0  0  0  0  0  0  0  0  0  0  # atno 17320 bound_to 7965
  145.8390  139.2121  143.1839 LP  0  0  0  0  0  0  0  0  0  0  0  0  # atno 17321 bound_to 7965
  139.6766  143.9927  152.2784 LP  0  0  0  0  0  0  0  0  0  0  0  0  # atno 17342 bound_to 10162
  139.9543  144.6599  150.8141 LP  0  0  0  0  0  0  0  0  0  0  0  0  # atno 17343 bound_to 10162
  157.4983  130.7864  149.7578 LP  0  0  0  0  0  0  0  0  0  0  0  0  # atno 17370 bound_to 10713
  155.9989  130.3891  150.2683 LP  0  0  0  0  0  0  0  0  0  0  0  0  # atno 17371 bound_to 10713
  140.8842  134.2574  157.5128 LP  0  0  0  0  0  0  0  0  0  0  0  0  # atno 17394 bound_to 11000
  139.8703  134.9630  156.4447 LP  0  0  0  0  0  0  0  0  0  0  0  0  # atno 17395 bound_to 11000

$$$$
