AV-unprocessed.smi:2752|AV-procd|sdf|10607|dock9
  -GOLD-   2272015 63D 1   1.00000     0.00000
 Structure written by MMmdl.
 34 35  0  0  0  0  0  0  0  0  1 V2000
  150.7880  140.2360  158.6835 C   0  0  0  0  0  0  0  0  0  0  0  0
  150.8848  141.6378  158.8771 O   0  0  0  0  0  0  0  0  0  0  0  0
  152.1552  142.1802  158.5260 C   0  0  2  0  0  0  0  0  0  0  0  0
  152.7407  142.9052  159.7429 C   0  0  0  0  0  0  0  0  0  0  0  0
  152.0574  144.2696  159.7280 C   0  0  0  0  0  0  0  0  0  0  0  0
  151.9304  144.6258  158.2444 C   0  0  0  0  0  0  0  0  0  0  0  0
  151.9824  143.2948  157.4685 C   0  0  2  0  0  0  0  0  0  0  0  0
  150.7924  143.1179  156.6386 N   0  0  0  0  0  0  0  0  0  0  0  0
  150.4617  141.9816  156.0090 C   0  0  0  0  0  0  0  0  0  0  0  0
  151.1479  140.9599  156.0497 O   0  0  0  0  0  0  0  0  0  0  0  0
  149.2984  142.1130  155.3476 N   0  0  0  0  0  0  0  0  0  0  0  0
  148.6132  141.1385  154.5744 C   0  0  0  0  0  0  0  0  0  0  0  0
  147.5297  141.6332  153.8130 C   0  0  0  0  0  0  0  0  0  0  0  0
  146.7843  140.7470  153.0110 C   0  0  0  0  0  0  0  0  0  0  0  0
  147.1435  139.3876  152.9926 C   0  0  0  0  0  0  0  0  0  0  0  0
  146.4567  138.4980  152.2371 F   0  0  0  0  0  0  0  0  0  0  0  0
  148.2348  138.9759  153.7796 C   0  0  0  0  0  0  0  0  0  0  0  0
  148.9501  139.8244  154.5483 N   0  0  0  0  0  0  0  0  0  0  0  0
  149.8002  139.8938  158.9913 H   0  0  0  0  0  0  0  0  0  0  0  0
  151.5287  139.6930  159.2705 H   0  0  0  0  0  0  0  0  0  0  0  0
  150.9180  139.9776  157.6319 H   0  0  0  0  0  0  0  0  0  0  0  0
  152.8187  141.3985  158.1516 H   0  0  0  0  0  0  0  0  0  0  0  0
  152.5936  142.3733  160.6827 H   0  0  0  0  0  0  0  0  0  0  0  0
  153.8148  143.0363  159.6056 H   0  0  0  0  0  0  0  0  0  0  0  0
  151.0641  144.1839  160.1707 H   0  0  0  0  0  0  0  0  0  0  0  0
  152.6088  145.0210  160.2937 H   0  0  0  0  0  0  0  0  0  0  0  0
  151.0188  145.1947  158.0561 H   0  0  0  0  0  0  0  0  0  0  0  0
  152.7675  145.2560  157.9417 H   0  0  0  0  0  0  0  0  0  0  0  0
  152.8658  143.3164  156.8269 H   0  0  0  0  0  0  0  0  0  0  0  0
  150.1710  143.9092  156.5589 H   0  0  0  0  0  0  0  0  0  0  0  0
  148.8480  143.0139  155.4094 H   0  0  0  0  0  0  0  0  0  0  0  0
  147.2685  142.6812  153.8399 H   0  0  0  0  0  0  0  0  0  0  0  0
  145.9530  141.1050  152.4218 H   0  0  0  0  0  0  0  0  0  0  0  0
  148.5418  137.9406  153.7933 H   0  0  0  0  0  0  0  0  0  0  0  0
  1  2  1  0  0  0  0
  1 19  1  0  0  0  0
  1 20  1  0  0  0  0
  1 21  1  0  0  0  0
  2  3  1  0  0  0  0
  3  7  1  0  0  0  0
  3  4  1  0  0  0  0
  3 22  1  0  0  0  0
  4  5  1  0  0  0  0
  4 23  1  0  0  0  0
  4 24  1  0  0  0  0
  5  6  1  0  0  0  0
  5 25  1  0  0  0  0
  5 26  1  0  0  0  0
  6  7  1  0  0  0  0
  6 27  1  0  0  0  0
  6 28  1  0  0  0  0
  7  8  1  0  0  0  0
  7 29  1  0  0  0  0
  8  9  1  0  0  0  0
  8 30  1  0  0  0  0
  9 10  2  0  0  0  0
  9 11  1  0  0  0  0
 11 12  1  0  0  0  0
 11 31  1  0  0  0  0
 12 18  1  0  0  0  0
 12 13  2  0  0  0  0
 13 14  1  0  0  0  0
 13 32  1  0  0  0  0
 14 15  2  0  0  0  0
 14 33  1  0  0  0  0
 15 16  1  0  0  0  0
 15 17  1  0  0  0  0
 17 18  2  0  0  0  0
 17 34  1  0  0  0  0
M  END
> <s_m_source_file>
AV-unprocessed.smi

> <i_m_source_file_index>
2752

> <i_lp_mmshare_version>
43012

> <i_f3d_flags>
0

> <s_epik_input>
W0NIM11PW0NAQEhdMVtDSDJdW0NIMl1bQ0gyXVtDQEhdMVtOSF1DKD1PKVtOSF1jMltjSF1bY0hdYyhGKVtjSF1uMg==

> <s_epik_cmdline>
J2VwaWtfcHl0aG9uJywgJy1waCcsICc3LjAnLCAnLXRuJywgJzgnLCAnLW1hJywgJzIwMCcsICctbWV0YWxfYmluZGluZycsICctaW1hZScsICc8aW5maWxlLm1hZT4nLCAnLW9tYWUnLCAnPG91dGZpbGUubWFlPic=

> <r_lp_tautomer_probability>
1

> <r_epik_Ionization_Penalty>
3.49853e-05

> <r_epik_Ionization_Penalty_Charging>
0

> <r_epik_Ionization_Penalty_Neutral>
3.49853e-05

> <r_epik_State_Penalty>
-0

> <r_epik_Charging_Adjusted_Penalty>
0

> <i_epik_Tot_Q>
0

> <i_epik_Tot_abs_Q>
0

> <r_epik_Metal_State_Penalty>
-0

> <b_epik_Metal_Only>
0

> <s_lp_Force_Field>
OPLS_2005

> <r_lp_Energy>
23.7965

> <b_lp_Chiralities_Consistent>
1

> <s_lp_Variant>
AV-unprocessed.smi:2752-3

> <Gold.Version>
5.8.1

> <Gold.Id.Protein>
6NUR|6NUR_protein|mol2

> <Gold.PLP.Fitness>
45.2392

> <Gold.PLP.PLP>
-38.1401

> <Gold.PLP.part.hbond>
-2.0690

> <Gold.PLP.part.metal>
0.0000

> <Gold.PLP.part.buried>
-3.0986

> <Gold.PLP.part.nonpolar>
-32.7351

> <Gold.PLP.part.repulsive>
0.3843

> <Gold.PLP.ligand.clash>
0.0000

> <Gold.PLP.ligand.torsion>
0.8636

> <Gold.PLP.Chemscore.Hbond>
1.9760

> <Gold.PLP.Chemscore.CHOScore>
0.9623

> <Gold.PLP.Chemscore.Metal>
0.0000

> <Gold.Chemscore.Hbonds>
donor molecule, donor type, donor heavy atom, donor atom, acceptor molecule, acceptor atom, score
      L1  H     8    30       P1  8028  0.98
      L1  H    11    31       P1  8028  1.00
      L1  C    17    34       P1  7948  0.83

> <Gold.PLP.Chemscore.Internal.Correction>
0.0115

> <Gold.Rescore>
     Score         DG    S(hbond)    S(metal)    S(lipo)     H(rot)  DE(clash)    DE(int)     intcor
     14.40     -19.72       1.95        0.00      94.03       1.28       1.47       3.85       ----

> <Gold.Chemscore.Fitness>
14.4025

> <Gold.Chemscore.DG>
-19.7217

> <Gold.Chemscore.ZeroCoef>
-5.4800

> <Gold.Chemscore.Hbond>
1.9528

> <Gold.Chemscore.Metal>
0.0000

> <Gold.Chemscore.Lipo>
94.0303

> <Gold.Chemscore.Internal_Hbond>
0.0000

> <Gold.Chemscore.DEClash>
1.4675

> <Gold.Chemscore.DEInternal>
3.8516

> <Gold.Chemscore.Rot>
1.2821

> <Gold.Chemscore.Internal.Correction>
   9.000000E+99

> <Gold.Chemscore.Hbonds>
donor molecule, donor type, donor heavy atom, donor atom, acceptor molecule, acceptor atom, score
      L1  H     8    30       P1  8028  0.93
      L1  H    11    31       P1  8028  0.97

> <Gold.Chemscore.Hbond.Weighted>
-6.5223

> <Gold.Chemscore.Metal.Weighted>
-0.0000

> <Gold.Chemscore.Lipo.Weighted>
-11.0015

> <Gold.Chemscore.Internal_Hbond.Weighted>
0.0000

> <Gold.Chemscore.DEClash.Weighted>
1.4675

> <Gold.Chemscore.DEInternal.Weighted>
3.8516

> <Gold.Chemscore.Rot.Weighted>
3.2822

> <Gold.Chemscore.Internal.Correction.Weighted>
   9.000000E+99

> <Gold.Protein.RotatedTorsions>
[ 6907 6896 6895 6894 ] final   19.53 input  -60.11 | X-H torsion
[ 7974 7965 7964 7962 ] final  100.53 input  175.53 | X-H torsion
[ 8008 7997 7996 7995 ] final   20.31 input   59.86 | X-H torsion
[ 10167 10162 10161 10158 ] final  165.29 input  -65.29 | X-H torsion
[ 10718 10713 10712 10709 ] final   18.35 input   66.30 | X-H torsion
[ 10763 10752 10751 10750 ] final -108.46 input  -60.55 | X-H torsion
[ 11005 11000 10999 10996 ] final  119.00 input  -57.11 | X-H torsion

> <Gold.Protein.ActiveResidues>
 VAL166  LYS551  ARG553  GLY616  TRP617  ASP618  TYR619  PRO620  LYS621  CYS622 
 ASP623  PHE694  ASN695  SER759  ASP760  ASP761  ALA762  ILE779  LEU786  VAL792 
 PHE793  MET794  SER795  GLU796  ALA797  LYS798  CYS799  TRP800  GLU811  SER814 

> <Gold.Protein.RotatedAtoms>
  151.8823  135.0449  160.0489 H   0  0  0  0  0  0  0  0  0  0  0  0  # atno 6907 bound_to 6896
  152.2503  133.5205  159.5330 H   0  0  0  0  0  0  0  0  0  0  0  0  # atno 6908 bound_to 6896
  150.7081  134.0886  159.3966 H   0  0  0  0  0  0  0  0  0  0  0  0  # atno 6909 bound_to 6896
  145.3843  139.2374  143.3386 H   0  0  0  0  0  0  0  0  0  0  0  0  # atno 7974 bound_to 7965
  154.9337  140.3044  155.5155 H   0  0  0  0  0  0  0  0  0  0  0  0  # atno 8008 bound_to 7997
  156.3001  140.2349  156.4336 H   0  0  0  0  0  0  0  0  0  0  0  0  # atno 8009 bound_to 7997
  154.8213  140.0423  157.1401 H   0  0  0  0  0  0  0  0  0  0  0  0  # atno 8010 bound_to 7997
  139.4903  144.4147  151.9258 H   0  0  0  0  0  0  0  0  0  0  0  0  # atno 10167 bound_to 10162
  157.0950  130.6444  149.5858 H   0  0  0  0  0  0  0  0  0  0  0  0  # atno 10718 bound_to 10713
  154.8137  135.4637  154.0584 H   0  0  0  0  0  0  0  0  0  0  0  0  # atno 10763 bound_to 10752
  153.1995  135.6867  153.8256 H   0  0  0  0  0  0  0  0  0  0  0  0  # atno 10764 bound_to 10752
  153.7746  135.3265  155.3334 H   0  0  0  0  0  0  0  0  0  0  0  0  # atno 10765 bound_to 10752
  139.9130  134.9625  156.7588 H   0  0  0  0  0  0  0  0  0  0  0  0  # atno 11005 bound_to 11000
  146.2827  140.4515  142.8770 LP  0  0  0  0  0  0  0  0  0  0  0  0  # atno 17320 bound_to 7965
  144.8485  140.6966  143.6183 LP  0  0  0  0  0  0  0  0  0  0  0  0  # atno 17321 bound_to 7965
  140.3589  144.2997  150.5936 LP  0  0  0  0  0  0  0  0  0  0  0  0  # atno 17342 bound_to 10162
  140.5420  143.2222  151.8069 LP  0  0  0  0  0  0  0  0  0  0  0  0  # atno 17343 bound_to 10162
  155.9888  130.4933  150.7186 LP  0  0  0  0  0  0  0  0  0  0  0  0  # atno 17370 bound_to 10713
  157.4689  131.0891  151.0664 LP  0  0  0  0  0  0  0  0  0  0  0  0  # atno 17371 bound_to 10713
  140.6714  133.9556  155.7858 LP  0  0  0  0  0  0  0  0  0  0  0  0  # atno 17394 bound_to 11000
  141.0575  134.0395  157.3703 LP  0  0  0  0  0  0  0  0  0  0  0  0  # atno 17395 bound_to 11000

$$$$
