AV-unprocessed.smi:215|AV-procd|sdf|1657|dock7
  -GOLD-   2262020 53D 1   1.00000     0.00000
 Structure written by MMmdl.
 59 62  0  0  0  0  0  0  0  0  2 V2000
  147.9358  141.7923  154.2633 C   0  0  0  0  0  0  0  0  0  0  0  0
  147.6492  140.6967  155.3148 C   0  0  1  0  0  0  0  0  0  0  0  0
  147.3617  141.2480  156.7275 C   0  0  1  0  0  0  0  0  0  0  0  0
  148.2827  142.3296  157.1888 N   0  3  1  0  0  0  0  0  0  0  0  0
  147.8687  142.9156  158.4894 C   0  0  0  0  0  0  0  0  0  0  0  0
  149.7088  141.8987  157.2026 C   0  0  0  0  0  0  0  0  0  0  0  0
  150.6612  142.9731  157.7600 C   0  0  0  0  0  0  0  0  0  0  0  0
  151.0076  143.8945  156.7485 O   0  0  0  0  0  0  0  0  0  0  0  0
  145.8775  141.6390  156.6253 C   0  0  0  0  0  0  0  0  0  0  0  0
  145.2830  140.5951  155.6718 C   0  0  0  0  0  0  0  0  0  0  0  0
  146.4220  139.9768  155.0014 N   0  0  0  0  0  0  0  0  0  0  0  0
  146.2694  139.1564  153.9263 C   0  0  0  0  0  0  0  0  0  0  0  0
  146.8796  139.5064  152.7629 N   0  0  0  0  0  0  0  0  0  0  0  0
  146.7737  138.7359  151.6773 C   0  0  0  0  0  0  0  0  0  0  0  0
  146.1070  137.5910  151.5312 N   0  0  0  0  0  0  0  0  0  0  0  0
  145.4750  137.2366  152.6859 C   0  0  0  0  0  0  0  0  0  0  0  0
  145.5040  137.9507  153.9198 C   0  0  0  0  0  0  0  0  0  0  0  0
  144.7447  137.2682  154.8649 N   0  0  0  0  0  0  0  0  0  0  0  0
  144.3078  136.2133  154.2346 C   0  0  0  0  0  0  0  0  0  0  0  0
  144.6758  136.1296  152.9121 N   0  0  0  0  0  0  0  0  0  0  0  0
  144.3695  135.0646  152.0025 C   0  0  0  0  0  0  0  0  0  0  0  0
  144.9188  133.6529  152.2219 C   0  0  0  0  0  0  0  0  0  0  0  0
  144.9712  133.4437  150.6915 C   0  0  0  0  0  0  0  0  0  0  0  0
  146.2209  132.6952  150.1959 C   0  0  0  0  0  0  0  0  0  0  0  0
  146.2564  131.3608  150.6582 O   0  0  0  0  0  0  0  0  0  0  0  0
  143.7097  132.7705  150.1101 C   0  0  0  0  0  0  0  0  0  0  0  0
  142.6000  132.8700  150.9792 O   0  0  0  0  0  0  0  0  0  0  0  0
  145.0239  134.9873  150.6216 C   0  0  0  0  0  0  0  0  0  0  0  0
  148.4851  140.0018  155.3688 H   0  0  0  0  0  0  0  0  0  0  0  0
  147.4347  140.4225  157.4388 H   0  0  0  0  0  0  0  0  0  0  0  0
  148.8597  142.3241  154.4839 H   0  0  0  0  0  0  0  0  0  0  0  0
  147.1334  142.5280  154.2096 H   0  0  0  0  0  0  0  0  0  0  0  0
  148.0500  141.3662  153.2669 H   0  0  0  0  0  0  0  0  0  0  0  0
  147.8343  142.1511  159.2666 H   0  0  0  0  0  0  0  0  0  0  0  0
  146.8843  143.3782  158.4232 H   0  0  0  0  0  0  0  0  0  0  0  0
  148.5501  143.6982  158.8184 H   0  0  0  0  0  0  0  0  0  0  0  0
  149.7995  140.9800  157.7841 H   0  0  0  0  0  0  0  0  0  0  0  0
  150.0469  141.6478  156.1978 H   0  0  0  0  0  0  0  0  0  0  0  0
  150.2412  143.5046  158.6126 H   0  0  0  0  0  0  0  0  0  0  0  0
  151.5783  142.4994  158.1114 H   0  0  0  0  0  0  0  0  0  0  0  0
  150.2139  144.2125  156.3443 H   0  0  0  0  0  0  0  0  0  0  0  0
  145.3711  141.6454  157.5911 H   0  0  0  0  0  0  0  0  0  0  0  0
  145.7724  142.6319  156.1857 H   0  0  0  0  0  0  0  0  0  0  0  0
  144.7387  139.8304  156.2272 H   0  0  0  0  0  0  0  0  0  0  0  0
  144.5958  141.0589  154.9631 H   0  0  0  0  0  0  0  0  0  0  0  0
  147.2978  139.0872  150.8006 H   0  0  0  0  0  0  0  0  0  0  0  0
  143.6954  135.4670  154.7199 H   0  0  0  0  0  0  0  0  0  0  0  0
  143.2819  135.0479  151.9152 H   0  0  0  0  0  0  0  0  0  0  0  0
  145.9045  133.6622  152.6912 H   0  0  0  0  0  0  0  0  0  0  0  0
  144.2428  132.9841  152.7557 H   0  0  0  0  0  0  0  0  0  0  0  0
  146.2442  132.6603  149.1063 H   0  0  0  0  0  0  0  0  0  0  0  0
  147.1355  133.2022  150.5050 H   0  0  0  0  0  0  0  0  0  0  0  0
  147.0547  130.9574  150.3540 H   0  0  0  0  0  0  0  0  0  0  0  0
  143.4393  133.2072  149.1484 H   0  0  0  0  0  0  0  0  0  0  0  0
  143.8811  131.7106  149.9207 H   0  0  0  0  0  0  0  0  0  0  0  0
  141.9800  133.4783  150.6075 H   0  0  0  0  0  0  0  0  0  0  0  0
  144.4371  135.4359  149.8194 H   0  0  0  0  0  0  0  0  0  0  0  0
  146.0451  135.3739  150.6191 H   0  0  0  0  0  0  0  0  0  0  0  0
  148.2151  143.0670  156.5011 H   0  0  0  0  0  0  0  0  0  0  0  0
  1  2  1  0  0  0  0
  1 31  1  0  0  0  0
  1 32  1  0  0  0  0
  1 33  1  0  0  0  0
  2 29  1  0  0  0  0
  2 11  1  0  0  0  0
  2  3  1  0  0  0  0
  3 30  1  0  0  0  0
  3  4  1  0  0  0  0
  3  9  1  0  0  0  0
  4  5  1  0  0  0  0
  4  6  1  0  0  0  0
  4 59  1  0  0  0  0
  5 34  1  0  0  0  0
  5 35  1  0  0  0  0
  5 36  1  0  0  0  0
  6  7  1  0  0  0  0
  6 37  1  0  0  0  0
  6 38  1  0  0  0  0
  7  8  1  0  0  0  0
  7 39  1  0  0  0  0
  7 40  1  0  0  0  0
  8 41  1  0  0  0  0
  9 10  1  0  0  0  0
  9 42  1  0  0  0  0
  9 43  1  0  0  0  0
 10 11  1  0  0  0  0
 10 44  1  0  0  0  0
 10 45  1  0  0  0  0
 11 12  1  0  0  0  0
 12 17  1  0  0  0  0
 12 13  2  0  0  0  0
 13 14  1  0  0  0  0
 14 15  2  0  0  0  0
 14 46  1  0  0  0  0
 15 16  1  0  0  0  0
 16 20  1  0  0  0  0
 16 17  2  0  0  0  0
 17 18  1  0  0  0  0
 18 19  2  0  0  0  0
 19 20  1  0  0  0  0
 19 47  1  0  0  0  0
 20 21  1  0  0  0  0
 21 28  1  0  0  0  0
 21 22  1  0  0  0  0
 21 48  1  0  0  0  0
 22 23  1  0  0  0  0
 22 49  1  0  0  0  0
 22 50  1  0  0  0  0
 23 24  1  0  0  0  0
 23 26  1  0  0  0  0
 23 28  1  0  0  0  0
 24 25  1  0  0  0  0
 24 51  1  0  0  0  0
 24 52  1  0  0  0  0
 25 53  1  0  0  0  0
 26 27  1  0  0  0  0
 26 54  1  0  0  0  0
 26 55  1  0  0  0  0
 27 56  1  0  0  0  0
 28 57  1  0  0  0  0
 28 58  1  0  0  0  0
M  CHG  1   4   1
M  END
> <s_m_source_file>
AV-unprocessed.smi

> <i_m_source_file_index>
215

> <i_lp_mmshare_version>
43012

> <i_f3d_flags>
0

> <s_epik_input>
W09IXVtDSDJdW0NIMl1OKFtDSDNdKVtDQEBIXShbQ0BIXTFbQ0gzXSlbQ0gyXVtDSDJdTjFjKG5bY0hdbjIpYyhjMjMpbltjSF1uM1tDSF0oW0NIMl00KVtDSDJdQzQoW0NIMl1bT0hdKVtDSDJdW09IXQ==

> <s_epik_cmdline>
J2VwaWtfcHl0aG9uJywgJy1waCcsICc3LjAnLCAnLXRuJywgJzgnLCAnLW1hJywgJzIwMCcsICctbWV0YWxfYmluZGluZycsICctaW1hZScsICc8aW5maWxlLm1hZT4nLCAnLW9tYWUnLCAnPG91dGZpbGUubWFlPic=

> <r_lp_tautomer_probability>
1

> <r_epik_Ionization_Penalty>
0.0036237

> <r_epik_Ionization_Penalty_Charging>
0.0032725

> <r_epik_Ionization_Penalty_Neutral>
0.000351196

> <r_epik_State_Penalty>
-0

> <r_epik_Charging_Adjusted_Penalty>
0.0032725

> <i_epik_Tot_Q>
1

> <i_epik_Tot_abs_Q>
1

> <r_epik_Metal_State_Penalty>
-0

> <b_epik_Metal_Only>
0

> <s_lp_Force_Field>
OPLS_2005

> <r_lp_Energy>
65.1718

> <b_lp_Chiralities_Consistent>
1

> <s_lp_Variant>
AV-unprocessed.smi:215-8

> <Gold.Version>
5.8.1

> <Gold.Id.Protein>
6NUR|6NUR_protein|mol2

> <Gold.PLP.Fitness>
52.7946

> <Gold.PLP.PLP>
-38.4337

> <Gold.PLP.part.hbond>
-4.0000

> <Gold.PLP.part.metal>
0.0000

> <Gold.PLP.part.buried>
-7.5212

> <Gold.PLP.part.nonpolar>
-29.6556

> <Gold.PLP.part.repulsive>
1.4697

> <Gold.PLP.ligand.clash>
0.2153

> <Gold.PLP.ligand.torsion>
1.7498

> <Gold.PLP.Chemscore.Hbond>
5.0000

> <Gold.PLP.Chemscore.CHOScore>
0.7876

> <Gold.PLP.Chemscore.Metal>
0.0000

> <Gold.Chemscore.Hbonds>
donor molecule, donor type, donor heavy atom, donor atom, acceptor molecule, acceptor atom, score
      L1  H     4    59       P1  8028  2.00
      L1  H     8    41       P1  8028  1.00
      L1  H    25    53       P1 10747  1.00
      L1  H    27    56       P1 10186  1.00
      L1  C    14    46       P1  7957  0.77

> <Gold.PLP.Chemscore.Internal.Correction>
0.7129

> <Gold.Rescore>
     Score         DG    S(hbond)    S(metal)    S(lipo)     H(rot)  DE(clash)    DE(int)     intcor
      9.27     -15.17       3.66        0.00      76.31       4.48       0.73       5.17       ----

> <Gold.Chemscore.Fitness>
9.2697

> <Gold.Chemscore.DG>
-15.1697

> <Gold.Chemscore.ZeroCoef>
-5.4800

> <Gold.Chemscore.Hbond>
3.6609

> <Gold.Chemscore.Metal>
0.0000

> <Gold.Chemscore.Lipo>
76.3065

> <Gold.Chemscore.Internal_Hbond>
0.0000

> <Gold.Chemscore.DEClash>
0.7300

> <Gold.Chemscore.DEInternal>
5.1699

> <Gold.Chemscore.Rot>
4.4787

> <Gold.Chemscore.Internal.Correction>
   9.000000E+99

> <Gold.Chemscore.Hbonds>
donor molecule, donor type, donor heavy atom, donor atom, acceptor molecule, acceptor atom, score
      L1  H     4    59       P1  8028  0.47
      L1  H     8    41       P1  8028  0.96
      L1  H    25    53       P1 10747  0.97
      L1  H    27    56       P1 10186  0.94

> <Gold.Chemscore.Hbond.Weighted>
-12.2273

> <Gold.Chemscore.Metal.Weighted>
-0.0000

> <Gold.Chemscore.Lipo.Weighted>
-8.9279

> <Gold.Chemscore.Internal_Hbond.Weighted>
0.0000

> <Gold.Chemscore.DEClash.Weighted>
0.7300

> <Gold.Chemscore.DEInternal.Weighted>
5.1699

> <Gold.Chemscore.Rot.Weighted>
11.4655

> <Gold.Chemscore.Internal.Correction.Weighted>
   9.000000E+99

> <Gold.Protein.RotatedTorsions>
[ 6907 6896 6895 6894 ] final   89.98 input  -60.11 | X-H torsion
[ 7974 7965 7964 7962 ] final  171.74 input  175.53 | X-H torsion
[ 8008 7997 7996 7995 ] final  122.33 input   59.86 | X-H torsion
[ 10167 10162 10161 10158 ] final  -70.82 input  -65.29 | X-H torsion
[ 10718 10713 10712 10709 ] final -107.81 input   66.30 | X-H torsion
[ 10763 10752 10751 10750 ] final   98.56 input  -60.55 | X-H torsion
[ 11005 11000 10999 10996 ] final   91.16 input  -57.11 | X-H torsion

> <Gold.Protein.ActiveResidues>
 VAL166  LYS551  ARG553  GLY616  TRP617  ASP618  TYR619  PRO620  LYS621  CYS622 
 ASP623  PHE694  ASN695  SER759  ASP760  ASP761  ALA762  ILE779  LEU786  VAL792 
 PHE793  MET794  SER795  GLU796  ALA797  LYS798  CYS799  TRP800  GLU811  SER814 

> <Gold.Protein.RotatedAtoms>
  152.5441  134.1883  159.8663 H   0  0  0  0  0  0  0  0  0  0  0  0  # atno 6907 bound_to 6896
  151.1880  133.4677  159.2602 H   0  0  0  0  0  0  0  0  0  0  0  0  # atno 6908 bound_to 6896
  151.1111  135.0039  159.8550 H   0  0  0  0  0  0  0  0  0  0  0  0  # atno 6909 bound_to 6896
  144.7286  139.9395  143.6428 H   0  0  0  0  0  0  0  0  0  0  0  0  # atno 7974 bound_to 7965
  156.2723  140.2788  156.1450 H   0  0  0  0  0  0  0  0  0  0  0  0  # atno 8008 bound_to 7997
  155.0913  140.0388  157.2687 H   0  0  0  0  0  0  0  0  0  0  0  0  # atno 8009 bound_to 7997
  154.6887  140.2624  155.6840 H   0  0  0  0  0  0  0  0  0  0  0  0  # atno 8010 bound_to 7997
  140.5322  143.2320  151.7241 H   0  0  0  0  0  0  0  0  0  0  0  0  # atno 10167 bound_to 10162
  156.0455  130.5681  150.7874 H   0  0  0  0  0  0  0  0  0  0  0  0  # atno 10718 bound_to 10713
  153.2905  135.4144  155.1162 H   0  0  0  0  0  0  0  0  0  0  0  0  # atno 10763 bound_to 10752
  154.8519  135.3517  154.5988 H   0  0  0  0  0  0  0  0  0  0  0  0  # atno 10764 bound_to 10752
  153.6410  135.7057  153.5299 H   0  0  0  0  0  0  0  0  0  0  0  0  # atno 10765 bound_to 10752
  139.8843  134.8658  156.3389 H   0  0  0  0  0  0  0  0  0  0  0  0  # atno 11005 bound_to 11000
  146.0795  139.3783  143.0473 LP  0  0  0  0  0  0  0  0  0  0  0  0  # atno 17320 bound_to 7965
  145.7859  140.9836  143.1074 LP  0  0  0  0  0  0  0  0  0  0  0  0  # atno 17321 bound_to 7965
  139.4958  144.4097  152.0094 LP  0  0  0  0  0  0  0  0  0  0  0  0  # atno 17342 bound_to 10162
  140.3200  144.3439  150.6012 LP  0  0  0  0  0  0  0  0  0  0  0  0  # atno 17343 bound_to 10162
  157.5324  131.0937  150.9937 LP  0  0  0  0  0  0  0  0  0  0  0  0  # atno 17370 bound_to 10713
  157.0240  130.5685  149.5335 LP  0  0  0  0  0  0  0  0  0  0  0  0  # atno 17371 bound_to 10713
  140.9672  133.7350  156.0484 LP  0  0  0  0  0  0  0  0  0  0  0  0  # atno 17394 bound_to 11000
  140.7916  134.3611  157.5463 LP  0  0  0  0  0  0  0  0  0  0  0  0  # atno 17395 bound_to 11000

$$$$
