AV-unprocessed.smi:3284|AV-procd|sdf|12578|dock6
  -GOLD-   2272018503D 1   1.00000     0.00000
 Structure written by MMmdl.
 45 46  0  0  0  0  0  0  0  0  3 V2000
  153.3082  140.7813  159.0573 C   0  0  0  0  0  0  0  0  0  0  0  0
  152.7391  141.9031  159.9103 C   0  0  0  0  0  0  0  0  0  0  0  0
  152.9656  141.9145  161.2378 C   0  0  0  0  0  0  0  0  0  0  0  0
  152.5133  143.0147  162.1696 C   0  0  0  0  0  0  0  0  0  0  0  0
  152.2451  144.3092  161.3985 C   0  0  0  0  0  0  0  0  0  0  0  0
  151.3357  144.0603  160.1842 C   0  0  1  0  0  0  0  0  0  0  0  0
  151.0248  145.4026  159.4938 C   0  0  0  0  0  0  0  0  0  0  0  0
  151.9317  143.0082  159.1982 C   0  0  2  0  0  0  0  0  0  0  0  0
  150.8101  142.4373  158.2908 C   0  0  0  0  0  0  0  0  0  0  0  0
  150.8718  142.9510  156.9068 N   0  3  0  0  0  0  0  0  0  0  0  0
  150.7137  141.9117  155.8708 C   0  0  0  0  0  0  0  0  0  0  0  0
  149.4165  141.1176  156.0773 C   0  0  0  0  0  0  0  0  0  0  0  0
  148.3435  141.4912  155.1009 C   0  0  0  0  0  0  0  0  0  0  0  0
  147.7910  142.7042  154.9755 N   0  3  0  0  0  0  0  0  0  0  0  0
  146.8331  142.6937  153.9979 C   0  0  0  0  0  0  0  0  0  0  0  0
  146.7952  141.4151  153.5066 C   0  0  0  0  0  0  0  0  0  0  0  0
  147.7323  140.6975  154.2052 N   0  0  0  0  0  0  0  0  0  0  0  0
  148.0529  139.2794  154.0290 C   0  0  0  0  0  0  0  0  0  0  0  0
  153.8521  141.1873  158.2041 H   0  0  0  0  0  0  0  0  0  0  0  0
  152.5166  140.1253  158.6963 H   0  0  0  0  0  0  0  0  0  0  0  0
  154.0042  140.1650  159.6276 H   0  0  0  0  0  0  0  0  0  0  0  0
  153.5162  141.1067  161.6982 H   0  0  0  0  0  0  0  0  0  0  0  0
  151.6181  142.6823  162.6962 H   0  0  0  0  0  0  0  0  0  0  0  0
  153.2837  143.1866  162.9217 H   0  0  0  0  0  0  0  0  0  0  0  0
  151.7956  145.0427  162.0691 H   0  0  0  0  0  0  0  0  0  0  0  0
  153.1919  144.7367  161.0643 H   0  0  0  0  0  0  0  0  0  0  0  0
  150.3963  143.6637  160.5733 H   0  0  0  0  0  0  0  0  0  0  0  0
  151.9276  145.8506  159.0773 H   0  0  0  0  0  0  0  0  0  0  0  0
  150.6033  146.1164  160.2023 H   0  0  0  0  0  0  0  0  0  0  0  0
  150.3042  145.2980  158.6842 H   0  0  0  0  0  0  0  0  0  0  0  0
  152.6516  143.5313  158.5666 H   0  0  0  0  0  0  0  0  0  0  0  0
  150.8672  141.3476  158.2831 H   0  0  0  0  0  0  0  0  0  0  0  0
  149.8234  142.6876  158.6776 H   0  0  0  0  0  0  0  0  0  0  0  0
  150.1473  143.6453  156.7906 H   0  0  0  0  0  0  0  0  0  0  0  0
  150.7098  142.3876  154.8893 H   0  0  0  0  0  0  0  0  0  0  0  0
  151.5722  141.2393  155.9002 H   0  0  0  0  0  0  0  0  0  0  0  0
  149.5945  140.0479  155.9595 H   0  0  0  0  0  0  0  0  0  0  0  0
  149.0164  141.2686  157.0805 H   0  0  0  0  0  0  0  0  0  0  0  0
  146.2648  143.5735  153.7322 H   0  0  0  0  0  0  0  0  0  0  0  0
  146.1852  140.9748  152.7307 H   0  0  0  0  0  0  0  0  0  0  0  0
  147.3495  138.8300  153.3273 H   0  0  0  0  0  0  0  0  0  0  0  0
  147.9800  138.7661  154.9880 H   0  0  0  0  0  0  0  0  0  0  0  0
  149.0650  139.1859  153.6342 H   0  0  0  0  0  0  0  0  0  0  0  0
  151.7692  143.3970  156.7775 H   0  0  0  0  0  0  0  0  0  0  0  0
  148.0483  143.5159  155.5231 H   0  0  0  0  0  0  0  0  0  0  0  0
  1  2  1  0  0  0  0
  1 19  1  0  0  0  0
  1 20  1  0  0  0  0
  1 21  1  0  0  0  0
  2  8  1  0  0  0  0
  2  3  2  0  0  0  0
  3  4  1  0  0  0  0
  3 22  1  0  0  0  0
  4  5  1  0  0  0  0
  4 23  1  0  0  0  0
  4 24  1  0  0  0  0
  5  6  1  0  0  0  0
  5 25  1  0  0  0  0
  5 26  1  0  0  0  0
  6  7  1  0  0  0  0
  6  8  1  0  0  0  0
  6 27  1  0  0  0  0
  7 28  1  0  0  0  0
  7 29  1  0  0  0  0
  7 30  1  0  0  0  0
  8  9  1  0  0  0  0
  8 31  1  0  0  0  0
  9 10  1  0  0  0  0
  9 32  1  0  0  0  0
  9 33  1  0  0  0  0
 10 11  1  0  0  0  0
 10 34  1  0  0  0  0
 10 44  1  0  0  0  0
 11 12  1  0  0  0  0
 11 35  1  0  0  0  0
 11 36  1  0  0  0  0
 12 13  1  0  0  0  0
 12 37  1  0  0  0  0
 12 38  1  0  0  0  0
 13 17  1  0  0  0  0
 13 14  2  0  0  0  0
 14 15  1  0  0  0  0
 14 45  1  0  0  0  0
 15 16  2  0  0  0  0
 15 39  1  0  0  0  0
 16 17  1  0  0  0  0
 16 40  1  0  0  0  0
 17 18  1  0  0  0  0
 18 41  1  0  0  0  0
 18 42  1  0  0  0  0
 18 43  1  0  0  0  0
M  CHG  1  10   1
M  CHG  1  14   1
M  END
> <s_m_source_file>
AV-unprocessed.smi

> <i_m_source_file_index>
3284

> <i_lp_mmshare_version>
43012

> <i_f3d_flags>
0

> <s_epik_input>
W0NIM11DMT1bQ0hdW0NIMl1bQ0gyXVtDQEBIXShbQ0gzXSlbQ0BIXTFbQ0gyXVtOSF1bQ0gyXVtDSDJdYzJuW2NIXVtjSF1uMltDSDNd

> <s_epik_cmdline>
J2VwaWtfcHl0aG9uJywgJy1waCcsICc3LjAnLCAnLXRuJywgJzgnLCAnLW1hJywgJzIwMCcsICctbWV0YWxfYmluZGluZycsICctaW1hZScsICc8aW5maWxlLm1hZT4nLCAnLW9tYWUnLCAnPG91dGZpbGUubWFlPic=

> <r_lp_tautomer_probability>
1

> <r_epik_Ionization_Penalty>
0.892846

> <r_epik_Ionization_Penalty_Charging>
0.00275802

> <r_epik_Ionization_Penalty_Neutral>
0.890088

> <r_epik_State_Penalty>
0.485211

> <r_epik_Charging_Adjusted_Penalty>
0.487969

> <i_epik_Tot_Q>
2

> <i_epik_Tot_abs_Q>
2

> <r_epik_Metal_State_Penalty>
4.22898

> <b_epik_Metal_Only>
0

> <s_lp_Force_Field>
OPLS_2005

> <r_lp_Energy>
22.9484

> <b_lp_Chiralities_Consistent>
1

> <s_lp_Variant>
AV-unprocessed.smi:3284-7

> <Gold.Version>
5.8.1

> <Gold.Id.Protein>
6NUR|6NUR_protein|mol2

> <Gold.PLP.Fitness>
56.3939

> <Gold.PLP.PLP>
-44.0498

> <Gold.PLP.part.hbond>
-1.7743

> <Gold.PLP.part.metal>
0.0000

> <Gold.PLP.part.buried>
-6.3210

> <Gold.PLP.part.nonpolar>
-37.2336

> <Gold.PLP.part.repulsive>
0.1782

> <Gold.PLP.ligand.clash>
0.0000

> <Gold.PLP.ligand.torsion>
1.3410

> <Gold.PLP.Chemscore.Hbond>
4.0000

> <Gold.PLP.Chemscore.CHOScore>
0.9846

> <Gold.PLP.Chemscore.Metal>
0.0000

> <Gold.Chemscore.Hbonds>
donor molecule, donor type, donor heavy atom, donor atom, acceptor molecule, acceptor atom, score
      L1  H    10    34       P1  8028  2.00
      L1  H    14    45       P1  8028  1.52
      L1  C    16    40       P1 10175  0.91

> <Gold.PLP.Chemscore.Internal.Correction>
0.0724

> <Gold.Rescore>
     Score         DG    S(hbond)    S(metal)    S(lipo)     H(rot)  DE(clash)    DE(int)     intcor
     20.42     -22.25       1.90        0.00     126.43       1.70       0.42       1.41       ----

> <Gold.Chemscore.Fitness>
20.4244

> <Gold.Chemscore.DG>
-22.2519

> <Gold.Chemscore.ZeroCoef>
-5.4800

> <Gold.Chemscore.Hbond>
1.8956

> <Gold.Chemscore.Metal>
0.0000

> <Gold.Chemscore.Lipo>
126.4264

> <Gold.Chemscore.Internal_Hbond>
0.0000

> <Gold.Chemscore.DEClash>
0.4175

> <Gold.Chemscore.DEInternal>
1.4100

> <Gold.Chemscore.Rot>
1.6997

> <Gold.Chemscore.Internal.Correction>
   9.000000E+99

> <Gold.Chemscore.Hbonds>
donor molecule, donor type, donor heavy atom, donor atom, acceptor molecule, acceptor atom, score
      L1  H    10    34       P1  8028  0.94
      L1  H    14    45       P1  8028  0.35

> <Gold.Chemscore.Hbond.Weighted>
-6.3312

> <Gold.Chemscore.Metal.Weighted>
-0.0000

> <Gold.Chemscore.Lipo.Weighted>
-14.7919

> <Gold.Chemscore.Internal_Hbond.Weighted>
0.0000

> <Gold.Chemscore.DEClash.Weighted>
0.4175

> <Gold.Chemscore.DEInternal.Weighted>
1.4100

> <Gold.Chemscore.Rot.Weighted>
4.3512

> <Gold.Chemscore.Internal.Correction.Weighted>
   9.000000E+99

> <Gold.Protein.RotatedTorsions>
[ 6907 6896 6895 6894 ] final   31.61 input  -60.11 | X-H torsion
[ 7974 7965 7964 7962 ] final  168.21 input  175.53 | X-H torsion
[ 8008 7997 7996 7995 ] final  -77.28 input   59.86 | X-H torsion
[ 10167 10162 10161 10158 ] final   13.60 input  -65.29 | X-H torsion
[ 10718 10713 10712 10709 ] final   41.31 input   66.30 | X-H torsion
[ 10763 10752 10751 10750 ] final   98.30 input  -60.55 | X-H torsion
[ 11005 11000 10999 10996 ] final   75.88 input  -57.11 | X-H torsion

> <Gold.Protein.ActiveResidues>
 VAL166  LYS551  ARG553  GLY616  TRP617  ASP618  TYR619  PRO620  LYS621  CYS622 
 ASP623  PHE694  ASN695  SER759  ASP760  ASP761  ALA762  ILE779  LEU786  VAL792 
 PHE793  MET794  SER795  GLU796  ALA797  LYS798  CYS799  TRP800  GLU811  SER814 

> <Gold.Protein.RotatedAtoms>
  152.0627  134.9584  160.0574 H   0  0  0  0  0  0  0  0  0  0  0  0  # atno 6907 bound_to 6896
  152.0941  133.4211  159.4565 H   0  0  0  0  0  0  0  0  0  0  0  0  # atno 6908 bound_to 6896
  150.6837  134.2757  159.4650 H   0  0  0  0  0  0  0  0  0  0  0  0  # atno 6909 bound_to 6896
  144.7397  139.8873  143.6400 H   0  0  0  0  0  0  0  0  0  0  0  0  # atno 7974 bound_to 7965
  154.5582  140.0713  156.8777 H   0  0  0  0  0  0  0  0  0  0  0  0  # atno 8008 bound_to 7997
  155.2862  140.3375  155.4237 H   0  0  0  0  0  0  0  0  0  0  0  0  # atno 8009 bound_to 7997
  156.2020  140.1725  156.7866 H   0  0  0  0  0  0  0  0  0  0  0  0  # atno 8010 bound_to 7997
  140.5992  143.8640  150.6948 H   0  0  0  0  0  0  0  0  0  0  0  0  # atno 10167 bound_to 10162
  157.3921  130.7812  149.7278 H   0  0  0  0  0  0  0  0  0  0  0  0  # atno 10718 bound_to 10713
  153.2874  135.4153  155.1135 H   0  0  0  0  0  0  0  0  0  0  0  0  # atno 10763 bound_to 10752
  154.8509  135.3510  154.6028 H   0  0  0  0  0  0  0  0  0  0  0  0  # atno 10764 bound_to 10752
  153.6450  135.7055  153.5286 H   0  0  0  0  0  0  0  0  0  0  0  0  # atno 10765 bound_to 10752
  139.9323  134.7554  156.1326 H   0  0  0  0  0  0  0  0  0  0  0  0  # atno 11005 bound_to 11000
  146.1167  139.4179  143.0254 LP  0  0  0  0  0  0  0  0  0  0  0  0  # atno 17320 bound_to 7965
  145.7364  141.0024  143.1324 LP  0  0  0  0  0  0  0  0  0  0  0  0  # atno 17321 bound_to 7965
  140.2182  143.3830  152.1664 LP  0  0  0  0  0  0  0  0  0  0  0  0  # atno 17342 bound_to 10162
  139.5279  144.7124  151.5162 LP  0  0  0  0  0  0  0  0  0  0  0  0  # atno 17343 bound_to 10162
  155.9801  130.4033  150.3548 LP  0  0  0  0  0  0  0  0  0  0  0  0  # atno 17370 bound_to 10713
  157.1666  131.0358  151.2816 LP  0  0  0  0  0  0  0  0  0  0  0  0  # atno 17371 bound_to 10713
  141.0919  133.6711  156.2559 LP  0  0  0  0  0  0  0  0  0  0  0  0  # atno 17394 bound_to 11000
  140.6167  134.5403  157.5542 LP  0  0  0  0  0  0  0  0  0  0  0  0  # atno 17395 bound_to 11000

$$$$
