AV-unprocessed.smi:218|AV-procd|sdf|1668|dock2
  -GOLD-   2262020 73D 1   1.00000     0.00000
 Structure written by MMmdl.
 54 57  0  0  0  0  0  0  0  0  1 V2000
  151.2083  143.4646  158.0001 C   0  0  0  0  0  0  0  0  0  0  0  0
  150.8403  141.9823  157.8624 C   0  0  0  0  0  0  0  0  0  0  0  0
  151.8579  141.0861  158.5886 C   0  0  0  0  0  0  0  0  0  0  0  0
  150.8302  141.6837  156.4650 O   0  0  0  0  0  0  0  0  0  0  0  0
  151.0785  140.3965  156.0285 C   0  0  0  0  0  0  0  0  0  0  0  0
  150.2005  139.3721  156.4373 C   0  0  0  0  0  0  0  0  0  0  0  0
  150.4459  138.0524  156.0075 C   0  0  0  0  0  0  0  0  0  0  0  0
  149.5201  136.9272  156.4169 C   0  0  0  0  0  0  0  0  0  0  0  0
  149.2877  135.9721  155.3425 N   0  0  0  0  0  0  0  0  0  0  0  0
  148.0292  135.5884  155.0401 C   0  0  0  0  0  0  0  0  0  0  0  0
  146.9567  136.2369  155.5632 N   0  0  0  0  0  0  0  0  0  0  0  0
  145.7206  135.8499  155.2373 C   0  0  0  0  0  0  0  0  0  0  0  0
  145.3444  134.8570  154.4292 N   0  0  0  0  0  0  0  0  0  0  0  0
  146.4164  134.1900  153.9080 C   0  0  0  0  0  0  0  0  0  0  0  0
  147.7822  134.5024  154.1605 C   0  0  0  0  0  0  0  0  0  0  0  0
  148.6022  133.6405  153.4477 N   0  0  0  0  0  0  0  0  0  0  0  0
  147.7664  132.8709  152.8056 C   0  0  0  0  0  0  0  0  0  0  0  0
  146.4276  133.1031  153.0496 N   0  0  0  0  0  0  0  0  0  0  0  0
  145.2447  132.4056  152.4247 C   0  0  2  0  0  0  0  0  0  0  0  0
  145.4105  131.0270  152.5204 O   0  0  0  0  0  0  0  0  0  0  0  0
  146.1817  130.5755  151.4179 C   0  0  1  0  0  0  0  0  0  0  0  0
  146.0027  129.0581  151.2606 C   0  0  0  0  0  0  0  0  0  0  0  0
  146.5150  128.3796  152.3873 O   0  0  0  0  0  0  0  0  0  0  0  0
  145.6442  131.4180  150.2530 C   0  0  2  0  0  0  0  0  0  0  0  0
  146.6857  131.7008  149.3392 O   0  0  0  0  0  0  0  0  0  0  0  0
  145.1526  132.7090  150.9153 C   0  0  1  0  0  0  0  0  0  0  0  0
  143.8231  132.9951  150.5329 O   0  0  0  0  0  0  0  0  0  0  0  0
  151.5602  137.8063  155.1813 C   0  0  0  0  0  0  0  0  0  0  0  0
  152.3812  138.8939  154.8254 C   0  0  0  0  0  0  0  0  0  0  0  0
  152.1533  140.1598  155.2354 N   0  0  0  0  0  0  0  0  0  0  0  0
  144.3951  132.7561  153.0122 H   0  0  0  0  0  0  0  0  0  0  0  0
  147.2285  130.8135  151.6186 H   0  0  0  0  0  0  0  0  0  0  0  0
  144.8294  130.9006  149.7439 H   0  0  0  0  0  0  0  0  0  0  0  0
  145.7725  133.5641  150.6474 H   0  0  0  0  0  0  0  0  0  0  0  0
  151.2300  143.7686  159.0470 H   0  0  0  0  0  0  0  0  0  0  0  0
  150.4814  144.0953  157.4877 H   0  0  0  0  0  0  0  0  0  0  0  0
  152.1892  143.6708  157.5711 H   0  0  0  0  0  0  0  0  0  0  0  0
  149.8498  141.8552  158.3016 H   0  0  0  0  0  0  0  0  0  0  0  0
  151.9032  141.3281  159.6506 H   0  0  0  0  0  0  0  0  0  0  0  0
  152.8585  141.2139  158.1750 H   0  0  0  0  0  0  0  0  0  0  0  0
  151.5991  140.0309  158.5053 H   0  0  0  0  0  0  0  0  0  0  0  0
  149.3539  139.5975  157.0694 H   0  0  0  0  0  0  0  0  0  0  0  0
  149.9412  136.4077  157.2788 H   0  0  0  0  0  0  0  0  0  0  0  0
  148.5703  137.3595  156.7351 H   0  0  0  0  0  0  0  0  0  0  0  0
  150.1086  135.6180  154.8728 H   0  0  0  0  0  0  0  0  0  0  0  0
  144.9183  136.4155  155.6876 H   0  0  0  0  0  0  0  0  0  0  0  0
  148.1138  132.1064  152.1259 H   0  0  0  0  0  0  0  0  0  0  0  0
  144.9435  128.8163  151.1701 H   0  0  0  0  0  0  0  0  0  0  0  0
  146.4944  128.6956  150.3576 H   0  0  0  0  0  0  0  0  0  0  0  0
  145.7940  127.9869  152.8553 H   0  0  0  0  0  0  0  0  0  0  0  0
  147.4243  131.1486  149.5450 H   0  0  0  0  0  0  0  0  0  0  0  0
  143.2907  132.2355  150.7143 H   0  0  0  0  0  0  0  0  0  0  0  0
  151.7825  136.8106  154.8263 H   0  0  0  0  0  0  0  0  0  0  0  0
  153.2443  138.7432  154.1941 H   0  0  0  0  0  0  0  0  0  0  0  0
  1  2  1  0  0  0  0
  1 35  1  0  0  0  0
  1 36  1  0  0  0  0
  1 37  1  0  0  0  0
  2  3  1  0  0  0  0
  2  4  1  0  0  0  0
  2 38  1  0  0  0  0
  3 39  1  0  0  0  0
  3 40  1  0  0  0  0
  3 41  1  0  0  0  0
  4  5  1  0  0  0  0
  5 30  1  0  0  0  0
  5  6  2  0  0  0  0
  6  7  1  0  0  0  0
  6 42  1  0  0  0  0
  7  8  1  0  0  0  0
  7 28  2  0  0  0  0
  8  9  1  0  0  0  0
  8 43  1  0  0  0  0
  8 44  1  0  0  0  0
  9 10  1  0  0  0  0
  9 45  1  0  0  0  0
 10 15  1  0  0  0  0
 10 11  2  0  0  0  0
 11 12  1  0  0  0  0
 12 13  2  0  0  0  0
 12 46  1  0  0  0  0
 13 14  1  0  0  0  0
 14 18  1  0  0  0  0
 14 15  2  0  0  0  0
 15 16  1  0  0  0  0
 16 17  2  0  0  0  0
 17 18  1  0  0  0  0
 17 47  1  0  0  0  0
 18 19  1  0  0  0  0
 19 31  1  0  0  0  0
 19 26  1  0  0  0  0
 19 20  1  0  0  0  0
 20 21  1  0  0  0  0
 21 32  1  0  0  0  0
 21 22  1  0  0  0  0
 21 24  1  0  0  0  0
 22 23  1  0  0  0  0
 22 48  1  0  0  0  0
 22 49  1  0  0  0  0
 23 50  1  0  0  0  0
 24 33  1  0  0  0  0
 24 25  1  0  0  0  0
 24 26  1  0  0  0  0
 25 51  1  0  0  0  0
 26 34  1  0  0  0  0
 26 27  1  0  0  0  0
 27 52  1  0  0  0  0
 28 29  1  0  0  0  0
 28 53  1  0  0  0  0
 29 30  2  0  0  0  0
 29 54  1  0  0  0  0
M  END
> <s_m_source_file>
AV-unprocessed.smi

> <i_m_source_file_index>
218

> <i_lp_mmshare_version>
43012

> <i_f3d_flags>
0

> <s_epik_input>
W0NIM11bQ0hdKFtDSDNdKU9jMVtjSF1jKFtjSF1bY0hdbjEpW0NIMl1bTkhdYyhuW2NIXW4yKWMoYzIzKW5bY0hdbjNbQ0BASF00T1tDQEhdKFtDSDJdW09IXSlbQ0BASF0oW09IXSlbQ0BIXTRbT0hd

> <s_epik_cmdline>
J2VwaWtfcHl0aG9uJywgJy1waCcsICc3LjAnLCAnLXRuJywgJzgnLCAnLW1hJywgJzIwMCcsICctbWV0YWxfYmluZGluZycsICctaW1hZScsICc8aW5maWxlLm1hZT4nLCAnLW9tYWUnLCAnPG91dGZpbGUubWFlPic=

> <r_lp_tautomer_probability>
1

> <r_epik_Ionization_Penalty>
0.00457014

> <r_epik_Ionization_Penalty_Charging>
0

> <r_epik_Ionization_Penalty_Neutral>
0.00457014

> <r_epik_State_Penalty>
-0

> <r_epik_Charging_Adjusted_Penalty>
0

> <i_epik_Tot_Q>
0

> <i_epik_Tot_abs_Q>
0

> <r_epik_Metal_State_Penalty>
-0

> <b_epik_Metal_Only>
0

> <s_epik_Chemistry_Notes>
This compound contains an acetal/aminal-like group ( X-CH(R)-Y where X, Y are N, S, or O) that may be acid/base labile, releasing an aldehyde.

> <s_lp_Force_Field>
OPLS_2005

> <r_lp_Energy>
35.6768

> <b_lp_Chiralities_Consistent>
1

> <s_lp_Variant>
AV-unprocessed.smi:218-7

> <Gold.Version>
5.8.1

> <Gold.Id.Protein>
6NUR|6NUR_protein|mol2

> <Gold.PLP.Fitness>
44.0837

> <Gold.PLP.PLP>
-37.2973

> <Gold.PLP.part.hbond>
-2.0462

> <Gold.PLP.part.metal>
0.0000

> <Gold.PLP.part.buried>
-5.0416

> <Gold.PLP.part.nonpolar>
-30.7353

> <Gold.PLP.part.repulsive>
1.0229

> <Gold.PLP.ligand.clash>
0.0000

> <Gold.PLP.ligand.torsion>
0.9321

> <Gold.PLP.Chemscore.Hbond>
1.8054

> <Gold.PLP.Chemscore.CHOScore>
1.0000

> <Gold.PLP.Chemscore.Metal>
0.0000

> <Gold.Chemscore.Hbonds>
donor molecule, donor type, donor heavy atom, donor atom, acceptor molecule, acceptor atom, score
      L1  H    25    51       P1 10747  1.00
      P1  H  7989  7998       L1    30  0.60
      P1  H  7997  8009       L1    30  0.05
      L1  C    17    47       P1 10747  1.00

> <Gold.PLP.Chemscore.Internal.Correction>
0.2346

> <Gold.Rescore>
     Score         DG    S(hbond)    S(metal)    S(lipo)     H(rot)  DE(clash)    DE(int)     intcor
      6.22      -7.30       0.99        0.00      94.74       4.90       0.09       1.00       ----

> <Gold.Chemscore.Fitness>
6.2184

> <Gold.Chemscore.DG>
-7.3034

> <Gold.Chemscore.ZeroCoef>
-5.4800

> <Gold.Chemscore.Hbond>
0.9851

> <Gold.Chemscore.Metal>
0.0000

> <Gold.Chemscore.Lipo>
94.7424

> <Gold.Chemscore.Internal_Hbond>
0.0000

> <Gold.Chemscore.DEClash>
0.0887

> <Gold.Chemscore.DEInternal>
0.9963

> <Gold.Chemscore.Rot>
4.9029

> <Gold.Chemscore.Internal.Correction>
   9.000000E+99

> <Gold.Chemscore.Hbonds>
donor molecule, donor type, donor heavy atom, donor atom, acceptor molecule, acceptor atom, score
      L1  H    25    51       P1 10747  0.98
      P1  H  7989  7998       L1    30  0.05

> <Gold.Chemscore.Hbond.Weighted>
-3.2901

> <Gold.Chemscore.Metal.Weighted>
-0.0000

> <Gold.Chemscore.Lipo.Weighted>
-11.0849

> <Gold.Chemscore.Internal_Hbond.Weighted>
0.0000

> <Gold.Chemscore.DEClash.Weighted>
0.0887

> <Gold.Chemscore.DEInternal.Weighted>
0.9963

> <Gold.Chemscore.Rot.Weighted>
12.5515

> <Gold.Chemscore.Internal.Correction.Weighted>
   9.000000E+99

> <Gold.Protein.RotatedTorsions>
[ 6907 6896 6895 6894 ] final  111.41 input  -60.11 | X-H torsion
[ 7974 7965 7964 7962 ] final    7.19 input  175.53 | X-H torsion
[ 8008 7997 7996 7995 ] final -135.95 input   59.86 | X-H torsion
[ 10167 10162 10161 10158 ] final   45.28 input  -65.29 | X-H torsion
[ 10718 10713 10712 10709 ] final   87.22 input   66.30 | X-H torsion
[ 10763 10752 10751 10750 ] final   88.90 input  -60.55 | X-H torsion
[ 11005 11000 10999 10996 ] final  -90.69 input  -57.11 | X-H torsion

> <Gold.Protein.ActiveResidues>
 VAL166  LYS551  ARG553  GLY616  TRP617  ASP618  TYR619  PRO620  LYS621  CYS622 
 ASP623  PHE694  ASN695  SER759  ASP760  ASP761  ALA762  ILE779  LEU786  VAL792 
 PHE793  MET794  SER795  GLU796  ALA797  LYS798  CYS799  TRP800  GLU811  SER814 

> <Gold.Protein.RotatedAtoms>
  152.4970  133.8661  159.7274 H   0  0  0  0  0  0  0  0  0  0  0  0  # atno 6907 bound_to 6896
  150.9160  133.6930  159.2850 H   0  0  0  0  0  0  0  0  0  0  0  0  # atno 6908 bound_to 6896
  151.4323  135.1015  159.9698 H   0  0  0  0  0  0  0  0  0  0  0  0  # atno 6909 bound_to 6896
  146.2429  140.0120  142.8406 H   0  0  0  0  0  0  0  0  0  0  0  0  # atno 7974 bound_to 7965
  155.3872  140.0497  157.3042 H   0  0  0  0  0  0  0  0  0  0  0  0  # atno 8008 bound_to 7997
  154.5054  140.2172  155.9224 H   0  0  0  0  0  0  0  0  0  0  0  0  # atno 8009 bound_to 7997
  156.1518  140.3134  155.8667 H   0  0  0  0  0  0  0  0  0  0  0  0  # atno 8010 bound_to 7997
  140.3257  144.2650  150.6175 H   0  0  0  0  0  0  0  0  0  0  0  0  # atno 10167 bound_to 10162
  157.6938  131.0247  150.3091 H   0  0  0  0  0  0  0  0  0  0  0  0  # atno 10718 bound_to 10713
  153.1815  135.4490  155.0034 H   0  0  0  0  0  0  0  0  0  0  0  0  # atno 10763 bound_to 10752
  154.8033  135.3264  154.7498 H   0  0  0  0  0  0  0  0  0  0  0  0  # atno 10764 bound_to 10752
  153.7961  135.6966  153.4918 H   0  0  0  0  0  0  0  0  0  0  0  0  # atno 10765 bound_to 10752
  141.1560  133.7708  156.9773 H   0  0  0  0  0  0  0  0  0  0  0  0  # atno 11005 bound_to 11000
  145.1319  140.9523  143.4539 LP  0  0  0  0  0  0  0  0  0  0  0  0  # atno 17320 bound_to 7965
  145.0379  139.3285  143.5991 LP  0  0  0  0  0  0  0  0  0  0  0  0  # atno 17321 bound_to 7965
  140.5443  143.2217  151.8033 LP  0  0  0  0  0  0  0  0  0  0  0  0  # atno 17342 bound_to 10162
  139.4865  144.4560  151.9598 LP  0  0  0  0  0  0  0  0  0  0  0  0  # atno 17343 bound_to 10162
  156.3595  130.3844  149.7263 LP  0  0  0  0  0  0  0  0  0  0  0  0  # atno 17370 bound_to 10713
  156.4714  130.7998  151.3016 LP  0  0  0  0  0  0  0  0  0  0  0  0  # atno 17371 bound_to 10713
  140.1089  134.9489  157.2036 LP  0  0  0  0  0  0  0  0  0  0  0  0  # atno 17394 bound_to 11000
  140.3220  134.2906  155.7244 LP  0  0  0  0  0  0  0  0  0  0  0  0  # atno 17395 bound_to 11000

$$$$
