AV-unprocessed.smi:790|AV-procd|sdf|3741|dock2
  -GOLD-   22720 1173D 1   1.00000     0.00000
 Structure written by MMmdl.
 38 40  0  0  0  0  0  0  0  0  1 V2000
  151.5798  141.3621  157.3085 O   0  0  0  0  0  0  0  0  0  0  0  0
  150.7258  142.1758  156.9571 C   0  0  0  0  0  0  0  0  0  0  0  0
  150.4414  143.3271  157.5891 N   0  0  0  0  0  0  0  0  0  0  0  0
  151.0574  143.8756  158.7464 C   0  0  0  0  0  0  0  0  0  0  0  0
  151.9220  143.1553  159.6061 C   0  0  0  0  0  0  0  0  0  0  0  0
  152.4866  143.8182  160.7128 C   0  0  0  0  0  0  0  0  0  0  0  0
  152.1731  145.1760  160.9159 C   0  0  0  0  0  0  0  0  0  0  0  0
  151.3620  145.8785  160.0971 N   0  0  0  0  0  0  0  0  0  0  0  0
  150.8249  145.2366  159.0376 C   0  0  0  0  0  0  0  0  0  0  0  0
  149.9439  142.0089  155.8810 N   0  0  0  0  0  0  0  0  0  0  0  0
  149.9693  140.8496  154.9878 C   0  0  1  0  0  0  0  0  0  0  0  0
  150.1486  139.5513  155.8044 C   0  0  2  0  0  0  0  0  0  0  0  0
  150.5640  138.4131  154.8546 C   0  0  0  0  0  0  0  0  0  0  0  0
  149.2651  138.1407  154.0724 C   0  0  0  0  0  0  0  0  0  0  0  0
  148.2780  139.1579  154.6797 C   0  0  1  0  0  0  0  0  0  0  0  0
  148.7128  139.1660  156.1395 C   0  0  0  0  0  0  0  0  0  0  0  0
  148.6488  140.5835  154.2017 C   0  0  1  0  0  0  0  0  0  0  0  0
  147.5113  141.6107  154.4041 C   0  0  0  0  0  0  0  0  0  0  0  0
  147.9495  142.9065  154.0530 O   0  0  0  0  0  0  0  0  0  0  0  0
  149.6557  143.8492  157.2293 H   0  0  0  0  0  0  0  0  0  0  0  0
  152.1737  142.1206  159.4333 H   0  0  0  0  0  0  0  0  0  0  0  0
  153.1495  143.2978  161.3884 H   0  0  0  0  0  0  0  0  0  0  0  0
  152.5897  145.7135  161.7549 H   0  0  0  0  0  0  0  0  0  0  0  0
  150.1829  145.8303  158.4032 H   0  0  0  0  0  0  0  0  0  0  0  0
  149.2683  142.7281  155.6684 H   0  0  0  0  0  0  0  0  0  0  0  0
  150.8058  140.9608  154.2950 H   0  0  0  0  0  0  0  0  0  0  0  0
  150.8115  139.6544  156.6644 H   0  0  0  0  0  0  0  0  0  0  0  0
  151.3933  138.6925  154.2037 H   0  0  0  0  0  0  0  0  0  0  0  0
  150.8651  137.5284  155.4170 H   0  0  0  0  0  0  0  0  0  0  0  0
  149.3904  138.2722  152.9970 H   0  0  0  0  0  0  0  0  0  0  0  0
  148.9230  137.1193  154.2442 H   0  0  0  0  0  0  0  0  0  0  0  0
  147.2344  138.8881  154.5153 H   0  0  0  0  0  0  0  0  0  0  0  0
  148.6280  138.1903  156.6214 H   0  0  0  0  0  0  0  0  0  0  0  0
  148.1934  139.9081  156.7475 H   0  0  0  0  0  0  0  0  0  0  0  0
  148.8765  140.5622  153.1346 H   0  0  0  0  0  0  0  0  0  0  0  0
  146.6311  141.3585  153.8127 H   0  0  0  0  0  0  0  0  0  0  0  0
  147.2052  141.6417  155.4496 H   0  0  0  0  0  0  0  0  0  0  0  0
  148.2279  143.3530  154.8380 H   0  0  0  0  0  0  0  0  0  0  0  0
  1  2  2  0  0  0  0
  2  3  1  0  0  0  0
  2 10  1  0  0  0  0
  3  4  1  0  0  0  0
  3 20  1  0  0  0  0
  4  9  1  0  0  0  0
  4  5  2  0  0  0  0
  5  6  1  0  0  0  0
  5 21  1  0  0  0  0
  6  7  2  0  0  0  0
  6 22  1  0  0  0  0
  7  8  1  0  0  0  0
  7 23  1  0  0  0  0
  8  9  2  0  0  0  0
  9 24  1  0  0  0  0
 10 11  1  0  0  0  0
 10 25  1  0  0  0  0
 11 17  1  0  0  0  0
 11 12  1  0  0  0  0
 11 26  1  0  0  0  0
 12 16  1  0  0  0  0
 12 13  1  0  0  0  0
 12 27  1  0  0  0  0
 13 14  1  0  0  0  0
 13 28  1  0  0  0  0
 13 29  1  0  0  0  0
 14 15  1  0  0  0  0
 14 30  1  0  0  0  0
 14 31  1  0  0  0  0
 15 16  1  0  0  0  0
 15 17  1  0  0  0  0
 15 32  1  0  0  0  0
 16 33  1  0  0  0  0
 16 34  1  0  0  0  0
 17 18  1  0  0  0  0
 17 35  1  0  0  0  0
 18 19  1  0  0  0  0
 18 36  1  0  0  0  0
 18 37  1  0  0  0  0
 19 38  1  0  0  0  0
M  END
> <s_m_source_file>
AV-unprocessed.smi

> <i_m_source_file_index>
790

> <i_lp_mmshare_version>
43012

> <i_f3d_flags>
0

> <s_epik_input>
W0NIMl0xW0NIMl1bQ0BASF0oW0NIMl0yKVtDQEBIXShbQ0gyXVtPSF0pW0NAQEhdKFtDQEhdMTIpW05IXUMoPU8pW05IXWMzW2NIXVtjSF1bY0hdbltjSF0z

> <s_epik_cmdline>
J2VwaWtfcHl0aG9uJywgJy1waCcsICc3LjAnLCAnLXRuJywgJzgnLCAnLW1hJywgJzIwMCcsICctbWV0YWxfYmluZGluZycsICctaW1hZScsICc8aW5maWxlLm1hZT4nLCAnLW9tYWUnLCAnPG91dGZpbGUubWFlPic=

> <r_epik_Ionization_Penalty>
0.00497582

> <r_epik_Ionization_Penalty_Charging>
0

> <r_epik_Ionization_Penalty_Neutral>
0.00497582

> <r_epik_State_Penalty>
0.00358602

> <r_epik_Charging_Adjusted_Penalty>
0.00358602

> <i_epik_Tot_Q>
0

> <i_epik_Tot_abs_Q>
0

> <r_epik_Metal_State_Penalty>
-0

> <b_epik_Metal_Only>
0

> <s_lp_Force_Field>
OPLS_2005

> <r_lp_Energy>
53.2312

> <b_lp_Chiralities_Consistent>
1

> <s_lp_Variant>
AV-unprocessed.smi:790-2

> <Gold.Version>
5.8.1

> <Gold.Id.Protein>
6NUR|6NUR_protein|mol2

> <Gold.PLP.Fitness>
45.5065

> <Gold.PLP.PLP>
-34.6592

> <Gold.PLP.part.hbond>
-6.4900

> <Gold.PLP.part.metal>
0.0000

> <Gold.PLP.part.buried>
-0.2583

> <Gold.PLP.part.nonpolar>
-28.6964

> <Gold.PLP.part.repulsive>
0.3852

> <Gold.PLP.ligand.clash>
0.0000

> <Gold.PLP.ligand.torsion>
0.3664

> <Gold.PLP.Chemscore.Hbond>
2.8560

> <Gold.PLP.Chemscore.CHOScore>
1.0000

> <Gold.PLP.Chemscore.Metal>
0.0000

> <Gold.Chemscore.Hbonds>
donor molecule, donor type, donor heavy atom, donor atom, acceptor molecule, acceptor atom, score
      L1  H     3    20       P1  8028  0.93
      L1  H    10    25       P1  8028  0.93
      L1  H    19    38       P1  8028  1.00
      L1  C     9    24       P1  8029  1.00

> <Gold.PLP.Chemscore.Internal.Correction>
0.0122

> <Gold.Rescore>
     Score         DG    S(hbond)    S(metal)    S(lipo)     H(rot)  DE(clash)    DE(int)     intcor
     15.46     -21.35       2.66        0.00      98.62       1.78       1.59       4.30       ----

> <Gold.Chemscore.Fitness>
15.4641

> <Gold.Chemscore.DG>
-21.3534

> <Gold.Chemscore.ZeroCoef>
-5.4800

> <Gold.Chemscore.Hbond>
2.6609

> <Gold.Chemscore.Metal>
0.0000

> <Gold.Chemscore.Lipo>
98.6208

> <Gold.Chemscore.Internal_Hbond>
0.0000

> <Gold.Chemscore.DEClash>
1.5938

> <Gold.Chemscore.DEInternal>
4.2955

> <Gold.Chemscore.Rot>
1.7783

> <Gold.Chemscore.Internal.Correction>
   9.000000E+99

> <Gold.Chemscore.Hbonds>
donor molecule, donor type, donor heavy atom, donor atom, acceptor molecule, acceptor atom, score
      L1  H     3    20       P1  8028  0.66
      L1  H    10    25       P1  8028  0.84
      L1  H    19    38       P1  8028  0.91

> <Gold.Chemscore.Hbond.Weighted>
-8.8873

> <Gold.Chemscore.Metal.Weighted>
-0.0000

> <Gold.Chemscore.Lipo.Weighted>
-11.5386

> <Gold.Chemscore.Internal_Hbond.Weighted>
0.0000

> <Gold.Chemscore.DEClash.Weighted>
1.5938

> <Gold.Chemscore.DEInternal.Weighted>
4.2955

> <Gold.Chemscore.Rot.Weighted>
4.5525

> <Gold.Chemscore.Internal.Correction.Weighted>
   9.000000E+99

> <Gold.Protein.RotatedTorsions>
[ 6907 6896 6895 6894 ] final -126.76 input  -60.11 | X-H torsion
[ 7974 7965 7964 7962 ] final  168.86 input  175.53 | X-H torsion
[ 8008 7997 7996 7995 ] final   21.20 input   59.86 | X-H torsion
[ 10167 10162 10161 10158 ] final -104.05 input  -65.29 | X-H torsion
[ 10718 10713 10712 10709 ] final  -32.94 input   66.30 | X-H torsion
[ 10763 10752 10751 10750 ] final  -20.97 input  -60.55 | X-H torsion
[ 11005 11000 10999 10996 ] final   23.99 input  -57.11 | X-H torsion

> <Gold.Protein.ActiveResidues>
 VAL166  LYS551  ARG553  GLY616  TRP617  ASP618  TYR619  PRO620  LYS621  CYS622 
 ASP623  PHE694  ASN695  SER759  ASP760  ASP761  ALA762  ILE779  LEU786  VAL792 
 PHE793  MET794  SER795  GLU796  ALA797  LYS798  CYS799  TRP800  GLU811  SER814 

> <Gold.Protein.RotatedAtoms>
  150.9002  133.7128  159.2880 H   0  0  0  0  0  0  0  0  0  0  0  0  # atno 6907 bound_to 6896
  151.4649  135.1040  159.9745 H   0  0  0  0  0  0  0  0  0  0  0  0  # atno 6908 bound_to 6896
  152.4872  133.8356  159.7181 H   0  0  0  0  0  0  0  0  0  0  0  0  # atno 6909 bound_to 6896
  144.7374  139.8969  143.6407 H   0  0  0  0  0  0  0  0  0  0  0  0  # atno 7974 bound_to 7965
  154.9470  140.3060  155.5093 H   0  0  0  0  0  0  0  0  0  0  0  0  # atno 8008 bound_to 7997
  156.2991  140.2326  156.4481 H   0  0  0  0  0  0  0  0  0  0  0  0  # atno 8009 bound_to 7997
  154.8091  140.0429  157.1318 H   0  0  0  0  0  0  0  0  0  0  0  0  # atno 8010 bound_to 7997
  140.2135  143.3729  152.1031 H   0  0  0  0  0  0  0  0  0  0  0  0  # atno 10167 bound_to 10162
  156.3687  130.4336  149.7563 H   0  0  0  0  0  0  0  0  0  0  0  0  # atno 10718 bound_to 10713
  153.6288  135.6990  153.5283 H   0  0  0  0  0  0  0  0  0  0  0  0  # atno 10763 bound_to 10752
  153.2877  135.4166  155.1137 H   0  0  0  0  0  0  0  0  0  0  0  0  # atno 10764 bound_to 10752
  154.8527  135.3617  154.5830 H   0  0  0  0  0  0  0  0  0  0  0  0  # atno 10765 bound_to 10752
  140.3635  134.2099  155.7671 H   0  0  0  0  0  0  0  0  0  0  0  0  # atno 11005 bound_to 11000
  146.1101  139.4104  143.0293 LP  0  0  0  0  0  0  0  0  0  0  0  0  # atno 17320 bound_to 7965
  145.7456  140.9992  143.1278 LP  0  0  0  0  0  0  0  0  0  0  0  0  # atno 17321 bound_to 7965
  139.5171  144.6987  151.5557 LP  0  0  0  0  0  0  0  0  0  0  0  0  # atno 17342 bound_to 10162
  140.6307  143.9082  150.6603 LP  0  0  0  0  0  0  0  0  0  0  0  0  # atno 17343 bound_to 10162
  156.4698  130.7991  151.3009 LP  0  0  0  0  0  0  0  0  0  0  0  0  # atno 17370 bound_to 10713
  157.7481  131.0039  150.3056 LP  0  0  0  0  0  0  0  0  0  0  0  0  # atno 17371 bound_to 10713
  141.1977  133.8054  157.0617 LP  0  0  0  0  0  0  0  0  0  0  0  0  # atno 17394 bound_to 11000
  140.0608  134.9756  157.1300 LP  0  0  0  0  0  0  0  0  0  0  0  0  # atno 17395 bound_to 11000

$$$$
