AV-unprocessed.smi:1525|AV-procd|sdf|6144|dock7
  -GOLD-   22720 6293D 1   1.00000     0.00000
 Structure written by MMmdl.
 50 52  0  0  0  0  0  0  0  0  3 V2000
  148.8863  132.5674  155.3278 O   0  0  0  0  0  0  0  0  0  0  0  0
  148.5523  133.2715  154.3752 C   0  0  0  0  0  0  0  0  0  0  0  0
  148.7791  134.5915  154.3176 N   0  0  0  0  0  0  0  0  0  0  0  0
  149.4439  135.3687  155.3575 C   0  0  0  0  0  0  0  0  0  0  0  0
  149.0067  136.8462  155.3259 C   0  0  0  0  0  0  0  0  0  0  0  0
  150.1460  137.7822  155.4969 N   0  3  0  0  0  0  0  0  0  0  0  0
  151.2153  137.6135  154.4812 C   0  0  0  0  0  0  0  0  0  0  0  0
  152.3687  138.5966  154.7454 C   0  0  0  0  0  0  0  0  0  0  0  0
  151.8708  139.9285  154.7554 O   0  0  0  0  0  0  0  0  0  0  0  0
  150.9098  140.1280  155.7842 C   0  0  0  0  0  0  0  0  0  0  0  0
  149.7074  139.1976  155.5525 C   0  0  0  0  0  0  0  0  0  0  0  0
  147.9376  132.8306  153.2646 N   0  0  0  0  0  0  0  0  0  0  0  0
  147.5589  131.4955  152.9439 C   0  0  0  0  0  0  0  0  0  0  0  0
  148.2019  130.3728  153.5255 C   0  0  0  0  0  0  0  0  0  0  0  0
  147.7639  129.0724  153.2094 C   0  0  0  0  0  0  0  0  0  0  0  0
  146.6833  128.9132  152.3241 C   0  0  0  0  0  0  0  0  0  0  0  0
  146.0829  130.0015  151.7993 N   0  3  0  0  0  0  0  0  0  0  0  0
  146.4594  131.2760  152.0685 C   0  0  0  0  0  0  0  0  0  0  0  0
  145.7698  132.3369  151.4436 N   0  0  0  0  0  0  0  0  0  0  0  0
  145.7616  132.2709  149.9844 C   0  0  0  0  0  0  0  0  0  0  0  0
  144.4046  132.8161  149.5342 C   0  0  0  0  0  0  0  0  0  0  0  0
  143.5000  132.5135  150.7223 C   0  0  0  0  0  0  0  0  0  0  0  0
  144.4373  132.7164  151.9114 C   0  0  0  0  0  0  0  0  0  0  0  0
  148.4763  135.0947  153.4962 H   0  0  0  0  0  0  0  0  0  0  0  0
  149.2446  134.9306  156.3372 H   0  0  0  0  0  0  0  0  0  0  0  0
  150.5165  135.2779  155.1890 H   0  0  0  0  0  0  0  0  0  0  0  0
  148.4771  137.0734  154.3992 H   0  0  0  0  0  0  0  0  0  0  0  0
  148.2955  137.0134  156.1363 H   0  0  0  0  0  0  0  0  0  0  0  0
  151.6046  136.5965  154.4995 H   0  0  0  0  0  0  0  0  0  0  0  0
  150.8045  137.7818  153.4844 H   0  0  0  0  0  0  0  0  0  0  0  0
  152.8627  138.3723  155.6922 H   0  0  0  0  0  0  0  0  0  0  0  0
  153.1237  138.5078  153.9639 H   0  0  0  0  0  0  0  0  0  0  0  0
  151.3607  139.9474  156.7613 H   0  0  0  0  0  0  0  0  0  0  0  0
  150.5876  141.1695  155.7698 H   0  0  0  0  0  0  0  0  0  0  0  0
  149.2047  139.4620  154.6206 H   0  0  0  0  0  0  0  0  0  0  0  0
  148.9830  139.3312  156.3570 H   0  0  0  0  0  0  0  0  0  0  0  0
  147.8093  133.5081  152.5271 H   0  0  0  0  0  0  0  0  0  0  0  0
  149.0157  130.4866  154.2253 H   0  0  0  0  0  0  0  0  0  0  0  0
  148.2467  128.2103  153.6460 H   0  0  0  0  0  0  0  0  0  0  0  0
  146.2806  127.9563  152.0250 H   0  0  0  0  0  0  0  0  0  0  0  0
  146.5801  132.8500  149.5570 H   0  0  0  0  0  0  0  0  0  0  0  0
  145.8759  131.2366  149.6553 H   0  0  0  0  0  0  0  0  0  0  0  0
  144.4685  133.8951  149.3868 H   0  0  0  0  0  0  0  0  0  0  0  0
  144.0544  132.3686  148.6037 H   0  0  0  0  0  0  0  0  0  0  0  0
  142.6175  133.1522  150.7626 H   0  0  0  0  0  0  0  0  0  0  0  0
  143.1676  131.4752  150.6818 H   0  0  0  0  0  0  0  0  0  0  0  0
  144.0908  132.1780  152.7931 H   0  0  0  0  0  0  0  0  0  0  0  0
  144.4705  133.7724  152.1806 H   0  0  0  0  0  0  0  0  0  0  0  0
  150.5568  137.5783  156.3968 H   0  0  0  0  0  0  0  0  0  0  0  0
  145.3015  129.8556  151.1596 H   0  0  0  0  0  0  0  0  0  0  0  0
  1  2  2  0  0  0  0
  2  3  1  0  0  0  0
  2 12  1  0  0  0  0
  3  4  1  0  0  0  0
  3 24  1  0  0  0  0
  4  5  1  0  0  0  0
  4 25  1  0  0  0  0
  4 26  1  0  0  0  0
  5  6  1  0  0  0  0
  5 27  1  0  0  0  0
  5 28  1  0  0  0  0
  6 11  1  0  0  0  0
  6  7  1  0  0  0  0
  6 49  1  0  0  0  0
  7  8  1  0  0  0  0
  7 29  1  0  0  0  0
  7 30  1  0  0  0  0
  8  9  1  0  0  0  0
  8 31  1  0  0  0  0
  8 32  1  0  0  0  0
  9 10  1  0  0  0  0
 10 11  1  0  0  0  0
 10 33  1  0  0  0  0
 10 34  1  0  0  0  0
 11 35  1  0  0  0  0
 11 36  1  0  0  0  0
 12 13  1  0  0  0  0
 12 37  1  0  0  0  0
 13 18  1  0  0  0  0
 13 14  2  0  0  0  0
 14 15  1  0  0  0  0
 14 38  1  0  0  0  0
 15 16  2  0  0  0  0
 15 39  1  0  0  0  0
 16 17  1  0  0  0  0
 16 40  1  0  0  0  0
 17 18  2  0  0  0  0
 17 50  1  0  0  0  0
 18 19  1  0  0  0  0
 19 23  1  0  0  0  0
 19 20  1  0  0  0  0
 20 21  1  0  0  0  0
 20 41  1  0  0  0  0
 20 42  1  0  0  0  0
 21 22  1  0  0  0  0
 21 43  1  0  0  0  0
 21 44  1  0  0  0  0
 22 23  1  0  0  0  0
 22 45  1  0  0  0  0
 22 46  1  0  0  0  0
 23 47  1  0  0  0  0
 23 48  1  0  0  0  0
M  CHG  1   6   1
M  CHG  1  17   1
M  END
> <s_m_source_file>
AV-unprocessed.smi

> <i_m_source_file_index>
1525

> <i_lp_mmshare_version>
43012

> <i_f3d_flags>
0

> <s_epik_input>
W0NIMl0xW0NIMl1PW0NIMl1bQ0gyXU4xW0NIMl1bQ0gyXVtOSF1DKD1PKVtOSF1jMltjSF1bY0hdW2NIXW5jMk4zW0NIMl1bQ0gyXVtDSDJdW0NIMl0z

> <s_epik_cmdline>
J2VwaWtfcHl0aG9uJywgJy1waCcsICc3LjAnLCAnLXRuJywgJzgnLCAnLW1hJywgJzIwMCcsICctbWV0YWxfYmluZGluZycsICctaW1hZScsICc8aW5maWxlLm1hZT4nLCAnLW9tYWUnLCAnPG91dGZpbGUubWFlPic=

> <r_lp_tautomer_probability>
0.999994

> <r_epik_Ionization_Penalty>
1.81601

> <r_epik_Ionization_Penalty_Charging>
1.81599

> <r_epik_Ionization_Penalty_Neutral>
2.02981e-05

> <r_epik_State_Penalty>
1.85672

> <r_epik_Charging_Adjusted_Penalty>
3.6727

> <i_epik_Tot_Q>
2

> <i_epik_Tot_abs_Q>
2

> <r_epik_Metal_State_Penalty>
1.93796

> <b_epik_Metal_Only>
0

> <s_lp_Force_Field>
OPLS_2005

> <r_lp_Energy>
52.6706

> <b_lp_Chiralities_Consistent>
1

> <s_lp_Variant>
AV-unprocessed.smi:1525-4

> <Gold.Version>
5.8.1

> <Gold.Id.Protein>
6NUR|6NUR_protein|mol2

> <Gold.PLP.Fitness>
43.1592

> <Gold.PLP.PLP>
-38.9463

> <Gold.PLP.part.hbond>
-1.7833

> <Gold.PLP.part.metal>
0.0000

> <Gold.PLP.part.buried>
-4.7161

> <Gold.PLP.part.nonpolar>
-32.2495

> <Gold.PLP.part.repulsive>
0.2287

> <Gold.PLP.ligand.clash>
0.0000

> <Gold.PLP.ligand.torsion>
0.8212

> <Gold.PLP.Chemscore.Hbond>
1.8880

> <Gold.PLP.Chemscore.CHOScore>
0.0000

> <Gold.PLP.Chemscore.Metal>
0.0000

> <Gold.Chemscore.Hbonds>
donor molecule, donor type, donor heavy atom, donor atom, acceptor molecule, acceptor atom, score
      L1  H     3    24       P1  7948  0.96
      P1  H  7989  7998       L1     9  0.94

> <Gold.PLP.Chemscore.Internal.Correction>
0.1914

> <Gold.Rescore>
     Score         DG    S(hbond)    S(metal)    S(lipo)     H(rot)  DE(clash)    DE(int)     intcor
     15.72     -17.80       1.66        0.00      94.94       1.70       0.08       2.00       ----

> <Gold.Chemscore.Fitness>
15.7168

> <Gold.Chemscore.DG>
-17.7952

> <Gold.Chemscore.ZeroCoef>
-5.4800

> <Gold.Chemscore.Hbond>
1.6607

> <Gold.Chemscore.Metal>
0.0000

> <Gold.Chemscore.Lipo>
94.9406

> <Gold.Chemscore.Internal_Hbond>
0.0000

> <Gold.Chemscore.DEClash>
0.0777

> <Gold.Chemscore.DEInternal>
2.0007

> <Gold.Chemscore.Rot>
1.6952

> <Gold.Chemscore.Internal.Correction>
   9.000000E+99

> <Gold.Chemscore.Hbonds>
donor molecule, donor type, donor heavy atom, donor atom, acceptor molecule, acceptor atom, score
      L1  H     3    24       P1  7948  0.79
      P1  H  7989  7998       L1     9  0.78

> <Gold.Chemscore.Hbond.Weighted>
-5.5468

> <Gold.Chemscore.Metal.Weighted>
-0.0000

> <Gold.Chemscore.Lipo.Weighted>
-11.1081

> <Gold.Chemscore.Internal_Hbond.Weighted>
0.0000

> <Gold.Chemscore.DEClash.Weighted>
0.0777

> <Gold.Chemscore.DEInternal.Weighted>
2.0007

> <Gold.Chemscore.Rot.Weighted>
4.3397

> <Gold.Chemscore.Internal.Correction.Weighted>
   9.000000E+99

> <Gold.Protein.RotatedTorsions>
[ 6907 6896 6895 6894 ] final -128.59 input  -60.11 | X-H torsion
[ 7974 7965 7964 7962 ] final -112.86 input  175.53 | X-H torsion
[ 8008 7997 7996 7995 ] final  -32.84 input   59.86 | X-H torsion
[ 10167 10162 10161 10158 ] final   19.17 input  -65.29 | X-H torsion
[ 10718 10713 10712 10709 ] final  -37.49 input   66.30 | X-H torsion
[ 10763 10752 10751 10750 ] final  -25.51 input  -60.55 | X-H torsion
[ 11005 11000 10999 10996 ] final  -30.66 input  -57.11 | X-H torsion

> <Gold.Protein.ActiveResidues>
 VAL166  LYS551  ARG553  GLY616  TRP617  ASP618  TYR619  PRO620  LYS621  CYS622 
 ASP623  PHE694  ASN695  SER759  ASP760  ASP761  ALA762  ILE779  LEU786  VAL792 
 PHE793  MET794  SER795  GLU796  ALA797  LYS798  CYS799  TRP800  GLU811  SER814 

> <Gold.Protein.RotatedAtoms>
  150.9195  133.6898  159.2835 H   0  0  0  0  0  0  0  0  0  0  0  0  # atno 6907 bound_to 6896
  151.4357  135.1013  159.9665 H   0  0  0  0  0  0  0  0  0  0  0  0  # atno 6908 bound_to 6896
  152.4972  133.8615  159.7307 H   0  0  0  0  0  0  0  0  0  0  0  0  # atno 6909 bound_to 6896
  145.1389  140.8767  143.3713 H   0  0  0  0  0  0  0  0  0  0  0  0  # atno 7974 bound_to 7965
  154.4167  140.1727  156.1791 H   0  0  0  0  0  0  0  0  0  0  0  0  # atno 8008 bound_to 7997
  155.9697  140.3386  155.6540 H   0  0  0  0  0  0  0  0  0  0  0  0  # atno 8009 bound_to 7997
  155.6642  140.0704  157.2534 H   0  0  0  0  0  0  0  0  0  0  0  0  # atno 8010 bound_to 7997
  140.5599  143.9356  150.6635 H   0  0  0  0  0  0  0  0  0  0  0  0  # atno 10167 bound_to 10162
  156.3147  130.4257  149.8017 H   0  0  0  0  0  0  0  0  0  0  0  0  # atno 10718 bound_to 10713
  153.7010  135.6956  153.5063 H   0  0  0  0  0  0  0  0  0  0  0  0  # atno 10763 bound_to 10752
  153.2342  135.4327  155.0627 H   0  0  0  0  0  0  0  0  0  0  0  0  # atno 10764 bound_to 10752
  154.8344  135.3491  154.6550 H   0  0  0  0  0  0  0  0  0  0  0  0  # atno 10765 bound_to 10752
  140.9402  133.7283  156.1064 H   0  0  0  0  0  0  0  0  0  0  0  0  # atno 11005 bound_to 11000
  145.0553  139.3148  143.5908 LP  0  0  0  0  0  0  0  0  0  0  0  0  # atno 17320 bound_to 7965
  146.3507  139.9976  142.8679 LP  0  0  0  0  0  0  0  0  0  0  0  0  # atno 17321 bound_to 7965
  140.2804  143.3393  152.1156 LP  0  0  0  0  0  0  0  0  0  0  0  0  # atno 17342 bound_to 10162
  139.5065  144.6815  151.5996 LP  0  0  0  0  0  0  0  0  0  0  0  0  # atno 17343 bound_to 10162
  156.5347  130.8273  151.3249 LP  0  0  0  0  0  0  0  0  0  0  0  0  # atno 17370 bound_to 10713
  157.7399  130.9840  150.2341 LP  0  0  0  0  0  0  0  0  0  0  0  0  # atno 17371 bound_to 10713
  140.7744  134.3796  157.5501 LP  0  0  0  0  0  0  0  0  0  0  0  0  # atno 17394 bound_to 11000
  139.8818  134.9042  156.2873 LP  0  0  0  0  0  0  0  0  0  0  0  0  # atno 17395 bound_to 11000

$$$$
