AV-unprocessed.smi:2338|AV-procd|sdf|9334|dock1
  -GOLD-   2272012553D 1   1.00000     0.00000
 Structure written by MMmdl.
 31 32  0  0  0  0  0  0  0  0  1 V2000
  147.9535  142.0406  155.7298 N   0  0  0  0  0  0  0  0  0  0  0  0
  148.4352  140.8045  155.8832 C   0  0  0  0  0  0  0  0  0  0  0  0
  147.7830  139.9118  156.4225 O   0  0  0  0  0  0  0  0  0  0  0  0
  149.8480  140.5316  155.3351 C   0  0  2  0  0  0  0  0  0  0  0  0
  149.7828  139.2979  154.4047 C   0  0  0  0  0  0  0  0  0  0  0  0
  151.0708  139.0049  153.8747 O   0  0  0  0  0  0  0  0  0  0  0  0
  151.9994  138.6823  154.9020 C   0  0  0  0  0  0  0  0  0  0  0  0
  152.1666  139.8958  155.8278 C   0  0  0  0  0  0  0  0  0  0  0  0
  150.8739  140.3104  156.3649 N   0  0  0  0  0  0  0  0  0  0  0  0
  151.0312  141.3086  157.3470 C   0  0  0  0  0  0  0  0  0  0  0  0
  150.4614  142.5177  157.1217 N   0  0  0  0  0  0  0  0  0  0  0  0
  150.6133  143.4869  158.0485 C   0  0  0  0  0  0  0  0  0  0  0  0
  151.3400  143.3126  159.2443 C   0  0  0  0  0  0  0  0  0  0  0  0
  151.4802  144.4513  160.2412 C   0  0  0  0  0  0  0  0  0  0  0  0
  152.2088  144.0824  161.2953 F   0  0  0  0  0  0  0  0  0  0  0  0
  152.0770  145.4835  159.6472 F   0  0  0  0  0  0  0  0  0  0  0  0
  150.2808  144.8386  160.6758 F   0  0  0  0  0  0  0  0  0  0  0  0
  151.9425  142.0579  159.4719 C   0  0  0  0  0  0  0  0  0  0  0  0
  151.7884  141.0383  158.5126 C   0  0  0  0  0  0  0  0  0  0  0  0
  152.5103  139.4912  158.7872 Cl  0  0  0  0  0  0  0  0  0  0  0  0
  147.0329  142.2657  156.0782 H   0  0  0  0  0  0  0  0  0  0  0  0
  148.5113  142.7462  155.2713 H   0  0  0  0  0  0  0  0  0  0  0  0
  150.1557  141.3877  154.7311 H   0  0  0  0  0  0  0  0  0  0  0  0
  149.3970  138.4232  154.9324 H   0  0  0  0  0  0  0  0  0  0  0  0
  149.1059  139.4855  153.5702 H   0  0  0  0  0  0  0  0  0  0  0  0
  151.6592  137.8079  155.4594 H   0  0  0  0  0  0  0  0  0  0  0  0
  152.9551  138.4198  154.4482 H   0  0  0  0  0  0  0  0  0  0  0  0
  152.8529  139.6432  156.6375 H   0  0  0  0  0  0  0  0  0  0  0  0
  152.6149  140.7237  155.2762 H   0  0  0  0  0  0  0  0  0  0  0  0
  150.1417  144.4322  157.8243 H   0  0  0  0  0  0  0  0  0  0  0  0
  152.5167  141.8738  160.3680 H   0  0  0  0  0  0  0  0  0  0  0  0
  1  2  1  0  0  0  0
  1 21  1  0  0  0  0
  1 22  1  0  0  0  0
  2  3  2  0  0  0  0
  2  4  1  0  0  0  0
  4  9  1  0  0  0  0
  4  5  1  0  0  0  0
  4 23  1  0  0  0  0
  5  6  1  0  0  0  0
  5 24  1  0  0  0  0
  5 25  1  0  0  0  0
  6  7  1  0  0  0  0
  7  8  1  0  0  0  0
  7 26  1  0  0  0  0
  7 27  1  0  0  0  0
  8  9  1  0  0  0  0
  8 28  1  0  0  0  0
  8 29  1  0  0  0  0
  9 10  1  0  0  0  0
 10 19  1  0  0  0  0
 10 11  2  0  0  0  0
 11 12  1  0  0  0  0
 12 13  2  0  0  0  0
 12 30  1  0  0  0  0
 13 14  1  0  0  0  0
 13 18  1  0  0  0  0
 14 15  1  0  0  0  0
 14 16  1  0  0  0  0
 14 17  1  0  0  0  0
 18 19  2  0  0  0  0
 18 31  1  0  0  0  0
 19 20  1  0  0  0  0
M  END
> <s_m_source_file>
AV-unprocessed.smi

> <i_m_source_file_index>
2338

> <i_lp_mmshare_version>
43012

> <i_f3d_flags>
0

> <s_epik_input>
W05IMl1DKD1PKVtDQEBIXTFbQ0gyXU9bQ0gyXVtDSDJdTjFjMm5bY0hdYyhDKEYpKEYpRilbY0hdYzJDbA==

> <s_epik_cmdline>
J2VwaWtfcHl0aG9uJywgJy1waCcsICc3LjAnLCAnLXRuJywgJzgnLCAnLW1hJywgJzIwMCcsICctbWV0YWxfYmluZGluZycsICctaW1hZScsICc8aW5maWxlLm1hZT4nLCAnLW9tYWUnLCAnPG91dGZpbGUubWFlPic=

> <r_lp_tautomer_probability>
1

> <r_epik_Ionization_Penalty>
1.71167e-07

> <r_epik_Ionization_Penalty_Charging>
0

> <r_epik_Ionization_Penalty_Neutral>
1.71167e-07

> <r_epik_State_Penalty>
-0

> <r_epik_Charging_Adjusted_Penalty>
0

> <i_epik_Tot_Q>
0

> <i_epik_Tot_abs_Q>
0

> <r_epik_Metal_State_Penalty>
-0

> <b_epik_Metal_Only>
0

> <s_lp_Force_Field>
OPLS_2005

> <r_lp_Energy>
18.5611

> <b_lp_Chiralities_Consistent>
1

> <s_lp_Variant>
AV-unprocessed.smi:2338-1

> <Gold.Version>
5.8.1

> <Gold.Id.Protein>
6NUR|6NUR_protein|mol2

> <Gold.PLP.Fitness>
43.3838

> <Gold.PLP.PLP>
-36.1858

> <Gold.PLP.part.hbond>
-2.0000

> <Gold.PLP.part.metal>
0.0000

> <Gold.PLP.part.buried>
-2.0208

> <Gold.PLP.part.nonpolar>
-32.9953

> <Gold.PLP.part.repulsive>
0.7852

> <Gold.PLP.ligand.clash>
0.4502

> <Gold.PLP.ligand.torsion>
0.3162

> <Gold.PLP.Chemscore.Hbond>
1.6220

> <Gold.PLP.Chemscore.CHOScore>
0.9256

> <Gold.PLP.Chemscore.Metal>
0.0000

> <Gold.Chemscore.Hbonds>
donor molecule, donor type, donor heavy atom, donor atom, acceptor molecule, acceptor atom, score
      L1  H     1    22       P1  8028  0.67
      P1  H  7989  7998       L1     6  0.95
      L1  C    12    30       P1  8028  0.77
      L1  C    12    30       P1  8029  0.15

> <Gold.PLP.Chemscore.Internal.Correction>
0.6375

> <Gold.Rescore>
     Score         DG    S(hbond)    S(metal)    S(lipo)     H(rot)  DE(clash)    DE(int)     intcor
     10.35     -15.03       1.31        0.00      77.15       1.51       0.88       3.80       ----

> <Gold.Chemscore.Fitness>
10.3490

> <Gold.Chemscore.DG>
-15.0306

> <Gold.Chemscore.ZeroCoef>
-5.4800

> <Gold.Chemscore.Hbond>
1.3146

> <Gold.Chemscore.Metal>
0.0000

> <Gold.Chemscore.Lipo>
77.1541

> <Gold.Chemscore.Internal_Hbond>
0.0000

> <Gold.Chemscore.DEClash>
0.8818

> <Gold.Chemscore.DEInternal>
3.7998

> <Gold.Chemscore.Rot>
1.5107

> <Gold.Chemscore.Internal.Correction>
   9.000000E+99

> <Gold.Chemscore.Hbonds>
donor molecule, donor type, donor heavy atom, donor atom, acceptor molecule, acceptor atom, score
      L1  H     1    22       P1  8028  0.63
      P1  H  7989  7998       L1     6  0.05

> <Gold.Chemscore.Hbond.Weighted>
-4.3909

> <Gold.Chemscore.Metal.Weighted>
-0.0000

> <Gold.Chemscore.Lipo.Weighted>
-9.0270

> <Gold.Chemscore.Internal_Hbond.Weighted>
0.0000

> <Gold.Chemscore.DEClash.Weighted>
0.8818

> <Gold.Chemscore.DEInternal.Weighted>
3.7998

> <Gold.Chemscore.Rot.Weighted>
3.8674

> <Gold.Chemscore.Internal.Correction.Weighted>
   9.000000E+99

> <Gold.Protein.RotatedTorsions>
[ 6907 6896 6895 6894 ] final   83.57 input  -60.11 | X-H torsion
[ 7974 7965 7964 7962 ] final   50.98 input  175.53 | X-H torsion
[ 8008 7997 7996 7995 ] final -168.79 input   59.86 | X-H torsion
[ 10167 10162 10161 10158 ] final  169.12 input  -65.29 | X-H torsion
[ 10718 10713 10712 10709 ] final  -58.97 input   66.30 | X-H torsion
[ 10763 10752 10751 10750 ] final   36.38 input  -60.55 | X-H torsion
[ 11005 11000 10999 10996 ] final -161.63 input  -57.11 | X-H torsion

> <Gold.Protein.ActiveResidues>
 VAL166  LYS551  ARG553  GLY616  TRP617  ASP618  TYR619  PRO620  LYS621  CYS622 
 ASP623  PHE694  ASN695  SER759  ASP760  ASP761  ALA762  ILE779  LEU786  VAL792 
 PHE793  MET794  SER795  GLU796  ALA797  LYS798  CYS799  TRP800  GLU811  SER814 

> <Gold.Protein.RotatedAtoms>
  152.5330  134.2875  159.9030 H   0  0  0  0  0  0  0  0  0  0  0  0  # atno 6907 bound_to 6896
  151.2828  133.4195  159.2635 H   0  0  0  0  0  0  0  0  0  0  0  0  # atno 6908 bound_to 6896
  151.0268  134.9526  159.8146 H   0  0  0  0  0  0  0  0  0  0  0  0  # atno 6909 bound_to 6896
  145.9958  139.4387  143.0045 H   0  0  0  0  0  0  0  0  0  0  0  0  # atno 7974 bound_to 7965
  155.8962  140.1033  157.1383 H   0  0  0  0  0  0  0  0  0  0  0  0  # atno 8008 bound_to 7997
  154.4021  140.1301  156.4443 H   0  0  0  0  0  0  0  0  0  0  0  0  # atno 8009 bound_to 7997
  155.7476  140.3465  155.5137 H   0  0  0  0  0  0  0  0  0  0  0  0  # atno 8010 bound_to 7997
  139.4984  144.3740  151.9694 H   0  0  0  0  0  0  0  0  0  0  0  0  # atno 10167 bound_to 10162
  156.1096  130.4176  150.0650 H   0  0  0  0  0  0  0  0  0  0  0  0  # atno 10718 bound_to 10713
  153.0079  135.6307  154.1977 H   0  0  0  0  0  0  0  0  0  0  0  0  # atno 10763 bound_to 10752
  154.1720  135.2818  155.3080 H   0  0  0  0  0  0  0  0  0  0  0  0  # atno 10764 bound_to 10752
  154.5901  135.5620  153.7330 H   0  0  0  0  0  0  0  0  0  0  0  0  # atno 10765 bound_to 10752
  140.6182  134.4778  157.5221 H   0  0  0  0  0  0  0  0  0  0  0  0  # atno 11005 bound_to 11000
  145.7561  140.9953  143.1224 LP  0  0  0  0  0  0  0  0  0  0  0  0  # atno 17320 bound_to 7965
  144.6903  139.9273  143.7470 LP  0  0  0  0  0  0  0  0  0  0  0  0  # atno 17321 bound_to 7965
  140.3177  144.3465  150.6017 LP  0  0  0  0  0  0  0  0  0  0  0  0  # atno 17342 bound_to 10162
  140.5748  143.2177  151.7534 LP  0  0  0  0  0  0  0  0  0  0  0  0  # atno 17343 bound_to 10162
  156.8617  130.9494  151.3617 LP  0  0  0  0  0  0  0  0  0  0  0  0  # atno 17370 bound_to 10713
  157.6276  130.8704  149.9216 LP  0  0  0  0  0  0  0  0  0  0  0  0  # atno 17371 bound_to 10713
  139.9164  134.8237  156.1353 LP  0  0  0  0  0  0  0  0  0  0  0  0  # atno 17394 bound_to 11000
  141.0761  133.6775  156.2239 LP  0  0  0  0  0  0  0  0  0  0  0  0  # atno 17395 bound_to 11000

$$$$
