AV-unprocessed.smi:6|AV-procd|sdf|41|dock5
  -GOLD-   2262015153D 1   1.00000     0.00000
 Structure written by MMmdl.
 36 37  0  0  0  0  0  0  0  0  2 V2000
  145.8022  130.5061  151.9103 C   0  0  0  0  0  0  0  0  0  0  0  0
  146.2568  131.9625  152.0943 C   0  0  0  0  0  0  0  0  0  0  0  0
  146.3732  132.7279  150.7671 C   0  0  0  0  0  0  0  0  0  0  0  0
  147.5313  132.0620  152.9230 C   0  0  0  0  0  0  0  0  0  0  0  0
  147.9812  130.9312  153.4770 N   0  0  0  0  0  0  0  0  0  0  0  0
  149.1094  131.0195  154.2137 C   0  0  0  0  0  0  0  0  0  0  0  0
  149.7854  132.2427  154.3946 C   0  0  0  0  0  0  0  0  0  0  0  0
  149.2223  133.3737  153.7684 C   0  0  0  0  0  0  0  0  0  0  0  0
  149.8516  134.6185  153.9039 N   0  0  0  0  0  0  0  0  0  0  0  0
  150.3607  135.0253  155.2077 C   0  0  0  0  0  0  0  0  0  0  0  0
  150.7167  136.5028  155.2718 C   0  0  0  0  0  0  0  0  0  0  0  0
  149.9540  137.4517  154.6897 C   0  0  0  0  0  0  0  0  0  0  0  0
  150.2640  138.8191  154.7687 N   0  0  0  0  0  0  0  0  0  0  0  0
  149.3785  139.7725  154.0956 C   0  0  0  0  0  0  0  0  0  0  0  0
  151.3622  139.2349  155.4613 C   0  0  0  0  0  0  0  0  0  0  0  0
  151.6085  140.4404  155.5152 O   0  0  0  0  0  0  0  0  0  0  0  0
  152.1477  138.2952  156.0706 N   0  5  0  0  0  0  0  0  0  0  0  0
  151.8926  136.9545  156.0248 C   0  0  0  0  0  0  0  0  0  0  0  0
  152.6117  136.1301  156.5886 O   0  0  0  0  0  0  0  0  0  0  0  0
  148.0918  133.2721  153.0300 N   0  0  0  0  0  0  0  0  0  0  0  0
  145.6563  130.0167  152.8737 H   0  0  0  0  0  0  0  0  0  0  0  0
  146.5370  129.9268  151.3498 H   0  0  0  0  0  0  0  0  0  0  0  0
  144.8580  130.4560  151.3679 H   0  0  0  0  0  0  0  0  0  0  0  0
  145.4655  132.4568  152.6610 H   0  0  0  0  0  0  0  0  0  0  0  0
  146.6244  133.7746  150.9402 H   0  0  0  0  0  0  0  0  0  0  0  0
  145.4337  132.7004  150.2146 H   0  0  0  0  0  0  0  0  0  0  0  0
  147.1461  132.3009  150.1271 H   0  0  0  0  0  0  0  0  0  0  0  0
  149.4767  130.1079  154.6613 H   0  0  0  0  0  0  0  0  0  0  0  0
  150.6882  132.3065  154.9840 H   0  0  0  0  0  0  0  0  0  0  0  0
  150.3213  134.9926  153.0916 H   0  0  0  0  0  0  0  0  0  0  0  0
  149.6100  134.8152  155.9707 H   0  0  0  0  0  0  0  0  0  0  0  0
  151.2418  134.4318  155.4556 H   0  0  0  0  0  0  0  0  0  0  0  0
  149.0607  137.2187  154.1290 H   0  0  0  0  0  0  0  0  0  0  0  0
  149.9317  140.3472  153.3515 H   0  0  0  0  0  0  0  0  0  0  0  0
  148.9516  140.4711  154.8166 H   0  0  0  0  0  0  0  0  0  0  0  0
  148.5496  139.2850  153.5816 H   0  0  0  0  0  0  0  0  0  0  0  0
  1  2  1  0  0  0  0
  1 21  1  0  0  0  0
  1 22  1  0  0  0  0
  1 23  1  0  0  0  0
  2  3  1  0  0  0  0
  2  4  1  0  0  0  0
  2 24  1  0  0  0  0
  3 25  1  0  0  0  0
  3 26  1  0  0  0  0
  3 27  1  0  0  0  0
  4 20  1  0  0  0  0
  4  5  2  0  0  0  0
  5  6  1  0  0  0  0
  6  7  2  0  0  0  0
  6 28  1  0  0  0  0
  7  8  1  0  0  0  0
  7 29  1  0  0  0  0
  8  9  1  0  0  0  0
  8 20  2  0  0  0  0
  9 10  1  0  0  0  0
  9 30  1  0  0  0  0
 10 11  1  0  0  0  0
 10 31  1  0  0  0  0
 10 32  1  0  0  0  0
 11 18  1  0  0  0  0
 11 12  2  0  0  0  0
 12 13  1  0  0  0  0
 12 33  1  0  0  0  0
 13 14  1  0  0  0  0
 13 15  1  0  0  0  0
 14 34  1  0  0  0  0
 14 35  1  0  0  0  0
 14 36  1  0  0  0  0
 15 16  2  0  0  0  0
 15 17  1  0  0  0  0
 17 18  1  0  0  0  0
 18 19  2  0  0  0  0
M  CHG  1  17  -1
M  END
> <s_m_source_file>
AV-unprocessed.smi

> <i_m_source_file_index>
6

> <i_lp_mmshare_version>
43012

> <i_f3d_flags>
0

> <s_epik_input>
W0NIM11bQ0hdKFtDSDNdKWMxbltjSF1bY0hdYyhuMSlbTkhdW0NIMl1jMltjSF1uKFtDSDNdKWMoPU8pW25IXWMyPU8=

> <s_epik_cmdline>
J2VwaWtfcHl0aG9uJywgJy1waCcsICc3LjAnLCAnLXRuJywgJzgnLCAnLW1hJywgJzIwMCcsICctbWV0YWxfYmluZGluZycsICctaW1hZScsICc8aW5maWxlLm1hZT4nLCAnLW9tYWUnLCAnPG91dGZpbGUubWFlPic=

> <r_lp_tautomer_probability>
0.999537

> <r_epik_Ionization_Penalty>
4.10508

> <r_epik_Ionization_Penalty_Charging>
6.01221e-07

> <r_epik_Ionization_Penalty_Neutral>
4.10508

> <r_epik_State_Penalty>
4.24889

> <r_epik_Charging_Adjusted_Penalty>
4.24889

> <i_epik_Tot_Q>
-1

> <i_epik_Tot_abs_Q>
1

> <r_epik_Metal_State_Penalty>
1.04429

> <b_epik_Metal_Only>
1

> <s_lp_Force_Field>
OPLS_2005

> <r_lp_Energy>
13.2658

> <b_lp_Chiralities_Consistent>
1

> <s_lp_Variant>
AV-unprocessed.smi:6-3

> <Gold.Version>
5.8.1

> <Gold.Id.Protein>
6NUR|6NUR_protein|mol2

> <Gold.PLP.Fitness>
37.6906

> <Gold.PLP.PLP>
-31.3576

> <Gold.PLP.part.hbond>
-3.8103

> <Gold.PLP.part.metal>
0.0000

> <Gold.PLP.part.buried>
-0.0694

> <Gold.PLP.part.nonpolar>
-28.4919

> <Gold.PLP.part.repulsive>
0.3249

> <Gold.PLP.ligand.clash>
0.0000

> <Gold.PLP.ligand.torsion>
0.9481

> <Gold.PLP.Chemscore.Hbond>
1.8160

> <Gold.PLP.Chemscore.CHOScore>
0.9007

> <Gold.PLP.Chemscore.Metal>
0.0000

> <Gold.Chemscore.Hbonds>
donor molecule, donor type, donor heavy atom, donor atom, acceptor molecule, acceptor atom, score
      P1  H  7989  7998       L1    16  0.77
      P1  H 10752 10763       L1    19  1.00
      L1  C    12    33       P1  7948  0.91

> <Gold.PLP.Chemscore.Internal.Correction>
0.0790

> <Gold.Rescore>
     Score         DG    S(hbond)    S(metal)    S(lipo)     H(rot)  DE(clash)    DE(int)     intcor
     11.43     -12.71       1.47        0.00      55.38       1.62       0.31       0.97       ----

> <Gold.Chemscore.Fitness>
11.4330

> <Gold.Chemscore.DG>
-12.7103

> <Gold.Chemscore.ZeroCoef>
-5.4800

> <Gold.Chemscore.Hbond>
1.4661

> <Gold.Chemscore.Metal>
0.0000

> <Gold.Chemscore.Lipo>
55.3841

> <Gold.Chemscore.Internal_Hbond>
0.0000

> <Gold.Chemscore.DEClash>
0.3058

> <Gold.Chemscore.DEInternal>
0.9716

> <Gold.Chemscore.Rot>
1.6196

> <Gold.Chemscore.Internal.Correction>
   9.000000E+99

> <Gold.Chemscore.Hbonds>
donor molecule, donor type, donor heavy atom, donor atom, acceptor molecule, acceptor atom, score
      P1  H  7989  7998       L1    16  0.19
      P1  H 10752 10763       L1    19  0.50

> <Gold.Chemscore.Hbond.Weighted>
-4.8967

> <Gold.Chemscore.Metal.Weighted>
-0.0000

> <Gold.Chemscore.Lipo.Weighted>
-6.4799

> <Gold.Chemscore.Internal_Hbond.Weighted>
0.0000

> <Gold.Chemscore.DEClash.Weighted>
0.3058

> <Gold.Chemscore.DEInternal.Weighted>
0.9716

> <Gold.Chemscore.Rot.Weighted>
4.1463

> <Gold.Chemscore.Internal.Correction.Weighted>
   9.000000E+99

> <Gold.Protein.RotatedTorsions>
[ 6907 6896 6895 6894 ] final -176.95 input  -60.11 | X-H torsion
[ 7974 7965 7964 7962 ] final   13.64 input  175.53 | X-H torsion
[ 8008 7997 7996 7995 ] final -100.14 input   59.86 | X-H torsion
[ 10167 10162 10161 10158 ] final  159.84 input  -65.29 | X-H torsion
[ 10718 10713 10712 10709 ] final  105.47 input   66.30 | X-H torsion
[ 10763 10752 10751 10750 ] final  117.66 input  -60.55 | X-H torsion
[ 11005 11000 10999 10996 ] final   27.28 input  -57.11 | X-H torsion

> <Gold.Protein.ActiveResidues>
 VAL166  LYS551  ARG553  GLY616  TRP617  ASP618  TYR619  PRO620  LYS621  CYS622 
 ASP623  PHE694  ASN695  SER759  ASP760  ASP761  ALA762  ILE779  LEU786  VAL792 
 PHE793  MET794  SER795  GLU796  ALA797  LYS798  CYS799  TRP800  GLU811  SER814 

> <Gold.Protein.RotatedAtoms>
  151.6131  133.3345  159.3071 H   0  0  0  0  0  0  0  0  0  0  0  0  # atno 6907 bound_to 6896
  150.8146  134.7324  159.6730 H   0  0  0  0  0  0  0  0  0  0  0  0  # atno 6908 bound_to 6896
  152.4242  134.5904  160.0024 H   0  0  0  0  0  0  0  0  0  0  0  0  # atno 6909 bound_to 6896
  146.2324  139.9159  142.8517 H   0  0  0  0  0  0  0  0  0  0  0  0  # atno 7974 bound_to 7965
  154.8245  140.0443  157.1434 H   0  0  0  0  0  0  0  0  0  0  0  0  # atno 8008 bound_to 7997
  154.9222  140.3028  155.5190 H   0  0  0  0  0  0  0  0  0  0  0  0  # atno 8009 bound_to 7997
  156.2982  140.2338  156.4273 H   0  0  0  0  0  0  0  0  0  0  0  0  # atno 8010 bound_to 7997
  139.4835  144.4692  151.8600 H   0  0  0  0  0  0  0  0  0  0  0  0  # atno 10167 bound_to 10162
  157.6704  131.0828  150.5862 H   0  0  0  0  0  0  0  0  0  0  0  0  # atno 10718 bound_to 10713
  153.5558  135.3530  155.2778 H   0  0  0  0  0  0  0  0  0  0  0  0  # atno 10763 bound_to 10752
  154.8701  135.4124  154.2886 H   0  0  0  0  0  0  0  0  0  0  0  0  # atno 10764 bound_to 10752
  153.3622  135.7060  153.6772 H   0  0  0  0  0  0  0  0  0  0  0  0  # atno 10765 bound_to 10752
  140.3280  134.2469  155.7706 H   0  0  0  0  0  0  0  0  0  0  0  0  # atno 11005 bound_to 11000
  145.2184  140.9925  143.4060 LP  0  0  0  0  0  0  0  0  0  0  0  0  # atno 17320 bound_to 7965
  144.9631  139.3958  143.6346 LP  0  0  0  0  0  0  0  0  0  0  0  0  # atno 17321 bound_to 7965
  140.4159  144.2307  150.5888 LP  0  0  0  0  0  0  0  0  0  0  0  0  # atno 17342 bound_to 10162
  140.4921  143.2344  151.8803 LP  0  0  0  0  0  0  0  0  0  0  0  0  # atno 17343 bound_to 10162
  156.6163  130.4393  149.5839 LP  0  0  0  0  0  0  0  0  0  0  0  0  # atno 17370 bound_to 10713
  156.2391  130.6840  151.1538 LP  0  0  0  0  0  0  0  0  0  0  0  0  # atno 17371 bound_to 10713
  141.2070  133.7817  157.0142 LP  0  0  0  0  0  0  0  0  0  0  0  0  # atno 17394 bound_to 11000
  140.0885  134.9606  157.1738 LP  0  0  0  0  0  0  0  0  0  0  0  0  # atno 17395 bound_to 11000

$$$$
