AV-unprocessed.smi:1911|AV-procd|sdf|7741|dock1
  -GOLD-   22720 9483D 1   1.00000     0.00000
 Structure written by MMmdl.
 52 54  0  0  0  0  0  0  0  0  2 V2000
  143.1932  132.7991  148.8478 N   0  0  0  0  0  0  0  0  0  0  0  0
  144.2458  132.7527  149.6686 C   0  0  0  0  0  0  0  0  0  0  0  0
  145.3270  132.2801  149.3257 O   0  0  0  0  0  0  0  0  0  0  0  0
  144.0539  133.3088  151.0848 C   0  0  0  0  0  0  0  0  0  0  0  0
  144.9948  134.3894  151.4627 N   0  0  0  0  0  0  0  0  0  0  0  0
  144.7583  134.8891  152.8255 C   0  0  0  0  0  0  0  0  0  0  0  0
  145.8032  135.9555  153.1987 C   0  0  0  0  0  0  0  0  0  0  0  0
  145.7874  137.1264  152.2021 C   0  0  0  0  0  0  0  0  0  0  0  0
  146.8691  138.0658  152.4825 N   0  0  0  0  0  0  0  0  0  0  0  0
  147.1326  138.6048  153.6812 C   0  0  0  0  0  0  0  0  0  0  0  0
  146.4734  138.3668  154.6928 O   0  0  0  0  0  0  0  0  0  0  0  0
  148.1861  139.4372  153.6190 N   0  0  0  0  0  0  0  0  0  0  0  0
  148.7878  140.1822  154.6686 C   0  0  0  0  0  0  0  0  0  0  0  0
  149.0216  139.6740  155.9702 C   0  0  0  0  0  0  0  0  0  0  0  0
  149.6430  140.4932  156.9353 C   0  0  0  0  0  0  0  0  0  0  0  0
  150.0322  141.8104  156.5951 C   0  0  0  0  0  0  0  0  0  0  0  0
  150.6627  142.6807  157.5046 N   0  0  0  0  0  0  0  0  0  0  0  0
  151.2560  142.1980  158.7451 C   0  0  0  0  0  0  0  0  0  0  0  0
  152.3812  143.1856  159.0738 C   0  0  0  0  0  0  0  0  0  0  0  0
  151.9966  144.4538  158.3119 C   0  0  0  0  0  0  0  0  0  0  0  0
  151.2974  143.9124  157.0655 C   0  0  0  0  0  0  0  0  0  0  0  0
  149.8040  142.2450  155.3328 N   0  3  0  0  0  0  0  0  0  0  0  0
  149.2129  141.4944  154.3785 C   0  0  0  0  0  0  0  0  0  0  0  0
  145.9349  136.5703  150.7790 C   0  0  0  0  0  0  0  0  0  0  0  0
  144.8809  135.4861  150.4956 C   0  0  0  0  0  0  0  0  0  0  0  0
  143.2766  132.4526  147.9032 H   0  0  0  0  0  0  0  0  0  0  0  0
  142.3208  133.1895  149.1736 H   0  0  0  0  0  0  0  0  0  0  0  0
  143.0297  133.6798  151.1478 H   0  0  0  0  0  0  0  0  0  0  0  0
  144.1299  132.4883  151.8008 H   0  0  0  0  0  0  0  0  0  0  0  0
  143.7510  135.3018  152.9059 H   0  0  0  0  0  0  0  0  0  0  0  0
  144.8259  134.0824  153.5549 H   0  0  0  0  0  0  0  0  0  0  0  0
  145.6088  136.3182  154.2086 H   0  0  0  0  0  0  0  0  0  0  0  0
  146.7935  135.4979  153.2210 H   0  0  0  0  0  0  0  0  0  0  0  0
  144.8292  137.6451  152.2720 H   0  0  0  0  0  0  0  0  0  0  0  0
  147.4599  138.3205  151.7045 H   0  0  0  0  0  0  0  0  0  0  0  0
  148.5721  139.5944  152.6994 H   0  0  0  0  0  0  0  0  0  0  0  0
  148.7522  138.6665  156.2460 H   0  0  0  0  0  0  0  0  0  0  0  0
  149.8190  140.0950  157.9233 H   0  0  0  0  0  0  0  0  0  0  0  0
  150.4941  142.2077  159.5251 H   0  0  0  0  0  0  0  0  0  0  0  0
  151.6423  141.1821  158.6567 H   0  0  0  0  0  0  0  0  0  0  0  0
  152.4997  143.3509  160.1450 H   0  0  0  0  0  0  0  0  0  0  0  0
  153.3273  142.8033  158.6879 H   0  0  0  0  0  0  0  0  0  0  0  0
  151.2935  145.0400  158.9055 H   0  0  0  0  0  0  0  0  0  0  0  0
  152.8516  145.0883  158.0774 H   0  0  0  0  0  0  0  0  0  0  0  0
  152.0237  143.6886  156.2830 H   0  0  0  0  0  0  0  0  0  0  0  0
  150.5709  144.6243  156.6730 H   0  0  0  0  0  0  0  0  0  0  0  0
  149.0952  141.9694  153.4152 H   0  0  0  0  0  0  0  0  0  0  0  0
  145.8379  137.3769  150.0512 H   0  0  0  0  0  0  0  0  0  0  0  0
  146.9323  136.1488  150.6427 H   0  0  0  0  0  0  0  0  0  0  0  0
  145.0331  135.1052  149.4848 H   0  0  0  0  0  0  0  0  0  0  0  0
  143.8780  135.9164  150.5244 H   0  0  0  0  0  0  0  0  0  0  0  0
  150.0960  143.1913  155.0880 H   0  0  0  0  0  0  0  0  0  0  0  0
  1  2  1  0  0  0  0
  1 26  1  0  0  0  0
  1 27  1  0  0  0  0
  2  3  2  0  0  0  0
  2  4  1  0  0  0  0
  4  5  1  0  0  0  0
  4 28  1  0  0  0  0
  4 29  1  0  0  0  0
  5 25  1  0  0  0  0
  5  6  1  0  0  0  0
  6  7  1  0  0  0  0
  6 30  1  0  0  0  0
  6 31  1  0  0  0  0
  7  8  1  0  0  0  0
  7 32  1  0  0  0  0
  7 33  1  0  0  0  0
  8  9  1  0  0  0  0
  8 24  1  0  0  0  0
  8 34  1  0  0  0  0
  9 10  1  0  0  0  0
  9 35  1  0  0  0  0
 10 11  2  0  0  0  0
 10 12  1  0  0  0  0
 12 13  1  0  0  0  0
 12 36  1  0  0  0  0
 13 23  1  0  0  0  0
 13 14  2  0  0  0  0
 14 15  1  0  0  0  0
 14 37  1  0  0  0  0
 15 16  2  0  0  0  0
 15 38  1  0  0  0  0
 16 17  1  0  0  0  0
 16 22  1  0  0  0  0
 17 21  1  0  0  0  0
 17 18  1  0  0  0  0
 18 19  1  0  0  0  0
 18 39  1  0  0  0  0
 18 40  1  0  0  0  0
 19 20  1  0  0  0  0
 19 41  1  0  0  0  0
 19 42  1  0  0  0  0
 20 21  1  0  0  0  0
 20 43  1  0  0  0  0
 20 44  1  0  0  0  0
 21 45  1  0  0  0  0
 21 46  1  0  0  0  0
 22 23  2  0  0  0  0
 22 52  1  0  0  0  0
 23 47  1  0  0  0  0
 24 25  1  0  0  0  0
 24 48  1  0  0  0  0
 24 49  1  0  0  0  0
 25 50  1  0  0  0  0
 25 51  1  0  0  0  0
M  CHG  1  22   1
M  END
> <s_m_source_file>
AV-unprocessed.smi

> <i_m_source_file_index>
1911

> <i_lp_mmshare_version>
43012

> <i_f3d_flags>
0

> <s_epik_input>
W05IMl1DKD1PKVtDSDJdTjFbQ0gyXVtDSDJdW0NIXShbQ0gyXVtDSDJdMSlbTkhdQyg9TylbTkhdYzJbY0hdW2NIXWMobltjSF0yKU4zW0NIMl1bQ0gyXVtDSDJdW0NIMl0z

> <s_epik_cmdline>
J2VwaWtfcHl0aG9uJywgJy1waCcsICc3LjAnLCAnLXRuJywgJzgnLCAnLW1hJywgJzIwMCcsICctbWV0YWxfYmluZGluZycsICctaW1hZScsICc8aW5maWxlLm1hZT4nLCAnLW9tYWUnLCAnPG91dGZpbGUubWFlPic=

> <r_epik_Ionization_Penalty>
1.24114

> <r_epik_Ionization_Penalty_Charging>
1.08532

> <r_epik_Ionization_Penalty_Neutral>
0.155817

> <r_epik_State_Penalty>
1.33508

> <r_epik_Charging_Adjusted_Penalty>
2.4204

> <i_epik_Tot_Q>
1

> <i_epik_Tot_abs_Q>
1

> <r_epik_Metal_State_Penalty>
1.43572

> <b_epik_Metal_Only>
0

> <s_lp_Force_Field>
OPLS_2005

> <r_lp_Energy>
42.7934

> <b_lp_Chiralities_Consistent>
1

> <s_lp_Variant>
AV-unprocessed.smi:1911-4

> <Gold.Version>
5.8.1

> <Gold.Id.Protein>
6NUR|6NUR_protein|mol2

> <Gold.PLP.Fitness>
53.2478

> <Gold.PLP.PLP>
-45.1026

> <Gold.PLP.part.hbond>
-4.1996

> <Gold.PLP.part.metal>
0.0000

> <Gold.PLP.part.buried>
-3.9008

> <Gold.PLP.part.nonpolar>
-38.2870

> <Gold.PLP.part.repulsive>
0.8273

> <Gold.PLP.ligand.clash>
0.0000

> <Gold.PLP.ligand.torsion>
0.4947

> <Gold.PLP.Chemscore.Hbond>
2.9753

> <Gold.PLP.Chemscore.CHOScore>
0.0000

> <Gold.PLP.Chemscore.Metal>
0.0000

> <Gold.Chemscore.Hbonds>
donor molecule, donor type, donor heavy atom, donor atom, acceptor molecule, acceptor atom, score
      L1  H     1    27       P1 10186  1.00
      L1  H    12    36       P1  7957  1.00
      L1  H    22    52       P1  8028  0.74

> <Gold.PLP.Chemscore.Internal.Correction>
0.2086

> <Gold.Rescore>
     Score         DG    S(hbond)    S(metal)    S(lipo)     H(rot)  DE(clash)    DE(int)     intcor
     17.77     -20.27       2.41        0.00      99.19       1.90       0.51       1.98       ----

> <Gold.Chemscore.Fitness>
17.7696

> <Gold.Chemscore.DG>
-20.2650

> <Gold.Chemscore.ZeroCoef>
-5.4800

> <Gold.Chemscore.Hbond>
2.4120

> <Gold.Chemscore.Metal>
0.0000

> <Gold.Chemscore.Lipo>
99.1920

> <Gold.Chemscore.Internal_Hbond>
0.0000

> <Gold.Chemscore.DEClash>
0.5106

> <Gold.Chemscore.DEInternal>
1.9848

> <Gold.Chemscore.Rot>
1.9049

> <Gold.Chemscore.Internal.Correction>
   9.000000E+99

> <Gold.Chemscore.Hbonds>
donor molecule, donor type, donor heavy atom, donor atom, acceptor molecule, acceptor atom, score
      L1  H     1    27       P1 10186  1.00
      L1  H    12    36       P1  7957  1.00
      L1  H    22    52       P1  8028  0.34

> <Gold.Chemscore.Hbond.Weighted>
-8.0561

> <Gold.Chemscore.Metal.Weighted>
-0.0000

> <Gold.Chemscore.Lipo.Weighted>
-11.6055

> <Gold.Chemscore.Internal_Hbond.Weighted>
0.0000

> <Gold.Chemscore.DEClash.Weighted>
0.5106

> <Gold.Chemscore.DEInternal.Weighted>
1.9848

> <Gold.Chemscore.Rot.Weighted>
4.8766

> <Gold.Chemscore.Internal.Correction.Weighted>
   9.000000E+99

> <Gold.Protein.RotatedTorsions>
[ 6907 6896 6895 6894 ] final  177.78 input  -60.11 | X-H torsion
[ 7974 7965 7964 7962 ] final   46.75 input  175.53 | X-H torsion
[ 8008 7997 7996 7995 ] final   92.39 input   59.86 | X-H torsion
[ 10167 10162 10161 10158 ] final -111.95 input  -65.29 | X-H torsion
[ 10718 10713 10712 10709 ] final   98.43 input   66.30 | X-H torsion
[ 10763 10752 10751 10750 ] final  -50.35 input  -60.55 | X-H torsion
[ 11005 11000 10999 10996 ] final  -53.26 input  -57.11 | X-H torsion

> <Gold.Protein.ActiveResidues>
 VAL166  LYS551  ARG553  GLY616  TRP617  ASP618  TYR619  PRO620  LYS621  CYS622 
 ASP623  PHE694  ASN695  SER759  ASP760  ASP761  ALA762  ILE779  LEU786  VAL792 
 PHE793  MET794  SER795  GLU796  ALA797  LYS798  CYS799  TRP800  GLU811  SER814 

> <Gold.Protein.RotatedAtoms>
  151.6985  133.3311  159.3260 H   0  0  0  0  0  0  0  0  0  0  0  0  # atno 6907 bound_to 6896
  150.7746  134.6636  159.6362 H   0  0  0  0  0  0  0  0  0  0  0  0  # atno 6908 bound_to 6896
  152.3784  134.6631  160.0203 H   0  0  0  0  0  0  0  0  0  0  0  0  # atno 6909 bound_to 6896
  146.0361  139.4823  142.9807 H   0  0  0  0  0  0  0  0  0  0  0  0  # atno 7974 bound_to 7965
  156.0348  140.3326  155.7179 H   0  0  0  0  0  0  0  0  0  0  0  0  # atno 8008 bound_to 7997
  155.5831  140.0639  157.2795 H   0  0  0  0  0  0  0  0  0  0  0  0  # atno 8009 bound_to 7997
  154.4368  140.1840  156.0985 H   0  0  0  0  0  0  0  0  0  0  0  0  # atno 8010 bound_to 7997
  140.1281  143.4385  152.1646 H   0  0  0  0  0  0  0  0  0  0  0  0  # atno 10167 bound_to 10162
  157.6895  131.0640  150.4795 H   0  0  0  0  0  0  0  0  0  0  0  0  # atno 10718 bound_to 10713
  154.1089  135.6552  153.4881 H   0  0  0  0  0  0  0  0  0  0  0  0  # atno 10763 bound_to 10752
  153.0263  135.5243  154.7212 H   0  0  0  0  0  0  0  0  0  0  0  0  # atno 10764 bound_to 10752
  154.6386  135.2985  155.0100 H   0  0  0  0  0  0  0  0  0  0  0  0  # atno 10765 bound_to 10752
  141.0967  133.6623  156.4145 H   0  0  0  0  0  0  0  0  0  0  0  0  # atno 11005 bound_to 11000
  145.6961  141.0150  143.1529 LP  0  0  0  0  0  0  0  0  0  0  0  0  # atno 17320 bound_to 7965
  144.7052  139.8589  143.7432 LP  0  0  0  0  0  0  0  0  0  0  0  0  # atno 17321 bound_to 7965
  139.5534  144.7355  151.4367 LP  0  0  0  0  0  0  0  0  0  0  0  0  # atno 17342 bound_to 10162
  140.6833  143.8031  150.7151 LP  0  0  0  0  0  0  0  0  0  0  0  0  # atno 17343 bound_to 10162
  156.5128  130.4143  149.6292 LP  0  0  0  0  0  0  0  0  0  0  0  0  # atno 17370 bound_to 10713
  156.3225  130.7288  151.2202 LP  0  0  0  0  0  0  0  0  0  0  0  0  # atno 17371 bound_to 10713
  140.5124  134.6383  157.5289 LP  0  0  0  0  0  0  0  0  0  0  0  0  # atno 17394 bound_to 11000
  139.9805  134.7145  155.9868 LP  0  0  0  0  0  0  0  0  0  0  0  0  # atno 17395 bound_to 11000

$$$$
