AV-unprocessed.smi:2017|AV-procd|sdf|8168|dock10
  -GOLD-   2272010413D 1   1.00000     0.00000
 Structure written by MMmdl.
 44 45  0  0  0  0  0  0  0  0  2 V2000
  148.2733  140.5181  157.5528 O   0  0  0  0  0  0  0  0  0  0  0  0
  149.1870  140.0697  156.8587 C   0  0  0  0  0  0  0  0  0  0  0  0
  150.3124  140.9847  156.3566 C   0  0  0  0  0  0  0  0  0  0  0  0
  151.0363  141.6568  157.4477 N   0  0  0  0  0  0  0  0  0  0  0  0
  150.5253  142.8799  157.9165 C   0  0  0  0  0  0  0  0  0  0  0  0
  151.1192  143.5628  158.9137 C   0  0  0  0  0  0  0  0  0  0  0  0
  152.3248  143.0023  159.5111 C   0  0  0  0  0  0  0  0  0  0  0  0
  152.8838  143.6146  160.4190 O   0  0  0  0  0  0  0  0  0  0  0  0
  152.7787  141.8100  159.0252 N   0  5  0  0  0  0  0  0  0  0  0  0
  152.1625  141.1254  158.0121 C   0  0  0  0  0  0  0  0  0  0  0  0
  152.5875  140.0489  157.5908 O   0  0  0  0  0  0  0  0  0  0  0  0
  149.2528  138.7868  156.4716 N   0  0  0  0  0  0  0  0  0  0  0  0
  148.2867  137.7541  156.8267 C   0  0  0  0  0  0  0  0  0  0  0  0
  148.0339  137.7124  158.3434 C   0  0  0  0  0  0  0  0  0  0  0  0
  149.1509  136.9959  159.1110 C   0  0  0  0  0  0  0  0  0  0  0  0
  148.8438  137.0039  160.4982 O   0  0  0  0  0  0  0  0  0  0  0  0
  147.6919  136.2497  160.8527 C   0  0  0  0  0  0  0  0  0  0  0  0
  147.5401  136.1597  162.3862 C   0  0  0  0  0  0  0  0  0  0  0  0
  146.3768  135.2345  162.7804 C   0  0  0  0  0  0  0  0  0  0  0  0
  146.5377  133.8375  162.1606 C   0  0  0  0  0  0  0  0  0  0  0  0
  146.6926  133.9221  160.6342 C   0  0  0  0  0  0  0  0  0  0  0  0
  147.8584  134.8455  160.2453 C   0  0  0  0  0  0  0  0  0  0  0  0
  151.0093  140.4115  155.7420 H   0  0  0  0  0  0  0  0  0  0  0  0
  149.8739  141.7205  155.6813 H   0  0  0  0  0  0  0  0  0  0  0  0
  149.6261  143.2212  157.4250 H   0  0  0  0  0  0  0  0  0  0  0  0
  150.7122  144.4996  159.2645 H   0  0  0  0  0  0  0  0  0  0  0  0
  150.0354  138.5041  155.8997 H   0  0  0  0  0  0  0  0  0  0  0  0
  147.3571  137.9686  156.2990 H   0  0  0  0  0  0  0  0  0  0  0  0
  148.6286  136.7818  156.4678 H   0  0  0  0  0  0  0  0  0  0  0  0
  147.9467  138.7305  158.7249 H   0  0  0  0  0  0  0  0  0  0  0  0
  147.0801  137.2248  158.5492 H   0  0  0  0  0  0  0  0  0  0  0  0
  149.2633  135.9785  158.7360 H   0  0  0  0  0  0  0  0  0  0  0  0
  150.0971  137.5122  158.9423 H   0  0  0  0  0  0  0  0  0  0  0  0
  146.8004  136.7063  160.4186 H   0  0  0  0  0  0  0  0  0  0  0  0
  148.4665  135.7858  162.8238 H   0  0  0  0  0  0  0  0  0  0  0  0
  147.3722  137.1464  162.8166 H   0  0  0  0  0  0  0  0  0  0  0  0
  146.3172  135.1545  163.8661 H   0  0  0  0  0  0  0  0  0  0  0  0
  145.4341  135.6732  162.4511 H   0  0  0  0  0  0  0  0  0  0  0  0
  147.4116  133.3457  162.5900 H   0  0  0  0  0  0  0  0  0  0  0  0
  145.6776  133.2169  162.4135 H   0  0  0  0  0  0  0  0  0  0  0  0
  146.8526  132.9262  160.2205 H   0  0  0  0  0  0  0  0  0  0  0  0
  145.7677  134.2956  160.1928 H   0  0  0  0  0  0  0  0  0  0  0  0
  147.9262  134.9165  159.1594 H   0  0  0  0  0  0  0  0  0  0  0  0
  148.7978  134.4071  160.5852 H   0  0  0  0  0  0  0  0  0  0  0  0
  1  2  2  0  0  0  0
  2  3  1  0  0  0  0
  2 12  1  0  0  0  0
  3  4  1  0  0  0  0
  3 23  1  0  0  0  0
  3 24  1  0  0  0  0
  4 10  1  0  0  0  0
  4  5  1  0  0  0  0
  5  6  2  0  0  0  0
  5 25  1  0  0  0  0
  6  7  1  0  0  0  0
  6 26  1  0  0  0  0
  7  8  2  0  0  0  0
  7  9  1  0  0  0  0
  9 10  1  0  0  0  0
 10 11  2  0  0  0  0
 12 13  1  0  0  0  0
 12 27  1  0  0  0  0
 13 14  1  0  0  0  0
 13 28  1  0  0  0  0
 13 29  1  0  0  0  0
 14 15  1  0  0  0  0
 14 30  1  0  0  0  0
 14 31  1  0  0  0  0
 15 16  1  0  0  0  0
 15 32  1  0  0  0  0
 15 33  1  0  0  0  0
 16 17  1  0  0  0  0
 17 22  1  0  0  0  0
 17 18  1  0  0  0  0
 17 34  1  0  0  0  0
 18 19  1  0  0  0  0
 18 35  1  0  0  0  0
 18 36  1  0  0  0  0
 19 20  1  0  0  0  0
 19 37  1  0  0  0  0
 19 38  1  0  0  0  0
 20 21  1  0  0  0  0
 20 39  1  0  0  0  0
 20 40  1  0  0  0  0
 21 22  1  0  0  0  0
 21 41  1  0  0  0  0
 21 42  1  0  0  0  0
 22 43  1  0  0  0  0
 22 44  1  0  0  0  0
M  CHG  1   9  -1
M  END
> <s_m_source_file>
AV-unprocessed.smi

> <i_m_source_file_index>
2017

> <i_lp_mmshare_version>
43012

> <i_f3d_flags>
0

> <s_epik_input>
Tz1jMVtuSF1jKD1PKVtjSF1bY0hdbjFbQ0gyXUMoPU8pW05IXVtDSDJdW0NIMl1bQ0gyXU9bQ0hdMltDSDJdW0NIMl1bQ0gyXVtDSDJdW0NIMl0y

> <s_epik_cmdline>
J2VwaWtfcHl0aG9uJywgJy1waCcsICc3LjAnLCAnLXRuJywgJzgnLCAnLW1hJywgJzIwMCcsICctbWV0YWxfYmluZGluZycsICctaW1hZScsICc8aW5maWxlLm1hZT4nLCAnLW9tYWUnLCAnPG91dGZpbGUubWFlPic=

> <r_lp_tautomer_probability>
0.999537

> <r_epik_Ionization_Penalty>
3.07707

> <r_epik_Ionization_Penalty_Charging>
2.73667e-08

> <r_epik_Ionization_Penalty_Neutral>
3.07707

> <r_epik_State_Penalty>
3.07611

> <r_epik_Charging_Adjusted_Penalty>
3.07611

> <i_epik_Tot_Q>
-1

> <i_epik_Tot_abs_Q>
1

> <r_epik_Metal_State_Penalty>
0.459703

> <b_epik_Metal_Only>
1

> <s_lp_Force_Field>
OPLS_2005

> <r_lp_Energy>
18.9634

> <b_lp_Chiralities_Consistent>
1

> <s_lp_Variant>
AV-unprocessed.smi:2017-2

> <Gold.Version>
5.8.1

> <Gold.Id.Protein>
6NUR|6NUR_protein|mol2

> <Gold.PLP.Fitness>
44.4331

> <Gold.PLP.PLP>
-37.1846

> <Gold.PLP.part.hbond>
-2.0000

> <Gold.PLP.part.metal>
0.0000

> <Gold.PLP.part.buried>
-5.6287

> <Gold.PLP.part.nonpolar>
-29.7852

> <Gold.PLP.part.repulsive>
0.0403

> <Gold.PLP.ligand.clash>
0.0000

> <Gold.PLP.ligand.torsion>
0.5363

> <Gold.PLP.Chemscore.Hbond>
1.7520

> <Gold.PLP.Chemscore.CHOScore>
1.0000

> <Gold.PLP.Chemscore.Metal>
0.0000

> <Gold.Chemscore.Hbonds>
donor molecule, donor type, donor heavy atom, donor atom, acceptor molecule, acceptor atom, score
      P1  H  6931  6943       L1    16  0.74
      P1  H  7997  8009       L1    11  1.00
      L1  C     5    25       P1  8028  1.00

> <Gold.PLP.Chemscore.Internal.Correction>
0.0651

> <Gold.Rescore>
     Score         DG    S(hbond)    S(metal)    S(lipo)     H(rot)  DE(clash)    DE(int)     intcor
     11.87     -13.65       1.77        0.00      77.49       2.66       0.00       1.79       ----

> <Gold.Chemscore.Fitness>
11.8656

> <Gold.Chemscore.DG>
-13.6546

> <Gold.Chemscore.ZeroCoef>
-5.4800

> <Gold.Chemscore.Hbond>
1.7697

> <Gold.Chemscore.Metal>
0.0000

> <Gold.Chemscore.Lipo>
77.4900

> <Gold.Chemscore.Internal_Hbond>
0.0000

> <Gold.Chemscore.DEClash>
0.0029

> <Gold.Chemscore.DEInternal>
1.7861

> <Gold.Chemscore.Rot>
2.6572

> <Gold.Chemscore.Internal.Correction>
   9.000000E+99

> <Gold.Chemscore.Hbonds>
donor molecule, donor type, donor heavy atom, donor atom, acceptor molecule, acceptor atom, score
      P1  H  6931  6943       L1    16  0.37
      P1  H  7997  8009       L1    11  0.87

> <Gold.Chemscore.Hbond.Weighted>
-5.9108

> <Gold.Chemscore.Metal.Weighted>
-0.0000

> <Gold.Chemscore.Lipo.Weighted>
-9.0663

> <Gold.Chemscore.Internal_Hbond.Weighted>
0.0000

> <Gold.Chemscore.DEClash.Weighted>
0.0029

> <Gold.Chemscore.DEInternal.Weighted>
1.7861

> <Gold.Chemscore.Rot.Weighted>
6.8024

> <Gold.Chemscore.Internal.Correction.Weighted>
   9.000000E+99

> <Gold.Protein.RotatedTorsions>
[ 6907 6896 6895 6894 ] final   44.26 input  -60.11 | X-H torsion
[ 7974 7965 7964 7962 ] final  -20.46 input  175.53 | X-H torsion
[ 8008 7997 7996 7995 ] final  174.16 input   59.86 | X-H torsion
[ 10167 10162 10161 10158 ] final   -3.84 input  -65.29 | X-H torsion
[ 10718 10713 10712 10709 ] final  131.93 input   66.30 | X-H torsion
[ 10763 10752 10751 10750 ] final   63.84 input  -60.55 | X-H torsion
[ 11005 11000 10999 10996 ] final  -40.96 input  -57.11 | X-H torsion

> <Gold.Protein.ActiveResidues>
 VAL166  LYS551  ARG553  GLY616  TRP617  ASP618  TYR619  PRO620  LYS621  CYS622 
 ASP623  PHE694  ASN695  SER759  ASP760  ASP761  ALA762  ILE779  LEU786  VAL792 
 PHE793  MET794  SER795  GLU796  ALA797  LYS798  CYS799  TRP800  GLU811  SER814 

> <Gold.Protein.RotatedAtoms>
  152.2303  134.8328  160.0474 H   0  0  0  0  0  0  0  0  0  0  0  0  # atno 6907 bound_to 6896
  151.9079  133.3549  159.3861 H   0  0  0  0  0  0  0  0  0  0  0  0  # atno 6908 bound_to 6896
  150.7024  134.4687  159.5459 H   0  0  0  0  0  0  0  0  0  0  0  0  # atno 6909 bound_to 6896
  146.1787  140.4205  142.8503 H   0  0  0  0  0  0  0  0  0  0  0  0  # atno 7974 bound_to 7965
  156.1002  140.1441  156.9477 H   0  0  0  0  0  0  0  0  0  0  0  0  # atno 8008 bound_to 7997
  154.4698  140.0914  156.7159 H   0  0  0  0  0  0  0  0  0  0  0  0  # atno 8009 bound_to 7997
  155.4772  140.3444  155.4336 H   0  0  0  0  0  0  0  0  0  0  0  0  # atno 8010 bound_to 7997
  140.6905  143.6493  150.8365 H   0  0  0  0  0  0  0  0  0  0  0  0  # atno 10167 bound_to 10162
  157.4920  131.1091  150.9543 H   0  0  0  0  0  0  0  0  0  0  0  0  # atno 10718 bound_to 10713
  153.0033  135.5415  154.6415 H   0  0  0  0  0  0  0  0  0  0  0  0  # atno 10763 bound_to 10752
  154.5669  135.2838  155.0867 H   0  0  0  0  0  0  0  0  0  0  0  0  # atno 10764 bound_to 10752
  154.2048  135.6477  153.5150 H   0  0  0  0  0  0  0  0  0  0  0  0  # atno 10765 bound_to 10752
  141.0212  133.6862  156.2393 H   0  0  0  0  0  0  0  0  0  0  0  0  # atno 11005 bound_to 11000
  144.8278  140.6658  143.6310 LP  0  0  0  0  0  0  0  0  0  0  0  0  # atno 17320 bound_to 7965
  145.4139  139.1575  143.4111 LP  0  0  0  0  0  0  0  0  0  0  0  0  # atno 17321 bound_to 7965
  140.0205  143.5547  152.2802 LP  0  0  0  0  0  0  0  0  0  0  0  0  # atno 17342 bound_to 10162
  139.6304  144.7643  151.2549 LP  0  0  0  0  0  0  0  0  0  0  0  0  # atno 17343 bound_to 10162
  157.0242  130.5685  149.5335 LP  0  0  0  0  0  0  0  0  0  0  0  0  # atno 17370 bound_to 10713
  156.0179  130.5273  150.8189 LP  0  0  0  0  0  0  0  0  0  0  0  0  # atno 17371 bound_to 10713
  140.6569  134.5008  157.5581 LP  0  0  0  0  0  0  0  0  0  0  0  0  # atno 17394 bound_to 11000
  139.9147  134.8270  156.1406 LP  0  0  0  0  0  0  0  0  0  0  0  0  # atno 17395 bound_to 11000

$$$$
