AV-unprocessed.smi:1758|AV-procd|sdf|7084|dock9
  -GOLD-   22720 8303D 1   1.00000     0.00000
 Structure written by MMmdl.
 44 46  0  0  0  0  0  0  0  0  2 V2000
  151.1377  140.8393  157.6854 C   0  0  0  0  0  0  0  0  0  0  0  0
  149.7366  140.9341  157.0701 C   0  0  0  0  0  0  0  0  0  0  0  0
  149.5645  139.9963  155.9781 N   0  0  0  0  0  0  0  0  0  0  0  0
  148.6797  138.9399  155.8915 C   0  0  0  0  0  0  0  0  0  0  0  0
  148.9052  138.3691  154.6707 C   0  0  0  0  0  0  0  0  0  0  0  0
  148.2700  137.2546  154.0678 N   0  0  0  0  0  0  0  0  0  0  0  0
  147.1084  136.6861  154.4286 C   0  0  0  0  0  0  0  0  0  0  0  0
  146.4054  137.0467  155.3727 O   0  0  0  0  0  0  0  0  0  0  0  0
  146.8030  135.6539  153.6300 N   0  0  0  0  0  0  0  0  0  0  0  0
  145.6189  134.8106  153.7642 C   0  0  1  0  0  0  0  0  0  0  0  0
  144.3194  135.6206  153.9156 C   0  0  0  0  0  0  0  0  0  0  0  0
  143.2535  134.8348  153.1259 C   0  0  0  0  0  0  0  0  0  0  0  0
  143.9362  133.6153  152.6525 N   0  3  1  0  0  0  0  0  0  0  0  0
  143.3845  132.9590  151.4471 C   0  0  0  0  0  0  0  0  0  0  0  0
  144.1765  131.6665  151.1645 C   0  0  0  0  0  0  0  0  0  0  0  0
  145.6938  131.9313  151.0838 C   0  0  0  0  0  0  0  0  0  0  0  0
  146.1920  132.6984  152.3239 C   0  0  0  0  0  0  0  0  0  0  0  0
  145.3549  133.9754  152.5090 C   0  0  2  0  0  0  0  0  0  0  0  0
  149.9413  139.1316  154.0717 C   0  0  0  0  0  0  0  0  0  0  0  0
  150.3360  140.1126  154.8689 N   0  0  0  0  0  0  0  0  0  0  0  0
  151.2515  141.5527  158.5013 H   0  0  0  0  0  0  0  0  0  0  0  0
  151.9078  141.0548  156.9442 H   0  0  0  0  0  0  0  0  0  0  0  0
  151.3273  139.8433  158.0865 H   0  0  0  0  0  0  0  0  0  0  0  0
  148.9747  140.7370  157.8253 H   0  0  0  0  0  0  0  0  0  0  0  0
  149.5579  141.9426  156.6960 H   0  0  0  0  0  0  0  0  0  0  0  0
  147.9888  138.7038  156.6873 H   0  0  0  0  0  0  0  0  0  0  0  0
  148.7523  136.8491  153.2790 H   0  0  0  0  0  0  0  0  0  0  0  0
  147.4398  135.4321  152.8786 H   0  0  0  0  0  0  0  0  0  0  0  0
  145.7124  134.1496  154.6287 H   0  0  0  0  0  0  0  0  0  0  0  0
  144.0469  135.7335  154.9657 H   0  0  0  0  0  0  0  0  0  0  0  0
  144.4231  136.6224  153.4957 H   0  0  0  0  0  0  0  0  0  0  0  0
  142.3873  134.5787  153.7365 H   0  0  0  0  0  0  0  0  0  0  0  0
  142.9072  135.4257  152.2767 H   0  0  0  0  0  0  0  0  0  0  0  0
  142.3304  132.7285  151.6051 H   0  0  0  0  0  0  0  0  0  0  0  0
  143.4430  133.6374  150.5945 H   0  0  0  0  0  0  0  0  0  0  0  0
  143.9808  130.9434  151.9575 H   0  0  0  0  0  0  0  0  0  0  0  0
  143.8270  131.2088  150.2385 H   0  0  0  0  0  0  0  0  0  0  0  0
  146.2352  130.9904  150.9811 H   0  0  0  0  0  0  0  0  0  0  0  0
  145.9124  132.5127  150.1871 H   0  0  0  0  0  0  0  0  0  0  0  0
  146.1156  132.0661  153.2096 H   0  0  0  0  0  0  0  0  0  0  0  0
  147.2468  132.9475  152.2059 H   0  0  0  0  0  0  0  0  0  0  0  0
  145.4642  134.6116  151.6274 H   0  0  0  0  0  0  0  0  0  0  0  0
  150.4104  139.0095  153.1066 H   0  0  0  0  0  0  0  0  0  0  0  0
  143.8872  132.9472  153.4085 H   0  0  0  0  0  0  0  0  0  0  0  0
  1  2  1  0  0  0  0
  1 21  1  0  0  0  0
  1 22  1  0  0  0  0
  1 23  1  0  0  0  0
  2  3  1  0  0  0  0
  2 24  1  0  0  0  0
  2 25  1  0  0  0  0
  3 20  1  0  0  0  0
  3  4  1  0  0  0  0
  4  5  2  0  0  0  0
  4 26  1  0  0  0  0
  5  6  1  0  0  0  0
  5 19  1  0  0  0  0
  6  7  1  0  0  0  0
  6 27  1  0  0  0  0
  7  8  2  0  0  0  0
  7  9  1  0  0  0  0
  9 10  1  0  0  0  0
  9 28  1  0  0  0  0
 10 18  1  0  0  0  0
 10 11  1  0  0  0  0
 10 29  1  0  0  0  0
 11 12  1  0  0  0  0
 11 30  1  0  0  0  0
 11 31  1  0  0  0  0
 12 13  1  0  0  0  0
 12 32  1  0  0  0  0
 12 33  1  0  0  0  0
 13 18  1  0  0  0  0
 13 14  1  0  0  0  0
 13 44  1  0  0  0  0
 14 15  1  0  0  0  0
 14 34  1  0  0  0  0
 14 35  1  0  0  0  0
 15 16  1  0  0  0  0
 15 36  1  0  0  0  0
 15 37  1  0  0  0  0
 16 17  1  0  0  0  0
 16 38  1  0  0  0  0
 16 39  1  0  0  0  0
 17 18  1  0  0  0  0
 17 40  1  0  0  0  0
 17 41  1  0  0  0  0
 18 42  1  0  0  0  0
 19 20  2  0  0  0  0
 19 43  1  0  0  0  0
M  CHG  1  13   1
M  END
> <s_m_source_file>
AV-unprocessed.smi

> <i_m_source_file_index>
1758

> <i_lp_mmshare_version>
43012

> <i_f3d_flags>
0

> <s_epik_input>
W0NIM11bQ0gyXW4xW2NIXWMoW2NIXW4xKVtOSF1DKD1PKVtOSF1bQ0BIXShbQ0gyXVtDSDJdMilbQ0BASF0oTjIzKVtDSDJdW0NIMl1bQ0gyXVtDSDJdMw==

> <s_epik_cmdline>
J2VwaWtfcHl0aG9uJywgJy1waCcsICc3LjAnLCAnLXRuJywgJzgnLCAnLW1hJywgJzIwMCcsICctbWV0YWxfYmluZGluZycsICctaW1hZScsICc8aW5maWxlLm1hZT4nLCAnLW9tYWUnLCAnPG91dGZpbGUubWFlPic=

> <r_lp_tautomer_probability>
1

> <r_epik_Ionization_Penalty>
0.00111541

> <r_epik_Ionization_Penalty_Charging>
0.000974069

> <r_epik_Ionization_Penalty_Neutral>
0.000141346

> <r_epik_State_Penalty>
0.000633842

> <r_epik_Charging_Adjusted_Penalty>
0.00160791

> <i_epik_Tot_Q>
1

> <i_epik_Tot_abs_Q>
1

> <r_epik_Metal_State_Penalty>
-0

> <b_epik_Metal_Only>
0

> <s_lp_Force_Field>
OPLS_2005

> <r_lp_Energy>
38.7451

> <b_lp_Chiralities_Consistent>
1

> <s_lp_Variant>
AV-unprocessed.smi:1758-6

> <Gold.Version>
5.8.1

> <Gold.Id.Protein>
6NUR|6NUR_protein|mol2

> <Gold.PLP.Fitness>
38.2122

> <Gold.PLP.PLP>
-24.7520

> <Gold.PLP.part.hbond>
-3.7303

> <Gold.PLP.part.metal>
0.0000

> <Gold.PLP.part.buried>
-4.1840

> <Gold.PLP.part.nonpolar>
-18.6085

> <Gold.PLP.part.repulsive>
0.0962

> <Gold.PLP.ligand.clash>
0.0000

> <Gold.PLP.ligand.torsion>
0.2191

> <Gold.PLP.Chemscore.Hbond>
3.7571

> <Gold.PLP.Chemscore.CHOScore>
0.8724

> <Gold.PLP.Chemscore.Metal>
0.0000

> <Gold.Chemscore.Hbonds>
donor molecule, donor type, donor heavy atom, donor atom, acceptor molecule, acceptor atom, score
      L1  H     6    27       P1  7948  1.00
      L1  H     9    28       P1  7948  0.83
      L1  H    13    44       P1 10957  1.24
      P1  H  7989  7998       L1    20  0.64
      L1  C    19    43       P1  7957  0.88

> <Gold.PLP.Chemscore.Internal.Correction>
0.0098

> <Gold.Rescore>
     Score         DG    S(hbond)    S(metal)    S(lipo)     H(rot)  DE(clash)    DE(int)     intcor
     17.16     -18.30       2.62        0.00      60.76       1.19       0.02       1.12       ----

> <Gold.Chemscore.Fitness>
17.1605

> <Gold.Chemscore.DG>
-18.2964

> <Gold.Chemscore.ZeroCoef>
-5.4800

> <Gold.Chemscore.Hbond>
2.6196

> <Gold.Chemscore.Metal>
0.0000

> <Gold.Chemscore.Lipo>
60.7637

> <Gold.Chemscore.Internal_Hbond>
0.0000

> <Gold.Chemscore.DEClash>
0.0207

> <Gold.Chemscore.DEInternal>
1.1153

> <Gold.Chemscore.Rot>
1.1884

> <Gold.Chemscore.Internal.Correction>
   9.000000E+99

> <Gold.Chemscore.Hbonds>
donor molecule, donor type, donor heavy atom, donor atom, acceptor molecule, acceptor atom, score
      L1  H     6    27       P1  7948  0.95
      L1  H     9    28       P1  7948  0.81
      L1  H    13    44       P1 10957  0.43
      P1  H  7989  7998       L1    20  0.05

> <Gold.Chemscore.Hbond.Weighted>
-8.7494

> <Gold.Chemscore.Metal.Weighted>
-0.0000

> <Gold.Chemscore.Lipo.Weighted>
-7.1094

> <Gold.Chemscore.Internal_Hbond.Weighted>
0.0000

> <Gold.Chemscore.DEClash.Weighted>
0.0207

> <Gold.Chemscore.DEInternal.Weighted>
1.1153

> <Gold.Chemscore.Rot.Weighted>
3.0423

> <Gold.Chemscore.Internal.Correction.Weighted>
   9.000000E+99

> <Gold.Protein.RotatedTorsions>
[ 6907 6896 6895 6894 ] final  -20.94 input  -60.11 | X-H torsion
[ 7974 7965 7964 7962 ] final  -71.74 input  175.53 | X-H torsion
[ 8008 7997 7996 7995 ] final   24.02 input   59.86 | X-H torsion
[ 10167 10162 10161 10158 ] final  -12.19 input  -65.29 | X-H torsion
[ 10718 10713 10712 10709 ] final  -76.00 input   66.30 | X-H torsion
[ 10763 10752 10751 10750 ] final  171.06 input  -60.55 | X-H torsion
[ 11005 11000 10999 10996 ] final  151.79 input  -57.11 | X-H torsion

> <Gold.Protein.ActiveResidues>
 VAL166  LYS551  ARG553  GLY616  TRP617  ASP618  TYR619  PRO620  LYS621  CYS622 
 ASP623  PHE694  ASN695  SER759  ASP760  ASP761  ALA762  ILE779  LEU786  VAL792 
 PHE793  MET794  SER795  GLU796  ALA797  LYS798  CYS799  TRP800  GLU811  SER814 

> <Gold.Protein.RotatedAtoms>
  151.2408  135.0588  159.9023 H   0  0  0  0  0  0  0  0  0  0  0  0  # atno 6907 bound_to 6896
  152.5393  134.0436  159.8089 H   0  0  0  0  0  0  0  0  0  0  0  0  # atno 6908 bound_to 6896
  151.0630  133.5479  159.2664 H   0  0  0  0  0  0  0  0  0  0  0  0  # atno 6909 bound_to 6896
  145.6741  140.9211  143.0867 H   0  0  0  0  0  0  0  0  0  0  0  0  # atno 7974 bound_to 7965
  154.9898  140.3112  155.4911 H   0  0  0  0  0  0  0  0  0  0  0  0  # atno 8008 bound_to 7997
  156.2941  140.2251  156.4943 H   0  0  0  0  0  0  0  0  0  0  0  0  # atno 8009 bound_to 7997
  154.7713  140.0452  157.1042 H   0  0  0  0  0  0  0  0  0  0  0  0  # atno 8010 bound_to 7997
  140.7156  143.5559  150.9249 H   0  0  0  0  0  0  0  0  0  0  0  0  # atno 10167 bound_to 10162
  156.0189  130.4454  150.3127 H   0  0  0  0  0  0  0  0  0  0  0  0  # atno 10718 bound_to 10713
  154.4065  135.2755  155.2064 H   0  0  0  0  0  0  0  0  0  0  0  0  # atno 10763 bound_to 10752
  154.4067  135.6032  153.5932 H   0  0  0  0  0  0  0  0  0  0  0  0  # atno 10764 bound_to 10752
  152.9831  135.5939  154.4341 H   0  0  0  0  0  0  0  0  0  0  0  0  # atno 10765 bound_to 10752
  140.1250  134.8839  157.2125 H   0  0  0  0  0  0  0  0  0  0  0  0  # atno 11005 bound_to 11000
  144.7047  139.8611  143.7433 LP  0  0  0  0  0  0  0  0  0  0  0  0  # atno 17320 bound_to 7965
  146.1020  139.4016  143.0341 LP  0  0  0  0  0  0  0  0  0  0  0  0  # atno 17321 bound_to 7965
  139.9284  143.6523  152.3082 LP  0  0  0  0  0  0  0  0  0  0  0  0  # atno 17342 bound_to 10162
  139.6965  144.7640  151.1348 LP  0  0  0  0  0  0  0  0  0  0  0  0  # atno 17343 bound_to 10162
  157.1229  131.0251  151.3002 LP  0  0  0  0  0  0  0  0  0  0  0  0  # atno 17370 bound_to 10713
  157.4613  130.7655  149.7239 LP  0  0  0  0  0  0  0  0  0  0  0  0  # atno 17371 bound_to 10713
  140.2916  134.3234  155.7314 LP  0  0  0  0  0  0  0  0  0  0  0  0  # atno 17394 bound_to 11000
  141.2159  133.7538  156.9511 LP  0  0  0  0  0  0  0  0  0  0  0  0  # atno 17395 bound_to 11000

$$$$
