AV-unprocessed.smi:2021|AV-procd|sdf|8176|dock7
  -GOLD-   2272010423D 1   1.00000     0.00000
 Structure written by MMmdl.
 42 43  0  0  0  0  0  0  0  0  2 V2000
  145.9161  132.0845  149.5017 C   0  0  0  0  0  0  0  0  0  0  0  0
  144.3907  132.2110  149.6288 C   0  0  0  0  0  0  0  0  0  0  0  0
  143.7870  132.7570  148.3240 C   0  0  0  0  0  0  0  0  0  0  0  0
  144.0187  133.0861  150.8457 C   0  0  0  0  0  0  0  0  0  0  0  0
  144.7036  134.4080  150.8454 N   0  3  2  0  0  0  0  0  0  0  0  0
  146.0535  134.3769  151.4588 C   0  0  0  0  0  0  0  0  0  0  0  0
  145.9651  134.3678  152.9953 C   0  0  0  0  0  0  0  0  0  0  0  0
  145.2277  135.5030  153.4311 O   0  0  0  0  0  0  0  0  0  0  0  0
  143.8858  135.4978  152.9529 C   0  0  1  0  0  0  0  0  0  0  0  0
  143.1589  136.7221  153.5386 C   0  0  0  0  0  0  0  0  0  0  0  0
  143.9420  137.9452  153.3924 N   0  0  0  0  0  0  0  0  0  0  0  0
  145.0486  138.2346  154.0919 C   0  0  0  0  0  0  0  0  0  0  0  0
  145.5236  137.4834  154.9441 O   0  0  0  0  0  0  0  0  0  0  0  0
  145.5539  139.4291  153.7374 N   0  0  0  0  0  0  0  0  0  0  0  0
  146.7266  140.0666  154.2233 C   0  0  0  0  0  0  0  0  0  0  0  0
  147.6619  139.4440  154.9575 N   0  0  0  0  0  0  0  0  0  0  0  0
  148.7070  140.2935  155.2967 N   0  0  0  0  0  0  0  0  0  0  0  0
  148.5197  141.5217  154.8052 C   0  0  0  0  0  0  0  0  0  0  0  0
  147.0481  141.7604  153.8791 S   0  0  0  0  0  0  0  0  0  0  0  0
  143.9055  135.5281  151.4086 C   0  0  0  0  0  0  0  0  0  0  0  0
  146.3835  133.0559  149.3362 H   0  0  0  0  0  0  0  0  0  0  0  0
  146.1899  131.4374  148.6679 H   0  0  0  0  0  0  0  0  0  0  0  0
  146.3517  131.6551  150.4046 H   0  0  0  0  0  0  0  0  0  0  0  0
  144.0065  131.2027  149.7793 H   0  0  0  0  0  0  0  0  0  0  0  0
  144.1451  133.7653  148.1126 H   0  0  0  0  0  0  0  0  0  0  0  0
  142.6985  132.7930  148.3711 H   0  0  0  0  0  0  0  0  0  0  0  0
  144.0529  132.1265  147.4750 H   0  0  0  0  0  0  0  0  0  0  0  0
  142.9389  133.2246  150.8978 H   0  0  0  0  0  0  0  0  0  0  0  0
  144.2910  132.5390  151.7492 H   0  0  0  0  0  0  0  0  0  0  0  0
  146.6250  133.5218  151.0957 H   0  0  0  0  0  0  0  0  0  0  0  0
  146.5972  135.2656  151.1359 H   0  0  0  0  0  0  0  0  0  0  0  0
  145.5025  133.4504  153.3625 H   0  0  0  0  0  0  0  0  0  0  0  0
  146.9647  134.4132  153.4274 H   0  0  0  0  0  0  0  0  0  0  0  0
  143.3844  134.5920  153.2954 H   0  0  0  0  0  0  0  0  0  0  0  0
  142.2008  136.8644  153.0377 H   0  0  0  0  0  0  0  0  0  0  0  0
  142.9350  136.5605  154.5944 H   0  0  0  0  0  0  0  0  0  0  0  0
  143.6173  138.6158  152.7111 H   0  0  0  0  0  0  0  0  0  0  0  0
  145.0452  139.9404  153.0313 H   0  0  0  0  0  0  0  0  0  0  0  0
  149.2542  142.2922  154.9883 H   0  0  0  0  0  0  0  0  0  0  0  0
  144.3572  136.4625  151.0724 H   0  0  0  0  0  0  0  0  0  0  0  0
  142.8913  135.5256  151.0124 H   0  0  0  0  0  0  0  0  0  0  0  0
  144.8516  134.6221  149.8693 H   0  0  0  0  0  0  0  0  0  0  0  0
  1  2  1  0  0  0  0
  1 21  1  0  0  0  0
  1 22  1  0  0  0  0
  1 23  1  0  0  0  0
  2  3  1  0  0  0  0
  2  4  1  0  0  0  0
  2 24  1  0  0  0  0
  3 25  1  0  0  0  0
  3 26  1  0  0  0  0
  3 27  1  0  0  0  0
  4  5  1  0  0  0  0
  4 28  1  0  0  0  0
  4 29  1  0  0  0  0
  5 20  1  0  0  0  0
  5  6  1  0  0  0  0
  5 42  1  0  0  0  0
  6  7  1  0  0  0  0
  6 30  1  0  0  0  0
  6 31  1  0  0  0  0
  7  8  1  0  0  0  0
  7 32  1  0  0  0  0
  7 33  1  0  0  0  0
  8  9  1  0  0  0  0
  9 10  1  0  0  0  0
  9 20  1  0  0  0  0
  9 34  1  0  0  0  0
 10 11  1  0  0  0  0
 10 35  1  0  0  0  0
 10 36  1  0  0  0  0
 11 12  1  0  0  0  0
 11 37  1  0  0  0  0
 12 13  2  0  0  0  0
 12 14  1  0  0  0  0
 14 15  1  0  0  0  0
 14 38  1  0  0  0  0
 15 19  1  0  0  0  0
 15 16  2  0  0  0  0
 16 17  1  0  0  0  0
 17 18  2  0  0  0  0
 18 19  1  0  0  0  0
 18 39  1  0  0  0  0
 20 40  1  0  0  0  0
 20 41  1  0  0  0  0
M  CHG  1   5   1
M  END
> <s_m_source_file>
AV-unprocessed.smi

> <i_m_source_file_index>
2021

> <i_lp_mmshare_version>
43012

> <i_f3d_flags>
0

> <s_epik_input>
W0NIM11bQ0hdKFtDSDNdKVtDSDJdTjFbQ0gyXVtDSDJdT1tDQEhdKFtDSDJdMSlbQ0gyXVtOSF1DKD1PKVtOSF1jMm5uW2NIXXMy

> <s_epik_cmdline>
J2VwaWtfcHl0aG9uJywgJy1waCcsICc3LjAnLCAnLXRuJywgJzgnLCAnLW1hJywgJzIwMCcsICctbWV0YWxfYmluZGluZycsICctaW1hZScsICc8aW5maWxlLm1hZT4nLCAnLW9tYWUnLCAnPG91dGZpbGUubWFlPic=

> <r_lp_tautomer_probability>
1

> <r_epik_Ionization_Penalty>
0.102019

> <r_epik_Ionization_Penalty_Charging>
0.098413

> <r_epik_Ionization_Penalty_Neutral>
0.00360555

> <r_epik_State_Penalty>
0.0884988

> <r_epik_Charging_Adjusted_Penalty>
0.186912

> <i_epik_Tot_Q>
1

> <i_epik_Tot_abs_Q>
1

> <r_epik_Metal_State_Penalty>
0.454709

> <b_epik_Metal_Only>
0

> <s_lp_Force_Field>
OPLS_2005

> <r_lp_Energy>
18.1157

> <b_lp_Chiralities_Consistent>
1

> <s_lp_Variant>
AV-unprocessed.smi:2021-2

> <Gold.Version>
5.8.1

> <Gold.Id.Protein>
6NUR|6NUR_protein|mol2

> <Gold.PLP.Fitness>
39.5587

> <Gold.PLP.PLP>
-32.4684

> <Gold.PLP.part.hbond>
-1.9188

> <Gold.PLP.part.metal>
0.0000

> <Gold.PLP.part.buried>
-4.5859

> <Gold.PLP.part.nonpolar>
-26.8416

> <Gold.PLP.part.repulsive>
0.2603

> <Gold.PLP.ligand.clash>
0.0000

> <Gold.PLP.ligand.torsion>
0.5936

> <Gold.PLP.Chemscore.Hbond>
1.7840

> <Gold.PLP.Chemscore.CHOScore>
0.9470

> <Gold.PLP.Chemscore.Metal>
0.0000

> <Gold.Chemscore.Hbonds>
donor molecule, donor type, donor heavy atom, donor atom, acceptor molecule, acceptor atom, score
      L1  H    11    37       P1 10175  0.77
      L1  H    14    38       P1 10175  0.99
      L1  C    18    39       P1  8028  0.96

> <Gold.PLP.Chemscore.Internal.Correction>
0.0844

> <Gold.Rescore>
     Score         DG    S(hbond)    S(metal)    S(lipo)     H(rot)  DE(clash)    DE(int)     intcor
     10.59     -15.37       1.76        0.00      75.29       1.88       0.08       4.70       ----

> <Gold.Chemscore.Fitness>
10.5899

> <Gold.Chemscore.DG>
-15.3666

> <Gold.Chemscore.ZeroCoef>
-5.4800

> <Gold.Chemscore.Hbond>
1.7647

> <Gold.Chemscore.Metal>
0.0000

> <Gold.Chemscore.Lipo>
75.2859

> <Gold.Chemscore.Internal_Hbond>
0.0000

> <Gold.Chemscore.DEClash>
0.0816

> <Gold.Chemscore.DEInternal>
4.6952

> <Gold.Chemscore.Rot>
1.8812

> <Gold.Chemscore.Internal.Correction>
   9.000000E+99

> <Gold.Chemscore.Hbonds>
donor molecule, donor type, donor heavy atom, donor atom, acceptor molecule, acceptor atom, score
      L1  H    11    37       P1 10175  0.78
      L1  H    14    38       P1 10175  0.91

> <Gold.Chemscore.Hbond.Weighted>
-5.8941

> <Gold.Chemscore.Metal.Weighted>
-0.0000

> <Gold.Chemscore.Lipo.Weighted>
-8.8085

> <Gold.Chemscore.Internal_Hbond.Weighted>
0.0000

> <Gold.Chemscore.DEClash.Weighted>
0.0816

> <Gold.Chemscore.DEInternal.Weighted>
4.6952

> <Gold.Chemscore.Rot.Weighted>
4.8159

> <Gold.Chemscore.Internal.Correction.Weighted>
   9.000000E+99

> <Gold.Protein.RotatedTorsions>
[ 6907 6896 6895 6894 ] final  122.38 input  -60.11 | X-H torsion
[ 7974 7965 7964 7962 ] final  -12.35 input  175.53 | X-H torsion
[ 8008 7997 7996 7995 ] final   30.03 input   59.86 | X-H torsion
[ 10167 10162 10161 10158 ] final  -90.87 input  -65.29 | X-H torsion
[ 10718 10713 10712 10709 ] final -149.43 input   66.30 | X-H torsion
[ 10763 10752 10751 10750 ] final -178.09 input  -60.55 | X-H torsion
[ 11005 11000 10999 10996 ] final   18.33 input  -57.11 | X-H torsion

> <Gold.Protein.ActiveResidues>
 VAL166  LYS551  ARG553  GLY616  TRP617  ASP618  TYR619  PRO620  LYS621  CYS622 
 ASP623  PHE694  ASN695  SER759  ASP760  ASP761  ALA762  ILE779  LEU786  VAL792 
 PHE793  MET794  SER795  GLU796  ALA797  LYS798  CYS799  TRP800  GLU811  SER814 

> <Gold.Protein.RotatedAtoms>
  152.4248  133.7176  159.6514 H   0  0  0  0  0  0  0  0  0  0  0  0  # atno 6907 bound_to 6896
  150.8124  133.8387  159.3182 H   0  0  0  0  0  0  0  0  0  0  0  0  # atno 6908 bound_to 6896
  151.6093  135.1043  160.0129 H   0  0  0  0  0  0  0  0  0  0  0  0  # atno 6909 bound_to 6896
  146.2155  140.3045  142.8377 H   0  0  0  0  0  0  0  0  0  0  0  0  # atno 7974 bound_to 7965
  155.0840  140.3213  155.4593 H   0  0  0  0  0  0  0  0  0  0  0  0  # atno 8008 bound_to 7997
  156.2760  140.2090  156.5913 H   0  0  0  0  0  0  0  0  0  0  0  0  # atno 8009 bound_to 7997
  154.6956  140.0512  157.0394 H   0  0  0  0  0  0  0  0  0  0  0  0  # atno 8010 bound_to 7997
  140.3506  143.2893  151.9731 H   0  0  0  0  0  0  0  0  0  0  0  0  # atno 10167 bound_to 10162
  156.4330  130.8085  151.2312 H   0  0  0  0  0  0  0  0  0  0  0  0  # atno 10718 bound_to 10713
  154.5521  135.2813  155.0999 H   0  0  0  0  0  0  0  0  0  0  0  0  # atno 10763 bound_to 10752
  154.2441  135.6351  153.5221 H   0  0  0  0  0  0  0  0  0  0  0  0  # atno 10764 bound_to 10752
  153.0005  135.5567  154.6090 H   0  0  0  0  0  0  0  0  0  0  0  0  # atno 10765 bound_to 10752
  140.4260  134.1469  155.7676 H   0  0  0  0  0  0  0  0  0  0  0  0  # atno 11005 bound_to 11000
  144.9033  140.7669  143.5853 LP  0  0  0  0  0  0  0  0  0  0  0  0  # atno 17320 bound_to 7965
  145.2972  139.1863  143.4709 LP  0  0  0  0  0  0  0  0  0  0  0  0  # atno 17321 bound_to 7965
  139.4827  144.6079  151.7487 LP  0  0  0  0  0  0  0  0  0  0  0  0  # atno 17342 bound_to 10162
  140.5223  144.0860  150.6026 LP  0  0  0  0  0  0  0  0  0  0  0  0  # atno 17343 bound_to 10162
  157.7508  131.0192  150.3658 LP  0  0  0  0  0  0  0  0  0  0  0  0  # atno 17370 bound_to 10713
  156.3999  130.3914  149.6967 LP  0  0  0  0  0  0  0  0  0  0  0  0  # atno 17371 bound_to 10713
  141.1765  133.8504  157.1404 LP  0  0  0  0  0  0  0  0  0  0  0  0  # atno 17394 bound_to 11000
  140.0167  134.9964  157.0507 LP  0  0  0  0  0  0  0  0  0  0  0  0  # atno 17395 bound_to 11000

$$$$
