AV-unprocessed.smi:2167|AV-procd|sdf|8816|dock1
  -GOLD-   2272012 03D 1   1.00000     0.00000
 Structure written by MMmdl.
 41 42  0  0  0  0  0  0  0  0  1 V2000
  152.2201  144.4457  157.9263 C   0  0  0  0  0  0  0  0  0  0  0  0
  151.7691  143.9486  159.3073 C   0  0  0  0  0  0  0  0  0  0  0  0
  151.8965  145.0154  160.4041 C   0  0  0  0  0  0  0  0  0  0  0  0
  152.4397  142.6670  159.6899 C   0  0  0  0  0  0  0  0  0  0  0  0
  152.3852  141.5530  158.9535 N   0  0  0  0  0  0  0  0  0  0  0  0
  153.0999  140.4928  159.5209 C   0  0  0  0  0  0  0  0  0  0  0  0
  153.1526  139.1649  158.8238 C   0  0  0  0  0  0  0  0  0  0  0  0
  152.3310  139.2129  157.5353 C   0  0  0  0  0  0  0  0  0  0  0  0
  152.7708  139.7975  156.5452 O   0  0  0  0  0  0  0  0  0  0  0  0
  151.1400  138.5920  157.5610 N   0  0  0  0  0  0  0  0  0  0  0  0
  150.1981  138.5090  156.4427 C   0  0  2  0  0  0  0  0  0  0  0  0
  148.9448  137.7553  156.9441 C   0  0  0  0  0  0  0  0  0  0  0  0
  147.6783  138.0392  156.1178 C   0  0  0  0  0  0  0  0  0  0  0  0
  147.7293  137.5512  154.6618 C   0  0  0  0  0  0  0  0  0  0  0  0
  148.8276  138.2241  153.8207 C   0  0  0  0  0  0  0  0  0  0  0  0
  150.1473  137.6723  154.0978 N   0  0  0  0  0  0  0  0  0  0  0  0
  150.8185  137.7316  155.2580 C   0  0  0  0  0  0  0  0  0  0  0  0
  151.9082  137.1711  155.3744 O   0  0  0  0  0  0  0  0  0  0  0  0
  153.6940  140.8204  160.7144 C   0  0  0  0  0  0  0  0  0  0  0  0
  153.3858  142.4754  161.1620 S   0  0  0  0  0  0  0  0  0  0  0  0
  152.0302  143.6950  157.1584 H   0  0  0  0  0  0  0  0  0  0  0  0
  153.2869  144.6718  157.9147 H   0  0  0  0  0  0  0  0  0  0  0  0
  151.6856  145.3521  157.6412 H   0  0  0  0  0  0  0  0  0  0  0  0
  150.7052  143.7236  159.2202 H   0  0  0  0  0  0  0  0  0  0  0  0
  151.4892  144.6563  161.3496 H   0  0  0  0  0  0  0  0  0  0  0  0
  151.3552  145.9227  160.1347 H   0  0  0  0  0  0  0  0  0  0  0  0
  152.9389  145.2884  160.5726 H   0  0  0  0  0  0  0  0  0  0  0  0
  154.1829  138.8990  158.5833 H   0  0  0  0  0  0  0  0  0  0  0  0
  152.7728  138.3698  159.4671 H   0  0  0  0  0  0  0  0  0  0  0  0
  150.8653  138.1369  158.4195 H   0  0  0  0  0  0  0  0  0  0  0  0
  149.9293  139.5194  156.1293 H   0  0  0  0  0  0  0  0  0  0  0  0
  149.1285  136.6805  156.9961 H   0  0  0  0  0  0  0  0  0  0  0  0
  148.7316  138.0630  157.9694 H   0  0  0  0  0  0  0  0  0  0  0  0
  146.8295  137.5643  156.6110 H   0  0  0  0  0  0  0  0  0  0  0  0
  147.4685  139.1095  156.1341 H   0  0  0  0  0  0  0  0  0  0  0  0
  147.8424  136.4668  154.6307 H   0  0  0  0  0  0  0  0  0  0  0  0
  146.7643  137.7636  154.2007 H   0  0  0  0  0  0  0  0  0  0  0  0
  148.6247  138.0516  152.7636 H   0  0  0  0  0  0  0  0  0  0  0  0
  148.8271  139.3060  153.9603 H   0  0  0  0  0  0  0  0  0  0  0  0
  150.5864  137.1681  153.3410 H   0  0  0  0  0  0  0  0  0  0  0  0
  154.2966  140.1908  161.3523 H   0  0  0  0  0  0  0  0  0  0  0  0
  1  2  1  0  0  0  0
  1 21  1  0  0  0  0
  1 22  1  0  0  0  0
  1 23  1  0  0  0  0
  2  3  1  0  0  0  0
  2  4  1  0  0  0  0
  2 24  1  0  0  0  0
  3 25  1  0  0  0  0
  3 26  1  0  0  0  0
  3 27  1  0  0  0  0
  4 20  1  0  0  0  0
  4  5  2  0  0  0  0
  5  6  1  0  0  0  0
  6  7  1  0  0  0  0
  6 19  2  0  0  0  0
  7  8  1  0  0  0  0
  7 28  1  0  0  0  0
  7 29  1  0  0  0  0
  8  9  2  0  0  0  0
  8 10  1  0  0  0  0
 10 11  1  0  0  0  0
 10 30  1  0  0  0  0
 11 17  1  0  0  0  0
 11 12  1  0  0  0  0
 11 31  1  0  0  0  0
 12 13  1  0  0  0  0
 12 32  1  0  0  0  0
 12 33  1  0  0  0  0
 13 14  1  0  0  0  0
 13 34  1  0  0  0  0
 13 35  1  0  0  0  0
 14 15  1  0  0  0  0
 14 36  1  0  0  0  0
 14 37  1  0  0  0  0
 15 16  1  0  0  0  0
 15 38  1  0  0  0  0
 15 39  1  0  0  0  0
 16 17  1  0  0  0  0
 16 40  1  0  0  0  0
 17 18  2  0  0  0  0
 19 20  1  0  0  0  0
 19 41  1  0  0  0  0
M  END
> <s_m_source_file>
AV-unprocessed.smi

> <i_m_source_file_index>
2167

> <i_lp_mmshare_version>
43012

> <i_f3d_flags>
0

> <s_epik_input>
W0NIM11bQ0hdKFtDSDNdKWMxbmMoW2NIXXMxKVtDSDJdQyg9TylbTkhdW0NAQEhdMltDSDJdW0NIMl1bQ0gyXVtDSDJdW05IXUMyPU8=

> <s_epik_cmdline>
J2VwaWtfcHl0aG9uJywgJy1waCcsICc3LjAnLCAnLXRuJywgJzgnLCAnLW1hJywgJzIwMCcsICctbWV0YWxfYmluZGluZycsICctaW1hZScsICc8aW5maWxlLm1hZT4nLCAnLW9tYWUnLCAnPG91dGZpbGUubWFlPic=

> <r_lp_tautomer_probability>
1

> <r_epik_Ionization_Penalty>
3.1619e-05

> <r_epik_Ionization_Penalty_Charging>
0

> <r_epik_Ionization_Penalty_Neutral>
3.1619e-05

> <r_epik_State_Penalty>
-0

> <r_epik_Charging_Adjusted_Penalty>
0

> <i_epik_Tot_Q>
0

> <i_epik_Tot_abs_Q>
0

> <r_epik_Metal_State_Penalty>
-0

> <b_epik_Metal_Only>
0

> <s_lp_Force_Field>
OPLS_2005

> <r_lp_Energy>
2.42102

> <b_lp_Chiralities_Consistent>
1

> <s_lp_Variant>
AV-unprocessed.smi:2167-1

> <Gold.Version>
5.8.1

> <Gold.Id.Protein>
6NUR|6NUR_protein|mol2

> <Gold.PLP.Fitness>
39.8945

> <Gold.PLP.PLP>
-33.6789

> <Gold.PLP.part.hbond>
-3.2151

> <Gold.PLP.part.metal>
0.0000

> <Gold.PLP.part.buried>
-1.1778

> <Gold.PLP.part.nonpolar>
-29.3261

> <Gold.PLP.part.repulsive>
0.1377

> <Gold.PLP.ligand.clash>
0.0000

> <Gold.PLP.ligand.torsion>
0.2389

> <Gold.PLP.Chemscore.Hbond>
2.1994

> <Gold.PLP.Chemscore.CHOScore>
0.0000

> <Gold.PLP.Chemscore.Metal>
0.0000

> <Gold.Chemscore.Hbonds>
donor molecule, donor type, donor heavy atom, donor atom, acceptor molecule, acceptor atom, score
      L1  H    16    40       P1  7949  0.22
      P1  H  7997  8009       L1     9  1.00
      P1  H 10752 10763       L1    18  0.98

> <Gold.PLP.Chemscore.Internal.Correction>
0.0951

> <Gold.Rescore>
     Score         DG    S(hbond)    S(metal)    S(lipo)     H(rot)  DE(clash)    DE(int)     intcor
     16.57     -19.17       1.97        0.00      95.25       1.57       1.37       1.24       ----

> <Gold.Chemscore.Fitness>
16.5661

> <Gold.Chemscore.DG>
-19.1736

> <Gold.Chemscore.ZeroCoef>
-5.4800

> <Gold.Chemscore.Hbond>
1.9690

> <Gold.Chemscore.Metal>
0.0000

> <Gold.Chemscore.Lipo>
95.2528

> <Gold.Chemscore.Internal_Hbond>
0.0000

> <Gold.Chemscore.DEClash>
1.3658

> <Gold.Chemscore.DEInternal>
1.2418

> <Gold.Chemscore.Rot>
1.5733

> <Gold.Chemscore.Internal.Correction>
   9.000000E+99

> <Gold.Chemscore.Hbonds>
donor molecule, donor type, donor heavy atom, donor atom, acceptor molecule, acceptor atom, score
      L1  H    16    40       P1  7949  0.01
      P1  H  7997  8009       L1     9  0.97
      P1  H 10752 10763       L1    18  0.86

> <Gold.Chemscore.Hbond.Weighted>
-6.5766

> <Gold.Chemscore.Metal.Weighted>
-0.0000

> <Gold.Chemscore.Lipo.Weighted>
-11.1446

> <Gold.Chemscore.Internal_Hbond.Weighted>
0.0000

> <Gold.Chemscore.DEClash.Weighted>
1.3658

> <Gold.Chemscore.DEInternal.Weighted>
1.2418

> <Gold.Chemscore.Rot.Weighted>
4.0276

> <Gold.Chemscore.Internal.Correction.Weighted>
   9.000000E+99

> <Gold.Protein.RotatedTorsions>
[ 6907 6896 6895 6894 ] final -163.99 input  -60.11 | X-H torsion
[ 7974 7965 7964 7962 ] final -129.39 input  175.53 | X-H torsion
[ 8008 7997 7996 7995 ] final -165.25 input   59.86 | X-H torsion
[ 10167 10162 10161 10158 ] final   67.83 input  -65.29 | X-H torsion
[ 10718 10713 10712 10709 ] final  162.69 input   66.30 | X-H torsion
[ 10763 10752 10751 10750 ] final   63.27 input  -60.55 | X-H torsion
[ 11005 11000 10999 10996 ] final   71.35 input  -57.11 | X-H torsion

> <Gold.Protein.ActiveResidues>
 VAL166  LYS551  ARG553  GLY616  TRP617  ASP618  TYR619  PRO620  LYS621  CYS622 
 ASP623  PHE694  ASN695  SER759  ASP760  ASP761  ALA762  ILE779  LEU786  VAL792 
 PHE793  MET794  SER795  GLU796  ALA797  LYS798  CYS799  TRP800  GLU811  SER814 

> <Gold.Protein.RotatedAtoms>
  151.4047  133.3746  159.2736 H   0  0  0  0  0  0  0  0  0  0  0  0  # atno 6907 bound_to 6896
  150.9407  134.8817  159.7621 H   0  0  0  0  0  0  0  0  0  0  0  0  # atno 6908 bound_to 6896
  152.5070  134.3998  159.9464 H   0  0  0  0  0  0  0  0  0  0  0  0  # atno 6909 bound_to 6896
  144.9576  140.7412  143.4749 H   0  0  0  0  0  0  0  0  0  0  0  0  # atno 7974 bound_to 7965
  155.8471  140.0957  157.1698 H   0  0  0  0  0  0  0  0  0  0  0  0  # atno 8008 bound_to 7997
  154.3984  140.1390  156.3861 H   0  0  0  0  0  0  0  0  0  0  0  0  # atno 8009 bound_to 7997
  155.8001  140.3453  155.5400 H   0  0  0  0  0  0  0  0  0  0  0  0  # atno 8010 bound_to 7997
  140.0852  144.5036  150.7135 H   0  0  0  0  0  0  0  0  0  0  0  0  # atno 10167 bound_to 10162
  157.1189  131.0487  151.2424 H   0  0  0  0  0  0  0  0  0  0  0  0  # atno 10718 bound_to 10713
  153.0012  135.5435  154.6325 H   0  0  0  0  0  0  0  0  0  0  0  0  # atno 10763 bound_to 10752
  154.5599  135.2833  155.0931 H   0  0  0  0  0  0  0  0  0  0  0  0  # atno 10764 bound_to 10752
  154.2138  135.6463  153.5176 H   0  0  0  0  0  0  0  0  0  0  0  0  # atno 10765 bound_to 10752
  139.9548  134.7163  156.0778 H   0  0  0  0  0  0  0  0  0  0  0  0  # atno 11005 bound_to 11000
  145.2748  139.1940  143.4822 LP  0  0  0  0  0  0  0  0  0  0  0  0  # atno 17320 bound_to 7965
  146.3342  140.2701  142.8605 LP  0  0  0  0  0  0  0  0  0  0  0  0  # atno 17321 bound_to 7965
  140.7057  143.2466  151.4733 LP  0  0  0  0  0  0  0  0  0  0  0  0  # atno 17342 bound_to 10162
  139.5756  144.1827  152.1898 LP  0  0  0  0  0  0  0  0  0  0  0  0  # atno 17343 bound_to 10162
  157.4493  130.7589  149.7137 LP  0  0  0  0  0  0  0  0  0  0  0  0  # atno 17370 bound_to 10713
  155.9833  130.4002  150.3371 LP  0  0  0  0  0  0  0  0  0  0  0  0  # atno 17371 bound_to 10713
  141.1217  133.6611  156.3233 LP  0  0  0  0  0  0  0  0  0  0  0  0  # atno 17394 bound_to 11000
  140.5635  134.5911  157.5439 LP  0  0  0  0  0  0  0  0  0  0  0  0  # atno 17395 bound_to 11000

$$$$
