AV-unprocessed.smi:2133|AV-procd|sdf|8693|dock9
  -GOLD-   2272011453D 1   1.00000     0.00000
 Structure written by MMmdl.
 45 47  0  0  0  0  0  0  0  0  1 V2000
  151.7598  137.7540  154.8329 C   0  0  0  0  0  0  0  0  0  0  0  0
  150.9199  138.9619  154.9337 N   0  0  0  0  0  0  0  0  0  0  0  0
  149.7673  139.0139  154.1947 C   0  0  0  0  0  0  0  0  0  0  0  0
  149.3608  138.1154  153.4571 O   0  0  0  0  0  0  0  0  0  0  0  0
  149.0204  140.2656  154.3479 C   0  0  0  0  0  0  0  0  0  0  0  0
  149.4114  141.2635  155.1778 C   0  0  0  0  0  0  0  0  0  0  0  0
  148.5213  142.3311  155.1375 N   0  0  0  0  0  0  0  0  0  0  0  0
  147.6141  141.9039  154.2590 C   0  0  0  0  0  0  0  0  0  0  0  0
  147.8453  140.6856  153.7282 N   0  0  0  0  0  0  0  0  0  0  0  0
  147.0225  140.0072  152.7375 C   0  0  0  0  0  0  0  0  0  0  0  0
  146.3381  138.7328  153.2803 C   0  0  1  0  0  0  0  0  0  0  0  0
  145.4098  139.0744  154.2882 O   0  0  0  0  0  0  0  0  0  0  0  0
  145.6516  137.8456  152.2247 C   0  0  0  0  0  0  0  0  0  0  0  0
  145.6295  136.4939  152.6547 O   0  0  0  0  0  0  0  0  0  0  0  0
  144.3792  135.8667  152.4268 C   0  0  0  0  0  0  0  0  0  0  0  0
  144.5491  134.5494  151.6990 C   0  0  0  0  0  0  0  0  0  0  0  0
  145.8256  134.1388  151.2611 C   0  0  0  0  0  0  0  0  0  0  0  0
  145.9803  132.9127  150.5852 C   0  0  0  0  0  0  0  0  0  0  0  0
  144.8604  132.0918  150.3488 C   0  0  0  0  0  0  0  0  0  0  0  0
  143.5850  132.4983  150.7866 C   0  0  0  0  0  0  0  0  0  0  0  0
  143.4293  133.7256  151.4599 C   0  0  0  0  0  0  0  0  0  0  0  0
  150.6055  141.0921  155.9245 N   0  0  0  0  0  0  0  0  0  0  0  0
  151.0368  142.1655  156.8248 C   0  0  0  0  0  0  0  0  0  0  0  0
  151.3654  139.9569  155.7872 C   0  0  0  0  0  0  0  0  0  0  0  0
  152.4215  139.8338  156.4145 O   0  0  0  0  0  0  0  0  0  0  0  0
  151.4278  137.0258  154.0922 H   0  0  0  0  0  0  0  0  0  0  0  0
  151.7906  137.2360  155.7927 H   0  0  0  0  0  0  0  0  0  0  0  0
  152.7834  138.0174  154.5609 H   0  0  0  0  0  0  0  0  0  0  0  0
  146.7585  142.5023  153.9818 H   0  0  0  0  0  0  0  0  0  0  0  0
  146.2830  140.7085  152.3503 H   0  0  0  0  0  0  0  0  0  0  0  0
  147.6642  139.7476  151.8939 H   0  0  0  0  0  0  0  0  0  0  0  0
  147.0915  138.1180  153.7720 H   0  0  0  0  0  0  0  0  0  0  0  0
  144.6608  139.4825  153.8815 H   0  0  0  0  0  0  0  0  0  0  0  0
  144.6258  138.1916  152.0865 H   0  0  0  0  0  0  0  0  0  0  0  0
  146.1483  137.9352  151.2572 H   0  0  0  0  0  0  0  0  0  0  0  0
  143.8766  135.6784  153.3772 H   0  0  0  0  0  0  0  0  0  0  0  0
  143.7313  136.5251  151.8459 H   0  0  0  0  0  0  0  0  0  0  0  0
  146.6888  134.7623  151.4423 H   0  0  0  0  0  0  0  0  0  0  0  0
  146.9584  132.6016  150.2491 H   0  0  0  0  0  0  0  0  0  0  0  0
  144.9798  131.1511  149.8319 H   0  0  0  0  0  0  0  0  0  0  0  0
  142.7261  131.8689  150.6055 H   0  0  0  0  0  0  0  0  0  0  0  0
  142.4485  134.0331  151.7920 H   0  0  0  0  0  0  0  0  0  0  0  0
  151.3582  141.7707  157.7900 H   0  0  0  0  0  0  0  0  0  0  0  0
  150.2402  142.8806  157.0292 H   0  0  0  0  0  0  0  0  0  0  0  0
  151.8707  142.7135  156.3851 H   0  0  0  0  0  0  0  0  0  0  0  0
  1  2  1  0  0  0  0
  1 26  1  0  0  0  0
  1 27  1  0  0  0  0
  1 28  1  0  0  0  0
  2 24  1  0  0  0  0
  2  3  1  0  0  0  0
  3  4  2  0  0  0  0
  3  5  1  0  0  0  0
  5  9  1  0  0  0  0
  5  6  2  0  0  0  0
  6  7  1  0  0  0  0
  6 22  1  0  0  0  0
  7  8  2  0  0  0  0
  8  9  1  0  0  0  0
  8 29  1  0  0  0  0
  9 10  1  0  0  0  0
 10 11  1  0  0  0  0
 10 30  1  0  0  0  0
 10 31  1  0  0  0  0
 11 12  1  0  0  0  0
 11 13  1  0  0  0  0
 11 32  1  0  0  0  0
 12 33  1  0  0  0  0
 13 14  1  0  0  0  0
 13 34  1  0  0  0  0
 13 35  1  0  0  0  0
 14 15  1  0  0  0  0
 15 16  1  0  0  0  0
 15 36  1  0  0  0  0
 15 37  1  0  0  0  0
 16 21  1  0  0  0  0
 16 17  2  0  0  0  0
 17 18  1  0  0  0  0
 17 38  1  0  0  0  0
 18 19  2  0  0  0  0
 18 39  1  0  0  0  0
 19 20  1  0  0  0  0
 19 40  1  0  0  0  0
 20 21  2  0  0  0  0
 20 41  1  0  0  0  0
 21 42  1  0  0  0  0
 22 23  1  0  0  0  0
 22 24  1  0  0  0  0
 23 43  1  0  0  0  0
 23 44  1  0  0  0  0
 23 45  1  0  0  0  0
 24 25  2  0  0  0  0
M  END
> <s_m_source_file>
AV-unprocessed.smi

> <i_m_source_file_index>
2133

> <i_lp_mmshare_version>
43012

> <i_f3d_flags>
0

> <s_epik_input>
Tz1jMW4oW0NIM10pYyg9TyluKFtDSDNdKWMoYzEyKW5bY0hdbjJbQ0gyXVtDQEhdKFtPSF0pW0NIMl1PW0NIMl1jM1tjSF1bY0hdW2NIXVtjSF1bY0hdMw==

> <s_epik_cmdline>
J2VwaWtfcHl0aG9uJywgJy1waCcsICc3LjAnLCAnLXRuJywgJzgnLCAnLW1hJywgJzIwMCcsICctbWV0YWxfYmluZGluZycsICctaW1hZScsICc8aW5maWxlLm1hZT4nLCAnLW9tYWUnLCAnPG91dGZpbGUubWFlPic=

> <r_lp_tautomer_probability>
1

> <r_epik_Ionization_Penalty>
1.52174e-06

> <r_epik_Ionization_Penalty_Charging>
3.83535e-09

> <r_epik_Ionization_Penalty_Neutral>
1.5179e-06

> <r_epik_State_Penalty>
-0

> <r_epik_Charging_Adjusted_Penalty>
3.83535e-09

> <i_epik_Tot_Q>
0

> <i_epik_Tot_abs_Q>
0

> <r_epik_Metal_State_Penalty>
-0

> <b_epik_Metal_Only>
0

> <s_lp_Force_Field>
OPLS_2005

> <r_lp_Energy>
39.5783

> <b_lp_Chiralities_Consistent>
1

> <s_lp_Variant>
AV-unprocessed.smi:2133-2

> <Gold.Version>
5.8.1

> <Gold.Id.Protein>
6NUR|6NUR_protein|mol2

> <Gold.PLP.Fitness>
48.5777

> <Gold.PLP.PLP>
-44.5847

> <Gold.PLP.part.hbond>
-2.0000

> <Gold.PLP.part.metal>
0.0000

> <Gold.PLP.part.buried>
-4.3053

> <Gold.PLP.part.nonpolar>
-49.2418

> <Gold.PLP.part.repulsive>
9.4183

> <Gold.PLP.ligand.clash>
0.0000

> <Gold.PLP.ligand.torsion>
1.0391

> <Gold.PLP.Chemscore.Hbond>
2.0000

> <Gold.PLP.Chemscore.CHOScore>
0.0000

> <Gold.PLP.Chemscore.Metal>
0.0000

> <Gold.Chemscore.Hbonds>
donor molecule, donor type, donor heavy atom, donor atom, acceptor molecule, acceptor atom, score
      L1  H    12    33       P1 10175  1.00
      P1  H  7997  8010       L1    25  1.00

> <Gold.PLP.Chemscore.Internal.Correction>
0.0712

> <Gold.Rescore>
     Score         DG    S(hbond)    S(metal)    S(lipo)     H(rot)  DE(clash)    DE(int)     intcor
      9.88     -15.64       1.98        0.00      94.18       2.91       4.78       0.99       ----

> <Gold.Chemscore.Fitness>
9.8770

> <Gold.Chemscore.DG>
-15.6448

> <Gold.Chemscore.ZeroCoef>
-5.4800

> <Gold.Chemscore.Hbond>
1.9770

> <Gold.Chemscore.Metal>
0.0000

> <Gold.Chemscore.Lipo>
94.1826

> <Gold.Chemscore.Internal_Hbond>
0.0000

> <Gold.Chemscore.DEClash>
4.7805

> <Gold.Chemscore.DEInternal>
0.9873

> <Gold.Chemscore.Rot>
2.9132

> <Gold.Chemscore.Internal.Correction>
   9.000000E+99

> <Gold.Chemscore.Hbonds>
donor molecule, donor type, donor heavy atom, donor atom, acceptor molecule, acceptor atom, score
      L1  H    12    33       P1 10175  0.97
      P1  H  7997  8010       L1    25  0.99

> <Gold.Chemscore.Hbond.Weighted>
-6.6032

> <Gold.Chemscore.Metal.Weighted>
-0.0000

> <Gold.Chemscore.Lipo.Weighted>
-11.0194

> <Gold.Chemscore.Internal_Hbond.Weighted>
0.0000

> <Gold.Chemscore.DEClash.Weighted>
4.7805

> <Gold.Chemscore.DEInternal.Weighted>
0.9873

> <Gold.Chemscore.Rot.Weighted>
7.4578

> <Gold.Chemscore.Internal.Correction.Weighted>
   9.000000E+99

> <Gold.Protein.RotatedTorsions>
[ 6907 6896 6895 6894 ] final  126.72 input  -60.11 | X-H torsion
[ 7974 7965 7964 7962 ] final -105.51 input  175.53 | X-H torsion
[ 8008 7997 7996 7995 ] final   68.22 input   59.86 | X-H torsion
[ 10167 10162 10161 10158 ] final -116.92 input  -65.29 | X-H torsion
[ 10718 10713 10712 10709 ] final -116.76 input   66.30 | X-H torsion
[ 10763 10752 10751 10750 ] final -176.01 input  -60.55 | X-H torsion
[ 11005 11000 10999 10996 ] final  -57.24 input  -57.11 | X-H torsion

> <Gold.Protein.ActiveResidues>
 VAL166  LYS551  ARG553  GLY616  TRP617  ASP618  TYR619  PRO620  LYS621  CYS622 
 ASP623  PHE694  ASN695  SER759  ASP760  ASP761  ALA762  ILE779  LEU786  VAL792 
 PHE793  MET794  SER795  GLU796  ALA797  LYS798  CYS799  TRP800  GLU811  SER814 

> <Gold.Protein.RotatedAtoms>
  152.3878  133.6635  159.6212 H   0  0  0  0  0  0  0  0  0  0  0  0  # atno 6907 bound_to 6896
  150.7793  133.9006  159.3349 H   0  0  0  0  0  0  0  0  0  0  0  0  # atno 6908 bound_to 6896
  151.6799  135.0965  160.0265 H   0  0  0  0  0  0  0  0  0  0  0  0  # atno 6909 bound_to 6896
  145.2295  140.9165  143.3213 H   0  0  0  0  0  0  0  0  0  0  0  0  # atno 7974 bound_to 7965
  155.7050  140.3495  155.4949 H   0  0  0  0  0  0  0  0  0  0  0  0  # atno 8008 bound_to 7997
  155.9406  140.1101  157.1080 H   0  0  0  0  0  0  0  0  0  0  0  0  # atno 8009 bound_to 7997
  154.4102  140.1213  156.4909 H   0  0  0  0  0  0  0  0  0  0  0  0  # atno 8010 bound_to 7997
  140.0740  143.4850  152.1964 H   0  0  0  0  0  0  0  0  0  0  0  0  # atno 10167 bound_to 10162
  156.0986  130.6153  150.9078 H   0  0  0  0  0  0  0  0  0  0  0  0  # atno 10718 bound_to 10713
  154.5775  135.2833  155.0766 H   0  0  0  0  0  0  0  0  0  0  0  0  # atno 10763 bound_to 10752
  154.2115  135.6407  153.5120 H   0  0  0  0  0  0  0  0  0  0  0  0  # atno 10764 bound_to 10752
  153.0077  135.5493  154.6418 H   0  0  0  0  0  0  0  0  0  0  0  0  # atno 10765 bound_to 10752
  141.1156  133.6610  156.4740 H   0  0  0  0  0  0  0  0  0  0  0  0  # atno 11005 bound_to 11000
  144.9690  139.3900  143.6318 LP  0  0  0  0  0  0  0  0  0  0  0  0  # atno 17320 bound_to 7965
  146.3356  139.8778  142.8829 LP  0  0  0  0  0  0  0  0  0  0  0  0  # atno 17321 bound_to 7965
  139.5819  144.7514  151.3619 LP  0  0  0  0  0  0  0  0  0  0  0  0  # atno 17342 bound_to 10162
  140.7111  143.7387  150.7569 LP  0  0  0  0  0  0  0  0  0  0  0  0  # atno 17343 bound_to 10162
  157.6152  131.0934  150.8723 LP  0  0  0  0  0  0  0  0  0  0  0  0  # atno 17370 bound_to 10713
  156.8855  130.5194  149.5288 LP  0  0  0  0  0  0  0  0  0  0  0  0  # atno 17371 bound_to 10713
  140.4655  134.6802  157.5105 LP  0  0  0  0  0  0  0  0  0  0  0  0  # atno 17394 bound_to 11000
  140.0076  134.6740  155.9430 LP  0  0  0  0  0  0  0  0  0  0  0  0  # atno 17395 bound_to 11000

$$$$
