AV-unprocessed.smi:3292|AV-procd|sdf|12625|dock7
  -GOLD-   2272018563D 1   1.00000     0.00000
 Structure written by MMmdl.
 38 39  0  0  0  0  0  0  0  0  1 V2000
  144.9232  135.5710  153.5930 C   0  0  0  0  0  0  0  0  0  0  0  0
  145.2731  136.5930  152.5030 C   0  0  2  0  0  0  0  0  0  0  0  0
  145.0696  136.0009  151.0922 C   0  0  0  0  0  0  0  0  0  0  0  0
  145.2788  134.5650  151.0495 N   0  0  0  0  0  0  0  0  0  0  0  0
  146.4610  133.8818  151.3032 C   0  0  0  0  0  0  0  0  0  0  0  0
  146.1820  132.5427  151.1495 C   0  0  0  0  0  0  0  0  0  0  0  0
  144.8452  132.3800  150.7937 N   0  0  0  0  0  0  0  0  0  0  0  0
  144.3761  133.6202  150.7519 C   0  0  0  0  0  0  0  0  0  0  0  0
  146.6556  137.0326  152.6904 N   0  0  0  0  0  0  0  0  0  0  0  0
  147.0520  138.0468  153.4734 C   0  0  0  0  0  0  0  0  0  0  0  0
  146.2894  138.7368  154.1500 O   0  0  0  0  0  0  0  0  0  0  0  0
  148.3786  138.2293  153.4157 N   0  0  0  0  0  0  0  0  0  0  0  0
  149.1155  139.2777  154.1144 C   0  0  0  0  0  0  0  0  0  0  0  0
  150.2340  138.6958  154.9989 C   0  0  2  0  0  0  0  0  0  0  0  0
  151.3626  139.6670  155.2773 C   0  0  0  0  0  0  0  0  0  0  0  0
  152.4735  138.7317  155.7439 C   0  0  0  0  0  0  0  0  0  0  0  0
  152.2753  137.5116  155.0359 O   0  0  0  0  0  0  0  0  0  0  0  0
  151.0045  137.5205  154.3922 C   0  0  0  0  0  0  0  0  0  0  0  0
  143.8873  135.2431  153.5044 H   0  0  0  0  0  0  0  0  0  0  0  0
  145.0474  135.9995  154.5882 H   0  0  0  0  0  0  0  0  0  0  0  0
  145.5583  134.6867  153.5288 H   0  0  0  0  0  0  0  0  0  0  0  0
  144.5951  137.4394  152.6286 H   0  0  0  0  0  0  0  0  0  0  0  0
  144.0674  136.2241  150.7230 H   0  0  0  0  0  0  0  0  0  0  0  0
  145.7685  136.4574  150.3904 H   0  0  0  0  0  0  0  0  0  0  0  0
  147.3750  134.3906  151.5721 H   0  0  0  0  0  0  0  0  0  0  0  0
  146.8356  131.6906  151.2648 H   0  0  0  0  0  0  0  0  0  0  0  0
  143.3485  133.8459  150.5065 H   0  0  0  0  0  0  0  0  0  0  0  0
  147.3628  136.5310  152.1734 H   0  0  0  0  0  0  0  0  0  0  0  0
  148.9184  137.6090  152.8302 H   0  0  0  0  0  0  0  0  0  0  0  0
  149.5216  140.0059  153.4100 H   0  0  0  0  0  0  0  0  0  0  0  0
  148.4063  139.8225  154.7378 H   0  0  0  0  0  0  0  0  0  0  0  0
  149.8107  138.3787  155.9537 H   0  0  0  0  0  0  0  0  0  0  0  0
  151.6637  140.1755  154.3599 H   0  0  0  0  0  0  0  0  0  0  0  0
  151.1057  140.4237  156.0192 H   0  0  0  0  0  0  0  0  0  0  0  0
  153.4674  139.1416  155.5635 H   0  0  0  0  0  0  0  0  0  0  0  0
  152.3782  138.5318  156.8120 H   0  0  0  0  0  0  0  0  0  0  0  0
  150.4868  136.5712  154.5282 H   0  0  0  0  0  0  0  0  0  0  0  0
  151.1629  137.6691  153.3231 H   0  0  0  0  0  0  0  0  0  0  0  0
  1  2  1  0  0  0  0
  1 19  1  0  0  0  0
  1 20  1  0  0  0  0
  1 21  1  0  0  0  0
  2  3  1  0  0  0  0
  2  9  1  0  0  0  0
  2 22  1  0  0  0  0
  3  4  1  0  0  0  0
  3 23  1  0  0  0  0
  3 24  1  0  0  0  0
  4  8  1  0  0  0  0
  4  5  1  0  0  0  0
  5  6  2  0  0  0  0
  5 25  1  0  0  0  0
  6  7  1  0  0  0  0
  6 26  1  0  0  0  0
  7  8  2  0  0  0  0
  8 27  1  0  0  0  0
  9 10  1  0  0  0  0
  9 28  1  0  0  0  0
 10 11  2  0  0  0  0
 10 12  1  0  0  0  0
 12 13  1  0  0  0  0
 12 29  1  0  0  0  0
 13 14  1  0  0  0  0
 13 30  1  0  0  0  0
 13 31  1  0  0  0  0
 14 18  1  0  0  0  0
 14 15  1  0  0  0  0
 14 32  1  0  0  0  0
 15 16  1  0  0  0  0
 15 33  1  0  0  0  0
 15 34  1  0  0  0  0
 16 17  1  0  0  0  0
 16 35  1  0  0  0  0
 16 36  1  0  0  0  0
 17 18  1  0  0  0  0
 18 37  1  0  0  0  0
 18 38  1  0  0  0  0
M  END
> <s_m_source_file>
AV-unprocessed.smi

> <i_m_source_file_index>
3292

> <i_lp_mmshare_version>
43012

> <i_f3d_flags>
0

> <s_epik_input>
W2NIXTFuW2NIXVtjSF1uMVtDSDJdW0NAQEhdKFtDSDNdKVtOSF1DKD1PKVtOSF1bQ0gyXVtDQEBIXTJbQ0gyXVtDSDJdT1tDSDJdMg==

> <s_epik_cmdline>
J2VwaWtfcHl0aG9uJywgJy1waCcsICc3LjAnLCAnLXRuJywgJzgnLCAnLW1hJywgJzIwMCcsICctbWV0YWxfYmluZGluZycsICctaW1hZScsICc8aW5maWxlLm1hZT4nLCAnLW9tYWUnLCAnPG91dGZpbGUubWFlPic=

> <r_lp_tautomer_probability>
1

> <r_epik_Ionization_Penalty>
0.621291

> <r_epik_Ionization_Penalty_Charging>
0.621234

> <r_epik_Ionization_Penalty_Neutral>
5.72199e-05

> <r_epik_State_Penalty>
0.637278

> <r_epik_Charging_Adjusted_Penalty>
1.25851

> <i_epik_Tot_Q>
0

> <i_epik_Tot_abs_Q>
0

> <r_epik_Metal_State_Penalty>
0.306757

> <b_epik_Metal_Only>
0

> <s_lp_Force_Field>
OPLS_2005

> <r_lp_Energy>
18.0177

> <b_lp_Chiralities_Consistent>
1

> <s_lp_Variant>
AV-unprocessed.smi:3292-5

> <Gold.Version>
5.8.1

> <Gold.Id.Protein>
6NUR|6NUR_protein|mol2

> <Gold.PLP.Fitness>
45.2392

> <Gold.PLP.PLP>
-30.1076

> <Gold.PLP.part.hbond>
-3.6772

> <Gold.PLP.part.metal>
0.0000

> <Gold.PLP.part.buried>
-1.5721

> <Gold.PLP.part.nonpolar>
-25.5120

> <Gold.PLP.part.repulsive>
0.3963

> <Gold.PLP.ligand.clash>
0.0000

> <Gold.PLP.ligand.torsion>
1.0175

> <Gold.PLP.Chemscore.Hbond>
2.7120

> <Gold.PLP.Chemscore.CHOScore>
2.9940

> <Gold.PLP.Chemscore.Metal>
0.0000

> <Gold.Chemscore.Hbonds>
donor molecule, donor type, donor heavy atom, donor atom, acceptor molecule, acceptor atom, score
      L1  H     9    28       P1  7948  1.00
      L1  H    12    29       P1  7948  0.99
      P1  H 10752 10763       L1    17  0.63
      L1  C     5    25       P1  7948  1.00
      L1  C     6    26       P1 10747  1.00
      L1  C     8    27       P1 10186  0.85

> <Gold.PLP.Chemscore.Internal.Correction>
0.0487

> <Gold.Rescore>
     Score         DG    S(hbond)    S(metal)    S(lipo)     H(rot)  DE(clash)    DE(int)     intcor
     13.21     -14.27       2.17        0.00      60.46       2.16       0.11       0.95       ----

> <Gold.Chemscore.Fitness>
13.2080

> <Gold.Chemscore.DG>
-14.2670

> <Gold.Chemscore.ZeroCoef>
-5.4800

> <Gold.Chemscore.Hbond>
2.1667

> <Gold.Chemscore.Metal>
0.0000

> <Gold.Chemscore.Lipo>
60.4596

> <Gold.Chemscore.Internal_Hbond>
0.0000

> <Gold.Chemscore.DEClash>
0.1131

> <Gold.Chemscore.DEInternal>
0.9459

> <Gold.Chemscore.Rot>
2.1577

> <Gold.Chemscore.Internal.Correction>
   9.000000E+99

> <Gold.Chemscore.Hbonds>
donor molecule, donor type, donor heavy atom, donor atom, acceptor molecule, acceptor atom, score
      L1  H     9    28       P1  7948  0.95
      L1  H    12    29       P1  7948  0.94
      P1  H 10752 10763       L1    17  0.21

> <Gold.Chemscore.Hbond.Weighted>
-7.2369

> <Gold.Chemscore.Metal.Weighted>
-0.0000

> <Gold.Chemscore.Lipo.Weighted>
-7.0738

> <Gold.Chemscore.Internal_Hbond.Weighted>
0.0000

> <Gold.Chemscore.DEClash.Weighted>
0.1131

> <Gold.Chemscore.DEInternal.Weighted>
0.9459

> <Gold.Chemscore.Rot.Weighted>
5.5237

> <Gold.Chemscore.Internal.Correction.Weighted>
   9.000000E+99

> <Gold.Protein.RotatedTorsions>
[ 6907 6896 6895 6894 ] final    3.46 input  -60.11 | X-H torsion
[ 7974 7965 7964 7962 ] final  -41.44 input  175.53 | X-H torsion
[ 8008 7997 7996 7995 ] final  -79.17 input   59.86 | X-H torsion
[ 10167 10162 10161 10158 ] final   61.69 input  -65.29 | X-H torsion
[ 10718 10713 10712 10709 ] final -172.23 input   66.30 | X-H torsion
[ 10763 10752 10751 10750 ] final   60.41 input  -60.55 | X-H torsion
[ 11005 11000 10999 10996 ] final -144.41 input  -57.11 | X-H torsion

> <Gold.Protein.ActiveResidues>
 VAL166  LYS551  ARG553  GLY616  TRP617  ASP618  TYR619  PRO620  LYS621  CYS622 
 ASP623  PHE694  ASN695  SER759  ASP760  ASP761  ALA762  ILE779  LEU786  VAL792 
 PHE793  MET794  SER795  GLU796  ALA797  LYS798  CYS799  TRP800  GLU811  SER814 

> <Gold.Protein.RotatedAtoms>
  151.6255  135.1028  160.0110 H   0  0  0  0  0  0  0  0  0  0  0  0  # atno 6907 bound_to 6896
  152.4135  133.6996  159.6427 H   0  0  0  0  0  0  0  0  0  0  0  0  # atno 6908 bound_to 6896
  150.8024  133.8499  159.3243 H   0  0  0  0  0  0  0  0  0  0  0  0  # atno 6909 bound_to 6896
  146.0210  140.6849  142.9178 H   0  0  0  0  0  0  0  0  0  0  0  0  # atno 7974 bound_to 7965
  154.5759  140.0682  156.9034 H   0  0  0  0  0  0  0  0  0  0  0  0  # atno 8008 bound_to 7997
  155.2549  140.3354  155.4260 H   0  0  0  0  0  0  0  0  0  0  0  0  # atno 8009 bound_to 7997
  156.2154  140.1776  156.7587 H   0  0  0  0  0  0  0  0  0  0  0  0  # atno 8010 bound_to 7997
  140.1521  144.4453  150.6754 H   0  0  0  0  0  0  0  0  0  0  0  0  # atno 10167 bound_to 10162
  156.7525  130.9383  151.3115 H   0  0  0  0  0  0  0  0  0  0  0  0  # atno 10718 bound_to 10713
  152.9920  135.5537  154.5869 H   0  0  0  0  0  0  0  0  0  0  0  0  # atno 10763 bound_to 10752
  154.5239  135.2809  155.1241 H   0  0  0  0  0  0  0  0  0  0  0  0  # atno 10764 bound_to 10752
  154.2583  135.6386  153.5318 H   0  0  0  0  0  0  0  0  0  0  0  0  # atno 10765 bound_to 10752
  140.8027  134.2837  157.4972 H   0  0  0  0  0  0  0  0  0  0  0  0  # atno 11005 bound_to 11000
  144.6990  140.3566  143.7171 LP  0  0  0  0  0  0  0  0  0  0  0  0  # atno 17320 bound_to 7965
  145.7193  139.1705  143.2494 LP  0  0  0  0  0  0  0  0  0  0  0  0  # atno 17321 bound_to 7965
  140.6696  143.2281  151.5658 LP  0  0  0  0  0  0  0  0  0  0  0  0  # atno 17342 bound_to 10162
  139.5421  144.2620  152.1371 LP  0  0  0  0  0  0  0  0  0  0  0  0  # atno 17343 bound_to 10162
  157.6771  130.9104  150.0176 LP  0  0  0  0  0  0  0  0  0  0  0  0  # atno 17370 bound_to 10713
  156.1392  130.3642  149.9609 LP  0  0  0  0  0  0  0  0  0  0  0  0  # atno 17371 bound_to 10713
  139.8720  134.9439  156.3865 LP  0  0  0  0  0  0  0  0  0  0  0  0  # atno 17394 bound_to 11000
  140.9278  133.7600  155.9986 LP  0  0  0  0  0  0  0  0  0  0  0  0  # atno 17395 bound_to 11000

$$$$
