AV-unprocessed.smi:3155|AV-procd|sdf|12025|dock2
  -GOLD-   2272017443D 1   1.00000     0.00000
 Structure written by MMmdl.
 38 39  0  0  0  0  0  0  0  0  2 V2000
  147.5430  142.1461  154.0416 C   0  0  0  0  0  0  0  0  0  0  0  0
  148.8343  141.4087  154.4360 C   0  0  2  0  0  0  0  0  0  0  0  0
  148.6184  139.8862  154.6080 C   0  0  0  0  0  0  0  0  0  0  0  0
  149.8218  139.1808  155.0107 N   0  0  0  0  0  0  0  0  0  0  0  0
  150.9626  138.9385  154.2744 C   0  0  0  0  0  0  0  0  0  0  0  0
  151.8170  138.2319  155.0714 C   0  0  0  0  0  0  0  0  0  0  0  0
  151.0967  138.0798  156.2889 C   0  0  0  0  0  0  0  0  0  0  0  0
  149.9009  138.6456  156.2479 N   0  0  0  0  0  0  0  0  0  0  0  0
  149.3814  142.0164  155.6696 N   0  3  0  0  0  0  0  0  0  0  0  0
  150.7731  141.6428  156.0069 C   0  0  0  0  0  0  0  0  0  0  0  0
  151.0184  141.6296  157.5229 C   0  0  0  0  0  0  0  0  0  0  0  0
  150.9125  140.5733  158.1481 O   0  0  0  0  0  0  0  0  0  0  0  0
  151.3434  142.7909  158.1273 N   0  0  0  0  0  0  0  0  0  0  0  0
  151.6243  142.9077  159.5571 C   0  0  0  0  0  0  0  0  0  0  0  0
  152.2056  144.3083  159.7503 C   0  0  0  0  0  0  0  0  0  0  0  0
  151.6313  145.1121  158.5919 C   0  0  0  0  0  0  0  0  0  0  0  0
  151.4743  144.0892  157.4665 C   0  0  0  0  0  0  0  0  0  0  0  0
  147.1578  141.8013  153.0817 H   0  0  0  0  0  0  0  0  0  0  0  0
  147.7169  143.2189  153.9495 H   0  0  0  0  0  0  0  0  0  0  0  0
  146.7606  141.9988  154.7868 H   0  0  0  0  0  0  0  0  0  0  0  0
  149.5585  141.5744  153.6369 H   0  0  0  0  0  0  0  0  0  0  0  0
  147.8526  139.6817  155.3562 H   0  0  0  0  0  0  0  0  0  0  0  0
  148.2647  139.4499  153.6729 H   0  0  0  0  0  0  0  0  0  0  0  0
  151.0724  139.2869  153.2578 H   0  0  0  0  0  0  0  0  0  0  0  0
  152.8051  137.8748  154.8224 H   0  0  0  0  0  0  0  0  0  0  0  0
  151.4048  137.5773  157.1939 H   0  0  0  0  0  0  0  0  0  0  0  0
  149.3671  143.0192  155.5491 H   0  0  0  0  0  0  0  0  0  0  0  0
  150.9907  140.6543  155.6036 H   0  0  0  0  0  0  0  0  0  0  0  0
  151.4599  142.3520  155.5435 H   0  0  0  0  0  0  0  0  0  0  0  0
  150.6917  142.7998  160.1129 H   0  0  0  0  0  0  0  0  0  0  0  0
  152.3177  142.1404  159.9054 H   0  0  0  0  0  0  0  0  0  0  0  0
  151.9650  144.7362  160.7240 H   0  0  0  0  0  0  0  0  0  0  0  0
  153.2923  144.2681  159.6628 H   0  0  0  0  0  0  0  0  0  0  0  0
  150.6514  145.5029  158.8698 H   0  0  0  0  0  0  0  0  0  0  0  0
  152.2603  145.9573  158.3105 H   0  0  0  0  0  0  0  0  0  0  0  0
  152.3635  144.0814  156.8349 H   0  0  0  0  0  0  0  0  0  0  0  0
  150.6120  144.3250  156.8414 H   0  0  0  0  0  0  0  0  0  0  0  0
  148.7807  141.7843  156.4478 H   0  0  0  0  0  0  0  0  0  0  0  0
  1  2  1  0  0  0  0
  1 18  1  0  0  0  0
  1 19  1  0  0  0  0
  1 20  1  0  0  0  0
  2  3  1  0  0  0  0
  2  9  1  0  0  0  0
  2 21  1  0  0  0  0
  3  4  1  0  0  0  0
  3 22  1  0  0  0  0
  3 23  1  0  0  0  0
  4  8  1  0  0  0  0
  4  5  1  0  0  0  0
  5  6  2  0  0  0  0
  5 24  1  0  0  0  0
  6  7  1  0  0  0  0
  6 25  1  0  0  0  0
  7  8  2  0  0  0  0
  7 26  1  0  0  0  0
  9 10  1  0  0  0  0
  9 27  1  0  0  0  0
  9 38  1  0  0  0  0
 10 11  1  0  0  0  0
 10 28  1  0  0  0  0
 10 29  1  0  0  0  0
 11 12  2  0  0  0  0
 11 13  1  0  0  0  0
 13 17  1  0  0  0  0
 13 14  1  0  0  0  0
 14 15  1  0  0  0  0
 14 30  1  0  0  0  0
 14 31  1  0  0  0  0
 15 16  1  0  0  0  0
 15 32  1  0  0  0  0
 15 33  1  0  0  0  0
 16 17  1  0  0  0  0
 16 34  1  0  0  0  0
 16 35  1  0  0  0  0
 17 36  1  0  0  0  0
 17 37  1  0  0  0  0
M  CHG  1   9   1
M  END
> <s_m_source_file>
AV-unprocessed.smi

> <i_m_source_file_index>
3155

> <i_lp_mmshare_version>
43012

> <i_f3d_flags>
0

> <s_epik_input>
bjFbY0hdW2NIXVtjSF1uMVtDSDJdW0NAQEhdKFtDSDNdKVtOSF1bQ0gyXUMoPU8pTjJbQ0gyXVtDSDJdW0NIMl1bQ0gyXTI=

> <s_epik_cmdline>
J2VwaWtfcHl0aG9uJywgJy1waCcsICc3LjAnLCAnLXRuJywgJzgnLCAnLW1hJywgJzIwMCcsICctbWV0YWxfYmluZGluZycsICctaW1hZScsICc8aW5maWxlLm1hZT4nLCAnLW9tYWUnLCAnPG91dGZpbGUubWFlPic=

> <r_lp_tautomer_probability>
1

> <r_epik_Ionization_Penalty>
0.120138

> <r_epik_Ionization_Penalty_Charging>
0.120135

> <r_epik_Ionization_Penalty_Neutral>
3.43791e-06

> <r_epik_State_Penalty>
0.109683

> <r_epik_Charging_Adjusted_Penalty>
0.229818

> <i_epik_Tot_Q>
1

> <i_epik_Tot_abs_Q>
1

> <r_epik_Metal_State_Penalty>
0.109693

> <b_epik_Metal_Only>
0

> <s_lp_Force_Field>
OPLS_2005

> <r_lp_Energy>
27.5308

> <b_lp_Chiralities_Consistent>
1

> <s_lp_Variant>
AV-unprocessed.smi:3155-1

> <Gold.Version>
5.8.1

> <Gold.Id.Protein>
6NUR|6NUR_protein|mol2

> <Gold.PLP.Fitness>
46.6000

> <Gold.PLP.PLP>
-38.9926

> <Gold.PLP.part.hbond>
-1.0000

> <Gold.PLP.part.metal>
0.0000

> <Gold.PLP.part.buried>
-3.9258

> <Gold.PLP.part.nonpolar>
-32.8900

> <Gold.PLP.part.repulsive>
0.1414

> <Gold.PLP.ligand.clash>
0.0000

> <Gold.PLP.ligand.torsion>
0.7081

> <Gold.PLP.Chemscore.Hbond>
2.0000

> <Gold.PLP.Chemscore.CHOScore>
1.0000

> <Gold.PLP.Chemscore.Metal>
0.0000

> <Gold.Chemscore.Hbonds>
donor molecule, donor type, donor heavy atom, donor atom, acceptor molecule, acceptor atom, score
      L1  H     9    27       P1  8028  2.00
      L1  C     5    24       P1  7957  0.72

> <Gold.PLP.Chemscore.Internal.Correction>
0.0236

> <Gold.Rescore>
     Score         DG    S(hbond)    S(metal)    S(lipo)     H(rot)  DE(clash)    DE(int)     intcor
     13.53     -15.46       1.00        0.00      96.96       1.84       0.15       1.78       ----

> <Gold.Chemscore.Fitness>
13.5307

> <Gold.Chemscore.DG>
-15.4608

> <Gold.Chemscore.ZeroCoef>
-5.4800

> <Gold.Chemscore.Hbond>
0.9994

> <Gold.Chemscore.Metal>
0.0000

> <Gold.Chemscore.Lipo>
96.9600

> <Gold.Chemscore.Internal_Hbond>
0.0000

> <Gold.Chemscore.DEClash>
0.1473

> <Gold.Chemscore.DEInternal>
1.7828

> <Gold.Chemscore.Rot>
1.8366

> <Gold.Chemscore.Internal.Correction>
   9.000000E+99

> <Gold.Chemscore.Hbonds>
donor molecule, donor type, donor heavy atom, donor atom, acceptor molecule, acceptor atom, score
      L1  H     9    27       P1  8028  1.00

> <Gold.Chemscore.Hbond.Weighted>
-3.3381

> <Gold.Chemscore.Metal.Weighted>
-0.0000

> <Gold.Chemscore.Lipo.Weighted>
-11.3443

> <Gold.Chemscore.Internal_Hbond.Weighted>
0.0000

> <Gold.Chemscore.DEClash.Weighted>
0.1473

> <Gold.Chemscore.DEInternal.Weighted>
1.7828

> <Gold.Chemscore.Rot.Weighted>
4.7017

> <Gold.Chemscore.Internal.Correction.Weighted>
   9.000000E+99

> <Gold.Protein.RotatedTorsions>
[ 6907 6896 6895 6894 ] final -108.89 input  -60.11 | X-H torsion
[ 7974 7965 7964 7962 ] final   34.44 input  175.53 | X-H torsion
[ 8008 7997 7996 7995 ] final  139.28 input   59.86 | X-H torsion
[ 10167 10162 10161 10158 ] final  116.31 input  -65.29 | X-H torsion
[ 10718 10713 10712 10709 ] final   79.36 input   66.30 | X-H torsion
[ 10763 10752 10751 10750 ] final  122.96 input  -60.55 | X-H torsion
[ 11005 11000 10999 10996 ] final  -97.31 input  -57.11 | X-H torsion

> <Gold.Protein.ActiveResidues>
 VAL166  LYS551  ARG553  GLY616  TRP617  ASP618  TYR619  PRO620  LYS621  CYS622 
 ASP623  PHE694  ASN695  SER759  ASP760  ASP761  ALA762  ILE779  LEU786  VAL792 
 PHE793  MET794  SER795  GLU796  ALA797  LYS798  CYS799  TRP800  GLU811  SER814 

> <Gold.Protein.RotatedAtoms>
  150.7529  133.9610  159.3515 H   0  0  0  0  0  0  0  0  0  0  0  0  # atno 6907 bound_to 6896
  151.7536  135.0825  160.0344 H   0  0  0  0  0  0  0  0  0  0  0  0  # atno 6908 bound_to 6896
  152.3450  133.6074  159.5939 H   0  0  0  0  0  0  0  0  0  0  0  0  # atno 6909 bound_to 6896
  146.1353  139.6269  142.9199 H   0  0  0  0  0  0  0  0  0  0  0  0  # atno 7974 bound_to 7965
  156.2991  140.2371  156.4211 H   0  0  0  0  0  0  0  0  0  0  0  0  # atno 8008 bound_to 7997
  154.8354  140.0431  157.1526 H   0  0  0  0  0  0  0  0  0  0  0  0  # atno 8009 bound_to 7997
  154.9161  140.2997  155.5244 H   0  0  0  0  0  0  0  0  0  0  0  0  # atno 8010 bound_to 7997
  139.6256  144.7108  151.2541 H   0  0  0  0  0  0  0  0  0  0  0  0  # atno 10167 bound_to 10162
  157.6774  130.9910  150.1920 H   0  0  0  0  0  0  0  0  0  0  0  0  # atno 10718 bound_to 10713
  153.6379  135.3384  155.3062 H   0  0  0  0  0  0  0  0  0  0  0  0  # atno 10763 bound_to 10752
  154.8566  135.4311  154.2036 H   0  0  0  0  0  0  0  0  0  0  0  0  # atno 10764 bound_to 10752
  153.2947  135.7020  153.7333 H   0  0  0  0  0  0  0  0  0  0  0  0  # atno 10765 bound_to 10752
  141.1383  133.8161  157.0688 H   0  0  0  0  0  0  0  0  0  0  0  0  # atno 11005 bound_to 11000
  145.5171  141.0433  143.2456 LP  0  0  0  0  0  0  0  0  0  0  0  0  # atno 17320 bound_to 7965
  144.7733  139.6686  143.7185 LP  0  0  0  0  0  0  0  0  0  0  0  0  # atno 17321 bound_to 7965
  140.7409  143.6574  150.8194 LP  0  0  0  0  0  0  0  0  0  0  0  0  # atno 17342 bound_to 10162
  140.0192  143.5561  152.2807 LP  0  0  0  0  0  0  0  0  0  0  0  0  # atno 17343 bound_to 10162
  156.2630  130.3713  149.8111 LP  0  0  0  0  0  0  0  0  0  0  0  0  # atno 17370 bound_to 10713
  156.5850  130.8482  151.3393 LP  0  0  0  0  0  0  0  0  0  0  0  0  # atno 17371 bound_to 10713
  140.0524  134.9798  157.1160 LP  0  0  0  0  0  0  0  0  0  0  0  0  # atno 17394 bound_to 11000
  140.3970  134.2124  155.7164 LP  0  0  0  0  0  0  0  0  0  0  0  0  # atno 17395 bound_to 11000

$$$$
