AV-unprocessed.smi:2902|AV-procd|sdf|11151|dock8
  -GOLD-   2272016 33D 1   1.00000     0.00000
 Structure written by MMmdl.
 47 48  0  0  0  0  0  0  0  0  1 V2000
  148.4255  133.0184  153.6072 C   0  0  0  0  0  0  0  0  0  0  0  0
  147.5992  134.2833  153.8715 C   0  0  0  0  0  0  0  0  0  0  0  0
  146.3968  134.4186  152.9186 C   0  0  2  0  0  0  0  0  0  0  0  0
  146.8702  134.2069  151.5868 O   0  0  0  0  0  0  0  0  0  0  0  0
  146.0840  133.3711  150.7394 C   0  0  0  0  0  0  0  0  0  0  0  0
  144.6893  133.9298  150.4423 C   0  0  0  0  0  0  0  0  0  0  0  0
  143.8439  132.7028  150.0822 C   0  0  0  0  0  0  0  0  0  0  0  0
  144.5565  131.4910  150.7042 C   0  0  0  0  0  0  0  0  0  0  0  0
  145.7829  132.0461  151.4364 C   0  0  0  0  0  0  0  0  0  0  0  0
  145.7351  135.8011  153.0412 C   0  0  0  0  0  0  0  0  0  0  0  0
  144.5147  135.8993  153.1692 O   0  0  0  0  0  0  0  0  0  0  0  0
  146.5642  136.8565  153.0240 N   0  0  0  0  0  0  0  0  0  0  0  0
  146.1708  138.2526  153.1989 C   0  0  2  0  0  0  0  0  0  0  0  0
  146.7479  139.0973  152.0465 C   0  0  0  0  0  0  0  0  0  0  0  0
  146.6023  138.7520  154.6018 C   0  0  2  0  0  0  0  0  0  0  0  0
  145.5389  139.6329  155.2846 C   0  0  0  0  0  0  0  0  0  0  0  0
  147.8738  139.4601  154.5515 N   0  0  0  0  0  0  0  0  0  0  0  0
  149.0729  139.0698  154.1125 C   0  0  0  0  0  0  0  0  0  0  0  0
  150.0128  139.9982  154.2207 N   0  0  0  0  0  0  0  0  0  0  0  0
  149.2732  141.0076  154.7685 C   0  0  0  0  0  0  0  0  0  0  0  0
  147.9856  140.7383  154.9847 N   0  0  0  0  0  0  0  0  0  0  0  0
  149.2645  132.9520  154.3000 H   0  0  0  0  0  0  0  0  0  0  0  0
  148.8299  133.0142  152.5946 H   0  0  0  0  0  0  0  0  0  0  0  0
  147.8202  132.1200  153.7305 H   0  0  0  0  0  0  0  0  0  0  0  0
  147.2507  134.2602  154.9051 H   0  0  0  0  0  0  0  0  0  0  0  0
  148.2442  135.1588  153.7850 H   0  0  0  0  0  0  0  0  0  0  0  0
  145.6681  133.6497  153.1803 H   0  0  0  0  0  0  0  0  0  0  0  0
  146.6024  133.1502  149.8058 H   0  0  0  0  0  0  0  0  0  0  0  0
  144.2843  134.3989  151.3401 H   0  0  0  0  0  0  0  0  0  0  0  0
  144.6936  134.6787  149.6498 H   0  0  0  0  0  0  0  0  0  0  0  0
  142.8216  132.8055  150.4465 H   0  0  0  0  0  0  0  0  0  0  0  0
  143.7942  132.5847  148.9991 H   0  0  0  0  0  0  0  0  0  0  0  0
  143.9059  130.9348  151.3796 H   0  0  0  0  0  0  0  0  0  0  0  0
  144.8707  130.8056  149.9160 H   0  0  0  0  0  0  0  0  0  0  0  0
  146.6302  131.3603  151.4182 H   0  0  0  0  0  0  0  0  0  0  0  0
  145.5290  132.2300  152.4812 H   0  0  0  0  0  0  0  0  0  0  0  0
  147.5513  136.6756  152.9132 H   0  0  0  0  0  0  0  0  0  0  0  0
  145.0822  138.3166  153.1462 H   0  0  0  0  0  0  0  0  0  0  0  0
  146.4089  140.1320  152.0943 H   0  0  0  0  0  0  0  0  0  0  0  0
  146.4385  138.7051  151.0771 H   0  0  0  0  0  0  0  0  0  0  0  0
  147.8381  139.1034  152.0695 H   0  0  0  0  0  0  0  0  0  0  0  0
  146.7462  137.8745  155.2356 H   0  0  0  0  0  0  0  0  0  0  0  0
  144.6181  139.0805  155.4707 H   0  0  0  0  0  0  0  0  0  0  0  0
  145.2887  140.5007  154.6737 H   0  0  0  0  0  0  0  0  0  0  0  0
  145.8938  139.9965  156.2495 H   0  0  0  0  0  0  0  0  0  0  0  0
  149.2616  138.0867  153.7071 H   0  0  0  0  0  0  0  0  0  0  0  0
  149.6964  141.9704  155.0142 H   0  0  0  0  0  0  0  0  0  0  0  0
  1  2  1  0  0  0  0
  1 22  1  0  0  0  0
  1 23  1  0  0  0  0
  1 24  1  0  0  0  0
  2  3  1  0  0  0  0
  2 25  1  0  0  0  0
  2 26  1  0  0  0  0
  3  4  1  0  0  0  0
  3 10  1  0  0  0  0
  3 27  1  0  0  0  0
  4  5  1  0  0  0  0
  5  9  1  0  0  0  0
  5  6  1  0  0  0  0
  5 28  1  0  0  0  0
  6  7  1  0  0  0  0
  6 29  1  0  0  0  0
  6 30  1  0  0  0  0
  7  8  1  0  0  0  0
  7 31  1  0  0  0  0
  7 32  1  0  0  0  0
  8  9  1  0  0  0  0
  8 33  1  0  0  0  0
  8 34  1  0  0  0  0
  9 35  1  0  0  0  0
  9 36  1  0  0  0  0
 10 11  2  0  0  0  0
 10 12  1  0  0  0  0
 12 13  1  0  0  0  0
 12 37  1  0  0  0  0
 13 14  1  0  0  0  0
 13 15  1  0  0  0  0
 13 38  1  0  0  0  0
 14 39  1  0  0  0  0
 14 40  1  0  0  0  0
 14 41  1  0  0  0  0
 15 16  1  0  0  0  0
 15 17  1  0  0  0  0
 15 42  1  0  0  0  0
 16 43  1  0  0  0  0
 16 44  1  0  0  0  0
 16 45  1  0  0  0  0
 17 21  1  0  0  0  0
 17 18  1  0  0  0  0
 18 19  2  0  0  0  0
 18 46  1  0  0  0  0
 19 20  1  0  0  0  0
 20 21  2  0  0  0  0
 20 47  1  0  0  0  0
M  END
> <s_m_source_file>
AV-unprocessed.smi

> <i_m_source_file_index>
2902

> <i_lp_mmshare_version>
43012

> <i_f3d_flags>
0

> <s_epik_input>
W0NIMl0xW0NIMl1bQ0gyXVtDSDJdW0NIXTFPW0NAQEhdKFtDSDJdW0NIM10pQyg9TylbTkhdW0NASF0oW0NIM10pW0NASF0oW0NIM10pbjJbY0hdbltjSF1uMg==

> <s_epik_cmdline>
J2VwaWtfcHl0aG9uJywgJy1waCcsICc3LjAnLCAnLXRuJywgJzgnLCAnLW1hJywgJzIwMCcsICctbWV0YWxfYmluZGluZycsICctaW1hZScsICc8aW5maWxlLm1hZT4nLCAnLW9tYWUnLCAnPG91dGZpbGUubWFlPic=

> <r_lp_tautomer_probability>
1

> <r_epik_Ionization_Penalty>
6.95617e-05

> <r_epik_Ionization_Penalty_Charging>
0

> <r_epik_Ionization_Penalty_Neutral>
6.95617e-05

> <r_epik_State_Penalty>
-0

> <r_epik_Charging_Adjusted_Penalty>
0

> <i_epik_Tot_Q>
0

> <i_epik_Tot_abs_Q>
0

> <r_epik_Metal_State_Penalty>
-0

> <b_epik_Metal_Only>
0

> <s_lp_Force_Field>
OPLS_2005

> <r_lp_Energy>
29.4531

> <b_lp_Chiralities_Consistent>
1

> <s_lp_Variant>
AV-unprocessed.smi:2902-1

> <Gold.Version>
5.8.1

> <Gold.Id.Protein>
6NUR|6NUR_protein|mol2

> <Gold.PLP.Fitness>
37.5762

> <Gold.PLP.PLP>
-32.6985

> <Gold.PLP.part.hbond>
-2.0000

> <Gold.PLP.part.metal>
0.0000

> <Gold.PLP.part.buried>
-2.5565

> <Gold.PLP.part.nonpolar>
-29.0446

> <Gold.PLP.part.repulsive>
2.3306

> <Gold.PLP.ligand.clash>
0.0000

> <Gold.PLP.ligand.torsion>
2.1158

> <Gold.PLP.Chemscore.Hbond>
2.0000

> <Gold.PLP.Chemscore.CHOScore>
1.0000

> <Gold.PLP.Chemscore.Metal>
0.0000

> <Gold.Chemscore.Hbonds>
donor molecule, donor type, donor heavy atom, donor atom, acceptor molecule, acceptor atom, score
      L1  H    12    37       P1  7948  0.99
      P1  H  7989  7998       L1    19  0.99
      L1  C    18    46       P1  7948  0.80

> <Gold.PLP.Chemscore.Internal.Correction>
0.1093

> <Gold.Rescore>
     Score         DG    S(hbond)    S(metal)    S(lipo)     H(rot)  DE(clash)    DE(int)     intcor
      9.11     -12.61       1.73        0.00      70.59       2.69       1.15       2.35       ----

> <Gold.Chemscore.Fitness>
9.1116

> <Gold.Chemscore.DG>
-12.6066

> <Gold.Chemscore.ZeroCoef>
-5.4800

> <Gold.Chemscore.Hbond>
1.7254

> <Gold.Chemscore.Metal>
0.0000

> <Gold.Chemscore.Lipo>
70.5919

> <Gold.Chemscore.Internal_Hbond>
0.0000

> <Gold.Chemscore.DEClash>
1.1484

> <Gold.Chemscore.DEInternal>
2.3465

> <Gold.Chemscore.Rot>
2.6935

> <Gold.Chemscore.Internal.Correction>
   9.000000E+99

> <Gold.Chemscore.Hbonds>
donor molecule, donor type, donor heavy atom, donor atom, acceptor molecule, acceptor atom, score
      L1  H    12    37       P1  7948  0.93
      P1  H  7989  7998       L1    19  0.46

> <Gold.Chemscore.Hbond.Weighted>
-5.7627

> <Gold.Chemscore.Metal.Weighted>
-0.0000

> <Gold.Chemscore.Lipo.Weighted>
-8.2592

> <Gold.Chemscore.Internal_Hbond.Weighted>
0.0000

> <Gold.Chemscore.DEClash.Weighted>
1.1484

> <Gold.Chemscore.DEInternal.Weighted>
2.3465

> <Gold.Chemscore.Rot.Weighted>
6.8954

> <Gold.Chemscore.Internal.Correction.Weighted>
   9.000000E+99

> <Gold.Protein.RotatedTorsions>
[ 6907 6896 6895 6894 ] final  119.54 input  -60.11 | X-H torsion
[ 7974 7965 7964 7962 ] final -151.48 input  175.53 | X-H torsion
[ 8008 7997 7996 7995 ] final   -7.64 input   59.86 | X-H torsion
[ 10167 10162 10161 10158 ] final  143.50 input  -65.29 | X-H torsion
[ 10718 10713 10712 10709 ] final  -33.75 input   66.30 | X-H torsion
[ 10763 10752 10751 10750 ] final   49.79 input  -60.55 | X-H torsion
[ 11005 11000 10999 10996 ] final  -44.67 input  -57.11 | X-H torsion

> <Gold.Protein.ActiveResidues>
 VAL166  LYS551  ARG553  GLY616  TRP617  ASP618  TYR619  PRO620  LYS621  CYS622 
 ASP623  PHE694  ASN695  SER759  ASP760  ASP761  ALA762  ILE779  LEU786  VAL792 
 PHE793  MET794  SER795  GLU796  ALA797  LYS798  CYS799  TRP800  GLU811  SER814 

> <Gold.Protein.RotatedAtoms>
  152.4464  133.7544  159.6711 H   0  0  0  0  0  0  0  0  0  0  0  0  # atno 6907 bound_to 6896
  150.8365  133.7995  159.3084 H   0  0  0  0  0  0  0  0  0  0  0  0  # atno 6908 bound_to 6896
  151.5633  135.1067  160.0029 H   0  0  0  0  0  0  0  0  0  0  0  0  # atno 6909 bound_to 6896
  144.7847  140.4792  143.5814 H   0  0  0  0  0  0  0  0  0  0  0  0  # atno 7974 bound_to 7965
  154.5818  140.2401  155.8043 H   0  0  0  0  0  0  0  0  0  0  0  0  # atno 8008 bound_to 7997
  156.2185  140.3005  155.9851 H   0  0  0  0  0  0  0  0  0  0  0  0  # atno 8009 bound_to 7997
  155.2527  140.0411  157.2979 H   0  0  0  0  0  0  0  0  0  0  0  0  # atno 8010 bound_to 7997
  139.4968  144.6036  151.6428 H   0  0  0  0  0  0  0  0  0  0  0  0  # atno 10167 bound_to 10162
  156.3589  130.4320  149.7640 H   0  0  0  0  0  0  0  0  0  0  0  0  # atno 10718 bound_to 10713
  152.9786  135.5900  154.4147 H   0  0  0  0  0  0  0  0  0  0  0  0  # atno 10763 bound_to 10752
  154.3778  135.2767  155.2231 H   0  0  0  0  0  0  0  0  0  0  0  0  # atno 10764 bound_to 10752
  154.4158  135.6071  153.6034 H   0  0  0  0  0  0  0  0  0  0  0  0  # atno 10765 bound_to 10752
  141.0466  133.6759  156.2905 H   0  0  0  0  0  0  0  0  0  0  0  0  # atno 11005 bound_to 11000
  145.5953  139.1499  143.3159 LP  0  0  0  0  0  0  0  0  0  0  0  0  # atno 17320 bound_to 7965
  146.2073  140.6077  142.9075 LP  0  0  0  0  0  0  0  0  0  0  0  0  # atno 17321 bound_to 7965
  140.5692  144.0138  150.6208 LP  0  0  0  0  0  0  0  0  0  0  0  0  # atno 17342 bound_to 10162
  140.3250  143.3113  152.0745 LP  0  0  0  0  0  0  0  0  0  0  0  0  # atno 17343 bound_to 10162
  156.4812  130.8042  151.3056 LP  0  0  0  0  0  0  0  0  0  0  0  0  # atno 17370 bound_to 10713
  157.7471  131.0005  150.2928 LP  0  0  0  0  0  0  0  0  0  0  0  0  # atno 17371 bound_to 10713
  140.6136  134.5434  157.5537 LP  0  0  0  0  0  0  0  0  0  0  0  0  # atno 17394 bound_to 11000
  139.9316  134.7952  156.0915 LP  0  0  0  0  0  0  0  0  0  0  0  0  # atno 17395 bound_to 11000

$$$$
