AV-unprocessed.smi:2454|AV-procd|sdf|9695|dock3
  -GOLD-   2272013333D 1   1.00000     0.00000
 Structure written by MMmdl.
 42 43  0  0  0  0  0  0  0  0  1 V2000
  151.5993  141.7137  159.1423 C   0  0  0  0  0  0  0  0  0  0  0  0
  151.3040  140.9915  157.9597 O   0  0  0  0  0  0  0  0  0  0  0  0
  151.4082  139.5862  158.1377 C   0  0  0  0  0  0  0  0  0  0  0  0
  151.7634  138.8485  156.8584 C   0  0  0  0  0  0  0  0  0  0  0  0
  150.8393  137.9692  156.2551 C   0  0  0  0  0  0  0  0  0  0  0  0
  151.2422  137.3116  155.0708 C   0  0  0  0  0  0  0  0  0  0  0  0
  150.2681  136.4441  154.4946 N   0  0  0  0  0  0  0  0  0  0  0  0
  149.2283  135.7836  155.0477 C   0  0  0  0  0  0  0  0  0  0  0  0
  148.9877  135.8681  156.2509 O   0  0  0  0  0  0  0  0  0  0  0  0
  148.4921  135.0363  154.2093 N   0  0  0  0  0  0  0  0  0  0  0  0
  147.3072  134.2575  154.5605 C   0  0  2  0  0  0  0  0  0  0  0  0
  147.4752  132.8009  154.0886 C   0  0  0  0  0  0  0  0  0  0  0  0
  147.4272  132.6814  152.5559 C   0  0  0  0  0  0  0  0  0  0  0  0
  146.1429  133.3044  151.9866 C   0  0  0  0  0  0  0  0  0  0  0  0
  145.9793  134.7768  152.4202 C   0  0  1  0  0  0  0  0  0  0  0  0
  144.6986  135.4109  151.8397 C   0  0  0  0  0  0  0  0  0  0  0  0
  144.5875  136.6860  152.2140 F   0  0  0  0  0  0  0  0  0  0  0  0
  144.7239  135.3532  150.5080 F   0  0  0  0  0  0  0  0  0  0  0  0
  143.6258  134.7425  152.2633 F   0  0  0  0  0  0  0  0  0  0  0  0
  146.0305  134.8856  153.9616 C   0  0  0  0  0  0  0  0  0  0  0  0
  152.4778  137.5467  154.5594 N   0  0  0  0  0  0  0  0  0  0  0  0
  153.2764  138.3970  155.2082 C   0  0  0  0  0  0  0  0  0  0  0  0
  152.9885  139.0589  156.3286 N   0  0  0  0  0  0  0  0  0  0  0  0
  151.5005  142.7824  158.9530 H   0  0  0  0  0  0  0  0  0  0  0  0
  152.6203  141.5239  159.4756 H   0  0  0  0  0  0  0  0  0  0  0  0
  150.9127  141.4500  159.9477 H   0  0  0  0  0  0  0  0  0  0  0  0
  152.1727  139.3651  158.8840 H   0  0  0  0  0  0  0  0  0  0  0  0
  150.4624  139.1916  158.5126 H   0  0  0  0  0  0  0  0  0  0  0  0
  149.8621  137.8079  156.6872 H   0  0  0  0  0  0  0  0  0  0  0  0
  150.4024  136.2619  153.5106 H   0  0  0  0  0  0  0  0  0  0  0  0
  148.7663  135.0250  153.2367 H   0  0  0  0  0  0  0  0  0  0  0  0
  147.2152  134.2476  155.6480 H   0  0  0  0  0  0  0  0  0  0  0  0
  148.4105  132.3862  154.4668 H   0  0  0  0  0  0  0  0  0  0  0  0
  146.6785  132.1921  154.5179 H   0  0  0  0  0  0  0  0  0  0  0  0
  148.2977  133.1716  152.1178 H   0  0  0  0  0  0  0  0  0  0  0  0
  147.4891  131.6322  152.2656 H   0  0  0  0  0  0  0  0  0  0  0  0
  146.1603  133.2335  150.8989 H   0  0  0  0  0  0  0  0  0  0  0  0
  145.2815  132.7237  152.3189 H   0  0  0  0  0  0  0  0  0  0  0  0
  146.8249  135.3358  152.0162 H   0  0  0  0  0  0  0  0  0  0  0  0
  145.1598  134.3841  154.3859 H   0  0  0  0  0  0  0  0  0  0  0  0
  145.9520  135.9292  154.2687 H   0  0  0  0  0  0  0  0  0  0  0  0
  154.2540  138.5654  154.7812 H   0  0  0  0  0  0  0  0  0  0  0  0
  1  2  1  0  0  0  0
  1 24  1  0  0  0  0
  1 25  1  0  0  0  0
  1 26  1  0  0  0  0
  2  3  1  0  0  0  0
  3  4  1  0  0  0  0
  3 27  1  0  0  0  0
  3 28  1  0  0  0  0
  4 23  1  0  0  0  0
  4  5  2  0  0  0  0
  5  6  1  0  0  0  0
  5 29  1  0  0  0  0
  6  7  1  0  0  0  0
  6 21  2  0  0  0  0
  7  8  1  0  0  0  0
  7 30  1  0  0  0  0
  8  9  2  0  0  0  0
  8 10  1  0  0  0  0
 10 11  1  0  0  0  0
 10 31  1  0  0  0  0
 11 20  1  0  0  0  0
 11 12  1  0  0  0  0
 11 32  1  0  0  0  0
 12 13  1  0  0  0  0
 12 33  1  0  0  0  0
 12 34  1  0  0  0  0
 13 14  1  0  0  0  0
 13 35  1  0  0  0  0
 13 36  1  0  0  0  0
 14 15  1  0  0  0  0
 14 37  1  0  0  0  0
 14 38  1  0  0  0  0
 15 16  1  0  0  0  0
 15 20  1  0  0  0  0
 15 39  1  0  0  0  0
 16 17  1  0  0  0  0
 16 18  1  0  0  0  0
 16 19  1  0  0  0  0
 20 40  1  0  0  0  0
 20 41  1  0  0  0  0
 21 22  1  0  0  0  0
 22 23  2  0  0  0  0
 22 42  1  0  0  0  0
M  END
> <s_m_source_file>
AV-unprocessed.smi

> <i_m_source_file_index>
2454

> <i_lp_mmshare_version>
43012

> <i_f3d_flags>
0

> <s_epik_input>
W0NIM11PW0NIMl1jMVtjSF1jKG5bY0hdbjEpW05IXUMoPU8pW05IXVtDQEBIXTJbQ0gyXVtDSDJdW0NIMl1bQ0BASF0oQyhGKShGKUYpW0NIMl0y

> <s_epik_cmdline>
J2VwaWtfcHl0aG9uJywgJy1waCcsICc3LjAnLCAnLXRuJywgJzgnLCAnLW1hJywgJzIwMCcsICctbWV0YWxfYmluZGluZycsICctaW1hZScsICc8aW5maWxlLm1hZT4nLCAnLW9tYWUnLCAnPG91dGZpbGUubWFlPic=

> <r_lp_tautomer_probability>
1

> <r_epik_Ionization_Penalty>
3.01554e-05

> <r_epik_Ionization_Penalty_Charging>
0

> <r_epik_Ionization_Penalty_Neutral>
3.01554e-05

> <r_epik_State_Penalty>
-0

> <r_epik_Charging_Adjusted_Penalty>
0

> <i_epik_Tot_Q>
0

> <i_epik_Tot_abs_Q>
0

> <r_epik_Metal_State_Penalty>
-0

> <b_epik_Metal_Only>
0

> <s_lp_Force_Field>
OPLS_2005

> <r_lp_Energy>
13.8487

> <b_lp_Chiralities_Consistent>
1

> <s_lp_Variant>
AV-unprocessed.smi:2454-1

> <Gold.Version>
5.8.1

> <Gold.Id.Protein>
6NUR|6NUR_protein|mol2

> <Gold.PLP.Fitness>
39.0486

> <Gold.PLP.PLP>
-32.4878

> <Gold.PLP.part.hbond>
-4.8842

> <Gold.PLP.part.metal>
0.0000

> <Gold.PLP.part.buried>
-3.0323

> <Gold.PLP.part.nonpolar>
-25.9638

> <Gold.PLP.part.repulsive>
0.2099

> <Gold.PLP.ligand.clash>
0.0000

> <Gold.PLP.ligand.torsion>
0.4244

> <Gold.PLP.Chemscore.Hbond>
2.4610

> <Gold.PLP.Chemscore.CHOScore>
0.0000

> <Gold.PLP.Chemscore.Metal>
0.0000

> <Gold.Chemscore.Hbonds>
donor molecule, donor type, donor heavy atom, donor atom, acceptor molecule, acceptor atom, score
      L1  H     7    30       P1  7949  0.13
      L1  H    10    31       P1  7948  0.78
      P1  H  7997  8008       L1    23  1.00
      P1  H 10752 10764       L1    21  0.44

> <Gold.PLP.Chemscore.Internal.Correction>
0.0266

> <Gold.Rescore>
     Score         DG    S(hbond)    S(metal)    S(lipo)     H(rot)  DE(clash)    DE(int)     intcor
     11.23     -13.20       1.99        0.00      44.10       1.60       0.01       1.96       ----

> <Gold.Chemscore.Fitness>
11.2305

> <Gold.Chemscore.DG>
-13.1962

> <Gold.Chemscore.ZeroCoef>
-5.4800

> <Gold.Chemscore.Hbond>
1.9945

> <Gold.Chemscore.Metal>
0.0000

> <Gold.Chemscore.Lipo>
44.0992

> <Gold.Chemscore.Internal_Hbond>
0.0000

> <Gold.Chemscore.DEClash>
0.0087

> <Gold.Chemscore.DEInternal>
1.9570

> <Gold.Chemscore.Rot>
1.6035

> <Gold.Chemscore.Internal.Correction>
   9.000000E+99

> <Gold.Chemscore.Hbonds>
donor molecule, donor type, donor heavy atom, donor atom, acceptor molecule, acceptor atom, score
      L1  H    10    31       P1  7948  0.39
      P1  H  7997  8008       L1    23  0.45
      P1  H 10752 10764       L1    21  0.22

> <Gold.Chemscore.Hbond.Weighted>
-6.6617

> <Gold.Chemscore.Metal.Weighted>
-0.0000

> <Gold.Chemscore.Lipo.Weighted>
-5.1596

> <Gold.Chemscore.Internal_Hbond.Weighted>
0.0000

> <Gold.Chemscore.DEClash.Weighted>
0.0087

> <Gold.Chemscore.DEInternal.Weighted>
1.9570

> <Gold.Chemscore.Rot.Weighted>
4.1050

> <Gold.Chemscore.Internal.Correction.Weighted>
   9.000000E+99

> <Gold.Protein.RotatedTorsions>
[ 6907 6896 6895 6894 ] final  -76.29 input  -60.11 | X-H torsion
[ 7974 7965 7964 7962 ] final   65.76 input  175.53 | X-H torsion
[ 8008 7997 7996 7995 ] final  -57.76 input   59.86 | X-H torsion
[ 10167 10162 10161 10158 ] final   56.68 input  -65.29 | X-H torsion
[ 10718 10713 10712 10709 ] final  129.55 input   66.30 | X-H torsion
[ 10763 10752 10751 10750 ] final -105.52 input  -60.55 | X-H torsion
[ 11005 11000 10999 10996 ] final   74.17 input  -57.11 | X-H torsion

> <Gold.Protein.ActiveResidues>
 VAL166  LYS551  ARG553  GLY616  TRP617  ASP618  TYR619  PRO620  LYS621  CYS622 
 ASP623  PHE694  ASN695  SER759  ASP760  ASP761  ALA762  ILE779  LEU786  VAL792 
 PHE793  MET794  SER795  GLU796  ALA797  LYS798  CYS799  TRP800  GLU811  SER814 

> <Gold.Protein.RotatedAtoms>
  150.7032  134.4594  159.5372 H   0  0  0  0  0  0  0  0  0  0  0  0  # atno 6907 bound_to 6896
  152.2271  134.8355  160.0487 H   0  0  0  0  0  0  0  0  0  0  0  0  # atno 6908 bound_to 6896
  151.9184  133.3544  159.3925 H   0  0  0  0  0  0  0  0  0  0  0  0  # atno 6909 bound_to 6896
  145.8347  139.3159  143.0967 H   0  0  0  0  0  0  0  0  0  0  0  0  # atno 7974 bound_to 7965
  154.4281  140.1099  156.5848 H   0  0  0  0  0  0  0  0  0  0  0  0  # atno 8008 bound_to 7997
  155.6074  140.3494  155.4593 H   0  0  0  0  0  0  0  0  0  0  0  0  # atno 8009 bound_to 7997
  156.0126  140.1222  157.0428 H   0  0  0  0  0  0  0  0  0  0  0  0  # atno 8010 bound_to 7997
  140.2062  144.3937  150.6508 H   0  0  0  0  0  0  0  0  0  0  0  0  # atno 10167 bound_to 10162
  157.5144  131.1097  150.9246 H   0  0  0  0  0  0  0  0  0  0  0  0  # atno 10718 bound_to 10713
  154.7952  135.4746  154.0144 H   0  0  0  0  0  0  0  0  0  0  0  0  # atno 10763 bound_to 10752
  153.1692  135.6822  153.8639 H   0  0  0  0  0  0  0  0  0  0  0  0  # atno 10764 bound_to 10752
  153.8227  135.3202  155.3389 H   0  0  0  0  0  0  0  0  0  0  0  0  # atno 10765 bound_to 10752
  139.9404  134.7410  156.1115 H   0  0  0  0  0  0  0  0  0  0  0  0  # atno 11005 bound_to 11000
  145.9532  140.8892  143.0248 LP  0  0  0  0  0  0  0  0  0  0  0  0  # atno 17320 bound_to 7965
  144.6737  140.1709  143.7414 LP  0  0  0  0  0  0  0  0  0  0  0  0  # atno 17321 bound_to 7965
  140.6356  143.2194  151.6402 LP  0  0  0  0  0  0  0  0  0  0  0  0  # atno 17342 bound_to 10162
  139.5198  144.3243  152.0883 LP  0  0  0  0  0  0  0  0  0  0  0  0  # atno 17343 bound_to 10162
  156.9876  130.5551  149.5301 LP  0  0  0  0  0  0  0  0  0  0  0  0  # atno 17370 bound_to 10713
  156.0310  130.5402  150.8535 LP  0  0  0  0  0  0  0  0  0  0  0  0  # atno 17371 bound_to 10713
  141.1036  133.6668  156.2811 LP  0  0  0  0  0  0  0  0  0  0  0  0  # atno 17394 bound_to 11000
  140.5967  134.5596  157.5510 LP  0  0  0  0  0  0  0  0  0  0  0  0  # atno 17395 bound_to 11000

$$$$
