AV-unprocessed.smi:2830|AV-procd|sdf|10906|dock4
  -GOLD-   2272015353D 1   1.00000     0.00000
 Structure written by MMmdl.
 28 28  0  0  0  0  0  0  0  0  1 V2000
  146.5206  142.6173  154.1339 C   0  0  0  0  0  0  0  0  0  0  0  0
  146.4475  141.2025  154.1229 O   0  0  0  0  0  0  0  0  0  0  0  0
  147.5415  140.6046  153.4436 C   0  0  0  0  0  0  0  0  0  0  0  0
  147.3354  139.0809  153.3520 C   0  0  2  0  0  0  0  0  0  0  0  0
  148.6360  138.4135  153.3351 N   0  0  0  0  0  0  0  0  0  0  0  0
  149.5914  138.6203  154.3424 C   0  0  0  0  0  0  0  0  0  0  0  0
  150.9059  138.1557  154.1253 C   0  0  0  0  0  0  0  0  0  0  0  0
  151.8752  138.3622  155.1262 C   0  0  0  0  0  0  0  0  0  0  0  0
  151.4976  139.0280  156.3087 C   0  0  0  0  0  0  0  0  0  0  0  0
  152.4609  139.2668  157.3694 C   0  0  0  0  0  0  0  0  0  0  0  0
  153.2284  139.4569  158.2142 N   0  0  0  0  0  0  0  0  0  0  0  0
  150.1613  139.4579  156.4356 C   0  0  0  0  0  0  0  0  0  0  0  0
  149.2284  139.2628  155.4789 N   0  0  0  0  0  0  0  0  0  0  0  0
  146.4681  138.7357  152.1297 C   0  0  0  0  0  0  0  0  0  0  0  0
  145.1898  138.4253  152.3596 N   0  0  0  0  0  0  0  0  0  0  0  0
  146.9400  138.7607  150.9939 O   0  0  0  0  0  0  0  0  0  0  0  0
  145.6638  143.0241  154.6707 H   0  0  0  0  0  0  0  0  0  0  0  0
  146.5051  143.0207  153.1206 H   0  0  0  0  0  0  0  0  0  0  0  0
  147.4258  142.9621  154.6354 H   0  0  0  0  0  0  0  0  0  0  0  0
  147.6595  141.0401  152.4493 H   0  0  0  0  0  0  0  0  0  0  0  0
  148.4569  140.8197  153.9978 H   0  0  0  0  0  0  0  0  0  0  0  0
  146.8101  138.7731  154.2578 H   0  0  0  0  0  0  0  0  0  0  0  0
  148.7352  137.6037  152.7404 H   0  0  0  0  0  0  0  0  0  0  0  0
  151.1705  137.6476  153.2093 H   0  0  0  0  0  0  0  0  0  0  0  0
  152.8879  138.0141  154.9824 H   0  0  0  0  0  0  0  0  0  0  0  0
  149.8264  139.9730  157.3246 H   0  0  0  0  0  0  0  0  0  0  0  0
  144.5827  138.1890  151.5882 H   0  0  0  0  0  0  0  0  0  0  0  0
  144.8361  138.4256  153.3052 H   0  0  0  0  0  0  0  0  0  0  0  0
  1  2  1  0  0  0  0
  1 17  1  0  0  0  0
  1 18  1  0  0  0  0
  1 19  1  0  0  0  0
  2  3  1  0  0  0  0
  3  4  1  0  0  0  0
  3 20  1  0  0  0  0
  3 21  1  0  0  0  0
  4  5  1  0  0  0  0
  4 14  1  0  0  0  0
  4 22  1  0  0  0  0
  5  6  1  0  0  0  0
  5 23  1  0  0  0  0
  6 13  1  0  0  0  0
  6  7  2  0  0  0  0
  7  8  1  0  0  0  0
  7 24  1  0  0  0  0
  8  9  2  0  0  0  0
  8 25  1  0  0  0  0
  9 10  1  0  0  0  0
  9 12  1  0  0  0  0
 10 11  3  0  0  0  0
 12 13  2  0  0  0  0
 12 26  1  0  0  0  0
 14 15  1  0  0  0  0
 14 16  2  0  0  0  0
 15 27  1  0  0  0  0
 15 28  1  0  0  0  0
M  END
> <s_m_source_file>
AV-unprocessed.smi

> <i_m_source_file_index>
2830

> <i_lp_mmshare_version>
43012

> <i_f3d_flags>
0

> <s_epik_input>
W0NIM11PW0NIMl1bQ0BASF0oQyg9TylbTkgyXSlbTkhdYzFbY0hdW2NIXWMoQyNOKVtjSF1uMQ==

> <s_epik_cmdline>
J2VwaWtfcHl0aG9uJywgJy1waCcsICc3LjAnLCAnLXRuJywgJzgnLCAnLW1hJywgJzIwMCcsICctbWV0YWxfYmluZGluZycsICctaW1hZScsICc8aW5maWxlLm1hZT4nLCAnLW9tYWUnLCAnPG91dGZpbGUubWFlPic=

> <r_lp_tautomer_probability>
1

> <r_epik_Ionization_Penalty>
4.37908e-06

> <r_epik_Ionization_Penalty_Charging>
0

> <r_epik_Ionization_Penalty_Neutral>
4.37908e-06

> <r_epik_State_Penalty>
-0

> <r_epik_Charging_Adjusted_Penalty>
0

> <i_epik_Tot_Q>
0

> <i_epik_Tot_abs_Q>
0

> <r_epik_Metal_State_Penalty>
-0

> <b_epik_Metal_Only>
0

> <s_lp_Force_Field>
OPLS_2005

> <r_lp_Energy>
0.179783

> <b_lp_Chiralities_Consistent>
1

> <s_lp_Variant>
AV-unprocessed.smi:2830-1

> <Gold.Version>
5.8.1

> <Gold.Id.Protein>
6NUR|6NUR_protein|mol2

> <Gold.PLP.Fitness>
39.1199

> <Gold.PLP.PLP>
-28.8870

> <Gold.PLP.part.hbond>
-6.0000

> <Gold.PLP.part.metal>
0.0000

> <Gold.PLP.part.buried>
-2.9177

> <Gold.PLP.part.nonpolar>
-21.9994

> <Gold.PLP.part.repulsive>
1.5971

> <Gold.PLP.ligand.clash>
0.0000

> <Gold.PLP.ligand.torsion>
0.7526

> <Gold.PLP.Chemscore.Hbond>
3.8880

> <Gold.PLP.Chemscore.CHOScore>
0.0000

> <Gold.PLP.Chemscore.Metal>
0.0000

> <Gold.Chemscore.Hbonds>
donor molecule, donor type, donor heavy atom, donor atom, acceptor molecule, acceptor atom, score
      L1  H     5    23       P1  7948  1.00
      L1  H    15    27       P1 10171  0.99
      P1  H  7954  7966       L1    16  0.91
      P1  H  7997  8008       L1    11  0.95

> <Gold.PLP.Chemscore.Internal.Correction>
0.0740

> <Gold.Rescore>
     Score         DG    S(hbond)    S(metal)    S(lipo)     H(rot)  DE(clash)    DE(int)     intcor
     15.21     -16.19       3.34        0.00      46.99       2.32       0.24       0.74       ----

> <Gold.Chemscore.Fitness>
15.2054

> <Gold.Chemscore.DG>
-16.1865

> <Gold.Chemscore.ZeroCoef>
-5.4800

> <Gold.Chemscore.Hbond>
3.3374

> <Gold.Chemscore.Metal>
0.0000

> <Gold.Chemscore.Lipo>
46.9920

> <Gold.Chemscore.Internal_Hbond>
0.0000

> <Gold.Chemscore.DEClash>
0.2415

> <Gold.Chemscore.DEInternal>
0.7396

> <Gold.Chemscore.Rot>
2.3197

> <Gold.Chemscore.Internal.Correction>
   9.000000E+99

> <Gold.Chemscore.Hbonds>
donor molecule, donor type, donor heavy atom, donor atom, acceptor molecule, acceptor atom, score
      L1  H     5    23       P1  7948  0.99
      L1  H    15    27       P1 10171  0.93
      P1  H  7954  7966       L1    16  0.88
      P1  H  7997  8008       L1    11  0.21

> <Gold.Chemscore.Hbond.Weighted>
-11.1468

> <Gold.Chemscore.Metal.Weighted>
-0.0000

> <Gold.Chemscore.Lipo.Weighted>
-5.4981

> <Gold.Chemscore.Internal_Hbond.Weighted>
0.0000

> <Gold.Chemscore.DEClash.Weighted>
0.2415

> <Gold.Chemscore.DEInternal.Weighted>
0.7396

> <Gold.Chemscore.Rot.Weighted>
5.9384

> <Gold.Chemscore.Internal.Correction.Weighted>
   9.000000E+99

> <Gold.Protein.RotatedTorsions>
[ 6907 6896 6895 6894 ] final  -30.54 input  -60.11 | X-H torsion
[ 7974 7965 7964 7962 ] final    5.84 input  175.53 | X-H torsion
[ 8008 7997 7996 7995 ] final  -95.21 input   59.86 | X-H torsion
[ 10167 10162 10161 10158 ] final  145.77 input  -65.29 | X-H torsion
[ 10718 10713 10712 10709 ] final  106.01 input   66.30 | X-H torsion
[ 10763 10752 10751 10750 ] final   67.29 input  -60.55 | X-H torsion
[ 11005 11000 10999 10996 ] final -128.51 input  -57.11 | X-H torsion

> <Gold.Protein.ActiveResidues>
 VAL166  LYS551  ARG553  GLY616  TRP617  ASP618  TYR619  PRO620  LYS621  CYS622 
 ASP623  PHE694  ASN695  SER759  ASP760  ASP761  ALA762  ILE779  LEU786  VAL792 
 PHE793  MET794  SER795  GLU796  ALA797  LYS798  CYS799  TRP800  GLU811  SER814 

> <Gold.Protein.RotatedAtoms>
  151.1041  134.9989  159.8462 H   0  0  0  0  0  0  0  0  0  0  0  0  # atno 6907 bound_to 6896
  152.5439  134.1914  159.8685 H   0  0  0  0  0  0  0  0  0  0  0  0  # atno 6908 bound_to 6896
  151.1960  133.4595  159.2629 H   0  0  0  0  0  0  0  0  0  0  0  0  # atno 6909 bound_to 6896
  146.2438  140.0324  142.8388 H   0  0  0  0  0  0  0  0  0  0  0  0  # atno 7974 bound_to 7965
  154.7585  140.0482  157.0953 H   0  0  0  0  0  0  0  0  0  0  0  0  # atno 8008 bound_to 7997
  154.9968  140.3120  155.4864 H   0  0  0  0  0  0  0  0  0  0  0  0  # atno 8009 bound_to 7997
  156.2899  140.2208  156.5076 H   0  0  0  0  0  0  0  0  0  0  0  0  # atno 8010 bound_to 7997
  139.4919  144.5877  151.6744 H   0  0  0  0  0  0  0  0  0  0  0  0  # atno 10167 bound_to 10162
  157.6684  131.0841  150.5942 H   0  0  0  0  0  0  0  0  0  0  0  0  # atno 10718 bound_to 10713
  153.0179  135.5289  154.6957 H   0  0  0  0  0  0  0  0  0  0  0  0  # atno 10763 bound_to 10752
  154.6080  135.2875  155.0466 H   0  0  0  0  0  0  0  0  0  0  0  0  # atno 10764 bound_to 10752
  154.1498  135.6564  153.5013 H   0  0  0  0  0  0  0  0  0  0  0  0  # atno 10765 bound_to 10752
  140.9510  134.1065  157.4062 H   0  0  0  0  0  0  0  0  0  0  0  0  # atno 11005 bound_to 11000
  145.1143  140.9424  143.4638 LP  0  0  0  0  0  0  0  0  0  0  0  0  # atno 17320 bound_to 7965
  145.0545  139.3155  143.5912 LP  0  0  0  0  0  0  0  0  0  0  0  0  # atno 17321 bound_to 7965
  140.5497  144.0445  150.6122 LP  0  0  0  0  0  0  0  0  0  0  0  0  # atno 17342 bound_to 10162
  140.3495  143.2971  152.0502 LP  0  0  0  0  0  0  0  0  0  0  0  0  # atno 17343 bound_to 10162
  156.6243  130.4414  149.5810 LP  0  0  0  0  0  0  0  0  0  0  0  0  # atno 17370 bound_to 10713
  156.2331  130.6806  151.1483 LP  0  0  0  0  0  0  0  0  0  0  0  0  # atno 17371 bound_to 10713
  139.8847  135.0066  156.6389 LP  0  0  0  0  0  0  0  0  0  0  0  0  # atno 17394 bound_to 11000
  140.7602  133.8823  155.8413 LP  0  0  0  0  0  0  0  0  0  0  0  0  # atno 17395 bound_to 11000

$$$$
