AV-unprocessed.smi:287|AV-procd|sdf|2193|dock3
  -GOLD-   2262021593D 1   1.00000     0.00000
 Structure written by MMmdl.
 55 58  0  0  0  0  0  0  0  0  1 V2000
  157.4251  137.7480  161.4261 C   0  0  0  0  0  0  0  0  0  0  0  0
  157.3750  137.2379  160.0269 C   0  0  0  0  0  0  0  0  0  0  0  0
  156.6743  137.6013  158.9139 C   0  0  0  0  0  0  0  0  0  0  0  0
  157.0552  136.7152  157.8620 C   0  0  0  0  0  0  0  0  0  0  0  0
  156.5312  136.7429  156.4324 C   0  0  1  0  0  0  0  0  0  0  0  0
  157.6725  137.1054  155.4679 C   0  0  0  0  0  0  0  0  0  0  0  0
  156.0569  135.4832  155.9976 O   0  0  0  0  0  0  0  0  0  0  0  0
  155.3507  137.7242  156.2509 C   0  0  0  0  0  0  0  0  0  0  0  0
  154.1896  137.3710  157.0577 N   0  0  0  0  0  0  0  0  0  0  0  0
  153.0623  138.1104  157.0090 C   0  0  0  0  0  0  0  0  0  0  0  0
  152.9971  139.1328  157.8954 N   0  0  0  0  0  0  0  0  0  0  0  0
  151.9269  139.9320  157.9231 C   0  0  0  0  0  0  0  0  0  0  0  0
  150.8300  139.8837  157.1651 N   0  0  0  0  0  0  0  0  0  0  0  0
  150.8860  138.8514  156.2754 C   0  0  0  0  0  0  0  0  0  0  0  0
  151.9557  137.9232  156.1281 C   0  0  0  0  0  0  0  0  0  0  0  0
  151.6409  137.0226  155.1146 N   0  0  0  0  0  0  0  0  0  0  0  0
  150.4652  137.4031  154.6924 C   0  0  0  0  0  0  0  0  0  0  0  0
  149.9409  138.4997  155.3389 N   0  0  0  0  0  0  0  0  0  0  0  0
  148.6434  139.2020  155.1060 C   0  0  2  0  0  0  0  0  0  0  0  0
  147.9116  138.4965  154.1631 O   0  0  0  0  0  0  0  0  0  0  0  0
  146.9174  139.3747  153.6559 C   0  0  2  0  0  0  0  0  0  0  0  0
  146.4567  138.8838  152.2752 C   0  0  0  0  0  0  0  0  0  0  0  0
  147.5665  138.4665  151.5085 O   0  0  0  0  0  0  0  0  0  0  0  0
  147.5799  140.7686  153.6515 C   0  0  1  0  0  0  0  0  0  0  0  0
  146.6980  141.7134  154.2254 O   0  0  0  0  0  0  0  0  0  0  0  0
  148.8244  140.6119  154.5273 C   0  0  2  0  0  0  0  0  0  0  0  0
  150.0045  140.7497  153.7555 O   0  0  0  0  0  0  0  0  0  0  0  0
  157.9873  135.8792  158.4286 C   0  0  0  0  0  0  0  0  0  0  0  0
  158.8076  134.7416  157.9160 C   0  0  0  0  0  0  0  0  0  0  0  0
  158.1832  136.1864  159.7414 O   0  0  0  0  0  0  0  0  0  0  0  0
  148.1258  139.1920  156.0669 H   0  0  0  0  0  0  0  0  0  0  0  0
  146.0840  139.3436  154.3615 H   0  0  0  0  0  0  0  0  0  0  0  0
  147.8416  141.0900  152.6420 H   0  0  0  0  0  0  0  0  0  0  0  0
  148.8666  141.3289  155.3486 H   0  0  0  0  0  0  0  0  0  0  0  0
  156.6139  138.4519  161.6128 H   0  0  0  0  0  0  0  0  0  0  0  0
  158.3684  138.2598  161.6173 H   0  0  0  0  0  0  0  0  0  0  0  0
  157.3323  136.9296  162.1404 H   0  0  0  0  0  0  0  0  0  0  0  0
  155.9610  138.4103  158.8602 H   0  0  0  0  0  0  0  0  0  0  0  0
  158.0876  138.0873  155.6989 H   0  0  0  0  0  0  0  0  0  0  0  0
  157.3295  137.1313  154.4327 H   0  0  0  0  0  0  0  0  0  0  0  0
  158.4875  136.3828  155.5281 H   0  0  0  0  0  0  0  0  0  0  0  0
  156.5236  134.8095  156.4680 H   0  0  0  0  0  0  0  0  0  0  0  0
  155.6738  138.7164  156.5690 H   0  0  0  0  0  0  0  0  0  0  0  0
  155.0729  137.8033  155.1992 H   0  0  0  0  0  0  0  0  0  0  0  0
  154.3319  136.6232  157.7213 H   0  0  0  0  0  0  0  0  0  0  0  0
  151.9547  140.7243  158.6569 H   0  0  0  0  0  0  0  0  0  0  0  0
  149.9509  136.8947  153.8896 H   0  0  0  0  0  0  0  0  0  0  0  0
  145.7413  138.0660  152.3670 H   0  0  0  0  0  0  0  0  0  0  0  0
  145.9571  139.6905  151.7383 H   0  0  0  0  0  0  0  0  0  0  0  0
  148.2270  139.1416  151.5429 H   0  0  0  0  0  0  0  0  0  0  0  0
  146.5333  141.4633  155.1220 H   0  0  0  0  0  0  0  0  0  0  0  0
  149.7831  140.6082  152.8473 H   0  0  0  0  0  0  0  0  0  0  0  0
  159.3780  135.0432  157.0376 H   0  0  0  0  0  0  0  0  0  0  0  0
  158.1714  133.9020  157.6363 H   0  0  0  0  0  0  0  0  0  0  0  0
  159.5134  134.3913  158.6695 H   0  0  0  0  0  0  0  0  0  0  0  0
  1  2  1  0  0  0  0
  1 35  1  0  0  0  0
  1 36  1  0  0  0  0
  1 37  1  0  0  0  0
  2 30  1  0  0  0  0
  2  3  2  0  0  0  0
  3  4  1  0  0  0  0
  3 38  1  0  0  0  0
  4  5  1  0  0  0  0
  4 28  2  0  0  0  0
  5  6  1  0  0  0  0
  5  7  1  0  0  0  0
  5  8  1  0  0  0  0
  6 39  1  0  0  0  0
  6 40  1  0  0  0  0
  6 41  1  0  0  0  0
  7 42  1  0  0  0  0
  8  9  1  0  0  0  0
  8 43  1  0  0  0  0
  8 44  1  0  0  0  0
  9 10  1  0  0  0  0
  9 45  1  0  0  0  0
 10 15  1  0  0  0  0
 10 11  2  0  0  0  0
 11 12  1  0  0  0  0
 12 13  2  0  0  0  0
 12 46  1  0  0  0  0
 13 14  1  0  0  0  0
 14 18  1  0  0  0  0
 14 15  2  0  0  0  0
 15 16  1  0  0  0  0
 16 17  2  0  0  0  0
 17 18  1  0  0  0  0
 17 47  1  0  0  0  0
 18 19  1  0  0  0  0
 19 31  1  0  0  0  0
 19 26  1  0  0  0  0
 19 20  1  0  0  0  0
 20 21  1  0  0  0  0
 21 32  1  0  0  0  0
 21 22  1  0  0  0  0
 21 24  1  0  0  0  0
 22 23  1  0  0  0  0
 22 48  1  0  0  0  0
 22 49  1  0  0  0  0
 23 50  1  0  0  0  0
 24 33  1  0  0  0  0
 24 25  1  0  0  0  0
 24 26  1  0  0  0  0
 25 51  1  0  0  0  0
 26 34  1  0  0  0  0
 26 27  1  0  0  0  0
 27 52  1  0  0  0  0
 28 29  1  0  0  0  0
 28 30  1  0  0  0  0
 29 53  1  0  0  0  0
 29 54  1  0  0  0  0
 29 55  1  0  0  0  0
M  END
> <s_m_source_file>
AV-unprocessed.smi

> <i_m_source_file_index>
287

> <i_lp_mmshare_version>
43012

> <i_f3d_flags>
0

> <s_epik_input>
W0NIM11jMVtjSF1jKGMobzEpW0NIM10pW0NAQF0oW0NIM10pKFtPSF0pW0NIMl1bTkhdYyhuW2NIXW4yKWMoYzIzKW5bY0hdbjNbQ0BASF00T1tDQEhdKFtDSDJdW09IXSlbQ0BASF0oW09IXSlbQ0BIXTRbT0hd

> <s_epik_cmdline>
J2VwaWtfcHl0aG9uJywgJy1waCcsICc3LjAnLCAnLXRuJywgJzgnLCAnLW1hJywgJzIwMCcsICctbWV0YWxfYmluZGluZycsICctaW1hZScsICc8aW5maWxlLm1hZT4nLCAnLW9tYWUnLCAnPG91dGZpbGUubWFlPic=

> <r_lp_tautomer_probability>
1

> <r_epik_Ionization_Penalty>
0.000992612

> <r_epik_Ionization_Penalty_Charging>
0

> <r_epik_Ionization_Penalty_Neutral>
0.000992612

> <r_epik_State_Penalty>
-0

> <r_epik_Charging_Adjusted_Penalty>
0

> <i_epik_Tot_Q>
0

> <i_epik_Tot_abs_Q>
0

> <r_epik_Metal_State_Penalty>
-0

> <b_epik_Metal_Only>
0

> <s_epik_Chemistry_Notes>
This compound contains an acetal/aminal-like group ( X-CH(R)-Y where X, Y are N, S, or O) that may be acid/base labile, releasing an aldehyde.

> <s_lp_Force_Field>
OPLS_2005

> <r_lp_Energy>
41.001

> <b_lp_Chiralities_Consistent>
1

> <s_lp_Variant>
AV-unprocessed.smi:287-17

> <Gold.Version>
5.8.1

> <Gold.Id.Protein>
6NUR|6NUR_protein|mol2

> <Gold.PLP.Fitness>
50.0683

> <Gold.PLP.PLP>
-31.3246

> <Gold.PLP.part.hbond>
-8.0244

> <Gold.PLP.part.metal>
0.0000

> <Gold.PLP.part.buried>
3.4901

> <Gold.PLP.part.nonpolar>
-27.3019

> <Gold.PLP.part.repulsive>
0.6126

> <Gold.PLP.ligand.clash>
0.0000

> <Gold.PLP.ligand.torsion>
1.1219

> <Gold.PLP.Chemscore.Hbond>
5.9696

> <Gold.PLP.Chemscore.CHOScore>
0.9727

> <Gold.PLP.Chemscore.Metal>
0.0000

> <Gold.Chemscore.Hbonds>
donor molecule, donor type, donor heavy atom, donor atom, acceptor molecule, acceptor atom, score
      L1  H    23    50       P1  7957  1.00
      L1  H    27    52       P1  7957  1.00
      P1  H  7954  7966       L1    23  0.55
      P1  H  7989  7998       L1    27  0.35
      P1  H  7997  8008       L1    11  0.55
      P1  H 10752 10764       L1    16  1.00
      P1  H 10752 10765       L1     7  1.00
      L1  C    17    47       P1  7948  1.00

> <Gold.PLP.Chemscore.Internal.Correction>
0.1608

> <Gold.Rescore>
     Score         DG    S(hbond)    S(metal)    S(lipo)     H(rot)  DE(clash)    DE(int)     intcor
      8.73     -11.55       3.79        0.00      59.01       5.27       1.47       1.35       ----

> <Gold.Chemscore.Fitness>
8.7321

> <Gold.Chemscore.DG>
-11.5465

> <Gold.Chemscore.ZeroCoef>
-5.4800

> <Gold.Chemscore.Hbond>
3.7864

> <Gold.Chemscore.Metal>
0.0000

> <Gold.Chemscore.Lipo>
59.0078

> <Gold.Chemscore.Internal_Hbond>
0.0000

> <Gold.Chemscore.DEClash>
1.4670

> <Gold.Chemscore.DEInternal>
1.3474

> <Gold.Chemscore.Rot>
5.2672

> <Gold.Chemscore.Internal.Correction>
   9.000000E+99

> <Gold.Chemscore.Hbonds>
donor molecule, donor type, donor heavy atom, donor atom, acceptor molecule, acceptor atom, score
      L1  H    23    50       P1  7957  0.87
      L1  H    27    52       P1  7957  1.00
      P1  H  7954  7966       L1    23  0.03
      P1  H  7989  7998       L1    27  0.04
      P1  H  7997  8008       L1    11  0.04
      P1  H 10752 10764       L1    16  0.85
      P1  H 10752 10765       L1     7  0.99

> <Gold.Chemscore.Hbond.Weighted>
-12.6465

> <Gold.Chemscore.Metal.Weighted>
-0.0000

> <Gold.Chemscore.Lipo.Weighted>
-6.9039

> <Gold.Chemscore.Internal_Hbond.Weighted>
0.0000

> <Gold.Chemscore.DEClash.Weighted>
1.4670

> <Gold.Chemscore.DEInternal.Weighted>
1.3474

> <Gold.Chemscore.Rot.Weighted>
13.4839

> <Gold.Chemscore.Internal.Correction.Weighted>
   9.000000E+99

> <Gold.Protein.RotatedTorsions>
[ 6907 6896 6895 6894 ] final  132.60 input  -60.11 | X-H torsion
[ 7974 7965 7964 7962 ] final   59.62 input  175.53 | X-H torsion
[ 8008 7997 7996 7995 ] final  -98.38 input   59.86 | X-H torsion
[ 10167 10162 10161 10158 ] final  118.88 input  -65.29 | X-H torsion
[ 10718 10713 10712 10709 ] final  -16.98 input   66.30 | X-H torsion
[ 10763 10752 10751 10750 ] final  -48.50 input  -60.55 | X-H torsion
[ 11005 11000 10999 10996 ] final   66.33 input  -57.11 | X-H torsion

> <Gold.Protein.ActiveResidues>
 VAL166  LYS551  ARG553  GLY616  TRP617  ASP618  TYR619  PRO620  LYS621  CYS622 
 ASP623  PHE694  ASN695  SER759  ASP760  ASP761  ALA762  ILE779  LEU786  VAL792 
 PHE793  MET794  SER795  GLU796  ALA797  LYS798  CYS799  TRP800  GLU811  SER814 

> <Gold.Protein.RotatedAtoms>
  152.3307  133.5955  159.5807 H   0  0  0  0  0  0  0  0  0  0  0  0  # atno 6907 bound_to 6896
  150.7421  133.9873  159.3604 H   0  0  0  0  0  0  0  0  0  0  0  0  # atno 6908 bound_to 6896
  151.7748  135.0778  160.0416 H   0  0  0  0  0  0  0  0  0  0  0  0  # atno 6909 bound_to 6896
  145.9051  139.3611  143.0569 H   0  0  0  0  0  0  0  0  0  0  0  0  # atno 7974 bound_to 7965
  154.8004  140.0455  157.1268 H   0  0  0  0  0  0  0  0  0  0  0  0  # atno 8008 bound_to 7997
  154.9485  140.3062  155.5066 H   0  0  0  0  0  0  0  0  0  0  0  0  # atno 8009 bound_to 7997
  156.2961  140.2292  156.4561 H   0  0  0  0  0  0  0  0  0  0  0  0  # atno 8010 bound_to 7997
  139.6082  144.7075  151.2904 H   0  0  0  0  0  0  0  0  0  0  0  0  # atno 10167 bound_to 10162
  156.5799  130.4771  149.6325 H   0  0  0  0  0  0  0  0  0  0  0  0  # atno 10718 bound_to 10713
  154.0788  135.6594  153.4835 H   0  0  0  0  0  0  0  0  0  0  0  0  # atno 10763 bound_to 10752
  153.0363  135.5175  154.7494 H   0  0  0  0  0  0  0  0  0  0  0  0  # atno 10764 bound_to 10752
  154.6583  135.3011  154.9867 H   0  0  0  0  0  0  0  0  0  0  0  0  # atno 10765 bound_to 10752
  139.9838  134.6700  156.0213 H   0  0  0  0  0  0  0  0  0  0  0  0  # atno 11005 bound_to 11000
  145.8742  140.9402  143.0635 LP  0  0  0  0  0  0  0  0  0  0  0  0  # atno 17320 bound_to 7965
  144.6738  140.0694  143.7473 LP  0  0  0  0  0  0  0  0  0  0  0  0  # atno 17321 bound_to 7965
  140.7300  143.6892  150.7936 LP  0  0  0  0  0  0  0  0  0  0  0  0  # atno 17342 bound_to 10162
  140.0481  143.5277  152.2686 LP  0  0  0  0  0  0  0  0  0  0  0  0  # atno 17343 bound_to 10162
  156.2641  130.6979  151.1756 LP  0  0  0  0  0  0  0  0  0  0  0  0  # atno 17370 bound_to 10713
  157.7329  131.0596  150.5605 LP  0  0  0  0  0  0  0  0  0  0  0  0  # atno 17371 bound_to 10713
  141.1507  133.6549  156.4003 LP  0  0  0  0  0  0  0  0  0  0  0  0  # atno 17394 bound_to 11000
  140.5042  134.6456  157.5260 LP  0  0  0  0  0  0  0  0  0  0  0  0  # atno 17395 bound_to 11000

$$$$
