AV-unprocessed.smi:355|AV-procd|sdf|2407|dock10
  -GOLD-   2262022343D 1   1.00000     0.00000
 Structure written by MMmdl.
 39 40  0  0  0  0  0  0  0  0  1 V2000
  145.3336  133.0688  161.7678 C   0  0  0  0  0  0  0  0  0  0  0  0
  146.3434  134.1534  161.4537 C   0  0  0  0  0  0  0  0  0  0  0  0
  146.5262  135.2296  162.3446 C   0  0  0  0  0  0  0  0  0  0  0  0
  147.4651  136.2349  162.0489 C   0  0  0  0  0  0  0  0  0  0  0  0
  148.2205  136.1665  160.8630 C   0  0  0  0  0  0  0  0  0  0  0  0
  148.0473  135.0990  159.9585 C   0  0  0  0  0  0  0  0  0  0  0  0
  148.8274  135.1120  158.8228 O   0  0  0  0  0  0  0  0  0  0  0  0
  148.6295  134.0914  157.8546 C   0  0  0  0  0  0  0  0  0  0  0  0
  149.8452  134.0127  156.9094 C   0  0  0  0  0  0  0  0  0  0  0  0
  149.5561  133.2378  155.6784 N   0  0  0  0  0  0  0  0  0  0  0  0
  150.0678  131.9091  155.5322 C   0  0  0  0  0  0  0  0  0  0  0  0
  150.9768  131.3215  156.6223 C   0  0  0  0  0  0  0  0  0  0  0  0
  151.3615  130.0823  156.3133 F   0  0  0  0  0  0  0  0  0  0  0  0
  152.0878  132.0470  156.7545 F   0  0  0  0  0  0  0  0  0  0  0  0
  150.3615  131.2439  157.8015 F   0  0  0  0  0  0  0  0  0  0  0  0
  149.7566  131.1893  154.4383 C   0  0  0  0  0  0  0  0  0  0  0  0
  148.9206  131.7527  153.4153 C   0  0  0  0  0  0  0  0  0  0  0  0
  148.4534  133.0170  153.5239 C   0  0  0  0  0  0  0  0  0  0  0  0
  147.5901  133.6411  152.4947 C   0  0  0  0  0  0  0  0  0  0  0  0
  147.6232  133.0292  151.3042 N   0  0  0  0  0  0  0  0  0  0  0  0
  146.8742  134.6334  152.6293 O   0  0  0  0  0  0  0  0  0  0  0  0
  148.7888  133.8464  154.7103 C   0  0  0  0  0  0  0  0  0  0  0  0
  148.4169  135.0147  154.8555 O   0  0  0  0  0  0  0  0  0  0  0  0
  147.0994  134.0897  160.2646 C   0  0  0  0  0  0  0  0  0  0  0  0
  145.1437  133.0082  162.8400 H   0  0  0  0  0  0  0  0  0  0  0  0
  145.6955  132.0956  161.4345 H   0  0  0  0  0  0  0  0  0  0  0  0
  144.3898  133.2761  161.2631 H   0  0  0  0  0  0  0  0  0  0  0  0
  145.9487  135.2877  163.2556 H   0  0  0  0  0  0  0  0  0  0  0  0
  147.6066  137.0599  162.7313 H   0  0  0  0  0  0  0  0  0  0  0  0
  148.9389  136.9426  160.6434 H   0  0  0  0  0  0  0  0  0  0  0  0
  148.5176  133.1330  158.3635 H   0  0  0  0  0  0  0  0  0  0  0  0
  147.7159  134.2797  157.2897 H   0  0  0  0  0  0  0  0  0  0  0  0
  150.1916  135.0216  156.6788 H   0  0  0  0  0  0  0  0  0  0  0  0
  150.6880  133.6022  157.4563 H   0  0  0  0  0  0  0  0  0  0  0  0
  150.1352  130.1869  154.3041 H   0  0  0  0  0  0  0  0  0  0  0  0
  148.6892  131.1250  152.5674 H   0  0  0  0  0  0  0  0  0  0  0  0
  147.0660  133.3803  150.5393 H   0  0  0  0  0  0  0  0  0  0  0  0
  148.2065  132.2147  151.1777 H   0  0  0  0  0  0  0  0  0  0  0  0
  146.9366  133.2544  159.6006 H   0  0  0  0  0  0  0  0  0  0  0  0
  1  2  1  0  0  0  0
  1 25  1  0  0  0  0
  1 26  1  0  0  0  0
  1 27  1  0  0  0  0
  2 24  1  0  0  0  0
  2  3  2  0  0  0  0
  3  4  1  0  0  0  0
  3 28  1  0  0  0  0
  4  5  2  0  0  0  0
  4 29  1  0  0  0  0
  5  6  1  0  0  0  0
  5 30  1  0  0  0  0
  6  7  1  0  0  0  0
  6 24  2  0  0  0  0
  7  8  1  0  0  0  0
  8  9  1  0  0  0  0
  8 31  1  0  0  0  0
  8 32  1  0  0  0  0
  9 10  1  0  0  0  0
  9 33  1  0  0  0  0
  9 34  1  0  0  0  0
 10 22  1  0  0  0  0
 10 11  1  0  0  0  0
 11 12  1  0  0  0  0
 11 16  2  0  0  0  0
 12 13  1  0  0  0  0
 12 14  1  0  0  0  0
 12 15  1  0  0  0  0
 16 17  1  0  0  0  0
 16 35  1  0  0  0  0
 17 18  2  0  0  0  0
 17 36  1  0  0  0  0
 18 19  1  0  0  0  0
 18 22  1  0  0  0  0
 19 20  1  0  0  0  0
 19 21  2  0  0  0  0
 20 37  1  0  0  0  0
 20 38  1  0  0  0  0
 22 23  2  0  0  0  0
 24 39  1  0  0  0  0
M  END
> <s_m_source_file>
AV-unprocessed.smi

> <i_m_source_file_index>
355

> <i_lp_mmshare_version>
43012

> <i_f3d_flags>
0

> <s_epik_input>
W0NIM11jMVtjSF1bY0hdW2NIXWMoW2NIXTEpT1tDSDJdW0NIMl1uMmMoQyhGKShGKUYpW2NIXVtjSF1jKGMyPU8pQyg9TylbTkgyXQ==

> <s_epik_cmdline>
J2VwaWtfcHl0aG9uJywgJy1waCcsICc3LjAnLCAnLXRuJywgJzgnLCAnLW1hJywgJzIwMCcsICctbWV0YWxfYmluZGluZycsICctaW1hZScsICc8aW5maWxlLm1hZT4nLCAnLW9tYWUnLCAnPG91dGZpbGUubWFlPic=

> <r_lp_tautomer_probability>
1

> <r_epik_Ionization_Penalty>
1.75992e-06

> <r_epik_Ionization_Penalty_Charging>
1.13667e-09

> <r_epik_Ionization_Penalty_Neutral>
1.75878e-06

> <r_epik_State_Penalty>
-0

> <r_epik_Charging_Adjusted_Penalty>
1.13667e-09

> <i_epik_Tot_Q>
0

> <i_epik_Tot_abs_Q>
0

> <r_epik_Metal_State_Penalty>
-0

> <b_epik_Metal_Only>
0

> <s_lp_Force_Field>
OPLS_2005

> <r_lp_Energy>
35.0119

> <b_lp_Chiralities_Consistent>
1

> <s_lp_Variant>
AV-unprocessed.smi:355-1

> <Gold.Version>
5.8.1

> <Gold.Id.Protein>
6NUR|6NUR_protein|mol2

> <Gold.PLP.Fitness>
45.0175

> <Gold.PLP.PLP>
-40.1065

> <Gold.PLP.part.hbond>
-2.0000

> <Gold.PLP.part.metal>
0.0000

> <Gold.PLP.part.buried>
-4.6692

> <Gold.PLP.part.nonpolar>
-35.1180

> <Gold.PLP.part.repulsive>
0.2446

> <Gold.PLP.ligand.clash>
3.5925

> <Gold.PLP.ligand.torsion>
0.4865

> <Gold.PLP.Chemscore.Hbond>
1.9500

> <Gold.PLP.Chemscore.CHOScore>
0.0000

> <Gold.PLP.Chemscore.Metal>
0.0000

> <Gold.Chemscore.Hbonds>
donor molecule, donor type, donor heavy atom, donor atom, acceptor molecule, acceptor atom, score
      L1  H    20    38       P1 10747  1.00
      P1  H  6896  6908       L1     7  0.83

> <Gold.PLP.Chemscore.Internal.Correction>
3.6265

> <Gold.Rescore>
     Score         DG    S(hbond)    S(metal)    S(lipo)     H(rot)  DE(clash)    DE(int)     intcor
     10.53     -14.12       1.02        0.00      85.15       1.84       0.04       3.55       ----

> <Gold.Chemscore.Fitness>
10.5279

> <Gold.Chemscore.DG>
-14.1201

> <Gold.Chemscore.ZeroCoef>
-5.4800

> <Gold.Chemscore.Hbond>
1.0154

> <Gold.Chemscore.Metal>
0.0000

> <Gold.Chemscore.Lipo>
85.1462

> <Gold.Chemscore.Internal_Hbond>
0.0000

> <Gold.Chemscore.DEClash>
0.0442

> <Gold.Chemscore.DEInternal>
3.5479

> <Gold.Chemscore.Rot>
1.8412

> <Gold.Chemscore.Internal.Correction>
   9.000000E+99

> <Gold.Chemscore.Hbonds>
donor molecule, donor type, donor heavy atom, donor atom, acceptor molecule, acceptor atom, score
      L1  H    20    38       P1 10747  0.99
      P1  H  6896  6908       L1     7  0.05

> <Gold.Chemscore.Hbond.Weighted>
-3.3913

> <Gold.Chemscore.Metal.Weighted>
-0.0000

> <Gold.Chemscore.Lipo.Weighted>
-9.9621

> <Gold.Chemscore.Internal_Hbond.Weighted>
0.0000

> <Gold.Chemscore.DEClash.Weighted>
0.0442

> <Gold.Chemscore.DEInternal.Weighted>
3.5479

> <Gold.Chemscore.Rot.Weighted>
4.7134

> <Gold.Chemscore.Internal.Correction.Weighted>
   9.000000E+99

> <Gold.Protein.RotatedTorsions>
[ 6907 6896 6895 6894 ] final  161.88 input  -60.11 | X-H torsion
[ 7974 7965 7964 7962 ] final -174.12 input  175.53 | X-H torsion
[ 8008 7997 7996 7995 ] final  -92.06 input   59.86 | X-H torsion
[ 10167 10162 10161 10158 ] final  176.14 input  -65.29 | X-H torsion
[ 10718 10713 10712 10709 ] final  -95.46 input   66.30 | X-H torsion
[ 10763 10752 10751 10750 ] final -120.15 input  -60.55 | X-H torsion
[ 11005 11000 10999 10996 ] final  172.88 input  -57.11 | X-H torsion

> <Gold.Protein.ActiveResidues>
 VAL166  LYS551  ARG553  GLY616  TRP617  ASP618  TYR619  PRO620  LYS621  CYS622 
 ASP623  PHE694  ASN695  SER759  ASP760  ASP761  ALA762  ILE779  LEU786  VAL792 
 PHE793  MET794  SER795  GLU796  ALA797  LYS798  CYS799  TRP800  GLU811  SER814 

> <Gold.Protein.RotatedAtoms>
  151.9488  133.3660  159.3992 H   0  0  0  0  0  0  0  0  0  0  0  0  # atno 6907 bound_to 6896
  150.6984  134.4362  159.5280 H   0  0  0  0  0  0  0  0  0  0  0  0  # atno 6908 bound_to 6896
  152.2031  134.8569  160.0556 H   0  0  0  0  0  0  0  0  0  0  0  0  # atno 6909 bound_to 6896
  144.7133  140.1519  143.6383 H   0  0  0  0  0  0  0  0  0  0  0  0  # atno 7974 bound_to 7965
  154.7184  140.0513  157.0616 H   0  0  0  0  0  0  0  0  0  0  0  0  # atno 8008 bound_to 7997
  155.0460  140.3174  155.4689 H   0  0  0  0  0  0  0  0  0  0  0  0  # atno 8009 bound_to 7997
  156.2809  140.2124  156.5585 H   0  0  0  0  0  0  0  0  0  0  0  0  # atno 8010 bound_to 7997
  139.5203  144.2950  152.0430 H   0  0  0  0  0  0  0  0  0  0  0  0  # atno 10167 bound_to 10162
  156.0044  130.5110  150.6079 H   0  0  0  0  0  0  0  0  0  0  0  0  # atno 10718 bound_to 10713
  154.8636  135.4213  154.2413 H   0  0  0  0  0  0  0  0  0  0  0  0  # atno 10763 bound_to 10752
  153.3378  135.6992  153.6898 H   0  0  0  0  0  0  0  0  0  0  0  0  # atno 10764 bound_to 10752
  153.5889  135.3558  155.2876 H   0  0  0  0  0  0  0  0  0  0  0  0  # atno 10765 bound_to 10752
  140.3345  134.7329  157.4158 H   0  0  0  0  0  0  0  0  0  0  0  0  # atno 11005 bound_to 11000
  145.9109  139.2486  143.1438 LP  0  0  0  0  0  0  0  0  0  0  0  0  # atno 17320 bound_to 7965
  145.9717  140.8754  143.0159 LP  0  0  0  0  0  0  0  0  0  0  0  0  # atno 17321 bound_to 7965
  140.2400  144.4280  150.6264 LP  0  0  0  0  0  0  0  0  0  0  0  0  # atno 17342 bound_to 10162
  140.6297  143.2186  151.6521 LP  0  0  0  0  0  0  0  0  0  0  0  0  # atno 17343 bound_to 10162
  157.3917  131.0796  151.1388 LP  0  0  0  0  0  0  0  0  0  0  0  0  # atno 17370 bound_to 10713
  157.2078  130.6424  149.5762 LP  0  0  0  0  0  0  0  0  0  0  0  0  # atno 17371 bound_to 10713
  140.0833  134.5702  155.8518 LP  0  0  0  0  0  0  0  0  0  0  0  0  # atno 17394 bound_to 11000
  141.2055  133.6647  156.6183 LP  0  0  0  0  0  0  0  0  0  0  0  0  # atno 17395 bound_to 11000

$$$$
