AV-unprocessed.smi:2324|AV-procd|sdf|9293|dock1
  -GOLD-   2272012513D 1   1.00000     0.00000
 Structure written by MMmdl.
 37 39  0  0  0  0  0  0  0  0  1 V2000
  145.0876  137.6886  153.5322 O   0  0  0  0  0  0  0  0  0  0  0  0
  146.1608  137.3019  153.0726 C   0  0  0  0  0  0  0  0  0  0  0  0
  146.2412  136.1489  152.3744 N   0  0  0  0  0  0  0  0  0  0  0  0
  145.2517  135.1842  152.0238 C   0  0  0  0  0  0  0  0  0  0  0  0
  145.7338  134.0911  151.2723 C   0  0  0  0  0  0  0  0  0  0  0  0
  144.8249  133.0933  150.8814 C   0  0  0  0  0  0  0  0  0  0  0  0
  143.4848  133.2563  151.2703 C   0  0  0  0  0  0  0  0  0  0  0  0
  143.0641  134.3185  151.9899 N   0  0  0  0  0  0  0  0  0  0  0  0
  143.9358  135.2634  152.3569 N   0  0  0  0  0  0  0  0  0  0  0  0
  147.3050  137.9892  153.2252 N   0  0  0  0  0  0  0  0  0  0  0  0
  147.4456  139.2590  153.9302 C   0  0  2  0  0  0  0  0  0  0  0  0
  147.1365  140.4413  152.9965 C   0  0  0  0  0  0  0  0  0  0  0  0
  147.4478  141.7767  153.6904 C   0  0  0  0  0  0  0  0  0  0  0  0
  148.8020  141.7942  154.1288 O   0  0  0  0  0  0  0  0  0  0  0  0
  149.0915  140.7890  155.0954 C   0  0  2  0  0  0  0  0  0  0  0  0
  150.5200  140.9845  155.5633 C   0  0  0  0  0  0  0  0  0  0  0  0
  150.9470  140.5477  156.9453 C   0  0  0  0  0  0  0  0  0  0  0  0
  150.8542  142.0179  156.6136 C   0  0  0  0  0  0  0  0  0  0  0  0
  148.8768  139.3982  154.4695 C   0  0  0  0  0  0  0  0  0  0  0  0
  147.1693  135.9295  152.0437 H   0  0  0  0  0  0  0  0  0  0  0  0
  146.7766  134.0156  150.9998 H   0  0  0  0  0  0  0  0  0  0  0  0
  145.1431  132.2365  150.3061 H   0  0  0  0  0  0  0  0  0  0  0  0
  142.7378  132.5242  151.0015 H   0  0  0  0  0  0  0  0  0  0  0  0
  148.1438  137.6009  152.8172 H   0  0  0  0  0  0  0  0  0  0  0  0
  146.7566  139.2809  154.7766 H   0  0  0  0  0  0  0  0  0  0  0  0
  147.7354  140.3625  152.0880 H   0  0  0  0  0  0  0  0  0  0  0  0
  146.0918  140.4193  152.6845 H   0  0  0  0  0  0  0  0  0  0  0  0
  147.2924  142.6034  152.9972 H   0  0  0  0  0  0  0  0  0  0  0  0
  146.7781  141.9416  154.5358 H   0  0  0  0  0  0  0  0  0  0  0  0
  148.4262  140.9133  155.9520 H   0  0  0  0  0  0  0  0  0  0  0  0
  151.2600  140.8542  154.7757 H   0  0  0  0  0  0  0  0  0  0  0  0
  150.1865  140.1334  157.6045 H   0  0  0  0  0  0  0  0  0  0  0  0
  151.9402  140.1162  157.0500 H   0  0  0  0  0  0  0  0  0  0  0  0
  151.7860  142.5677  156.4980 H   0  0  0  0  0  0  0  0  0  0  0  0
  150.0320  142.5808  157.0509 H   0  0  0  0  0  0  0  0  0  0  0  0
  149.0767  138.6202  155.2073 H   0  0  0  0  0  0  0  0  0  0  0  0
  149.5927  139.2509  153.6590 H   0  0  0  0  0  0  0  0  0  0  0  0
  1  2  2  0  0  0  0
  2  3  1  0  0  0  0
  2 10  1  0  0  0  0
  3  4  1  0  0  0  0
  3 20  1  0  0  0  0
  4  9  1  0  0  0  0
  4  5  2  0  0  0  0
  5  6  1  0  0  0  0
  5 21  1  0  0  0  0
  6  7  2  0  0  0  0
  6 22  1  0  0  0  0
  7  8  1  0  0  0  0
  7 23  1  0  0  0  0
  8  9  2  0  0  0  0
 10 11  1  0  0  0  0
 10 24  1  0  0  0  0
 11 19  1  0  0  0  0
 11 12  1  0  0  0  0
 11 25  1  0  0  0  0
 12 13  1  0  0  0  0
 12 26  1  0  0  0  0
 12 27  1  0  0  0  0
 13 14  1  0  0  0  0
 13 28  1  0  0  0  0
 13 29  1  0  0  0  0
 14 15  1  0  0  0  0
 15 16  1  0  0  0  0
 15 19  1  0  0  0  0
 15 30  1  0  0  0  0
 16 18  1  0  0  0  0
 16 17  1  0  0  0  0
 16 31  1  0  0  0  0
 17 18  1  0  0  0  0
 17 32  1  0  0  0  0
 17 33  1  0  0  0  0
 18 34  1  0  0  0  0
 18 35  1  0  0  0  0
 19 36  1  0  0  0  0
 19 37  1  0  0  0  0
M  END
> <s_m_source_file>
AV-unprocessed.smi

> <i_m_source_file_index>
2324

> <i_lp_mmshare_version>
43012

> <i_f3d_flags>
0

> <s_epik_input>
bjFuW2NIXVtjSF1bY0hdYzFbTkhdQyg9TylbTkhdW0NAQEhdMltDSDJdW0NIMl1PW0NASF0oW0NIMl0yKVtDSF0zW0NIMl1bQ0gyXTM=

> <s_epik_cmdline>
J2VwaWtfcHl0aG9uJywgJy1waCcsICc3LjAnLCAnLXRuJywgJzgnLCAnLW1hJywgJzIwMCcsICctbWV0YWxfYmluZGluZycsICctaW1hZScsICc8aW5maWxlLm1hZT4nLCAnLW9tYWUnLCAnPG91dGZpbGUubWFlPic=

> <r_lp_tautomer_probability>
1

> <r_epik_Ionization_Penalty>
0.00521499

> <r_epik_Ionization_Penalty_Charging>
0

> <r_epik_Ionization_Penalty_Neutral>
0.00521499

> <r_epik_State_Penalty>
-0

> <r_epik_Charging_Adjusted_Penalty>
0

> <i_epik_Tot_Q>
0

> <i_epik_Tot_abs_Q>
0

> <r_epik_Metal_State_Penalty>
-0

> <b_epik_Metal_Only>
0

> <s_lp_Force_Field>
OPLS_2005

> <r_lp_Energy>
26.0154

> <b_lp_Chiralities_Consistent>
1

> <s_lp_Variant>
AV-unprocessed.smi:2324-3

> <Gold.Version>
5.8.1

> <Gold.Id.Protein>
6NUR|6NUR_protein|mol2

> <Gold.PLP.Fitness>
37.4517

> <Gold.PLP.PLP>
-31.0004

> <Gold.PLP.part.hbond>
-3.0000

> <Gold.PLP.part.metal>
0.0000

> <Gold.PLP.part.buried>
-4.4429

> <Gold.PLP.part.nonpolar>
-23.4077

> <Gold.PLP.part.repulsive>
0.7095

> <Gold.PLP.ligand.clash>
0.0000

> <Gold.PLP.ligand.torsion>
0.8983

> <Gold.PLP.Chemscore.Hbond>
2.3914

> <Gold.PLP.Chemscore.CHOScore>
0.0000

> <Gold.PLP.Chemscore.Metal>
0.0000

> <Gold.Chemscore.Hbonds>
donor molecule, donor type, donor heavy atom, donor atom, acceptor molecule, acceptor atom, score
      L1  H     3    20       P1  7948  1.00
      L1  H    10    24       P1  7948  0.99
      P1  H  8011  8017       L1    14  0.37

> <Gold.PLP.Chemscore.Internal.Correction>
1.0738

> <Gold.Rescore>
     Score         DG    S(hbond)    S(metal)    S(lipo)     H(rot)  DE(clash)    DE(int)     intcor
     16.19     -18.42       2.22        0.00      74.41       1.25       0.12       2.11       ----

> <Gold.Chemscore.Fitness>
16.1862

> <Gold.Chemscore.DG>
-18.4212

> <Gold.Chemscore.ZeroCoef>
-5.4800

> <Gold.Chemscore.Hbond>
2.2242

> <Gold.Chemscore.Metal>
0.0000

> <Gold.Chemscore.Lipo>
74.4122

> <Gold.Chemscore.Internal_Hbond>
0.0000

> <Gold.Chemscore.DEClash>
0.1241

> <Gold.Chemscore.DEInternal>
2.1110

> <Gold.Chemscore.Rot>
1.2476

> <Gold.Chemscore.Internal.Correction>
   9.000000E+99

> <Gold.Chemscore.Hbonds>
donor molecule, donor type, donor heavy atom, donor atom, acceptor molecule, acceptor atom, score
      L1  H     3    20       P1  7948  0.98
      L1  H    10    24       P1  7948  0.93
      P1  H  8011  8017       L1    14  0.11

> <Gold.Chemscore.Hbond.Weighted>
-7.4288

> <Gold.Chemscore.Metal.Weighted>
-0.0000

> <Gold.Chemscore.Lipo.Weighted>
-8.7062

> <Gold.Chemscore.Internal_Hbond.Weighted>
0.0000

> <Gold.Chemscore.DEClash.Weighted>
0.1241

> <Gold.Chemscore.DEInternal.Weighted>
2.1110

> <Gold.Chemscore.Rot.Weighted>
3.1938

> <Gold.Chemscore.Internal.Correction.Weighted>
   9.000000E+99

> <Gold.Protein.RotatedTorsions>
[ 6907 6896 6895 6894 ] final   19.38 input  -60.11 | X-H torsion
[ 7974 7965 7964 7962 ] final  -93.94 input  175.53 | X-H torsion
[ 8008 7997 7996 7995 ] final   43.96 input   59.86 | X-H torsion
[ 10167 10162 10161 10158 ] final  100.16 input  -65.29 | X-H torsion
[ 10718 10713 10712 10709 ] final -107.21 input   66.30 | X-H torsion
[ 10763 10752 10751 10750 ] final -137.81 input  -60.55 | X-H torsion
[ 11005 11000 10999 10996 ] final   11.83 input  -57.11 | X-H torsion

> <Gold.Protein.ActiveResidues>
 VAL166  LYS551  ARG553  GLY616  TRP617  ASP618  TYR619  PRO620  LYS621  CYS622 
 ASP623  PHE694  ASN695  SER759  ASP760  ASP761  ALA762  ILE779  LEU786  VAL792 
 PHE793  MET794  SER795  GLU796  ALA797  LYS798  CYS799  TRP800  GLU811  SER814 

> <Gold.Protein.RotatedAtoms>
  151.8799  135.0457  160.0487 H   0  0  0  0  0  0  0  0  0  0  0  0  # atno 6907 bound_to 6896
  152.2521  133.5219  159.5339 H   0  0  0  0  0  0  0  0  0  0  0  0  # atno 6908 bound_to 6896
  150.7087  134.0863  159.3958 H   0  0  0  0  0  0  0  0  0  0  0  0  # atno 6909 bound_to 6896
  145.3798  140.9516  143.2400 H   0  0  0  0  0  0  0  0  0  0  0  0  # atno 7974 bound_to 7965
  155.3114  140.3391  155.4244 H   0  0  0  0  0  0  0  0  0  0  0  0  # atno 8008 bound_to 7997
  156.1954  140.1713  156.8047 H   0  0  0  0  0  0  0  0  0  0  0  0  # atno 8009 bound_to 7997
  154.5492  140.0709  156.8623 H   0  0  0  0  0  0  0  0  0  0  0  0  # atno 8010 bound_to 7997
  139.7552  144.6972  151.0373 H   0  0  0  0  0  0  0  0  0  0  0  0  # atno 10167 bound_to 10162
  156.0426  130.5651  150.7790 H   0  0  0  0  0  0  0  0  0  0  0  0  # atno 10718 bound_to 10713
  154.8652  135.3631  154.5284 H   0  0  0  0  0  0  0  0  0  0  0  0  # atno 10763 bound_to 10752
  153.5911  135.7015  153.5428 H   0  0  0  0  0  0  0  0  0  0  0  0  # atno 10764 bound_to 10752
  153.3373  135.4108  155.1505 H   0  0  0  0  0  0  0  0  0  0  0  0  # atno 10765 bound_to 10752
  140.4988  134.0766  155.7789 H   0  0  0  0  0  0  0  0  0  0  0  0  # atno 11005 bound_to 11000
  144.8516  139.5313  143.6854 LP  0  0  0  0  0  0  0  0  0  0  0  0  # atno 17320 bound_to 7965
  146.2847  139.6972  142.9204 LP  0  0  0  0  0  0  0  0  0  0  0  0  # atno 17321 bound_to 7965
  140.7802  143.4762  151.0080 LP  0  0  0  0  0  0  0  0  0  0  0  0  # atno 17342 bound_to 10162
  139.8449  143.7515  152.3179 LP  0  0  0  0  0  0  0  0  0  0  0  0  # atno 17343 bound_to 10162
  157.5263  131.0934  151.0014 LP  0  0  0  0  0  0  0  0  0  0  0  0  # atno 17370 bound_to 10713
  157.0332  130.5719  149.5346 LP  0  0  0  0  0  0  0  0  0  0  0  0  # atno 17371 bound_to 10713
  141.1446  133.9078  157.2246 LP  0  0  0  0  0  0  0  0  0  0  0  0  # atno 17394 bound_to 11000
  139.9725  135.0124  156.9549 LP  0  0  0  0  0  0  0  0  0  0  0  0  # atno 17395 bound_to 11000

$$$$
