AV-unprocessed.smi:2655|AV-procd|sdf|10302|dock5
  -GOLD-   2272014313D 1   1.00000     0.00000
 Structure written by MMmdl.
 33 34  0  0  0  0  0  0  0  0  2 V2000
  146.5682  142.4791  154.1724 C   0  0  0  0  0  0  0  0  0  0  0  0
  147.7715  141.5714  154.3138 C   0  0  0  0  0  0  0  0  0  0  0  0
  148.9574  142.0457  154.8124 N   0  0  0  0  0  0  0  0  0  0  0  0
  149.8873  141.0161  154.8417 N   0  5  0  0  0  0  0  0  0  0  0  0
  149.2507  139.9217  154.3534 C   0  0  0  0  0  0  0  0  0  0  0  0
  149.7190  138.7937  154.2099 O   0  0  0  0  0  0  0  0  0  0  0  0
  147.8924  140.2808  154.0088 C   0  0  0  0  0  0  0  0  0  0  0  0
  146.8515  139.3293  153.4492 C   0  0  0  0  0  0  0  0  0  0  0  0
  146.6383  138.1077  154.3575 C   0  0  0  0  0  0  0  0  0  0  0  0
  147.5322  137.0128  154.0001 N   0  0  0  0  0  0  0  0  0  0  0  0
  147.7478  135.9212  154.7480 C   0  0  0  0  0  0  0  0  0  0  0  0
  147.2054  135.7265  155.8360 O   0  0  0  0  0  0  0  0  0  0  0  0
  148.6220  135.0909  154.1548 N   0  0  0  0  0  0  0  0  0  0  0  0
  149.0931  133.8332  154.6125 C   0  0  0  0  0  0  0  0  0  0  0  0
  149.6963  132.8166  153.8160 C   0  0  0  0  0  0  0  0  0  0  0  0
  149.9658  131.8339  154.7260 C   0  0  0  0  0  0  0  0  0  0  0  0
  150.5915  130.4865  154.6077 C   0  0  0  0  0  0  0  0  0  0  0  0
  149.5622  132.2143  155.9679 O   0  0  0  0  0  0  0  0  0  0  0  0
  149.0055  133.4959  155.8862 N   0  0  0  0  0  0  0  0  0  0  0  0
  146.2361  142.5048  153.1343 H   0  0  0  0  0  0  0  0  0  0  0  0
  146.8060  143.4970  154.4827 H   0  0  0  0  0  0  0  0  0  0  0  0
  145.7463  142.1147  154.7888 H   0  0  0  0  0  0  0  0  0  0  0  0
  147.1708  139.0067  152.4577 H   0  0  0  0  0  0  0  0  0  0  0  0
  145.9144  139.8704  153.3118 H   0  0  0  0  0  0  0  0  0  0  0  0
  146.7787  138.3814  155.4047 H   0  0  0  0  0  0  0  0  0  0  0  0
  145.6127  137.7489  154.2666 H   0  0  0  0  0  0  0  0  0  0  0  0
  148.0196  137.0941  153.1197 H   0  0  0  0  0  0  0  0  0  0  0  0
  148.9916  135.3920  153.2651 H   0  0  0  0  0  0  0  0  0  0  0  0
  149.9055  132.7945  152.7573 H   0  0  0  0  0  0  0  0  0  0  0  0
  151.0580  130.3587  153.6308 H   0  0  0  0  0  0  0  0  0  0  0  0
  149.8451  129.7019  154.7316 H   0  0  0  0  0  0  0  0  0  0  0  0
  151.3591  130.3476  155.3690 H   0  0  0  0  0  0  0  0  0  0  0  0
  149.1222  142.9941  155.1181 H   0  0  0  0  0  0  0  0  0  0  0  0
  1 20  1  0  0  0  0
  1 21  1  0  0  0  0
  1 22  1  0  0  0  0
  1  2  1  0  0  0  0
  2  7  2  0  0  0  0
  2  3  1  0  0  0  0
  3  4  1  0  0  0  0
  3 33  1  0  0  0  0
  4  5  1  0  0  0  0
  5  7  1  0  0  0  0
  5  6  2  0  0  0  0
  7  8  1  0  0  0  0
  8  9  1  0  0  0  0
  8 23  1  0  0  0  0
  8 24  1  0  0  0  0
  9 10  1  0  0  0  0
  9 25  1  0  0  0  0
  9 26  1  0  0  0  0
 10 11  1  0  0  0  0
 10 27  1  0  0  0  0
 11 12  2  0  0  0  0
 11 13  1  0  0  0  0
 13 14  1  0  0  0  0
 13 28  1  0  0  0  0
 14 19  2  0  0  0  0
 14 15  1  0  0  0  0
 15 16  2  0  0  0  0
 15 29  1  0  0  0  0
 16 17  1  0  0  0  0
 16 18  1  0  0  0  0
 17 30  1  0  0  0  0
 17 31  1  0  0  0  0
 17 32  1  0  0  0  0
 18 19  1  0  0  0  0
M  CHG  1   4  -1
M  END
> <s_m_source_file>
AV-unprocessed.smi

> <i_m_source_file_index>
2655

> <i_lp_mmshare_version>
43012

> <i_f3d_flags>
0

> <s_epik_input>
W0NIM11DMT1OW05IXUMoPU8pW0NASF0xW0NIMl1bQ0gyXVtOSF1DKD1PKVtOSF1jMltjSF1jKFtDSDNdKW9uMg==

> <s_epik_cmdline>
J2VwaWtfcHl0aG9uJywgJy1waCcsICc3LjAnLCAnLXRuJywgJzgnLCAnLW1hJywgJzIwMCcsICctbWV0YWxfYmluZGluZycsICctaW1hZScsICc8aW5maWxlLm1hZT4nLCAnLW9tYWUnLCAnPG91dGZpbGUubWFlPic=

> <r_lp_tautomer_probability>
0.00220696

> <r_epik_Ionization_Penalty>
4.81787

> <r_epik_Ionization_Penalty_Charging>
2.1236

> <r_epik_Ionization_Penalty_Neutral>
2.69427

> <r_epik_State_Penalty>
2.7337

> <r_epik_Charging_Adjusted_Penalty>
4.8573

> <i_epik_Tot_Q>
-1

> <i_epik_Tot_abs_Q>
1

> <r_epik_Metal_State_Penalty>
2.0342

> <b_epik_Metal_Only>
1

> <s_lp_Force_Field>
OPLS_2005

> <r_lp_Energy>
14.0901

> <b_lp_Chiralities_Consistent>
1

> <s_lp_Variant>
AV-unprocessed.smi:2655-5

> <Gold.Version>
5.8.1

> <Gold.Id.Protein>
6NUR|6NUR_protein|mol2

> <Gold.PLP.Fitness>
39.4777

> <Gold.PLP.PLP>
-29.0962

> <Gold.PLP.part.hbond>
-4.0000

> <Gold.PLP.part.metal>
0.0000

> <Gold.PLP.part.buried>
-2.9981

> <Gold.PLP.part.nonpolar>
-22.0439

> <Gold.PLP.part.repulsive>
0.9447

> <Gold.PLP.ligand.clash>
0.0000

> <Gold.PLP.ligand.torsion>
0.3545

> <Gold.PLP.Chemscore.Hbond>
3.6960

> <Gold.PLP.Chemscore.CHOScore>
0.0000

> <Gold.PLP.Chemscore.Metal>
0.0000

> <Gold.Chemscore.Hbonds>
donor molecule, donor type, donor heavy atom, donor atom, acceptor molecule, acceptor atom, score
      L1  H     3    33       P1  8028  1.00
      L1  H    10    27       P1  7948  0.93
      L1  H    13    28       P1  7948  1.00
      P1  H  7989  7998       L1     4  0.32

> <Gold.PLP.Chemscore.Internal.Correction>
0.0025

> <Gold.Rescore>
     Score         DG    S(hbond)    S(metal)    S(lipo)     H(rot)  DE(clash)    DE(int)     intcor
     13.73     -15.50       2.87        0.00      44.22       1.85       0.07       1.70       ----

> <Gold.Chemscore.Fitness>
13.7252

> <Gold.Chemscore.DG>
-15.4972

> <Gold.Chemscore.ZeroCoef>
-5.4800

> <Gold.Chemscore.Hbond>
2.8685

> <Gold.Chemscore.Metal>
0.0000

> <Gold.Chemscore.Lipo>
44.2167

> <Gold.Chemscore.Internal_Hbond>
0.0000

> <Gold.Chemscore.DEClash>
0.0679

> <Gold.Chemscore.DEInternal>
1.7041

> <Gold.Chemscore.Rot>
1.8504

> <Gold.Chemscore.Internal.Correction>
   9.000000E+99

> <Gold.Chemscore.Hbonds>
donor molecule, donor type, donor heavy atom, donor atom, acceptor molecule, acceptor atom, score
      L1  H     3    33       P1  8028  1.00
      L1  H    10    27       P1  7948  0.90
      L1  H    13    28       P1  7948  0.54
      P1  H  7989  7998       L1     4  0.05

> <Gold.Chemscore.Hbond.Weighted>
-9.5808

> <Gold.Chemscore.Metal.Weighted>
-0.0000

> <Gold.Chemscore.Lipo.Weighted>
-5.1734

> <Gold.Chemscore.Internal_Hbond.Weighted>
0.0000

> <Gold.Chemscore.DEClash.Weighted>
0.0679

> <Gold.Chemscore.DEInternal.Weighted>
1.7041

> <Gold.Chemscore.Rot.Weighted>
4.7369

> <Gold.Chemscore.Internal.Correction.Weighted>
   9.000000E+99

> <Gold.Protein.RotatedTorsions>
[ 6907 6896 6895 6894 ] final  145.31 input  -60.11 | X-H torsion
[ 7974 7965 7964 7962 ] final -116.75 input  175.53 | X-H torsion
[ 8008 7997 7996 7995 ] final   83.13 input   59.86 | X-H torsion
[ 10167 10162 10161 10158 ] final   42.99 input  -65.29 | X-H torsion
[ 10718 10713 10712 10709 ] final  155.41 input   66.30 | X-H torsion
[ 10763 10752 10751 10750 ] final   27.42 input  -60.55 | X-H torsion
[ 11005 11000 10999 10996 ] final   87.58 input  -57.11 | X-H torsion

> <Gold.Protein.ActiveResidues>
 VAL166  LYS551  ARG553  GLY616  TRP617  ASP618  TYR619  PRO620  LYS621  CYS622 
 ASP623  PHE694  ASN695  SER759  ASP760  ASP761  ALA762  ILE779  LEU786  VAL792 
 PHE793  MET794  SER795  GLU796  ALA797  LYS798  CYS799  TRP800  GLU811  SER814 

> <Gold.Protein.RotatedAtoms>
  152.1825  133.4717  159.4965 H   0  0  0  0  0  0  0  0  0  0  0  0  # atno 6907 bound_to 6896
  150.6937  134.1816  159.4259 H   0  0  0  0  0  0  0  0  0  0  0  0  # atno 6908 bound_to 6896
  151.9727  135.0068  160.0604 H   0  0  0  0  0  0  0  0  0  0  0  0  # atno 6909 bound_to 6896
  145.0931  140.8503  143.3970 H   0  0  0  0  0  0  0  0  0  0  0  0  # atno 7974 bound_to 7965
  155.9199  140.3422  155.6164 H   0  0  0  0  0  0  0  0  0  0  0  0  # atno 8008 bound_to 7997
  155.7286  140.0792  157.2318 H   0  0  0  0  0  0  0  0  0  0  0  0  # atno 8009 bound_to 7997
  154.4068  140.1592  156.2470 H   0  0  0  0  0  0  0  0  0  0  0  0  # atno 8010 bound_to 7997
  140.3489  144.2376  150.6147 H   0  0  0  0  0  0  0  0  0  0  0  0  # atno 10167 bound_to 10162
  157.2187  131.0713  151.1925 H   0  0  0  0  0  0  0  0  0  0  0  0  # atno 10718 bound_to 10713
  153.0557  135.6537  154.0584 H   0  0  0  0  0  0  0  0  0  0  0  0  # atno 10763 bound_to 10752
  154.0263  135.2915  155.3376 H   0  0  0  0  0  0  0  0  0  0  0  0  # atno 10764 bound_to 10752
  154.6870  135.5298  153.8407 H   0  0  0  0  0  0  0  0  0  0  0  0  # atno 10765 bound_to 10752
  139.8916  134.8431  156.2879 H   0  0  0  0  0  0  0  0  0  0  0  0  # atno 11005 bound_to 11000
  145.1042  139.2801  143.5670 LP  0  0  0  0  0  0  0  0  0  0  0  0  # atno 17320 bound_to 7965
  146.3531  140.0619  142.8629 LP  0  0  0  0  0  0  0  0  0  0  0  0  # atno 17321 bound_to 7965
  140.5238  143.2259  151.8347 LP  0  0  0  0  0  0  0  0  0  0  0  0  # atno 17342 bound_to 10162
  139.4829  144.4804  151.9313 LP  0  0  0  0  0  0  0  0  0  0  0  0  # atno 17343 bound_to 10162
  157.3598  130.7125  149.6494 LP  0  0  0  0  0  0  0  0  0  0  0  0  # atno 17370 bound_to 10713
  155.9684  130.4229  150.4536 LP  0  0  0  0  0  0  0  0  0  0  0  0  # atno 17371 bound_to 10713
  140.9995  133.7160  156.0938 LP  0  0  0  0  0  0  0  0  0  0  0  0  # atno 17394 bound_to 11000
  140.7517  134.4038  157.5540 LP  0  0  0  0  0  0  0  0  0  0  0  0  # atno 17395 bound_to 11000

$$$$
