AV-unprocessed.smi:1701|AV-procd|sdf|6832|dock3
  -GOLD-   22720 8 13D 1   1.00000     0.00000
 Structure written by MMmdl.
 54 56  0  0  0  0  0  0  0  0  2 V2000
  151.0914  144.9199  159.4028 C   0  0  0  0  0  0  0  0  0  0  0  0
  152.4326  144.4632  158.8079 C   0  0  0  0  0  0  0  0  0  0  0  0
  152.7276  143.0567  159.0802 N   0  0  0  0  0  0  0  0  0  0  0  0
  153.2649  142.7324  160.4037 C   0  0  0  0  0  0  0  0  0  0  0  0
  152.3590  143.2035  161.5525 C   0  0  0  0  0  0  0  0  0  0  0  0
  151.8440  142.1420  158.4661 C   0  0  0  0  0  0  0  0  0  0  0  0
  151.9192  140.7665  158.7844 C   0  0  0  0  0  0  0  0  0  0  0  0
  151.0400  139.8644  158.1557 C   0  0  0  0  0  0  0  0  0  0  0  0
  150.1096  140.3606  157.2125 C   0  0  0  0  0  0  0  0  0  0  0  0
  149.1548  139.5672  156.5214 N   0  0  0  0  0  0  0  0  0  0  0  0
  148.2684  139.9325  155.5745 C   0  0  0  0  0  0  0  0  0  0  0  0
  148.1049  141.0806  155.1696 O   0  0  0  0  0  0  0  0  0  0  0  0
  147.5421  138.9141  155.0776 N   0  0  0  0  0  0  0  0  0  0  0  0
  146.4995  138.9513  154.0471 C   0  0  1  0  0  0  0  0  0  0  0  0
  146.9856  139.5938  152.7335 C   0  0  0  0  0  0  0  0  0  0  0  0
  146.3591  138.7389  151.6277 C   0  0  0  0  0  0  0  0  0  0  0  0
  146.3410  137.3983  152.2230 N   0  3  2  0  0  0  0  0  0  0  0  0
  145.5796  136.3321  151.5415 C   0  0  0  0  0  0  0  0  0  0  0  0
  145.8800  134.9932  152.2484 C   0  0  0  0  0  0  0  0  0  0  0  0
  145.6448  135.0718  153.7741 C   0  0  0  0  0  0  0  0  0  0  0  0
  146.3595  136.2868  154.4055 C   0  0  0  0  0  0  0  0  0  0  0  0
  145.9583  137.5591  153.6368 C   0  0  1  0  0  0  0  0  0  0  0  0
  150.1060  141.7482  156.9683 C   0  0  0  0  0  0  0  0  0  0  0  0
  150.9455  142.6158  157.5692 N   0  0  0  0  0  0  0  0  0  0  0  0
  150.9198  145.9762  159.1959 H   0  0  0  0  0  0  0  0  0  0  0  0
  151.0682  144.7881  160.4847 H   0  0  0  0  0  0  0  0  0  0  0  0
  150.2567  144.3616  158.9781 H   0  0  0  0  0  0  0  0  0  0  0  0
  152.4447  144.6594  157.7361 H   0  0  0  0  0  0  0  0  0  0  0  0
  153.2363  145.0703  159.2254 H   0  0  0  0  0  0  0  0  0  0  0  0
  153.3885  141.6516  160.4775 H   0  0  0  0  0  0  0  0  0  0  0  0
  154.2635  143.1571  160.5142 H   0  0  0  0  0  0  0  0  0  0  0  0
  152.7711  142.8995  162.5148 H   0  0  0  0  0  0  0  0  0  0  0  0
  151.3624  142.7695  161.4682 H   0  0  0  0  0  0  0  0  0  0  0  0
  152.2505  144.2877  161.5726 H   0  0  0  0  0  0  0  0  0  0  0  0
  152.6279  140.4006  159.5126 H   0  0  0  0  0  0  0  0  0  0  0  0
  151.0915  138.8210  158.4232 H   0  0  0  0  0  0  0  0  0  0  0  0
  149.1233  138.5981  156.8013 H   0  0  0  0  0  0  0  0  0  0  0  0
  147.7661  137.9975  155.4379 H   0  0  0  0  0  0  0  0  0  0  0  0
  145.6625  139.5537  154.4049 H   0  0  0  0  0  0  0  0  0  0  0  0
  146.7107  140.6460  152.6526 H   0  0  0  0  0  0  0  0  0  0  0  0
  148.0728  139.5324  152.6610 H   0  0  0  0  0  0  0  0  0  0  0  0
  145.3388  139.0653  151.4193 H   0  0  0  0  0  0  0  0  0  0  0  0
  146.9303  138.7665  150.6992 H   0  0  0  0  0  0  0  0  0  0  0  0
  144.5122  136.5560  151.5673 H   0  0  0  0  0  0  0  0  0  0  0  0
  145.8750  136.2793  150.4931 H   0  0  0  0  0  0  0  0  0  0  0  0
  145.2724  134.1975  151.8164 H   0  0  0  0  0  0  0  0  0  0  0  0
  146.9194  134.7185  152.0634 H   0  0  0  0  0  0  0  0  0  0  0  0
  144.5736  135.1459  153.9670 H   0  0  0  0  0  0  0  0  0  0  0  0
  145.9787  134.1506  154.2527 H   0  0  0  0  0  0  0  0  0  0  0  0
  146.0810  136.3654  155.4563 H   0  0  0  0  0  0  0  0  0  0  0  0
  147.4407  136.1457  154.3718 H   0  0  0  0  0  0  0  0  0  0  0  0
  144.8694  137.6366  153.6734 H   0  0  0  0  0  0  0  0  0  0  0  0
  149.4078  142.1791  156.2657 H   0  0  0  0  0  0  0  0  0  0  0  0
  147.3053  137.0981  152.2305 H   0  0  0  0  0  0  0  0  0  0  0  0
  1  2  1  0  0  0  0
  1 25  1  0  0  0  0
  1 26  1  0  0  0  0
  1 27  1  0  0  0  0
  2  3  1  0  0  0  0
  2 28  1  0  0  0  0
  2 29  1  0  0  0  0
  3  4  1  0  0  0  0
  3  6  1  0  0  0  0
  4  5  1  0  0  0  0
  4 30  1  0  0  0  0
  4 31  1  0  0  0  0
  5 32  1  0  0  0  0
  5 33  1  0  0  0  0
  5 34  1  0  0  0  0
  6 24  1  0  0  0  0
  6  7  2  0  0  0  0
  7  8  1  0  0  0  0
  7 35  1  0  0  0  0
  8  9  2  0  0  0  0
  8 36  1  0  0  0  0
  9 10  1  0  0  0  0
  9 23  1  0  0  0  0
 10 11  1  0  0  0  0
 10 37  1  0  0  0  0
 11 12  2  0  0  0  0
 11 13  1  0  0  0  0
 13 14  1  0  0  0  0
 13 38  1  0  0  0  0
 14 22  1  0  0  0  0
 14 15  1  0  0  0  0
 14 39  1  0  0  0  0
 15 16  1  0  0  0  0
 15 40  1  0  0  0  0
 15 41  1  0  0  0  0
 16 17  1  0  0  0  0
 16 42  1  0  0  0  0
 16 43  1  0  0  0  0
 17 22  1  0  0  0  0
 17 18  1  0  0  0  0
 17 54  1  0  0  0  0
 18 19  1  0  0  0  0
 18 44  1  0  0  0  0
 18 45  1  0  0  0  0
 19 20  1  0  0  0  0
 19 46  1  0  0  0  0
 19 47  1  0  0  0  0
 20 21  1  0  0  0  0
 20 48  1  0  0  0  0
 20 49  1  0  0  0  0
 21 22  1  0  0  0  0
 21 50  1  0  0  0  0
 21 51  1  0  0  0  0
 22 52  1  0  0  0  0
 23 24  2  0  0  0  0
 23 53  1  0  0  0  0
M  CHG  1  17   1
M  END
> <s_m_source_file>
AV-unprocessed.smi

> <i_m_source_file_index>
1701

> <i_lp_mmshare_version>
43012

> <i_f3d_flags>
0

> <s_epik_input>
W0NIM11bQ0gyXU4oW0NIMl1bQ0gzXSljMVtjSF1bY0hdYyhbY0hdbjEpW05IXUMoPU8pW05IXVtDQEhdKFtDSDJdW0NIMl0yKVtDQEBIXShOMjMpW0NIMl1bQ0gyXVtDSDJdW0NIMl0z

> <s_epik_cmdline>
J2VwaWtfcHl0aG9uJywgJy1waCcsICc3LjAnLCAnLXRuJywgJzgnLCAnLW1hJywgJzIwMCcsICctbWV0YWxfYmluZGluZycsICctaW1hZScsICc8aW5maWxlLm1hZT4nLCAnLW9tYWUnLCAnPG91dGZpbGUubWFlPic=

> <r_lp_tautomer_probability>
1

> <r_epik_Ionization_Penalty>
0.56662

> <r_epik_Ionization_Penalty_Charging>
0.000974069

> <r_epik_Ionization_Penalty_Neutral>
0.565646

> <r_epik_State_Penalty>
2.0247

> <r_epik_Charging_Adjusted_Penalty>
2.02568

> <i_epik_Tot_Q>
1

> <i_epik_Tot_abs_Q>
1

> <r_epik_Metal_State_Penalty>
1.51504

> <b_epik_Metal_Only>
0

> <s_lp_Force_Field>
OPLS_2005

> <r_lp_Energy>
60.356

> <b_lp_Chiralities_Consistent>
1

> <s_lp_Variant>
AV-unprocessed.smi:1701-12

> <Gold.Version>
5.8.1

> <Gold.Id.Protein>
6NUR|6NUR_protein|mol2

> <Gold.PLP.Fitness>
51.9623

> <Gold.PLP.PLP>
-43.3376

> <Gold.PLP.part.hbond>
-1.0000

> <Gold.PLP.part.metal>
0.0000

> <Gold.PLP.part.buried>
-3.0054

> <Gold.PLP.part.nonpolar>
-40.8863

> <Gold.PLP.part.repulsive>
0.2903

> <Gold.PLP.ligand.clash>
0.0000

> <Gold.PLP.ligand.torsion>
0.5432

> <Gold.PLP.Chemscore.Hbond>
2.0000

> <Gold.PLP.Chemscore.CHOScore>
0.9525

> <Gold.PLP.Chemscore.Metal>
0.0000

> <Gold.Chemscore.Hbonds>
donor molecule, donor type, donor heavy atom, donor atom, acceptor molecule, acceptor atom, score
      L1  H    17    54       P1  7948  2.00
      L1  C    23    53       P1  8028  0.67

> <Gold.PLP.Chemscore.Internal.Correction>
0.8537

> <Gold.Rescore>
     Score         DG    S(hbond)    S(metal)    S(lipo)     H(rot)  DE(clash)    DE(int)     intcor
     13.91     -18.64       1.00        0.00     112.00       1.28       2.05       2.68       ----

> <Gold.Chemscore.Fitness>
13.9063

> <Gold.Chemscore.DG>
-18.6371

> <Gold.Chemscore.ZeroCoef>
-5.4800

> <Gold.Chemscore.Hbond>
1.0000

> <Gold.Chemscore.Metal>
0.0000

> <Gold.Chemscore.Lipo>
111.9970

> <Gold.Chemscore.Internal_Hbond>
0.0000

> <Gold.Chemscore.DEClash>
2.0521

> <Gold.Chemscore.DEInternal>
2.6787

> <Gold.Chemscore.Rot>
1.2838

> <Gold.Chemscore.Internal.Correction>
   9.000000E+99

> <Gold.Chemscore.Hbonds>
donor molecule, donor type, donor heavy atom, donor atom, acceptor molecule, acceptor atom, score
      L1  H    17    54       P1  7948  1.00

> <Gold.Chemscore.Hbond.Weighted>
-3.3400

> <Gold.Chemscore.Metal.Weighted>
-0.0000

> <Gold.Chemscore.Lipo.Weighted>
-13.1036

> <Gold.Chemscore.Internal_Hbond.Weighted>
0.0000

> <Gold.Chemscore.DEClash.Weighted>
2.0521

> <Gold.Chemscore.DEInternal.Weighted>
2.6787

> <Gold.Chemscore.Rot.Weighted>
3.2865

> <Gold.Chemscore.Internal.Correction.Weighted>
   9.000000E+99

> <Gold.Protein.RotatedTorsions>
[ 6907 6896 6895 6894 ] final  117.87 input  -60.11 | X-H torsion
[ 7974 7965 7964 7962 ] final -131.40 input  175.53 | X-H torsion
[ 8008 7997 7996 7995 ] final -154.75 input   59.86 | X-H torsion
[ 10167 10162 10161 10158 ] final  179.81 input  -65.29 | X-H torsion
[ 10718 10713 10712 10709 ] final  132.80 input   66.30 | X-H torsion
[ 10763 10752 10751 10750 ] final   55.96 input  -60.55 | X-H torsion
[ 11005 11000 10999 10996 ] final  152.58 input  -57.11 | X-H torsion

> <Gold.Protein.ActiveResidues>
 VAL166  LYS551  ARG553  GLY616  TRP617  ASP618  TYR619  PRO620  LYS621  CYS622 
 ASP623  PHE694  ASN695  SER759  ASP760  ASP761  ALA762  ILE779  LEU786  VAL792 
 PHE793  MET794  SER795  GLU796  ALA797  LYS798  CYS799  TRP800  GLU811  SER814 

> <Gold.Protein.RotatedAtoms>
  152.4582  133.7767  159.6827 H   0  0  0  0  0  0  0  0  0  0  0  0  # atno 6907 bound_to 6896
  150.8516  133.7769  159.3030 H   0  0  0  0  0  0  0  0  0  0  0  0  # atno 6908 bound_to 6896
  151.5362  135.1071  159.9967 H   0  0  0  0  0  0  0  0  0  0  0  0  # atno 6909 bound_to 6896
  144.9383  140.7208  143.4863 H   0  0  0  0  0  0  0  0  0  0  0  0  # atno 7974 bound_to 7965
  155.6911  140.0755  157.2447 H   0  0  0  0  0  0  0  0  0  0  0  0  # atno 8008 bound_to 7997
  154.4088  140.1664  156.2140 H   0  0  0  0  0  0  0  0  0  0  0  0  # atno 8009 bound_to 7997
  155.9451  140.3381  155.6363 H   0  0  0  0  0  0  0  0  0  0  0  0  # atno 8010 bound_to 7997
  139.5352  144.2517  152.0779 H   0  0  0  0  0  0  0  0  0  0  0  0  # atno 10167 bound_to 10162
  157.4835  131.1087  150.9650 H   0  0  0  0  0  0  0  0  0  0  0  0  # atno 10718 bound_to 10713
  152.9824  135.5693  154.5151 H   0  0  0  0  0  0  0  0  0  0  0  0  # atno 10763 bound_to 10752
  154.4648  135.2783  155.1688 H   0  0  0  0  0  0  0  0  0  0  0  0  # atno 10764 bound_to 10752
  154.3261  135.6259  153.5583 H   0  0  0  0  0  0  0  0  0  0  0  0  # atno 10765 bound_to 10752
  140.1320  134.8795  157.2217 H   0  0  0  0  0  0  0  0  0  0  0  0  # atno 11005 bound_to 11000
  145.3032  139.1843  143.4678 LP  0  0  0  0  0  0  0  0  0  0  0  0  # atno 17320 bound_to 7965
  146.3275  140.3026  142.8621 LP  0  0  0  0  0  0  0  0  0  0  0  0  # atno 17321 bound_to 7965
  140.1986  144.4680  150.6442 LP  0  0  0  0  0  0  0  0  0  0  0  0  # atno 17342 bound_to 10162
  140.6555  143.2236  151.5979 LP  0  0  0  0  0  0  0  0  0  0  0  0  # atno 17343 bound_to 10162
  157.0375  130.5736  149.5351 LP  0  0  0  0  0  0  0  0  0  0  0  0  # atno 17370 bound_to 10713
  156.0134  130.5227  150.8060 LP  0  0  0  0  0  0  0  0  0  0  0  0  # atno 17371 bound_to 10713
  140.2830  134.3328  155.7337 LP  0  0  0  0  0  0  0  0  0  0  0  0  # atno 17394 bound_to 11000
  141.2172  133.7489  156.9391 LP  0  0  0  0  0  0  0  0  0  0  0  0  # atno 17395 bound_to 11000

$$$$
