AV-unprocessed.smi:1870|AV-procd|sdf|7593|dock3
  -GOLD-   22720 9303D 1   1.00000     0.00000
 Structure written by MMmdl.
 48 50  0  0  0  0  0  0  0  0  2 V2000
  143.8576  146.2044  157.1541 C   0  0  0  0  0  0  0  0  0  0  0  0
  144.5075  145.0421  157.8552 C   0  0  0  0  0  0  0  0  0  0  0  0
  144.2505  143.8652  157.3862 N   0  0  0  0  0  0  0  0  0  0  0  0
  144.7990  142.7298  157.9505 N   0  0  0  0  0  0  0  0  0  0  0  0
  144.3873  141.4794  157.3003 C   0  0  0  0  0  0  0  0  0  0  0  0
  144.6190  141.5229  155.7736 C   0  0  2  0  0  0  0  0  0  0  0  0
  143.3713  141.3750  155.1234 O   0  0  0  0  0  0  0  0  0  0  0  0
  145.5143  140.3580  155.3025 C   0  0  0  0  0  0  0  0  0  0  0  0
  146.1761  140.6193  153.9938 N   0  3  1  0  0  0  0  0  0  0  0  0
  146.7776  141.9691  153.8393 C   0  0  0  0  0  0  0  0  0  0  0  0
  147.9691  142.1745  154.7905 C   0  0  0  0  0  0  0  0  0  0  0  0
  148.9200  140.9885  154.8010 C   0  0  0  0  0  0  0  0  0  0  0  0
  150.1985  141.1255  155.3798 C   0  0  0  0  0  0  0  0  0  0  0  0
  151.0735  140.0240  155.4342 C   0  0  0  0  0  0  0  0  0  0  0  0
  150.6712  138.7793  154.9142 C   0  0  0  0  0  0  0  0  0  0  0  0
  149.3953  138.6364  154.3363 C   0  0  0  0  0  0  0  0  0  0  0  0
  148.5146  139.7364  154.2752 C   0  0  0  0  0  0  0  0  0  0  0  0
  147.1516  139.5664  153.6124 C   0  0  0  0  0  0  0  0  0  0  0  0
  145.6354  142.7247  159.0272 C   0  0  0  0  0  0  0  0  0  0  0  0
  146.0910  141.6857  159.5067 O   0  0  0  0  0  0  0  0  0  0  0  0
  145.9232  144.0607  159.5534 C   0  0  0  0  0  0  0  0  0  0  0  0
  146.8019  144.1015  160.6775 C   0  0  0  0  0  0  0  0  0  0  0  0
  147.5283  144.1266  161.5783 N   0  0  0  0  0  0  0  0  0  0  0  0
  145.3889  145.1830  159.0099 C   0  0  0  0  0  0  0  0  0  0  0  0
  145.6557  146.5915  159.5230 C   0  0  0  0  0  0  0  0  0  0  0  0
  143.0874  146.6514  157.7826 H   0  0  0  0  0  0  0  0  0  0  0  0
  143.3870  145.9021  156.2175 H   0  0  0  0  0  0  0  0  0  0  0  0
  144.5899  146.9758  156.9160 H   0  0  0  0  0  0  0  0  0  0  0  0
  144.9822  140.6714  157.7308 H   0  0  0  0  0  0  0  0  0  0  0  0
  143.3548  141.2156  157.5383 H   0  0  0  0  0  0  0  0  0  0  0  0
  145.0634  142.4795  155.5008 H   0  0  0  0  0  0  0  0  0  0  0  0
  143.5136  141.3948  154.1883 H   0  0  0  0  0  0  0  0  0  0  0  0
  146.2638  140.1236  156.0584 H   0  0  0  0  0  0  0  0  0  0  0  0
  144.8937  139.4645  155.2159 H   0  0  0  0  0  0  0  0  0  0  0  0
  147.1225  142.0633  152.8086 H   0  0  0  0  0  0  0  0  0  0  0  0
  146.0369  142.7564  153.9731 H   0  0  0  0  0  0  0  0  0  0  0  0
  148.5157  143.0736  154.5038 H   0  0  0  0  0  0  0  0  0  0  0  0
  147.6174  142.3423  155.8088 H   0  0  0  0  0  0  0  0  0  0  0  0
  150.5099  142.0755  155.7899 H   0  0  0  0  0  0  0  0  0  0  0  0
  152.0521  140.1328  155.8781 H   0  0  0  0  0  0  0  0  0  0  0  0
  151.3428  137.9343  154.9562 H   0  0  0  0  0  0  0  0  0  0  0  0
  149.0974  137.6796  153.9326 H   0  0  0  0  0  0  0  0  0  0  0  0
  146.7490  138.5745  153.8228 H   0  0  0  0  0  0  0  0  0  0  0  0
  147.3006  139.6114  152.5329 H   0  0  0  0  0  0  0  0  0  0  0  0
  146.1848  146.5884  160.4754 H   0  0  0  0  0  0  0  0  0  0  0  0
  144.7222  147.1338  159.6756 H   0  0  0  0  0  0  0  0  0  0  0  0
  146.2633  147.1462  158.8075 H   0  0  0  0  0  0  0  0  0  0  0  0
  145.4323  140.5583  153.3127 H   0  0  0  0  0  0  0  0  0  0  0  0
  1  2  1  0  0  0  0
  1 26  1  0  0  0  0
  1 27  1  0  0  0  0
  1 28  1  0  0  0  0
  2 24  1  0  0  0  0
  2  3  2  0  0  0  0
  3  4  1  0  0  0  0
  4  5  1  0  0  0  0
  4 19  1  0  0  0  0
  5  6  1  0  0  0  0
  5 29  1  0  0  0  0
  5 30  1  0  0  0  0
  6  7  1  0  0  0  0
  6  8  1  0  0  0  0
  6 31  1  0  0  0  0
  7 32  1  0  0  0  0
  8  9  1  0  0  0  0
  8 33  1  0  0  0  0
  8 34  1  0  0  0  0
  9 18  1  0  0  0  0
  9 10  1  0  0  0  0
  9 48  1  0  0  0  0
 10 11  1  0  0  0  0
 10 35  1  0  0  0  0
 10 36  1  0  0  0  0
 11 12  1  0  0  0  0
 11 37  1  0  0  0  0
 11 38  1  0  0  0  0
 12 17  2  0  0  0  0
 12 13  1  0  0  0  0
 13 14  2  0  0  0  0
 13 39  1  0  0  0  0
 14 15  1  0  0  0  0
 14 40  1  0  0  0  0
 15 16  2  0  0  0  0
 15 41  1  0  0  0  0
 16 17  1  0  0  0  0
 16 42  1  0  0  0  0
 17 18  1  0  0  0  0
 18 43  1  0  0  0  0
 18 44  1  0  0  0  0
 19 20  2  0  0  0  0
 19 21  1  0  0  0  0
 21 22  1  0  0  0  0
 21 24  2  0  0  0  0
 22 23  3  0  0  0  0
 24 25  1  0  0  0  0
 25 45  1  0  0  0  0
 25 46  1  0  0  0  0
 25 47  1  0  0  0  0
M  CHG  1   9   1
M  END
> <s_m_source_file>
AV-unprocessed.smi

> <i_m_source_file_index>
1870

> <i_lp_mmshare_version>
43012

> <i_f3d_flags>
0

> <s_epik_input>
TiNDYyhjMVtDSDNdKWMoPU8pbihuYzFbQ0gzXSlbQ0gyXVtDQEhdKFtPSF0pW0NIMl1OKFtDSDJdW0NIMl0yKVtDSDJdYyhjMjMpW2NIXVtjSF1bY0hdW2NIXTM=

> <s_epik_cmdline>
J2VwaWtfcHl0aG9uJywgJy1waCcsICc3LjAnLCAnLXRuJywgJzgnLCAnLW1hJywgJzIwMCcsICctbWV0YWxfYmluZGluZycsICctaW1hZScsICc8aW5maWxlLm1hZT4nLCAnLW9tYWUnLCAnPG91dGZpbGUubWFlPic=

> <r_epik_Ionization_Penalty>
0.0122865

> <r_epik_Ionization_Penalty_Charging>
0.0122864

> <r_epik_Ionization_Penalty_Neutral>
1.48087e-07

> <r_epik_State_Penalty>
0.00950248

> <r_epik_Charging_Adjusted_Penalty>
0.0217889

> <i_epik_Tot_Q>
1

> <i_epik_Tot_abs_Q>
1

> <r_epik_Metal_State_Penalty>
0.00950248

> <b_epik_Metal_Only>
0

> <s_lp_Force_Field>
OPLS_2005

> <r_lp_Energy>
39.8007

> <b_lp_Chiralities_Consistent>
1

> <s_lp_Variant>
AV-unprocessed.smi:1870-1

> <Gold.Version>
5.8.1

> <Gold.Id.Protein>
6NUR|6NUR_protein|mol2

> <Gold.PLP.Fitness>
49.1544

> <Gold.PLP.PLP>
-36.3098

> <Gold.PLP.part.hbond>
-4.0624

> <Gold.PLP.part.metal>
0.0000

> <Gold.PLP.part.buried>
-0.5466

> <Gold.PLP.part.nonpolar>
-30.9745

> <Gold.PLP.part.repulsive>
0.1720

> <Gold.PLP.ligand.clash>
0.0000

> <Gold.PLP.ligand.torsion>
1.1024

> <Gold.PLP.Chemscore.Hbond>
5.0000

> <Gold.PLP.Chemscore.CHOScore>
0.0000

> <Gold.PLP.Chemscore.Metal>
0.0000

> <Gold.Chemscore.Hbonds>
donor molecule, donor type, donor heavy atom, donor atom, acceptor molecule, acceptor atom, score
      L1  H     7    32       P1 10175  0.90
      L1  H     9    48       P1 10175  2.00
      P1  H  6933  6944       L1    23  1.00
      P1  H  6934  6946       L1    20  1.00

> <Gold.PLP.Chemscore.Internal.Correction>
0.0494

> <Gold.Rescore>
     Score         DG    S(hbond)    S(metal)    S(lipo)     H(rot)  DE(clash)    DE(int)     intcor
     19.62     -20.74       3.50        0.00      77.94       2.16       0.06       1.06       ----

> <Gold.Chemscore.Fitness>
19.6231

> <Gold.Chemscore.DG>
-20.7387

> <Gold.Chemscore.ZeroCoef>
-5.4800

> <Gold.Chemscore.Hbond>
3.4959

> <Gold.Chemscore.Metal>
0.0000

> <Gold.Chemscore.Lipo>
77.9420

> <Gold.Chemscore.Internal_Hbond>
0.0000

> <Gold.Chemscore.DEClash>
0.0574

> <Gold.Chemscore.DEInternal>
1.0583

> <Gold.Chemscore.Rot>
2.1628

> <Gold.Chemscore.Internal.Correction>
   9.000000E+99

> <Gold.Chemscore.Hbonds>
donor molecule, donor type, donor heavy atom, donor atom, acceptor molecule, acceptor atom, score
      L1  H     7    32       P1 10175  0.17
      L1  H     9    48       P1 10175  0.92
      P1  H  6933  6944       L1    23  0.42
      P1  H  6934  6946       L1    20  0.97

> <Gold.Chemscore.Hbond.Weighted>
-11.6762

> <Gold.Chemscore.Metal.Weighted>
-0.0000

> <Gold.Chemscore.Lipo.Weighted>
-9.1192

> <Gold.Chemscore.Internal_Hbond.Weighted>
0.0000

> <Gold.Chemscore.DEClash.Weighted>
0.0574

> <Gold.Chemscore.DEInternal.Weighted>
1.0583

> <Gold.Chemscore.Rot.Weighted>
5.5367

> <Gold.Chemscore.Internal.Correction.Weighted>
   9.000000E+99

> <Gold.Protein.RotatedTorsions>
[ 6907 6896 6895 6894 ] final   92.15 input  -60.11 | X-H torsion
[ 7974 7965 7964 7962 ] final -130.16 input  175.53 | X-H torsion
[ 8008 7997 7996 7995 ] final   -0.92 input   59.86 | X-H torsion
[ 10167 10162 10161 10158 ] final  170.35 input  -65.29 | X-H torsion
[ 10718 10713 10712 10709 ] final   83.87 input   66.30 | X-H torsion
[ 10763 10752 10751 10750 ] final  132.45 input  -60.55 | X-H torsion
[ 11005 11000 10999 10996 ] final  -90.91 input  -57.11 | X-H torsion

> <Gold.Protein.ActiveResidues>
 VAL166  LYS551  ARG553  GLY616  TRP617  ASP618  TYR619  PRO620  LYS621  CYS622 
 ASP623  PHE694  ASN695  SER759  ASP760  ASP761  ALA762  ILE779  LEU786  VAL792 
 PHE793  MET794  SER795  GLU796  ALA797  LYS798  CYS799  TRP800  GLU811  SER814 

> <Gold.Protein.RotatedAtoms>
  152.5452  134.1547  159.8532 H   0  0  0  0  0  0  0  0  0  0  0  0  # atno 6907 bound_to 6896
  151.1570  133.4862  159.2602 H   0  0  0  0  0  0  0  0  0  0  0  0  # atno 6908 bound_to 6896
  151.1412  135.0191  159.8681 H   0  0  0  0  0  0  0  0  0  0  0  0  # atno 6909 bound_to 6896
  144.9502  140.7336  143.4793 H   0  0  0  0  0  0  0  0  0  0  0  0  # atno 7974 bound_to 7965
  154.6526  140.2572  155.7197 H   0  0  0  0  0  0  0  0  0  0  0  0  # atno 8008 bound_to 7997
  156.2582  140.2865  156.0887 H   0  0  0  0  0  0  0  0  0  0  0  0  # atno 8009 bound_to 7997
  155.1428  140.0380  157.2793 H   0  0  0  0  0  0  0  0  0  0  0  0  # atno 8010 bound_to 7997
  139.5016  144.3606  151.9829 H   0  0  0  0  0  0  0  0  0  0  0  0  # atno 10167 bound_to 10162
  157.6887  131.0109  150.2587 H   0  0  0  0  0  0  0  0  0  0  0  0  # atno 10718 bound_to 10713
  153.7909  135.3155  155.3378 H   0  0  0  0  0  0  0  0  0  0  0  0  # atno 10763 bound_to 10752
  154.8126  135.4657  154.0560 H   0  0  0  0  0  0  0  0  0  0  0  0  # atno 10764 bound_to 10752
  153.1877  135.6903  153.8479 H   0  0  0  0  0  0  0  0  0  0  0  0  # atno 10765 bound_to 10752
  141.1556  133.7722  156.9804 H   0  0  0  0  0  0  0  0  0  0  0  0  # atno 11005 bound_to 11000
  145.2856  139.1902  143.4767 LP  0  0  0  0  0  0  0  0  0  0  0  0  # atno 17320 bound_to 7965
  146.3318  140.2825  142.8611 LP  0  0  0  0  0  0  0  0  0  0  0  0  # atno 17321 bound_to 7965
  140.3042  144.3612  150.6051 LP  0  0  0  0  0  0  0  0  0  0  0  0  # atno 17342 bound_to 10162
  140.5849  143.2170  151.7360 LP  0  0  0  0  0  0  0  0  0  0  0  0  # atno 17343 bound_to 10162
  156.3171  130.3780  149.7609 LP  0  0  0  0  0  0  0  0  0  0  0  0  # atno 17370 bound_to 10713
  156.5191  130.8207  151.3197 LP  0  0  0  0  0  0  0  0  0  0  0  0  # atno 17371 bound_to 10713
  140.1069  134.9501  157.2008 LP  0  0  0  0  0  0  0  0  0  0  0  0  # atno 17394 bound_to 11000
  140.3244  134.2880  155.7240 LP  0  0  0  0  0  0  0  0  0  0  0  0  # atno 17395 bound_to 11000

$$$$
