AV-unprocessed.smi:1762|AV-procd|sdf|7118|dock5
  -GOLD-   22720 8343D 1   1.00000     0.00000
 Structure written by MMmdl.
 53 54  0  0  0  0  0  0  0  0  2 V2000
  152.4394  144.4359  158.5856 C   0  0  0  0  0  0  0  0  0  0  0  0
  151.4461  143.5679  159.3792 C   0  0  1  0  0  0  0  0  0  0  0  0
  150.8621  142.4003  158.5630 C   0  0  0  0  0  0  0  0  0  0  0  0
  151.8736  141.3287  158.3320 N   0  3  2  0  0  0  0  0  0  0  0  0
  151.3705  140.2315  157.4351 C   0  0  1  0  0  0  0  0  0  0  0  0
  149.9916  139.7220  157.9084 C   0  0  0  0  0  0  0  0  0  0  0  0
  149.0145  140.4720  157.8881 O   0  0  0  0  0  0  0  0  0  0  0  0
  149.9307  138.4500  158.3300 N   0  0  0  0  0  0  0  0  0  0  0  0
  148.7234  137.7873  158.8050 C   0  0  0  0  0  0  0  0  0  0  0  0
  149.0636  136.4153  159.4031 C   0  0  0  0  0  0  0  0  0  0  0  0
  148.1950  136.0777  160.6003 C   0  0  0  0  0  0  0  0  0  0  0  0
  147.8755  134.7371  160.9043 C   0  0  0  0  0  0  0  0  0  0  0  0
  147.0690  134.4786  162.0297 C   0  0  0  0  0  0  0  0  0  0  0  0
  146.6173  135.5644  162.8042 C   0  0  0  0  0  0  0  0  0  0  0  0
  146.9933  136.8661  162.4172 C   0  0  0  0  0  0  0  0  0  0  0  0
  147.7647  137.1251  161.3392 N   0  0  0  0  0  0  0  0  0  0  0  0
  151.3255  140.6075  155.9147 C   0  0  0  0  0  0  0  0  0  0  0  0
  150.3525  141.7580  155.5818 C   0  0  0  0  0  0  0  0  0  0  0  0
  151.0498  139.4008  154.9958 C   0  0  0  0  0  0  0  0  0  0  0  0
  152.4100  140.8857  159.6481 C   0  0  0  0  0  0  0  0  0  0  0  0
  152.9913  142.0744  160.4363 C   0  0  2  0  0  0  0  0  0  0  0  0
  153.4703  141.6571  161.8311 C   0  0  0  0  0  0  0  0  0  0  0  0
  151.9980  143.0800  160.5992 O   0  0  0  0  0  0  0  0  0  0  0  0
  151.9457  144.9064  157.7349 H   0  0  0  0  0  0  0  0  0  0  0  0
  153.2749  143.8574  158.1924 H   0  0  0  0  0  0  0  0  0  0  0  0
  152.8462  145.2310  159.2106 H   0  0  0  0  0  0  0  0  0  0  0  0
  150.6190  144.2187  159.6644 H   0  0  0  0  0  0  0  0  0  0  0  0
  150.0118  141.9730  159.0970 H   0  0  0  0  0  0  0  0  0  0  0  0
  150.4681  142.7980  157.6280 H   0  0  0  0  0  0  0  0  0  0  0  0
  152.0798  139.4075  157.5369 H   0  0  0  0  0  0  0  0  0  0  0  0
  150.7773  137.8995  158.3131 H   0  0  0  0  0  0  0  0  0  0  0  0
  148.2475  138.4199  159.5554 H   0  0  0  0  0  0  0  0  0  0  0  0
  148.0102  137.6644  157.9878 H   0  0  0  0  0  0  0  0  0  0  0  0
  148.9392  135.6378  158.6477 H   0  0  0  0  0  0  0  0  0  0  0  0
  150.1124  136.3873  159.7018 H   0  0  0  0  0  0  0  0  0  0  0  0
  148.2388  133.9248  160.2922 H   0  0  0  0  0  0  0  0  0  0  0  0
  146.8028  133.4657  162.2943 H   0  0  0  0  0  0  0  0  0  0  0  0
  145.9978  135.4040  163.6742 H   0  0  0  0  0  0  0  0  0  0  0  0
  146.6655  137.7220  162.9882 H   0  0  0  0  0  0  0  0  0  0  0  0
  152.3239  140.9279  155.6209 H   0  0  0  0  0  0  0  0  0  0  0  0
  149.3133  141.4617  155.7262 H   0  0  0  0  0  0  0  0  0  0  0  0
  150.4582  142.0654  154.5410 H   0  0  0  0  0  0  0  0  0  0  0  0
  150.5319  142.6386  156.1978 H   0  0  0  0  0  0  0  0  0  0  0  0
  150.0275  139.0338  155.0934 H   0  0  0  0  0  0  0  0  0  0  0  0
  151.7260  138.5742  155.2161 H   0  0  0  0  0  0  0  0  0  0  0  0
  151.1953  139.6693  153.9489 H   0  0  0  0  0  0  0  0  0  0  0  0
  151.6194  140.3953  160.2185 H   0  0  0  0  0  0  0  0  0  0  0  0
  153.2163  140.1653  159.5283 H   0  0  0  0  0  0  0  0  0  0  0  0
  153.8454  142.4858  159.8982 H   0  0  0  0  0  0  0  0  0  0  0  0
  154.2485  140.8960  161.7683 H   0  0  0  0  0  0  0  0  0  0  0  0
  152.6515  141.2502  162.4251 H   0  0  0  0  0  0  0  0  0  0  0  0
  153.8830  142.5088  162.3724 H   0  0  0  0  0  0  0  0  0  0  0  0
  152.6447  141.7564  157.8387 H   0  0  0  0  0  0  0  0  0  0  0  0
  1  2  1  0  0  0  0
  1 24  1  0  0  0  0
  1 25  1  0  0  0  0
  1 26  1  0  0  0  0
  2 23  1  0  0  0  0
  2  3  1  0  0  0  0
  2 27  1  0  0  0  0
  3  4  1  0  0  0  0
  3 28  1  0  0  0  0
  3 29  1  0  0  0  0
  4  5  1  0  0  0  0
  4 20  1  0  0  0  0
  4 53  1  0  0  0  0
  5  6  1  0  0  0  0
  5 17  1  0  0  0  0
  5 30  1  0  0  0  0
  6  7  2  0  0  0  0
  6  8  1  0  0  0  0
  8  9  1  0  0  0  0
  8 31  1  0  0  0  0
  9 10  1  0  0  0  0
  9 32  1  0  0  0  0
  9 33  1  0  0  0  0
 10 11  1  0  0  0  0
 10 34  1  0  0  0  0
 10 35  1  0  0  0  0
 11 16  1  0  0  0  0
 11 12  2  0  0  0  0
 12 13  1  0  0  0  0
 12 36  1  0  0  0  0
 13 14  2  0  0  0  0
 13 37  1  0  0  0  0
 14 15  1  0  0  0  0
 14 38  1  0  0  0  0
 15 16  2  0  0  0  0
 15 39  1  0  0  0  0
 17 18  1  0  0  0  0
 17 19  1  0  0  0  0
 17 40  1  0  0  0  0
 18 41  1  0  0  0  0
 18 42  1  0  0  0  0
 18 43  1  0  0  0  0
 19 44  1  0  0  0  0
 19 45  1  0  0  0  0
 19 46  1  0  0  0  0
 20 21  1  0  0  0  0
 20 47  1  0  0  0  0
 20 48  1  0  0  0  0
 21 22  1  0  0  0  0
 21 23  1  0  0  0  0
 21 49  1  0  0  0  0
 22 50  1  0  0  0  0
 22 51  1  0  0  0  0
 22 52  1  0  0  0  0
M  CHG  1   4   1
M  END
> <s_m_source_file>
AV-unprocessed.smi

> <i_m_source_file_index>
1762

> <i_lp_mmshare_version>
43012

> <i_f3d_flags>
0

> <s_epik_input>
W0NIM11bQ0BASF0xW0NIMl1OKFtDSDJdW0NASF0oTzEpW0NIM10pW0NAQEhdKFtDSF0oW0NIM10pW0NIM10pQyg9TylbTkhdW0NIMl1bQ0gyXWMyW2NIXVtjSF1bY0hdW2NIXW4y

> <s_epik_cmdline>
J2VwaWtfcHl0aG9uJywgJy1waCcsICc3LjAnLCAnLXRuJywgJzgnLCAnLW1hJywgJzIwMCcsICctbWV0YWxfYmluZGluZycsICctaW1hZScsICc8aW5maWxlLm1hZT4nLCAnLW9tYWUnLCAnPG91dGZpbGUubWFlPic=

> <r_epik_Ionization_Penalty>
2.27005

> <r_epik_Ionization_Penalty_Charging>
2.24983

> <r_epik_Ionization_Penalty_Neutral>
0.0202209

> <r_epik_State_Penalty>
2.40228

> <r_epik_Charging_Adjusted_Penalty>
4.65211

> <i_epik_Tot_Q>
1

> <i_epik_Tot_abs_Q>
1

> <r_epik_Metal_State_Penalty>
2.40762

> <b_epik_Metal_Only>
0

> <s_lp_Force_Field>
OPLS_2005

> <r_lp_Energy>
25.0813

> <b_lp_Chiralities_Consistent>
1

> <s_lp_Variant>
AV-unprocessed.smi:1762-20

> <Gold.Version>
5.8.1

> <Gold.Id.Protein>
6NUR|6NUR_protein|mol2

> <Gold.PLP.Fitness>
54.2687

> <Gold.PLP.PLP>
-50.7545

> <Gold.PLP.part.hbond>
-2.0000

> <Gold.PLP.part.metal>
0.0000

> <Gold.PLP.part.buried>
-4.6913

> <Gold.PLP.part.nonpolar>
-43.4735

> <Gold.PLP.part.repulsive>
0.3005

> <Gold.PLP.ligand.clash>
0.0000

> <Gold.PLP.ligand.torsion>
0.9901

> <Gold.PLP.Chemscore.Hbond>
1.7520

> <Gold.PLP.Chemscore.CHOScore>
0.0000

> <Gold.PLP.Chemscore.Metal>
0.0000

> <Gold.Chemscore.Hbonds>
donor molecule, donor type, donor heavy atom, donor atom, acceptor molecule, acceptor atom, score
      P1  H  6931  6943       L1    16  1.00
      P1  H  6934  6947       L1    16  0.80

> <Gold.PLP.Chemscore.Internal.Correction>
0.2385

> <Gold.Rescore>
     Score         DG    S(hbond)    S(metal)    S(lipo)     H(rot)  DE(clash)    DE(int)     intcor
     16.45     -20.37       1.00        0.00     135.09       1.66       0.54       3.38       ----

> <Gold.Chemscore.Fitness>
16.4529

> <Gold.Chemscore.DG>
-20.3735

> <Gold.Chemscore.ZeroCoef>
-5.4800

> <Gold.Chemscore.Hbond>
1.0020

> <Gold.Chemscore.Metal>
0.0000

> <Gold.Chemscore.Lipo>
135.0894

> <Gold.Chemscore.Internal_Hbond>
0.0000

> <Gold.Chemscore.DEClash>
0.5380

> <Gold.Chemscore.DEInternal>
3.3826

> <Gold.Chemscore.Rot>
1.6635

> <Gold.Chemscore.Internal.Correction>
   9.000000E+99

> <Gold.Chemscore.Hbonds>
donor molecule, donor type, donor heavy atom, donor atom, acceptor molecule, acceptor atom, score
      P1  H  6931  6943       L1    16  0.49
      P1  H  6934  6947       L1    16  0.19

> <Gold.Chemscore.Hbond.Weighted>
-3.3466

> <Gold.Chemscore.Metal.Weighted>
-0.0000

> <Gold.Chemscore.Lipo.Weighted>
-15.8055

> <Gold.Chemscore.Internal_Hbond.Weighted>
0.0000

> <Gold.Chemscore.DEClash.Weighted>
0.5380

> <Gold.Chemscore.DEInternal.Weighted>
3.3826

> <Gold.Chemscore.Rot.Weighted>
4.2586

> <Gold.Chemscore.Internal.Correction.Weighted>
   9.000000E+99

> <Gold.Protein.RotatedTorsions>
[ 6907 6896 6895 6894 ] final -102.47 input  -60.11 | X-H torsion
[ 7974 7965 7964 7962 ] final   -8.43 input  175.53 | X-H torsion
[ 8008 7997 7996 7995 ] final  -45.55 input   59.86 | X-H torsion
[ 10167 10162 10161 10158 ] final   73.08 input  -65.29 | X-H torsion
[ 10718 10713 10712 10709 ] final -160.77 input   66.30 | X-H torsion
[ 10763 10752 10751 10750 ] final   59.16 input  -60.55 | X-H torsion
[ 11005 11000 10999 10996 ] final  -21.06 input  -57.11 | X-H torsion

> <Gold.Protein.ActiveResidues>
 VAL166  LYS551  ARG553  GLY616  TRP617  ASP618  TYR619  PRO620  LYS621  CYS622 
 ASP623  PHE694  ASN695  SER759  ASP760  ASP761  ALA762  ILE779  LEU786  VAL792 
 PHE793  MET794  SER795  GLU796  ALA797  LYS798  CYS799  TRP800  GLU811  SER814 

> <Gold.Protein.RotatedAtoms>
  150.7198  134.0576  159.3819 H   0  0  0  0  0  0  0  0  0  0  0  0  # atno 6907 bound_to 6896
  151.8555  135.0540  160.0473 H   0  0  0  0  0  0  0  0  0  0  0  0  # atno 6908 bound_to 6896
  152.2758  133.5388  159.5503 H   0  0  0  0  0  0  0  0  0  0  0  0  # atno 6909 bound_to 6896
  146.2280  140.2467  142.8345 H   0  0  0  0  0  0  0  0  0  0  0  0  # atno 7974 bound_to 7965
  154.4001  140.1394  156.3866 H   0  0  0  0  0  0  0  0  0  0  0  0  # atno 8008 bound_to 7997
  155.7953  140.3477  155.5352 H   0  0  0  0  0  0  0  0  0  0  0  0  # atno 8009 bound_to 7997
  155.8538  140.0945  157.1648 H   0  0  0  0  0  0  0  0  0  0  0  0  # atno 8010 bound_to 7997
  140.0283  144.5485  150.7527 H   0  0  0  0  0  0  0  0  0  0  0  0  # atno 10167 bound_to 10162
  156.5869  130.8753  151.2879 H   0  0  0  0  0  0  0  0  0  0  0  0  # atno 10718 bound_to 10713
  152.9888  135.5581  154.5669 H   0  0  0  0  0  0  0  0  0  0  0  0  # atno 10763 bound_to 10752
  154.5077  135.2800  155.1371 H   0  0  0  0  0  0  0  0  0  0  0  0  # atno 10764 bound_to 10752
  154.2775  135.6351  153.5387 H   0  0  0  0  0  0  0  0  0  0  0  0  # atno 10765 bound_to 10752
  140.8524  133.7847  155.9981 H   0  0  0  0  0  0  0  0  0  0  0  0  # atno 11005 bound_to 11000
  144.9443  140.8111  143.5611 LP  0  0  0  0  0  0  0  0  0  0  0  0  # atno 17320 bound_to 7965
  145.2422  139.2067  143.4987 LP  0  0  0  0  0  0  0  0  0  0  0  0  # atno 17321 bound_to 7965
  140.7313  143.2692  151.3942 LP  0  0  0  0  0  0  0  0  0  0  0  0  # atno 17342 bound_to 10162
  139.6093  144.1132  152.2282 LP  0  0  0  0  0  0  0  0  0  0  0  0  # atno 17343 bound_to 10162
  157.7313  130.9698  150.1874 LP  0  0  0  0  0  0  0  0  0  0  0  0  # atno 17370 bound_to 10713
  156.2583  130.3708  149.8157 LP  0  0  0  0  0  0  0  0  0  0  0  0  # atno 17371 bound_to 10713
  140.8775  134.2652  157.5161 LP  0  0  0  0  0  0  0  0  0  0  0  0  # atno 17394 bound_to 11000
  139.8704  134.9598  156.4344 LP  0  0  0  0  0  0  0  0  0  0  0  0  # atno 17395 bound_to 11000

$$$$
