AV-unprocessed.smi:1381|AV-procd|sdf|5603|dock3
  -GOLD-   22720 5213D 1   1.00000     0.00000
 Structure written by MMmdl.
 42 43  0  0  0  0  0  0  0  0  1 V2000
  143.5143  143.7002  163.0742 C   0  0  0  0  0  0  0  0  0  0  0  0
  144.3800  144.2400  161.9878 C   0  0  0  0  0  0  0  0  0  0  0  0
  145.7298  144.2164  161.7753 C   0  0  0  0  0  0  0  0  0  0  0  0
  145.8730  144.9195  160.5496 C   0  0  0  0  0  0  0  0  0  0  0  0
  147.1520  145.1201  159.9711 N   0  0  0  0  0  0  0  0  0  0  0  0
  148.3410  144.7206  160.4534 C   0  0  0  0  0  0  0  0  0  0  0  0
  148.5087  144.0957  161.5010 O   0  0  0  0  0  0  0  0  0  0  0  0
  149.3436  145.0913  159.6441 N   0  0  0  0  0  0  0  0  0  0  0  0
  150.7586  144.8212  159.8791 C   0  0  0  0  0  0  0  0  0  0  0  0
  151.4296  144.1165  158.6826 C   0  0  0  0  0  0  0  0  0  0  0  0
  151.7001  142.6922  158.8730 N   0  0  0  0  0  0  0  0  0  0  0  0
  153.0385  142.4829  159.4100 C   0  0  0  0  0  0  0  0  0  0  0  0
  153.3312  140.9929  159.6614 C   0  0  2  0  0  0  0  0  0  0  0  0
  154.7644  140.7615  160.1514 C   0  0  0  0  0  0  0  0  0  0  0  0
  153.1545  140.2661  158.4469 O   0  0  0  0  0  0  0  0  0  0  0  0
  151.8811  140.4295  157.8200 C   0  0  1  0  0  0  0  0  0  0  0  0
  150.7772  139.6571  158.5621 C   0  0  0  0  0  0  0  0  0  0  0  0
  151.5601  141.9267  157.6363 C   0  0  0  0  0  0  0  0  0  0  0  0
  144.7152  145.3324  160.0568 N   0  0  0  0  0  0  0  0  0  0  0  0
  143.7524  144.8990  160.9760 O   0  0  0  0  0  0  0  0  0  0  0  0
  144.1168  143.2978  163.8887 H   0  0  0  0  0  0  0  0  0  0  0  0
  142.8764  142.9003  162.6983 H   0  0  0  0  0  0  0  0  0  0  0  0
  142.8734  144.4817  163.4825 H   0  0  0  0  0  0  0  0  0  0  0  0
  146.4895  143.7690  162.3987 H   0  0  0  0  0  0  0  0  0  0  0  0
  147.1627  145.6216  159.0955 H   0  0  0  0  0  0  0  0  0  0  0  0
  149.1141  145.6013  158.8039 H   0  0  0  0  0  0  0  0  0  0  0  0
  151.2640  145.7691  160.0717 H   0  0  0  0  0  0  0  0  0  0  0  0
  150.8703  144.2323  160.7899 H   0  0  0  0  0  0  0  0  0  0  0  0
  150.8610  144.2777  157.7653 H   0  0  0  0  0  0  0  0  0  0  0  0
  152.3842  144.6194  158.5209 H   0  0  0  0  0  0  0  0  0  0  0  0
  153.7802  142.8898  158.7206 H   0  0  0  0  0  0  0  0  0  0  0  0
  153.1499  143.0318  160.3458 H   0  0  0  0  0  0  0  0  0  0  0  0
  152.6448  140.6088  160.4167 H   0  0  0  0  0  0  0  0  0  0  0  0
  154.9475  141.2865  161.0895 H   0  0  0  0  0  0  0  0  0  0  0  0
  155.4933  141.1143  159.4214 H   0  0  0  0  0  0  0  0  0  0  0  0
  154.9505  139.7010  160.3227 H   0  0  0  0  0  0  0  0  0  0  0  0
  151.9690  139.9830  156.8293 H   0  0  0  0  0  0  0  0  0  0  0  0
  149.8399  139.6909  158.0065 H   0  0  0  0  0  0  0  0  0  0  0  0
  150.5827  140.0685  159.5523 H   0  0  0  0  0  0  0  0  0  0  0  0
  151.0514  138.6091  158.6834 H   0  0  0  0  0  0  0  0  0  0  0  0
  150.5495  142.0245  157.2407 H   0  0  0  0  0  0  0  0  0  0  0  0
  152.2285  142.3398  156.8791 H   0  0  0  0  0  0  0  0  0  0  0  0
  1  2  1  0  0  0  0
  1 21  1  0  0  0  0
  1 22  1  0  0  0  0
  1 23  1  0  0  0  0
  2 20  1  0  0  0  0
  2  3  2  0  0  0  0
  3  4  1  0  0  0  0
  3 24  1  0  0  0  0
  4  5  1  0  0  0  0
  4 19  2  0  0  0  0
  5  6  1  0  0  0  0
  5 25  1  0  0  0  0
  6  7  2  0  0  0  0
  6  8  1  0  0  0  0
  8  9  1  0  0  0  0
  8 26  1  0  0  0  0
  9 10  1  0  0  0  0
  9 27  1  0  0  0  0
  9 28  1  0  0  0  0
 10 11  1  0  0  0  0
 10 29  1  0  0  0  0
 10 30  1  0  0  0  0
 11 18  1  0  0  0  0
 11 12  1  0  0  0  0
 12 13  1  0  0  0  0
 12 31  1  0  0  0  0
 12 32  1  0  0  0  0
 13 14  1  0  0  0  0
 13 15  1  0  0  0  0
 13 33  1  0  0  0  0
 14 34  1  0  0  0  0
 14 35  1  0  0  0  0
 14 36  1  0  0  0  0
 15 16  1  0  0  0  0
 16 17  1  0  0  0  0
 16 18  1  0  0  0  0
 16 37  1  0  0  0  0
 17 38  1  0  0  0  0
 17 39  1  0  0  0  0
 17 40  1  0  0  0  0
 18 41  1  0  0  0  0
 18 42  1  0  0  0  0
 19 20  1  0  0  0  0
M  END
> <s_m_source_file>
AV-unprocessed.smi

> <i_m_source_file_index>
1381

> <i_lp_mmshare_version>
43012

> <i_f3d_flags>
0

> <s_epik_input>
W0NIM11jMVtjSF1jKG5vMSlbTkhdQyg9TylbTkhdW0NIMl1bQ0gyXU4yW0NIMl1bQ0BASF0oW0NIM10pT1tDQEBIXShbQ0gzXSlbQ0gyXTI=

> <s_epik_cmdline>
J2VwaWtfcHl0aG9uJywgJy1waCcsICc3LjAnLCAnLXRuJywgJzgnLCAnLW1hJywgJzIwMCcsICctbWV0YWxfYmluZGluZycsICctaW1hZScsICc8aW5maWxlLm1hZT4nLCAnLW9tYWUnLCAnPG91dGZpbGUubWFlPic=

> <r_epik_Ionization_Penalty>
0.214073

> <r_epik_Ionization_Penalty_Charging>
0

> <r_epik_Ionization_Penalty_Neutral>
0.214073

> <r_epik_State_Penalty>
0.204211

> <r_epik_Charging_Adjusted_Penalty>
0.204211

> <i_epik_Tot_Q>
0

> <i_epik_Tot_abs_Q>
0

> <r_epik_Metal_State_Penalty>
0.217067

> <b_epik_Metal_Only>
0

> <s_lp_Force_Field>
OPLS_2005

> <r_lp_Energy>
25.417

> <b_lp_Chiralities_Consistent>
1

> <s_lp_Variant>
AV-unprocessed.smi:1381-2

> <Gold.Version>
5.8.1

> <Gold.Id.Protein>
6NUR|6NUR_protein|mol2

> <Gold.PLP.Fitness>
47.9437

> <Gold.PLP.PLP>
-38.0457

> <Gold.PLP.part.hbond>
-4.0000

> <Gold.PLP.part.metal>
0.0000

> <Gold.PLP.part.buried>
-6.2642

> <Gold.PLP.part.nonpolar>
-28.9425

> <Gold.PLP.part.repulsive>
0.7015

> <Gold.PLP.ligand.clash>
0.0000

> <Gold.PLP.ligand.torsion>
0.7752

> <Gold.PLP.Chemscore.Hbond>
3.8080

> <Gold.PLP.Chemscore.CHOScore>
0.0000

> <Gold.PLP.Chemscore.Metal>
0.0000

> <Gold.Chemscore.Hbonds>
donor molecule, donor type, donor heavy atom, donor atom, acceptor molecule, acceptor atom, score
      L1  H     5    25       P1  8029  1.00
      L1  H     8    26       P1  8029  1.00
      P1  H  6933  6944       L1     7  0.80
      P1  H  7997  8010       L1    15  0.87

> <Gold.PLP.Chemscore.Internal.Correction>
0.0245

> <Gold.Rescore>
     Score         DG    S(hbond)    S(metal)    S(lipo)     H(rot)  DE(clash)    DE(int)     intcor
     21.84     -24.11       3.64        0.00      89.76       1.57       0.04       2.23       ----

> <Gold.Chemscore.Fitness>
21.8391

> <Gold.Chemscore.DG>
-24.1134

> <Gold.Chemscore.ZeroCoef>
-5.4800

> <Gold.Chemscore.Hbond>
3.6377

> <Gold.Chemscore.Metal>
0.0000

> <Gold.Chemscore.Lipo>
89.7603

> <Gold.Chemscore.Internal_Hbond>
0.0000

> <Gold.Chemscore.DEClash>
0.0413

> <Gold.Chemscore.DEInternal>
2.2331

> <Gold.Chemscore.Rot>
1.5697

> <Gold.Chemscore.Internal.Correction>
   9.000000E+99

> <Gold.Chemscore.Hbonds>
donor molecule, donor type, donor heavy atom, donor atom, acceptor molecule, acceptor atom, score
      L1  H     5    25       P1  8029  0.95
      L1  H     8    26       P1  8029  0.93
      P1  H  6933  6944       L1     7  0.78
      P1  H  7997  8010       L1    15  0.71

> <Gold.Chemscore.Hbond.Weighted>
-12.1499

> <Gold.Chemscore.Metal.Weighted>
-0.0000

> <Gold.Chemscore.Lipo.Weighted>
-10.5020

> <Gold.Chemscore.Internal_Hbond.Weighted>
0.0000

> <Gold.Chemscore.DEClash.Weighted>
0.0413

> <Gold.Chemscore.DEInternal.Weighted>
2.2331

> <Gold.Chemscore.Rot.Weighted>
4.0185

> <Gold.Chemscore.Internal.Correction.Weighted>
   9.000000E+99

> <Gold.Protein.RotatedTorsions>
[ 6907 6896 6895 6894 ] final -147.43 input  -60.11 | X-H torsion
[ 7974 7965 7964 7962 ] final  -96.72 input  175.53 | X-H torsion
[ 8008 7997 7996 7995 ] final   25.60 input   59.86 | X-H torsion
[ 10167 10162 10161 10158 ] final  -91.52 input  -65.29 | X-H torsion
[ 10718 10713 10712 10709 ] final  161.34 input   66.30 | X-H torsion
[ 10763 10752 10751 10750 ] final   72.37 input  -60.55 | X-H torsion
[ 11005 11000 10999 10996 ] final  -51.18 input  -57.11 | X-H torsion

> <Gold.Protein.ActiveResidues>
 VAL166  LYS551  ARG553  GLY616  TRP617  ASP618  TYR619  PRO620  LYS621  CYS622 
 ASP623  PHE694  ASN695  SER759  ASP760  ASP761  ALA762  ILE779  LEU786  VAL792 
 PHE793  MET794  SER795  GLU796  ALA797  LYS798  CYS799  TRP800  GLU811  SER814 

> <Gold.Protein.RotatedAtoms>
  151.1555  133.4879  159.2594 H   0  0  0  0  0  0  0  0  0  0  0  0  # atno 6907 bound_to 6896
  151.1508  135.0226  159.8677 H   0  0  0  0  0  0  0  0  0  0  0  0  # atno 6908 bound_to 6896
  152.5463  134.1440  159.8544 H   0  0  0  0  0  0  0  0  0  0  0  0  # atno 6909 bound_to 6896
  145.3432  140.9463  143.2596 H   0  0  0  0  0  0  0  0  0  0  0  0  # atno 7974 bound_to 7965
  155.0143  140.3140  155.4818 H   0  0  0  0  0  0  0  0  0  0  0  0  # atno 8008 bound_to 7997
  156.2903  140.2209  156.5200 H   0  0  0  0  0  0  0  0  0  0  0  0  # atno 8009 bound_to 7997
  154.7507  140.0466  157.0879 H   0  0  0  0  0  0  0  0  0  0  0  0  # atno 8010 bound_to 7997
  140.3441  143.2926  151.9802 H   0  0  0  0  0  0  0  0  0  0  0  0  # atno 10167 bound_to 10162
  157.1379  131.0533  151.2340 H   0  0  0  0  0  0  0  0  0  0  0  0  # atno 10718 bound_to 10713
  153.0454  135.5102  154.7733 H   0  0  0  0  0  0  0  0  0  0  0  0  # atno 10763 bound_to 10752
  154.6637  135.2942  154.9836 H   0  0  0  0  0  0  0  0  0  0  0  0  # atno 10764 bound_to 10752
  154.0678  135.6682  153.4873 H   0  0  0  0  0  0  0  0  0  0  0  0  # atno 10765 bound_to 10752
  141.0857  133.6643  156.3839 H   0  0  0  0  0  0  0  0  0  0  0  0  # atno 11005 bound_to 11000
  144.8774  139.4951  143.6739 LP  0  0  0  0  0  0  0  0  0  0  0  0  # atno 17320 bound_to 7965
  146.2999  139.7393  142.9099 LP  0  0  0  0  0  0  0  0  0  0  0  0  # atno 17321 bound_to 7965
  139.4836  144.6132  151.7395 LP  0  0  0  0  0  0  0  0  0  0  0  0  # atno 17342 bound_to 10162
  140.5281  144.0773  150.6044 LP  0  0  0  0  0  0  0  0  0  0  0  0  # atno 17343 bound_to 10162
  157.4334  130.7503  149.7008 LP  0  0  0  0  0  0  0  0  0  0  0  0  # atno 17370 bound_to 10713
  155.9794  130.4040  150.3587 LP  0  0  0  0  0  0  0  0  0  0  0  0  # atno 17371 bound_to 10713
  140.5369  134.6158  157.5368 LP  0  0  0  0  0  0  0  0  0  0  0  0  # atno 17394 bound_to 11000
  139.9675  134.7349  156.0109 LP  0  0  0  0  0  0  0  0  0  0  0  0  # atno 17395 bound_to 11000

$$$$
