AV-unprocessed.smi:2482|AV-procd|sdf|9777|dock3
  -GOLD-   2272013423D 1   1.00000     0.00000
 Structure written by MMmdl.
 35 36  0  0  0  0  0  0  0  0  2 V2000
  152.2088  145.4374  160.7136 C   0  0  0  0  0  0  0  0  0  0  0  0
  152.2958  143.9840  160.2787 C   0  0  0  0  0  0  0  0  0  0  0  0
  152.8976  143.1704  161.1739 N   0  0  0  0  0  0  0  0  0  0  0  0
  153.0157  141.8614  160.8724 C   0  0  0  0  0  0  0  0  0  0  0  0
  152.5509  141.3013  159.6682 C   0  0  0  0  0  0  0  0  0  0  0  0
  151.9335  142.1509  158.7212 C   0  0  0  0  0  0  0  0  0  0  0  0
  151.4086  141.6730  157.4907 N   0  0  0  0  0  0  0  0  0  0  0  0
  151.3135  140.3986  157.0700 C   0  0  0  0  0  0  0  0  0  0  0  0
  151.6681  139.4232  157.7326 O   0  0  0  0  0  0  0  0  0  0  0  0
  150.7325  140.2058  155.6546 C   0  0  2  0  0  0  0  0  0  0  0  0
  149.5548  139.2054  155.5729 C   0  0  0  0  0  0  0  0  0  0  0  0
  150.0204  137.8136  155.7806 N   0  3  1  0  0  0  0  0  0  0  0  0
  148.9124  136.8349  155.7772 C   0  0  0  0  0  0  0  0  0  0  0  0
  151.0907  137.4705  154.8173 C   0  0  0  0  0  0  0  0  0  0  0  0
  152.2459  138.4797  154.9191 C   0  0  0  0  0  0  0  0  0  0  0  0
  151.7500  139.8056  154.7294 O   0  0  0  0  0  0  0  0  0  0  0  0
  151.7883  143.5220  159.0378 C   0  0  0  0  0  0  0  0  0  0  0  0
  151.0186  144.5948  157.9153 Cl  0  0  0  0  0  0  0  0  0  0  0  0
  151.7453  146.0836  159.9705 H   0  0  0  0  0  0  0  0  0  0  0  0
  153.2076  145.8273  160.9115 H   0  0  0  0  0  0  0  0  0  0  0  0
  151.6270  145.5181  161.6322 H   0  0  0  0  0  0  0  0  0  0  0  0
  153.4898  141.2397  161.6174 H   0  0  0  0  0  0  0  0  0  0  0  0
  152.6607  140.2408  159.4983 H   0  0  0  0  0  0  0  0  0  0  0  0
  151.1796  142.3845  156.8113 H   0  0  0  0  0  0  0  0  0  0  0  0
  150.3726  141.1842  155.3350 H   0  0  0  0  0  0  0  0  0  0  0  0
  148.7872  139.4540  156.3074 H   0  0  0  0  0  0  0  0  0  0  0  0
  149.0786  139.2822  154.5941 H   0  0  0  0  0  0  0  0  0  0  0  0
  148.4058  136.8186  154.8113 H   0  0  0  0  0  0  0  0  0  0  0  0
  148.1787  137.0838  156.5447 H   0  0  0  0  0  0  0  0  0  0  0  0
  149.2848  135.8314  155.9862 H   0  0  0  0  0  0  0  0  0  0  0  0
  151.4606  136.4644  155.0177 H   0  0  0  0  0  0  0  0  0  0  0  0
  150.6851  137.4682  153.8044 H   0  0  0  0  0  0  0  0  0  0  0  0
  152.7598  138.3856  155.8766 H   0  0  0  0  0  0  0  0  0  0  0  0
  152.9895  138.2737  154.1490 H   0  0  0  0  0  0  0  0  0  0  0  0
  150.4331  137.7797  156.7023 H   0  0  0  0  0  0  0  0  0  0  0  0
  1  2  1  0  0  0  0
  1 19  1  0  0  0  0
  1 20  1  0  0  0  0
  1 21  1  0  0  0  0
  2 17  1  0  0  0  0
  2  3  2  0  0  0  0
  3  4  1  0  0  0  0
  4  5  2  0  0  0  0
  4 22  1  0  0  0  0
  5  6  1  0  0  0  0
  5 23  1  0  0  0  0
  6  7  1  0  0  0  0
  6 17  2  0  0  0  0
  7  8  1  0  0  0  0
  7 24  1  0  0  0  0
  8  9  2  0  0  0  0
  8 10  1  0  0  0  0
 10 16  1  0  0  0  0
 10 11  1  0  0  0  0
 10 25  1  0  0  0  0
 11 12  1  0  0  0  0
 11 26  1  0  0  0  0
 11 27  1  0  0  0  0
 12 13  1  0  0  0  0
 12 14  1  0  0  0  0
 12 35  1  0  0  0  0
 13 28  1  0  0  0  0
 13 29  1  0  0  0  0
 13 30  1  0  0  0  0
 14 15  1  0  0  0  0
 14 31  1  0  0  0  0
 14 32  1  0  0  0  0
 15 16  1  0  0  0  0
 15 33  1  0  0  0  0
 15 34  1  0  0  0  0
 17 18  1  0  0  0  0
M  CHG  1  12   1
M  END
> <s_m_source_file>
AV-unprocessed.smi

> <i_m_source_file_index>
2482

> <i_lp_mmshare_version>
43012

> <i_f3d_flags>
0

> <s_epik_input>
W0NIM11jMW5bY0hdW2NIXWMoYzFDbClbTkhdQyg9TylbQ0BASF0yW0NIMl1OKFtDSDNdKVtDSDJdW0NIMl1PMg==

> <s_epik_cmdline>
J2VwaWtfcHl0aG9uJywgJy1waCcsICc3LjAnLCAnLXRuJywgJzgnLCAnLW1hJywgJzIwMCcsICctbWV0YWxfYmluZGluZycsICctaW1hZScsICc8aW5maWxlLm1hZT4nLCAnLW9tYWUnLCAnPG91dGZpbGUubWFlPic=

> <r_epik_Ionization_Penalty>
0.314226

> <r_epik_Ionization_Penalty_Charging>
0.314023

> <r_epik_Ionization_Penalty_Neutral>
0.00020299

> <r_epik_State_Penalty>
0.308208

> <r_epik_Charging_Adjusted_Penalty>
0.62223

> <i_epik_Tot_Q>
1

> <i_epik_Tot_abs_Q>
1

> <r_epik_Metal_State_Penalty>
0.314444

> <b_epik_Metal_Only>
0

> <s_lp_Force_Field>
OPLS_2005

> <r_lp_Energy>
21.5381

> <b_lp_Chiralities_Consistent>
1

> <s_lp_Variant>
AV-unprocessed.smi:2482-3

> <Gold.Version>
5.8.1

> <Gold.Id.Protein>
6NUR|6NUR_protein|mol2

> <Gold.PLP.Fitness>
35.7798

> <Gold.PLP.PLP>
-33.3055

> <Gold.PLP.part.hbond>
-0.9054

> <Gold.PLP.part.metal>
0.0000

> <Gold.PLP.part.buried>
-2.8332

> <Gold.PLP.part.nonpolar>
-29.7902

> <Gold.PLP.part.repulsive>
0.2051

> <Gold.PLP.ligand.clash>
0.0000

> <Gold.PLP.ligand.torsion>
0.1883

> <Gold.PLP.Chemscore.Hbond>
0.9440

> <Gold.PLP.Chemscore.CHOScore>
0.0000

> <Gold.PLP.Chemscore.Metal>
0.0000

> <Gold.Chemscore.Hbonds>
donor molecule, donor type, donor heavy atom, donor atom, acceptor molecule, acceptor atom, score
      P1  H  7989  7998       L1    16  1.00

> <Gold.PLP.Chemscore.Internal.Correction>
0.0188

> <Gold.Rescore>
     Score         DG    S(hbond)    S(metal)    S(lipo)     H(rot)  DE(clash)    DE(int)     intcor
     14.22     -17.64       0.90        0.00     100.20       1.00       0.93       2.49       ----

> <Gold.Chemscore.Fitness>
14.2184

> <Gold.Chemscore.DG>
-17.6387

> <Gold.Chemscore.ZeroCoef>
-5.4800

> <Gold.Chemscore.Hbond>
0.8968

> <Gold.Chemscore.Metal>
0.0000

> <Gold.Chemscore.Lipo>
100.2009

> <Gold.Chemscore.Internal_Hbond>
0.0000

> <Gold.Chemscore.DEClash>
0.9285

> <Gold.Chemscore.DEInternal>
2.4918

> <Gold.Chemscore.Rot>
1.0000

> <Gold.Chemscore.Internal.Correction>
   9.000000E+99

> <Gold.Chemscore.Hbonds>
donor molecule, donor type, donor heavy atom, donor atom, acceptor molecule, acceptor atom, score
      P1  H  7989  7998       L1    16  0.53

> <Gold.Chemscore.Hbond.Weighted>
-2.9952

> <Gold.Chemscore.Metal.Weighted>
-0.0000

> <Gold.Chemscore.Lipo.Weighted>
-11.7235

> <Gold.Chemscore.Internal_Hbond.Weighted>
0.0000

> <Gold.Chemscore.DEClash.Weighted>
0.9285

> <Gold.Chemscore.DEInternal.Weighted>
2.4918

> <Gold.Chemscore.Rot.Weighted>
2.5600

> <Gold.Chemscore.Internal.Correction.Weighted>
   9.000000E+99

> <Gold.Protein.RotatedTorsions>
[ 6907 6896 6895 6894 ] final -166.57 input  -60.11 | X-H torsion
[ 7974 7965 7964 7962 ] final -140.21 input  175.53 | X-H torsion
[ 8008 7997 7996 7995 ] final  116.06 input   59.86 | X-H torsion
[ 10167 10162 10161 10158 ] final   86.19 input  -65.29 | X-H torsion
[ 10718 10713 10712 10709 ] final  -37.38 input   66.30 | X-H torsion
[ 10763 10752 10751 10750 ] final  -28.93 input  -60.55 | X-H torsion
[ 11005 11000 10999 10996 ] final -136.20 input  -57.11 | X-H torsion

> <Gold.Protein.ActiveResidues>
 VAL166  LYS551  ARG553  GLY616  TRP617  ASP618  TYR619  PRO620  LYS621  CYS622 
 ASP623  PHE694  ASN695  SER759  ASP760  ASP761  ALA762  ILE779  LEU786  VAL792 
 PHE793  MET794  SER795  GLU796  ALA797  LYS798  CYS799  TRP800  GLU811  SER814 

> <Gold.Protein.RotatedAtoms>
  151.4457  133.3631  159.2787 H   0  0  0  0  0  0  0  0  0  0  0  0  # atno 6907 bound_to 6896
  150.9126  134.8544  159.7446 H   0  0  0  0  0  0  0  0  0  0  0  0  # atno 6908 bound_to 6896
  152.4940  134.4388  159.9588 H   0  0  0  0  0  0  0  0  0  0  0  0  # atno 6909 bound_to 6896
  144.8615  140.6227  143.5325 H   0  0  0  0  0  0  0  0  0  0  0  0  # atno 7974 bound_to 7965
  156.2417  140.2925  156.0465 H   0  0  0  0  0  0  0  0  0  0  0  0  # atno 8008 bound_to 7997
  155.1929  140.0407  157.2921 H   0  0  0  0  0  0  0  0  0  0  0  0  # atno 8009 bound_to 7997
  154.6182  140.2469  155.7589 H   0  0  0  0  0  0  0  0  0  0  0  0  # atno 8010 bound_to 7997
  139.8900  144.6391  150.8749 H   0  0  0  0  0  0  0  0  0  0  0  0  # atno 10167 bound_to 10162
  156.3159  130.4259  149.8006 H   0  0  0  0  0  0  0  0  0  0  0  0  # atno 10718 bound_to 10713
  153.7563  135.6922  153.4935 H   0  0  0  0  0  0  0  0  0  0  0  0  # atno 10763 bound_to 10752
  153.1969  135.4451  155.0217 H   0  0  0  0  0  0  0  0  0  0  0  0  # atno 10764 bound_to 10752
  154.8169  135.3403  154.7081 H   0  0  0  0  0  0  0  0  0  0  0  0  # atno 10765 bound_to 10752
  140.8827  134.1911  157.4580 H   0  0  0  0  0  0  0  0  0  0  0  0  # atno 11005 bound_to 11000
  145.4303  139.1550  143.4026 LP  0  0  0  0  0  0  0  0  0  0  0  0  # atno 17320 bound_to 7965
  146.2864  140.4418  142.8756 LP  0  0  0  0  0  0  0  0  0  0  0  0  # atno 17321 bound_to 7965
  140.7728  143.3517  151.2000 LP  0  0  0  0  0  0  0  0  0  0  0  0  # atno 17342 bound_to 10162
  139.7118  143.9364  152.2950 LP  0  0  0  0  0  0  0  0  0  0  0  0  # atno 17343 bound_to 10162
  156.5331  130.8266  151.3244 LP  0  0  0  0  0  0  0  0  0  0  0  0  # atno 17370 bound_to 10713
  157.7401  130.9845  150.2358 LP  0  0  0  0  0  0  0  0  0  0  0  0  # atno 17371 bound_to 10713
  139.8721  134.9824  156.5156 LP  0  0  0  0  0  0  0  0  0  0  0  0  # atno 17394 bound_to 11000
  140.8442  133.8182  155.9104 LP  0  0  0  0  0  0  0  0  0  0  0  0  # atno 17395 bound_to 11000

$$$$
