AV-unprocessed.smi:3028|AV-procd|sdf|11517|dock3
  -GOLD-   2272016453D 1   1.00000     0.00000
 Structure written by MMmdl.
 48 49  0  0  0  0  0  0  0  0  2 V2000
  150.8820  142.5161  157.7942 C   0  0  0  0  0  0  0  0  0  0  0  0
  150.6364  141.5785  156.6474 C   0  0  0  0  0  0  0  0  0  0  0  0
  151.5915  140.8059  155.9281 C   0  0  0  0  0  0  0  0  0  0  0  0
  151.0450  140.0761  154.9697 N   0  0  0  0  0  0  0  0  0  0  0  0
  149.7261  140.3567  155.0375 N   0  0  0  0  0  0  0  0  0  0  0  0
  148.8019  139.7142  154.1117 C   0  0  2  0  0  0  0  0  0  0  0  0
  147.9118  140.7797  153.4461 C   0  0  0  0  0  0  0  0  0  0  0  0
  147.9919  138.5818  154.7982 C   0  0  2  0  0  0  0  0  0  0  0  0
  148.8260  137.7656  155.8023 C   0  0  0  0  0  0  0  0  0  0  0  0
  147.4318  137.6587  153.7859 N   0  3  0  0  0  0  0  0  0  0  0  0
  146.3362  138.2192  152.9655 C   0  0  0  0  0  0  0  0  0  0  0  0
  145.4135  137.1305  152.4019 C   0  0  0  0  0  0  0  0  0  0  0  0
  144.2063  137.1673  152.6344 O   0  0  0  0  0  0  0  0  0  0  0  0
  145.9386  136.1419  151.6585 N   0  0  0  0  0  0  0  0  0  0  0  0
  145.2470  135.0162  151.0311 C   0  0  0  0  0  0  0  0  0  0  0  0
  144.1415  134.4968  151.9630 C   0  0  0  0  0  0  0  0  0  0  0  0
  143.5247  133.2026  151.4080 C   0  0  0  0  0  0  0  0  0  0  0  0
  144.5400  132.2255  151.2067 O   0  0  0  0  0  0  0  0  0  0  0  0
  145.5147  132.6262  150.2498 C   0  0  0  0  0  0  0  0  0  0  0  0
  146.2463  133.8857  150.7417 C   0  0  0  0  0  0  0  0  0  0  0  0
  149.4528  141.2619  156.0436 C   0  0  0  0  0  0  0  0  0  0  0  0
  151.9259  142.5071  158.1086 H   0  0  0  0  0  0  0  0  0  0  0  0
  150.2824  142.2519  158.6655 H   0  0  0  0  0  0  0  0  0  0  0  0
  150.6344  143.5449  157.5323 H   0  0  0  0  0  0  0  0  0  0  0  0
  152.6605  140.7534  156.0744 H   0  0  0  0  0  0  0  0  0  0  0  0
  149.4026  139.2582  153.3219 H   0  0  0  0  0  0  0  0  0  0  0  0
  147.3126  140.3547  152.6411 H   0  0  0  0  0  0  0  0  0  0  0  0
  148.5170  141.5742  153.0078 H   0  0  0  0  0  0  0  0  0  0  0  0
  147.2309  141.2388  154.1634 H   0  0  0  0  0  0  0  0  0  0  0  0
  147.1724  139.0325  155.3608 H   0  0  0  0  0  0  0  0  0  0  0  0
  149.1731  138.3773  156.6354 H   0  0  0  0  0  0  0  0  0  0  0  0
  149.7026  137.3263  155.3249 H   0  0  0  0  0  0  0  0  0  0  0  0
  148.2379  136.9526  156.2292 H   0  0  0  0  0  0  0  0  0  0  0  0
  148.1774  137.3602  153.1733 H   0  0  0  0  0  0  0  0  0  0  0  0
  145.7511  138.9044  153.5802 H   0  0  0  0  0  0  0  0  0  0  0  0
  146.7589  138.7895  152.1380 H   0  0  0  0  0  0  0  0  0  0  0  0
  146.9381  136.1713  151.5146 H   0  0  0  0  0  0  0  0  0  0  0  0
  144.7853  135.3009  150.0861 H   0  0  0  0  0  0  0  0  0  0  0  0
  144.5528  134.2987  152.9540 H   0  0  0  0  0  0  0  0  0  0  0  0
  143.3677  135.2546  152.0921 H   0  0  0  0  0  0  0  0  0  0  0  0
  142.7904  132.8073  152.1102 H   0  0  0  0  0  0  0  0  0  0  0  0
  142.9983  133.3933  150.4716 H   0  0  0  0  0  0  0  0  0  0  0  0
  146.2252  131.8115  150.1085 H   0  0  0  0  0  0  0  0  0  0  0  0
  145.0396  132.8041  149.2837 H   0  0  0  0  0  0  0  0  0  0  0  0
  146.9775  134.2074  149.9992 H   0  0  0  0  0  0  0  0  0  0  0  0
  146.8057  133.6415  151.6461 H   0  0  0  0  0  0  0  0  0  0  0  0
  148.4479  141.6021  156.2466 H   0  0  0  0  0  0  0  0  0  0  0  0
  147.0710  136.8445  154.2626 H   0  0  0  0  0  0  0  0  0  0  0  0
  1  2  1  0  0  0  0
  1 22  1  0  0  0  0
  1 23  1  0  0  0  0
  1 24  1  0  0  0  0
  2 21  2  0  0  0  0
  2  3  1  0  0  0  0
  3  4  2  0  0  0  0
  3 25  1  0  0  0  0
  4  5  1  0  0  0  0
  5  6  1  0  0  0  0
  5 21  1  0  0  0  0
  6  7  1  0  0  0  0
  6  8  1  0  0  0  0
  6 26  1  0  0  0  0
  7 27  1  0  0  0  0
  7 28  1  0  0  0  0
  7 29  1  0  0  0  0
  8  9  1  0  0  0  0
  8 10  1  0  0  0  0
  8 30  1  0  0  0  0
  9 31  1  0  0  0  0
  9 32  1  0  0  0  0
  9 33  1  0  0  0  0
 10 11  1  0  0  0  0
 10 34  1  0  0  0  0
 10 48  1  0  0  0  0
 11 12  1  0  0  0  0
 11 35  1  0  0  0  0
 11 36  1  0  0  0  0
 12 13  2  0  0  0  0
 12 14  1  0  0  0  0
 14 15  1  0  0  0  0
 14 37  1  0  0  0  0
 15 20  1  0  0  0  0
 15 16  1  0  0  0  0
 15 38  1  0  0  0  0
 16 17  1  0  0  0  0
 16 39  1  0  0  0  0
 16 40  1  0  0  0  0
 17 18  1  0  0  0  0
 17 41  1  0  0  0  0
 17 42  1  0  0  0  0
 18 19  1  0  0  0  0
 19 20  1  0  0  0  0
 19 43  1  0  0  0  0
 19 44  1  0  0  0  0
 20 45  1  0  0  0  0
 20 46  1  0  0  0  0
 21 47  1  0  0  0  0
M  CHG  1  10   1
M  END
> <s_m_source_file>
AV-unprocessed.smi

> <i_m_source_file_index>
3028

> <i_lp_mmshare_version>
43012

> <i_f3d_flags>
0

> <s_epik_input>
W0NIM11jMVtjSF1ubihbY0hdMSlbQ0BIXShbQ0gzXSlbQ0BIXShbQ0gzXSlbTkhdW0NIMl1DKD1PKVtOSF1bQ0hdMltDSDJdW0NIMl1PW0NIMl1bQ0gyXTI=

> <s_epik_cmdline>
J2VwaWtfcHl0aG9uJywgJy1waCcsICc3LjAnLCAnLXRuJywgJzgnLCAnLW1hJywgJzIwMCcsICctbWV0YWxfYmluZGluZycsICctaW1hZScsICc8aW5maWxlLm1hZT4nLCAnLW9tYWUnLCAnPG91dGZpbGUubWFlPic=

> <r_lp_tautomer_probability>
1

> <r_epik_Ionization_Penalty>
0.151514

> <r_epik_Ionization_Penalty_Charging>
0.151494

> <r_epik_Ionization_Penalty_Neutral>
1.95502e-05

> <r_epik_State_Penalty>
0.141395

> <r_epik_Charging_Adjusted_Penalty>
0.292889

> <i_epik_Tot_Q>
1

> <i_epik_Tot_abs_Q>
1

> <r_epik_Metal_State_Penalty>
0.141632

> <b_epik_Metal_Only>
0

> <s_lp_Force_Field>
OPLS_2005

> <r_lp_Energy>
18.1204

> <b_lp_Chiralities_Consistent>
1

> <s_lp_Variant>
AV-unprocessed.smi:3028-1

> <Gold.Version>
5.8.1

> <Gold.Id.Protein>
6NUR|6NUR_protein|mol2

> <Gold.PLP.Fitness>
45.0032

> <Gold.PLP.PLP>
-35.1121

> <Gold.PLP.part.hbond>
-3.0000

> <Gold.PLP.part.metal>
0.0000

> <Gold.PLP.part.buried>
-3.4389

> <Gold.PLP.part.nonpolar>
-28.8867

> <Gold.PLP.part.repulsive>
0.4442

> <Gold.PLP.ligand.clash>
0.0000

> <Gold.PLP.ligand.torsion>
1.1419

> <Gold.PLP.Chemscore.Hbond>
4.0000

> <Gold.PLP.Chemscore.CHOScore>
0.0000

> <Gold.PLP.Chemscore.Metal>
0.0000

> <Gold.Chemscore.Hbonds>
donor molecule, donor type, donor heavy atom, donor atom, acceptor molecule, acceptor atom, score
      L1  H    10    34       P1  7948  2.00
      L1  H    14    37       P1  7948  1.00
      P1  H  7989  7998       L1     4  1.00

> <Gold.PLP.Chemscore.Internal.Correction>
0.1748

> <Gold.Rescore>
     Score         DG    S(hbond)    S(metal)    S(lipo)     H(rot)  DE(clash)    DE(int)     intcor
     15.64     -19.05       2.71        0.00      82.14       1.99       0.05       3.36       ----

> <Gold.Chemscore.Fitness>
15.6354

> <Gold.Chemscore.DG>
-19.0526

> <Gold.Chemscore.ZeroCoef>
-5.4800

> <Gold.Chemscore.Hbond>
2.7114

> <Gold.Chemscore.Metal>
0.0000

> <Gold.Chemscore.Lipo>
82.1380

> <Gold.Chemscore.Internal_Hbond>
0.0000

> <Gold.Chemscore.DEClash>
0.0544

> <Gold.Chemscore.DEInternal>
3.3628

> <Gold.Chemscore.Rot>
1.9897

> <Gold.Chemscore.Internal.Correction>
   9.000000E+99

> <Gold.Chemscore.Hbonds>
donor molecule, donor type, donor heavy atom, donor atom, acceptor molecule, acceptor atom, score
      L1  H    10    34       P1  7948  0.98
      L1  H    14    37       P1  7948  0.95
      P1  H  7989  7998       L1     4  0.19

> <Gold.Chemscore.Hbond.Weighted>
-9.0561

> <Gold.Chemscore.Metal.Weighted>
-0.0000

> <Gold.Chemscore.Lipo.Weighted>
-9.6101

> <Gold.Chemscore.Internal_Hbond.Weighted>
0.0000

> <Gold.Chemscore.DEClash.Weighted>
0.0544

> <Gold.Chemscore.DEInternal.Weighted>
3.3628

> <Gold.Chemscore.Rot.Weighted>
5.0936

> <Gold.Chemscore.Internal.Correction.Weighted>
   9.000000E+99

> <Gold.Protein.RotatedTorsions>
[ 6907 6896 6895 6894 ] final  177.74 input  -60.11 | X-H torsion
[ 7974 7965 7964 7962 ] final   66.12 input  175.53 | X-H torsion
[ 8008 7997 7996 7995 ] final  157.45 input   59.86 | X-H torsion
[ 10167 10162 10161 10158 ] final    5.13 input  -65.29 | X-H torsion
[ 10718 10713 10712 10709 ] final   14.14 input   66.30 | X-H torsion
[ 10763 10752 10751 10750 ] final -147.87 input  -60.55 | X-H torsion
[ 11005 11000 10999 10996 ] final   19.14 input  -57.11 | X-H torsion

> <Gold.Protein.ActiveResidues>
 VAL166  LYS551  ARG553  GLY616  TRP617  ASP618  TYR619  PRO620  LYS621  CYS622 
 ASP623  PHE694  ASN695  SER759  ASP760  ASP761  ALA762  ILE779  LEU786  VAL792 
 PHE793  MET794  SER795  GLU796  ALA797  LYS798  CYS799  TRP800  GLU811  SER814 

> <Gold.Protein.RotatedAtoms>
  151.6992  133.3311  159.3261 H   0  0  0  0  0  0  0  0  0  0  0  0  # atno 6907 bound_to 6896
  150.7744  134.6631  159.6360 H   0  0  0  0  0  0  0  0  0  0  0  0  # atno 6908 bound_to 6896
  152.3780  134.6637  160.0205 H   0  0  0  0  0  0  0  0  0  0  0  0  # atno 6909 bound_to 6896
  145.8303  139.3135  143.0991 H   0  0  0  0  0  0  0  0  0  0  0  0  # atno 7974 bound_to 7965
  156.2363  140.1885  156.7110 H   0  0  0  0  0  0  0  0  0  0  0  0  # atno 8008 bound_to 7997
  154.6113  140.0621  156.9524 H   0  0  0  0  0  0  0  0  0  0  0  0  # atno 8009 bound_to 7997
  155.2012  140.3292  155.4345 H   0  0  0  0  0  0  0  0  0  0  0  0  # atno 8010 bound_to 7997
  140.6498  143.7572  150.7557 H   0  0  0  0  0  0  0  0  0  0  0  0  # atno 10167 bound_to 10162
  157.0348  130.6207  149.5741 H   0  0  0  0  0  0  0  0  0  0  0  0  # atno 10718 bound_to 10713
  154.8263  135.3349  154.6885 H   0  0  0  0  0  0  0  0  0  0  0  0  # atno 10763 bound_to 10752
  153.7511  135.6939  153.4950 H   0  0  0  0  0  0  0  0  0  0  0  0  # atno 10764 bound_to 10752
  153.2176  135.4460  155.0402 H   0  0  0  0  0  0  0  0  0  0  0  0  # atno 10765 bound_to 10752
  140.4170  134.1558  155.7670 H   0  0  0  0  0  0  0  0  0  0  0  0  # atno 11005 bound_to 11000
  145.9578  140.8859  143.0226 LP  0  0  0  0  0  0  0  0  0  0  0  0  # atno 17320 bound_to 7965
  144.6740  140.1770  143.7409 LP  0  0  0  0  0  0  0  0  0  0  0  0  # atno 17321 bound_to 7965
  140.1220  143.4603  152.2307 LP  0  0  0  0  0  0  0  0  0  0  0  0  # atno 17342 bound_to 10162
  139.5712  144.7464  151.3885 LP  0  0  0  0  0  0  0  0  0  0  0  0  # atno 17343 bound_to 10162
  156.0057  130.5143  150.7822 LP  0  0  0  0  0  0  0  0  0  0  0  0  # atno 17370 bound_to 10713
  157.5150  131.0928  151.0151 LP  0  0  0  0  0  0  0  0  0  0  0  0  # atno 17371 bound_to 10713
  141.1799  133.8436  157.1295 LP  0  0  0  0  0  0  0  0  0  0  0  0  # atno 17394 bound_to 11000
  140.0227  134.9938  157.0623 LP  0  0  0  0  0  0  0  0  0  0  0  0  # atno 17395 bound_to 11000

$$$$
