AV-unprocessed.smi:2413|AV-procd|sdf|9537|dock5
  -GOLD-   2272013173D 1   1.00000     0.00000
 Structure written by MMmdl.
 46 47  0  0  0  0  0  0  0  0  2 V2000
  151.8906  131.5299  156.5188 C   0  0  0  0  0  0  0  0  0  0  0  0
  151.0590  132.7849  156.7640 C   0  0  0  0  0  0  0  0  0  0  0  0
  150.3395  132.8585  157.7594 O   0  0  0  0  0  0  0  0  0  0  0  0
  151.1686  133.7650  155.8545 N   0  0  0  0  0  0  0  0  0  0  0  0
  150.4665  135.0435  155.9072 C   0  0  0  0  0  0  0  0  0  0  0  0
  151.4135  136.2290  156.1710 C   0  0  1  0  0  0  0  0  0  0  0  0
  150.6988  137.5972  156.1356 C   0  0  0  0  0  0  0  0  0  0  0  0
  151.6329  138.6575  156.4900 N   0  0  0  0  0  0  0  0  0  0  0  0
  151.0955  139.9431  156.3547 C   0  0  0  0  0  0  0  0  0  0  0  0
  150.2127  140.2867  155.3131 C   0  0  0  0  0  0  0  0  0  0  0  0
  149.7433  141.6122  155.2949 C   0  0  0  0  0  0  0  0  0  0  0  0
  150.1379  142.4929  156.2465 N   0  3  0  0  0  0  0  0  0  0  0  0
  150.9833  142.1041  157.2180 C   0  0  0  0  0  0  0  0  0  0  0  0
  151.4114  143.1363  158.2725 C   0  0  0  0  0  0  0  0  0  0  0  0
  152.1018  144.3658  157.6339 C   0  0  0  0  0  0  0  0  0  0  0  0
  152.4220  142.4960  159.2456 C   0  0  0  0  0  0  0  0  0  0  0  0
  150.1720  143.6443  159.0355 C   0  0  0  0  0  0  0  0  0  0  0  0
  151.4646  140.8522  157.2784 N   0  0  0  0  0  0  0  0  0  0  0  0
  152.2843  138.4271  157.7724 C   0  0  0  0  0  0  0  0  0  0  0  0
  152.9569  137.0446  157.7756 C   0  0  0  0  0  0  0  0  0  0  0  0
  151.9898  136.0460  157.4629 O   0  0  0  0  0  0  0  0  0  0  0  0
  152.3635  131.5474  155.5361 H   0  0  0  0  0  0  0  0  0  0  0  0
  151.2594  130.6430  156.5764 H   0  0  0  0  0  0  0  0  0  0  0  0
  152.6725  131.4445  157.2737 H   0  0  0  0  0  0  0  0  0  0  0  0
  151.7791  133.6122  155.0649 H   0  0  0  0  0  0  0  0  0  0  0  0
  149.9529  135.1852  154.9559 H   0  0  0  0  0  0  0  0  0  0  0  0
  149.6896  135.0052  156.6726 H   0  0  0  0  0  0  0  0  0  0  0  0
  152.2129  136.2163  155.4277 H   0  0  0  0  0  0  0  0  0  0  0  0
  150.2962  137.7892  155.1402 H   0  0  0  0  0  0  0  0  0  0  0  0
  149.8576  137.5976  156.8303 H   0  0  0  0  0  0  0  0  0  0  0  0
  149.9068  139.5727  154.5623 H   0  0  0  0  0  0  0  0  0  0  0  0
  149.0631  141.9980  154.5495 H   0  0  0  0  0  0  0  0  0  0  0  0
  152.4022  145.0895  158.3927 H   0  0  0  0  0  0  0  0  0  0  0  0
  151.4396  144.8862  156.9406 H   0  0  0  0  0  0  0  0  0  0  0  0
  153.0019  144.0839  157.0858 H   0  0  0  0  0  0  0  0  0  0  0  0
  153.3037  142.1316  158.7171 H   0  0  0  0  0  0  0  0  0  0  0  0
  151.9882  141.6516  159.7821 H   0  0  0  0  0  0  0  0  0  0  0  0
  152.7612  143.2125  159.9945 H   0  0  0  0  0  0  0  0  0  0  0  0
  150.4432  144.3961  159.7777 H   0  0  0  0  0  0  0  0  0  0  0  0
  149.6648  142.8372  159.5651 H   0  0  0  0  0  0  0  0  0  0  0  0
  149.4485  144.0983  158.3573 H   0  0  0  0  0  0  0  0  0  0  0  0
  153.0257  139.2055  157.9569 H   0  0  0  0  0  0  0  0  0  0  0  0
  151.5501  138.4815  158.5772 H   0  0  0  0  0  0  0  0  0  0  0  0
  153.7787  137.0084  157.0585 H   0  0  0  0  0  0  0  0  0  0  0  0
  153.3805  136.8346  158.7578 H   0  0  0  0  0  0  0  0  0  0  0  0
  149.7880  143.4512  156.2194 H   0  0  0  0  0  0  0  0  0  0  0  0
  1  2  1  0  0  0  0
  1 22  1  0  0  0  0
  1 23  1  0  0  0  0
  1 24  1  0  0  0  0
  2  3  2  0  0  0  0
  2  4  1  0  0  0  0
  4  5  1  0  0  0  0
  4 25  1  0  0  0  0
  5  6  1  0  0  0  0
  5 26  1  0  0  0  0
  5 27  1  0  0  0  0
  6 21  1  0  0  0  0
  6  7  1  0  0  0  0
  6 28  1  0  0  0  0
  7  8  1  0  0  0  0
  7 29  1  0  0  0  0
  7 30  1  0  0  0  0
  8  9  1  0  0  0  0
  8 19  1  0  0  0  0
  9 18  1  0  0  0  0
  9 10  2  0  0  0  0
 10 11  1  0  0  0  0
 10 31  1  0  0  0  0
 11 12  2  0  0  0  0
 11 32  1  0  0  0  0
 12 13  1  0  0  0  0
 12 46  1  0  0  0  0
 13 14  1  0  0  0  0
 13 18  2  0  0  0  0
 14 15  1  0  0  0  0
 14 16  1  0  0  0  0
 14 17  1  0  0  0  0
 15 33  1  0  0  0  0
 15 34  1  0  0  0  0
 15 35  1  0  0  0  0
 16 36  1  0  0  0  0
 16 37  1  0  0  0  0
 16 38  1  0  0  0  0
 17 39  1  0  0  0  0
 17 40  1  0  0  0  0
 17 41  1  0  0  0  0
 19 20  1  0  0  0  0
 19 42  1  0  0  0  0
 19 43  1  0  0  0  0
 20 21  1  0  0  0  0
 20 44  1  0  0  0  0
 20 45  1  0  0  0  0
M  CHG  1  12   1
M  END
> <s_m_source_file>
AV-unprocessed.smi

> <i_m_source_file_index>
2413

> <i_lp_mmshare_version>
43012

> <i_f3d_flags>
0

> <s_epik_input>
W0NIM11DKD1PKVtOSF1bQ0gyXVtDQEBIXTFbQ0gyXU4oW0NIMl1bQ0gyXU8xKWMyW2NIXVtjSF1uYyhuMilDKFtDSDNdKShbQ0gzXSlbQ0gzXQ==

> <s_epik_cmdline>
J2VwaWtfcHl0aG9uJywgJy1waCcsICc3LjAnLCAnLXRuJywgJzgnLCAnLW1hJywgJzIwMCcsICctbWV0YWxfYmluZGluZycsICctaW1hZScsICc8aW5maWxlLm1hZT4nLCAnLW9tYWUnLCAnPG91dGZpbGUubWFlPic=

> <r_lp_tautomer_probability>
0.999336

> <r_epik_Ionization_Penalty>
2.26127

> <r_epik_Ionization_Penalty_Charging>
2.26127

> <r_epik_Ionization_Penalty_Neutral>
4.08984e-07

> <r_epik_State_Penalty>
2.40914

> <r_epik_Charging_Adjusted_Penalty>
4.67041

> <i_epik_Tot_Q>
1

> <i_epik_Tot_abs_Q>
1

> <r_epik_Metal_State_Penalty>
2.42208

> <b_epik_Metal_Only>
0

> <s_lp_Force_Field>
OPLS_2005

> <r_lp_Energy>
19.627

> <b_lp_Chiralities_Consistent>
1

> <s_lp_Variant>
AV-unprocessed.smi:2413-4

> <Gold.Version>
5.8.1

> <Gold.Id.Protein>
6NUR|6NUR_protein|mol2

> <Gold.PLP.Fitness>
41.0880

> <Gold.PLP.PLP>
-32.9773

> <Gold.PLP.part.hbond>
-2.7929

> <Gold.PLP.part.metal>
0.0000

> <Gold.PLP.part.buried>
-4.1485

> <Gold.PLP.part.nonpolar>
-25.6738

> <Gold.PLP.part.repulsive>
0.2357

> <Gold.PLP.ligand.clash>
0.0000

> <Gold.PLP.ligand.torsion>
0.5132

> <Gold.PLP.Chemscore.Hbond>
3.0000

> <Gold.PLP.Chemscore.CHOScore>
0.0000

> <Gold.PLP.Chemscore.Metal>
0.0000

> <Gold.Chemscore.Hbonds>
donor molecule, donor type, donor heavy atom, donor atom, acceptor molecule, acceptor atom, score
      L1  H    12    46       P1  8028  2.00
      P1  H  6896  6909       L1     3  1.00

> <Gold.PLP.Chemscore.Internal.Correction>
0.1372

> <Gold.Rescore>
     Score         DG    S(hbond)    S(metal)    S(lipo)     H(rot)  DE(clash)    DE(int)     intcor
     16.53     -17.28       1.93        0.00      84.54       1.77       0.23       0.51       ----

> <Gold.Chemscore.Fitness>
16.5345

> <Gold.Chemscore.DG>
-17.2756

> <Gold.Chemscore.ZeroCoef>
-5.4800

> <Gold.Chemscore.Hbond>
1.9282

> <Gold.Chemscore.Metal>
0.0000

> <Gold.Chemscore.Lipo>
84.5428

> <Gold.Chemscore.Internal_Hbond>
0.0000

> <Gold.Chemscore.DEClash>
0.2347

> <Gold.Chemscore.DEInternal>
0.5064

> <Gold.Chemscore.Rot>
1.7719

> <Gold.Chemscore.Internal.Correction>
   9.000000E+99

> <Gold.Chemscore.Hbonds>
donor molecule, donor type, donor heavy atom, donor atom, acceptor molecule, acceptor atom, score
      L1  H    12    46       P1  8028  0.99
      P1  H  6896  6909       L1     3  0.97

> <Gold.Chemscore.Hbond.Weighted>
-6.4402

> <Gold.Chemscore.Metal.Weighted>
-0.0000

> <Gold.Chemscore.Lipo.Weighted>
-9.8915

> <Gold.Chemscore.Internal_Hbond.Weighted>
0.0000

> <Gold.Chemscore.DEClash.Weighted>
0.2347

> <Gold.Chemscore.DEInternal.Weighted>
0.5064

> <Gold.Chemscore.Rot.Weighted>
4.5361

> <Gold.Chemscore.Internal.Correction.Weighted>
   9.000000E+99

> <Gold.Protein.RotatedTorsions>
[ 6907 6896 6895 6894 ] final   -5.26 input  -60.11 | X-H torsion
[ 7974 7965 7964 7962 ] final  122.77 input  175.53 | X-H torsion
[ 8008 7997 7996 7995 ] final  110.07 input   59.86 | X-H torsion
[ 10167 10162 10161 10158 ] final  -55.12 input  -65.29 | X-H torsion
[ 10718 10713 10712 10709 ] final   19.83 input   66.30 | X-H torsion
[ 10763 10752 10751 10750 ] final   90.93 input  -60.55 | X-H torsion
[ 11005 11000 10999 10996 ] final  110.59 input  -57.11 | X-H torsion

> <Gold.Protein.ActiveResidues>
 VAL166  LYS551  ARG553  GLY616  TRP617  ASP618  TYR619  PRO620  LYS621  CYS622 
 ASP623  PHE694  ASN695  SER759  ASP760  ASP761  ALA762  ILE779  LEU786  VAL792 
 PHE793  MET794  SER795  GLU796  ALA797  LYS798  CYS799  TRP800  GLU811  SER814 

> <Gold.Protein.RotatedAtoms>
  151.4844  135.1054  159.9786 H   0  0  0  0  0  0  0  0  0  0  0  0  # atno 6907 bound_to 6896
  152.4766  133.8149  159.7034 H   0  0  0  0  0  0  0  0  0  0  0  0  # atno 6908 bound_to 6896
  150.8808  133.7312  159.2959 H   0  0  0  0  0  0  0  0  0  0  0  0  # atno 6909 bound_to 6896
  145.1037  139.3501  143.4799 H   0  0  0  0  0  0  0  0  0  0  0  0  # atno 7974 bound_to 7965
  156.2026  140.3045  155.9558 H   0  0  0  0  0  0  0  0  0  0  0  0  # atno 8008 bound_to 7997
  155.2918  140.0442  157.3040 H   0  0  0  0  0  0  0  0  0  0  0  0  # atno 8009 bound_to 7997
  154.5590  140.2314  155.8373 H   0  0  0  0  0  0  0  0  0  0  0  0  # atno 8010 bound_to 7997
  140.6392  143.2498  151.5035 H   0  0  0  0  0  0  0  0  0  0  0  0  # atno 10167 bound_to 10162
  157.1159  130.6529  149.5910 H   0  0  0  0  0  0  0  0  0  0  0  0  # atno 10718 bound_to 10713
  153.2028  135.4416  155.0286 H   0  0  0  0  0  0  0  0  0  0  0  0  # atno 10763 bound_to 10752
  154.8156  135.3314  154.7187 H   0  0  0  0  0  0  0  0  0  0  0  0  # atno 10764 bound_to 10752
  153.7631  135.6990  153.4977 H   0  0  0  0  0  0  0  0  0  0  0  0  # atno 10765 bound_to 10752
  139.8885  134.9488  156.6303 H   0  0  0  0  0  0  0  0  0  0  0  0  # atno 11005 bound_to 11000
  146.3529  140.0926  142.8612 LP  0  0  0  0  0  0  0  0  0  0  0  0  # atno 17320 bound_to 7965
  145.0926  140.9294  143.4760 LP  0  0  0  0  0  0  0  0  0  0  0  0  # atno 17321 bound_to 7965
  139.5602  144.2176  152.1678 LP  0  0  0  0  0  0  0  0  0  0  0  0  # atno 17342 bound_to 10162
  140.1442  144.5174  150.6726 LP  0  0  0  0  0  0  0  0  0  0  0  0  # atno 17343 bound_to 10162
  155.9839  130.4862  150.6959 LP  0  0  0  0  0  0  0  0  0  0  0  0  # atno 17370 bound_to 10713
  157.4519  131.0873  151.0837 LP  0  0  0  0  0  0  0  0  0  0  0  0  # atno 17371 bound_to 10713
  140.7672  133.8768  155.8463 LP  0  0  0  0  0  0  0  0  0  0  0  0  # atno 17394 bound_to 11000
  140.9873  134.1326  157.4441 LP  0  0  0  0  0  0  0  0  0  0  0  0  # atno 17395 bound_to 11000

$$$$
