AV-unprocessed.smi:3290|AV-procd|sdf|12612|dock4
  -GOLD-   2272018543D 1   1.00000     0.00000
 Structure written by MMmdl.
 43 44  0  0  0  0  0  0  0  0  2 V2000
  146.9303  133.1289  152.5598 C   0  0  0  0  0  0  0  0  0  0  0  0
  146.3437  133.6721  151.2411 C   0  0  1  0  0  0  0  0  0  0  0  0
  146.1995  132.5583  150.1821 C   0  0  0  0  0  0  0  0  0  0  0  0
  145.0389  131.5990  150.4929 C   0  0  0  0  0  0  0  0  0  0  0  0
  143.7183  132.3637  150.6594 C   0  0  0  0  0  0  0  0  0  0  0  0
  143.8396  133.4690  151.7201 C   0  0  0  0  0  0  0  0  0  0  0  0
  144.9996  134.4380  151.4057 C   0  0  1  0  0  0  0  0  0  0  0  0
  145.0515  135.5900  152.4303 C   0  0  0  0  0  0  0  0  0  0  0  0
  146.0108  136.6375  152.0283 N   0  3  0  0  0  0  0  0  0  0  0  0
  145.9714  137.8484  152.8722 C   0  0  0  0  0  0  0  0  0  0  0  0
  146.7754  138.9992  152.2428 C   0  0  2  0  0  0  0  0  0  0  0  0
  147.7057  138.4550  151.3264 O   0  0  0  0  0  0  0  0  0  0  0  0
  147.4606  139.8378  153.3099 C   0  0  0  0  0  0  0  0  0  0  0  0
  148.4802  139.2815  154.1105 C   0  0  0  0  0  0  0  0  0  0  0  0
  149.0935  140.0961  155.0836 C   0  0  0  0  0  0  0  0  0  0  0  0
  148.7569  141.3874  155.2884 N   0  0  0  0  0  0  0  0  0  0  0  0
  147.7824  141.9161  154.5179 C   0  0  0  0  0  0  0  0  0  0  0  0
  147.1061  141.1886  153.5182 C   0  0  0  0  0  0  0  0  0  0  0  0
  146.2400  132.4603  153.0732 H   0  0  0  0  0  0  0  0  0  0  0  0
  147.1854  133.9345  153.2477 H   0  0  0  0  0  0  0  0  0  0  0  0
  147.8486  132.5712  152.3751 H   0  0  0  0  0  0  0  0  0  0  0  0
  147.0805  134.3735  150.8481 H   0  0  0  0  0  0  0  0  0  0  0  0
  146.0286  133.0133  149.2053 H   0  0  0  0  0  0  0  0  0  0  0  0
  147.1309  131.9981  150.0920 H   0  0  0  0  0  0  0  0  0  0  0  0
  144.9418  130.8650  149.6923 H   0  0  0  0  0  0  0  0  0  0  0  0
  145.2546  131.0335  151.3998 H   0  0  0  0  0  0  0  0  0  0  0  0
  143.4307  132.8053  149.7045 H   0  0  0  0  0  0  0  0  0  0  0  0
  142.9203  131.6724  150.9316 H   0  0  0  0  0  0  0  0  0  0  0  0
  142.8991  134.0192  151.7706 H   0  0  0  0  0  0  0  0  0  0  0  0
  143.9794  133.0199  152.7038 H   0  0  0  0  0  0  0  0  0  0  0  0
  144.7713  134.8898  150.4387 H   0  0  0  0  0  0  0  0  0  0  0  0
  144.0649  136.0474  152.5162 H   0  0  0  0  0  0  0  0  0  0  0  0
  145.3052  135.2155  153.4223 H   0  0  0  0  0  0  0  0  0  0  0  0
  146.9436  136.2523  152.0778 H   0  0  0  0  0  0  0  0  0  0  0  0
  144.9302  138.1494  152.9956 H   0  0  0  0  0  0  0  0  0  0  0  0
  146.3576  137.6146  153.8657 H   0  0  0  0  0  0  0  0  0  0  0  0
  146.1009  139.6441  151.6776 H   0  0  0  0  0  0  0  0  0  0  0  0
  148.5444  138.8671  151.4706 H   0  0  0  0  0  0  0  0  0  0  0  0
  148.7899  138.2543  153.9866 H   0  0  0  0  0  0  0  0  0  0  0  0
  149.8765  139.6996  155.7129 H   0  0  0  0  0  0  0  0  0  0  0  0
  147.5348  142.9510  154.7020 H   0  0  0  0  0  0  0  0  0  0  0  0
  146.3353  141.6612  152.9272 H   0  0  0  0  0  0  0  0  0  0  0  0
  145.8215  136.9016  151.0721 H   0  0  0  0  0  0  0  0  0  0  0  0
  1  2  1  0  0  0  0
  1 19  1  0  0  0  0
  1 20  1  0  0  0  0
  1 21  1  0  0  0  0
  2  7  1  0  0  0  0
  2  3  1  0  0  0  0
  2 22  1  0  0  0  0
  3  4  1  0  0  0  0
  3 23  1  0  0  0  0
  3 24  1  0  0  0  0
  4  5  1  0  0  0  0
  4 25  1  0  0  0  0
  4 26  1  0  0  0  0
  5  6  1  0  0  0  0
  5 27  1  0  0  0  0
  5 28  1  0  0  0  0
  6  7  1  0  0  0  0
  6 29  1  0  0  0  0
  6 30  1  0  0  0  0
  7  8  1  0  0  0  0
  7 31  1  0  0  0  0
  8  9  1  0  0  0  0
  8 32  1  0  0  0  0
  8 33  1  0  0  0  0
  9 10  1  0  0  0  0
  9 34  1  0  0  0  0
  9 43  1  0  0  0  0
 10 11  1  0  0  0  0
 10 35  1  0  0  0  0
 10 36  1  0  0  0  0
 11 12  1  0  0  0  0
 11 13  1  0  0  0  0
 11 37  1  0  0  0  0
 12 38  1  0  0  0  0
 13 18  1  0  0  0  0
 13 14  2  0  0  0  0
 14 15  1  0  0  0  0
 14 39  1  0  0  0  0
 15 16  2  0  0  0  0
 15 40  1  0  0  0  0
 16 17  1  0  0  0  0
 17 18  2  0  0  0  0
 17 41  1  0  0  0  0
 18 42  1  0  0  0  0
M  CHG  1   9   1
M  END
> <s_m_source_file>
AV-unprocessed.smi

> <i_m_source_file_index>
3290

> <i_lp_mmshare_version>
43012

> <i_f3d_flags>
0

> <s_epik_input>
W0NIM11bQ0BASF0xW0NIMl1bQ0gyXVtDSDJdW0NIMl1bQ0BIXTFbQ0gyXVtOSF1bQ0gyXVtDQEhdKFtPSF0pYzJbY0hdW2NIXW5bY0hdW2NIXTI=

> <s_epik_cmdline>
J2VwaWtfcHl0aG9uJywgJy1waCcsICc3LjAnLCAnLXRuJywgJzgnLCAnLW1hJywgJzIwMCcsICctbWV0YWxfYmluZGluZycsICctaW1hZScsICc8aW5maWxlLm1hZT4nLCAnLW9tYWUnLCAnPG91dGZpbGUubWFlPic=

> <r_lp_tautomer_probability>
1

> <r_epik_Ionization_Penalty>
0.00420552

> <r_epik_Ionization_Penalty_Charging>
0.00207255

> <r_epik_Ionization_Penalty_Neutral>
0.00213297

> <r_epik_State_Penalty>
-0

> <r_epik_Charging_Adjusted_Penalty>
0.00207255

> <i_epik_Tot_Q>
1

> <i_epik_Tot_abs_Q>
1

> <r_epik_Metal_State_Penalty>
-0

> <b_epik_Metal_Only>
0

> <s_lp_Force_Field>
OPLS_2005

> <r_lp_Energy>
18.26

> <b_lp_Chiralities_Consistent>
1

> <s_lp_Variant>
AV-unprocessed.smi:3290-2

> <Gold.Version>
5.8.1

> <Gold.Id.Protein>
6NUR|6NUR_protein|mol2

> <Gold.PLP.Fitness>
49.8662

> <Gold.PLP.PLP>
-37.4278

> <Gold.PLP.part.hbond>
-3.6620

> <Gold.PLP.part.metal>
0.0000

> <Gold.PLP.part.buried>
-0.3727

> <Gold.PLP.part.nonpolar>
-32.0587

> <Gold.PLP.part.repulsive>
0.1556

> <Gold.PLP.ligand.clash>
0.0000

> <Gold.PLP.ligand.torsion>
0.6181

> <Gold.PLP.Chemscore.Hbond>
3.5456

> <Gold.PLP.Chemscore.CHOScore>
1.0000

> <Gold.PLP.Chemscore.Metal>
0.0000

> <Gold.Chemscore.Hbonds>
donor molecule, donor type, donor heavy atom, donor atom, acceptor molecule, acceptor atom, score
      L1  H     9    34       P1  7948  2.00
      L1  H    12    38       P1  7957  0.99
      P1  H  7954  7966       L1    12  0.54
      L1  C    17    41       P1  8028  1.00

> <Gold.PLP.Chemscore.Internal.Correction>
0.0379

> <Gold.Rescore>
     Score         DG    S(hbond)    S(metal)    S(lipo)     H(rot)  DE(clash)    DE(int)     intcor
     17.02     -18.45       1.88        0.00     101.92       2.05       0.87       0.56       ----

> <Gold.Chemscore.Fitness>
17.0167

> <Gold.Chemscore.DG>
-18.4501

> <Gold.Chemscore.ZeroCoef>
-5.4800

> <Gold.Chemscore.Hbond>
1.8840

> <Gold.Chemscore.Metal>
0.0000

> <Gold.Chemscore.Lipo>
101.9224

> <Gold.Chemscore.Internal_Hbond>
0.0000

> <Gold.Chemscore.DEClash>
0.8726

> <Gold.Chemscore.DEInternal>
0.5608

> <Gold.Chemscore.Rot>
2.0498

> <Gold.Chemscore.Internal.Correction>
   9.000000E+99

> <Gold.Chemscore.Hbonds>
donor molecule, donor type, donor heavy atom, donor atom, acceptor molecule, acceptor atom, score
      L1  H     9    34       P1  7948  0.95
      L1  H    12    38       P1  7957  0.36
      P1  H  7954  7966       L1    12  0.03

> <Gold.Chemscore.Hbond.Weighted>
-6.2926

> <Gold.Chemscore.Metal.Weighted>
-0.0000

> <Gold.Chemscore.Lipo.Weighted>
-11.9249

> <Gold.Chemscore.Internal_Hbond.Weighted>
0.0000

> <Gold.Chemscore.DEClash.Weighted>
0.8726

> <Gold.Chemscore.DEInternal.Weighted>
0.5608

> <Gold.Chemscore.Rot.Weighted>
5.2475

> <Gold.Chemscore.Internal.Correction.Weighted>
   9.000000E+99

> <Gold.Protein.RotatedTorsions>
[ 6907 6896 6895 6894 ] final  -51.06 input  -60.11 | X-H torsion
[ 7974 7965 7964 7962 ] final  167.94 input  175.53 | X-H torsion
[ 8008 7997 7996 7995 ] final  -54.03 input   59.86 | X-H torsion
[ 10167 10162 10161 10158 ] final  112.76 input  -65.29 | X-H torsion
[ 10718 10713 10712 10709 ] final   17.72 input   66.30 | X-H torsion
[ 10763 10752 10751 10750 ] final -135.96 input  -60.55 | X-H torsion
[ 11005 11000 10999 10996 ] final   69.56 input  -57.11 | X-H torsion

> <Gold.Protein.ActiveResidues>
 VAL166  LYS551  ARG553  GLY616  TRP617  ASP618  TYR619  PRO620  LYS621  CYS622 
 ASP623  PHE694  ASN695  SER759  ASP760  ASP761  ALA762  ILE779  LEU786  VAL792 
 PHE793  MET794  SER795  GLU796  ALA797  LYS798  CYS799  TRP800  GLU811  SER814 

> <Gold.Protein.RotatedAtoms>
  150.8647  134.8007  159.7109 H   0  0  0  0  0  0  0  0  0  0  0  0  # atno 6907 bound_to 6896
  152.4672  134.5043  159.9744 H   0  0  0  0  0  0  0  0  0  0  0  0  # atno 6908 bound_to 6896
  151.5141  133.3441  159.2925 H   0  0  0  0  0  0  0  0  0  0  0  0  # atno 6909 bound_to 6896
  144.7406  139.8834  143.6398 H   0  0  0  0  0  0  0  0  0  0  0  0  # atno 7974 bound_to 7965
  154.4150  140.1186  156.5249 H   0  0  0  0  0  0  0  0  0  0  0  0  # atno 8008 bound_to 7997
  155.6664  140.3496  155.4783 H   0  0  0  0  0  0  0  0  0  0  0  0  # atno 8009 bound_to 7997
  155.9669  140.1134  157.0836 H   0  0  0  0  0  0  0  0  0  0  0  0  # atno 8010 bound_to 7997
  139.6512  144.7128  151.2045 H   0  0  0  0  0  0  0  0  0  0  0  0  # atno 10167 bound_to 10162
  157.0862  130.6408  149.5838 H   0  0  0  0  0  0  0  0  0  0  0  0  # atno 10718 bound_to 10713
  154.8693  135.3687  154.4983 H   0  0  0  0  0  0  0  0  0  0  0  0  # atno 10763 bound_to 10752
  153.5625  135.7022  153.5545 H   0  0  0  0  0  0  0  0  0  0  0  0  # atno 10764 bound_to 10752
  153.3615  135.4045  155.1685 H   0  0  0  0  0  0  0  0  0  0  0  0  # atno 10765 bound_to 10752
  139.9647  134.7001  156.0571 H   0  0  0  0  0  0  0  0  0  0  0  0  # atno 11005 bound_to 11000
  146.1194  139.4210  143.0237 LP  0  0  0  0  0  0  0  0  0  0  0  0  # atno 17320 bound_to 7965
  145.7326  141.0037  143.1343 LP  0  0  0  0  0  0  0  0  0  0  0  0  # atno 17321 bound_to 7965
  140.7538  143.6148  150.8571 LP  0  0  0  0  0  0  0  0  0  0  0  0  # atno 17342 bound_to 10162
  139.9796  143.5966  152.2947 LP  0  0  0  0  0  0  0  0  0  0  0  0  # atno 17343 bound_to 10162
  155.9910  130.4963  150.7282 LP  0  0  0  0  0  0  0  0  0  0  0  0  # atno 17370 bound_to 10713
  157.4759  131.0898  151.0590 LP  0  0  0  0  0  0  0  0  0  0  0  0  # atno 17371 bound_to 10713
  141.1326  133.6583  156.3506 LP  0  0  0  0  0  0  0  0  0  0  0  0  # atno 17394 bound_to 11000
  140.5423  134.6108  157.5383 LP  0  0  0  0  0  0  0  0  0  0  0  0  # atno 17395 bound_to 11000

$$$$
