AV-unprocessed.smi:788|AV-procd|sdf|3731|dock4
  -GOLD-   22720 1163D 1   1.00000     0.00000
 Structure written by MMmdl.
 35 36  0  0  0  0  0  0  0  0  1 V2000
  150.9094  139.3452  154.9640 C   0  0  0  0  0  0  0  0  0  0  0  0
  149.5877  139.7670  154.2961 C   0  0  2  0  0  0  0  0  0  0  0  0
  149.2116  141.2031  154.7107 C   0  0  0  0  0  0  0  0  0  0  0  0
  147.8991  141.6642  154.0611 C   0  0  0  0  0  0  0  0  0  0  0  0
  146.7525  140.6913  154.3764 C   0  0  0  0  0  0  0  0  0  0  0  0
  147.0852  139.2438  153.9635 C   0  0  1  0  0  0  0  0  0  0  0  0
  147.0275  139.0553  152.4327 C   0  0  0  0  0  0  0  0  0  0  0  0
  148.4239  138.7905  154.6079 C   0  0  1  0  0  0  0  0  0  0  0  0
  148.7732  137.4321  154.1961 N   0  0  0  0  0  0  0  0  0  0  0  0
  149.0389  136.4021  155.0158 C   0  0  0  0  0  0  0  0  0  0  0  0
  149.0180  136.5053  156.2409 O   0  0  0  0  0  0  0  0  0  0  0  0
  149.3361  135.2259  154.4229 N   0  0  0  0  0  0  0  0  0  0  0  0
  149.6642  133.9462  154.9600 C   0  0  0  0  0  0  0  0  0  0  0  0
  149.8398  133.6870  156.2665 N   0  0  0  0  0  0  0  0  0  0  0  0
  150.1561  132.3554  156.4985 N   0  0  0  0  0  0  0  0  0  0  0  0
  150.2109  131.6600  155.3594 C   0  0  0  0  0  0  0  0  0  0  0  0
  149.8798  132.5651  153.8932 S   0  0  0  0  0  0  0  0  0  0  0  0
  150.8028  139.2834  156.0474 H   0  0  0  0  0  0  0  0  0  0  0  0
  151.7018  140.0627  154.7496 H   0  0  0  0  0  0  0  0  0  0  0  0
  151.2514  138.3738  154.6064 H   0  0  0  0  0  0  0  0  0  0  0  0
  149.7601  139.7661  153.2191 H   0  0  0  0  0  0  0  0  0  0  0  0
  149.1159  141.2584  155.7960 H   0  0  0  0  0  0  0  0  0  0  0  0
  150.0118  141.8918  154.4378 H   0  0  0  0  0  0  0  0  0  0  0  0
  147.6435  142.6625  154.4169 H   0  0  0  0  0  0  0  0  0  0  0  0
  148.0317  141.7497  152.9823 H   0  0  0  0  0  0  0  0  0  0  0  0
  146.5500  140.7190  155.4478 H   0  0  0  0  0  0  0  0  0  0  0  0
  145.8356  141.0235  153.8882 H   0  0  0  0  0  0  0  0  0  0  0  0
  146.2953  138.6133  154.3745 H   0  0  0  0  0  0  0  0  0  0  0  0
  147.8073  139.6180  151.9207 H   0  0  0  0  0  0  0  0  0  0  0  0
  146.0683  139.3891  152.0367 H   0  0  0  0  0  0  0  0  0  0  0  0
  147.1396  138.0078  152.1526 H   0  0  0  0  0  0  0  0  0  0  0  0
  148.2894  138.7905  155.6917 H   0  0  0  0  0  0  0  0  0  0  0  0
  148.8124  137.2596  153.2014 H   0  0  0  0  0  0  0  0  0  0  0  0
  149.3379  135.2620  153.4139 H   0  0  0  0  0  0  0  0  0  0  0  0
  150.4477  130.6065  155.3821 H   0  0  0  0  0  0  0  0  0  0  0  0
  1  2  1  0  0  0  0
  1 18  1  0  0  0  0
  1 19  1  0  0  0  0
  1 20  1  0  0  0  0
  2  8  1  0  0  0  0
  2  3  1  0  0  0  0
  2 21  1  0  0  0  0
  3  4  1  0  0  0  0
  3 22  1  0  0  0  0
  3 23  1  0  0  0  0
  4  5  1  0  0  0  0
  4 24  1  0  0  0  0
  4 25  1  0  0  0  0
  5  6  1  0  0  0  0
  5 26  1  0  0  0  0
  5 27  1  0  0  0  0
  6  7  1  0  0  0  0
  6  8  1  0  0  0  0
  6 28  1  0  0  0  0
  7 29  1  0  0  0  0
  7 30  1  0  0  0  0
  7 31  1  0  0  0  0
  8  9  1  0  0  0  0
  8 32  1  0  0  0  0
  9 10  1  0  0  0  0
  9 33  1  0  0  0  0
 10 11  2  0  0  0  0
 10 12  1  0  0  0  0
 12 13  1  0  0  0  0
 12 34  1  0  0  0  0
 13 17  1  0  0  0  0
 13 14  2  0  0  0  0
 14 15  1  0  0  0  0
 15 16  2  0  0  0  0
 16 17  1  0  0  0  0
 16 35  1  0  0  0  0
M  END
> <s_m_source_file>
AV-unprocessed.smi

> <i_m_source_file_index>
788

> <i_lp_mmshare_version>
43012

> <i_f3d_flags>
0

> <s_epik_input>
W0NIM11bQ0BASF0xW0NIMl1bQ0gyXVtDSDJdW0NAQEhdKFtDSDNdKVtDQEhdMVtOSF1DKD1PKVtOSF1jMm5uW2NIXXMy

> <s_epik_cmdline>
J2VwaWtfcHl0aG9uJywgJy1waCcsICc3LjAnLCAnLXRuJywgJzgnLCAnLW1hJywgJzIwMCcsICctbWV0YWxfYmluZGluZycsICctaW1hZScsICc8aW5maWxlLm1hZT4nLCAnLW9tYWUnLCAnPG91dGZpbGUubWFlPic=

> <r_lp_tautomer_probability>
1

> <r_epik_Ionization_Penalty>
0.000304078

> <r_epik_Ionization_Penalty_Charging>
0

> <r_epik_Ionization_Penalty_Neutral>
0.000304078

> <r_epik_State_Penalty>
-0

> <r_epik_Charging_Adjusted_Penalty>
0

> <i_epik_Tot_Q>
0

> <i_epik_Tot_abs_Q>
0

> <r_epik_Metal_State_Penalty>
0.164801

> <b_epik_Metal_Only>
0

> <s_lp_Force_Field>
OPLS_2005

> <r_lp_Energy>
15.5702

> <b_lp_Chiralities_Consistent>
1

> <s_lp_Variant>
AV-unprocessed.smi:788-1

> <Gold.Version>
5.8.1

> <Gold.Id.Protein>
6NUR|6NUR_protein|mol2

> <Gold.PLP.Fitness>
33.2062

> <Gold.PLP.PLP>
-27.3615

> <Gold.PLP.part.hbond>
-2.0000

> <Gold.PLP.part.metal>
0.0000

> <Gold.PLP.part.buried>
-1.0465

> <Gold.PLP.part.nonpolar>
-24.3822

> <Gold.PLP.part.repulsive>
0.0411

> <Gold.PLP.ligand.clash>
0.0000

> <Gold.PLP.ligand.torsion>
0.0729

> <Gold.PLP.Chemscore.Hbond>
1.9920

> <Gold.PLP.Chemscore.CHOScore>
0.0000

> <Gold.PLP.Chemscore.Metal>
0.0000

> <Gold.Chemscore.Hbonds>
donor molecule, donor type, donor heavy atom, donor atom, acceptor molecule, acceptor atom, score
      L1  H     9    33       P1  7948  1.00
      L1  H    12    34       P1  7948  0.84

> <Gold.PLP.Chemscore.Internal.Correction>
0.0145

> <Gold.Rescore>
     Score         DG    S(hbond)    S(metal)    S(lipo)     H(rot)  DE(clash)    DE(int)     intcor
     15.00     -16.25       1.84        0.00      61.38       1.00       0.03       1.22       ----

> <Gold.Chemscore.Fitness>
14.9965

> <Gold.Chemscore.DG>
-16.2501

> <Gold.Chemscore.ZeroCoef>
-5.4800

> <Gold.Chemscore.Hbond>
1.8410

> <Gold.Chemscore.Metal>
0.0000

> <Gold.Chemscore.Lipo>
61.3777

> <Gold.Chemscore.Internal_Hbond>
0.0000

> <Gold.Chemscore.DEClash>
0.0344

> <Gold.Chemscore.DEInternal>
1.2193

> <Gold.Chemscore.Rot>
1.0000

> <Gold.Chemscore.Internal.Correction>
   9.000000E+99

> <Gold.Chemscore.Hbonds>
donor molecule, donor type, donor heavy atom, donor atom, acceptor molecule, acceptor atom, score
      L1  H     9    33       P1  7948  0.97
      L1  H    12    34       P1  7948  0.14

> <Gold.Chemscore.Hbond.Weighted>
-6.1489

> <Gold.Chemscore.Metal.Weighted>
-0.0000

> <Gold.Chemscore.Lipo.Weighted>
-7.1812

> <Gold.Chemscore.Internal_Hbond.Weighted>
0.0000

> <Gold.Chemscore.DEClash.Weighted>
0.0344

> <Gold.Chemscore.DEInternal.Weighted>
1.2193

> <Gold.Chemscore.Rot.Weighted>
2.5600

> <Gold.Chemscore.Internal.Correction.Weighted>
   9.000000E+99

> <Gold.Protein.RotatedTorsions>
[ 6907 6896 6895 6894 ] final  -93.20 input  -60.11 | X-H torsion
[ 7974 7965 7964 7962 ] final  147.28 input  175.53 | X-H torsion
[ 8008 7997 7996 7995 ] final  174.31 input   59.86 | X-H torsion
[ 10167 10162 10161 10158 ] final  148.69 input  -65.29 | X-H torsion
[ 10718 10713 10712 10709 ] final -149.01 input   66.30 | X-H torsion
[ 10763 10752 10751 10750 ] final -110.43 input  -60.55 | X-H torsion
[ 11005 11000 10999 10996 ] final -176.39 input  -57.11 | X-H torsion

> <Gold.Protein.ActiveResidues>
 VAL166  LYS551  ARG553  GLY616  TRP617  ASP618  TYR619  PRO620  LYS621  CYS622 
 ASP623  PHE694  ASN695  SER759  ASP760  ASP761  ALA762  ILE779  LEU786  VAL792 
 PHE793  MET794  SER795  GLU796  ALA797  LYS798  CYS799  TRP800  GLU811  SER814 

> <Gold.Protein.RotatedAtoms>
  150.6918  134.2004  159.4319 H   0  0  0  0  0  0  0  0  0  0  0  0  # atno 6907 bound_to 6896
  151.9970  134.9946  160.0573 H   0  0  0  0  0  0  0  0  0  0  0  0  # atno 6908 bound_to 6896
  152.1614  133.4549  159.4900 H   0  0  0  0  0  0  0  0  0  0  0  0  # atno 6909 bound_to 6896
  144.8604  139.6009  143.5933 H   0  0  0  0  0  0  0  0  0  0  0  0  # atno 7974 bound_to 7965
  156.0987  140.1437  156.9497 H   0  0  0  0  0  0  0  0  0  0  0  0  # atno 8008 bound_to 7997
  154.4688  140.0917  156.7136 H   0  0  0  0  0  0  0  0  0  0  0  0  # atno 8009 bound_to 7997
  155.4797  140.3444  155.4340 H   0  0  0  0  0  0  0  0  0  0  0  0  # atno 8010 bound_to 7997
  139.4871  144.5660  151.7144 H   0  0  0  0  0  0  0  0  0  0  0  0  # atno 10167 bound_to 10162
  156.4276  130.8059  151.2285 H   0  0  0  0  0  0  0  0  0  0  0  0  # atno 10718 bound_to 10713
  154.8247  135.4564  154.0884 H   0  0  0  0  0  0  0  0  0  0  0  0  # atno 10763 bound_to 10752
  153.2208  135.6894  153.8009 H   0  0  0  0  0  0  0  0  0  0  0  0  # atno 10764 bound_to 10752
  153.7427  135.3310  155.3283 H   0  0  0  0  0  0  0  0  0  0  0  0  # atno 10765 bound_to 10752
  140.4527  134.6329  157.4808 H   0  0  0  0  0  0  0  0  0  0  0  0  # atno 11005 bound_to 11000
  146.2856  139.6995  142.9198 LP  0  0  0  0  0  0  0  0  0  0  0  0  # atno 17320 bound_to 7965
  145.4323  141.0416  143.2903 LP  0  0  0  0  0  0  0  0  0  0  0  0  # atno 17321 bound_to 7965
  140.5238  144.0838  150.6031 LP  0  0  0  0  0  0  0  0  0  0  0  0  # atno 17342 bound_to 10162
  140.3805  143.2805  152.0176 LP  0  0  0  0  0  0  0  0  0  0  0  0  # atno 17343 bound_to 10162
  157.7508  131.0208  150.3725 LP  0  0  0  0  0  0  0  0  0  0  0  0  # atno 17370 bound_to 10713
  156.4056  130.3924  149.6928 LP  0  0  0  0  0  0  0  0  0  0  0  0  # atno 17371 bound_to 10713
  139.9996  134.6856  155.9551 LP  0  0  0  0  0  0  0  0  0  0  0  0  # atno 17394 bound_to 11000
  141.1657  133.6537  156.4471 LP  0  0  0  0  0  0  0  0  0  0  0  0  # atno 17395 bound_to 11000

$$$$
