AV-unprocessed.smi:99|AV-procd|sdf|885|dock3
  -GOLD-   2262017363D 1   1.00000     0.00000
 Structure written by MMmdl.
 52 55  0  0  0  0  0  0  0  0  2 V2000
  153.0649  139.9965  158.2817 O   0  0  0  0  0  0  0  0  0  0  0  0
  152.1108  140.7590  158.1146 C   0  0  0  0  0  0  0  0  0  0  0  0
  150.9740  140.4046  157.4866 O   0  0  0  0  0  0  0  0  0  0  0  0
  150.9946  139.3874  156.4992 C   0  0  0  0  0  0  0  0  0  0  0  0
  150.4777  138.0810  157.1173 C   0  0  2  0  0  0  0  0  0  0  0  0
  151.3949  137.0394  156.8010 O   0  0  0  0  0  0  0  0  0  0  0  0
  150.9550  136.2943  155.7038 C   0  0  1  0  0  0  0  0  0  0  0  0
  150.9095  134.8341  156.0940 N   0  0  0  0  0  0  0  0  0  0  0  0
  149.8522  134.0264  155.7090 C   0  0  0  0  0  0  0  0  0  0  0  0
  149.8153  132.7173  156.0312 C   0  0  0  0  0  0  0  0  0  0  0  0
  150.9127  132.1379  156.8004 C   0  0  0  0  0  0  0  0  0  0  0  0
  150.8642  130.9472  157.1028 O   0  0  0  0  0  0  0  0  0  0  0  0
  151.9523  132.9499  157.1492 N   0  5  0  0  0  0  0  0  0  0  0  0
  151.9974  134.2725  156.8151 C   0  0  0  0  0  0  0  0  0  0  0  0
  152.9434  135.0079  157.0996 O   0  0  0  0  0  0  0  0  0  0  0  0
  149.5465  136.7750  155.3234 C   0  0  2  0  0  0  0  0  0  0  0  0
  149.5447  137.5253  154.1266 O   0  0  0  0  0  0  0  0  0  0  0  0
  149.1426  137.6376  156.5074 C   0  0  1  0  0  0  0  0  0  0  0  0
  148.4138  136.8314  157.4259 O   0  0  0  0  0  0  0  0  0  0  0  0
  148.1648  137.2513  158.6826 C   0  0  0  0  0  0  0  0  0  0  0  0
  148.1494  138.4374  159.0179 O   0  0  0  0  0  0  0  0  0  0  0  0
  147.9197  136.1229  159.6263 C   0  0  0  0  0  0  0  0  0  0  0  0
  147.6095  136.4027  160.9775 C   0  0  0  0  0  0  0  0  0  0  0  0
  147.3762  135.3562  161.8911 C   0  0  0  0  0  0  0  0  0  0  0  0
  147.4509  134.0174  161.4647 C   0  0  0  0  0  0  0  0  0  0  0  0
  147.7580  133.7258  160.1228 C   0  0  0  0  0  0  0  0  0  0  0  0
  147.9911  134.7706  159.2078 C   0  0  0  0  0  0  0  0  0  0  0  0
  152.0951  142.1745  158.5844 C   0  0  0  0  0  0  0  0  0  0  0  0
  151.6214  143.1876  157.7183 C   0  0  0  0  0  0  0  0  0  0  0  0
  151.5939  144.5326  158.1353 C   0  0  0  0  0  0  0  0  0  0  0  0
  152.0409  144.8812  159.4231 C   0  0  0  0  0  0  0  0  0  0  0  0
  152.5153  143.8829  160.2937 C   0  0  0  0  0  0  0  0  0  0  0  0
  152.5432  142.5373  159.8787 C   0  0  0  0  0  0  0  0  0  0  0  0
  150.3505  139.6875  155.6716 H   0  0  0  0  0  0  0  0  0  0  0  0
  152.0023  139.2568  156.1029 H   0  0  0  0  0  0  0  0  0  0  0  0
  150.4002  138.2017  158.1985 H   0  0  0  0  0  0  0  0  0  0  0  0
  151.6905  136.3736  154.9014 H   0  0  0  0  0  0  0  0  0  0  0  0
  149.0386  134.4368  155.1301 H   0  0  0  0  0  0  0  0  0  0  0  0
  148.9849  132.1012  155.7190 H   0  0  0  0  0  0  0  0  0  0  0  0
  148.8676  135.9323  155.1807 H   0  0  0  0  0  0  0  0  0  0  0  0
  149.2902  136.9514  153.4194 H   0  0  0  0  0  0  0  0  0  0  0  0
  148.5283  138.4830  156.1926 H   0  0  0  0  0  0  0  0  0  0  0  0
  147.5470  137.4229  161.3283 H   0  0  0  0  0  0  0  0  0  0  0  0
  147.1398  135.5820  162.9206 H   0  0  0  0  0  0  0  0  0  0  0  0
  147.2724  133.2151  162.1655 H   0  0  0  0  0  0  0  0  0  0  0  0
  147.8153  132.6989  159.7928 H   0  0  0  0  0  0  0  0  0  0  0  0
  148.2239  134.5103  158.1854 H   0  0  0  0  0  0  0  0  0  0  0  0
  151.2729  142.9439  156.7250 H   0  0  0  0  0  0  0  0  0  0  0  0
  151.2287  145.2974  157.4657 H   0  0  0  0  0  0  0  0  0  0  0  0
  152.0204  145.9126  159.7428 H   0  0  0  0  0  0  0  0  0  0  0  0
  152.8589  144.1489  161.2826 H   0  0  0  0  0  0  0  0  0  0  0  0
  152.9147  141.7963  160.5715 H   0  0  0  0  0  0  0  0  0  0  0  0
  1  2  2  0  0  0  0
  2  3  1  0  0  0  0
  2 28  1  0  0  0  0
  3  4  1  0  0  0  0
  4  5  1  0  0  0  0
  4 34  1  0  0  0  0
  4 35  1  0  0  0  0
  5 18  1  0  0  0  0
  5  6  1  0  0  0  0
  5 36  1  0  0  0  0
  6  7  1  0  0  0  0
  7  8  1  0  0  0  0
  7 16  1  0  0  0  0
  7 37  1  0  0  0  0
  8 14  1  0  0  0  0
  8  9  1  0  0  0  0
  9 10  2  0  0  0  0
  9 38  1  0  0  0  0
 10 11  1  0  0  0  0
 10 39  1  0  0  0  0
 11 12  2  0  0  0  0
 11 13  1  0  0  0  0
 13 14  1  0  0  0  0
 14 15  2  0  0  0  0
 16 17  1  0  0  0  0
 16 18  1  0  0  0  0
 16 40  1  0  0  0  0
 17 41  1  0  0  0  0
 18 19  1  0  0  0  0
 18 42  1  0  0  0  0
 19 20  1  0  0  0  0
 20 21  2  0  0  0  0
 20 22  1  0  0  0  0
 22 27  1  0  0  0  0
 22 23  2  0  0  0  0
 23 24  1  0  0  0  0
 23 43  1  0  0  0  0
 24 25  2  0  0  0  0
 24 44  1  0  0  0  0
 25 26  1  0  0  0  0
 25 45  1  0  0  0  0
 26 27  2  0  0  0  0
 26 46  1  0  0  0  0
 27 47  1  0  0  0  0
 28 33  1  0  0  0  0
 28 29  2  0  0  0  0
 29 30  1  0  0  0  0
 29 48  1  0  0  0  0
 30 31  2  0  0  0  0
 30 49  1  0  0  0  0
 31 32  1  0  0  0  0
 31 50  1  0  0  0  0
 32 33  2  0  0  0  0
 32 51  1  0  0  0  0
 33 52  1  0  0  0  0
M  CHG  1  13  -1
M  END
> <s_m_source_file>
AV-unprocessed.smi

> <i_m_source_file_index>
99

> <i_lp_mmshare_version>
43012

> <i_f3d_flags>
0

> <s_epik_input>
W2NIXTFbY0hdW2NIXVtjSF1bY0hdYzFDKD1PKU9bQ0gyXVtDQEBIXTJPW0NAQEhdKG4zW2NIXVtjSF1jKD1PKVtuSF1jMz1PKVtDQEBIXShbT0hdKVtDQEhdMk9DKD1PKWM0W2NIXVtjSF1bY0hdW2NIXVtjSF00

> <s_epik_cmdline>
J2VwaWtfcHl0aG9uJywgJy1waCcsICc3LjAnLCAnLXRuJywgJzgnLCAnLW1hJywgJzIwMCcsICctbWV0YWxfYmluZGluZycsICctaW1hZScsICc8aW5maWxlLm1hZT4nLCAnLW9tYWUnLCAnPG91dGZpbGUubWFlPic=

> <r_lp_tautomer_probability>
1

> <r_epik_Ionization_Penalty>
2.89159

> <r_epik_Ionization_Penalty_Charging>
2.1077e-08

> <r_epik_Ionization_Penalty_Neutral>
2.89159

> <r_epik_State_Penalty>
2.88671

> <r_epik_Charging_Adjusted_Penalty>
2.88671

> <i_epik_Tot_Q>
-1

> <i_epik_Tot_abs_Q>
1

> <r_epik_Metal_State_Penalty>
0.0727308

> <b_epik_Metal_Only>
1

> <s_epik_Chemistry_Notes>
This compound has an ester and may undergo hydrolysis at high or low pH. This compound contains an acetal/aminal-like group ( X-CH(R)-Y where X, Y are N, S, or O) that may be acid/base labile, releasing an aldehyde.

> <s_lp_Force_Field>
OPLS_2005

> <r_lp_Energy>
38.0652

> <b_lp_Chiralities_Consistent>
1

> <s_lp_Variant>
AV-unprocessed.smi:99-21

> <Gold.Version>
5.8.1

> <Gold.Id.Protein>
6NUR|6NUR_protein|mol2

> <Gold.PLP.Fitness>
58.6725

> <Gold.PLP.PLP>
-50.7757

> <Gold.PLP.part.hbond>
-5.7211

> <Gold.PLP.part.metal>
0.0000

> <Gold.PLP.part.buried>
-3.5147

> <Gold.PLP.part.nonpolar>
-41.5148

> <Gold.PLP.part.repulsive>
0.0000

> <Gold.PLP.ligand.clash>
0.0000

> <Gold.PLP.ligand.torsion>
2.9773

> <Gold.PLP.Chemscore.Hbond>
4.3827

> <Gold.PLP.Chemscore.CHOScore>
0.0000

> <Gold.PLP.Chemscore.Metal>
0.0000

> <Gold.Chemscore.Hbonds>
donor molecule, donor type, donor heavy atom, donor atom, acceptor molecule, acceptor atom, score
      L1  H    17    41       P1  7948  1.00
      P1  H  6896  6909       L1    13  0.78
      P1  H  6934  6947       L1    21  0.05
      P1  H  7997  8010       L1     1  1.00
      P1  H 10752 10764       L1    15  0.99

> <Gold.PLP.Chemscore.Internal.Correction>
0.7033

> <Gold.Rescore>
     Score         DG    S(hbond)    S(metal)    S(lipo)     H(rot)  DE(clash)    DE(int)     intcor
     16.18     -21.86       2.80        0.00     128.75       3.13       0.16       5.52       ----

> <Gold.Chemscore.Fitness>
16.1815

> <Gold.Chemscore.DG>
-21.8595

> <Gold.Chemscore.ZeroCoef>
-5.4800

> <Gold.Chemscore.Hbond>
2.7965

> <Gold.Chemscore.Metal>
0.0000

> <Gold.Chemscore.Lipo>
128.7498

> <Gold.Chemscore.Internal_Hbond>
0.0000

> <Gold.Chemscore.DEClash>
0.1603

> <Gold.Chemscore.DEInternal>
5.5177

> <Gold.Chemscore.Rot>
3.1346

> <Gold.Chemscore.Internal.Correction>
   9.000000E+99

> <Gold.Chemscore.Hbonds>
donor molecule, donor type, donor heavy atom, donor atom, acceptor molecule, acceptor atom, score
      L1  H    17    41       P1  7948  0.97
      P1  H  6896  6909       L1    13  0.02
      P1  H  6934  6947       L1    21  0.07
      P1  H  7997  8010       L1     1  0.93
      P1  H 10752 10764       L1    15  0.42

> <Gold.Chemscore.Hbond.Weighted>
-9.3403

> <Gold.Chemscore.Metal.Weighted>
-0.0000

> <Gold.Chemscore.Lipo.Weighted>
-15.0637

> <Gold.Chemscore.Internal_Hbond.Weighted>
0.0000

> <Gold.Chemscore.DEClash.Weighted>
0.1603

> <Gold.Chemscore.DEInternal.Weighted>
5.5177

> <Gold.Chemscore.Rot.Weighted>
8.0246

> <Gold.Chemscore.Internal.Correction.Weighted>
   9.000000E+99

> <Gold.Protein.RotatedTorsions>
[ 6907 6896 6895 6894 ] final  -58.60 input  -60.11 | X-H torsion
[ 7974 7965 7964 7962 ] final  105.46 input  175.53 | X-H torsion
[ 8008 7997 7996 7995 ] final   31.07 input   59.86 | X-H torsion
[ 10167 10162 10161 10158 ] final  -17.43 input  -65.29 | X-H torsion
[ 10718 10713 10712 10709 ] final   43.81 input   66.30 | X-H torsion
[ 10763 10752 10751 10750 ] final   17.07 input  -60.55 | X-H torsion
[ 11005 11000 10999 10996 ] final   60.42 input  -57.11 | X-H torsion

> <Gold.Protein.ActiveResidues>
 VAL166  LYS551  ARG553  GLY616  TRP617  ASP618  TYR619  PRO620  LYS621  CYS622 
 ASP623  PHE694  ASN695  SER759  ASP760  ASP761  ALA762  ILE779  LEU786  VAL792 
 PHE793  MET794  SER795  GLU796  ALA797  LYS798  CYS799  TRP800  GLU811  SER814 

> <Gold.Protein.RotatedAtoms>
  150.7994  134.7078  159.6585 H   0  0  0  0  0  0  0  0  0  0  0  0  # atno 6907 bound_to 6896
  152.4110  134.6121  160.0038 H   0  0  0  0  0  0  0  0  0  0  0  0  # atno 6908 bound_to 6896
  151.6364  133.3291  159.3156 H   0  0  0  0  0  0  0  0  0  0  0  0  # atno 6909 bound_to 6896
  145.3194  139.2517  143.3720 H   0  0  0  0  0  0  0  0  0  0  0  0  # atno 7974 bound_to 7965
  155.1006  140.3229  155.4548 H   0  0  0  0  0  0  0  0  0  0  0  0  # atno 8008 bound_to 7997
  156.2718  140.2061  156.6079 H   0  0  0  0  0  0  0  0  0  0  0  0  # atno 8009 bound_to 7997
  154.6832  140.0524  157.0275 H   0  0  0  0  0  0  0  0  0  0  0  0  # atno 8010 bound_to 7997
  140.7247  143.5016  150.9862 H   0  0  0  0  0  0  0  0  0  0  0  0  # atno 10167 bound_to 10162
  157.4199  130.7963  149.7506 H   0  0  0  0  0  0  0  0  0  0  0  0  # atno 10718 bound_to 10713
  153.1373  135.6752  153.9083 H   0  0  0  0  0  0  0  0  0  0  0  0  # atno 10763 bound_to 10752
  153.8551  135.3088  155.3436 H   0  0  0  0  0  0  0  0  0  0  0  0  # atno 10764 bound_to 10752
  154.7758  135.4915  153.9824 H   0  0  0  0  0  0  0  0  0  0  0  0  # atno 10765 bound_to 10752
  140.0233  134.6120  155.9608 H   0  0  0  0  0  0  0  0  0  0  0  0  # atno 11005 bound_to 11000
  146.3088  140.3748  142.8678 LP  0  0  0  0  0  0  0  0  0  0  0  0  # atno 17320 bound_to 7965
  144.8951  140.7573  143.5902 LP  0  0  0  0  0  0  0  0  0  0  0  0  # atno 17321 bound_to 7965
  139.8726  143.7173  152.3165 LP  0  0  0  0  0  0  0  0  0  0  0  0  # atno 17342 bound_to 10162
  139.7427  144.7555  151.0627 LP  0  0  0  0  0  0  0  0  0  0  0  0  # atno 17343 bound_to 10162
  155.9877  130.3964  150.3151 LP  0  0  0  0  0  0  0  0  0  0  0  0  # atno 17370 bound_to 10713
  157.1298  131.0269  151.2974 LP  0  0  0  0  0  0  0  0  0  0  0  0  # atno 17371 bound_to 10713
  141.1787  133.6543  156.4933 LP  0  0  0  0  0  0  0  0  0  0  0  0  # atno 17394 bound_to 11000
  140.4350  134.7068  157.4962 LP  0  0  0  0  0  0  0  0  0  0  0  0  # atno 17395 bound_to 11000

$$$$
