AV-unprocessed.smi:1389|AV-procd|sdf|5649|dock10
  -GOLD-   22720 5273D 1   1.00000     0.00000
 Structure written by MMmdl.
 52 54  0  0  0  0  0  0  0  0  2 V2000
  144.0273  143.0174  155.3836 C   0  0  0  0  0  0  0  0  0  0  0  0
  145.5112  142.5827  155.3046 C   0  0  1  0  0  0  0  0  0  0  0  0
  146.1439  142.5751  156.7221 C   0  0  0  0  0  0  0  0  0  0  0  0
  147.5698  142.2675  156.6972 N   0  0  0  0  0  0  0  0  0  0  0  0
  148.3884  142.4042  157.7481 C   0  0  0  0  0  0  0  0  0  0  0  0
  148.0127  142.7984  158.8522 O   0  0  0  0  0  0  0  0  0  0  0  0
  149.6445  142.0414  157.4387 N   0  0  0  0  0  0  0  0  0  0  0  0
  150.7800  141.9995  158.2963 C   0  0  0  0  0  0  0  0  0  0  0  0
  151.0082  143.0037  159.2690 C   0  0  0  0  0  0  0  0  0  0  0  0
  152.1777  142.9587  160.0468 C   0  0  0  0  0  0  0  0  0  0  0  0
  153.0904  141.9170  159.8140 C   0  0  0  0  0  0  0  0  0  0  0  0
  152.8960  140.9625  158.8823 N   0  0  0  0  0  0  0  0  0  0  0  0
  151.7659  140.9836  158.1332 C   0  0  0  0  0  0  0  0  0  0  0  0
  151.6127  139.9483  157.1820 N   0  0  0  0  0  0  0  0  0  0  0  0
  152.4495  138.7591  157.3140 C   0  0  0  0  0  0  0  0  0  0  0  0
  152.7913  138.3079  155.8900 C   0  0  0  0  0  0  0  0  0  0  0  0
  151.6988  138.9457  155.0377 C   0  0  0  0  0  0  0  0  0  0  0  0
  151.4459  140.2621  155.7666 C   0  0  0  0  0  0  0  0  0  0  0  0
  145.6472  141.2637  154.5993 N   0  3  0  0  0  0  0  0  0  0  0  0
  146.9675  141.0913  153.9305 C   0  0  0  0  0  0  0  0  0  0  0  0
  147.0517  139.7477  153.1880 C   0  0  0  0  0  0  0  0  0  0  0  0
  146.8185  138.6857  154.0988 O   0  0  0  0  0  0  0  0  0  0  0  0
  145.5153  138.7629  154.6539 C   0  0  0  0  0  0  0  0  0  0  0  0
  145.3595  140.0721  155.4470 C   0  0  0  0  0  0  0  0  0  0  0  0
  143.8973  143.9436  155.9427 H   0  0  0  0  0  0  0  0  0  0  0  0
  143.4193  142.2550  155.8717 H   0  0  0  0  0  0  0  0  0  0  0  0
  143.5970  143.2147  154.4033 H   0  0  0  0  0  0  0  0  0  0  0  0
  146.0501  143.3264  154.7151 H   0  0  0  0  0  0  0  0  0  0  0  0
  145.9858  143.5402  157.2071 H   0  0  0  0  0  0  0  0  0  0  0  0
  145.6874  141.8124  157.3529 H   0  0  0  0  0  0  0  0  0  0  0  0
  147.9562  141.9317  155.8269 H   0  0  0  0  0  0  0  0  0  0  0  0
  149.7839  141.6482  156.5193 H   0  0  0  0  0  0  0  0  0  0  0  0
  150.3175  143.8202  159.4148 H   0  0  0  0  0  0  0  0  0  0  0  0
  152.3758  143.7123  160.7946 H   0  0  0  0  0  0  0  0  0  0  0  0
  154.0042  141.8513  160.3858 H   0  0  0  0  0  0  0  0  0  0  0  0
  153.3506  138.9520  157.8980 H   0  0  0  0  0  0  0  0  0  0  0  0
  151.8769  137.9819  157.8203 H   0  0  0  0  0  0  0  0  0  0  0  0
  153.7625  138.7113  155.6007 H   0  0  0  0  0  0  0  0  0  0  0  0
  152.8341  137.2234  155.7878 H   0  0  0  0  0  0  0  0  0  0  0  0
  151.9926  139.0851  153.9970 H   0  0  0  0  0  0  0  0  0  0  0  0
  150.8003  138.3275  155.0592 H   0  0  0  0  0  0  0  0  0  0  0  0
  150.4501  140.6555  155.5605 H   0  0  0  0  0  0  0  0  0  0  0  0
  152.1812  141.0008  155.4447 H   0  0  0  0  0  0  0  0  0  0  0  0
  147.1469  141.8781  153.2010 H   0  0  0  0  0  0  0  0  0  0  0  0
  147.7643  141.1541  154.6733 H   0  0  0  0  0  0  0  0  0  0  0  0
  146.3345  139.7088  152.3662 H   0  0  0  0  0  0  0  0  0  0  0  0
  148.0424  139.6234  152.7501 H   0  0  0  0  0  0  0  0  0  0  0  0
  144.7645  138.6930  153.8649 H   0  0  0  0  0  0  0  0  0  0  0  0
  145.3627  137.9070  155.3117 H   0  0  0  0  0  0  0  0  0  0  0  0
  146.0252  140.0683  156.3114 H   0  0  0  0  0  0  0  0  0  0  0  0
  144.3366  140.0951  155.8196 H   0  0  0  0  0  0  0  0  0  0  0  0
  144.9501  141.2588  153.8683 H   0  0  0  0  0  0  0  0  0  0  0  0
  1  2  1  0  0  0  0
  1 25  1  0  0  0  0
  1 26  1  0  0  0  0
  1 27  1  0  0  0  0
  2  3  1  0  0  0  0
  2 19  1  0  0  0  0
  2 28  1  0  0  0  0
  3  4  1  0  0  0  0
  3 29  1  0  0  0  0
  3 30  1  0  0  0  0
  4  5  1  0  0  0  0
  4 31  1  0  0  0  0
  5  6  2  0  0  0  0
  5  7  1  0  0  0  0
  7  8  1  0  0  0  0
  7 32  1  0  0  0  0
  8 13  1  0  0  0  0
  8  9  2  0  0  0  0
  9 10  1  0  0  0  0
  9 33  1  0  0  0  0
 10 11  2  0  0  0  0
 10 34  1  0  0  0  0
 11 12  1  0  0  0  0
 11 35  1  0  0  0  0
 12 13  2  0  0  0  0
 13 14  1  0  0  0  0
 14 18  1  0  0  0  0
 14 15  1  0  0  0  0
 15 16  1  0  0  0  0
 15 36  1  0  0  0  0
 15 37  1  0  0  0  0
 16 17  1  0  0  0  0
 16 38  1  0  0  0  0
 16 39  1  0  0  0  0
 17 18  1  0  0  0  0
 17 40  1  0  0  0  0
 17 41  1  0  0  0  0
 18 42  1  0  0  0  0
 18 43  1  0  0  0  0
 19 24  1  0  0  0  0
 19 20  1  0  0  0  0
 19 52  1  0  0  0  0
 20 21  1  0  0  0  0
 20 44  1  0  0  0  0
 20 45  1  0  0  0  0
 21 22  1  0  0  0  0
 21 46  1  0  0  0  0
 21 47  1  0  0  0  0
 22 23  1  0  0  0  0
 23 24  1  0  0  0  0
 23 48  1  0  0  0  0
 23 49  1  0  0  0  0
 24 50  1  0  0  0  0
 24 51  1  0  0  0  0
M  CHG  1  19   1
M  END
> <s_m_source_file>
AV-unprocessed.smi

> <i_m_source_file_index>
1389

> <i_lp_mmshare_version>
43012

> <i_f3d_flags>
0

> <s_epik_input>
W0NIMl0xW0NIMl1PW0NIMl1bQ0gyXU4xW0NASF0oW0NIM10pW0NIMl1bTkhdQyg9TylbTkhdYzJbY0hdW2NIXVtjSF1uYzJOM1tDSDJdW0NIMl1bQ0gyXVtDSDJdMw==

> <s_epik_cmdline>
J2VwaWtfcHl0aG9uJywgJy1waCcsICc3LjAnLCAnLXRuJywgJzgnLCAnLW1hJywgJzIwMCcsICctbWV0YWxfYmluZGluZycsICctaW1hZScsICc8aW5maWxlLm1hZT4nLCAnLW9tYWUnLCAnPG91dGZpbGUubWFlPic=

> <r_lp_tautomer_probability>
1

> <r_epik_Ionization_Penalty>
0.686

> <r_epik_Ionization_Penalty_Charging>
0.602531

> <r_epik_Ionization_Penalty_Neutral>
0.08347

> <r_epik_State_Penalty>
0.679975

> <r_epik_Charging_Adjusted_Penalty>
1.28251

> <i_epik_Tot_Q>
1

> <i_epik_Tot_abs_Q>
1

> <r_epik_Metal_State_Penalty>
0.679055

> <b_epik_Metal_Only>
0

> <s_lp_Force_Field>
OPLS_2005

> <r_lp_Energy>
49.8528

> <b_lp_Chiralities_Consistent>
1

> <s_lp_Variant>
AV-unprocessed.smi:1389-4

> <Gold.Version>
5.8.1

> <Gold.Id.Protein>
6NUR|6NUR_protein|mol2

> <Gold.PLP.Fitness>
39.9743

> <Gold.PLP.PLP>
-35.6106

> <Gold.PLP.part.hbond>
-2.2648

> <Gold.PLP.part.metal>
0.0000

> <Gold.PLP.part.buried>
-2.8616

> <Gold.PLP.part.nonpolar>
-30.9484

> <Gold.PLP.part.repulsive>
0.3446

> <Gold.PLP.ligand.clash>
0.0000

> <Gold.PLP.ligand.torsion>
1.0044

> <Gold.PLP.Chemscore.Hbond>
2.0000

> <Gold.PLP.Chemscore.CHOScore>
0.0000

> <Gold.PLP.Chemscore.Metal>
0.0000

> <Gold.Chemscore.Hbonds>
donor molecule, donor type, donor heavy atom, donor atom, acceptor molecule, acceptor atom, score
      L1  H    19    52       P1 10175  2.00

> <Gold.PLP.Chemscore.Internal.Correction>
0.3725

> <Gold.Rescore>
     Score         DG    S(hbond)    S(metal)    S(lipo)     H(rot)  DE(clash)    DE(int)     intcor
     11.48     -14.22       0.95        0.00      83.20       1.63       0.01       2.73       ----

> <Gold.Chemscore.Fitness>
11.4754

> <Gold.Chemscore.DG>
-14.2213

> <Gold.Chemscore.ZeroCoef>
-5.4800

> <Gold.Chemscore.Hbond>
0.9526

> <Gold.Chemscore.Metal>
0.0000

> <Gold.Chemscore.Lipo>
83.1989

> <Gold.Chemscore.Internal_Hbond>
0.0000

> <Gold.Chemscore.DEClash>
0.0136

> <Gold.Chemscore.DEInternal>
2.7324

> <Gold.Chemscore.Rot>
1.6307

> <Gold.Chemscore.Internal.Correction>
   9.000000E+99

> <Gold.Chemscore.Hbonds>
donor molecule, donor type, donor heavy atom, donor atom, acceptor molecule, acceptor atom, score
      L1  H    19    52       P1 10175  0.47

> <Gold.Chemscore.Hbond.Weighted>
-3.1816

> <Gold.Chemscore.Metal.Weighted>
-0.0000

> <Gold.Chemscore.Lipo.Weighted>
-9.7343

> <Gold.Chemscore.Internal_Hbond.Weighted>
0.0000

> <Gold.Chemscore.DEClash.Weighted>
0.0136

> <Gold.Chemscore.DEInternal.Weighted>
2.7324

> <Gold.Chemscore.Rot.Weighted>
4.1746

> <Gold.Chemscore.Internal.Correction.Weighted>
   9.000000E+99

> <Gold.Protein.RotatedTorsions>
[ 6907 6896 6895 6894 ] final   73.30 input  -60.11 | X-H torsion
[ 7974 7965 7964 7962 ] final -132.06 input  175.53 | X-H torsion
[ 8008 7997 7996 7995 ] final   56.28 input   59.86 | X-H torsion
[ 10167 10162 10161 10158 ] final   10.57 input  -65.29 | X-H torsion
[ 10718 10713 10712 10709 ] final   39.14 input   66.30 | X-H torsion
[ 10763 10752 10751 10750 ] final  153.50 input  -60.55 | X-H torsion
[ 11005 11000 10999 10996 ] final -176.40 input  -57.11 | X-H torsion

> <Gold.Protein.ActiveResidues>
 VAL166  LYS551  ARG553  GLY616  TRP617  ASP618  TYR619  PRO620  LYS621  CYS622 
 ASP623  PHE694  ASN695  SER759  ASP760  ASP761  ALA762  ILE779  LEU786  VAL792 
 PHE793  MET794  SER795  GLU796  ALA797  LYS798  CYS799  TRP800  GLU811  SER814 

> <Gold.Protein.RotatedAtoms>
  152.4915  134.4442  159.9553 H   0  0  0  0  0  0  0  0  0  0  0  0  # atno 6907 bound_to 6896
  151.4429  133.3632  159.2792 H   0  0  0  0  0  0  0  0  0  0  0  0  # atno 6908 bound_to 6896
  150.9075  134.8514  159.7463 H   0  0  0  0  0  0  0  0  0  0  0  0  # atno 6909 bound_to 6896
  144.9321  140.7141  143.4899 H   0  0  0  0  0  0  0  0  0  0  0  0  # atno 7974 bound_to 7965
  155.5149  140.3478  155.4395 H   0  0  0  0  0  0  0  0  0  0  0  0  # atno 8008 bound_to 7997
  156.0824  140.1390  156.9723 H   0  0  0  0  0  0  0  0  0  0  0  0  # atno 8009 bound_to 7997
  154.4587  140.0943  156.6808 H   0  0  0  0  0  0  0  0  0  0  0  0  # atno 8010 bound_to 7997
  140.6186  143.8254  150.7147 H   0  0  0  0  0  0  0  0  0  0  0  0  # atno 10167 bound_to 10162
  157.3670  130.7681  149.7090 H   0  0  0  0  0  0  0  0  0  0  0  0  # atno 10718 bound_to 10713
  154.1371  135.2823  155.3170 H   0  0  0  0  0  0  0  0  0  0  0  0  # atno 10763 bound_to 10752
  154.6313  135.5434  153.7687 H   0  0  0  0  0  0  0  0  0  0  0  0  # atno 10764 bound_to 10752
  153.0262  135.6463  154.1520 H   0  0  0  0  0  0  0  0  0  0  0  0  # atno 10765 bound_to 10752
  140.4526  134.6329  157.4807 H   0  0  0  0  0  0  0  0  0  0  0  0  # atno 11005 bound_to 11000
  145.3125  139.1814  143.4631 LP  0  0  0  0  0  0  0  0  0  0  0  0  # atno 17320 bound_to 7965
  146.3251  140.3131  142.8628 LP  0  0  0  0  0  0  0  0  0  0  0  0  # atno 17321 bound_to 7965
  140.1839  143.4092  152.1913 LP  0  0  0  0  0  0  0  0  0  0  0  0  # atno 17342 bound_to 10162
  139.5419  144.7264  151.4706 LP  0  0  0  0  0  0  0  0  0  0  0  0  # atno 17343 bound_to 10162
  155.9748  130.4098  150.3896 LP  0  0  0  0  0  0  0  0  0  0  0  0  # atno 17370 bound_to 10713
  157.1981  131.0431  151.2665 LP  0  0  0  0  0  0  0  0  0  0  0  0  # atno 17371 bound_to 10713
  139.9997  134.6855  155.9550 LP  0  0  0  0  0  0  0  0  0  0  0  0  # atno 17394 bound_to 11000
  141.1657  133.6537  156.4473 LP  0  0  0  0  0  0  0  0  0  0  0  0  # atno 17395 bound_to 11000

$$$$
