AV-unprocessed.smi:2371|AV-procd|sdf|9436|dock9
  -GOLD-   2272013 63D 1   1.00000     0.00000
 Structure written by MMmdl.
 35 36  0  0  0  0  0  0  0  0  1 V2000
  153.7617  141.5641  160.5866 C   0  0  0  0  0  0  0  0  0  0  0  0
  152.7415  142.5075  160.1221 N   0  0  0  0  0  0  0  0  0  0  0  0
  152.5219  143.6602  160.8951 C   0  0  0  0  0  0  0  0  0  0  0  0
  151.6080  144.5767  160.5471 C   0  0  0  0  0  0  0  0  0  0  0  0
  150.8407  144.3583  159.3445 C   0  0  0  0  0  0  0  0  0  0  0  0
  151.0420  143.2561  158.5791 C   0  0  0  0  0  0  0  0  0  0  0  0
  150.3345  142.9633  157.4004 N   0  0  0  0  0  0  0  0  0  0  0  0
  149.8364  141.7873  156.9758 C   0  0  0  0  0  0  0  0  0  0  0  0
  149.8926  140.7194  157.5847 O   0  0  0  0  0  0  0  0  0  0  0  0
  149.2315  141.9267  155.7878 N   0  0  0  0  0  0  0  0  0  0  0  0
  148.5570  140.8634  155.0497 C   0  0  0  0  0  0  0  0  0  0  0  0
  149.5596  139.9066  154.3819 C   0  0  2  0  0  0  0  0  0  0  0  0
  149.3592  138.4251  154.7045 C   0  0  0  0  0  0  0  0  0  0  0  0
  150.7450  137.8726  154.4648 C   0  0  0  0  0  0  0  0  0  0  0  0
  151.6241  138.9965  155.0057 C   0  0  0  0  0  0  0  0  0  0  0  0
  150.8849  140.2009  154.8165 O   0  0  0  0  0  0  0  0  0  0  0  0
  152.0418  142.2460  158.9779 C   0  0  0  0  0  0  0  0  0  0  0  0
  152.2471  141.2197  158.3252 O   0  0  0  0  0  0  0  0  0  0  0  0
  154.2810  141.9117  161.4803 H   0  0  0  0  0  0  0  0  0  0  0  0
  154.5175  141.4037  159.8162 H   0  0  0  0  0  0  0  0  0  0  0  0
  153.3094  140.6005  160.8255 H   0  0  0  0  0  0  0  0  0  0  0  0
  153.1353  143.7512  161.7796 H   0  0  0  0  0  0  0  0  0  0  0  0
  151.4497  145.4578  161.1513 H   0  0  0  0  0  0  0  0  0  0  0  0
  150.0959  145.0966  159.0950 H   0  0  0  0  0  0  0  0  0  0  0  0
  150.1437  143.7657  156.8176 H   0  0  0  0  0  0  0  0  0  0  0  0
  149.2285  142.8425  155.3628 H   0  0  0  0  0  0  0  0  0  0  0  0
  147.9447  140.3072  155.7599 H   0  0  0  0  0  0  0  0  0  0  0  0
  147.8667  141.2726  154.3100 H   0  0  0  0  0  0  0  0  0  0  0  0
  149.5374  140.0422  153.2993 H   0  0  0  0  0  0  0  0  0  0  0  0
  149.0826  138.2919  155.7514 H   0  0  0  0  0  0  0  0  0  0  0  0
  148.5964  137.9527  154.0851 H   0  0  0  0  0  0  0  0  0  0  0  0
  150.9196  136.9169  154.9598 H   0  0  0  0  0  0  0  0  0  0  0  0
  150.9158  137.7415  153.3954 H   0  0  0  0  0  0  0  0  0  0  0  0
  151.7980  138.8634  156.0741 H   0  0  0  0  0  0  0  0  0  0  0  0
  152.5932  139.0410  154.5084 H   0  0  0  0  0  0  0  0  0  0  0  0
  1  2  1  0  0  0  0
  1 19  1  0  0  0  0
  1 20  1  0  0  0  0
  1 21  1  0  0  0  0
  2 17  1  0  0  0  0
  2  3  1  0  0  0  0
  3  4  2  0  0  0  0
  3 22  1  0  0  0  0
  4  5  1  0  0  0  0
  4 23  1  0  0  0  0
  5  6  2  0  0  0  0
  5 24  1  0  0  0  0
  6  7  1  0  0  0  0
  6 17  1  0  0  0  0
  7  8  1  0  0  0  0
  7 25  1  0  0  0  0
  8  9  2  0  0  0  0
  8 10  1  0  0  0  0
 10 11  1  0  0  0  0
 10 26  1  0  0  0  0
 11 12  1  0  0  0  0
 11 27  1  0  0  0  0
 11 28  1  0  0  0  0
 12 16  1  0  0  0  0
 12 13  1  0  0  0  0
 12 29  1  0  0  0  0
 13 14  1  0  0  0  0
 13 30  1  0  0  0  0
 13 31  1  0  0  0  0
 14 15  1  0  0  0  0
 14 32  1  0  0  0  0
 14 33  1  0  0  0  0
 15 16  1  0  0  0  0
 15 34  1  0  0  0  0
 15 35  1  0  0  0  0
 17 18  2  0  0  0  0
M  END
> <s_m_source_file>
AV-unprocessed.smi

> <i_m_source_file_index>
2371

> <i_lp_mmshare_version>
43012

> <i_f3d_flags>
0

> <s_epik_input>
W0NIM11uMVtjSF1bY0hdW2NIXWMoYzE9TylbTkhdQyg9TylbTkhdW0NIMl1bQ0BASF0yW0NIMl1bQ0gyXVtDSDJdTzI=

> <s_epik_cmdline>
J2VwaWtfcHl0aG9uJywgJy1waCcsICc3LjAnLCAnLXRuJywgJzgnLCAnLW1hJywgJzIwMCcsICctbWV0YWxfYmluZGluZycsICctaW1hZScsICc8aW5maWxlLm1hZT4nLCAnLW9tYWUnLCAnPG91dGZpbGUubWFlPic=

> <r_lp_tautomer_probability>
1

> <r_epik_Ionization_Penalty>
2.36512e-05

> <r_epik_Ionization_Penalty_Charging>
4.84074e-06

> <r_epik_Ionization_Penalty_Neutral>
1.88105e-05

> <r_epik_State_Penalty>
-0

> <r_epik_Charging_Adjusted_Penalty>
4.84074e-06

> <i_epik_Tot_Q>
0

> <i_epik_Tot_abs_Q>
0

> <r_epik_Metal_State_Penalty>
-0

> <b_epik_Metal_Only>
0

> <s_lp_Force_Field>
OPLS_2005

> <r_lp_Energy>
29.8245

> <b_lp_Chiralities_Consistent>
1

> <s_lp_Variant>
AV-unprocessed.smi:2371-1

> <Gold.Version>
5.8.1

> <Gold.Id.Protein>
6NUR|6NUR_protein|mol2

> <Gold.PLP.Fitness>
46.8744

> <Gold.PLP.PLP>
-40.4592

> <Gold.PLP.part.hbond>
-3.0000

> <Gold.PLP.part.metal>
0.0000

> <Gold.PLP.part.buried>
-7.0198

> <Gold.PLP.part.nonpolar>
-32.4291

> <Gold.PLP.part.repulsive>
0.2152

> <Gold.PLP.ligand.clash>
0.0000

> <Gold.PLP.ligand.torsion>
1.1491

> <Gold.PLP.Chemscore.Hbond>
2.9040

> <Gold.PLP.Chemscore.CHOScore>
0.0000

> <Gold.PLP.Chemscore.Metal>
0.0000

> <Gold.Chemscore.Hbonds>
donor molecule, donor type, donor heavy atom, donor atom, acceptor molecule, acceptor atom, score
      L1  H     7    25       P1  8028  0.98
      L1  H    10    26       P1  8028  0.91
      P1  H  7989  7998       L1    16  1.00

> <Gold.PLP.Chemscore.Internal.Correction>
0.0014

> <Gold.Rescore>
     Score         DG    S(hbond)    S(metal)    S(lipo)     H(rot)  DE(clash)    DE(int)     intcor
     13.88     -19.02       2.02        0.00      85.44       1.25       0.00       5.14       ----

> <Gold.Chemscore.Fitness>
13.8819

> <Gold.Chemscore.DG>
-19.0214

> <Gold.Chemscore.ZeroCoef>
-5.4800

> <Gold.Chemscore.Hbond>
2.0177

> <Gold.Chemscore.Metal>
0.0000

> <Gold.Chemscore.Lipo>
85.4416

> <Gold.Chemscore.Internal_Hbond>
0.0000

> <Gold.Chemscore.DEClash>
0.0029

> <Gold.Chemscore.DEInternal>
5.1366

> <Gold.Chemscore.Rot>
1.2478

> <Gold.Chemscore.Internal.Correction>
   9.000000E+99

> <Gold.Chemscore.Hbonds>
donor molecule, donor type, donor heavy atom, donor atom, acceptor molecule, acceptor atom, score
      L1  H     7    25       P1  8028  0.92
      L1  H    10    26       P1  8028  0.88
      P1  H  7989  7998       L1    16  0.17

> <Gold.Chemscore.Hbond.Weighted>
-6.7392

> <Gold.Chemscore.Metal.Weighted>
-0.0000

> <Gold.Chemscore.Lipo.Weighted>
-9.9967

> <Gold.Chemscore.Internal_Hbond.Weighted>
0.0000

> <Gold.Chemscore.DEClash.Weighted>
0.0029

> <Gold.Chemscore.DEInternal.Weighted>
5.1366

> <Gold.Chemscore.Rot.Weighted>
3.1944

> <Gold.Chemscore.Internal.Correction.Weighted>
   9.000000E+99

> <Gold.Protein.RotatedTorsions>
[ 6907 6896 6895 6894 ] final  -66.00 input  -60.11 | X-H torsion
[ 7974 7965 7964 7962 ] final  -63.67 input  175.53 | X-H torsion
[ 8008 7997 7996 7995 ] final  -61.81 input   59.86 | X-H torsion
[ 10167 10162 10161 10158 ] final -115.25 input  -65.29 | X-H torsion
[ 10718 10713 10712 10709 ] final   74.14 input   66.30 | X-H torsion
[ 10763 10752 10751 10750 ] final  -75.13 input  -60.55 | X-H torsion
[ 11005 11000 10999 10996 ] final -110.05 input  -57.11 | X-H torsion

> <Gold.Protein.ActiveResidues>
 VAL166  LYS551  ARG553  GLY616  TRP617  ASP618  TYR619  PRO620  LYS621  CYS622 
 ASP623  PHE694  ASN695  SER759  ASP760  ASP761  ALA762  ILE779  LEU786  VAL792 
 PHE793  MET794  SER795  GLU796  ALA797  LYS798  CYS799  TRP800  GLU811  SER814 

> <Gold.Protein.RotatedAtoms>
  150.7491  134.6083  159.6072 H   0  0  0  0  0  0  0  0  0  0  0  0  # atno 6907 bound_to 6896
  152.3424  134.7113  160.0269 H   0  0  0  0  0  0  0  0  0  0  0  0  # atno 6908 bound_to 6896
  151.7561  133.3294  159.3441 H   0  0  0  0  0  0  0  0  0  0  0  0  # atno 6909 bound_to 6896
  145.7762  140.8786  143.0354 H   0  0  0  0  0  0  0  0  0  0  0  0  # atno 7974 bound_to 7965
  154.4467  140.1009  156.6489 H   0  0  0  0  0  0  0  0  0  0  0  0  # atno 8008 bound_to 7997
  155.5419  140.3484  155.4430 H   0  0  0  0  0  0  0  0  0  0  0  0  # atno 8009 bound_to 7997
  156.0591  140.1322  156.9951 H   0  0  0  0  0  0  0  0  0  0  0  0  # atno 8010 bound_to 7997
  140.0921  143.4690  152.1863 H   0  0  0  0  0  0  0  0  0  0  0  0  # atno 10167 bound_to 10162
  157.6579  130.9663  150.1169 H   0  0  0  0  0  0  0  0  0  0  0  0  # atno 10718 bound_to 10713
  154.4824  135.5841  153.6399 H   0  0  0  0  0  0  0  0  0  0  0  0  # atno 10763 bound_to 10752
  152.9849  135.6093  154.3229 H   0  0  0  0  0  0  0  0  0  0  0  0  # atno 10764 bound_to 10752
  154.3121  135.2845  155.2540 H   0  0  0  0  0  0  0  0  0  0  0  0  # atno 10765 bound_to 10752
  141.0813  133.9215  157.2282 H   0  0  0  0  0  0  0  0  0  0  0  0  # atno 11005 bound_to 11000
  144.6804  139.9924  143.7484 LP  0  0  0  0  0  0  0  0  0  0  0  0  # atno 17320 bound_to 7965
  146.0120  139.3178  143.0864 LP  0  0  0  0  0  0  0  0  0  0  0  0  # atno 17321 bound_to 7965
  139.5719  144.7467  151.3869 LP  0  0  0  0  0  0  0  0  0  0  0  0  # atno 17342 bound_to 10162
  140.7023  143.7601  150.7423 LP  0  0  0  0  0  0  0  0  0  0  0  0  # atno 17343 bound_to 10162
  156.2051  130.3663  149.8740 LP  0  0  0  0  0  0  0  0  0  0  0  0  # atno 17370 bound_to 10713
  156.6633  130.8791  151.3551 LP  0  0  0  0  0  0  0  0  0  0  0  0  # atno 17371 bound_to 10713
  139.9627  135.0150  156.9305 LP  0  0  0  0  0  0  0  0  0  0  0  0  # atno 17394 bound_to 11000
  140.5462  134.0672  155.7355 LP  0  0  0  0  0  0  0  0  0  0  0  0  # atno 17395 bound_to 11000

$$$$
