AV-unprocessed.smi:1059|AV-procd|sdf|4655|dock7
  -GOLD-   22720 3163D 1   1.00000     0.00000
 Structure written by MMmdl.
 54 55  0  0  0  0  0  0  0  0  1 V2000
  152.6862  143.7647  158.6164 C   0  0  0  0  0  0  0  0  0  0  0  0
  151.9332  142.7446  159.4846 C   0  0  0  0  0  0  0  0  0  0  0  0
  152.8402  142.2541  160.6291 C   0  0  0  0  0  0  0  0  0  0  0  0
  151.3900  141.5853  158.6130 C   0  0  0  0  0  0  0  0  0  0  0  0
  150.6814  142.0040  157.3092 C   0  0  0  0  0  0  0  0  0  0  0  0
  149.7904  142.8537  157.3566 O   0  0  0  0  0  0  0  0  0  0  0  0
  151.0630  141.4298  156.1414 N   0  0  0  0  0  0  0  0  0  0  0  0
  152.1139  140.4071  156.0681 C   0  0  0  0  0  0  0  0  0  0  0  0
  151.4661  139.0448  155.7629 C   0  0  0  0  0  0  0  0  0  0  0  0
  150.6242  139.0983  154.4704 C   0  0  0  0  0  0  0  0  0  0  0  0
  149.8864  137.8478  154.3176 N   0  0  0  0  0  0  0  0  0  0  0  0
  150.3732  136.6233  154.5656 C   0  0  0  0  0  0  0  0  0  0  0  0
  151.5256  136.4133  154.9437 O   0  0  0  0  0  0  0  0  0  0  0  0
  149.4361  135.6801  154.3693 N   0  0  0  0  0  0  0  0  0  0  0  0
  149.5638  134.2717  154.5052 C   0  0  0  0  0  0  0  0  0  0  0  0
  150.2965  133.7735  155.6012 C   0  0  0  0  0  0  0  0  0  0  0  0
  150.4208  132.3814  155.7687 C   0  0  0  0  0  0  0  0  0  0  0  0
  149.7938  131.5286  154.8374 C   0  0  0  0  0  0  0  0  0  0  0  0
  149.9115  130.1406  154.9945 N   0  0  0  0  0  0  0  0  0  0  0  0
  149.1492  129.3868  154.0104 C   0  0  0  0  0  0  0  0  0  0  0  0
  151.2857  129.7105  155.2039 C   0  0  0  0  0  0  0  0  0  0  0  0
  149.0744  131.9961  153.7898 N   0  0  0  0  0  0  0  0  0  0  0  0
  148.9626  133.3326  153.6322 C   0  0  0  0  0  0  0  0  0  0  0  0
  149.6622  140.3091  154.4770 C   0  0  0  0  0  0  0  0  0  0  0  0
  150.4011  141.6091  154.8421 C   0  0  0  0  0  0  0  0  0  0  0  0
  153.5516  143.3111  158.1319 H   0  0  0  0  0  0  0  0  0  0  0  0
  153.0418  144.6041  159.2150 H   0  0  0  0  0  0  0  0  0  0  0  0
  152.0425  144.1708  157.8356 H   0  0  0  0  0  0  0  0  0  0  0  0
  151.0880  143.2725  159.9288 H   0  0  0  0  0  0  0  0  0  0  0  0
  153.7077  141.7184  160.2430 H   0  0  0  0  0  0  0  0  0  0  0  0
  152.3153  141.5856  161.3108 H   0  0  0  0  0  0  0  0  0  0  0  0
  153.2079  143.0920  161.2220 H   0  0  0  0  0  0  0  0  0  0  0  0
  152.2171  140.9319  158.3323 H   0  0  0  0  0  0  0  0  0  0  0  0
  150.7060  140.9902  159.2193 H   0  0  0  0  0  0  0  0  0  0  0  0
  152.8214  140.6715  155.2806 H   0  0  0  0  0  0  0  0  0  0  0  0
  152.7046  140.3397  156.9827 H   0  0  0  0  0  0  0  0  0  0  0  0
  152.2365  138.2777  155.6768 H   0  0  0  0  0  0  0  0  0  0  0  0
  150.8347  138.7558  156.6050 H   0  0  0  0  0  0  0  0  0  0  0  0
  151.3131  139.2091  153.6305 H   0  0  0  0  0  0  0  0  0  0  0  0
  148.9274  137.9234  154.0112 H   0  0  0  0  0  0  0  0  0  0  0  0
  148.5082  136.0125  154.1518 H   0  0  0  0  0  0  0  0  0  0  0  0
  150.7641  134.4473  156.3043 H   0  0  0  0  0  0  0  0  0  0  0  0
  150.9851  131.9780  156.5969 H   0  0  0  0  0  0  0  0  0  0  0  0
  148.1277  129.7627  153.9403 H   0  0  0  0  0  0  0  0  0  0  0  0
  149.1017  128.3356  154.2955 H   0  0  0  0  0  0  0  0  0  0  0  0
  149.6103  129.4527  153.0241 H   0  0  0  0  0  0  0  0  0  0  0  0
  151.7721  130.3194  155.9669 H   0  0  0  0  0  0  0  0  0  0  0  0
  151.8628  129.7865  154.2818 H   0  0  0  0  0  0  0  0  0  0  0  0
  151.3091  128.6726  155.5366 H   0  0  0  0  0  0  0  0  0  0  0  0
  148.3551  133.6398  152.7951 H   0  0  0  0  0  0  0  0  0  0  0  0
  149.1852  140.4180  153.5023 H   0  0  0  0  0  0  0  0  0  0  0  0
  148.8594  140.1408  155.1967 H   0  0  0  0  0  0  0  0  0  0  0  0
  149.7039  142.4440  154.8114 H   0  0  0  0  0  0  0  0  0  0  0  0
  151.1540  141.8339  154.0853 H   0  0  0  0  0  0  0  0  0  0  0  0
  1  2  1  0  0  0  0
  1 26  1  0  0  0  0
  1 27  1  0  0  0  0
  1 28  1  0  0  0  0
  2  3  1  0  0  0  0
  2  4  1  0  0  0  0
  2 29  1  0  0  0  0
  3 30  1  0  0  0  0
  3 31  1  0  0  0  0
  3 32  1  0  0  0  0
  4  5  1  0  0  0  0
  4 33  1  0  0  0  0
  4 34  1  0  0  0  0
  5  6  2  0  0  0  0
  5  7  1  0  0  0  0
  7 25  1  0  0  0  0
  7  8  1  0  0  0  0
  8  9  1  0  0  0  0
  8 35  1  0  0  0  0
  8 36  1  0  0  0  0
  9 10  1  0  0  0  0
  9 37  1  0  0  0  0
  9 38  1  0  0  0  0
 10 11  1  0  0  0  0
 10 24  1  0  0  0  0
 10 39  1  0  0  0  0
 11 12  1  0  0  0  0
 11 40  1  0  0  0  0
 12 13  2  0  0  0  0
 12 14  1  0  0  0  0
 14 15  1  0  0  0  0
 14 41  1  0  0  0  0
 15 23  1  0  0  0  0
 15 16  2  0  0  0  0
 16 17  1  0  0  0  0
 16 42  1  0  0  0  0
 17 18  2  0  0  0  0
 17 43  1  0  0  0  0
 18 19  1  0  0  0  0
 18 22  1  0  0  0  0
 19 20  1  0  0  0  0
 19 21  1  0  0  0  0
 20 44  1  0  0  0  0
 20 45  1  0  0  0  0
 20 46  1  0  0  0  0
 21 47  1  0  0  0  0
 21 48  1  0  0  0  0
 21 49  1  0  0  0  0
 22 23  2  0  0  0  0
 23 50  1  0  0  0  0
 24 25  1  0  0  0  0
 24 51  1  0  0  0  0
 24 52  1  0  0  0  0
 25 53  1  0  0  0  0
 25 54  1  0  0  0  0
M  END
> <s_m_source_file>
AV-unprocessed.smi

> <i_m_source_file_index>
1059

> <i_lp_mmshare_version>
43012

> <i_f3d_flags>
0

> <s_epik_input>
W0NIM11bQ0hdKFtDSDNdKVtDSDJdQyg9TylOMVtDSDJdW0NIMl1bQ0hdKFtDSDJdW0NIMl0xKVtOSF1DKD1PKVtOSF1jMltjSF1bY0hdYyhOKFtDSDNdKVtDSDNdKW5bY0hdMg==

> <s_epik_cmdline>
J2VwaWtfcHl0aG9uJywgJy1waCcsICc3LjAnLCAnLXRuJywgJzgnLCAnLW1hJywgJzIwMCcsICctbWV0YWxfYmluZGluZycsICctaW1hZScsICc8aW5maWxlLm1hZT4nLCAnLW9tYWUnLCAnPG91dGZpbGUubWFlPic=

> <r_lp_tautomer_probability>
1

> <r_epik_Ionization_Penalty>
0.622059

> <r_epik_Ionization_Penalty_Charging>
0

> <r_epik_Ionization_Penalty_Neutral>
0.622059

> <r_epik_State_Penalty>
0.637048

> <r_epik_Charging_Adjusted_Penalty>
0.637048

> <i_epik_Tot_Q>
0

> <i_epik_Tot_abs_Q>
0

> <r_epik_Metal_State_Penalty>
0.306613

> <b_epik_Metal_Only>
0

> <s_lp_Force_Field>
OPLS_2005

> <r_lp_Energy>
31.4899

> <b_lp_Chiralities_Consistent>
1

> <s_lp_Variant>
AV-unprocessed.smi:1059-2

> <Gold.Version>
5.8.1

> <Gold.Id.Protein>
6NUR|6NUR_protein|mol2

> <Gold.PLP.Fitness>
51.8097

> <Gold.PLP.PLP>
-50.2187

> <Gold.PLP.part.hbond>
-2.7535

> <Gold.PLP.part.metal>
0.0000

> <Gold.PLP.part.buried>
-5.7115

> <Gold.PLP.part.nonpolar>
-42.3241

> <Gold.PLP.part.repulsive>
1.2572

> <Gold.PLP.ligand.clash>
0.0000

> <Gold.PLP.ligand.torsion>
0.8221

> <Gold.PLP.Chemscore.Hbond>
1.0000

> <Gold.PLP.Chemscore.CHOScore>
0.0000

> <Gold.PLP.Chemscore.Metal>
0.0000

> <Gold.Chemscore.Hbonds>
donor molecule, donor type, donor heavy atom, donor atom, acceptor molecule, acceptor atom, score
      P1  H 10752 10764       L1    13  1.00
      L1  C    23    50       P1  7948  0.16

> <Gold.PLP.Chemscore.Internal.Correction>
0.2352

> <Gold.Rescore>
     Score         DG    S(hbond)    S(metal)    S(lipo)     H(rot)  DE(clash)    DE(int)     intcor
     14.30     -17.61       1.00        0.00     108.47       1.52       0.16       3.15       ----

> <Gold.Chemscore.Fitness>
14.2994

> <Gold.Chemscore.DG>
-17.6111

> <Gold.Chemscore.ZeroCoef>
-5.4800

> <Gold.Chemscore.Hbond>
1.0000

> <Gold.Chemscore.Metal>
0.0000

> <Gold.Chemscore.Lipo>
108.4718

> <Gold.Chemscore.Internal_Hbond>
0.0000

> <Gold.Chemscore.DEClash>
0.1627

> <Gold.Chemscore.DEInternal>
3.1490

> <Gold.Chemscore.Rot>
1.5235

> <Gold.Chemscore.Internal.Correction>
   9.000000E+99

> <Gold.Chemscore.Hbonds>
donor molecule, donor type, donor heavy atom, donor atom, acceptor molecule, acceptor atom, score
      P1  H 10752 10764       L1    13  1.00

> <Gold.Chemscore.Hbond.Weighted>
-3.3400

> <Gold.Chemscore.Metal.Weighted>
-0.0000

> <Gold.Chemscore.Lipo.Weighted>
-12.6912

> <Gold.Chemscore.Internal_Hbond.Weighted>
0.0000

> <Gold.Chemscore.DEClash.Weighted>
0.1627

> <Gold.Chemscore.DEInternal.Weighted>
3.1490

> <Gold.Chemscore.Rot.Weighted>
3.9001

> <Gold.Chemscore.Internal.Correction.Weighted>
   9.000000E+99

> <Gold.Protein.RotatedTorsions>
[ 6907 6896 6895 6894 ] final  -64.46 input  -60.11 | X-H torsion
[ 7974 7965 7964 7962 ] final   44.98 input  175.53 | X-H torsion
[ 8008 7997 7996 7995 ] final  143.87 input   59.86 | X-H torsion
[ 10167 10162 10161 10158 ] final   92.07 input  -65.29 | X-H torsion
[ 10718 10713 10712 10709 ] final   33.60 input   66.30 | X-H torsion
[ 10763 10752 10751 10750 ] final  -66.93 input  -60.55 | X-H torsion
[ 11005 11000 10999 10996 ] final -145.05 input  -57.11 | X-H torsion

> <Gold.Protein.ActiveResidues>
 VAL166  LYS551  ARG553  GLY616  TRP617  ASP618  TYR619  PRO620  LYS621  CYS622 
 ASP623  PHE694  ASN695  SER759  ASP760  ASP761  ALA762  ILE779  LEU786  VAL792 
 PHE793  MET794  SER795  GLU796  ALA797  LYS798  CYS799  TRP800  GLU811  SER814 

> <Gold.Protein.RotatedAtoms>
  150.7584  134.6295  159.6178 H   0  0  0  0  0  0  0  0  0  0  0  0  # atno 6907 bound_to 6896
  152.3577  134.6914  160.0226 H   0  0  0  0  0  0  0  0  0  0  0  0  # atno 6908 bound_to 6896
  151.7314  133.3282  159.3378 H   0  0  0  0  0  0  0  0  0  0  0  0  # atno 6909 bound_to 6896
  146.0521  139.5014  142.9712 H   0  0  0  0  0  0  0  0  0  0  0  0  # atno 7974 bound_to 7965
  156.2921  140.2251  156.4960 H   0  0  0  0  0  0  0  0  0  0  0  0  # atno 8008 bound_to 7997
  154.7730  140.0465  157.1088 H   0  0  0  0  0  0  0  0  0  0  0  0  # atno 8009 bound_to 7997
  154.9851  140.3083  155.4933 H   0  0  0  0  0  0  0  0  0  0  0  0  # atno 8010 bound_to 7997
  139.8312  144.6686  150.9397 H   0  0  0  0  0  0  0  0  0  0  0  0  # atno 10167 bound_to 10162
  157.2999  130.7345  149.6661 H   0  0  0  0  0  0  0  0  0  0  0  0  # atno 10718 bound_to 10713
  154.3670  135.6103  153.5720 H   0  0  0  0  0  0  0  0  0  0  0  0  # atno 10763 bound_to 10752
  152.9791  135.5829  154.4566 H   0  0  0  0  0  0  0  0  0  0  0  0  # atno 10764 bound_to 10752
  154.4314  135.2848  155.1888 H   0  0  0  0  0  0  0  0  0  0  0  0  # atno 10765 bound_to 10752
  140.7962  134.2910  157.4995 H   0  0  0  0  0  0  0  0  0  0  0  0  # atno 11005 bound_to 11000
  145.6707  141.0217  143.1659 LP  0  0  0  0  0  0  0  0  0  0  0  0  # atno 17320 bound_to 7965
  144.7128  139.8307  143.7409 LP  0  0  0  0  0  0  0  0  0  0  0  0  # atno 17321 bound_to 7965
  140.7806  143.3999  151.1167 LP  0  0  0  0  0  0  0  0  0  0  0  0  # atno 17342 bound_to 10162
  139.7652  143.8575  152.3109 LP  0  0  0  0  0  0  0  0  0  0  0  0  # atno 17343 bound_to 10162
  155.9671  130.4283  150.4782 LP  0  0  0  0  0  0  0  0  0  0  0  0  # atno 17370 bound_to 10713
  157.2761  131.0597  151.2228 LP  0  0  0  0  0  0  0  0  0  0  0  0  # atno 17371 bound_to 10713
  139.8726  134.9403  156.3766 LP  0  0  0  0  0  0  0  0  0  0  0  0  # atno 17394 bound_to 11000
  140.9340  133.7559  156.0061 LP  0  0  0  0  0  0  0  0  0  0  0  0  # atno 17395 bound_to 11000

$$$$
