AV-unprocessed.smi:3281|AV-procd|sdf|12557|dock4
  -GOLD-   2272018473D 1   1.00000     0.00000
 Structure written by MMmdl.
 37 38  0  0  0  0  0  0  0  0  2 V2000
  144.6008  144.7687  156.4387 C   0  0  0  0  0  0  0  0  0  0  0  0
  144.3458  143.5294  155.5734 C   0  0  0  0  0  0  0  0  0  0  0  0
  145.6006  142.8852  155.0821 C   0  0  0  0  0  0  0  0  0  0  0  0
  145.9754  142.6674  153.7789 C   0  0  0  0  0  0  0  0  0  0  0  0
  147.2159  142.0396  153.6452 N   0  0  0  0  0  0  0  0  0  0  0  0
  147.7763  141.7629  154.8246 C   0  0  0  0  0  0  0  0  0  0  0  0
  149.1131  141.1169  154.9686 C   0  0  0  0  0  0  0  0  0  0  0  0
  149.7212  141.3323  156.3602 C   0  0  0  0  0  0  0  0  0  0  0  0
  150.5187  142.5741  156.4024 N   0  3  0  0  0  0  0  0  0  0  0  0
  150.9397  142.9973  157.7556 C   0  0  1  0  0  0  0  0  0  0  0  0
  151.7975  141.8926  158.4024 C   0  0  0  0  0  0  0  0  0  0  0  0
  152.2344  142.2381  159.8360 C   0  0  0  0  0  0  0  0  0  0  0  0
  153.0846  143.5147  159.8993 C   0  0  0  0  0  0  0  0  0  0  0  0
  152.1485  144.9522  159.3129 S   0  0  0  0  0  0  0  0  0  0  0  0
  151.7017  144.3314  157.6687 C   0  0  0  0  0  0  0  0  0  0  0  0
  146.8116  142.3002  156.1944 S   0  0  0  0  0  0  0  0  0  0  0  0
  143.6613  145.2006  156.7841 H   0  0  0  0  0  0  0  0  0  0  0  0
  145.1345  145.5384  155.8808 H   0  0  0  0  0  0  0  0  0  0  0  0
  145.1958  144.5183  157.3174 H   0  0  0  0  0  0  0  0  0  0  0  0
  143.7657  142.8055  156.1470 H   0  0  0  0  0  0  0  0  0  0  0  0
  143.7243  143.8056  154.7213 H   0  0  0  0  0  0  0  0  0  0  0  0
  145.4231  142.9280  152.8879 H   0  0  0  0  0  0  0  0  0  0  0  0
  149.0054  140.0509  154.7651 H   0  0  0  0  0  0  0  0  0  0  0  0
  149.7782  141.5158  154.2015 H   0  0  0  0  0  0  0  0  0  0  0  0
  148.9297  141.3893  157.1090 H   0  0  0  0  0  0  0  0  0  0  0  0
  150.3589  140.4870  156.6237 H   0  0  0  0  0  0  0  0  0  0  0  0
  151.3469  142.4410  155.8398 H   0  0  0  0  0  0  0  0  0  0  0  0
  150.0537  143.1502  158.3748 H   0  0  0  0  0  0  0  0  0  0  0  0
  151.2320  140.9602  158.4232 H   0  0  0  0  0  0  0  0  0  0  0  0
  152.6795  141.7000  157.7899 H   0  0  0  0  0  0  0  0  0  0  0  0
  151.3566  142.3489  160.4738 H   0  0  0  0  0  0  0  0  0  0  0  0
  152.8068  141.4059  160.2473 H   0  0  0  0  0  0  0  0  0  0  0  0
  153.4088  143.7025  160.9231 H   0  0  0  0  0  0  0  0  0  0  0  0
  153.9852  143.4042  159.2942 H   0  0  0  0  0  0  0  0  0  0  0  0
  152.6103  144.2184  157.0761 H   0  0  0  0  0  0  0  0  0  0  0  0
  151.0905  145.0877  157.1750 H   0  0  0  0  0  0  0  0  0  0  0  0
  149.9713  143.3179  155.9933 H   0  0  0  0  0  0  0  0  0  0  0  0
  1  2  1  0  0  0  0
  1 17  1  0  0  0  0
  1 18  1  0  0  0  0
  1 19  1  0  0  0  0
  2  3  1  0  0  0  0
  2 20  1  0  0  0  0
  2 21  1  0  0  0  0
  3 16  1  0  0  0  0
  3  4  2  0  0  0  0
  4  5  1  0  0  0  0
  4 22  1  0  0  0  0
  5  6  2  0  0  0  0
  6  7  1  0  0  0  0
  6 16  1  0  0  0  0
  7  8  1  0  0  0  0
  7 23  1  0  0  0  0
  7 24  1  0  0  0  0
  8  9  1  0  0  0  0
  8 25  1  0  0  0  0
  8 26  1  0  0  0  0
  9 10  1  0  0  0  0
  9 27  1  0  0  0  0
  9 37  1  0  0  0  0
 10 15  1  0  0  0  0
 10 11  1  0  0  0  0
 10 28  1  0  0  0  0
 11 12  1  0  0  0  0
 11 29  1  0  0  0  0
 11 30  1  0  0  0  0
 12 13  1  0  0  0  0
 12 31  1  0  0  0  0
 12 32  1  0  0  0  0
 13 14  1  0  0  0  0
 13 33  1  0  0  0  0
 13 34  1  0  0  0  0
 14 15  1  0  0  0  0
 15 35  1  0  0  0  0
 15 36  1  0  0  0  0
M  CHG  1   9   1
M  END
> <s_m_source_file>
AV-unprocessed.smi

> <i_m_source_file_index>
3281

> <i_lp_mmshare_version>
43012

> <i_f3d_flags>
0

> <s_epik_input>
W0NIM11bQ0gyXWMxW2NIXW5jKHMxKVtDSDJdW0NIMl1bTkhdW0NAQEhdMltDSDJdW0NIMl1bQ0gyXVNbQ0gyXTI=

> <s_epik_cmdline>
J2VwaWtfcHl0aG9uJywgJy1waCcsICc3LjAnLCAnLXRuJywgJzgnLCAnLW1hJywgJzIwMCcsICctbWV0YWxfYmluZGluZycsICctaW1hZScsICc8aW5maWxlLm1hZT4nLCAnLW9tYWUnLCAnPG91dGZpbGUubWFlPic=

> <r_epik_Ionization_Penalty>
0.00827702

> <r_epik_Ionization_Penalty_Charging>
0.00826679

> <r_epik_Ionization_Penalty_Neutral>
1.02314e-05

> <r_epik_State_Penalty>
0.00622064

> <r_epik_Charging_Adjusted_Penalty>
0.0144874

> <i_epik_Tot_Q>
1

> <i_epik_Tot_abs_Q>
1

> <r_epik_Metal_State_Penalty>
0.0062521

> <b_epik_Metal_Only>
0

> <s_lp_Force_Field>
OPLS_2005

> <r_lp_Energy>
0.380523

> <b_lp_Chiralities_Consistent>
1

> <s_lp_Variant>
AV-unprocessed.smi:3281-2

> <Gold.Version>
5.8.1

> <Gold.Id.Protein>
6NUR|6NUR_protein|mol2

> <Gold.PLP.Fitness>
42.1794

> <Gold.PLP.PLP>
-37.0485

> <Gold.PLP.part.hbond>
-1.0000

> <Gold.PLP.part.metal>
0.0000

> <Gold.PLP.part.buried>
-3.4566

> <Gold.PLP.part.nonpolar>
-33.1148

> <Gold.PLP.part.repulsive>
0.2637

> <Gold.PLP.ligand.clash>
0.0000

> <Gold.PLP.ligand.torsion>
0.4489

> <Gold.PLP.Chemscore.Hbond>
2.0000

> <Gold.PLP.Chemscore.CHOScore>
0.0000

> <Gold.PLP.Chemscore.Metal>
0.0000

> <Gold.Chemscore.Hbonds>
donor molecule, donor type, donor heavy atom, donor atom, acceptor molecule, acceptor atom, score
      L1  H     9    37       P1  8028  2.00

> <Gold.PLP.Chemscore.Internal.Correction>
0.0287

> <Gold.Rescore>
     Score         DG    S(hbond)    S(metal)    S(lipo)     H(rot)  DE(clash)    DE(int)     intcor
     17.42     -17.76       1.00        0.00     106.50       1.38       0.02       0.31       ----

> <Gold.Chemscore.Fitness>
17.4196

> <Gold.Chemscore.DG>
-17.7560

> <Gold.Chemscore.ZeroCoef>
-5.4800

> <Gold.Chemscore.Hbond>
1.0000

> <Gold.Chemscore.Metal>
0.0000

> <Gold.Chemscore.Lipo>
106.4985

> <Gold.Chemscore.Internal_Hbond>
0.0000

> <Gold.Chemscore.DEClash>
0.0224

> <Gold.Chemscore.DEInternal>
0.3140

> <Gold.Chemscore.Rot>
1.3767

> <Gold.Chemscore.Internal.Correction>
   9.000000E+99

> <Gold.Chemscore.Hbonds>
donor molecule, donor type, donor heavy atom, donor atom, acceptor molecule, acceptor atom, score
      L1  H     9    37       P1  8028  1.00

> <Gold.Chemscore.Hbond.Weighted>
-3.3400

> <Gold.Chemscore.Metal.Weighted>
-0.0000

> <Gold.Chemscore.Lipo.Weighted>
-12.4603

> <Gold.Chemscore.Internal_Hbond.Weighted>
0.0000

> <Gold.Chemscore.DEClash.Weighted>
0.0224

> <Gold.Chemscore.DEInternal.Weighted>
0.3140

> <Gold.Chemscore.Rot.Weighted>
3.5243

> <Gold.Chemscore.Internal.Correction.Weighted>
   9.000000E+99

> <Gold.Protein.RotatedTorsions>
[ 6907 6896 6895 6894 ] final  155.34 input  -60.11 | X-H torsion
[ 7974 7965 7964 7962 ] final -101.85 input  175.53 | X-H torsion
[ 8008 7997 7996 7995 ] final  -40.48 input   59.86 | X-H torsion
[ 10167 10162 10161 10158 ] final -155.10 input  -65.29 | X-H torsion
[ 10718 10713 10712 10709 ] final  161.72 input   66.30 | X-H torsion
[ 10763 10752 10751 10750 ] final   -1.81 input  -60.55 | X-H torsion
[ 11005 11000 10999 10996 ] final -139.25 input  -57.11 | X-H torsion

> <Gold.Protein.ActiveResidues>
 VAL166  LYS551  ARG553  GLY616  TRP617  ASP618  TYR619  PRO620  LYS621  CYS622 
 ASP623  PHE694  ASN695  SER759  ASP760  ASP761  ALA762  ILE779  LEU786  VAL792 
 PHE793  MET794  SER795  GLU796  ALA797  LYS798  CYS799  TRP800  GLU811  SER814 

> <Gold.Protein.RotatedAtoms>
  152.0455  133.3996  159.4354 H   0  0  0  0  0  0  0  0  0  0  0  0  # atno 6907 bound_to 6896
  150.6873  134.3367  159.4859 H   0  0  0  0  0  0  0  0  0  0  0  0  # atno 6908 bound_to 6896
  152.1170  134.9233  160.0615 H   0  0  0  0  0  0  0  0  0  0  0  0  # atno 6909 bound_to 6896
  145.2763  140.9313  143.2957 H   0  0  0  0  0  0  0  0  0  0  0  0  # atno 7974 bound_to 7965
  154.4012  140.1524  156.3034 H   0  0  0  0  0  0  0  0  0  0  0  0  # atno 8008 bound_to 7997
  155.8680  140.3450  155.5780 H   0  0  0  0  0  0  0  0  0  0  0  0  # atno 8009 bound_to 7997
  155.7806  140.0843  157.2051 H   0  0  0  0  0  0  0  0  0  0  0  0  # atno 8010 bound_to 7997
  139.6958  143.9344  152.2406 H   0  0  0  0  0  0  0  0  0  0  0  0  # atno 10167 bound_to 10162
  157.1326  131.0520  151.2364 H   0  0  0  0  0  0  0  0  0  0  0  0  # atno 10718 bound_to 10713
  153.3498  135.6985  153.6798 H   0  0  0  0  0  0  0  0  0  0  0  0  # atno 10763 bound_to 10752
  153.5529  135.3550  155.2767 H   0  0  0  0  0  0  0  0  0  0  0  0  # atno 10764 bound_to 10752
  154.8651  135.4231  154.2731 H   0  0  0  0  0  0  0  0  0  0  0  0  # atno 10765 bound_to 10752
  140.8538  134.2254  157.4746 H   0  0  0  0  0  0  0  0  0  0  0  0  # atno 11005 bound_to 11000
  144.9291  139.4319  143.6504 LP  0  0  0  0  0  0  0  0  0  0  0  0  # atno 17320 bound_to 7965
  146.3230  139.8193  142.8930 LP  0  0  0  0  0  0  0  0  0  0  0  0  # atno 17321 bound_to 7965
  139.9173  144.6821  150.8499 LP  0  0  0  0  0  0  0  0  0  0  0  0  # atno 17342 bound_to 10162
  140.7696  143.3400  151.2228 LP  0  0  0  0  0  0  0  0  0  0  0  0  # atno 17343 bound_to 10162
  157.4379  130.7527  149.7044 LP  0  0  0  0  0  0  0  0  0  0  0  0  # atno 17370 bound_to 10713
  155.9805  130.4029  150.3526 LP  0  0  0  0  0  0  0  0  0  0  0  0  # atno 17371 bound_to 10713
  139.8704  134.9696  156.4672 LP  0  0  0  0  0  0  0  0  0  0  0  0  # atno 17394 bound_to 11000
  140.8761  133.7952  155.9416 LP  0  0  0  0  0  0  0  0  0  0  0  0  # atno 17395 bound_to 11000

$$$$
