AV-unprocessed.smi:1995|AV-procd|sdf|8078|dock6
  -GOLD-   2272010293D 1   1.00000     0.00000
 Structure written by MMmdl.
 43 44  0  0  0  0  0  0  0  0  2 V2000
  145.0025  142.5126  155.3360 C   0  0  0  0  0  0  0  0  0  0  0  0
  146.2829  141.6831  155.5386 C   0  0  0  0  0  0  0  0  0  0  0  0
  146.9780  141.1678  154.2410 C   0  0  1  0  0  0  0  0  0  0  0  0
  146.8855  142.2628  153.1466 C   0  0  0  0  0  0  0  0  0  0  0  0
  148.4918  140.9121  154.5261 C   0  0  0  0  0  0  0  0  0  0  0  0
  149.1052  141.8954  155.4209 N   0  0  0  0  0  0  0  0  0  0  0  0
  149.9451  141.6177  156.4286 C   0  0  0  0  0  0  0  0  0  0  0  0
  150.2851  140.4747  156.7337 O   0  0  0  0  0  0  0  0  0  0  0  0
  150.3529  142.7410  157.0447 N   0  0  0  0  0  0  0  0  0  0  0  0
  151.2175  142.8620  158.1644 C   0  0  0  0  0  0  0  0  0  0  0  0
  151.5195  144.0202  158.7632 N   0  0  0  0  0  0  0  0  0  0  0  0
  152.3953  143.8422  159.8372 C   0  0  0  0  0  0  0  0  0  0  0  0
  152.7551  142.5333  160.0408 C   0  0  0  0  0  0  0  0  0  0  0  0
  152.0031  141.4653  158.8860 S   0  0  0  0  0  0  0  0  0  0  0  0
  146.3227  139.9016  153.7434 N   0  3  0  0  0  0  0  0  0  0  0  0
  146.9935  139.2367  152.5905 C   0  0  0  0  0  0  0  0  0  0  0  0
  146.1165  138.0996  152.0422 C   0  0  0  0  0  0  0  0  0  0  0  0
  145.8607  137.1583  153.0750 O   0  0  0  0  0  0  0  0  0  0  0  0
  145.1530  137.7441  154.1588 C   0  0  0  0  0  0  0  0  0  0  0  0
  145.9867  138.8802  154.7760 C   0  0  0  0  0  0  0  0  0  0  0  0
  144.6024  142.8313  156.2987 H   0  0  0  0  0  0  0  0  0  0  0  0
  144.2202  141.9406  154.8383 H   0  0  0  0  0  0  0  0  0  0  0  0
  145.1876  143.4143  154.7530 H   0  0  0  0  0  0  0  0  0  0  0  0
  146.9747  142.2978  156.1137 H   0  0  0  0  0  0  0  0  0  0  0  0
  146.0267  140.8425  156.1827 H   0  0  0  0  0  0  0  0  0  0  0  0
  147.5547  143.0986  153.3525 H   0  0  0  0  0  0  0  0  0  0  0  0
  145.8833  142.6847  153.0703 H   0  0  0  0  0  0  0  0  0  0  0  0
  147.1573  141.8756  152.1643 H   0  0  0  0  0  0  0  0  0  0  0  0
  148.6496  139.9078  154.9223 H   0  0  0  0  0  0  0  0  0  0  0  0
  149.0592  140.9305  153.5955 H   0  0  0  0  0  0  0  0  0  0  0  0
  148.8960  142.8658  155.2376 H   0  0  0  0  0  0  0  0  0  0  0  0
  150.0071  143.6123  156.6706 H   0  0  0  0  0  0  0  0  0  0  0  0
  152.7133  144.7049  160.4041 H   0  0  0  0  0  0  0  0  0  0  0  0
  153.4144  142.1344  160.7974 H   0  0  0  0  0  0  0  0  0  0  0  0
  147.1882  139.9375  151.7810 H   0  0  0  0  0  0  0  0  0  0  0  0
  147.9557  138.8263  152.8980 H   0  0  0  0  0  0  0  0  0  0  0  0
  145.1785  138.4874  151.6412 H   0  0  0  0  0  0  0  0  0  0  0  0
  146.6275  137.5924  151.2237 H   0  0  0  0  0  0  0  0  0  0  0  0
  144.1838  138.1134  153.8189 H   0  0  0  0  0  0  0  0  0  0  0  0
  144.9552  136.9751  154.9059 H   0  0  0  0  0  0  0  0  0  0  0  0
  146.8979  138.4675  155.2096 H   0  0  0  0  0  0  0  0  0  0  0  0
  145.4057  139.3054  155.5919 H   0  0  0  0  0  0  0  0  0  0  0  0
  145.4293  140.2107  153.3876 H   0  0  0  0  0  0  0  0  0  0  0  0
  1  2  1  0  0  0  0
  1 21  1  0  0  0  0
  1 22  1  0  0  0  0
  1 23  1  0  0  0  0
  2  3  1  0  0  0  0
  2 24  1  0  0  0  0
  2 25  1  0  0  0  0
  3  4  1  0  0  0  0
  3  5  1  0  0  0  0
  3 15  1  0  0  0  0
  4 26  1  0  0  0  0
  4 27  1  0  0  0  0
  4 28  1  0  0  0  0
  5  6  1  0  0  0  0
  5 29  1  0  0  0  0
  5 30  1  0  0  0  0
  6  7  1  0  0  0  0
  6 31  1  0  0  0  0
  7  8  2  0  0  0  0
  7  9  1  0  0  0  0
  9 10  1  0  0  0  0
  9 32  1  0  0  0  0
 10 14  1  0  0  0  0
 10 11  2  0  0  0  0
 11 12  1  0  0  0  0
 12 13  2  0  0  0  0
 12 33  1  0  0  0  0
 13 14  1  0  0  0  0
 13 34  1  0  0  0  0
 15 20  1  0  0  0  0
 15 16  1  0  0  0  0
 15 43  1  0  0  0  0
 16 17  1  0  0  0  0
 16 35  1  0  0  0  0
 16 36  1  0  0  0  0
 17 18  1  0  0  0  0
 17 37  1  0  0  0  0
 17 38  1  0  0  0  0
 18 19  1  0  0  0  0
 19 20  1  0  0  0  0
 19 39  1  0  0  0  0
 19 40  1  0  0  0  0
 20 41  1  0  0  0  0
 20 42  1  0  0  0  0
M  CHG  1  15   1
M  END
> <s_m_source_file>
AV-unprocessed.smi

> <i_m_source_file_index>
1995

> <i_lp_mmshare_version>
43012

> <i_f3d_flags>
0

> <s_epik_input>
W0NIMl0xW0NIMl1PW0NIMl1bQ0gyXU4xW0NAQF0oW0NIM10pKFtDSDJdW0NIM10pW0NIMl1bTkhdQyg9TylbTkhdYzJuW2NIXVtjSF1zMg==

> <s_epik_cmdline>
J2VwaWtfcHl0aG9uJywgJy1waCcsICc3LjAnLCAnLXRuJywgJzgnLCAnLW1hJywgJzIwMCcsICctbWV0YWxfYmluZGluZycsICctaW1hZScsICc8aW5maWxlLm1hZT4nLCAnLW9tYWUnLCAnPG91dGZpbGUubWFlPic=

> <r_lp_tautomer_probability>
0.999

> <r_epik_Ionization_Penalty>
0.55406

> <r_epik_Ionization_Penalty_Charging>
0.553838

> <r_epik_Ionization_Penalty_Neutral>
0.000222147

> <r_epik_State_Penalty>
0.564424

> <r_epik_Charging_Adjusted_Penalty>
1.11826

> <i_epik_Tot_Q>
1

> <i_epik_Tot_abs_Q>
1

> <r_epik_Metal_State_Penalty>
0.573776

> <b_epik_Metal_Only>
0

> <s_lp_Force_Field>
OPLS_2005

> <r_lp_Energy>
32.5614

> <b_lp_Chiralities_Consistent>
1

> <s_lp_Variant>
AV-unprocessed.smi:1995-3

> <Gold.Version>
5.8.1

> <Gold.Id.Protein>
6NUR|6NUR_protein|mol2

> <Gold.PLP.Fitness>
43.3862

> <Gold.PLP.PLP>
-33.2802

> <Gold.PLP.part.hbond>
-3.0000

> <Gold.PLP.part.metal>
0.0000

> <Gold.PLP.part.buried>
-4.9066

> <Gold.PLP.part.nonpolar>
-26.5439

> <Gold.PLP.part.repulsive>
0.5116

> <Gold.PLP.ligand.clash>
0.0000

> <Gold.PLP.ligand.torsion>
1.0146

> <Gold.PLP.Chemscore.Hbond>
4.0000

> <Gold.PLP.Chemscore.CHOScore>
0.0000

> <Gold.PLP.Chemscore.Metal>
0.0000

> <Gold.Chemscore.Hbonds>
donor molecule, donor type, donor heavy atom, donor atom, acceptor molecule, acceptor atom, score
      L1  H     6    31       P1  8028  1.00
      L1  H     9    32       P1  8028  1.00
      L1  H    15    43       P1 10175  2.00

> <Gold.PLP.Chemscore.Internal.Correction>
0.1352

> <Gold.Rescore>
     Score         DG    S(hbond)    S(metal)    S(lipo)     H(rot)  DE(clash)    DE(int)     intcor
     16.39     -20.22       2.94        0.00      81.41       1.79       1.61       2.22       ----

> <Gold.Chemscore.Fitness>
16.3926

> <Gold.Chemscore.DG>
-20.2239

> <Gold.Chemscore.ZeroCoef>
-5.4800

> <Gold.Chemscore.Hbond>
2.9376

> <Gold.Chemscore.Metal>
0.0000

> <Gold.Chemscore.Lipo>
81.4132

> <Gold.Chemscore.Internal_Hbond>
0.0000

> <Gold.Chemscore.DEClash>
1.6102

> <Gold.Chemscore.DEInternal>
2.2212

> <Gold.Chemscore.Rot>
1.7942

> <Gold.Chemscore.Internal.Correction>
   9.000000E+99

> <Gold.Chemscore.Hbonds>
donor molecule, donor type, donor heavy atom, donor atom, acceptor molecule, acceptor atom, score
      L1  H     6    31       P1  8028  0.98
      L1  H     9    32       P1  8028  0.99
      L1  H    15    43       P1 10175  0.97

> <Gold.Chemscore.Hbond.Weighted>
-9.8117

> <Gold.Chemscore.Metal.Weighted>
-0.0000

> <Gold.Chemscore.Lipo.Weighted>
-9.5253

> <Gold.Chemscore.Internal_Hbond.Weighted>
0.0000

> <Gold.Chemscore.DEClash.Weighted>
1.6102

> <Gold.Chemscore.DEInternal.Weighted>
2.2212

> <Gold.Chemscore.Rot.Weighted>
4.5931

> <Gold.Chemscore.Internal.Correction.Weighted>
   9.000000E+99

> <Gold.Protein.RotatedTorsions>
[ 6907 6896 6895 6894 ] final -175.00 input  -60.11 | X-H torsion
[ 7974 7965 7964 7962 ] final  104.15 input  175.53 | X-H torsion
[ 8008 7997 7996 7995 ] final   38.58 input   59.86 | X-H torsion
[ 10167 10162 10161 10158 ] final -115.57 input  -65.29 | X-H torsion
[ 10718 10713 10712 10709 ] final -177.71 input   66.30 | X-H torsion
[ 10763 10752 10751 10750 ] final  -27.00 input  -60.55 | X-H torsion
[ 11005 11000 10999 10996 ] final   16.91 input  -57.11 | X-H torsion

> <Gold.Protein.ActiveResidues>
 VAL166  LYS551  ARG553  GLY616  TRP617  ASP618  TYR619  PRO620  LYS621  CYS622 
 ASP623  PHE694  ASN695  SER759  ASP760  ASP761  ALA762  ILE779  LEU786  VAL792 
 PHE793  MET794  SER795  GLU796  ALA797  LYS798  CYS799  TRP800  GLU811  SER814 

> <Gold.Protein.RotatedAtoms>
  151.5815  133.3377  159.3009 H   0  0  0  0  0  0  0  0  0  0  0  0  # atno 6907 bound_to 6896
  150.8310  134.7567  159.6865 H   0  0  0  0  0  0  0  0  0  0  0  0  # atno 6908 bound_to 6896
  152.4394  134.5628  159.9950 H   0  0  0  0  0  0  0  0  0  0  0  0  # atno 6909 bound_to 6896
  145.3365  139.2473  143.3632 H   0  0  0  0  0  0  0  0  0  0  0  0  # atno 7974 bound_to 7965
  155.2225  140.3332  155.4314 H   0  0  0  0  0  0  0  0  0  0  0  0  # atno 8008 bound_to 7997
  156.2327  140.1858  156.7247 H   0  0  0  0  0  0  0  0  0  0  0  0  # atno 8009 bound_to 7997
  154.6006  140.0624  156.9349 H   0  0  0  0  0  0  0  0  0  0  0  0  # atno 8010 bound_to 7997
  140.0887  143.4720  152.1883 H   0  0  0  0  0  0  0  0  0  0  0  0  # atno 10167 bound_to 10162
  156.8335  130.9661  151.3105 H   0  0  0  0  0  0  0  0  0  0  0  0  # atno 10718 bound_to 10713
  153.7251  135.6942  153.5003 H   0  0  0  0  0  0  0  0  0  0  0  0  # atno 10763 bound_to 10752
  153.2176  135.4381  155.0451 H   0  0  0  0  0  0  0  0  0  0  0  0  # atno 10764 bound_to 10752
  154.8271  135.3452  154.6783 H   0  0  0  0  0  0  0  0  0  0  0  0  # atno 10765 bound_to 10752
  140.4418  134.1314  155.7691 H   0  0  0  0  0  0  0  0  0  0  0  0  # atno 11005 bound_to 11000
  146.3025  140.3953  142.8699 LP  0  0  0  0  0  0  0  0  0  0  0  0  # atno 17320 bound_to 7965
  144.8823  140.7417  143.5978 LP  0  0  0  0  0  0  0  0  0  0  0  0  # atno 17321 bound_to 7965
  139.5737  144.7476  151.3821 LP  0  0  0  0  0  0  0  0  0  0  0  0  # atno 17342 bound_to 10162
  140.7040  143.7561  150.7450 LP  0  0  0  0  0  0  0  0  0  0  0  0  # atno 17343 bound_to 10162
  157.6394  130.8793  149.9419 LP  0  0  0  0  0  0  0  0  0  0  0  0  # atno 17370 bound_to 10713
  156.0920  130.3662  150.0376 LP  0  0  0  0  0  0  0  0  0  0  0  0  # atno 17371 bound_to 10713
  141.1702  133.8623  157.1593 LP  0  0  0  0  0  0  0  0  0  0  0  0  # atno 17394 bound_to 11000
  140.0065  135.0006  157.0303 LP  0  0  0  0  0  0  0  0  0  0  0  0  # atno 17395 bound_to 11000

$$$$
