AV-unprocessed.smi:2066|AV-procd|sdf|8422|dock8
  -GOLD-   2272011113D 1   1.00000     0.00000
 Structure written by MMmdl.
 39 40  0  0  0  0  0  0  0  0  3 V2000
  150.6657  138.4235  154.3467 C   0  0  0  0  0  0  0  0  0  0  0  0
  149.8406  137.3960  155.1616 C   0  0  0  0  0  0  0  0  0  0  0  0
  150.6548  136.0778  155.1345 C   0  0  0  0  0  0  0  0  0  0  0  0
  149.6657  137.8734  156.6354 C   0  0  0  0  0  0  0  0  0  0  0  0
  149.3149  136.7940  157.5576 N   0  0  0  0  0  0  0  0  0  0  0  0
  149.1724  136.8962  158.8870 C   0  0  0  0  0  0  0  0  0  0  0  0
  149.3315  137.9852  159.4429 O   0  0  0  0  0  0  0  0  0  0  0  0
  148.8668  135.7258  159.4899 N   0  5  0  0  0  0  0  0  0  0  0  0
  148.1816  135.7262  160.6450 C   0  0  0  0  0  0  0  0  0  0  0  0
  147.9310  136.8378  161.3461 N   0  0  0  0  0  0  0  0  0  0  0  0
  147.2019  136.6047  162.5135 C   0  0  0  0  0  0  0  0  0  0  0  0
  146.8808  135.2862  162.7001 C   0  0  0  0  0  0  0  0  0  0  0  0
  147.4894  134.2918  161.4079 S   0  0  0  0  0  0  0  0  0  0  0  0
  148.5064  137.1905  154.4913 N   0  3  0  0  0  0  0  0  0  0  0  0
  147.6084  136.1816  155.1211 C   0  0  0  0  0  0  0  0  0  0  0  0
  146.3733  135.9326  154.2393 C   0  0  0  0  0  0  0  0  0  0  0  0
  145.6826  137.1546  154.0214 O   0  0  0  0  0  0  0  0  0  0  0  0
  146.4945  138.1021  153.3427 C   0  0  0  0  0  0  0  0  0  0  0  0
  147.7311  138.4290  154.1957 C   0  0  0  0  0  0  0  0  0  0  0  0
  151.7086  138.4482  154.6646 H   0  0  0  0  0  0  0  0  0  0  0  0
  150.2916  139.4406  154.4602 H   0  0  0  0  0  0  0  0  0  0  0  0
  150.6655  138.1813  153.2834 H   0  0  0  0  0  0  0  0  0  0  0  0
  151.6929  136.2388  155.4280 H   0  0  0  0  0  0  0  0  0  0  0  0
  150.6699  135.6397  154.1358 H   0  0  0  0  0  0  0  0  0  0  0  0
  150.2600  135.3324  155.8244 H   0  0  0  0  0  0  0  0  0  0  0  0
  150.5591  138.3835  156.9953 H   0  0  0  0  0  0  0  0  0  0  0  0
  148.8607  138.6041  156.7034 H   0  0  0  0  0  0  0  0  0  0  0  0
  149.1703  135.8808  157.1523 H   0  0  0  0  0  0  0  0  0  0  0  0
  146.9535  137.4377  163.1541 H   0  0  0  0  0  0  0  0  0  0  0  0
  146.3264  134.8415  163.5125 H   0  0  0  0  0  0  0  0  0  0  0  0
  148.1106  135.2262  155.2585 H   0  0  0  0  0  0  0  0  0  0  0  0
  147.2884  136.5228  156.1058 H   0  0  0  0  0  0  0  0  0  0  0  0
  146.6591  135.4863  153.2852 H   0  0  0  0  0  0  0  0  0  0  0  0
  145.6990  135.2296  154.7286 H   0  0  0  0  0  0  0  0  0  0  0  0
  146.7855  137.7191  152.3633 H   0  0  0  0  0  0  0  0  0  0  0  0
  145.9094  139.0054  153.1697 H   0  0  0  0  0  0  0  0  0  0  0  0
  147.4084  138.9051  155.1217 H   0  0  0  0  0  0  0  0  0  0  0  0
  148.3295  139.1573  153.6519 H   0  0  0  0  0  0  0  0  0  0  0  0
  148.7389  136.8049  153.5874 H   0  0  0  0  0  0  0  0  0  0  0  0
  1  2  1  0  0  0  0
  1 20  1  0  0  0  0
  1 21  1  0  0  0  0
  1 22  1  0  0  0  0
  2  3  1  0  0  0  0
  2  4  1  0  0  0  0
  2 14  1  0  0  0  0
  3 23  1  0  0  0  0
  3 24  1  0  0  0  0
  3 25  1  0  0  0  0
  4  5  1  0  0  0  0
  4 26  1  0  0  0  0
  4 27  1  0  0  0  0
  5  6  1  0  0  0  0
  5 28  1  0  0  0  0
  6  7  2  0  0  0  0
  6  8  1  0  0  0  0
  8  9  1  0  0  0  0
  9 13  1  0  0  0  0
  9 10  2  0  0  0  0
 10 11  1  0  0  0  0
 11 12  2  0  0  0  0
 11 29  1  0  0  0  0
 12 13  1  0  0  0  0
 12 30  1  0  0  0  0
 14 19  1  0  0  0  0
 14 15  1  0  0  0  0
 14 39  1  0  0  0  0
 15 16  1  0  0  0  0
 15 31  1  0  0  0  0
 15 32  1  0  0  0  0
 16 17  1  0  0  0  0
 16 33  1  0  0  0  0
 16 34  1  0  0  0  0
 17 18  1  0  0  0  0
 18 19  1  0  0  0  0
 18 35  1  0  0  0  0
 18 36  1  0  0  0  0
 19 37  1  0  0  0  0
 19 38  1  0  0  0  0
M  CHG  1   8  -1
M  CHG  1  14   1
M  END
> <s_m_source_file>
AV-unprocessed.smi

> <i_m_source_file_index>
2066

> <i_lp_mmshare_version>
43012

> <i_f3d_flags>
0

> <s_epik_input>
W0NIMl0xW0NIMl1PW0NIMl1bQ0gyXU4xQyhbQ0gzXSkoW0NIM10pW0NIMl1bTkhdQyg9TylbTkhdYzJuW2NIXVtjSF1zMg==

> <s_epik_cmdline>
J2VwaWtfcHl0aG9uJywgJy1waCcsICc3LjAnLCAnLXRuJywgJzgnLCAnLW1hJywgJzIwMCcsICctbWV0YWxfYmluZGluZycsICctaW1hZScsICc8aW5maWxlLm1hZT4nLCAnLW9tYWUnLCAnPG91dGZpbGUubWFlPic=

> <r_lp_tautomer_probability>
0.999

> <r_epik_Ionization_Penalty>
6.71078

> <r_epik_Ionization_Penalty_Charging>
5.8797

> <r_epik_Ionization_Penalty_Neutral>
0.831074

> <r_epik_State_Penalty>
6.07743

> <r_epik_Charging_Adjusted_Penalty>
11.9571

> <i_epik_Tot_Q>
0

> <i_epik_Tot_abs_Q>
2

> <r_epik_Metal_State_Penalty>
2.08929

> <b_epik_Metal_Only>
1

> <s_lp_Force_Field>
OPLS_2005

> <r_lp_Energy>
15.1529

> <b_lp_Chiralities_Consistent>
1

> <s_lp_Variant>
AV-unprocessed.smi:2066-4

> <Gold.Version>
5.8.1

> <Gold.Id.Protein>
6NUR|6NUR_protein|mol2

> <Gold.PLP.Fitness>
42.0737

> <Gold.PLP.PLP>
-27.7063

> <Gold.PLP.part.hbond>
-5.0458

> <Gold.PLP.part.metal>
0.0000

> <Gold.PLP.part.buried>
-4.2842

> <Gold.PLP.part.nonpolar>
-19.5265

> <Gold.PLP.part.repulsive>
0.1341

> <Gold.PLP.ligand.clash>
0.0000

> <Gold.PLP.ligand.torsion>
0.4968

> <Gold.PLP.Chemscore.Hbond>
5.0753

> <Gold.PLP.Chemscore.CHOScore>
0.0000

> <Gold.PLP.Chemscore.Metal>
0.0000

> <Gold.Chemscore.Hbonds>
donor molecule, donor type, donor heavy atom, donor atom, acceptor molecule, acceptor atom, score
      L1  H    14    39       P1  7948  2.00
      P1  H  6896  6907       L1     8  1.56
      P1  H  6931  6943       L1    10  1.00
      P1  H  6934  6947       L1    10  0.16

> <Gold.PLP.Chemscore.Internal.Correction>
0.1349

> <Gold.Rescore>
     Score         DG    S(hbond)    S(metal)    S(lipo)     H(rot)  DE(clash)    DE(int)     intcor
     12.27     -15.16       2.18        0.00      55.25       1.59       0.04       2.85       ----

> <Gold.Chemscore.Fitness>
12.2708

> <Gold.Chemscore.DG>
-15.1599

> <Gold.Chemscore.ZeroCoef>
-5.4800

> <Gold.Chemscore.Hbond>
2.1836

> <Gold.Chemscore.Metal>
0.0000

> <Gold.Chemscore.Lipo>
55.2460

> <Gold.Chemscore.Internal_Hbond>
0.0000

> <Gold.Chemscore.DEClash>
0.0392

> <Gold.Chemscore.DEInternal>
2.8500

> <Gold.Chemscore.Rot>
1.5926

> <Gold.Chemscore.Internal.Correction>
   9.000000E+99

> <Gold.Chemscore.Hbonds>
donor molecule, donor type, donor heavy atom, donor atom, acceptor molecule, acceptor atom, score
      L1  H    14    39       P1  7948  1.00
      P1  H  6896  6907       L1     8  0.33
      P1  H  6931  6943       L1    10  0.30
      P1  H  6934  6947       L1    10  0.03

> <Gold.Chemscore.Hbond.Weighted>
-7.2932

> <Gold.Chemscore.Metal.Weighted>
-0.0000

> <Gold.Chemscore.Lipo.Weighted>
-6.4638

> <Gold.Chemscore.Internal_Hbond.Weighted>
0.0000

> <Gold.Chemscore.DEClash.Weighted>
0.0392

> <Gold.Chemscore.DEInternal.Weighted>
2.8500

> <Gold.Chemscore.Rot.Weighted>
4.0770

> <Gold.Chemscore.Internal.Correction.Weighted>
   9.000000E+99

> <Gold.Protein.RotatedTorsions>
[ 6907 6896 6895 6894 ] final  -62.32 input  -60.11 | X-H torsion
[ 7974 7965 7964 7962 ] final  131.54 input  175.53 | X-H torsion
[ 8008 7997 7996 7995 ] final  134.12 input   59.86 | X-H torsion
[ 10167 10162 10161 10158 ] final -134.95 input  -65.29 | X-H torsion
[ 10718 10713 10712 10709 ] final  -36.24 input   66.30 | X-H torsion
[ 10763 10752 10751 10750 ] final   -5.27 input  -60.55 | X-H torsion
[ 11005 11000 10999 10996 ] final   57.95 input  -57.11 | X-H torsion

> <Gold.Protein.ActiveResidues>
 VAL166  LYS551  ARG553  GLY616  TRP617  ASP618  TYR619  PRO620  LYS621  CYS622 
 ASP623  PHE694  ASN695  SER759  ASP760  ASP761  ALA762  ILE779  LEU786  VAL792 
 PHE793  MET794  SER795  GLU796  ALA797  LYS798  CYS799  TRP800  GLU811  SER814 

> <Gold.Protein.RotatedAtoms>
  150.7724  134.6587  159.6327 H   0  0  0  0  0  0  0  0  0  0  0  0  # atno 6907 bound_to 6896
  152.3781  134.6629  160.0161 H   0  0  0  0  0  0  0  0  0  0  0  0  # atno 6908 bound_to 6896
  151.6967  133.3274  159.3292 H   0  0  0  0  0  0  0  0  0  0  0  0  # atno 6909 bound_to 6896
  145.0062  139.4264  143.5267 H   0  0  0  0  0  0  0  0  0  0  0  0  # atno 7974 bound_to 7965
  156.2997  140.2504  156.3365 H   0  0  0  0  0  0  0  0  0  0  0  0  # atno 8008 bound_to 7997
  154.9095  140.0404  157.1957 H   0  0  0  0  0  0  0  0  0  0  0  0  # atno 8009 bound_to 7997
  154.8419  140.2892  155.5658 H   0  0  0  0  0  0  0  0  0  0  0  0  # atno 8010 bound_to 7997
  139.8828  143.6818  152.2624 H   0  0  0  0  0  0  0  0  0  0  0  0  # atno 10167 bound_to 10162
  156.3291  130.4276  149.7889 H   0  0  0  0  0  0  0  0  0  0  0  0  # atno 10718 bound_to 10713
  153.3963  135.7003  153.6458 H   0  0  0  0  0  0  0  0  0  0  0  0  # atno 10763 bound_to 10752
  153.5010  135.3652  155.2540 H   0  0  0  0  0  0  0  0  0  0  0  0  # atno 10764 bound_to 10752
  154.8707  135.4112  154.3289 H   0  0  0  0  0  0  0  0  0  0  0  0  # atno 10765 bound_to 10752
  140.0414  134.5868  155.9377 H   0  0  0  0  0  0  0  0  0  0  0  0  # atno 11005 bound_to 11000
  146.3461  139.9479  142.8732 LP  0  0  0  0  0  0  0  0  0  0  0  0  # atno 17320 bound_to 7965
  145.2085  140.9885  143.4114 LP  0  0  0  0  0  0  0  0  0  0  0  0  # atno 17321 bound_to 7965
  139.7180  144.7608  151.1001 LP  0  0  0  0  0  0  0  0  0  0  0  0  # atno 17342 bound_to 10162
  140.7741  143.5244  150.9498 LP  0  0  0  0  0  0  0  0  0  0  0  0  # atno 17343 bound_to 10162
  156.5168  130.8197  151.3189 LP  0  0  0  0  0  0  0  0  0  0  0  0  # atno 17370 bound_to 10713
  157.7427  130.9896  150.2535 LP  0  0  0  0  0  0  0  0  0  0  0  0  # atno 17371 bound_to 10713
  141.1885  133.6562  156.5326 LP  0  0  0  0  0  0  0  0  0  0  0  0  # atno 17394 bound_to 11000
  140.4063  134.7312  157.4810 LP  0  0  0  0  0  0  0  0  0  0  0  0  # atno 17395 bound_to 11000

$$$$
