AV-unprocessed.smi:1021|AV-procd|sdf|4457|dock9
  -GOLD-   22720 2433D 1   1.00000     0.00000
 Structure written by MMmdl.
 43 45  0  0  0  0  0  0  0  0  2 V2000
  144.5186  137.1535  152.1196 O   0  0  0  0  0  0  0  0  0  0  0  0
  145.8774  137.2624  152.4874 C   0  0  0  0  0  0  0  0  0  0  0  0
  146.5556  138.3980  151.7068 C   0  0  0  0  0  0  0  0  0  0  0  0
  146.7645  139.6697  152.5498 C   0  0  0  0  0  0  0  0  0  0  0  0
  148.0754  139.6960  153.2752 C   0  0  0  0  0  0  0  0  0  0  0  0
  149.0440  138.7349  153.2574 N   0  3  0  0  0  0  0  0  0  0  0  0
  150.1197  139.1293  154.0534 C   0  0  0  0  0  0  0  0  0  0  0  0
  151.3218  138.4903  154.3412 C   0  0  0  0  0  0  0  0  0  0  0  0
  152.2109  139.1712  155.1983 C   0  0  0  0  0  0  0  0  0  0  0  0
  151.8899  140.4352  155.7344 C   0  0  0  0  0  0  0  0  0  0  0  0
  150.6677  141.0727  155.4352 C   0  0  0  0  0  0  0  0  0  0  0  0
  149.7948  140.3940  154.5846 C   0  0  0  0  0  0  0  0  0  0  0  0
  148.5269  140.7032  154.0766 N   0  0  0  0  0  0  0  0  0  0  0  0
  147.8854  141.9775  154.4388 C   0  0  0  0  0  0  0  0  0  0  0  0
  146.5052  141.7889  155.0995 C   0  0  1  0  0  0  0  0  0  0  0  0
  146.6565  141.5466  156.4849 O   0  0  0  0  0  0  0  0  0  0  0  0
  145.5937  142.9733  154.8199 C   0  0  0  0  0  0  0  0  0  0  0  0
  144.8617  143.5629  155.8731 C   0  0  0  0  0  0  0  0  0  0  0  0
  144.0088  144.6550  155.6206 C   0  0  0  0  0  0  0  0  0  0  0  0
  143.8805  145.1620  154.3132 C   0  0  0  0  0  0  0  0  0  0  0  0
  143.0592  146.2108  154.0710 F   0  0  0  0  0  0  0  0  0  0  0  0
  144.6057  144.5762  153.2579 C   0  0  0  0  0  0  0  0  0  0  0  0
  145.4590  143.4841  153.5098 C   0  0  0  0  0  0  0  0  0  0  0  0
  144.3415  137.7769  151.4316 H   0  0  0  0  0  0  0  0  0  0  0  0
  145.9516  137.4286  153.5625 H   0  0  0  0  0  0  0  0  0  0  0  0
  146.3703  136.3139  152.2726 H   0  0  0  0  0  0  0  0  0  0  0  0
  147.5241  138.0433  151.3525 H   0  0  0  0  0  0  0  0  0  0  0  0
  145.9667  138.6279  150.8174 H   0  0  0  0  0  0  0  0  0  0  0  0
  146.7098  140.5531  151.9129 H   0  0  0  0  0  0  0  0  0  0  0  0
  145.9615  139.7619  153.2814 H   0  0  0  0  0  0  0  0  0  0  0  0
  151.5686  137.5211  153.9331 H   0  0  0  0  0  0  0  0  0  0  0  0
  153.1570  138.7146  155.4505 H   0  0  0  0  0  0  0  0  0  0  0  0
  152.5949  140.9259  156.3895 H   0  0  0  0  0  0  0  0  0  0  0  0
  150.4303  142.0380  155.8566 H   0  0  0  0  0  0  0  0  0  0  0  0
  148.5573  142.5529  155.0758 H   0  0  0  0  0  0  0  0  0  0  0  0
  147.7775  142.5542  153.5193 H   0  0  0  0  0  0  0  0  0  0  0  0
  146.0380  140.8965  154.6813 H   0  0  0  0  0  0  0  0  0  0  0  0
  147.5444  141.7591  156.7299 H   0  0  0  0  0  0  0  0  0  0  0  0
  144.9500  143.1797  156.8790 H   0  0  0  0  0  0  0  0  0  0  0  0
  143.4520  145.1036  156.4302 H   0  0  0  0  0  0  0  0  0  0  0  0
  144.5065  144.9635  152.2545 H   0  0  0  0  0  0  0  0  0  0  0  0
  146.0083  143.0388  152.6932 H   0  0  0  0  0  0  0  0  0  0  0  0
  148.9707  137.8716  152.7349 H   0  0  0  0  0  0  0  0  0  0  0  0
  1  2  1  0  0  0  0
  1 24  1  0  0  0  0
  2  3  1  0  0  0  0
  2 25  1  0  0  0  0
  2 26  1  0  0  0  0
  3  4  1  0  0  0  0
  3 27  1  0  0  0  0
  3 28  1  0  0  0  0
  4  5  1  0  0  0  0
  4 29  1  0  0  0  0
  4 30  1  0  0  0  0
  5 13  1  0  0  0  0
  5  6  2  0  0  0  0
  6  7  1  0  0  0  0
  6 43  1  0  0  0  0
  7 12  2  0  0  0  0
  7  8  1  0  0  0  0
  8  9  2  0  0  0  0
  8 31  1  0  0  0  0
  9 10  1  0  0  0  0
  9 32  1  0  0  0  0
 10 11  2  0  0  0  0
 10 33  1  0  0  0  0
 11 12  1  0  0  0  0
 11 34  1  0  0  0  0
 12 13  1  0  0  0  0
 13 14  1  0  0  0  0
 14 15  1  0  0  0  0
 14 35  1  0  0  0  0
 14 36  1  0  0  0  0
 15 16  1  0  0  0  0
 15 17  1  0  0  0  0
 15 37  1  0  0  0  0
 16 38  1  0  0  0  0
 17 23  1  0  0  0  0
 17 18  2  0  0  0  0
 18 19  1  0  0  0  0
 18 39  1  0  0  0  0
 19 20  2  0  0  0  0
 19 40  1  0  0  0  0
 20 21  1  0  0  0  0
 20 22  1  0  0  0  0
 22 23  2  0  0  0  0
 22 41  1  0  0  0  0
 23 42  1  0  0  0  0
M  CHG  1   6   1
M  END
> <s_m_source_file>
AV-unprocessed.smi

> <i_m_source_file_index>
1021

> <i_lp_mmshare_version>
43012

> <i_f3d_flags>
0

> <s_epik_input>
W09IXVtDSDJdW0NIMl1bQ0gyXWMobjEpbihjKGMxMilbY0hdW2NIXVtjSF1bY0hdMilbQ0gyXVtDQEhdKFtPSF0pYzNbY0hdW2NIXWMoRilbY0hdW2NIXTM=

> <s_epik_cmdline>
J2VwaWtfcHl0aG9uJywgJy1waCcsICc3LjAnLCAnLXRuJywgJzgnLCAnLW1hJywgJzIwMCcsICctbWV0YWxfYmluZGluZycsICctaW1hZScsICc8aW5maWxlLm1hZT4nLCAnLW9tYWUnLCAnPG91dGZpbGUubWFlPic=

> <r_epik_Ionization_Penalty>
0.786441

> <r_epik_Ionization_Penalty_Charging>
0.786439

> <r_epik_Ionization_Penalty_Neutral>
1.96029e-06

> <r_epik_State_Penalty>
0.816472

> <r_epik_Charging_Adjusted_Penalty>
1.60291

> <i_epik_Tot_Q>
1

> <i_epik_Tot_abs_Q>
1

> <r_epik_Metal_State_Penalty>
4.73733

> <b_epik_Metal_Only>
0

> <s_lp_Force_Field>
OPLS_2005

> <r_lp_Energy>
16.4086

> <b_lp_Chiralities_Consistent>
1

> <s_lp_Variant>
AV-unprocessed.smi:1021-4

> <Gold.Version>
5.8.1

> <Gold.Id.Protein>
6NUR|6NUR_protein|mol2

> <Gold.PLP.Fitness>
59.9414

> <Gold.PLP.PLP>
-52.9231

> <Gold.PLP.part.hbond>
-3.2343

> <Gold.PLP.part.metal>
0.0000

> <Gold.PLP.part.buried>
3.7112

> <Gold.PLP.part.nonpolar>
-53.4200

> <Gold.PLP.part.repulsive>
0.0805

> <Gold.PLP.ligand.clash>
0.0000

> <Gold.PLP.ligand.torsion>
1.0317

> <Gold.PLP.Chemscore.Hbond>
3.0000

> <Gold.PLP.Chemscore.CHOScore>
0.0000

> <Gold.PLP.Chemscore.Metal>
0.0000

> <Gold.Chemscore.Hbonds>
donor molecule, donor type, donor heavy atom, donor atom, acceptor molecule, acceptor atom, score
      L1  H     1    24       P1 10171  1.00
      L1  H     6    43       P1  7948  2.00

> <Gold.PLP.Chemscore.Internal.Correction>
0.0819

> <Gold.Rescore>
     Score         DG    S(hbond)    S(metal)    S(lipo)     H(rot)  DE(clash)    DE(int)     intcor
     15.17     -17.33       2.00        0.00     113.41       3.16       1.44       0.72       ----

> <Gold.Chemscore.Fitness>
15.1748

> <Gold.Chemscore.DG>
-17.3303

> <Gold.Chemscore.ZeroCoef>
-5.4800

> <Gold.Chemscore.Hbond>
1.9975

> <Gold.Chemscore.Metal>
0.0000

> <Gold.Chemscore.Lipo>
113.4144

> <Gold.Chemscore.Internal_Hbond>
0.0000

> <Gold.Chemscore.DEClash>
1.4362

> <Gold.Chemscore.DEInternal>
0.7194

> <Gold.Chemscore.Rot>
3.1604

> <Gold.Chemscore.Internal.Correction>
   9.000000E+99

> <Gold.Chemscore.Hbonds>
donor molecule, donor type, donor heavy atom, donor atom, acceptor molecule, acceptor atom, score
      L1  H     1    24       P1 10171  1.00
      L1  H     6    43       P1  7948  1.00

> <Gold.Chemscore.Hbond.Weighted>
-6.6715

> <Gold.Chemscore.Metal.Weighted>
-0.0000

> <Gold.Chemscore.Lipo.Weighted>
-13.2695

> <Gold.Chemscore.Internal_Hbond.Weighted>
0.0000

> <Gold.Chemscore.DEClash.Weighted>
1.4362

> <Gold.Chemscore.DEInternal.Weighted>
0.7194

> <Gold.Chemscore.Rot.Weighted>
8.0907

> <Gold.Chemscore.Internal.Correction.Weighted>
   9.000000E+99

> <Gold.Protein.RotatedTorsions>
[ 6907 6896 6895 6894 ] final -106.15 input  -60.11 | X-H torsion
[ 7974 7965 7964 7962 ] final  156.07 input  175.53 | X-H torsion
[ 8008 7997 7996 7995 ] final -102.35 input   59.86 | X-H torsion
[ 10167 10162 10161 10158 ] final -144.29 input  -65.29 | X-H torsion
[ 10718 10713 10712 10709 ] final    2.22 input   66.30 | X-H torsion
[ 10763 10752 10751 10750 ] final   75.76 input  -60.55 | X-H torsion
[ 11005 11000 10999 10996 ] final   73.07 input  -57.11 | X-H torsion

> <Gold.Protein.ActiveResidues>
 VAL166  LYS551  ARG553  GLY616  TRP617  ASP618  TYR619  PRO620  LYS621  CYS622 
 ASP623  PHE694  ASN695  SER759  ASP760  ASP761  ALA762  ILE779  LEU786  VAL792 
 PHE793  MET794  SER795  GLU796  ALA797  LYS798  CYS799  TRP800  GLU811  SER814 

> <Gold.Protein.RotatedAtoms>
  150.7374  134.0020  159.3640 H   0  0  0  0  0  0  0  0  0  0  0  0  # atno 6907 bound_to 6896
  151.7974  135.0716  160.0405 H   0  0  0  0  0  0  0  0  0  0  0  0  # atno 6908 bound_to 6896
  152.3165  133.5771  159.5752 H   0  0  0  0  0  0  0  0  0  0  0  0  # atno 6909 bound_to 6896
  144.7986  139.7153  143.6191 H   0  0  0  0  0  0  0  0  0  0  0  0  # atno 7974 bound_to 7965
  154.8555  140.0429  157.1631 H   0  0  0  0  0  0  0  0  0  0  0  0  # atno 8008 bound_to 7997
  154.8897  140.2984  155.5357 H   0  0  0  0  0  0  0  0  0  0  0  0  # atno 8009 bound_to 7997
  156.2997  140.2396  156.3911 H   0  0  0  0  0  0  0  0  0  0  0  0  # atno 8010 bound_to 7997
  139.7912  143.7963  152.2650 H   0  0  0  0  0  0  0  0  0  0  0  0  # atno 10167 bound_to 10162
  156.8598  130.5583  149.5663 H   0  0  0  0  0  0  0  0  0  0  0  0  # atno 10718 bound_to 10713
  153.0677  135.4976  154.8237 H   0  0  0  0  0  0  0  0  0  0  0  0  # atno 10763 bound_to 10752
  154.6978  135.2996  154.9388 H   0  0  0  0  0  0  0  0  0  0  0  0  # atno 10764 bound_to 10752
  154.0122  135.6753  153.4819 H   0  0  0  0  0  0  0  0  0  0  0  0  # atno 10765 bound_to 10752
  139.9459  134.7315  156.0982 H   0  0  0  0  0  0  0  0  0  0  0  0  # atno 11005 bound_to 11000
  146.2261  139.5725  142.9586 LP  0  0  0  0  0  0  0  0  0  0  0  0  # atno 17320 bound_to 7965
  145.5611  141.0404  143.2226 LP  0  0  0  0  0  0  0  0  0  0  0  0  # atno 17321 bound_to 7965
  139.8055  144.7357  150.9767 LP  0  0  0  0  0  0  0  0  0  0  0  0  # atno 17342 bound_to 10162
  140.7820  143.4302  151.0706 LP  0  0  0  0  0  0  0  0  0  0  0  0  # atno 17343 bound_to 10162
  156.0783  130.5799  150.9515 LP  0  0  0  0  0  0  0  0  0  0  0  0  # atno 17370 bound_to 10713
  157.6256  131.0926  150.8539 LP  0  0  0  0  0  0  0  0  0  0  0  0  # atno 17371 bound_to 10713
  141.1109  133.6644  156.2975 LP  0  0  0  0  0  0  0  0  0  0  0  0  # atno 17394 bound_to 11000
  140.5837  134.5720  157.5485 LP  0  0  0  0  0  0  0  0  0  0  0  0  # atno 17395 bound_to 11000

$$$$
