AV-unprocessed.smi:110|AV-procd|sdf|1069|dock10
  -GOLD-   2262018153D 1   1.00000     0.00000
 Structure written by MMmdl.
 46 50  0  0  0  0  0  0  0  0  1 V2000
  148.1084  136.3965  154.0352 O   0  0  0  0  0  0  0  0  0  0  0  0
  146.9686  137.2283  153.9898 C   0  0  0  0  0  0  0  0  0  0  0  0
  147.2639  138.5671  154.6830 C   0  0  1  0  0  0  0  0  0  0  0  0
  148.3179  139.2340  154.0049 O   0  0  0  0  0  0  0  0  0  0  0  0
  148.2501  140.5998  154.2589 C   0  0  2  0  0  0  0  0  0  0  0  0
  149.1566  140.9141  155.4195 N   0  0  0  0  0  0  0  0  0  0  0  0
  148.8707  141.7920  156.4412 C   0  0  0  0  0  0  0  0  0  0  0  0
  149.8040  141.9406  157.3388 N   0  0  0  0  0  0  0  0  0  0  0  0
  150.8384  141.1299  156.8924 C   0  0  0  0  0  0  0  0  0  0  0  0
  152.1413  140.8231  157.3809 C   0  0  0  0  0  0  0  0  0  0  0  0
  152.6770  141.3279  158.5165 N   0  0  0  0  0  0  0  0  0  0  0  0
  153.3914  140.4105  159.4167 C   0  0  0  0  0  0  0  0  0  0  0  0
  153.3826  141.0333  160.8256 C   0  0  0  0  0  0  0  0  0  0  0  0
  152.7091  142.3394  160.5554 C   0  0  0  0  0  0  0  0  0  0  0  0
  152.4619  143.3773  161.4707 C   0  0  0  0  0  0  0  0  0  0  0  0
  151.8224  144.5431  160.9973 C   0  0  0  0  0  0  0  0  0  0  0  0
  151.4534  144.6535  159.6364 C   0  0  0  0  0  0  0  0  0  0  0  0
  151.7132  143.5981  158.7346 C   0  0  0  0  0  0  0  0  0  0  0  0
  152.3349  142.4287  159.2187 C   0  0  0  0  0  0  0  0  0  0  0  0
  152.8790  139.9214  156.6867 N   0  0  0  0  0  0  0  0  0  0  0  0
  152.3948  139.3827  155.5660 C   0  0  0  0  0  0  0  0  0  0  0  0
  151.2118  139.5901  154.9869 N   0  0  0  0  0  0  0  0  0  0  0  0
  150.4438  140.4736  155.6895 C   0  0  0  0  0  0  0  0  0  0  0  0
  146.7724  140.9449  154.5109 C   0  0  1  0  0  0  0  0  0  0  0  0
  146.2342  141.6887  153.4359 O   0  0  0  0  0  0  0  0  0  0  0  0
  146.1013  139.5696  154.5932 C   0  0  2  0  0  0  0  0  0  0  0  0
  145.2905  139.4765  155.7474 O   0  0  0  0  0  0  0  0  0  0  0  0
  147.5520  138.4023  155.7215 H   0  0  0  0  0  0  0  0  0  0  0  0
  148.6878  141.1580  153.4302 H   0  0  0  0  0  0  0  0  0  0  0  0
  146.6616  141.5401  155.4168 H   0  0  0  0  0  0  0  0  0  0  0  0
  145.5017  139.3754  153.7020 H   0  0  0  0  0  0  0  0  0  0  0  0
  148.8512  136.9189  154.2967 H   0  0  0  0  0  0  0  0  0  0  0  0
  146.6467  137.3769  152.9587 H   0  0  0  0  0  0  0  0  0  0  0  0
  146.1640  136.7074  154.5097 H   0  0  0  0  0  0  0  0  0  0  0  0
  147.9323  142.3235  156.5042 H   0  0  0  0  0  0  0  0  0  0  0  0
  152.9184  139.4273  159.4238 H   0  0  0  0  0  0  0  0  0  0  0  0
  154.4145  140.2837  159.0608 H   0  0  0  0  0  0  0  0  0  0  0  0
  152.7983  140.4414  161.5307 H   0  0  0  0  0  0  0  0  0  0  0  0
  154.3881  141.1811  161.2200 H   0  0  0  0  0  0  0  0  0  0  0  0
  152.7552  143.2875  162.5062 H   0  0  0  0  0  0  0  0  0  0  0  0
  151.6190  145.3578  161.6766 H   0  0  0  0  0  0  0  0  0  0  0  0
  150.9717  145.5529  159.2823 H   0  0  0  0  0  0  0  0  0  0  0  0
  151.4399  143.6924  157.6940 H   0  0  0  0  0  0  0  0  0  0  0  0
  153.0470  138.6847  155.0625 H   0  0  0  0  0  0  0  0  0  0  0  0
  145.5530  141.1759  153.0283 H   0  0  0  0  0  0  0  0  0  0  0  0
  144.4187  139.7652  155.5221 H   0  0  0  0  0  0  0  0  0  0  0  0
  1  2  1  0  0  0  0
  1 32  1  0  0  0  0
  2  3  1  0  0  0  0
  2 33  1  0  0  0  0
  2 34  1  0  0  0  0
  3 28  1  0  0  0  0
  3 26  1  0  0  0  0
  3  4  1  0  0  0  0
  4  5  1  0  0  0  0
  5 29  1  0  0  0  0
  5  6  1  0  0  0  0
  5 24  1  0  0  0  0
  6 23  1  0  0  0  0
  6  7  1  0  0  0  0
  7  8  2  0  0  0  0
  7 35  1  0  0  0  0
  8  9  1  0  0  0  0
  9 23  2  0  0  0  0
  9 10  1  0  0  0  0
 10 11  1  0  0  0  0
 10 20  2  0  0  0  0
 11 19  1  0  0  0  0
 11 12  1  0  0  0  0
 12 13  1  0  0  0  0
 12 36  1  0  0  0  0
 12 37  1  0  0  0  0
 13 14  1  0  0  0  0
 13 38  1  0  0  0  0
 13 39  1  0  0  0  0
 14 19  2  0  0  0  0
 14 15  1  0  0  0  0
 15 16  2  0  0  0  0
 15 40  1  0  0  0  0
 16 17  1  0  0  0  0
 16 41  1  0  0  0  0
 17 18  2  0  0  0  0
 17 42  1  0  0  0  0
 18 19  1  0  0  0  0
 18 43  1  0  0  0  0
 20 21  1  0  0  0  0
 21 22  2  0  0  0  0
 21 44  1  0  0  0  0
 22 23  1  0  0  0  0
 24 30  1  0  0  0  0
 24 25  1  0  0  0  0
 24 26  1  0  0  0  0
 25 45  1  0  0  0  0
 26 31  1  0  0  0  0
 26 27  1  0  0  0  0
 27 46  1  0  0  0  0
M  END
> <s_m_source_file>
AV-unprocessed.smi

> <i_m_source_file_index>
110

> <i_lp_mmshare_version>
43012

> <i_f3d_flags>
0

> <s_epik_input>
W09IXVtDSDJdW0NASF0xT1tDQEhdKFtDQEhdKFtPSF0pW0NAQEhdMVtPSF0pbihbY0hdbjIpYyhjMjMpbltjSF1uYzNOKFtDSDJdW0NIMl00KWMoYzQ1KVtjSF1bY0hdW2NIXVtjSF01

> <s_epik_cmdline>
J2VwaWtfcHl0aG9uJywgJy1waCcsICc3LjAnLCAnLXRuJywgJzgnLCAnLW1hJywgJzIwMCcsICctbWV0YWxfYmluZGluZycsICctaW1hZScsICc8aW5maWxlLm1hZT4nLCAnLW9tYWUnLCAnPG91dGZpbGUubWFlPic=

> <r_lp_tautomer_probability>
1

> <r_epik_Ionization_Penalty>
0.00068475

> <r_epik_Ionization_Penalty_Charging>
0

> <r_epik_Ionization_Penalty_Neutral>
0.00068475

> <r_epik_State_Penalty>
0.000417442

> <r_epik_Charging_Adjusted_Penalty>
0.000417442

> <i_epik_Tot_Q>
0

> <i_epik_Tot_abs_Q>
0

> <r_epik_Metal_State_Penalty>
-0

> <b_epik_Metal_Only>
0

> <s_epik_Chemistry_Notes>
This compound contains an acetal/aminal-like group ( X-CH(R)-Y where X, Y are N, S, or O) that may be acid/base labile, releasing an aldehyde.

> <s_lp_Force_Field>
OPLS_2005

> <r_lp_Energy>
55.3724

> <b_lp_Chiralities_Consistent>
1

> <s_lp_Variant>
AV-unprocessed.smi:110-7

> <Gold.Version>
5.8.1

> <Gold.Id.Protein>
6NUR|6NUR_protein|mol2

> <Gold.PLP.Fitness>
53.2267

> <Gold.PLP.PLP>
-46.4005

> <Gold.PLP.part.hbond>
-3.9408

> <Gold.PLP.part.metal>
0.0000

> <Gold.PLP.part.buried>
-3.4618

> <Gold.PLP.part.nonpolar>
-38.8294

> <Gold.PLP.part.repulsive>
0.3169

> <Gold.PLP.ligand.clash>
0.0000

> <Gold.PLP.ligand.torsion>
0.9228

> <Gold.PLP.Chemscore.Hbond>
2.5470

> <Gold.PLP.Chemscore.CHOScore>
0.2919

> <Gold.PLP.Chemscore.Metal>
0.0000

> <Gold.Chemscore.Hbonds>
donor molecule, donor type, donor heavy atom, donor atom, acceptor molecule, acceptor atom, score
      L1  H    25    45       P1 10175  0.80
      P1  H  7989  7998       L1    22  0.75
      P1  H  7997  8008       L1    20  0.91
      L1  C     7    35       P1  8028  0.20

> <Gold.PLP.Chemscore.Internal.Correction>
0.1551

> <Gold.Rescore>
     Score         DG    S(hbond)    S(metal)    S(lipo)     H(rot)  DE(clash)    DE(int)     intcor
     11.54     -13.72       1.53        0.00     100.89       3.38       0.03       2.15       ----

> <Gold.Chemscore.Fitness>
11.5379

> <Gold.Chemscore.DG>
-13.7176

> <Gold.Chemscore.ZeroCoef>
-5.4800

> <Gold.Chemscore.Hbond>
1.5255

> <Gold.Chemscore.Metal>
0.0000

> <Gold.Chemscore.Lipo>
100.8949

> <Gold.Chemscore.Internal_Hbond>
0.0000

> <Gold.Chemscore.DEClash>
0.0304

> <Gold.Chemscore.DEInternal>
2.1494

> <Gold.Chemscore.Rot>
3.3837

> <Gold.Chemscore.Internal.Correction>
   9.000000E+99

> <Gold.Chemscore.Hbonds>
donor molecule, donor type, donor heavy atom, donor atom, acceptor molecule, acceptor atom, score
      L1  H    25    45       P1 10175  0.13
      P1  H  7989  7998       L1    22  0.04
      P1  H  7997  8008       L1    20  0.63

> <Gold.Chemscore.Hbond.Weighted>
-5.0951

> <Gold.Chemscore.Metal.Weighted>
-0.0000

> <Gold.Chemscore.Lipo.Weighted>
-11.8047

> <Gold.Chemscore.Internal_Hbond.Weighted>
0.0000

> <Gold.Chemscore.DEClash.Weighted>
0.0304

> <Gold.Chemscore.DEInternal.Weighted>
2.1494

> <Gold.Chemscore.Rot.Weighted>
8.6622

> <Gold.Chemscore.Internal.Correction.Weighted>
   9.000000E+99

> <Gold.Protein.RotatedTorsions>
[ 6907 6896 6895 6894 ] final  -70.42 input  -60.11 | X-H torsion
[ 7974 7965 7964 7962 ] final  135.81 input  175.53 | X-H torsion
[ 8008 7997 7996 7995 ] final  -57.14 input   59.86 | X-H torsion
[ 10167 10162 10161 10158 ] final  122.22 input  -65.29 | X-H torsion
[ 10718 10713 10712 10709 ] final   97.14 input   66.30 | X-H torsion
[ 10763 10752 10751 10750 ] final   -7.06 input  -60.55 | X-H torsion
[ 11005 11000 10999 10996 ] final -143.40 input  -57.11 | X-H torsion

> <Gold.Protein.ActiveResidues>
 VAL166  LYS551  ARG553  GLY616  TRP617  ASP618  TYR619  PRO620  LYS621  CYS622 
 ASP623  PHE694  ASN695  SER759  ASP760  ASP761  ALA762  ILE779  LEU786  VAL792 
 PHE793  MET794  SER795  GLU796  ALA797  LYS798  CYS799  TRP800  GLU811  SER814 

> <Gold.Protein.RotatedAtoms>
  150.7258  134.5456  159.5768 H   0  0  0  0  0  0  0  0  0  0  0  0  # atno 6907 bound_to 6896
  152.2956  134.7668  160.0378 H   0  0  0  0  0  0  0  0  0  0  0  0  # atno 6908 bound_to 6896
  151.8267  133.3367  159.3637 H   0  0  0  0  0  0  0  0  0  0  0  0  # atno 6909 bound_to 6896
  144.9626  139.4693  143.5472 H   0  0  0  0  0  0  0  0  0  0  0  0  # atno 7974 bound_to 7965
  154.4256  140.1113  156.5750 H   0  0  0  0  0  0  0  0  0  0  0  0  # atno 8008 bound_to 7997
  155.6172  140.3495  155.4622 H   0  0  0  0  0  0  0  0  0  0  0  0  # atno 8009 bound_to 7997
  156.0052  140.1207  157.0497 H   0  0  0  0  0  0  0  0  0  0  0  0  # atno 8010 bound_to 7997
  139.5871  144.7011  151.3381 H   0  0  0  0  0  0  0  0  0  0  0  0  # atno 10167 bound_to 10162
  157.6917  131.0600  150.4599 H   0  0  0  0  0  0  0  0  0  0  0  0  # atno 10718 bound_to 10713
  153.4211  135.7010  153.6294 H   0  0  0  0  0  0  0  0  0  0  0  0  # atno 10763 bound_to 10752
  153.4748  135.3707  155.2410 H   0  0  0  0  0  0  0  0  0  0  0  0  # atno 10764 bound_to 10752
  154.8722  135.4051  154.3579 H   0  0  0  0  0  0  0  0  0  0  0  0  # atno 10765 bound_to 10752
  140.8129  134.2723  157.4933 H   0  0  0  0  0  0  0  0  0  0  0  0  # atno 11005 bound_to 11000
  146.3358  139.8786  142.8828 LP  0  0  0  0  0  0  0  0  0  0  0  0  # atno 17320 bound_to 7965
  145.2677  141.0098  143.3790 LP  0  0  0  0  0  0  0  0  0  0  0  0  # atno 17321 bound_to 7965
  140.7141  143.7312  150.7622 LP  0  0  0  0  0  0  0  0  0  0  0  0  # atno 17342 bound_to 10162
  140.0859  143.4923  152.2505 LP  0  0  0  0  0  0  0  0  0  0  0  0  # atno 17343 bound_to 10162
  156.4944  130.4102  149.6388 LP  0  0  0  0  0  0  0  0  0  0  0  0  # atno 17370 bound_to 10713
  156.3387  130.7370  151.2312 LP  0  0  0  0  0  0  0  0  0  0  0  0  # atno 17371 bound_to 10713
  139.8713  134.9493  156.4022 LP  0  0  0  0  0  0  0  0  0  0  0  0  # atno 17394 bound_to 11000
  140.9179  133.7666  155.9870 LP  0  0  0  0  0  0  0  0  0  0  0  0  # atno 17395 bound_to 11000

$$$$
