AV-unprocessed.smi:1774|AV-procd|sdf|7165|dock8
  -GOLD-   22720 8403D 1   1.00000     0.00000
 Structure written by MMmdl.
 45 46  0  0  0  0  0  0  0  0  1 V2000
  147.5607  133.0233  152.4476 C   0  0  0  0  0  0  0  0  0  0  0  0
  146.3128  133.1531  151.5894 C   0  0  0  0  0  0  0  0  0  0  0  0
  145.6904  131.9869  151.0955 C   0  0  0  0  0  0  0  0  0  0  0  0
  144.5363  132.1079  150.3030 C   0  0  0  0  0  0  0  0  0  0  0  0
  144.0501  133.3992  150.0362 C   0  0  0  0  0  0  0  0  0  0  0  0
  144.6384  134.5191  150.5033 N   0  0  0  0  0  0  0  0  0  0  0  0
  145.7539  134.4197  151.2697 C   0  0  0  0  0  0  0  0  0  0  0  0
  146.4250  135.5574  151.8005 N   0  0  0  0  0  0  0  0  0  0  0  0
  145.9000  136.6122  152.4487 C   0  0  0  0  0  0  0  0  0  0  0  0
  144.7006  136.7928  152.6616 O   0  0  0  0  0  0  0  0  0  0  0  0
  146.8599  137.4600  152.8476 N   0  0  0  0  0  0  0  0  0  0  0  0
  146.6438  138.6743  153.6286 C   0  0  0  0  0  0  0  0  0  0  0  0
  147.7715  139.7002  153.3999 C   0  0  0  0  0  0  0  0  0  0  0  0
  148.8919  139.6190  154.3361 N   0  0  0  0  0  0  0  0  0  0  0  0
  149.3456  140.9295  154.7901 C   0  0  0  0  0  0  0  0  0  0  0  0
  150.4872  140.8121  155.8154 C   0  0  2  0  0  0  0  0  0  0  0  0
  151.0280  142.1824  156.2356 C   0  0  0  0  0  0  0  0  0  0  0  0
  151.5613  140.0644  155.2466 O   0  0  0  0  0  0  0  0  0  0  0  0
  151.2052  138.7778  154.7372 C   0  0  1  0  0  0  0  0  0  0  0  0
  150.9531  137.7661  155.8685 C   0  0  0  0  0  0  0  0  0  0  0  0
  150.0215  138.9019  153.7571 C   0  0  0  0  0  0  0  0  0  0  0  0
  147.8370  131.9784  152.5917 H   0  0  0  0  0  0  0  0  0  0  0  0
  147.3957  133.4644  153.4310 H   0  0  0  0  0  0  0  0  0  0  0  0
  148.4027  133.5310  151.9763 H   0  0  0  0  0  0  0  0  0  0  0  0
  146.0899  131.0087  151.3201 H   0  0  0  0  0  0  0  0  0  0  0  0
  144.0371  131.2345  149.9105 H   0  0  0  0  0  0  0  0  0  0  0  0
  143.1653  133.5377  149.4325 H   0  0  0  0  0  0  0  0  0  0  0  0
  147.4282  135.5559  151.6911 H   0  0  0  0  0  0  0  0  0  0  0  0
  147.8173  137.2310  152.6243 H   0  0  0  0  0  0  0  0  0  0  0  0
  145.7008  139.1083  153.2962 H   0  0  0  0  0  0  0  0  0  0  0  0
  146.5064  138.4484  154.6864 H   0  0  0  0  0  0  0  0  0  0  0  0
  148.1444  139.5580  152.3845 H   0  0  0  0  0  0  0  0  0  0  0  0
  147.3523  140.7070  153.4221 H   0  0  0  0  0  0  0  0  0  0  0  0
  149.6784  141.5214  153.9357 H   0  0  0  0  0  0  0  0  0  0  0  0
  148.5243  141.4798  155.2471 H   0  0  0  0  0  0  0  0  0  0  0  0
  150.1219  140.3010  156.7067 H   0  0  0  0  0  0  0  0  0  0  0  0
  150.2446  142.7899  156.6892 H   0  0  0  0  0  0  0  0  0  0  0  0
  151.4246  142.7300  155.3801 H   0  0  0  0  0  0  0  0  0  0  0  0
  151.8310  142.0765  156.9656 H   0  0  0  0  0  0  0  0  0  0  0  0
  152.0692  138.4204  154.1766 H   0  0  0  0  0  0  0  0  0  0  0  0
  150.7917  136.7665  155.4646 H   0  0  0  0  0  0  0  0  0  0  0  0
  150.0747  138.0222  156.4607 H   0  0  0  0  0  0  0  0  0  0  0  0
  151.8083  137.7161  156.5427 H   0  0  0  0  0  0  0  0  0  0  0  0
  149.7093  137.9070  153.4373 H   0  0  0  0  0  0  0  0  0  0  0  0
  150.3582  139.4213  152.8583 H   0  0  0  0  0  0  0  0  0  0  0  0
  1  2  1  0  0  0  0
  1 22  1  0  0  0  0
  1 23  1  0  0  0  0
  1 24  1  0  0  0  0
  2  7  1  0  0  0  0
  2  3  2  0  0  0  0
  3  4  1  0  0  0  0
  3 25  1  0  0  0  0
  4  5  2  0  0  0  0
  4 26  1  0  0  0  0
  5  6  1  0  0  0  0
  5 27  1  0  0  0  0
  6  7  2  0  0  0  0
  7  8  1  0  0  0  0
  8  9  1  0  0  0  0
  8 28  1  0  0  0  0
  9 10  2  0  0  0  0
  9 11  1  0  0  0  0
 11 12  1  0  0  0  0
 11 29  1  0  0  0  0
 12 13  1  0  0  0  0
 12 30  1  0  0  0  0
 12 31  1  0  0  0  0
 13 14  1  0  0  0  0
 13 32  1  0  0  0  0
 13 33  1  0  0  0  0
 14 21  1  0  0  0  0
 14 15  1  0  0  0  0
 15 16  1  0  0  0  0
 15 34  1  0  0  0  0
 15 35  1  0  0  0  0
 16 17  1  0  0  0  0
 16 18  1  0  0  0  0
 16 36  1  0  0  0  0
 17 37  1  0  0  0  0
 17 38  1  0  0  0  0
 17 39  1  0  0  0  0
 18 19  1  0  0  0  0
 19 20  1  0  0  0  0
 19 21  1  0  0  0  0
 19 40  1  0  0  0  0
 20 41  1  0  0  0  0
 20 42  1  0  0  0  0
 20 43  1  0  0  0  0
 21 44  1  0  0  0  0
 21 45  1  0  0  0  0
M  END
> <s_m_source_file>
AV-unprocessed.smi

> <i_m_source_file_index>
1774

> <i_lp_mmshare_version>
43012

> <i_f3d_flags>
0

> <s_epik_input>
W0NIM11jMVtjSF1bY0hdW2NIXW5jMVtOSF1DKD1PKVtOSF1bQ0gyXVtDSDJdTjJbQ0gyXVtDQEBIXShbQ0gzXSlPW0NAQEhdKFtDSDNdKVtDSDJdMg==

> <s_epik_cmdline>
J2VwaWtfcHl0aG9uJywgJy1waCcsICc3LjAnLCAnLXRuJywgJzgnLCAnLW1hJywgJzIwMCcsICctbWV0YWxfYmluZGluZycsICctaW1hZScsICc8aW5maWxlLm1hZT4nLCAnLW9tYWUnLCAnPG91dGZpbGUubWFlPic=

> <r_epik_Ionization_Penalty>
0.266047

> <r_epik_Ionization_Penalty_Charging>
0

> <r_epik_Ionization_Penalty_Neutral>
0.266047

> <r_epik_State_Penalty>
0.257924

> <r_epik_Charging_Adjusted_Penalty>
0.257924

> <i_epik_Tot_Q>
0

> <i_epik_Tot_abs_Q>
0

> <r_epik_Metal_State_Penalty>
0.257922

> <b_epik_Metal_Only>
0

> <s_lp_Force_Field>
OPLS_2005

> <r_lp_Energy>
29.5878

> <b_lp_Chiralities_Consistent>
1

> <s_lp_Variant>
AV-unprocessed.smi:1774-2

> <Gold.Version>
5.8.1

> <Gold.Id.Protein>
6NUR|6NUR_protein|mol2

> <Gold.PLP.Fitness>
44.0690

> <Gold.PLP.PLP>
-35.7016

> <Gold.PLP.part.hbond>
-3.0000

> <Gold.PLP.part.metal>
0.0000

> <Gold.PLP.part.buried>
-3.4404

> <Gold.PLP.part.nonpolar>
-29.4969

> <Gold.PLP.part.repulsive>
0.5700

> <Gold.PLP.ligand.clash>
0.0000

> <Gold.PLP.ligand.torsion>
1.3752

> <Gold.PLP.Chemscore.Hbond>
2.7000

> <Gold.PLP.Chemscore.CHOScore>
1.0000

> <Gold.PLP.Chemscore.Metal>
0.0000

> <Gold.Chemscore.Hbonds>
donor molecule, donor type, donor heavy atom, donor atom, acceptor molecule, acceptor atom, score
      L1  H     8    28       P1  7948  1.00
      L1  H    11    29       P1  7948  1.00
      P1  H  7989  7998       L1    18  0.70
      L1  C     5    27       P1 10186  1.00

> <Gold.PLP.Chemscore.Internal.Correction>
0.0177

> <Gold.Rescore>
     Score         DG    S(hbond)    S(metal)    S(lipo)     H(rot)  DE(clash)    DE(int)     intcor
     17.64     -19.13       1.96        0.00      92.64       1.46       0.14       1.35       ----

> <Gold.Chemscore.Fitness>
17.6405

> <Gold.Chemscore.DG>
-19.1274

> <Gold.Chemscore.ZeroCoef>
-5.4800

> <Gold.Chemscore.Hbond>
1.9569

> <Gold.Chemscore.Metal>
0.0000

> <Gold.Chemscore.Lipo>
92.6430

> <Gold.Chemscore.Internal_Hbond>
0.0000

> <Gold.Chemscore.DEClash>
0.1408

> <Gold.Chemscore.DEInternal>
1.3461

> <Gold.Chemscore.Rot>
1.4562

> <Gold.Chemscore.Internal.Correction>
   9.000000E+99

> <Gold.Chemscore.Hbonds>
donor molecule, donor type, donor heavy atom, donor atom, acceptor molecule, acceptor atom, score
      L1  H     8    28       P1  7948  0.97
      L1  H    11    29       P1  7948  0.95
      P1  H  7989  7998       L1    18  0.02

> <Gold.Chemscore.Hbond.Weighted>
-6.5360

> <Gold.Chemscore.Metal.Weighted>
-0.0000

> <Gold.Chemscore.Lipo.Weighted>
-10.8392

> <Gold.Chemscore.Internal_Hbond.Weighted>
0.0000

> <Gold.Chemscore.DEClash.Weighted>
0.1408

> <Gold.Chemscore.DEInternal.Weighted>
1.3461

> <Gold.Chemscore.Rot.Weighted>
3.7278

> <Gold.Chemscore.Internal.Correction.Weighted>
   9.000000E+99

> <Gold.Protein.RotatedTorsions>
[ 6907 6896 6895 6894 ] final  -56.16 input  -60.11 | X-H torsion
[ 7974 7965 7964 7962 ] final  166.21 input  175.53 | X-H torsion
[ 8008 7997 7996 7995 ] final   50.83 input   59.86 | X-H torsion
[ 10167 10162 10161 10158 ] final  170.02 input  -65.29 | X-H torsion
[ 10718 10713 10712 10709 ] final -155.51 input   66.30 | X-H torsion
[ 10763 10752 10751 10750 ] final -128.16 input  -60.55 | X-H torsion
[ 11005 11000 10999 10996 ] final  -80.75 input  -57.11 | X-H torsion

> <Gold.Protein.ActiveResidues>
 VAL166  LYS551  ARG553  GLY616  TRP617  ASP618  TYR619  PRO620  LYS621  CYS622 
 ASP623  PHE694  ASN695  SER759  ASP760  ASP761  ALA762  ILE779  LEU786  VAL792 
 PHE793  MET794  SER795  GLU796  ALA797  LYS798  CYS799  TRP800  GLU811  SER814 

> <Gold.Protein.RotatedAtoms>
  150.8191  134.7389  159.6755 H   0  0  0  0  0  0  0  0  0  0  0  0  # atno 6907 bound_to 6896
  152.4308  134.5778  159.9949 H   0  0  0  0  0  0  0  0  0  0  0  0  # atno 6908 bound_to 6896
  151.5967  133.3323  159.3075 H   0  0  0  0  0  0  0  0  0  0  0  0  # atno 6909 bound_to 6896
  144.7471  139.8583  143.6378 H   0  0  0  0  0  0  0  0  0  0  0  0  # atno 7974 bound_to 7965
  155.4253  140.3448  155.4275 H   0  0  0  0  0  0  0  0  0  0  0  0  # atno 8008 bound_to 7997
  156.1369  140.1530  156.9012 H   0  0  0  0  0  0  0  0  0  0  0  0  # atno 8009 bound_to 7997
  154.4939  140.0833  156.7634 H   0  0  0  0  0  0  0  0  0  0  0  0  # atno 8010 bound_to 7997
  139.5007  144.3642  151.9793 H   0  0  0  0  0  0  0  0  0  0  0  0  # atno 10167 bound_to 10162
  156.5138  130.8447  151.2656 H   0  0  0  0  0  0  0  0  0  0  0  0  # atno 10718 bound_to 10713
  154.8755  135.3938  154.3711 H   0  0  0  0  0  0  0  0  0  0  0  0  # atno 10763 bound_to 10752
  153.4471  135.7027  153.6137 H   0  0  0  0  0  0  0  0  0  0  0  0  # atno 10764 bound_to 10752
  153.4693  135.3794  155.2351 H   0  0  0  0  0  0  0  0  0  0  0  0  # atno 10765 bound_to 10752
  141.1667  133.7164  156.8319 H   0  0  0  0  0  0  0  0  0  0  0  0  # atno 11005 bound_to 11000
  146.1367  139.4414  143.0135 LP  0  0  0  0  0  0  0  0  0  0  0  0  # atno 17320 bound_to 7965
  145.7081  141.0115  143.1468 LP  0  0  0  0  0  0  0  0  0  0  0  0  # atno 17321 bound_to 7965
  140.3078  144.3572  150.6042 LP  0  0  0  0  0  0  0  0  0  0  0  0  # atno 17342 bound_to 10162
  140.5822  143.2172  151.7407 LP  0  0  0  0  0  0  0  0  0  0  0  0  # atno 17343 bound_to 10162
  157.7447  130.9940  150.2693 LP  0  0  0  0  0  0  0  0  0  0  0  0  # atno 17370 bound_to 10713
  156.3214  130.3786  149.7571 LP  0  0  0  0  0  0  0  0  0  0  0  0  # atno 17371 bound_to 10713
  140.2045  134.8873  157.3206 LP  0  0  0  0  0  0  0  0  0  0  0  0  # atno 17394 bound_to 11000
  140.2152  134.4090  155.7592 LP  0  0  0  0  0  0  0  0  0  0  0  0  # atno 17395 bound_to 11000

$$$$
