AV-unprocessed.smi:3241|AV-procd|sdf|12387|dock9
  -GOLD-   2272018253D 1   1.00000     0.00000
 Structure written by MMmdl.
 44 45  0  0  0  0  0  0  0  0  2 V2000
  154.2299  140.4828  160.7699 C   0  0  0  0  0  0  0  0  0  0  0  0
  153.7990  141.9552  160.8644 C   0  0  2  0  0  0  0  0  0  0  0  0
  153.1450  142.2765  162.2231 C   0  0  0  0  0  0  0  0  0  0  0  0
  152.7459  143.7578  162.3190 C   0  0  0  0  0  0  0  0  0  0  0  0
  151.8267  144.1650  161.1573 C   0  0  0  0  0  0  0  0  0  0  0  0
  152.4717  143.8478  159.7978 C   0  0  0  0  0  0  0  0  0  0  0  0
  152.8804  142.3641  159.6918 C   0  0  2  0  0  0  0  0  0  0  0  0
  151.7202  141.5407  159.7197 O   0  0  0  0  0  0  0  0  0  0  0  0
  151.1705  141.2553  158.4432 C   0  0  0  0  0  0  0  0  0  0  0  0
  150.3960  142.4867  157.9644 C   0  0  0  0  0  0  0  0  0  0  0  0
  150.2086  142.4491  156.5012 N   0  3  0  0  0  0  0  0  0  0  0  0
  149.2323  141.4437  156.0367 C   0  0  0  0  0  0  0  0  0  0  0  0
  148.7392  141.7494  154.6130 C   0  0  0  0  0  0  0  0  0  0  0  0
  148.1554  140.5872  153.9670 N   0  0  0  0  0  0  0  0  0  0  0  0
  146.9800  140.5034  153.2508 C   0  0  0  0  0  0  0  0  0  0  0  0
  146.8506  139.2095  152.8339 C   0  0  0  0  0  0  0  0  0  0  0  0
  148.0106  138.5686  153.3517 C   0  0  0  0  0  0  0  0  0  0  0  0
  148.7915  139.3967  154.0267 N   0  0  0  0  0  0  0  0  0  0  0  0
  153.3770  139.8088  160.8564 H   0  0  0  0  0  0  0  0  0  0  0  0
  154.9335  140.2293  161.5632 H   0  0  0  0  0  0  0  0  0  0  0  0
  154.7201  140.2780  159.8179 H   0  0  0  0  0  0  0  0  0  0  0  0
  154.7070  142.5557  160.7908 H   0  0  0  0  0  0  0  0  0  0  0  0
  152.2634  141.6507  162.3689 H   0  0  0  0  0  0  0  0  0  0  0  0
  153.8319  142.0321  163.0342 H   0  0  0  0  0  0  0  0  0  0  0  0
  152.2490  143.9477  163.2706 H   0  0  0  0  0  0  0  0  0  0  0  0
  153.6427  144.3783  162.3095 H   0  0  0  0  0  0  0  0  0  0  0  0
  150.8742  143.6405  161.2436 H   0  0  0  0  0  0  0  0  0  0  0  0
  151.5985  145.2294  161.2208 H   0  0  0  0  0  0  0  0  0  0  0  0
  151.7908  144.1186  158.9912 H   0  0  0  0  0  0  0  0  0  0  0  0
  153.3560  144.4729  159.6681 H   0  0  0  0  0  0  0  0  0  0  0  0
  153.4292  142.2072  158.7611 H   0  0  0  0  0  0  0  0  0  0  0  0
  151.9628  141.0162  157.7333 H   0  0  0  0  0  0  0  0  0  0  0  0
  150.5056  140.3919  158.4987 H   0  0  0  0  0  0  0  0  0  0  0  0
  149.4245  142.5375  158.4577 H   0  0  0  0  0  0  0  0  0  0  0  0
  150.9440  143.3907  158.2330 H   0  0  0  0  0  0  0  0  0  0  0  0
  149.9007  143.3590  156.1882 H   0  0  0  0  0  0  0  0  0  0  0  0
  149.7029  140.4598  156.0525 H   0  0  0  0  0  0  0  0  0  0  0  0
  148.3901  141.4070  156.7289 H   0  0  0  0  0  0  0  0  0  0  0  0
  148.0059  142.5573  154.6254 H   0  0  0  0  0  0  0  0  0  0  0  0
  149.5722  142.0959  154.0003 H   0  0  0  0  0  0  0  0  0  0  0  0
  146.3408  141.3605  153.0985 H   0  0  0  0  0  0  0  0  0  0  0  0
  146.0483  138.7841  152.2491 H   0  0  0  0  0  0  0  0  0  0  0  0
  148.3072  137.5344  153.2568 H   0  0  0  0  0  0  0  0  0  0  0  0
  151.1023  142.2515  156.0734 H   0  0  0  0  0  0  0  0  0  0  0  0
  1  2  1  0  0  0  0
  1 19  1  0  0  0  0
  1 20  1  0  0  0  0
  1 21  1  0  0  0  0
  2  7  1  0  0  0  0
  2  3  1  0  0  0  0
  2 22  1  0  0  0  0
  3  4  1  0  0  0  0
  3 23  1  0  0  0  0
  3 24  1  0  0  0  0
  4  5  1  0  0  0  0
  4 25  1  0  0  0  0
  4 26  1  0  0  0  0
  5  6  1  0  0  0  0
  5 27  1  0  0  0  0
  5 28  1  0  0  0  0
  6  7  1  0  0  0  0
  6 29  1  0  0  0  0
  6 30  1  0  0  0  0
  7  8  1  0  0  0  0
  7 31  1  0  0  0  0
  8  9  1  0  0  0  0
  9 10  1  0  0  0  0
  9 32  1  0  0  0  0
  9 33  1  0  0  0  0
 10 11  1  0  0  0  0
 10 34  1  0  0  0  0
 10 35  1  0  0  0  0
 11 12  1  0  0  0  0
 11 36  1  0  0  0  0
 11 44  1  0  0  0  0
 12 13  1  0  0  0  0
 12 37  1  0  0  0  0
 12 38  1  0  0  0  0
 13 14  1  0  0  0  0
 13 39  1  0  0  0  0
 13 40  1  0  0  0  0
 14 18  1  0  0  0  0
 14 15  1  0  0  0  0
 15 16  2  0  0  0  0
 15 41  1  0  0  0  0
 16 17  1  0  0  0  0
 16 42  1  0  0  0  0
 17 18  2  0  0  0  0
 17 43  1  0  0  0  0
M  CHG  1  11   1
M  END
> <s_m_source_file>
AV-unprocessed.smi

> <i_m_source_file_index>
3241

> <i_lp_mmshare_version>
43012

> <i_f3d_flags>
0

> <s_epik_input>
W0NIM11bQ0BASF0xW0NIMl1bQ0gyXVtDSDJdW0NIMl1bQ0BIXTFPW0NIMl1bQ0gyXVtOSF1bQ0gyXVtDSDJdbjJbY0hdW2NIXVtjSF1uMg==

> <s_epik_cmdline>
J2VwaWtfcHl0aG9uJywgJy1waCcsICc3LjAnLCAnLXRuJywgJzgnLCAnLW1hJywgJzIwMCcsICctbWV0YWxfYmluZGluZycsICctaW1hZScsICc8aW5maWxlLm1hZT4nLCAnLW9tYWUnLCAnPG91dGZpbGUubWFlPic=

> <r_lp_tautomer_probability>
1

> <r_epik_Ionization_Penalty>
0.00924946

> <r_epik_Ionization_Penalty_Charging>
0.00924645

> <r_epik_Ionization_Penalty_Neutral>
3.00629e-06

> <r_epik_State_Penalty>
0.0070118

> <r_epik_Charging_Adjusted_Penalty>
0.0162583

> <i_epik_Tot_Q>
1

> <i_epik_Tot_abs_Q>
1

> <r_epik_Metal_State_Penalty>
0.00702523

> <b_epik_Metal_Only>
0

> <s_lp_Force_Field>
OPLS_2005

> <r_lp_Energy>
14.6648

> <b_lp_Chiralities_Consistent>
1

> <s_lp_Variant>
AV-unprocessed.smi:3241-3

> <Gold.Version>
5.8.1

> <Gold.Id.Protein>
6NUR|6NUR_protein|mol2

> <Gold.PLP.Fitness>
50.2635

> <Gold.PLP.PLP>
-43.0185

> <Gold.PLP.part.hbond>
-1.5060

> <Gold.PLP.part.metal>
0.0000

> <Gold.PLP.part.buried>
-1.3921

> <Gold.PLP.part.nonpolar>
-39.8596

> <Gold.PLP.part.repulsive>
0.2436

> <Gold.PLP.ligand.clash>
0.0000

> <Gold.PLP.ligand.torsion>
0.9505

> <Gold.PLP.Chemscore.Hbond>
2.0000

> <Gold.PLP.Chemscore.CHOScore>
1.0312

> <Gold.PLP.Chemscore.Metal>
0.0000

> <Gold.Chemscore.Hbonds>
donor molecule, donor type, donor heavy atom, donor atom, acceptor molecule, acceptor atom, score
      L1  H    11    36       P1  8028  2.00
      L1  C    15    41       P1 10175  0.10
      L1  C    17    43       P1  7948  0.94

> <Gold.PLP.Chemscore.Internal.Correction>
0.0523

> <Gold.Rescore>
     Score         DG    S(hbond)    S(metal)    S(lipo)     H(rot)  DE(clash)    DE(int)     intcor
     17.36     -18.40       0.96        0.00     124.38       1.89       0.07       0.97       ----

> <Gold.Chemscore.Fitness>
17.3621

> <Gold.Chemscore.DG>
-18.4044

> <Gold.Chemscore.ZeroCoef>
-5.4800

> <Gold.Chemscore.Hbond>
0.9618

> <Gold.Chemscore.Metal>
0.0000

> <Gold.Chemscore.Lipo>
124.3768

> <Gold.Chemscore.Internal_Hbond>
0.0000

> <Gold.Chemscore.DEClash>
0.0678

> <Gold.Chemscore.DEInternal>
0.9745

> <Gold.Chemscore.Rot>
1.8906

> <Gold.Chemscore.Internal.Correction>
   9.000000E+99

> <Gold.Chemscore.Hbonds>
donor molecule, donor type, donor heavy atom, donor atom, acceptor molecule, acceptor atom, score
      L1  H    11    36       P1  8028  1.00

> <Gold.Chemscore.Hbond.Weighted>
-3.2124

> <Gold.Chemscore.Metal.Weighted>
-0.0000

> <Gold.Chemscore.Lipo.Weighted>
-14.5521

> <Gold.Chemscore.Internal_Hbond.Weighted>
0.0000

> <Gold.Chemscore.DEClash.Weighted>
0.0678

> <Gold.Chemscore.DEInternal.Weighted>
0.9745

> <Gold.Chemscore.Rot.Weighted>
4.8400

> <Gold.Chemscore.Internal.Correction.Weighted>
   9.000000E+99

> <Gold.Protein.RotatedTorsions>
[ 6907 6896 6895 6894 ] final -125.36 input  -60.11 | X-H torsion
[ 7974 7965 7964 7962 ] final  118.98 input  175.53 | X-H torsion
[ 8008 7997 7996 7995 ] final -114.64 input   59.86 | X-H torsion
[ 10167 10162 10161 10158 ] final   21.98 input  -65.29 | X-H torsion
[ 10718 10713 10712 10709 ] final   72.29 input   66.30 | X-H torsion
[ 10763 10752 10751 10750 ] final -137.07 input  -60.55 | X-H torsion
[ 11005 11000 10999 10996 ] final   66.96 input  -57.11 | X-H torsion

> <Gold.Protein.ActiveResidues>
 VAL166  LYS551  ARG553  GLY616  TRP617  ASP618  TYR619  PRO620  LYS621  CYS622 
 ASP623  PHE694  ASN695  SER759  ASP760  ASP761  ALA762  ILE779  LEU786  VAL792 
 PHE793  MET794  SER795  GLU796  ALA797  LYS798  CYS799  TRP800  GLU811  SER814 

> <Gold.Protein.RotatedAtoms>
  150.8860  133.7307  159.2918 H   0  0  0  0  0  0  0  0  0  0  0  0  # atno 6907 bound_to 6896
  151.4873  135.1054  159.9803 H   0  0  0  0  0  0  0  0  0  0  0  0  # atno 6908 bound_to 6896
  152.4790  133.8162  159.7085 H   0  0  0  0  0  0  0  0  0  0  0  0  # atno 6909 bound_to 6896
  145.1486  139.3224  143.4578 H   0  0  0  0  0  0  0  0  0  0  0  0  # atno 7974 bound_to 7965
  155.0395  140.0392  157.2504 H   0  0  0  0  0  0  0  0  0  0  0  0  # atno 8008 bound_to 7997
  154.7228  140.2715  155.6502 H   0  0  0  0  0  0  0  0  0  0  0  0  # atno 8009 bound_to 7997
  156.2821  140.2699  156.1905 H   0  0  0  0  0  0  0  0  0  0  0  0  # atno 8010 bound_to 7997
  140.5384  143.9719  150.6505 H   0  0  0  0  0  0  0  0  0  0  0  0  # atno 10167 bound_to 10162
  157.6493  130.9571  150.0907 H   0  0  0  0  0  0  0  0  0  0  0  0  # atno 10718 bound_to 10713
  154.8670  135.3653  154.5164 H   0  0  0  0  0  0  0  0  0  0  0  0  # atno 10763 bound_to 10752
  153.5796  135.7018  153.5474 H   0  0  0  0  0  0  0  0  0  0  0  0  # atno 10764 bound_to 10752
  153.3469  135.4083  155.1578 H   0  0  0  0  0  0  0  0  0  0  0  0  # atno 10765 bound_to 10752
  139.9800  134.6760  156.0281 H   0  0  0  0  0  0  0  0  0  0  0  0  # atno 11005 bound_to 11000
  146.3497  140.1551  142.8591 LP  0  0  0  0  0  0  0  0  0  0  0  0  # atno 17320 bound_to 7965
  145.0455  140.8978  143.5027 LP  0  0  0  0  0  0  0  0  0  0  0  0  # atno 17321 bound_to 7965
  140.3113  143.3196  152.0876 LP  0  0  0  0  0  0  0  0  0  0  0  0  # atno 17342 bound_to 10162
  139.4979  144.6634  151.6412 LP  0  0  0  0  0  0  0  0  0  0  0  0  # atno 17343 bound_to 10162
  156.1857  130.3652  149.8976 LP  0  0  0  0  0  0  0  0  0  0  0  0  # atno 17370 bound_to 10713
  156.6917  130.8898  151.3589 LP  0  0  0  0  0  0  0  0  0  0  0  0  # atno 17371 bound_to 10713
  141.1473  133.6554  156.3906 LP  0  0  0  0  0  0  0  0  0  0  0  0  # atno 17394 bound_to 11000
  140.5116  134.6389  157.5286 LP  0  0  0  0  0  0  0  0  0  0  0  0  # atno 17395 bound_to 11000

$$$$
