AV-unprocessed.smi:8|AV-procd|sdf|47|dock1
  -GOLD-   2262015163D 1   1.00000     0.00000
 Structure written by MMmdl.
 33 34  0  0  0  0  0  0  0  0  2 V2000
  150.2650  138.2761  154.5152 C   0  0  0  0  0  0  0  0  0  0  0  0
  151.1228  137.2467  155.2643 C   0  0  0  0  0  0  0  0  0  0  0  0
  150.2938  136.1968  155.8706 N   0  0  0  0  0  0  0  0  0  0  0  0
  149.2131  135.7094  155.1180 C   0  0  0  0  0  0  0  0  0  0  0  0
  148.3799  134.7545  155.5797 C   0  0  0  0  0  0  0  0  0  0  0  0
  147.2112  134.2324  154.7544 C   0  0  0  0  0  0  0  0  0  0  0  0
  147.1137  134.8453  153.4340 N   0  0  0  0  0  0  0  0  0  0  0  0
  146.3480  134.1979  152.4523 C   0  0  0  0  0  0  0  0  0  0  0  0
  146.8100  133.0415  151.9189 N   0  0  0  0  0  0  0  0  0  0  0  0
  146.0592  132.4548  150.9845 C   0  0  0  0  0  0  0  0  0  0  0  0
  144.8862  132.8855  150.5164 N   0  0  0  0  0  0  0  0  0  0  0  0
  144.4111  134.0356  151.0395 C   0  0  0  0  0  0  0  0  0  0  0  0
  145.1140  134.7498  152.0333 C   0  0  0  0  0  0  0  0  0  0  0  0
  144.5681  136.0471  152.6007 C   0  0  0  0  0  0  0  0  0  0  0  0
  148.6556  134.2095  156.9137 C   0  0  0  0  0  0  0  0  0  0  0  0
  147.9306  133.3293  157.3773 O   0  0  0  0  0  0  0  0  0  0  0  0
  149.7241  134.7091  157.6003 N   0  5  0  0  0  0  0  0  0  0  0  0
  150.5479  135.6851  157.1105 C   0  0  0  0  0  0  0  0  0  0  0  0
  151.5097  136.1154  157.7476 O   0  0  0  0  0  0  0  0  0  0  0  0
  150.8893  139.0568  154.0806 H   0  0  0  0  0  0  0  0  0  0  0  0
  149.5497  138.7555  155.1842 H   0  0  0  0  0  0  0  0  0  0  0  0
  149.7049  137.8096  153.7043 H   0  0  0  0  0  0  0  0  0  0  0  0
  151.8605  136.8137  154.5868 H   0  0  0  0  0  0  0  0  0  0  0  0
  151.7077  137.7521  156.0342 H   0  0  0  0  0  0  0  0  0  0  0  0
  149.0981  136.1633  154.1445 H   0  0  0  0  0  0  0  0  0  0  0  0
  147.2718  133.1474  154.6626 H   0  0  0  0  0  0  0  0  0  0  0  0
  146.2869  134.4370  155.2952 H   0  0  0  0  0  0  0  0  0  0  0  0
  147.9606  135.2849  153.1025 H   0  0  0  0  0  0  0  0  0  0  0  0
  146.4395  131.5350  150.5655 H   0  0  0  0  0  0  0  0  0  0  0  0
  143.4635  134.3877  150.6592 H   0  0  0  0  0  0  0  0  0  0  0  0
  143.6247  136.3188  152.1262 H   0  0  0  0  0  0  0  0  0  0  0  0
  145.2762  136.8605  152.4377 H   0  0  0  0  0  0  0  0  0  0  0  0
  144.3940  135.9494  153.6725 H   0  0  0  0  0  0  0  0  0  0  0  0
  1  2  1  0  0  0  0
  1 20  1  0  0  0  0
  1 21  1  0  0  0  0
  1 22  1  0  0  0  0
  2  3  1  0  0  0  0
  2 23  1  0  0  0  0
  2 24  1  0  0  0  0
  3 18  1  0  0  0  0
  3  4  1  0  0  0  0
  4  5  2  0  0  0  0
  4 25  1  0  0  0  0
  5  6  1  0  0  0  0
  5 15  1  0  0  0  0
  6  7  1  0  0  0  0
  6 26  1  0  0  0  0
  6 27  1  0  0  0  0
  7  8  1  0  0  0  0
  7 28  1  0  0  0  0
  8 13  1  0  0  0  0
  8  9  2  0  0  0  0
  9 10  1  0  0  0  0
 10 11  2  0  0  0  0
 10 29  1  0  0  0  0
 11 12  1  0  0  0  0
 12 13  2  0  0  0  0
 12 30  1  0  0  0  0
 13 14  1  0  0  0  0
 14 31  1  0  0  0  0
 14 32  1  0  0  0  0
 14 33  1  0  0  0  0
 15 16  2  0  0  0  0
 15 17  1  0  0  0  0
 17 18  1  0  0  0  0
 18 19  2  0  0  0  0
M  CHG  1  17  -1
M  END
> <s_m_source_file>
AV-unprocessed.smi

> <i_m_source_file_index>
8

> <i_lp_mmshare_version>
43012

> <i_f3d_flags>
0

> <s_epik_input>
W0NIM11bQ0gyXW4xW2NIXWMoYyg9TylbbkhdYzE9TylbQ0gyXVtOSF1jMm5bY0hdbltjSF1jMltDSDNd

> <s_epik_cmdline>
J2VwaWtfcHl0aG9uJywgJy1waCcsICc3LjAnLCAnLXRuJywgJzgnLCAnLW1hJywgJzIwMCcsICctbWV0YWxfYmluZGluZycsICctaW1hZScsICc8aW5maWxlLm1hZT4nLCAnLW9tYWUnLCAnPG91dGZpbGUubWFlPic=

> <r_lp_tautomer_probability>
0.999537

> <r_epik_Ionization_Penalty>
4.00162

> <r_epik_Ionization_Penalty_Charging>
4.85554e-07

> <r_epik_Ionization_Penalty_Neutral>
4.00162

> <r_epik_State_Penalty>
4.01059

> <r_epik_Charging_Adjusted_Penalty>
4.01059

> <i_epik_Tot_Q>
-1

> <i_epik_Tot_abs_Q>
1

> <r_epik_Metal_State_Penalty>
0.642438

> <b_epik_Metal_Only>
1

> <s_lp_Force_Field>
OPLS_2005

> <r_lp_Energy>
12.8082

> <b_lp_Chiralities_Consistent>
1

> <s_lp_Variant>
AV-unprocessed.smi:8-3

> <Gold.Version>
5.8.1

> <Gold.Id.Protein>
6NUR|6NUR_protein|mol2

> <Gold.PLP.Fitness>
36.0701

> <Gold.PLP.PLP>
-21.0108

> <Gold.PLP.part.hbond>
-3.0000

> <Gold.PLP.part.metal>
0.0000

> <Gold.PLP.part.buried>
-4.8927

> <Gold.PLP.part.nonpolar>
-14.9636

> <Gold.PLP.part.repulsive>
0.2918

> <Gold.PLP.ligand.clash>
0.0000

> <Gold.PLP.ligand.torsion>
0.4648

> <Gold.PLP.Chemscore.Hbond>
2.8715

> <Gold.PLP.Chemscore.CHOScore>
2.4541

> <Gold.PLP.Chemscore.Metal>
0.0000

> <Gold.Chemscore.Hbonds>
donor molecule, donor type, donor heavy atom, donor atom, acceptor molecule, acceptor atom, score
      L1  H     7    28       P1  7948  1.00
      P1  H  6896  6908       L1    17  1.81
      L1  C     4    25       P1  7948  1.00
      L1  C    10    29       P1 10747  0.69
      L1  C    12    30       P1 10186  0.61

> <Gold.PLP.Chemscore.Internal.Correction>
0.0120

> <Gold.Rescore>
     Score         DG    S(hbond)    S(metal)    S(lipo)     H(rot)  DE(clash)    DE(int)     intcor
      9.59      -9.90       1.72        0.00      34.25       2.09       0.00       0.31       ----

> <Gold.Chemscore.Fitness>
9.5891

> <Gold.Chemscore.DG>
-9.8970

> <Gold.Chemscore.ZeroCoef>
-5.4800

> <Gold.Chemscore.Hbond>
1.7228

> <Gold.Chemscore.Metal>
0.0000

> <Gold.Chemscore.Lipo>
34.2484

> <Gold.Chemscore.Internal_Hbond>
0.0000

> <Gold.Chemscore.DEClash>
0.0000

> <Gold.Chemscore.DEInternal>
0.3079

> <Gold.Chemscore.Rot>
2.0876

> <Gold.Chemscore.Internal.Correction>
   9.000000E+99

> <Gold.Chemscore.Hbonds>
donor molecule, donor type, donor heavy atom, donor atom, acceptor molecule, acceptor atom, score
      L1  H     7    28       P1  7948  0.97
      P1  H  6896  6908       L1    17  0.29

> <Gold.Chemscore.Hbond.Weighted>
-5.7541

> <Gold.Chemscore.Metal.Weighted>
-0.0000

> <Gold.Chemscore.Lipo.Weighted>
-4.0071

> <Gold.Chemscore.Internal_Hbond.Weighted>
0.0000

> <Gold.Chemscore.DEClash.Weighted>
0.0000

> <Gold.Chemscore.DEInternal.Weighted>
0.3079

> <Gold.Chemscore.Rot.Weighted>
5.3442

> <Gold.Chemscore.Internal.Correction.Weighted>
   9.000000E+99

> <Gold.Protein.RotatedTorsions>
[ 6907 6896 6895 6894 ] final  143.77 input  -60.11 | X-H torsion
[ 7974 7965 7964 7962 ] final  -52.83 input  175.53 | X-H torsion
[ 8008 7997 7996 7995 ] final  -51.13 input   59.86 | X-H torsion
[ 10167 10162 10161 10158 ] final   17.59 input  -65.29 | X-H torsion
[ 10718 10713 10712 10709 ] final   21.15 input   66.30 | X-H torsion
[ 10763 10752 10751 10750 ] final  115.93 input  -60.55 | X-H torsion
[ 11005 11000 10999 10996 ] final   93.84 input  -57.11 | X-H torsion

> <Gold.Protein.ActiveResidues>
 VAL166  LYS551  ARG553  GLY616  TRP617  ASP618  TYR619  PRO620  LYS621  CYS622 
 ASP623  PHE694  ASN695  SER759  ASP760  ASP761  ALA762  ILE779  LEU786  VAL792 
 PHE793  MET794  SER795  GLU796  ALA797  LYS798  CYS799  TRP800  GLU811  SER814 

> <Gold.Protein.RotatedAtoms>
  152.2021  133.4848  159.5063 H   0  0  0  0  0  0  0  0  0  0  0  0  # atno 6907 bound_to 6896
  150.6972  134.1577  159.4173 H   0  0  0  0  0  0  0  0  0  0  0  0  # atno 6908 bound_to 6896
  151.9494  135.0176  160.0591 H   0  0  0  0  0  0  0  0  0  0  0  0  # atno 6909 bound_to 6896
  145.9036  140.7973  142.9730 H   0  0  0  0  0  0  0  0  0  0  0  0  # atno 7974 bound_to 7965
  154.4076  140.1255  156.4779 H   0  0  0  0  0  0  0  0  0  0  0  0  # atno 8008 bound_to 7997
  155.7114  140.3494  155.4956 H   0  0  0  0  0  0  0  0  0  0  0  0  # atno 8009 bound_to 7997
  155.9296  140.1067  157.1132 H   0  0  0  0  0  0  0  0  0  0  0  0  # atno 8010 bound_to 7997
  140.5715  143.9152  150.6717 H   0  0  0  0  0  0  0  0  0  0  0  0  # atno 10167 bound_to 10162
  157.1345  130.6605  149.5962 H   0  0  0  0  0  0  0  0  0  0  0  0  # atno 10718 bound_to 10713
  153.5296  135.3581  155.2670 H   0  0  0  0  0  0  0  0  0  0  0  0  # atno 10763 bound_to 10752
  154.8728  135.4065  154.3166 H   0  0  0  0  0  0  0  0  0  0  0  0  # atno 10764 bound_to 10752
  153.3852  135.7070  153.6603 H   0  0  0  0  0  0  0  0  0  0  0  0  # atno 10765 bound_to 10752
  139.8805  134.8812  156.3777 H   0  0  0  0  0  0  0  0  0  0  0  0  # atno 11005 bound_to 11000
  144.6737  140.1716  143.7414 LP  0  0  0  0  0  0  0  0  0  0  0  0  # atno 17320 bound_to 7965
  145.8760  139.2297  143.1633 LP  0  0  0  0  0  0  0  0  0  0  0  0  # atno 17321 bound_to 7965
  140.2628  143.3511  152.1307 LP  0  0  0  0  0  0  0  0  0  0  0  0  # atno 17342 bound_to 10162
  139.5120  144.6910  151.5760 LP  0  0  0  0  0  0  0  0  0  0  0  0  # atno 17343 bound_to 10162
  155.9801  130.4799  150.6753 LP  0  0  0  0  0  0  0  0  0  0  0  0  # atno 17370 bound_to 10713
  157.4363  131.0855  151.0989 LP  0  0  0  0  0  0  0  0  0  0  0  0  # atno 17371 bound_to 10713
  140.9420  133.7508  156.0159 LP  0  0  0  0  0  0  0  0  0  0  0  0  # atno 17394 bound_to 11000
  140.8208  134.3292  157.5382 LP  0  0  0  0  0  0  0  0  0  0  0  0  # atno 17395 bound_to 11000

$$$$
