AV-unprocessed.smi:3311|AV-procd|sdf|12726|dock8
  -GOLD-   2272019 73D 1   1.00000     0.00000
 Structure written by MMmdl.
 43 44  0  0  0  0  0  0  0  0  1 V2000
  144.2652  136.4399  152.3713 C   0  0  0  0  0  0  0  0  0  0  0  0
  145.5627  136.3585  151.5489 C   0  0  1  0  0  0  0  0  0  0  0  0
  146.4313  137.4745  151.9423 N   0  0  0  0  0  0  0  0  0  0  0  0
  146.4274  137.8176  153.3672 C   0  0  0  0  0  0  0  0  0  0  0  0
  147.5008  138.8705  153.7267 C   0  0  0  0  0  0  0  0  0  0  0  0
  148.6671  138.5402  152.9937 O   0  0  0  0  0  0  0  0  0  0  0  0
  147.0307  140.2654  153.2488 C   0  0  0  0  0  0  0  0  0  0  0  0
  147.9954  141.3984  153.6434 C   0  0  0  0  0  0  0  0  0  0  0  0
  148.2549  141.4070  155.1560 C   0  0  0  0  0  0  0  0  0  0  0  0
  148.7819  140.0454  155.6288 C   0  0  0  0  0  0  0  0  0  0  0  0
  147.8237  138.9042  155.2427 C   0  0  0  0  0  0  0  0  0  0  0  0
  146.2320  134.9587  151.6935 C   0  0  1  0  0  0  0  0  0  0  0  0
  146.4993  134.4916  153.1344 C   0  0  0  0  0  0  0  0  0  0  0  0
  145.5577  133.9196  150.9204 N   0  0  0  0  0  0  0  0  0  0  0  0
  146.0264  132.6758  150.5439 C   0  0  0  0  0  0  0  0  0  0  0  0
  145.0315  132.0563  149.8439 C   0  0  0  0  0  0  0  0  0  0  0  0
  143.9760  133.0097  149.8438 C   0  0  0  0  0  0  0  0  0  0  0  0
  144.2924  134.1208  150.4881 N   0  0  0  0  0  0  0  0  0  0  0  0
  143.5769  135.6394  152.0995 H   0  0  0  0  0  0  0  0  0  0  0  0
  143.7501  137.3851  152.1965 H   0  0  0  0  0  0  0  0  0  0  0  0
  144.4570  136.3636  153.4421 H   0  0  0  0  0  0  0  0  0  0  0  0
  145.2726  136.4871  150.5053 H   0  0  0  0  0  0  0  0  0  0  0  0
  147.3839  137.2795  151.6518 H   0  0  0  0  0  0  0  0  0  0  0  0
  145.4530  138.1757  153.6885 H   0  0  0  0  0  0  0  0  0  0  0  0
  146.6175  136.9128  153.9456 H   0  0  0  0  0  0  0  0  0  0  0  0
  148.6838  137.6042  152.8657 H   0  0  0  0  0  0  0  0  0  0  0  0
  146.8878  140.2662  152.1672 H   0  0  0  0  0  0  0  0  0  0  0  0
  146.0520  140.4809  153.6799 H   0  0  0  0  0  0  0  0  0  0  0  0
  148.9395  141.2857  153.1092 H   0  0  0  0  0  0  0  0  0  0  0  0
  147.5826  142.3592  153.3338 H   0  0  0  0  0  0  0  0  0  0  0  0
  148.9703  142.1909  155.4070 H   0  0  0  0  0  0  0  0  0  0  0  0
  147.3322  141.6479  155.6860 H   0  0  0  0  0  0  0  0  0  0  0  0
  149.7663  139.8633  155.1959 H   0  0  0  0  0  0  0  0  0  0  0  0
  148.9214  140.0586  156.7100 H   0  0  0  0  0  0  0  0  0  0  0  0
  146.8952  139.0218  155.8032 H   0  0  0  0  0  0  0  0  0  0  0  0
  148.2550  137.9564  155.5667 H   0  0  0  0  0  0  0  0  0  0  0  0
  147.2267  135.0734  151.2581 H   0  0  0  0  0  0  0  0  0  0  0  0
  146.9485  135.2859  153.7308 H   0  0  0  0  0  0  0  0  0  0  0  0
  147.1895  133.6475  153.1408 H   0  0  0  0  0  0  0  0  0  0  0  0
  145.5904  134.1587  153.6341 H   0  0  0  0  0  0  0  0  0  0  0  0
  147.0185  132.3372  150.8051 H   0  0  0  0  0  0  0  0  0  0  0  0
  145.0541  131.0718  149.4012 H   0  0  0  0  0  0  0  0  0  0  0  0
  142.9954  132.9276  149.3986 H   0  0  0  0  0  0  0  0  0  0  0  0
  1  2  1  0  0  0  0
  1 19  1  0  0  0  0
  1 20  1  0  0  0  0
  1 21  1  0  0  0  0
  2  3  1  0  0  0  0
  2 12  1  0  0  0  0
  2 22  1  0  0  0  0
  3  4  1  0  0  0  0
  3 23  1  0  0  0  0
  4  5  1  0  0  0  0
  4 24  1  0  0  0  0
  4 25  1  0  0  0  0
  5 11  1  0  0  0  0
  5  6  1  0  0  0  0
  5  7  1  0  0  0  0
  6 26  1  0  0  0  0
  7  8  1  0  0  0  0
  7 27  1  0  0  0  0
  7 28  1  0  0  0  0
  8  9  1  0  0  0  0
  8 29  1  0  0  0  0
  8 30  1  0  0  0  0
  9 10  1  0  0  0  0
  9 31  1  0  0  0  0
  9 32  1  0  0  0  0
 10 11  1  0  0  0  0
 10 33  1  0  0  0  0
 10 34  1  0  0  0  0
 11 35  1  0  0  0  0
 11 36  1  0  0  0  0
 12 13  1  0  0  0  0
 12 14  1  0  0  0  0
 12 37  1  0  0  0  0
 13 38  1  0  0  0  0
 13 39  1  0  0  0  0
 13 40  1  0  0  0  0
 14 18  1  0  0  0  0
 14 15  1  0  0  0  0
 15 16  2  0  0  0  0
 15 41  1  0  0  0  0
 16 17  1  0  0  0  0
 16 42  1  0  0  0  0
 17 18  2  0  0  0  0
 17 43  1  0  0  0  0
M  END
> <s_m_source_file>
AV-unprocessed.smi

> <i_m_source_file_index>
3311

> <i_lp_mmshare_version>
43012

> <i_f3d_flags>
0

> <s_epik_input>
bjFbY0hdW2NIXVtjSF1uMVtDQEBIXShbQ0gzXSlbQ0BIXShbQ0gzXSlbTkhdW0NIMl1DMihbT0hdKVtDSDJdW0NIMl1bQ0gyXVtDSDJdW0NIMl0y

> <s_epik_cmdline>
J2VwaWtfcHl0aG9uJywgJy1waCcsICc3LjAnLCAnLXRuJywgJzgnLCAnLW1hJywgJzIwMCcsICctbWV0YWxfYmluZGluZycsICctaW1hZScsICc8aW5maWxlLm1hZT4nLCAnLW9tYWUnLCAnPG91dGZpbGUubWFlPic=

> <r_lp_tautomer_probability>
1

> <r_epik_Ionization_Penalty>
2.222

> <r_epik_Ionization_Penalty_Charging>
0

> <r_epik_Ionization_Penalty_Neutral>
2.222

> <r_epik_State_Penalty>
2.36562

> <r_epik_Charging_Adjusted_Penalty>
2.36562

> <i_epik_Tot_Q>
0

> <i_epik_Tot_abs_Q>
0

> <r_epik_Metal_State_Penalty>
2.36435

> <b_epik_Metal_Only>
0

> <s_lp_Force_Field>
OPLS_2005

> <r_lp_Energy>
31.437

> <b_lp_Chiralities_Consistent>
1

> <s_lp_Variant>
AV-unprocessed.smi:3311-8

> <Gold.Version>
5.8.1

> <Gold.Id.Protein>
6NUR|6NUR_protein|mol2

> <Gold.PLP.Fitness>
42.1326

> <Gold.PLP.PLP>
-31.9146

> <Gold.PLP.part.hbond>
-2.9295

> <Gold.PLP.part.metal>
0.0000

> <Gold.PLP.part.buried>
-2.3939

> <Gold.PLP.part.nonpolar>
-26.2380

> <Gold.PLP.part.repulsive>
0.1986

> <Gold.PLP.ligand.clash>
0.0000

> <Gold.PLP.ligand.torsion>
0.9491

> <Gold.PLP.Chemscore.Hbond>
1.9600

> <Gold.PLP.Chemscore.CHOScore>
1.9947

> <Gold.PLP.Chemscore.Metal>
0.0000

> <Gold.Chemscore.Hbonds>
donor molecule, donor type, donor heavy atom, donor atom, acceptor molecule, acceptor atom, score
      L1  H     3    23       P1  7948  0.99
      L1  H     6    26       P1  7948  0.99
      L1  C    15    41       P1 10747  1.00
      L1  C    17    43       P1 10186  1.00

> <Gold.PLP.Chemscore.Internal.Correction>
0.2522

> <Gold.Rescore>
     Score         DG    S(hbond)    S(metal)    S(lipo)     H(rot)  DE(clash)    DE(int)     intcor
     14.83     -16.93       1.91        0.00      88.57       2.07       0.23       1.86       ----

> <Gold.Chemscore.Fitness>
14.8348

> <Gold.Chemscore.DG>
-16.9274

> <Gold.Chemscore.ZeroCoef>
-5.4800

> <Gold.Chemscore.Hbond>
1.9104

> <Gold.Chemscore.Metal>
0.0000

> <Gold.Chemscore.Lipo>
88.5682

> <Gold.Chemscore.Internal_Hbond>
0.0000

> <Gold.Chemscore.DEClash>
0.2347

> <Gold.Chemscore.DEInternal>
1.8579

> <Gold.Chemscore.Rot>
2.0686

> <Gold.Chemscore.Internal.Correction>
   9.000000E+99

> <Gold.Chemscore.Hbonds>
donor molecule, donor type, donor heavy atom, donor atom, acceptor molecule, acceptor atom, score
      L1  H     3    23       P1  7948  0.94
      L1  H     6    26       P1  7948  0.93

> <Gold.Chemscore.Hbond.Weighted>
-6.3807

> <Gold.Chemscore.Metal.Weighted>
-0.0000

> <Gold.Chemscore.Lipo.Weighted>
-10.3625

> <Gold.Chemscore.Internal_Hbond.Weighted>
0.0000

> <Gold.Chemscore.DEClash.Weighted>
0.2347

> <Gold.Chemscore.DEInternal.Weighted>
1.8579

> <Gold.Chemscore.Rot.Weighted>
5.2957

> <Gold.Chemscore.Internal.Correction.Weighted>
   9.000000E+99

> <Gold.Protein.RotatedTorsions>
[ 6907 6896 6895 6894 ] final   41.14 input  -60.11 | X-H torsion
[ 7974 7965 7964 7962 ] final   17.21 input  175.53 | X-H torsion
[ 8008 7997 7996 7995 ] final   10.46 input   59.86 | X-H torsion
[ 10167 10162 10161 10158 ] final  148.00 input  -65.29 | X-H torsion
[ 10718 10713 10712 10709 ] final   25.29 input   66.30 | X-H torsion
[ 10763 10752 10751 10750 ] final   28.78 input  -60.55 | X-H torsion
[ 11005 11000 10999 10996 ] final -107.11 input  -57.11 | X-H torsion

> <Gold.Protein.ActiveResidues>
 VAL166  LYS551  ARG553  GLY616  TRP617  ASP618  TYR619  PRO620  LYS621  CYS622 
 ASP623  PHE694  ASN695  SER759  ASP760  ASP761  ALA762  ILE779  LEU786  VAL792 
 PHE793  MET794  SER795  GLU796  ALA797  LYS798  CYS799  TRP800  GLU811  SER814 

> <Gold.Protein.RotatedAtoms>
  152.1915  134.8668  160.0516 H   0  0  0  0  0  0  0  0  0  0  0  0  # atno 6907 bound_to 6896
  151.9555  133.3674  159.4024 H   0  0  0  0  0  0  0  0  0  0  0  0  # atno 6908 bound_to 6896
  150.6936  134.4219  159.5253 H   0  0  0  0  0  0  0  0  0  0  0  0  # atno 6909 bound_to 6896
  146.2225  139.8636  142.8600 H   0  0  0  0  0  0  0  0  0  0  0  0  # atno 7974 bound_to 7965
  154.7937  140.2840  155.5973 H   0  0  0  0  0  0  0  0  0  0  0  0  # atno 8008 bound_to 7997
  156.2968  140.2600  156.2719 H   0  0  0  0  0  0  0  0  0  0  0  0  # atno 8009 bound_to 7997
  154.9640  140.0377  157.2193 H   0  0  0  0  0  0  0  0  0  0  0  0  # atno 8010 bound_to 7997
  139.4881  144.5713  151.7050 H   0  0  0  0  0  0  0  0  0  0  0  0  # atno 10167 bound_to 10162
  157.1913  130.6847  149.6151 H   0  0  0  0  0  0  0  0  0  0  0  0  # atno 10718 bound_to 10713
  153.0471  135.6505  154.0790 H   0  0  0  0  0  0  0  0  0  0  0  0  # atno 10763 bound_to 10752
  154.0485  135.2897  155.3345 H   0  0  0  0  0  0  0  0  0  0  0  0  # atno 10764 bound_to 10752
  154.6735  135.5347  153.8235 H   0  0  0  0  0  0  0  0  0  0  0  0  # atno 10765 bound_to 10752
  141.0971  133.8952  157.1937 H   0  0  0  0  0  0  0  0  0  0  0  0  # atno 11005 bound_to 11000
  145.2680  141.0099  143.3788 LP  0  0  0  0  0  0  0  0  0  0  0  0  # atno 17320 bound_to 7965
  144.9246  139.4370  143.6524 LP  0  0  0  0  0  0  0  0  0  0  0  0  # atno 17321 bound_to 7965
  140.5300  144.0745  150.6050 LP  0  0  0  0  0  0  0  0  0  0  0  0  # atno 17342 bound_to 10162
  140.3732  143.2843  152.0255 LP  0  0  0  0  0  0  0  0  0  0  0  0  # atno 17343 bound_to 10162
  155.9711  130.4613  150.6106 LP  0  0  0  0  0  0  0  0  0  0  0  0  # atno 17370 bound_to 10713
  157.3857  131.0788  151.1438 LP  0  0  0  0  0  0  0  0  0  0  0  0  # atno 17371 bound_to 10713
  139.9810  135.0098  156.9750 LP  0  0  0  0  0  0  0  0  0  0  0  0  # atno 17394 bound_to 11000
  140.5114  134.0998  155.7271 LP  0  0  0  0  0  0  0  0  0  0  0  0  # atno 17395 bound_to 11000

$$$$
