AV-unprocessed.smi:746|AV-procd|sdf|3576|dock8
  -GOLD-   22720 0573D 1   1.00000     0.00000
 Structure written by MMmdl.
 48 50  0  0  0  0  0  0  0  0  1 V2000
  150.6817  131.3493  155.2466 C   0  0  0  0  0  0  0  0  0  0  0  0
  149.4408  131.9024  154.8443 O   0  0  0  0  0  0  0  0  0  0  0  0
  149.5855  133.1734  154.2328 C   0  0  0  0  0  0  0  0  0  0  0  0
  150.0060  134.1933  155.2944 C   0  0  0  0  0  0  0  0  0  0  0  0
  150.0388  135.4872  154.6994 O   0  0  0  0  0  0  0  0  0  0  0  0
  150.5202  136.5433  155.4457 C   0  0  0  0  0  0  0  0  0  0  0  0
  150.7889  137.7628  154.7930 C   0  0  0  0  0  0  0  0  0  0  0  0
  151.2826  138.8452  155.5463 C   0  0  0  0  0  0  0  0  0  0  0  0
  151.5009  138.6690  156.9334 C   0  0  0  0  0  0  0  0  0  0  0  0
  151.9755  139.6852  157.8054 N   0  0  0  0  0  0  0  0  0  0  0  0
  151.9312  141.0232  157.6463 C   0  0  0  0  0  0  0  0  0  0  0  0
  151.3299  141.5743  156.7251 O   0  0  0  0  0  0  0  0  0  0  0  0
  152.5187  141.7004  158.6654 N   0  0  0  0  0  0  0  0  0  0  0  0
  153.5880  141.1196  159.5091 C   0  0  0  0  0  0  0  0  0  0  0  0
  153.3033  141.3631  161.0066 C   0  0  0  0  0  0  0  0  0  0  0  0
  153.1014  142.8601  161.3061 C   0  0  0  0  0  0  0  0  0  0  0  0
  152.0548  143.4312  160.3417 C   0  0  1  0  0  0  0  0  0  0  0  0
  151.8225  144.9428  160.3767 C   0  0  0  0  0  0  0  0  0  0  0  0
  151.2608  145.2815  158.9830 C   0  0  0  0  0  0  0  0  0  0  0  0
  151.3868  143.9990  158.1409 C   0  0  0  0  0  0  0  0  0  0  0  0
  152.4377  143.1593  158.8861 C   0  0  2  0  0  0  0  0  0  0  0  0
  151.1838  137.4148  157.4938 C   0  0  0  0  0  0  0  0  0  0  0  0
  150.7118  136.3730  156.7773 N   0  0  0  0  0  0  0  0  0  0  0  0
  150.5165  130.3760  155.7086 H   0  0  0  0  0  0  0  0  0  0  0  0
  151.1796  131.9884  155.9771 H   0  0  0  0  0  0  0  0  0  0  0  0
  151.3462  131.2081  154.3932 H   0  0  0  0  0  0  0  0  0  0  0  0
  150.3360  133.1272  153.4421 H   0  0  0  0  0  0  0  0  0  0  0  0
  148.6425  133.4783  153.7763 H   0  0  0  0  0  0  0  0  0  0  0  0
  149.2955  134.1736  156.1225 H   0  0  0  0  0  0  0  0  0  0  0  0
  150.9903  133.9308  155.6861 H   0  0  0  0  0  0  0  0  0  0  0  0
  150.6149  137.8683  153.7323 H   0  0  0  0  0  0  0  0  0  0  0  0
  151.4676  139.7853  155.0505 H   0  0  0  0  0  0  0  0  0  0  0  0
  152.5133  139.3594  158.5952 H   0  0  0  0  0  0  0  0  0  0  0  0
  153.7444  140.0530  159.3455 H   0  0  0  0  0  0  0  0  0  0  0  0
  154.5354  141.5882  159.2383 H   0  0  0  0  0  0  0  0  0  0  0  0
  152.4099  140.8091  161.2981 H   0  0  0  0  0  0  0  0  0  0  0  0
  154.1210  140.9705  161.6118 H   0  0  0  0  0  0  0  0  0  0  0  0
  152.7889  143.0042  162.3407 H   0  0  0  0  0  0  0  0  0  0  0  0
  154.0478  143.3887  161.1846 H   0  0  0  0  0  0  0  0  0  0  0  0
  151.1001  142.9411  160.5455 H   0  0  0  0  0  0  0  0  0  0  0  0
  151.1461  145.2347  161.1808 H   0  0  0  0  0  0  0  0  0  0  0  0
  152.7661  145.4679  160.5305 H   0  0  0  0  0  0  0  0  0  0  0  0
  150.2216  145.6077  159.0374 H   0  0  0  0  0  0  0  0  0  0  0  0
  151.8347  146.0944  158.5367 H   0  0  0  0  0  0  0  0  0  0  0  0
  150.4236  143.4867  158.1266 H   0  0  0  0  0  0  0  0  0  0  0  0
  151.6714  144.2124  157.1101 H   0  0  0  0  0  0  0  0  0  0  0  0
  153.4194  143.5907  158.6787 H   0  0  0  0  0  0  0  0  0  0  0  0
  151.3185  137.2372  158.5507 H   0  0  0  0  0  0  0  0  0  0  0  0
  1  2  1  0  0  0  0
  1 24  1  0  0  0  0
  1 25  1  0  0  0  0
  1 26  1  0  0  0  0
  2  3  1  0  0  0  0
  3  4  1  0  0  0  0
  3 27  1  0  0  0  0
  3 28  1  0  0  0  0
  4  5  1  0  0  0  0
  4 29  1  0  0  0  0
  4 30  1  0  0  0  0
  5  6  1  0  0  0  0
  6 23  1  0  0  0  0
  6  7  2  0  0  0  0
  7  8  1  0  0  0  0
  7 31  1  0  0  0  0
  8  9  2  0  0  0  0
  8 32  1  0  0  0  0
  9 10  1  0  0  0  0
  9 22  1  0  0  0  0
 10 11  1  0  0  0  0
 10 33  1  0  0  0  0
 11 12  2  0  0  0  0
 11 13  1  0  0  0  0
 13 21  1  0  0  0  0
 13 14  1  0  0  0  0
 14 15  1  0  0  0  0
 14 34  1  0  0  0  0
 14 35  1  0  0  0  0
 15 16  1  0  0  0  0
 15 36  1  0  0  0  0
 15 37  1  0  0  0  0
 16 17  1  0  0  0  0
 16 38  1  0  0  0  0
 16 39  1  0  0  0  0
 17 21  1  0  0  0  0
 17 18  1  0  0  0  0
 17 40  1  0  0  0  0
 18 19  1  0  0  0  0
 18 41  1  0  0  0  0
 18 42  1  0  0  0  0
 19 20  1  0  0  0  0
 19 43  1  0  0  0  0
 19 44  1  0  0  0  0
 20 21  1  0  0  0  0
 20 45  1  0  0  0  0
 20 46  1  0  0  0  0
 21 47  1  0  0  0  0
 22 23  2  0  0  0  0
 22 48  1  0  0  0  0
M  END
> <s_m_source_file>
AV-unprocessed.smi

> <i_m_source_file_index>
746

> <i_lp_mmshare_version>
43012

> <i_f3d_flags>
0

> <s_epik_input>
W0NIM11PW0NIMl1bQ0gyXU9jMVtjSF1bY0hdYyhbY0hdbjEpW05IXUMoPU8pTihbQ0gyXVtDSDJdW0NIMl0yKVtDQEhdKFtDQEBIXTIzKVtDSDJdW0NIMl1bQ0gyXTM=

> <s_epik_cmdline>
J2VwaWtfcHl0aG9uJywgJy1waCcsICc3LjAnLCAnLXRuJywgJzgnLCAnLW1hJywgJzIwMCcsICctbWV0YWxfYmluZGluZycsICctaW1hZScsICc8aW5maWxlLm1hZT4nLCAnLW9tYWUnLCAnPG91dGZpbGUubWFlPic=

> <r_lp_tautomer_probability>
1

> <r_epik_Ionization_Penalty>
8.29966e-05

> <r_epik_Ionization_Penalty_Charging>
0

> <r_epik_Ionization_Penalty_Neutral>
8.29966e-05

> <r_epik_State_Penalty>
-0

> <r_epik_Charging_Adjusted_Penalty>
0

> <i_epik_Tot_Q>
0

> <i_epik_Tot_abs_Q>
0

> <r_epik_Metal_State_Penalty>
-0

> <b_epik_Metal_Only>
0

> <s_lp_Force_Field>
OPLS_2005

> <r_lp_Energy>
59.0162

> <b_lp_Chiralities_Consistent>
1

> <s_lp_Variant>
AV-unprocessed.smi:746-1

> <Gold.Version>
5.8.1

> <Gold.Id.Protein>
6NUR|6NUR_protein|mol2

> <Gold.PLP.Fitness>
46.1260

> <Gold.PLP.PLP>
-46.6464

> <Gold.PLP.part.hbond>
0.0000

> <Gold.PLP.part.metal>
0.0000

> <Gold.PLP.part.buried>
-6.4636

> <Gold.PLP.part.nonpolar>
-39.9094

> <Gold.PLP.part.repulsive>
0.5418

> <Gold.PLP.ligand.clash>
0.0153

> <Gold.PLP.ligand.torsion>
0.4117

> <Gold.PLP.Chemscore.Hbond>
0.0000

> <Gold.PLP.Chemscore.CHOScore>
0.0000

> <Gold.PLP.Chemscore.Metal>
0.0000

> <Gold.PLP.Chemscore.Internal.Correction>
0.3182

> <Gold.Rescore>
     Score         DG    S(hbond)    S(metal)    S(lipo)     H(rot)  DE(clash)    DE(int)     intcor
     13.75     -16.61       0.00        0.00     128.34       1.52       0.03       2.82       ----

> <Gold.Chemscore.Fitness>
13.7540

> <Gold.Chemscore.DG>
-16.6113

> <Gold.Chemscore.ZeroCoef>
-5.4800

> <Gold.Chemscore.Hbond>
0.0000

> <Gold.Chemscore.Metal>
0.0000

> <Gold.Chemscore.Lipo>
128.3364

> <Gold.Chemscore.Internal_Hbond>
0.0000

> <Gold.Chemscore.DEClash>
0.0330

> <Gold.Chemscore.DEInternal>
2.8243

> <Gold.Chemscore.Rot>
1.5172

> <Gold.Chemscore.Internal.Correction>
   9.000000E+99

> <Gold.Chemscore.Hbond.Weighted>
-0.0000

> <Gold.Chemscore.Metal.Weighted>
-0.0000

> <Gold.Chemscore.Lipo.Weighted>
-15.0154

> <Gold.Chemscore.Internal_Hbond.Weighted>
0.0000

> <Gold.Chemscore.DEClash.Weighted>
0.0330

> <Gold.Chemscore.DEInternal.Weighted>
2.8243

> <Gold.Chemscore.Rot.Weighted>
3.8841

> <Gold.Chemscore.Internal.Correction.Weighted>
   9.000000E+99

> <Gold.Protein.RotatedTorsions>
[ 6907 6896 6895 6894 ] final    3.71 input  -60.11 | X-H torsion
[ 7974 7965 7964 7962 ] final  -56.36 input  175.53 | X-H torsion
[ 8008 7997 7996 7995 ] final -169.34 input   59.86 | X-H torsion
[ 10167 10162 10161 10158 ] final -139.50 input  -65.29 | X-H torsion
[ 10718 10713 10712 10709 ] final -158.62 input   66.30 | X-H torsion
[ 10763 10752 10751 10750 ] final  154.57 input  -60.55 | X-H torsion
[ 11005 11000 10999 10996 ] final  -54.19 input  -57.11 | X-H torsion

> <Gold.Protein.ActiveResidues>
 VAL166  LYS551  ARG553  GLY616  TRP617  ASP618  TYR619  PRO620  LYS621  CYS622 
 ASP623  PHE694  ASN695  SER759  ASP760  ASP761  ALA762  ILE779  LEU786  VAL792 
 PHE793  MET794  SER795  GLU796  ALA797  LYS798  CYS799  TRP800  GLU811  SER814 

> <Gold.Protein.RotatedAtoms>
  151.6295  135.1024  160.0118 H   0  0  0  0  0  0  0  0  0  0  0  0  # atno 6907 bound_to 6896
  152.4114  133.6965  159.6409 H   0  0  0  0  0  0  0  0  0  0  0  0  # atno 6908 bound_to 6896
  150.8004  133.8534  159.3252 H   0  0  0  0  0  0  0  0  0  0  0  0  # atno 6909 bound_to 6896
  145.8635  140.8268  142.9924 H   0  0  0  0  0  0  0  0  0  0  0  0  # atno 7974 bound_to 7965
  155.9037  140.1045  157.1331 H   0  0  0  0  0  0  0  0  0  0  0  0  # atno 8008 bound_to 7997
  154.4029  140.1287  156.4532 H   0  0  0  0  0  0  0  0  0  0  0  0  # atno 8009 bound_to 7997
  155.7393  140.3467  155.5099 H   0  0  0  0  0  0  0  0  0  0  0  0  # atno 8010 bound_to 7997
  139.8373  143.7368  152.2664 H   0  0  0  0  0  0  0  0  0  0  0  0  # atno 10167 bound_to 10162
  156.5566  130.8629  151.2797 H   0  0  0  0  0  0  0  0  0  0  0  0  # atno 10718 bound_to 10713
  154.1545  135.2813  155.3126 H   0  0  0  0  0  0  0  0  0  0  0  0  # atno 10763 bound_to 10752
  154.6192  135.5473  153.7560 H   0  0  0  0  0  0  0  0  0  0  0  0  # atno 10764 bound_to 10752
  153.0211  135.6435  154.1689 H   0  0  0  0  0  0  0  0  0  0  0  0  # atno 10765 bound_to 10752
  141.1014  133.6617  156.4284 H   0  0  0  0  0  0  0  0  0  0  0  0  # atno 11005 bound_to 11000
  144.6726  140.1131  143.7454 LP  0  0  0  0  0  0  0  0  0  0  0  0  # atno 17320 bound_to 7965
  145.9220  139.2552  143.1376 LP  0  0  0  0  0  0  0  0  0  0  0  0  # atno 17321 bound_to 7965
  139.7594  144.7511  151.0386 LP  0  0  0  0  0  0  0  0  0  0  0  0  # atno 17342 bound_to 10162
  140.7801  143.4768  151.0071 LP  0  0  0  0  0  0  0  0  0  0  0  0  # atno 17343 bound_to 10162
  157.7377  130.9800  150.2208 LP  0  0  0  0  0  0  0  0  0  0  0  0  # atno 17370 bound_to 10713
  156.2836  130.3736  149.7910 LP  0  0  0  0  0  0  0  0  0  0  0  0  # atno 17371 bound_to 10713
  140.5013  134.6483  157.5249 LP  0  0  0  0  0  0  0  0  0  0  0  0  # atno 17394 bound_to 11000
  139.9866  134.7051  155.9762 LP  0  0  0  0  0  0  0  0  0  0  0  0  # atno 17395 bound_to 11000

$$$$
