AV-unprocessed.smi:1644|AV-procd|sdf|6591|dock8
  -GOLD-   22720 7283D 1   1.00000     0.00000
 Structure written by MMmdl.
 50 52  0  0  0  0  0  0  0  0  2 V2000
  143.6029  145.6471  155.3902 C   0  0  0  0  0  0  0  0  0  0  0  0
  143.3880  144.4161  154.5033 C   0  0  0  0  0  0  0  0  0  0  0  0
  143.8549  143.1124  155.1827 C   0  0  0  0  0  0  0  0  0  0  0  0
  145.3518  143.0513  155.5646 C   0  0  1  0  0  0  0  0  0  0  0  0
  145.6823  141.9237  156.4135 N   0  0  0  0  0  0  0  0  0  0  0  0
  146.6250  141.1365  155.8779 C   0  0  0  0  0  0  0  0  0  0  0  0
  147.0927  140.1301  156.4078 O   0  0  0  0  0  0  0  0  0  0  0  0
  146.9654  141.6392  154.6775 N   0  0  0  0  0  0  0  0  0  0  0  0
  147.9751  141.0539  153.7905 C   0  0  0  0  0  0  0  0  0  0  0  0
  149.1390  140.4316  154.5884 C   0  0  1  0  0  0  0  0  0  0  0  0
  150.0088  139.7697  153.6910 O   0  0  0  0  0  0  0  0  0  0  0  0
  149.9510  141.5005  155.3454 C   0  0  0  0  0  0  0  0  0  0  0  0
  150.8362  140.9208  156.3628 N   0  0  0  0  0  0  0  0  0  0  0  0
  151.4645  139.7146  156.3970 C   0  0  0  0  0  0  0  0  0  0  0  0
  152.1695  139.6534  157.5612 N   0  3  0  0  0  0  0  0  0  0  0  0
  151.9862  140.8371  158.2802 C   0  0  0  0  0  0  0  0  0  0  0  0
  152.4886  141.2449  159.5102 C   0  0  0  0  0  0  0  0  0  0  0  0
  152.1046  142.5246  159.9718 C   0  0  0  0  0  0  0  0  0  0  0  0
  152.6354  143.0009  161.3133 C   0  0  0  0  0  0  0  0  0  0  0  0
  151.2420  143.3498  159.2041 C   0  0  0  0  0  0  0  0  0  0  0  0
  150.8313  144.7217  159.7115 C   0  0  0  0  0  0  0  0  0  0  0  0
  150.7446  142.9183  157.9539 C   0  0  0  0  0  0  0  0  0  0  0  0
  151.1324  141.6547  157.5154 C   0  0  0  0  0  0  0  0  0  0  0  0
  146.2825  142.7587  154.4023 C   0  0  0  0  0  0  0  0  0  0  0  0
  146.3756  143.4620  153.3960 O   0  0  0  0  0  0  0  0  0  0  0  0
  143.2708  146.5535  154.8833 H   0  0  0  0  0  0  0  0  0  0  0  0
  144.6566  145.7737  155.6404 H   0  0  0  0  0  0  0  0  0  0  0  0
  143.0436  145.5633  156.3223 H   0  0  0  0  0  0  0  0  0  0  0  0
  142.3303  144.3460  154.2482 H   0  0  0  0  0  0  0  0  0  0  0  0
  143.9228  144.5632  153.5645 H   0  0  0  0  0  0  0  0  0  0  0  0
  143.2553  142.9415  156.0781 H   0  0  0  0  0  0  0  0  0  0  0  0
  143.6360  142.2745  154.5197 H   0  0  0  0  0  0  0  0  0  0  0  0
  145.6617  143.9765  156.0521 H   0  0  0  0  0  0  0  0  0  0  0  0
  145.2538  141.7698  157.3149 H   0  0  0  0  0  0  0  0  0  0  0  0
  147.5354  140.3283  153.1032 H   0  0  0  0  0  0  0  0  0  0  0  0
  148.3535  141.8527  153.1501 H   0  0  0  0  0  0  0  0  0  0  0  0
  148.7584  139.7014  155.3035 H   0  0  0  0  0  0  0  0  0  0  0  0
  149.6564  139.8480  152.8172 H   0  0  0  0  0  0  0  0  0  0  0  0
  150.5680  142.0763  154.6539 H   0  0  0  0  0  0  0  0  0  0  0  0
  149.2912  142.2142  155.8407 H   0  0  0  0  0  0  0  0  0  0  0  0
  151.4099  138.9453  155.6402 H   0  0  0  0  0  0  0  0  0  0  0  0
  153.1436  140.6108  160.0896 H   0  0  0  0  0  0  0  0  0  0  0  0
  153.1902  143.9324  161.1979 H   0  0  0  0  0  0  0  0  0  0  0  0
  153.3069  142.2673  161.7605 H   0  0  0  0  0  0  0  0  0  0  0  0
  151.8145  143.1703  162.0107 H   0  0  0  0  0  0  0  0  0  0  0  0
  150.1472  145.2144  159.0198 H   0  0  0  0  0  0  0  0  0  0  0  0
  151.7049  145.3631  159.8299 H   0  0  0  0  0  0  0  0  0  0  0  0
  150.3276  144.6396  160.6750 H   0  0  0  0  0  0  0  0  0  0  0  0
  150.0880  143.5450  157.3681 H   0  0  0  0  0  0  0  0  0  0  0  0
  152.7317  138.8600  157.8420 H   0  0  0  0  0  0  0  0  0  0  0  0
  1  2  1  0  0  0  0
  1 26  1  0  0  0  0
  1 27  1  0  0  0  0
  1 28  1  0  0  0  0
  2  3  1  0  0  0  0
  2 29  1  0  0  0  0
  2 30  1  0  0  0  0
  3  4  1  0  0  0  0
  3 31  1  0  0  0  0
  3 32  1  0  0  0  0
  4 24  1  0  0  0  0
  4  5  1  0  0  0  0
  4 33  1  0  0  0  0
  5  6  1  0  0  0  0
  5 34  1  0  0  0  0
  6  7  2  0  0  0  0
  6  8  1  0  0  0  0
  8  9  1  0  0  0  0
  8 24  1  0  0  0  0
  9 10  1  0  0  0  0
  9 35  1  0  0  0  0
  9 36  1  0  0  0  0
 10 11  1  0  0  0  0
 10 12  1  0  0  0  0
 10 37  1  0  0  0  0
 11 38  1  0  0  0  0
 12 13  1  0  0  0  0
 12 39  1  0  0  0  0
 12 40  1  0  0  0  0
 13 23  1  0  0  0  0
 13 14  1  0  0  0  0
 14 15  2  0  0  0  0
 14 41  1  0  0  0  0
 15 16  1  0  0  0  0
 15 50  1  0  0  0  0
 16 23  2  0  0  0  0
 16 17  1  0  0  0  0
 17 18  2  0  0  0  0
 17 42  1  0  0  0  0
 18 19  1  0  0  0  0
 18 20  1  0  0  0  0
 19 43  1  0  0  0  0
 19 44  1  0  0  0  0
 19 45  1  0  0  0  0
 20 21  1  0  0  0  0
 20 22  2  0  0  0  0
 21 46  1  0  0  0  0
 21 47  1  0  0  0  0
 21 48  1  0  0  0  0
 22 23  1  0  0  0  0
 22 49  1  0  0  0  0
 24 25  2  0  0  0  0
M  CHG  1  15   1
M  END
> <s_m_source_file>
AV-unprocessed.smi

> <i_m_source_file_index>
1644

> <i_lp_mmshare_version>
43012

> <i_f3d_flags>
0

> <s_epik_input>
W0NIM11bQ0gyXVtDSDJdW0NAQEhdMVtOSF1DKD1PKU4oQzE9TylbQ0gyXVtDQEhdKFtPSF0pW0NIMl1uKFtjSF1uMiljKGMyMylbY0hdYyhbQ0gzXSljKFtjSF0zKVtDSDNd

> <s_epik_cmdline>
J2VwaWtfcHl0aG9uJywgJy1waCcsICc3LjAnLCAnLXRuJywgJzgnLCAnLW1hJywgJzIwMCcsICctbWV0YWxfYmluZGluZycsICctaW1hZScsICc8aW5maWxlLm1hZT4nLCAnLW9tYWUnLCAnPG91dGZpbGUubWFlPic=

> <r_lp_tautomer_probability>
1

> <r_epik_Ionization_Penalty>
1.06742

> <r_epik_Ionization_Penalty_Charging>
1.06736

> <r_epik_Ionization_Penalty_Neutral>
5.56132e-05

> <r_epik_State_Penalty>
1.12163

> <r_epik_Charging_Adjusted_Penalty>
2.18899

> <i_epik_Tot_Q>
1

> <i_epik_Tot_abs_Q>
1

> <r_epik_Metal_State_Penalty>
1.26636

> <b_epik_Metal_Only>
0

> <s_lp_Force_Field>
OPLS_2005

> <r_lp_Energy>
28.3475

> <b_lp_Chiralities_Consistent>
1

> <s_lp_Variant>
AV-unprocessed.smi:1644-8

> <Gold.Version>
5.8.1

> <Gold.Id.Protein>
6NUR|6NUR_protein|mol2

> <Gold.PLP.Fitness>
52.8434

> <Gold.PLP.PLP>
-49.1888

> <Gold.PLP.part.hbond>
-3.0000

> <Gold.PLP.part.metal>
0.0000

> <Gold.PLP.part.buried>
-4.8500

> <Gold.PLP.part.nonpolar>
-41.7510

> <Gold.PLP.part.repulsive>
0.3215

> <Gold.PLP.ligand.clash>
0.0000

> <Gold.PLP.ligand.torsion>
0.9465

> <Gold.PLP.Chemscore.Hbond>
1.8160

> <Gold.PLP.Chemscore.CHOScore>
0.0000

> <Gold.PLP.Chemscore.Metal>
0.0000

> <Gold.Chemscore.Hbonds>
donor molecule, donor type, donor heavy atom, donor atom, acceptor molecule, acceptor atom, score
      L1  H    11    38       P1  7957  1.00
      P1  H  7989  7998       L1    11  0.75

> <Gold.PLP.Chemscore.Internal.Correction>
0.0997

> <Gold.Rescore>
     Score         DG    S(hbond)    S(metal)    S(lipo)     H(rot)  DE(clash)    DE(int)     intcor
     12.91     -15.49       1.16        0.00     113.51       2.80       0.13       2.45       ----

> <Gold.Chemscore.Fitness>
12.9087

> <Gold.Chemscore.DG>
-15.4860

> <Gold.Chemscore.ZeroCoef>
-5.4800

> <Gold.Chemscore.Hbond>
1.1627

> <Gold.Chemscore.Metal>
0.0000

> <Gold.Chemscore.Lipo>
113.5093

> <Gold.Chemscore.Internal_Hbond>
0.0000

> <Gold.Chemscore.DEClash>
0.1259

> <Gold.Chemscore.DEInternal>
2.4513

> <Gold.Chemscore.Rot>
2.7961

> <Gold.Chemscore.Internal.Correction>
   9.000000E+99

> <Gold.Chemscore.Hbonds>
donor molecule, donor type, donor heavy atom, donor atom, acceptor molecule, acceptor atom, score
      L1  H    11    38       P1  7957  0.99
      P1  H  7989  7998       L1    11  0.10

> <Gold.Chemscore.Hbond.Weighted>
-3.8834

> <Gold.Chemscore.Metal.Weighted>
-0.0000

> <Gold.Chemscore.Lipo.Weighted>
-13.2806

> <Gold.Chemscore.Internal_Hbond.Weighted>
0.0000

> <Gold.Chemscore.DEClash.Weighted>
0.1259

> <Gold.Chemscore.DEInternal.Weighted>
2.4513

> <Gold.Chemscore.Rot.Weighted>
7.1580

> <Gold.Chemscore.Internal.Correction.Weighted>
   9.000000E+99

> <Gold.Protein.RotatedTorsions>
[ 6907 6896 6895 6894 ] final   92.90 input  -60.11 | X-H torsion
[ 7974 7965 7964 7962 ] final   66.63 input  175.53 | X-H torsion
[ 8008 7997 7996 7995 ] final -161.20 input   59.86 | X-H torsion
[ 10167 10162 10161 10158 ] final   27.48 input  -65.29 | X-H torsion
[ 10718 10713 10712 10709 ] final -173.76 input   66.30 | X-H torsion
[ 10763 10752 10751 10750 ] final   37.79 input  -60.55 | X-H torsion
[ 11005 11000 10999 10996 ] final  -79.58 input  -57.11 | X-H torsion

> <Gold.Protein.ActiveResidues>
 VAL166  LYS551  ARG553  GLY616  TRP617  ASP618  TYR619  PRO620  LYS621  CYS622 
 ASP623  PHE694  ASN695  SER759  ASP760  ASP761  ALA762  ILE779  LEU786  VAL792 
 PHE793  MET794  SER795  GLU796  ALA797  LYS798  CYS799  TRP800  GLU811  SER814 

> <Gold.Protein.RotatedAtoms>
  152.5453  134.1430  159.8486 H   0  0  0  0  0  0  0  0  0  0  0  0  # atno 6907 bound_to 6896
  151.1465  133.4929  159.2603 H   0  0  0  0  0  0  0  0  0  0  0  0  # atno 6908 bound_to 6896
  151.1518  135.0241  159.8726 H   0  0  0  0  0  0  0  0  0  0  0  0  # atno 6909 bound_to 6896
  145.8243  139.3102  143.1025 H   0  0  0  0  0  0  0  0  0  0  0  0  # atno 7974 bound_to 7965
  155.7887  140.0875  157.2021 H   0  0  0  0  0  0  0  0  0  0  0  0  # atno 8008 bound_to 7997
  154.3986  140.1494  156.3195 H   0  0  0  0  0  0  0  0  0  0  0  0  # atno 8009 bound_to 7997
  155.8581  140.3431  155.5740 H   0  0  0  0  0  0  0  0  0  0  0  0  # atno 8010 bound_to 7997
  140.4935  144.0429  150.6306 H   0  0  0  0  0  0  0  0  0  0  0  0  # atno 10167 bound_to 10162
  156.7751  130.9463  151.3120 H   0  0  0  0  0  0  0  0  0  0  0  0  # atno 10718 bound_to 10713
  153.0024  135.6268  154.2201 H   0  0  0  0  0  0  0  0  0  0  0  0  # atno 10763 bound_to 10752
  154.1944  135.2807  155.3013 H   0  0  0  0  0  0  0  0  0  0  0  0  # atno 10764 bound_to 10752
  154.5734  135.5669  153.7176 H   0  0  0  0  0  0  0  0  0  0  0  0  # atno 10765 bound_to 10752
  141.1667  133.7112  156.8144 H   0  0  0  0  0  0  0  0  0  0  0  0  # atno 11005 bound_to 11000
  145.9641  140.8812  143.0196 LP  0  0  0  0  0  0  0  0  0  0  0  0  # atno 17320 bound_to 7965
  144.6745  140.1853  143.7402 LP  0  0  0  0  0  0  0  0  0  0  0  0  # atno 17321 bound_to 7965
  140.3705  143.2857  152.0283 LP  0  0  0  0  0  0  0  0  0  0  0  0  # atno 17342 bound_to 10162
  139.4856  144.6234  151.7212 LP  0  0  0  0  0  0  0  0  0  0  0  0  # atno 17343 bound_to 10162
  157.6673  130.9019  149.9960 LP  0  0  0  0  0  0  0  0  0  0  0  0  # atno 17370 bound_to 10713
  156.1253  130.3644  149.9819 LP  0  0  0  0  0  0  0  0  0  0  0  0  # atno 17371 bound_to 10713
  140.2164  134.8789  157.3330 LP  0  0  0  0  0  0  0  0  0  0  0  0  # atno 17394 bound_to 11000
  140.2033  134.4228  155.7651 LP  0  0  0  0  0  0  0  0  0  0  0  0  # atno 17395 bound_to 11000

$$$$
