AV-unprocessed.smi:34|AV-procd|sdf|242|dock3
  -GOLD-   2262015593D 1   1.00000     0.00000
 Structure written by MMmdl.
 54 58  0  0  0  0  0  0  0  0  2 V2000
  151.3203  139.5111  158.9592 O   0  0  0  0  0  0  0  0  0  0  0  0
  151.7491  140.4107  158.2334 C   0  0  0  0  0  0  0  0  0  0  0  0
  152.2715  140.2967  156.9859 N   0  5  0  0  0  0  0  0  0  0  0  0
  151.7069  139.4600  156.1019 C   0  0  0  0  0  0  0  0  0  0  0  0
  152.4557  138.5199  155.4704 N   0  0  0  0  0  0  0  0  0  0  0  0
  151.8903  137.6804  154.5945 C   0  0  0  0  0  0  0  0  0  0  0  0
  150.6142  137.6089  154.2021 N   0  0  0  0  0  0  0  0  0  0  0  0
  149.8551  138.5593  154.8205 C   0  0  0  0  0  0  0  0  0  0  0  0
  150.3253  139.5118  155.7699 C   0  0  0  0  0  0  0  0  0  0  0  0
  149.2887  140.3243  156.2040 N   0  0  0  0  0  0  0  0  0  0  0  0
  148.2577  139.8341  155.5188 C   0  0  0  0  0  0  0  0  0  0  0  0
  148.5013  138.8074  154.6762 N   0  0  0  0  0  0  0  0  0  0  0  0
  147.5510  138.0427  153.8053 C   0  0  1  0  0  0  0  0  0  0  0  0
  147.5035  136.7211  154.2549 O   0  0  0  0  0  0  0  0  0  0  0  0
  146.4240  136.5834  155.1686 C   0  0  2  0  0  0  0  0  0  0  0  0
  146.0621  135.1042  155.3394 C   0  0  0  0  0  0  0  0  0  0  0  0
  145.9807  134.4857  154.0660 O   0  0  0  0  0  0  0  0  0  0  0  0
  144.7790  134.2767  153.4941 C   0  0  0  0  0  0  0  0  0  0  0  0
  143.7135  134.6445  153.9931 O   0  0  0  0  0  0  0  0  0  0  0  0
  144.8724  133.5559  152.1919 C   0  0  0  0  0  0  0  0  0  0  0  0
  146.1391  133.3787  151.5875 C   0  0  0  0  0  0  0  0  0  0  0  0
  146.2596  132.6998  150.3595 C   0  0  0  0  0  0  0  0  0  0  0  0
  145.1145  132.1912  149.7195 C   0  0  0  0  0  0  0  0  0  0  0  0
  143.8484  132.3631  150.3091 C   0  0  0  0  0  0  0  0  0  0  0  0
  143.7258  133.0411  151.5378 C   0  0  0  0  0  0  0  0  0  0  0  0
  145.3421  137.4294  154.5031 C   0  0  1  0  0  0  0  0  0  0  0  0
  144.4122  137.8232  155.3740 F   0  0  0  0  0  0  0  0  0  0  0  0
  146.1242  138.6117  153.9448 C   0  0  2  0  0  0  0  0  0  0  0  0
  145.5840  139.0198  152.7048 O   0  0  0  0  0  0  0  0  0  0  0  0
  151.7800  141.8178  158.7663 C   0  0  0  0  0  0  0  0  0  0  0  0
  152.3192  142.0687  160.0486 C   0  0  0  0  0  0  0  0  0  0  0  0
  152.3316  143.3740  160.5776 C   0  0  0  0  0  0  0  0  0  0  0  0
  151.7955  144.4414  159.8333 C   0  0  0  0  0  0  0  0  0  0  0  0
  151.2439  144.2018  158.5608 C   0  0  0  0  0  0  0  0  0  0  0  0
  151.2318  142.8969  158.0305 C   0  0  0  0  0  0  0  0  0  0  0  0
  152.5570  136.9607  154.1434 H   0  0  0  0  0  0  0  0  0  0  0  0
  147.2683  140.2489  155.6428 H   0  0  0  0  0  0  0  0  0  0  0  0
  147.9813  138.1141  152.8053 H   0  0  0  0  0  0  0  0  0  0  0  0
  146.7098  137.0177  156.1281 H   0  0  0  0  0  0  0  0  0  0  0  0
  146.8057  134.6007  155.9587 H   0  0  0  0  0  0  0  0  0  0  0  0
  145.0993  135.0146  155.8443 H   0  0  0  0  0  0  0  0  0  0  0  0
  147.0330  133.7602  152.0601 H   0  0  0  0  0  0  0  0  0  0  0  0
  147.2324  132.5689  149.9088 H   0  0  0  0  0  0  0  0  0  0  0  0
  145.2069  131.6704  148.7779 H   0  0  0  0  0  0  0  0  0  0  0  0
  142.9687  131.9736  149.8183 H   0  0  0  0  0  0  0  0  0  0  0  0
  142.7391  133.1564  151.9621 H   0  0  0  0  0  0  0  0  0  0  0  0
  144.8492  136.8643  153.7103 H   0  0  0  0  0  0  0  0  0  0  0  0
  146.1167  139.4476  154.6465 H   0  0  0  0  0  0  0  0  0  0  0  0
  144.6494  139.1187  152.8021 H   0  0  0  0  0  0  0  0  0  0  0  0
  152.7326  141.2597  160.6336 H   0  0  0  0  0  0  0  0  0  0  0  0
  152.7509  143.5548  161.5562 H   0  0  0  0  0  0  0  0  0  0  0  0
  151.8035  145.4419  160.2397 H   0  0  0  0  0  0  0  0  0  0  0  0
  150.8254  145.0185  157.9914 H   0  0  0  0  0  0  0  0  0  0  0  0
  150.7931  142.7325  157.0568 H   0  0  0  0  0  0  0  0  0  0  0  0
  1  2  2  0  0  0  0
  2  3  1  0  0  0  0
  2 30  1  0  0  0  0
  3  4  1  0  0  0  0
  4  9  1  0  0  0  0
  4  5  2  0  0  0  0
  5  6  1  0  0  0  0
  6  7  2  0  0  0  0
  6 36  1  0  0  0  0
  7  8  1  0  0  0  0
  8 12  1  0  0  0  0
  8  9  2  0  0  0  0
  9 10  1  0  0  0  0
 10 11  2  0  0  0  0
 11 12  1  0  0  0  0
 11 37  1  0  0  0  0
 12 13  1  0  0  0  0
 13 28  1  0  0  0  0
 13 14  1  0  0  0  0
 13 38  1  0  0  0  0
 14 15  1  0  0  0  0
 15 16  1  0  0  0  0
 15 26  1  0  0  0  0
 15 39  1  0  0  0  0
 16 17  1  0  0  0  0
 16 40  1  0  0  0  0
 16 41  1  0  0  0  0
 17 18  1  0  0  0  0
 18 19  2  0  0  0  0
 18 20  1  0  0  0  0
 20 25  1  0  0  0  0
 20 21  2  0  0  0  0
 21 22  1  0  0  0  0
 21 42  1  0  0  0  0
 22 23  2  0  0  0  0
 22 43  1  0  0  0  0
 23 24  1  0  0  0  0
 23 44  1  0  0  0  0
 24 25  2  0  0  0  0
 24 45  1  0  0  0  0
 25 46  1  0  0  0  0
 26 27  1  0  0  0  0
 26 28  1  0  0  0  0
 26 47  1  0  0  0  0
 28 29  1  0  0  0  0
 28 48  1  0  0  0  0
 29 49  1  0  0  0  0
 30 35  1  0  0  0  0
 30 31  2  0  0  0  0
 31 32  1  0  0  0  0
 31 50  1  0  0  0  0
 32 33  2  0  0  0  0
 32 51  1  0  0  0  0
 33 34  1  0  0  0  0
 33 52  1  0  0  0  0
 34 35  2  0  0  0  0
 34 53  1  0  0  0  0
 35 54  1  0  0  0  0
M  CHG  1   3  -1
M  END
> <s_m_source_file>
AV-unprocessed.smi

> <i_m_source_file_index>
34

> <i_lp_mmshare_version>
43012

> <i_f3d_flags>
0

> <s_epik_input>
W2NIXTFbY0hdW2NIXVtjSF1bY0hdYzFDKD1PKVtOSF1jKG5bY0hdbjIpYyhjMjMpbltjSF1uM1tDQEBIXTRPW0NASF0oW0NAQEhdKEYpW0NASF00W09IXSlbQ0gyXU9DKD1PKWM1W2NIXVtjSF1bY0hdW2NIXVtjSF01

> <s_epik_cmdline>
J2VwaWtfcHl0aG9uJywgJy1waCcsICc3LjAnLCAnLXRuJywgJzgnLCAnLW1hJywgJzIwMCcsICctbWV0YWxfYmluZGluZycsICctaW1hZScsICc8aW5maWxlLm1hZT4nLCAnLW9tYWUnLCAnPG91dGZpbGUubWFlPic=

> <r_lp_tautomer_probability>
1

> <r_epik_Ionization_Penalty>
4.33227

> <r_epik_Ionization_Penalty_Charging>
3.41027

> <r_epik_Ionization_Penalty_Neutral>
0.922001

> <r_epik_State_Penalty>
3.41358

> <r_epik_Charging_Adjusted_Penalty>
6.82385

> <i_epik_Tot_Q>
-1

> <i_epik_Tot_abs_Q>
1

> <r_epik_Metal_State_Penalty>
0.496292

> <b_epik_Metal_Only>
1

> <s_epik_Chemistry_Notes>
This compound has an ester and may undergo hydrolysis at high or low pH. This compound contains an acetal/aminal-like group ( X-CH(R)-Y where X, Y are N, S, or O) that may be acid/base labile, releasing an aldehyde.

> <s_lp_Force_Field>
OPLS_2005

> <r_lp_Energy>
39.213

> <b_lp_Chiralities_Consistent>
1

> <s_lp_Variant>
AV-unprocessed.smi:34-28

> <Gold.Version>
5.8.1

> <Gold.Id.Protein>
6NUR|6NUR_protein|mol2

> <Gold.PLP.Fitness>
56.4159

> <Gold.PLP.PLP>
-50.5629

> <Gold.PLP.part.hbond>
-2.4924

> <Gold.PLP.part.metal>
0.0000

> <Gold.PLP.part.buried>
-4.2004

> <Gold.PLP.part.nonpolar>
-48.6671

> <Gold.PLP.part.repulsive>
3.2292

> <Gold.PLP.ligand.clash>
0.0000

> <Gold.PLP.ligand.torsion>
2.1021

> <Gold.PLP.Chemscore.Hbond>
2.9840

> <Gold.PLP.Chemscore.CHOScore>
0.0000

> <Gold.PLP.Chemscore.Metal>
0.0000

> <Gold.Chemscore.Hbonds>
donor molecule, donor type, donor heavy atom, donor atom, acceptor molecule, acceptor atom, score
      L1  H    29    49       P1 10175  0.59
      P1  H  7997  8008       L1     3  1.50

> <Gold.PLP.Chemscore.Internal.Correction>
1.1052

> <Gold.Rescore>
     Score         DG    S(hbond)    S(metal)    S(lipo)     H(rot)  DE(clash)    DE(int)     intcor
     14.06     -18.28       1.73        0.00     119.06       2.69       1.07       3.15       ----

> <Gold.Chemscore.Fitness>
14.0640

> <Gold.Chemscore.DG>
-18.2837

> <Gold.Chemscore.ZeroCoef>
-5.4800

> <Gold.Chemscore.Hbond>
1.7279

> <Gold.Chemscore.Metal>
0.0000

> <Gold.Chemscore.Lipo>
119.0613

> <Gold.Chemscore.Internal_Hbond>
0.0000

> <Gold.Chemscore.DEClash>
1.0656

> <Gold.Chemscore.DEInternal>
3.1541

> <Gold.Chemscore.Rot>
2.6944

> <Gold.Chemscore.Internal.Correction>
   9.000000E+99

> <Gold.Chemscore.Hbonds>
donor molecule, donor type, donor heavy atom, donor atom, acceptor molecule, acceptor atom, score
      L1  H    29    49       P1 10175  0.60
      P1  H  7997  8008       L1     3  0.25

> <Gold.Chemscore.Hbond.Weighted>
-5.7711

> <Gold.Chemscore.Metal.Weighted>
-0.0000

> <Gold.Chemscore.Lipo.Weighted>
-13.9302

> <Gold.Chemscore.Internal_Hbond.Weighted>
0.0000

> <Gold.Chemscore.DEClash.Weighted>
1.0656

> <Gold.Chemscore.DEInternal.Weighted>
3.1541

> <Gold.Chemscore.Rot.Weighted>
6.8975

> <Gold.Chemscore.Internal.Correction.Weighted>
   9.000000E+99

> <Gold.Protein.RotatedTorsions>
[ 6907 6896 6895 6894 ] final  107.65 input  -60.11 | X-H torsion
[ 7974 7965 7964 7962 ] final -172.30 input  175.53 | X-H torsion
[ 8008 7997 7996 7995 ] final  -51.70 input   59.86 | X-H torsion
[ 10167 10162 10161 10158 ] final  137.13 input  -65.29 | X-H torsion
[ 10718 10713 10712 10709 ] final -157.44 input   66.30 | X-H torsion
[ 10763 10752 10751 10750 ] final   -9.96 input  -60.55 | X-H torsion
[ 11005 11000 10999 10996 ] final   96.71 input  -57.11 | X-H torsion

> <Gold.Protein.ActiveResidues>
 VAL166  LYS551  ARG553  GLY616  TRP617  ASP618  TYR619  PRO620  LYS621  CYS622 
 ASP623  PHE694  ASN695  SER759  ASP760  ASP761  ALA762  ILE779  LEU786  VAL792 
 PHE793  MET794  SER795  GLU796  ALA797  LYS798  CYS799  TRP800  GLU811  SER814 

> <Gold.Protein.RotatedAtoms>
  152.5145  133.9203  159.7530 H   0  0  0  0  0  0  0  0  0  0  0  0  # atno 6907 bound_to 6896
  150.9576  133.6472  159.2767 H   0  0  0  0  0  0  0  0  0  0  0  0  # atno 6908 bound_to 6896
  151.3728  135.0931  159.9524 H   0  0  0  0  0  0  0  0  0  0  0  0  # atno 6909 bound_to 6896
  144.7148  140.1793  143.6360 H   0  0  0  0  0  0  0  0  0  0  0  0  # atno 7974 bound_to 7965
  154.4089  140.1241  156.4872 H   0  0  0  0  0  0  0  0  0  0  0  0  # atno 8008 bound_to 7997
  155.7026  140.3494  155.4920 H   0  0  0  0  0  0  0  0  0  0  0  0  # atno 8009 bound_to 7997
  155.9371  140.1080  157.1075 H   0  0  0  0  0  0  0  0  0  0  0  0  # atno 8010 bound_to 7997
  139.5155  144.6427  151.5526 H   0  0  0  0  0  0  0  0  0  0  0  0  # atno 10167 bound_to 10162
  156.5403  130.8560  151.2746 H   0  0  0  0  0  0  0  0  0  0  0  0  # atno 10718 bound_to 10713
  153.4624  135.7016  153.6042 H   0  0  0  0  0  0  0  0  0  0  0  0  # atno 10763 bound_to 10752
  153.4331  135.3798  155.2183 H   0  0  0  0  0  0  0  0  0  0  0  0  # atno 10764 bound_to 10752
  154.8727  135.3956  154.4051 H   0  0  0  0  0  0  0  0  0  0  0  0  # atno 10765 bound_to 10752
  139.8780  134.8964  156.4199 H   0  0  0  0  0  0  0  0  0  0  0  0  # atno 11005 bound_to 11000
  145.8871  139.2355  143.1571 LP  0  0  0  0  0  0  0  0  0  0  0  0  # atno 17320 bound_to 7965
  145.9939  140.8578  143.0052 LP  0  0  0  0  0  0  0  0  0  0  0  0  # atno 17321 bound_to 7965
  140.6199  143.9278  150.6518 LP  0  0  0  0  0  0  0  0  0  0  0  0  # atno 17342 bound_to 10162
  140.2548  143.3567  152.1374 LP  0  0  0  0  0  0  0  0  0  0  0  0  # atno 17343 bound_to 10162
  157.7406  130.9854  150.2391 LP  0  0  0  0  0  0  0  0  0  0  0  0  # atno 17370 bound_to 10713
  156.2978  130.3754  149.7780 LP  0  0  0  0  0  0  0  0  0  0  0  0  # atno 17371 bound_to 10713
  140.9141  133.7691  155.9827 LP  0  0  0  0  0  0  0  0  0  0  0  0  # atno 17394 bound_to 11000
  140.8513  134.2950  157.5274 LP  0  0  0  0  0  0  0  0  0  0  0  0  # atno 17395 bound_to 11000

$$$$
