AV-unprocessed.smi:1808|AV-procd|sdf|7308|dock6
  -GOLD-   22720 8563D 1   1.00000     0.00000
 Structure written by MMmdl.
 27 28  0  0  0  0  0  0  0  0  2 V2000
  151.5117  139.0698  158.5684 O   0  0  0  0  0  0  0  0  0  0  0  0
  152.2177  139.9021  157.9941 C   0  0  0  0  0  0  0  0  0  0  0  0
  152.6431  140.9853  158.6570 N   0  0  0  0  0  0  0  0  0  0  0  0
  152.3449  141.2866  160.0506 C   0  0  0  0  0  0  0  0  0  0  0  0
  152.1282  142.7935  160.2436 C   0  0  1  0  0  0  0  0  0  0  0  0
  152.9983  143.6644  159.3411 C   0  0  0  0  0  0  0  0  0  0  0  0
  152.2247  144.9708  159.2688 C   0  0  0  0  0  0  0  0  0  0  0  0
  150.8046  144.5872  159.6975 C   0  0  0  0  0  0  0  0  0  0  0  0
  150.8201  143.1738  159.8464 O   0  0  0  0  0  0  0  0  0  0  0  0
  152.6373  139.8485  156.7093 N   0  5  0  0  0  0  0  0  0  0  0  0
  151.9070  139.1957  155.7905 C   0  0  0  0  0  0  0  0  0  0  0  0
  151.2895  139.8117  154.7758 N   0  0  0  0  0  0  0  0  0  0  0  0
  150.5929  138.9389  153.9380 C   0  0  0  0  0  0  0  0  0  0  0  0
  150.6899  137.6268  154.3181 C   0  0  0  0  0  0  0  0  0  0  0  0
  151.6647  137.4471  155.7488 S   0  0  0  0  0  0  0  0  0  0  0  0
  153.2231  141.6432  158.1576 H   0  0  0  0  0  0  0  0  0  0  0  0
  151.4457  140.7428  160.3431 H   0  0  0  0  0  0  0  0  0  0  0  0
  153.1580  140.9356  160.6880 H   0  0  0  0  0  0  0  0  0  0  0  0
  152.2824  143.0733  161.2876 H   0  0  0  0  0  0  0  0  0  0  0  0
  154.0117  143.7895  159.7232 H   0  0  0  0  0  0  0  0  0  0  0  0
  153.0652  143.2241  158.3451 H   0  0  0  0  0  0  0  0  0  0  0  0
  152.6401  145.7113  159.9530 H   0  0  0  0  0  0  0  0  0  0  0  0
  152.2500  145.3909  158.2629 H   0  0  0  0  0  0  0  0  0  0  0  0
  150.5551  145.0479  160.6544 H   0  0  0  0  0  0  0  0  0  0  0  0
  150.0526  144.8895  158.9686 H   0  0  0  0  0  0  0  0  0  0  0  0
  150.0553  139.3391  153.0912 H   0  0  0  0  0  0  0  0  0  0  0  0
  150.2520  136.7599  153.8471 H   0  0  0  0  0  0  0  0  0  0  0  0
  1  2  2  0  0  0  0
  2  3  1  0  0  0  0
  2 10  1  0  0  0  0
  3  4  1  0  0  0  0
  3 16  1  0  0  0  0
  4  5  1  0  0  0  0
  4 17  1  0  0  0  0
  4 18  1  0  0  0  0
  5  9  1  0  0  0  0
  5  6  1  0  0  0  0
  5 19  1  0  0  0  0
  6  7  1  0  0  0  0
  6 20  1  0  0  0  0
  6 21  1  0  0  0  0
  7  8  1  0  0  0  0
  7 22  1  0  0  0  0
  7 23  1  0  0  0  0
  8  9  1  0  0  0  0
  8 24  1  0  0  0  0
  8 25  1  0  0  0  0
 10 11  1  0  0  0  0
 11 15  1  0  0  0  0
 11 12  2  0  0  0  0
 12 13  1  0  0  0  0
 13 14  2  0  0  0  0
 13 26  1  0  0  0  0
 14 15  1  0  0  0  0
 14 27  1  0  0  0  0
M  CHG  1  10  -1
M  END
> <s_m_source_file>
AV-unprocessed.smi

> <i_m_source_file_index>
1808

> <i_lp_mmshare_version>
43012

> <i_f3d_flags>
0

> <s_epik_input>
czFbY0hdW2NIXW5jMVtOSF1DKD1PKVtOSF1bQ0gyXVtDQEBIXTJbQ0gyXVtDSDJdW0NIMl1PMg==

> <s_epik_cmdline>
J2VwaWtfcHl0aG9uJywgJy1waCcsICc3LjAnLCAnLXRuJywgJzgnLCAnLW1hJywgJzIwMCcsICctbWV0YWxfYmluZGluZycsICctaW1hZScsICc8aW5maWxlLm1hZT4nLCAnLW9tYWUnLCAnPG91dGZpbGUubWFlPic=

> <r_lp_tautomer_probability>
0.999

> <r_epik_Ionization_Penalty>
8.26346

> <r_epik_Ionization_Penalty_Charging>
6.6559

> <r_epik_Ionization_Penalty_Neutral>
1.60756

> <r_epik_State_Penalty>
6.65607

> <r_epik_Charging_Adjusted_Penalty>
13.312

> <i_epik_Tot_Q>
-1

> <i_epik_Tot_abs_Q>
1

> <r_epik_Metal_State_Penalty>
2.5789

> <b_epik_Metal_Only>
1

> <s_lp_Force_Field>
OPLS_2005

> <r_lp_Energy>
13.0287

> <b_lp_Chiralities_Consistent>
1

> <s_lp_Variant>
AV-unprocessed.smi:1808-4

> <Gold.Version>
5.8.1

> <Gold.Id.Protein>
6NUR|6NUR_protein|mol2

> <Gold.PLP.Fitness>
45.7988

> <Gold.PLP.PLP>
-33.1198

> <Gold.PLP.part.hbond>
-2.7868

> <Gold.PLP.part.metal>
0.0000

> <Gold.PLP.part.buried>
-3.2346

> <Gold.PLP.part.nonpolar>
-26.7482

> <Gold.PLP.part.repulsive>
0.1864

> <Gold.PLP.ligand.clash>
0.0000

> <Gold.PLP.ligand.torsion>
1.2001

> <Gold.PLP.Chemscore.Hbond>
3.0000

> <Gold.PLP.Chemscore.CHOScore>
2.0215

> <Gold.PLP.Chemscore.Metal>
0.0000

> <Gold.Chemscore.Hbonds>
donor molecule, donor type, donor heavy atom, donor atom, acceptor molecule, acceptor atom, score
      P1  H  7989  7998       L1    12  0.60
      P1  H  7997  8008       L1    10  2.00
      L1  C    13    26       P1  7957  1.00
      L1  C    14    27       P1  7948  0.83
      L1  C    14    27       P1  7949  0.14

> <Gold.PLP.Chemscore.Internal.Correction>
0.0148

> <Gold.Rescore>
     Score         DG    S(hbond)    S(metal)    S(lipo)     H(rot)  DE(clash)    DE(int)     intcor
     16.07     -17.18       1.68        0.00      80.55       1.30       0.03       1.07       ----

> <Gold.Chemscore.Fitness>
16.0741

> <Gold.Chemscore.DG>
-17.1840

> <Gold.Chemscore.ZeroCoef>
-5.4800

> <Gold.Chemscore.Hbond>
1.6790

> <Gold.Chemscore.Metal>
0.0000

> <Gold.Chemscore.Lipo>
80.5483

> <Gold.Chemscore.Internal_Hbond>
0.0000

> <Gold.Chemscore.DEClash>
0.0350

> <Gold.Chemscore.DEInternal>
1.0749

> <Gold.Chemscore.Rot>
1.3000

> <Gold.Chemscore.Internal.Correction>
   9.000000E+99

> <Gold.Chemscore.Hbonds>
donor molecule, donor type, donor heavy atom, donor atom, acceptor molecule, acceptor atom, score
      P1  H  7989  7998       L1    12  0.04
      P1  H  7997  8008       L1    10  0.84

> <Gold.Chemscore.Hbond.Weighted>
-5.6079

> <Gold.Chemscore.Metal.Weighted>
-0.0000

> <Gold.Chemscore.Lipo.Weighted>
-9.4242

> <Gold.Chemscore.Internal_Hbond.Weighted>
0.0000

> <Gold.Chemscore.DEClash.Weighted>
0.0350

> <Gold.Chemscore.DEInternal.Weighted>
1.0749

> <Gold.Chemscore.Rot.Weighted>
3.3280

> <Gold.Chemscore.Internal.Correction.Weighted>
   9.000000E+99

> <Gold.Protein.RotatedTorsions>
[ 6907 6896 6895 6894 ] final   72.22 input  -60.11 | X-H torsion
[ 7974 7965 7964 7962 ] final  140.78 input  175.53 | X-H torsion
[ 8008 7997 7996 7995 ] final  -53.93 input   59.86 | X-H torsion
[ 10167 10162 10161 10158 ] final -128.77 input  -65.29 | X-H torsion
[ 10718 10713 10712 10709 ] final -155.84 input   66.30 | X-H torsion
[ 10763 10752 10751 10750 ] final   29.68 input  -60.55 | X-H torsion
[ 11005 11000 10999 10996 ] final  -62.01 input  -57.11 | X-H torsion

> <Gold.Protein.ActiveResidues>
 VAL166  LYS551  ARG553  GLY616  TRP617  ASP618  TYR619  PRO620  LYS621  CYS622 
 ASP623  PHE694  ASN695  SER759  ASP760  ASP761  ALA762  ILE779  LEU786  VAL792 
 PHE793  MET794  SER795  GLU796  ALA797  LYS798  CYS799  TRP800  GLU811  SER814 

> <Gold.Protein.RotatedAtoms>
  152.4855  134.4603  159.9602 H   0  0  0  0  0  0  0  0  0  0  0  0  # atno 6907 bound_to 6896
  151.4600  133.3589  159.2815 H   0  0  0  0  0  0  0  0  0  0  0  0  # atno 6908 bound_to 6896
  150.8963  134.8396  159.7389 H   0  0  0  0  0  0  0  0  0  0  0  0  # atno 6909 bound_to 6896
  144.9156  139.5235  143.5688 H   0  0  0  0  0  0  0  0  0  0  0  0  # atno 7974 bound_to 7965
  154.4147  140.1188  156.5234 H   0  0  0  0  0  0  0  0  0  0  0  0  # atno 8008 bound_to 7997
  155.6680  140.3496  155.4788 H   0  0  0  0  0  0  0  0  0  0  0  0  # atno 8009 bound_to 7997
  155.9657  140.1131  157.0846 H   0  0  0  0  0  0  0  0  0  0  0  0  # atno 8010 bound_to 7997
  139.9468  143.6100  152.2487 H   0  0  0  0  0  0  0  0  0  0  0  0  # atno 10167 bound_to 10162
  156.5183  130.8466  151.2672 H   0  0  0  0  0  0  0  0  0  0  0  0  # atno 10718 bound_to 10713
  153.0416  135.6483  154.0929 H   0  0  0  0  0  0  0  0  0  0  0  0  # atno 10763 bound_to 10752
  154.0634  135.2886  155.3322 H   0  0  0  0  0  0  0  0  0  0  0  0  # atno 10764 bound_to 10752
  154.6642  135.5380  153.8121 H   0  0  0  0  0  0  0  0  0  0  0  0  # atno 10765 bound_to 10752
  141.1345  133.6635  156.5463 H   0  0  0  0  0  0  0  0  0  0  0  0  # atno 11005 bound_to 11000
  146.3180  139.7995  142.8968 LP  0  0  0  0  0  0  0  0  0  0  0  0  # atno 17320 bound_to 7965
  145.3382  141.0282  143.3408 LP  0  0  0  0  0  0  0  0  0  0  0  0  # atno 17321 bound_to 7965
  139.6660  144.7662  151.1873 LP  0  0  0  0  0  0  0  0  0  0  0  0  # atno 17342 bound_to 10162
  140.7594  143.5937  150.8770 LP  0  0  0  0  0  0  0  0  0  0  0  0  # atno 17343 bound_to 10162
  157.7440  130.9926  150.2642 LP  0  0  0  0  0  0  0  0  0  0  0  0  # atno 17370 bound_to 10713
  156.3174  130.3780  149.7606 LP  0  0  0  0  0  0  0  0  0  0  0  0  # atno 17371 bound_to 10713
  140.4099  134.7281  157.4830 LP  0  0  0  0  0  0  0  0  0  0  0  0  # atno 17394 bound_to 11000
  140.0435  134.6234  155.8951 LP  0  0  0  0  0  0  0  0  0  0  0  0  # atno 17395 bound_to 11000

$$$$
