AV-unprocessed.smi:40|AV-procd|sdf|380|dock7
  -GOLD-   2262016233D 1   1.00000     0.00000
 Structure written by MMmdl.
 47 48  0  0  0  0  0  0  0  0  1 V2000
  157.4586  137.9264  153.4465 C   0  0  0  0  0  0  0  0  0  0  0  0
  158.1474  137.0303  154.4816 C   0  0  0  0  0  0  0  0  0  0  0  0
  157.1692  136.4906  155.5338 C   0  0  0  0  0  0  0  0  0  0  0  0
  157.8209  135.4691  156.4800 C   0  0  0  0  0  0  0  0  0  0  0  0
  156.8298  134.8553  157.4782 C   0  0  0  0  0  0  0  0  0  0  0  0
  156.3095  135.8805  158.3078 O   0  0  0  0  0  0  0  0  0  0  0  0
  155.2870  136.6480  157.8912 C   0  0  0  0  0  0  0  0  0  0  0  0
  154.6363  136.4322  156.8691 O   0  0  0  0  0  0  0  0  0  0  0  0
  155.0272  137.7401  158.8160 N   0  0  0  0  0  0  0  0  0  0  0  0
  154.0890  138.7176  158.7478 C   0  0  0  0  0  0  0  0  0  0  0  0
  153.1770  138.7700  157.7914 N   0  0  0  0  0  0  0  0  0  0  0  0
  152.2076  139.7319  157.6983 C   0  0  0  0  0  0  0  0  0  0  0  0
  151.4616  139.7447  156.7209 O   0  0  0  0  0  0  0  0  0  0  0  0
  152.1252  140.6865  158.7497 N   0  0  0  0  0  0  0  0  0  0  0  0
  151.1170  141.8353  158.6991 C   0  0  1  0  0  0  0  0  0  0  0  0
  151.3364  142.7149  159.7672 O   0  0  0  0  0  0  0  0  0  0  0  0
  152.1609  143.7932  159.3573 C   0  0  2  0  0  0  0  0  0  0  0  0
  152.1675  144.9311  160.3887 C   0  0  0  0  0  0  0  0  0  0  0  0
  151.5767  144.1147  157.9837 C   0  0  2  0  0  0  0  0  0  0  0  0
  150.3972  144.8931  158.1082 O   0  0  0  0  0  0  0  0  0  0  0  0
  151.3102  142.7149  157.4305 C   0  0  2  0  0  0  0  0  0  0  0  0
  150.2053  142.6787  156.5462 O   0  0  0  0  0  0  0  0  0  0  0  0
  153.1146  140.6764  159.7270 C   0  0  0  0  0  0  0  0  0  0  0  0
  154.0729  139.7265  159.7817 C   0  0  0  0  0  0  0  0  0  0  0  0
  154.9916  139.7334  160.7632 F   0  0  0  0  0  0  0  0  0  0  0  0
  150.1417  141.3536  158.7790 H   0  0  0  0  0  0  0  0  0  0  0  0
  153.1787  143.4171  159.2367 H   0  0  0  0  0  0  0  0  0  0  0  0
  152.2838  144.6656  157.3626 H   0  0  0  0  0  0  0  0  0  0  0  0
  152.2084  142.4182  156.8901 H   0  0  0  0  0  0  0  0  0  0  0  0
  158.1763  138.2970  152.7144 H   0  0  0  0  0  0  0  0  0  0  0  0
  156.9927  138.7901  153.9223 H   0  0  0  0  0  0  0  0  0  0  0  0
  156.6838  137.3812  152.9071 H   0  0  0  0  0  0  0  0  0  0  0  0
  158.6347  136.1984  153.9720 H   0  0  0  0  0  0  0  0  0  0  0  0
  158.9382  137.5973  154.9745 H   0  0  0  0  0  0  0  0  0  0  0  0
  156.7768  137.3274  156.1123 H   0  0  0  0  0  0  0  0  0  0  0  0
  156.3132  136.0329  155.0369 H   0  0  0  0  0  0  0  0  0  0  0  0
  158.2686  134.6688  155.8902 H   0  0  0  0  0  0  0  0  0  0  0  0
  158.6381  135.9407  157.0271 H   0  0  0  0  0  0  0  0  0  0  0  0
  156.0170  134.3538  156.9513 H   0  0  0  0  0  0  0  0  0  0  0  0
  157.3371  134.1076  158.0897 H   0  0  0  0  0  0  0  0  0  0  0  0
  155.6510  137.7633  159.6095 H   0  0  0  0  0  0  0  0  0  0  0  0
  152.7480  145.7811  160.0294 H   0  0  0  0  0  0  0  0  0  0  0  0
  152.6128  144.5966  161.3258 H   0  0  0  0  0  0  0  0  0  0  0  0
  151.1597  145.2810  160.6130 H   0  0  0  0  0  0  0  0  0  0  0  0
  149.8561  144.7358  157.3494 H   0  0  0  0  0  0  0  0  0  0  0  0
  149.8976  143.5619  156.4118 H   0  0  0  0  0  0  0  0  0  0  0  0
  153.1466  141.4503  160.4794 H   0  0  0  0  0  0  0  0  0  0  0  0
  1  2  1  0  0  0  0
  1 30  1  0  0  0  0
  1 31  1  0  0  0  0
  1 32  1  0  0  0  0
  2  3  1  0  0  0  0
  2 33  1  0  0  0  0
  2 34  1  0  0  0  0
  3  4  1  0  0  0  0
  3 35  1  0  0  0  0
  3 36  1  0  0  0  0
  4  5  1  0  0  0  0
  4 37  1  0  0  0  0
  4 38  1  0  0  0  0
  5  6  1  0  0  0  0
  5 39  1  0  0  0  0
  5 40  1  0  0  0  0
  6  7  1  0  0  0  0
  7  8  2  0  0  0  0
  7  9  1  0  0  0  0
  9 10  1  0  0  0  0
  9 41  1  0  0  0  0
 10 24  1  0  0  0  0
 10 11  2  0  0  0  0
 11 12  1  0  0  0  0
 12 13  2  0  0  0  0
 12 14  1  0  0  0  0
 14 15  1  0  0  0  0
 14 23  1  0  0  0  0
 15 26  1  0  0  0  0
 15 21  1  0  0  0  0
 15 16  1  0  0  0  0
 16 17  1  0  0  0  0
 17 27  1  0  0  0  0
 17 18  1  0  0  0  0
 17 19  1  0  0  0  0
 18 42  1  0  0  0  0
 18 43  1  0  0  0  0
 18 44  1  0  0  0  0
 19 28  1  0  0  0  0
 19 20  1  0  0  0  0
 19 21  1  0  0  0  0
 20 45  1  0  0  0  0
 21 29  1  0  0  0  0
 21 22  1  0  0  0  0
 22 46  1  0  0  0  0
 23 24  2  0  0  0  0
 23 47  1  0  0  0  0
 24 25  1  0  0  0  0
M  END
> <s_m_source_file>
AV-unprocessed.smi

> <i_m_source_file_index>
40

> <i_lp_mmshare_version>
43012

> <i_f3d_flags>
0

> <s_epik_input>
W0NIM11bQ0gyXVtDSDJdW0NIMl1bQ0gyXU9DKD1PKVtOSF1jMW5jKD1PKW4oW2NIXWMxRilbQ0BASF0yT1tDQEhdKFtDSDNdKVtDQEBIXShbT0hdKVtDQEhdMltPSF0=

> <s_epik_cmdline>
J2VwaWtfcHl0aG9uJywgJy1waCcsICc3LjAnLCAnLXRuJywgJzgnLCAnLW1hJywgJzIwMCcsICctbWV0YWxfYmluZGluZycsICctaW1hZScsICc8aW5maWxlLm1hZT4nLCAnLW9tYWUnLCAnPG91dGZpbGUubWFlPic=

> <r_lp_tautomer_probability>
1

> <r_epik_Ionization_Penalty>
2.29506e-06

> <r_epik_Ionization_Penalty_Charging>
8.26867e-09

> <r_epik_Ionization_Penalty_Neutral>
2.2868e-06

> <r_epik_State_Penalty>
-0

> <r_epik_Charging_Adjusted_Penalty>
8.26867e-09

> <i_epik_Tot_Q>
0

> <i_epik_Tot_abs_Q>
0

> <r_epik_Metal_State_Penalty>
-0

> <b_epik_Metal_Only>
0

> <s_epik_Chemistry_Notes>
This compound has an ester and may undergo hydrolysis at high or low pH. This compound contains an acetal/aminal-like group ( X-CH(R)-Y where X, Y are N, S, or O) that may be acid/base labile, releasing an aldehyde.

> <s_lp_Force_Field>
OPLS_2005

> <r_lp_Energy>
41.2702

> <b_lp_Chiralities_Consistent>
1

> <s_lp_Variant>
AV-unprocessed.smi:40-14

> <Gold.Version>
5.8.1

> <Gold.Id.Protein>
6NUR|6NUR_protein|mol2

> <Gold.PLP.Fitness>
49.0288

> <Gold.PLP.PLP>
-40.6392

> <Gold.PLP.part.hbond>
-5.7589

> <Gold.PLP.part.metal>
0.0000

> <Gold.PLP.part.buried>
-5.5648

> <Gold.PLP.part.nonpolar>
-29.9162

> <Gold.PLP.part.repulsive>
0.0896

> <Gold.PLP.ligand.clash>
0.0000

> <Gold.PLP.ligand.torsion>
0.2567

> <Gold.PLP.Chemscore.Hbond>
2.9200

> <Gold.PLP.Chemscore.CHOScore>
0.0000

> <Gold.PLP.Chemscore.Metal>
0.0000

> <Gold.Chemscore.Hbonds>
donor molecule, donor type, donor heavy atom, donor atom, acceptor molecule, acceptor atom, score
      L1  H    20    45       P1  8028  0.70
      L1  H    22    46       P1  8028  1.00
      P1  H  7997  8008       L1    11  0.15
      P1  H 10752 10765       L1     8  1.00

> <Gold.PLP.Chemscore.Internal.Correction>
0.1431

> <Gold.Rescore>
     Score         DG    S(hbond)    S(metal)    S(lipo)     H(rot)  DE(clash)    DE(int)     intcor
     11.97     -13.91       2.38        0.00      84.84       3.70       0.27       1.66       ----

> <Gold.Chemscore.Fitness>
11.9731

> <Gold.Chemscore.DG>
-13.9065

> <Gold.Chemscore.ZeroCoef>
-5.4800

> <Gold.Chemscore.Hbond>
2.3835

> <Gold.Chemscore.Metal>
0.0000

> <Gold.Chemscore.Lipo>
84.8441

> <Gold.Chemscore.Internal_Hbond>
0.0000

> <Gold.Chemscore.DEClash>
0.2709

> <Gold.Chemscore.DEInternal>
1.6625

> <Gold.Chemscore.Rot>
3.6957

> <Gold.Chemscore.Internal.Correction>
   9.000000E+99

> <Gold.Chemscore.Hbonds>
donor molecule, donor type, donor heavy atom, donor atom, acceptor molecule, acceptor atom, score
      L1  H    20    45       P1  8028  0.07
      L1  H    22    46       P1  8028  0.97
      P1  H 10752 10765       L1     8  0.95

> <Gold.Chemscore.Hbond.Weighted>
-7.9607

> <Gold.Chemscore.Metal.Weighted>
-0.0000

> <Gold.Chemscore.Lipo.Weighted>
-9.9268

> <Gold.Chemscore.Internal_Hbond.Weighted>
0.0000

> <Gold.Chemscore.DEClash.Weighted>
0.2709

> <Gold.Chemscore.DEInternal.Weighted>
1.6625

> <Gold.Chemscore.Rot.Weighted>
9.4610

> <Gold.Chemscore.Internal.Correction.Weighted>
   9.000000E+99

> <Gold.Protein.RotatedTorsions>
[ 6907 6896 6895 6894 ] final -110.93 input  -60.11 | X-H torsion
[ 7974 7965 7964 7962 ] final -117.17 input  175.53 | X-H torsion
[ 8008 7997 7996 7995 ] final  -66.91 input   59.86 | X-H torsion
[ 10167 10162 10161 10158 ] final  -54.94 input  -65.29 | X-H torsion
[ 10718 10713 10712 10709 ] final   17.12 input   66.30 | X-H torsion
[ 10763 10752 10751 10750 ] final  -80.22 input  -60.55 | X-H torsion
[ 11005 11000 10999 10996 ] final   18.12 input  -57.11 | X-H torsion

> <Gold.Protein.ActiveResidues>
 VAL166  LYS551  ARG553  GLY616  TRP617  ASP618  TYR619  PRO620  LYS621  CYS622 
 ASP623  PHE694  ASN695  SER759  ASP760  ASP761  ALA762  ILE779  LEU786  VAL792 
 PHE793  MET794  SER795  GLU796  ALA797  LYS798  CYS799  TRP800  GLU811  SER814 

> <Gold.Protein.RotatedAtoms>
  150.7656  133.9310  159.3426 H   0  0  0  0  0  0  0  0  0  0  0  0  # atno 6907 bound_to 6896
  151.7209  135.0892  160.0293 H   0  0  0  0  0  0  0  0  0  0  0  0  # atno 6908 bound_to 6896
  152.3651  133.6308  159.6080 H   0  0  0  0  0  0  0  0  0  0  0  0  # atno 6909 bound_to 6896
  145.0883  140.8472  143.3998 H   0  0  0  0  0  0  0  0  0  0  0  0  # atno 7974 bound_to 7965
  154.4765  140.0903  156.7275 H   0  0  0  0  0  0  0  0  0  0  0  0  # atno 8008 bound_to 7997
  155.4582  140.3460  155.4291 H   0  0  0  0  0  0  0  0  0  0  0  0  # atno 8009 bound_to 7997
  156.1125  140.1451  156.9307 H   0  0  0  0  0  0  0  0  0  0  0  0  # atno 8010 bound_to 7997
  140.6402  143.2504  151.5009 H   0  0  0  0  0  0  0  0  0  0  0  0  # atno 10167 bound_to 10162
  157.0776  130.6374  149.5819 H   0  0  0  0  0  0  0  0  0  0  0  0  # atno 10718 bound_to 10713
  154.5485  135.5668  153.6901 H   0  0  0  0  0  0  0  0  0  0  0  0  # atno 10763 bound_to 10752
  152.9983  135.6245  154.2406 H   0  0  0  0  0  0  0  0  0  0  0  0  # atno 10764 bound_to 10752
  154.2340  135.2865  155.2859 H   0  0  0  0  0  0  0  0  0  0  0  0  # atno 10765 bound_to 10752
  140.4283  134.1446  155.7678 H   0  0  0  0  0  0  0  0  0  0  0  0  # atno 11005 bound_to 11000
  145.1096  139.2766  143.5644 LP  0  0  0  0  0  0  0  0  0  0  0  0  # atno 17320 bound_to 7965
  146.3531  140.0688  142.8624 LP  0  0  0  0  0  0  0  0  0  0  0  0  # atno 17321 bound_to 7965
  139.5612  144.2153  152.1693 LP  0  0  0  0  0  0  0  0  0  0  0  0  # atno 17342 bound_to 10162
  140.1421  144.5192  150.6738 LP  0  0  0  0  0  0  0  0  0  0  0  0  # atno 17343 bound_to 10162
  155.9932  130.4993  150.7373 LP  0  0  0  0  0  0  0  0  0  0  0  0  # atno 17370 bound_to 10713
  157.4827  131.0904  151.0518 LP  0  0  0  0  0  0  0  0  0  0  0  0  # atno 17371 bound_to 10713
  141.1756  133.8521  157.1432 LP  0  0  0  0  0  0  0  0  0  0  0  0  # atno 17394 bound_to 11000
  140.0152  134.9971  157.0478 LP  0  0  0  0  0  0  0  0  0  0  0  0  # atno 17395 bound_to 11000

$$$$
