AV-unprocessed.smi:104|AV-procd|sdf|996|dock6
  -GOLD-   2262017573D 1   1.00000     0.00000
 Structure written by MMmdl.
 47 49  0  0  0  0  0  0  0  0  1 V2000
  145.9431  136.4885  162.0114 C   0  0  0  0  0  0  0  0  0  0  0  0
  147.3249  136.5529  161.3731 C   0  0  0  0  0  0  0  0  0  0  0  0
  148.3474  136.5698  162.0581 O   0  0  0  0  0  0  0  0  0  0  0  0
  147.2712  136.5896  160.0332 O   0  0  0  0  0  0  0  0  0  0  0  0
  148.3727  136.1268  159.2650 C   0  0  0  0  0  0  0  0  0  0  0  0
  148.9673  137.2549  158.4042 C   0  0  1  0  0  0  0  0  0  0  0  0
  149.8488  138.0972  159.1437 O   0  0  0  0  0  0  0  0  0  0  0  0
  150.8370  138.5949  158.2903 C   0  0  2  0  0  0  0  0  0  0  0  0
  150.8655  140.0863  158.3710 N   0  0  0  0  0  0  0  0  0  0  0  0
  149.9395  140.9910  157.9044 C   0  0  0  0  0  0  0  0  0  0  0  0
  148.3399  140.4470  157.0253 Br  0  0  0  0  0  0  0  0  0  0  0  0
  150.1881  142.2550  158.1042 N   0  0  0  0  0  0  0  0  0  0  0  0
  151.3978  142.2245  158.7865 C   0  0  0  0  0  0  0  0  0  0  0  0
  152.2518  143.2217  159.3220 C   0  0  0  0  0  0  0  0  0  0  0  0
  151.9912  144.5333  159.2344 N   0  0  0  0  0  0  0  0  0  0  0  0
  153.3836  142.8327  159.9540 N   0  0  0  0  0  0  0  0  0  0  0  0
  153.6670  141.5304  160.0575 C   0  0  0  0  0  0  0  0  0  0  0  0
  152.9689  140.4848  159.6065 N   0  0  0  0  0  0  0  0  0  0  0  0
  151.8287  140.8768  158.9659 C   0  0  0  0  0  0  0  0  0  0  0  0
  150.4930  138.1483  156.8694 C   0  0  1  0  0  0  0  0  0  0  0  0
  151.6698  137.9804  156.0896 O   0  0  0  0  0  0  0  0  0  0  0  0
  152.2508  139.0425  155.5098 C   0  0  0  0  0  0  0  0  0  0  0  0
  153.5991  138.6993  154.8909 C   0  0  0  0  0  0  0  0  0  0  0  0
  151.7849  140.1800  155.4481 O   0  0  0  0  0  0  0  0  0  0  0  0
  149.7332  136.8570  157.1347 C   0  0  1  0  0  0  0  0  0  0  0  0
  150.6259  135.7763  157.3981 O   0  0  0  0  0  0  0  0  0  0  0  0
  151.2411  135.1278  156.3938 C   0  0  0  0  0  0  0  0  0  0  0  0
  151.5263  133.6706  156.7319 C   0  0  0  0  0  0  0  0  0  0  0  0
  151.5612  135.6077  155.3064 O   0  0  0  0  0  0  0  0  0  0  0  0
  145.1814  136.8613  161.3259 H   0  0  0  0  0  0  0  0  0  0  0  0
  145.9165  137.0954  162.9166 H   0  0  0  0  0  0  0  0  0  0  0  0
  145.6983  135.4601  162.2772 H   0  0  0  0  0  0  0  0  0  0  0  0
  149.1516  135.7275  159.9167 H   0  0  0  0  0  0  0  0  0  0  0  0
  148.0359  135.3093  158.6268 H   0  0  0  0  0  0  0  0  0  0  0  0
  148.1367  137.8864  158.0866 H   0  0  0  0  0  0  0  0  0  0  0  0
  151.8123  138.2521  158.6356 H   0  0  0  0  0  0  0  0  0  0  0  0
  151.1527  144.8506  158.7693 H   0  0  0  0  0  0  0  0  0  0  0  0
  152.6356  145.2024  159.6303 H   0  0  0  0  0  0  0  0  0  0  0  0
  154.5850  141.2924  160.5745 H   0  0  0  0  0  0  0  0  0  0  0  0
  149.8196  138.8880  156.4323 H   0  0  0  0  0  0  0  0  0  0  0  0
  154.1638  138.0371  155.5477 H   0  0  0  0  0  0  0  0  0  0  0  0
  154.1853  139.6036  154.7258 H   0  0  0  0  0  0  0  0  0  0  0  0
  153.4562  138.1992  153.9329 H   0  0  0  0  0  0  0  0  0  0  0  0
  149.0427  136.6194  156.3243 H   0  0  0  0  0  0  0  0  0  0  0  0
  151.3443  133.4730  157.7887 H   0  0  0  0  0  0  0  0  0  0  0  0
  152.5655  133.4278  156.5094 H   0  0  0  0  0  0  0  0  0  0  0  0
  150.8838  133.0159  156.1431 H   0  0  0  0  0  0  0  0  0  0  0  0
  1  2  1  0  0  0  0
  1 30  1  0  0  0  0
  1 31  1  0  0  0  0
  1 32  1  0  0  0  0
  2  3  2  0  0  0  0
  2  4  1  0  0  0  0
  4  5  1  0  0  0  0
  5  6  1  0  0  0  0
  5 33  1  0  0  0  0
  5 34  1  0  0  0  0
  6 25  1  0  0  0  0
  6  7  1  0  0  0  0
  6 35  1  0  0  0  0
  7  8  1  0  0  0  0
  8  9  1  0  0  0  0
  8 20  1  0  0  0  0
  8 36  1  0  0  0  0
  9 19  1  0  0  0  0
  9 10  1  0  0  0  0
 10 11  1  0  0  0  0
 10 12  2  0  0  0  0
 12 13  1  0  0  0  0
 13 19  2  0  0  0  0
 13 14  1  0  0  0  0
 14 15  1  0  0  0  0
 14 16  2  0  0  0  0
 15 37  1  0  0  0  0
 15 38  1  0  0  0  0
 16 17  1  0  0  0  0
 17 18  2  0  0  0  0
 17 39  1  0  0  0  0
 18 19  1  0  0  0  0
 20 21  1  0  0  0  0
 20 25  1  0  0  0  0
 20 40  1  0  0  0  0
 21 22  1  0  0  0  0
 22 23  1  0  0  0  0
 22 24  2  0  0  0  0
 23 41  1  0  0  0  0
 23 42  1  0  0  0  0
 23 43  1  0  0  0  0
 25 26  1  0  0  0  0
 25 44  1  0  0  0  0
 26 27  1  0  0  0  0
 27 28  1  0  0  0  0
 27 29  2  0  0  0  0
 28 45  1  0  0  0  0
 28 46  1  0  0  0  0
 28 47  1  0  0  0  0
M  END
> <s_m_source_file>
AV-unprocessed.smi

> <i_m_source_file_index>
104

> <i_lp_mmshare_version>
43012

> <i_f3d_flags>
0

> <s_epik_input>
W0NIM11DKD1PKU9bQ0gyXVtDQEBIXTFPW0NASF0oW0NAQEhdKE9DKD1PKVtDSDNdKVtDQEhdMU9DKD1PKVtDSDNdKW4oYyhCciluMiljKGMyMyluW2NIXW5jM1tOSDJd

> <s_epik_cmdline>
J2VwaWtfcHl0aG9uJywgJy1waCcsICc3LjAnLCAnLXRuJywgJzgnLCAnLW1hJywgJzIwMCcsICctbWV0YWxfYmluZGluZycsICctaW1hZScsICc8aW5maWxlLm1hZT4nLCAnLW9tYWUnLCAnPG91dGZpbGUubWFlPic=

> <r_lp_tautomer_probability>
1

> <r_epik_Ionization_Penalty>
7.36622e-05

> <r_epik_Ionization_Penalty_Charging>
0

> <r_epik_Ionization_Penalty_Neutral>
7.36622e-05

> <r_epik_State_Penalty>
-0

> <r_epik_Charging_Adjusted_Penalty>
0

> <i_epik_Tot_Q>
0

> <i_epik_Tot_abs_Q>
0

> <r_epik_Metal_State_Penalty>
-0

> <b_epik_Metal_Only>
0

> <s_epik_Chemistry_Notes>
This compound has an ester and may undergo hydrolysis at high or low pH. This compound contains an acetal/aminal-like group ( X-CH(R)-Y where X, Y are N, S, or O) that may be acid/base labile, releasing an aldehyde.

> <s_lp_Force_Field>
OPLS_2005

> <r_lp_Energy>
19.7206

> <b_lp_Chiralities_Consistent>
1

> <s_lp_Variant>
AV-unprocessed.smi:104-4

> <Gold.Version>
5.8.1

> <Gold.Id.Protein>
6NUR|6NUR_protein|mol2

> <Gold.PLP.Fitness>
45.8545

> <Gold.PLP.PLP>
-40.5230

> <Gold.PLP.part.hbond>
-3.9199

> <Gold.PLP.part.metal>
0.0000

> <Gold.PLP.part.buried>
-10.2075

> <Gold.PLP.part.nonpolar>
-27.4038

> <Gold.PLP.part.repulsive>
0.3291

> <Gold.PLP.ligand.clash>
0.0000

> <Gold.PLP.ligand.torsion>
1.9837

> <Gold.PLP.Chemscore.Hbond>
3.0000

> <Gold.PLP.Chemscore.CHOScore>
0.0000

> <Gold.PLP.Chemscore.Metal>
0.0000

> <Gold.Chemscore.Hbonds>
donor molecule, donor type, donor heavy atom, donor atom, acceptor molecule, acceptor atom, score
      P1  H  6931  6943       L1     3  1.00
      P1  H  7989  7998       L1    24  0.79
      P1  H 10752 10765       L1    29  0.96

> <Gold.PLP.Chemscore.Internal.Correction>
0.2990

> <Gold.Rescore>
     Score         DG    S(hbond)    S(metal)    S(lipo)     H(rot)  DE(clash)    DE(int)     intcor
      3.84      -8.58       2.93        0.00      37.19       4.31       0.02       4.72       ----

> <Gold.Chemscore.Fitness>
3.8411

> <Gold.Chemscore.DG>
-8.5813

> <Gold.Chemscore.ZeroCoef>
-5.4800

> <Gold.Chemscore.Hbond>
2.9269

> <Gold.Chemscore.Metal>
0.0000

> <Gold.Chemscore.Lipo>
37.1912

> <Gold.Chemscore.Internal_Hbond>
0.0000

> <Gold.Chemscore.DEClash>
0.0181

> <Gold.Chemscore.DEInternal>
4.7222

> <Gold.Chemscore.Rot>
4.3070

> <Gold.Chemscore.Internal.Correction>
   9.000000E+99

> <Gold.Chemscore.Hbonds>
donor molecule, donor type, donor heavy atom, donor atom, acceptor molecule, acceptor atom, score
      P1  H  6931  6943       L1     3  0.60
      P1  H  7989  7998       L1    24  0.62
      P1  H 10752 10765       L1    29  0.91

> <Gold.Chemscore.Hbond.Weighted>
-9.7758

> <Gold.Chemscore.Metal.Weighted>
-0.0000

> <Gold.Chemscore.Lipo.Weighted>
-4.3514

> <Gold.Chemscore.Internal_Hbond.Weighted>
0.0000

> <Gold.Chemscore.DEClash.Weighted>
0.0181

> <Gold.Chemscore.DEInternal.Weighted>
4.7222

> <Gold.Chemscore.Rot.Weighted>
11.0259

> <Gold.Chemscore.Internal.Correction.Weighted>
   9.000000E+99

> <Gold.Protein.RotatedTorsions>
[ 6907 6896 6895 6894 ] final -168.12 input  -60.11 | X-H torsion
[ 7974 7965 7964 7962 ] final  144.68 input  175.53 | X-H torsion
[ 8008 7997 7996 7995 ] final  -46.64 input   59.86 | X-H torsion
[ 10167 10162 10161 10158 ] final   32.33 input  -65.29 | X-H torsion
[ 10718 10713 10712 10709 ] final -161.19 input   66.30 | X-H torsion
[ 10763 10752 10751 10750 ] final -171.52 input  -60.55 | X-H torsion
[ 11005 11000 10999 10996 ] final  122.91 input  -57.11 | X-H torsion

> <Gold.Protein.ActiveResidues>
 VAL166  LYS551  ARG553  GLY616  TRP617  ASP618  TYR619  PRO620  LYS621  CYS622 
 ASP623  PHE694  ASN695  SER759  ASP760  ASP761  ALA762  ILE779  LEU786  VAL792 
 PHE793  MET794  SER795  GLU796  ALA797  LYS798  CYS799  TRP800  GLU811  SER814 

> <Gold.Protein.RotatedAtoms>
  151.4704  133.3570  159.2822 H   0  0  0  0  0  0  0  0  0  0  0  0  # atno 6907 bound_to 6896
  150.8965  134.8375  159.7341 H   0  0  0  0  0  0  0  0  0  0  0  0  # atno 6908 bound_to 6896
  152.4854  134.4620  159.9660 H   0  0  0  0  0  0  0  0  0  0  0  0  # atno 6909 bound_to 6896
  144.8816  139.5691  143.5840 H   0  0  0  0  0  0  0  0  0  0  0  0  # atno 7974 bound_to 7965
  154.4009  140.1366  156.4045 H   0  0  0  0  0  0  0  0  0  0  0  0  # atno 8008 bound_to 7997
  155.7793  140.3482  155.5268 H   0  0  0  0  0  0  0  0  0  0  0  0  # atno 8009 bound_to 7997
  155.8690  140.0968  157.1553 H   0  0  0  0  0  0  0  0  0  0  0  0  # atno 8010 bound_to 7997
  140.4508  144.1051  150.6191 H   0  0  0  0  0  0  0  0  0  0  0  0  # atno 10167 bound_to 10162
  156.5927  130.8777  151.2894 H   0  0  0  0  0  0  0  0  0  0  0  0  # atno 10718 bound_to 10713
  154.6296  135.2885  155.0232 H   0  0  0  0  0  0  0  0  0  0  0  0  # atno 10763 bound_to 10752
  154.1397  135.6520  153.4943 H   0  0  0  0  0  0  0  0  0  0  0  0  # atno 10764 bound_to 10752
  153.0273  135.5330  154.7118 H   0  0  0  0  0  0  0  0  0  0  0  0  # atno 10765 bound_to 10752
  139.9289  134.9641  156.8180 H   0  0  0  0  0  0  0  0  0  0  0  0  # atno 11005 bound_to 11000
  146.2998  139.7390  142.9100 LP  0  0  0  0  0  0  0  0  0  0  0  0  # atno 17320 bound_to 7965
  145.3944  141.0377  143.3105 LP  0  0  0  0  0  0  0  0  0  0  0  0  # atno 17321 bound_to 7965
  140.4209  143.2612  151.9716 LP  0  0  0  0  0  0  0  0  0  0  0  0  # atno 17342 bound_to 10162
  139.4796  144.5831  151.7899 LP  0  0  0  0  0  0  0  0  0  0  0  0  # atno 17343 bound_to 10162
  157.7299  130.9678  150.1810 LP  0  0  0  0  0  0  0  0  0  0  0  0  # atno 17370 bound_to 10713
  156.2535  130.3703  149.8206 LP  0  0  0  0  0  0  0  0  0  0  0  0  # atno 17371 bound_to 10713
  140.6258  133.9952  155.7639 LP  0  0  0  0  0  0  0  0  0  0  0  0  # atno 17394 bound_to 11000
  141.0865  133.9983  157.3305 LP  0  0  0  0  0  0  0  0  0  0  0  0  # atno 17395 bound_to 11000

$$$$
