AV-unprocessed.smi:2027|AV-procd|sdf|8217|dock1
  -GOLD-   2272010483D 1   1.00000     0.00000
 Structure written by MMmdl.
 51 53  0  0  0  0  0  0  0  0  3 V2000
  153.6012  142.5761  160.2894 C   0  0  0  0  0  0  0  0  0  0  0  0
  152.5652  142.2055  159.2420 C   0  0  0  0  0  0  0  0  0  0  0  0
  152.2750  140.8379  159.0347 C   0  0  0  0  0  0  0  0  0  0  0  0
  151.3213  140.5308  158.0716 C   0  0  0  0  0  0  0  0  0  0  0  0
  150.8162  139.3016  157.6419 N   0  3  0  0  0  0  0  0  0  0  0  0
  149.8847  139.5073  156.6698 C   0  0  0  0  0  0  0  0  0  0  0  0
  149.7963  140.8501  156.4645 N   0  0  0  0  0  0  0  0  0  0  0  0
  148.9455  141.6125  155.5425 C   0  0  0  0  0  0  0  0  0  0  0  0
  148.5002  140.8010  154.3086 C   0  0  2  0  0  0  0  0  0  0  0  0
  149.3598  141.1429  153.2405 O   0  0  0  0  0  0  0  0  0  0  0  0
  147.0434  141.0714  153.8792 C   0  0  0  0  0  0  0  0  0  0  0  0
  146.4629  139.9123  153.1497 N   0  3  1  0  0  0  0  0  0  0  0  0
  147.1346  139.6612  151.8535 C   0  0  0  0  0  0  0  0  0  0  0  0
  146.3605  138.6802  153.9710 C   0  0  0  0  0  0  0  0  0  0  0  0
  145.4783  137.6553  153.3089 C   0  0  0  0  0  0  0  0  0  0  0  0
  145.7292  136.9254  152.1117 C   0  0  0  0  0  0  0  0  0  0  0  0
  144.7566  136.0818  151.8104 N   0  0  0  0  0  0  0  0  0  0  0  0
  143.8483  136.2508  152.7924 N   0  0  0  0  0  0  0  0  0  0  0  0
  142.6307  135.4689  152.7796 C   0  0  0  0  0  0  0  0  0  0  0  0
  144.2541  137.1972  153.7079 C   0  0  0  0  0  0  0  0  0  0  0  0
  150.6661  141.5288  157.3247 C   0  0  0  0  0  0  0  0  0  0  0  0
  150.9369  142.8810  157.5187 C   0  0  0  0  0  0  0  0  0  0  0  0
  151.9037  143.2138  158.4940 C   0  0  0  0  0  0  0  0  0  0  0  0
  152.2200  144.6812  158.7290 C   0  0  0  0  0  0  0  0  0  0  0  0
  154.0309  141.6898  160.7571 H   0  0  0  0  0  0  0  0  0  0  0  0
  153.1498  143.1819  161.0753 H   0  0  0  0  0  0  0  0  0  0  0  0
  154.4165  143.1426  159.8394 H   0  0  0  0  0  0  0  0  0  0  0  0
  152.7715  140.0654  159.6040 H   0  0  0  0  0  0  0  0  0  0  0  0
  149.3197  138.7429  156.1557 H   0  0  0  0  0  0  0  0  0  0  0  0
  148.0751  141.9488  156.1080 H   0  0  0  0  0  0  0  0  0  0  0  0
  149.4879  142.5114  155.2449 H   0  0  0  0  0  0  0  0  0  0  0  0
  148.6354  139.7398  154.5138 H   0  0  0  0  0  0  0  0  0  0  0  0
  149.2923  140.4795  152.5700 H   0  0  0  0  0  0  0  0  0  0  0  0
  146.4136  141.2962  154.7406 H   0  0  0  0  0  0  0  0  0  0  0  0
  147.0295  141.9710  153.2639 H   0  0  0  0  0  0  0  0  0  0  0  0
  148.1639  139.3333  152.0043 H   0  0  0  0  0  0  0  0  0  0  0  0
  147.1505  140.5582  151.2346 H   0  0  0  0  0  0  0  0  0  0  0  0
  146.6104  138.8878  151.2912 H   0  0  0  0  0  0  0  0  0  0  0  0
  147.3577  138.2621  154.1147 H   0  0  0  0  0  0  0  0  0  0  0  0
  145.9979  138.9403  154.9665 H   0  0  0  0  0  0  0  0  0  0  0  0
  146.5902  136.9770  151.4616 H   0  0  0  0  0  0  0  0  0  0  0  0
  141.9760  135.7814  153.5937 H   0  0  0  0  0  0  0  0  0  0  0  0
  142.8702  134.4123  152.9029 H   0  0  0  0  0  0  0  0  0  0  0  0
  142.1092  135.6103  151.8324 H   0  0  0  0  0  0  0  0  0  0  0  0
  143.6485  137.4575  154.5635 H   0  0  0  0  0  0  0  0  0  0  0  0
  150.4299  143.6490  156.9530 H   0  0  0  0  0  0  0  0  0  0  0  0
  151.6365  145.3260  158.0713 H   0  0  0  0  0  0  0  0  0  0  0  0
  153.2748  144.8824  158.5404 H   0  0  0  0  0  0  0  0  0  0  0  0
  151.9921  144.9615  159.7574 H   0  0  0  0  0  0  0  0  0  0  0  0
  145.5103  140.1695  152.9310 H   0  0  0  0  0  0  0  0  0  0  0  0
  151.0801  138.3888  157.9908 H   0  0  0  0  0  0  0  0  0  0  0  0
  1  2  1  0  0  0  0
  1 25  1  0  0  0  0
  1 26  1  0  0  0  0
  1 27  1  0  0  0  0
  2 23  1  0  0  0  0
  2  3  2  0  0  0  0
  3  4  1  0  0  0  0
  3 28  1  0  0  0  0
  4 21  2  0  0  0  0
  4  5  1  0  0  0  0
  5  6  2  0  0  0  0
  5 51  1  0  0  0  0
  6  7  1  0  0  0  0
  6 29  1  0  0  0  0
  7  8  1  0  0  0  0
  7 21  1  0  0  0  0
  8  9  1  0  0  0  0
  8 30  1  0  0  0  0
  8 31  1  0  0  0  0
  9 10  1  0  0  0  0
  9 11  1  0  0  0  0
  9 32  1  0  0  0  0
 10 33  1  0  0  0  0
 11 12  1  0  0  0  0
 11 34  1  0  0  0  0
 11 35  1  0  0  0  0
 12 13  1  0  0  0  0
 12 14  1  0  0  0  0
 12 50  1  0  0  0  0
 13 36  1  0  0  0  0
 13 37  1  0  0  0  0
 13 38  1  0  0  0  0
 14 15  1  0  0  0  0
 14 39  1  0  0  0  0
 14 40  1  0  0  0  0
 15 20  2  0  0  0  0
 15 16  1  0  0  0  0
 16 17  2  0  0  0  0
 16 41  1  0  0  0  0
 17 18  1  0  0  0  0
 18 19  1  0  0  0  0
 18 20  1  0  0  0  0
 19 42  1  0  0  0  0
 19 43  1  0  0  0  0
 19 44  1  0  0  0  0
 20 45  1  0  0  0  0
 21 22  1  0  0  0  0
 22 23  2  0  0  0  0
 22 46  1  0  0  0  0
 23 24  1  0  0  0  0
 24 47  1  0  0  0  0
 24 48  1  0  0  0  0
 24 49  1  0  0  0  0
M  CHG  1   5   1
M  CHG  1  12   1
M  END
> <s_m_source_file>
AV-unprocessed.smi

> <i_m_source_file_index>
2027

> <i_lp_mmshare_version>
43012

> <i_f3d_flags>
0

> <s_epik_input>
W0NIM11jKFtjSF0xKWMoW0NIM10pW2NIXWMoYzEyKW4oW2NIXW4yKVtDSDJdW0NASF0oW09IXSlbQ0gyXU4oW0NIM10pW0NIMl1jM1tjSF1ubihbQ0gzXSlbY0hdMw==

> <s_epik_cmdline>
J2VwaWtfcHl0aG9uJywgJy1waCcsICc3LjAnLCAnLXRuJywgJzgnLCAnLW1hJywgJzIwMCcsICctbWV0YWxfYmluZGluZycsICctaW1hZScsICc8aW5maWxlLm1hZT4nLCAnLW9tYWUnLCAnPG91dGZpbGUubWFlPic=

> <r_lp_tautomer_probability>
1

> <r_epik_Ionization_Penalty>
1.77469

> <r_epik_Ionization_Penalty_Charging>
1.77463

> <r_epik_Ionization_Penalty_Neutral>
6.41153e-05

> <r_epik_State_Penalty>
1.85225

> <r_epik_Charging_Adjusted_Penalty>
3.62688

> <i_epik_Tot_Q>
2

> <i_epik_Tot_abs_Q>
2

> <r_epik_Metal_State_Penalty>
1.92669

> <b_epik_Metal_Only>
0

> <s_lp_Force_Field>
OPLS_2005

> <r_lp_Energy>
21.1473

> <b_lp_Chiralities_Consistent>
1

> <s_lp_Variant>
AV-unprocessed.smi:2027-9

> <Gold.Version>
5.8.1

> <Gold.Id.Protein>
6NUR|6NUR_protein|mol2

> <Gold.PLP.Fitness>
57.0319

> <Gold.PLP.PLP>
-44.7676

> <Gold.PLP.part.hbond>
-3.3173

> <Gold.PLP.part.metal>
0.0000

> <Gold.PLP.part.buried>
-2.9262

> <Gold.PLP.part.nonpolar>
-39.6537

> <Gold.PLP.part.repulsive>
0.2182

> <Gold.PLP.ligand.clash>
0.0000

> <Gold.PLP.ligand.torsion>
1.2974

> <Gold.PLP.Chemscore.Hbond>
3.8541

> <Gold.PLP.Chemscore.CHOScore>
1.0000

> <Gold.PLP.Chemscore.Metal>
0.0000

> <Gold.Chemscore.Hbonds>
donor molecule, donor type, donor heavy atom, donor atom, acceptor molecule, acceptor atom, score
      L1  H    10    33       P1  7957  0.90
      L1  H    12    50       P1 10175  2.00
      P1  H  7989  7998       L1    10  0.04
      P1  H  8011  8017       L1    10  1.00
      L1  C    16    41       P1  7948  1.00

> <Gold.PLP.Chemscore.Internal.Correction>
0.2967

> <Gold.Rescore>
     Score         DG    S(hbond)    S(metal)    S(lipo)     H(rot)  DE(clash)    DE(int)     intcor
     18.95     -20.90       2.32        0.00     122.22       2.58       0.43       1.53       ----

> <Gold.Chemscore.Fitness>
18.9463

> <Gold.Chemscore.DG>
-20.9036

> <Gold.Chemscore.ZeroCoef>
-5.4800

> <Gold.Chemscore.Hbond>
2.3167

> <Gold.Chemscore.Metal>
0.0000

> <Gold.Chemscore.Lipo>
122.2201

> <Gold.Chemscore.Internal_Hbond>
0.0000

> <Gold.Chemscore.DEClash>
0.4307

> <Gold.Chemscore.DEInternal>
1.5267

> <Gold.Chemscore.Rot>
2.5836

> <Gold.Chemscore.Internal.Correction>
   9.000000E+99

> <Gold.Chemscore.Hbonds>
donor molecule, donor type, donor heavy atom, donor atom, acceptor molecule, acceptor atom, score
      L1  H    10    33       P1  7957  0.83
      L1  H    12    50       P1 10175  0.98
      P1  H  8011  8017       L1    10  0.25

> <Gold.Chemscore.Hbond.Weighted>
-7.7378

> <Gold.Chemscore.Metal.Weighted>
-0.0000

> <Gold.Chemscore.Lipo.Weighted>
-14.2998

> <Gold.Chemscore.Internal_Hbond.Weighted>
0.0000

> <Gold.Chemscore.DEClash.Weighted>
0.4307

> <Gold.Chemscore.DEInternal.Weighted>
1.5267

> <Gold.Chemscore.Rot.Weighted>
6.6139

> <Gold.Chemscore.Internal.Correction.Weighted>
   9.000000E+99

> <Gold.Protein.RotatedTorsions>
[ 6907 6896 6895 6894 ] final   16.34 input  -60.11 | X-H torsion
[ 7974 7965 7964 7962 ] final  131.59 input  175.53 | X-H torsion
[ 8008 7997 7996 7995 ] final -130.65 input   59.86 | X-H torsion
[ 10167 10162 10161 10158 ] final -147.59 input  -65.29 | X-H torsion
[ 10718 10713 10712 10709 ] final   37.60 input   66.30 | X-H torsion
[ 10763 10752 10751 10750 ] final  -40.30 input  -60.55 | X-H torsion
[ 11005 11000 10999 10996 ] final -119.15 input  -57.11 | X-H torsion

> <Gold.Protein.ActiveResidues>
 VAL166  LYS551  ARG553  GLY616  TRP617  ASP618  TYR619  PRO620  LYS621  CYS622 
 ASP623  PHE694  ASN695  SER759  ASP760  ASP761  ALA762  ILE779  LEU786  VAL792 
 PHE793  MET794  SER795  GLU796  ALA797  LYS798  CYS799  TRP800  GLU811  SER814 

> <Gold.Protein.RotatedAtoms>
  151.8324  135.0617  160.0438 H   0  0  0  0  0  0  0  0  0  0  0  0  # atno 6907 bound_to 6896
  152.2870  133.5520  159.5542 H   0  0  0  0  0  0  0  0  0  0  0  0  # atno 6908 bound_to 6896
  150.7214  134.0398  159.3804 H   0  0  0  0  0  0  0  0  0  0  0  0  # atno 6909 bound_to 6896
  145.0057  139.4269  143.5270 H   0  0  0  0  0  0  0  0  0  0  0  0  # atno 7974 bound_to 7965
  155.2993  140.0452  157.3028 H   0  0  0  0  0  0  0  0  0  0  0  0  # atno 8008 bound_to 7997
  154.5496  140.2313  155.8474 H   0  0  0  0  0  0  0  0  0  0  0  0  # atno 8009 bound_to 7997
  156.1955  140.3039  155.9425 H   0  0  0  0  0  0  0  0  0  0  0  0  # atno 8010 bound_to 7997
  139.7608  143.8380  152.2606 H   0  0  0  0  0  0  0  0  0  0  0  0  # atno 10167 bound_to 10162
  157.3489  130.7587  149.6964 H   0  0  0  0  0  0  0  0  0  0  0  0  # atno 10718 bound_to 10713
  153.9437  135.6758  153.4744 H   0  0  0  0  0  0  0  0  0  0  0  0  # atno 10763 bound_to 10752
  153.0918  135.4870  154.8702 H   0  0  0  0  0  0  0  0  0  0  0  0  # atno 10764 bound_to 10752
  154.7363  135.3150  154.8764 H   0  0  0  0  0  0  0  0  0  0  0  0  # atno 10765 bound_to 10752
  141.0236  134.0088  157.3247 H   0  0  0  0  0  0  0  0  0  0  0  0  # atno 11005 bound_to 11000
  146.3460  139.9471  142.8733 LP  0  0  0  0  0  0  0  0  0  0  0  0  # atno 17320 bound_to 7965
  145.2092  140.9888  143.4110 LP  0  0  0  0  0  0  0  0  0  0  0  0  # atno 17321 bound_to 7965
  139.8386  144.7221  150.9360 LP  0  0  0  0  0  0  0  0  0  0  0  0  # atno 17342 bound_to 10162
  140.7807  143.4004  151.1158 LP  0  0  0  0  0  0  0  0  0  0  0  0  # atno 17343 bound_to 10162
  155.9718  130.4146  150.4141 LP  0  0  0  0  0  0  0  0  0  0  0  0  # atno 17370 bound_to 10713
  157.2201  131.0480  151.2551 LP  0  0  0  0  0  0  0  0  0  0  0  0  # atno 17371 bound_to 10713
  139.9161  135.0197  156.7887 LP  0  0  0  0  0  0  0  0  0  0  0  0  # atno 17394 bound_to 11000
  140.6531  133.9713  155.7765 LP  0  0  0  0  0  0  0  0  0  0  0  0  # atno 17395 bound_to 11000

$$$$
