AV-unprocessed.smi:240|AV-procd|sdf|1839|dock1
  -GOLD-   2262020453D 1   1.00000     0.00000
 Structure written by MMmdl.
 55 59  0  0  0  0  0  0  0  0  1 V2000
  150.6415  140.5086  154.8157 O   0  0  0  0  0  0  0  0  0  0  0  0
  149.8636  141.3228  155.6684 C   0  0  1  0  0  0  0  0  0  0  0  0
  148.3695  141.0794  155.4619 C   0  0  0  0  0  0  0  0  0  0  0  0
  147.7241  141.6025  156.7478 C   0  0  0  0  0  0  0  0  0  0  0  0
  148.7902  141.4675  157.8476 C   0  0  0  0  0  0  0  0  0  0  0  0
  150.0776  140.9828  157.1510 C   0  0  2  0  0  0  0  0  0  0  0  0
  151.4206  141.4695  157.7773 C   0  0  1  0  0  0  0  0  0  0  0  0
  151.2709  142.7295  158.6687 C   0  0  0  0  0  0  0  0  0  0  0  0
  152.5364  143.1216  159.1876 O   0  0  0  0  0  0  0  0  0  0  0  0
  153.1079  142.1135  160.0099 C   0  0  0  0  0  0  0  0  0  0  0  0
  153.3505  140.8592  159.1611 C   0  0  0  0  0  0  0  0  0  0  0  0
  152.1067  140.4173  158.5411 N   0  0  0  0  0  0  0  0  0  0  0  0
  152.2780  139.2246  157.9275 C   0  0  0  0  0  0  0  0  0  0  0  0
  153.5112  138.9611  157.4306 N   0  0  0  0  0  0  0  0  0  0  0  0
  153.7521  137.7936  156.8265 C   0  0  0  0  0  0  0  0  0  0  0  0
  152.9157  136.7756  156.6127 N   0  0  0  0  0  0  0  0  0  0  0  0
  151.6691  137.0456  157.0967 C   0  0  0  0  0  0  0  0  0  0  0  0
  151.2656  138.2362  157.7639 C   0  0  0  0  0  0  0  0  0  0  0  0
  149.9249  138.1493  158.1181 N   0  0  0  0  0  0  0  0  0  0  0  0
  149.5596  136.9705  157.6939 C   0  0  0  0  0  0  0  0  0  0  0  0
  150.5409  136.2439  157.0577 N   0  0  0  0  0  0  0  0  0  0  0  0
  150.4132  134.9063  156.4973 C   0  0  0  0  0  0  0  0  0  0  0  0
  149.7430  134.8577  155.1002 C   0  0  2  0  0  0  0  0  0  0  0  0
  150.3660  135.8004  154.2472 O   0  0  0  0  0  0  0  0  0  0  0  0
  148.2347  135.1187  155.1175 C   0  0  0  0  0  0  0  0  0  0  0  0
  147.6406  133.7201  155.0319 C   0  0  0  0  0  0  0  0  0  0  0  0
  148.5202  133.0721  154.1314 O   0  0  0  0  0  0  0  0  0  0  0  0
  149.8468  133.4519  154.4738 C   0  0  0  0  0  0  0  0  0  0  0  0
  150.3773  139.6091  154.9360 H   0  0  0  0  0  0  0  0  0  0  0  0
  150.0768  142.3707  155.4624 H   0  0  0  0  0  0  0  0  0  0  0  0
  147.9818  141.5674  154.5671 H   0  0  0  0  0  0  0  0  0  0  0  0
  148.1727  140.0100  155.3690 H   0  0  0  0  0  0  0  0  0  0  0  0
  147.4590  142.6534  156.6248 H   0  0  0  0  0  0  0  0  0  0  0  0
  146.8092  141.0613  156.9906 H   0  0  0  0  0  0  0  0  0  0  0  0
  148.9247  142.4268  158.3454 H   0  0  0  0  0  0  0  0  0  0  0  0
  148.4795  140.7565  158.6139 H   0  0  0  0  0  0  0  0  0  0  0  0
  150.0533  139.8928  157.1998 H   0  0  0  0  0  0  0  0  0  0  0  0
  152.0780  141.7517  156.9550 H   0  0  0  0  0  0  0  0  0  0  0  0
  150.8867  143.5713  158.0952 H   0  0  0  0  0  0  0  0  0  0  0  0
  150.5792  142.5662  159.4951 H   0  0  0  0  0  0  0  0  0  0  0  0
  154.0496  142.4791  160.4192 H   0  0  0  0  0  0  0  0  0  0  0  0
  152.4530  141.8960  160.8553 H   0  0  0  0  0  0  0  0  0  0  0  0
  154.0898  141.0738  158.3878 H   0  0  0  0  0  0  0  0  0  0  0  0
  153.7607  140.0650  159.7870 H   0  0  0  0  0  0  0  0  0  0  0  0
  154.7600  137.6536  156.4649 H   0  0  0  0  0  0  0  0  0  0  0  0
  148.5554  136.5976  157.8335 H   0  0  0  0  0  0  0  0  0  0  0  0
  151.4102  134.4664  156.4471 H   0  0  0  0  0  0  0  0  0  0  0  0
  149.8488  134.2963  157.2039 H   0  0  0  0  0  0  0  0  0  0  0  0
  149.7106  136.1622  153.6704 H   0  0  0  0  0  0  0  0  0  0  0  0
  147.8806  135.6688  155.9876 H   0  0  0  0  0  0  0  0  0  0  0  0
  147.9291  135.6807  154.2335 H   0  0  0  0  0  0  0  0  0  0  0  0
  147.6656  133.2207  156.0017 H   0  0  0  0  0  0  0  0  0  0  0  0
  146.6141  133.7184  154.6651 H   0  0  0  0  0  0  0  0  0  0  0  0
  150.4918  133.4158  153.5949 H   0  0  0  0  0  0  0  0  0  0  0  0
  150.2349  132.7274  155.1915 H   0  0  0  0  0  0  0  0  0  0  0  0
  1  2  1  0  0  0  0
  1 29  1  0  0  0  0
  2  6  1  0  0  0  0
  2  3  1  0  0  0  0
  2 30  1  0  0  0  0
  3  4  1  0  0  0  0
  3 31  1  0  0  0  0
  3 32  1  0  0  0  0
  4  5  1  0  0  0  0
  4 33  1  0  0  0  0
  4 34  1  0  0  0  0
  5  6  1  0  0  0  0
  5 35  1  0  0  0  0
  5 36  1  0  0  0  0
  6  7  1  0  0  0  0
  6 37  1  0  0  0  0
  7 12  1  0  0  0  0
  7  8  1  0  0  0  0
  7 38  1  0  0  0  0
  8  9  1  0  0  0  0
  8 39  1  0  0  0  0
  8 40  1  0  0  0  0
  9 10  1  0  0  0  0
 10 11  1  0  0  0  0
 10 41  1  0  0  0  0
 10 42  1  0  0  0  0
 11 12  1  0  0  0  0
 11 43  1  0  0  0  0
 11 44  1  0  0  0  0
 12 13  1  0  0  0  0
 13 18  1  0  0  0  0
 13 14  2  0  0  0  0
 14 15  1  0  0  0  0
 15 16  2  0  0  0  0
 15 45  1  0  0  0  0
 16 17  1  0  0  0  0
 17 21  1  0  0  0  0
 17 18  2  0  0  0  0
 18 19  1  0  0  0  0
 19 20  2  0  0  0  0
 20 21  1  0  0  0  0
 20 46  1  0  0  0  0
 21 22  1  0  0  0  0
 22 23  1  0  0  0  0
 22 47  1  0  0  0  0
 22 48  1  0  0  0  0
 23 28  1  0  0  0  0
 23 24  1  0  0  0  0
 23 25  1  0  0  0  0
 24 49  1  0  0  0  0
 25 26  1  0  0  0  0
 25 50  1  0  0  0  0
 25 51  1  0  0  0  0
 26 27  1  0  0  0  0
 26 52  1  0  0  0  0
 26 53  1  0  0  0  0
 27 28  1  0  0  0  0
 28 54  1  0  0  0  0
 28 55  1  0  0  0  0
M  END
> <s_m_source_file>
AV-unprocessed.smi

> <i_m_source_file_index>
240

> <i_lp_mmshare_version>
43012

> <i_f3d_flags>
0

> <s_epik_input>
W09IXVtDQEBIXTFbQ0gyXVtDSDJdW0NIMl1bQ0BIXTFbQ0BASF0yW0NIMl1PW0NIMl1bQ0gyXU4yYyhuW2NIXW4zKWMoYzM0KW5bY0hdbjRbQ0gyXVtDQEBdNShbT0hdKVtDSDJdW0NIMl1PW0NIMl01

> <s_epik_cmdline>
J2VwaWtfcHl0aG9uJywgJy1waCcsICc3LjAnLCAnLXRuJywgJzgnLCAnLW1hJywgJzIwMCcsICctbWV0YWxfYmluZGluZycsICctaW1hZScsICc8aW5maWxlLm1hZT4nLCAnLW9tYWUnLCAnPG91dGZpbGUubWFlPic=

> <r_lp_tautomer_probability>
1

> <r_epik_Ionization_Penalty>
0.000130618

> <r_epik_Ionization_Penalty_Charging>
0

> <r_epik_Ionization_Penalty_Neutral>
0.000130618

> <r_epik_State_Penalty>
-0

> <r_epik_Charging_Adjusted_Penalty>
0

> <i_epik_Tot_Q>
0

> <i_epik_Tot_abs_Q>
0

> <r_epik_Metal_State_Penalty>
-0

> <b_epik_Metal_Only>
0

> <s_lp_Force_Field>
OPLS_2005

> <r_lp_Energy>
62.6221

> <b_lp_Chiralities_Consistent>
1

> <s_lp_Variant>
AV-unprocessed.smi:240-16

> <Gold.Version>
5.8.1

> <Gold.Id.Protein>
6NUR|6NUR_protein|mol2

> <Gold.PLP.Fitness>
43.5728

> <Gold.PLP.PLP>
-35.7525

> <Gold.PLP.part.hbond>
-4.9889

> <Gold.PLP.part.metal>
0.0000

> <Gold.PLP.part.buried>
-6.0143

> <Gold.PLP.part.nonpolar>
-24.1375

> <Gold.PLP.part.repulsive>
0.0975

> <Gold.PLP.ligand.clash>
0.0000

> <Gold.PLP.ligand.torsion>
2.2171

> <Gold.PLP.Chemscore.Hbond>
3.9670

> <Gold.PLP.Chemscore.CHOScore>
0.0000

> <Gold.PLP.Chemscore.Metal>
0.0000

> <Gold.Chemscore.Hbonds>
donor molecule, donor type, donor heavy atom, donor atom, acceptor molecule, acceptor atom, score
      L1  H    24    49       P1  7948  0.91
      P1  H  7989  7998       L1     1  1.00
      P1  H  7997  8010       L1    14  1.00
      P1  H 10752 10764       L1    16  0.96

> <Gold.PLP.Chemscore.Internal.Correction>
0.3535

> <Gold.Rescore>
     Score         DG    S(hbond)    S(metal)    S(lipo)     H(rot)  DE(clash)    DE(int)     intcor
     13.41     -17.81       3.13        0.00      81.81       3.00       0.08       4.32       ----

> <Gold.Chemscore.Fitness>
13.4127

> <Gold.Chemscore.DG>
-17.8098

> <Gold.Chemscore.ZeroCoef>
-5.4800

> <Gold.Chemscore.Hbond>
3.1280

> <Gold.Chemscore.Metal>
0.0000

> <Gold.Chemscore.Lipo>
81.8145

> <Gold.Chemscore.Internal_Hbond>
0.0000

> <Gold.Chemscore.DEClash>
0.0819

> <Gold.Chemscore.DEInternal>
4.3152

> <Gold.Chemscore.Rot>
3.0039

> <Gold.Chemscore.Internal.Correction>
   9.000000E+99

> <Gold.Chemscore.Hbonds>
donor molecule, donor type, donor heavy atom, donor atom, acceptor molecule, acceptor atom, score
      L1  H    24    49       P1  7948  0.27
      P1  H  7989  7998       L1     1  0.92
      P1  H  7997  8010       L1    14  0.63
      P1  H 10752 10764       L1    16  0.85

> <Gold.Chemscore.Hbond.Weighted>
-10.4474

> <Gold.Chemscore.Metal.Weighted>
-0.0000

> <Gold.Chemscore.Lipo.Weighted>
-9.5723

> <Gold.Chemscore.Internal_Hbond.Weighted>
0.0000

> <Gold.Chemscore.DEClash.Weighted>
0.0819

> <Gold.Chemscore.DEInternal.Weighted>
4.3152

> <Gold.Chemscore.Rot.Weighted>
7.6899

> <Gold.Chemscore.Internal.Correction.Weighted>
   9.000000E+99

> <Gold.Protein.RotatedTorsions>
[ 6907 6896 6895 6894 ] final -167.80 input  -60.11 | X-H torsion
[ 7974 7965 7964 7962 ] final  -82.11 input  175.53 | X-H torsion
[ 8008 7997 7996 7995 ] final   51.23 input   59.86 | X-H torsion
[ 10167 10162 10161 10158 ] final   30.26 input  -65.29 | X-H torsion
[ 10718 10713 10712 10709 ] final  104.38 input   66.30 | X-H torsion
[ 10763 10752 10751 10750 ] final   -6.42 input  -60.55 | X-H torsion
[ 11005 11000 10999 10996 ] final  -54.38 input  -57.11 | X-H torsion

> <Gold.Protein.ActiveResidues>
 VAL166  LYS551  ARG553  GLY616  TRP617  ASP618  TYR619  PRO620  LYS621  CYS622 
 ASP623  PHE694  ASN695  SER759  ASP760  ASP761  ALA762  ILE779  LEU786  VAL792 
 PHE793  MET794  SER795  GLU796  ALA797  LYS798  CYS799  TRP800  GLU811  SER814 

> <Gold.Protein.RotatedAtoms>
  151.4653  133.3582  159.2815 H   0  0  0  0  0  0  0  0  0  0  0  0  # atno 6907 bound_to 6896
  150.8997  134.8410  159.7362 H   0  0  0  0  0  0  0  0  0  0  0  0  # atno 6908 bound_to 6896
  152.4872  134.4572  159.9645 H   0  0  0  0  0  0  0  0  0  0  0  0  # atno 6909 bound_to 6896
  145.5377  140.9513  143.1568 H   0  0  0  0  0  0  0  0  0  0  0  0  # atno 7974 bound_to 7965
  155.4319  140.3451  155.4281 H   0  0  0  0  0  0  0  0  0  0  0  0  # atno 8008 bound_to 7997
  156.1331  140.1520  156.9066 H   0  0  0  0  0  0  0  0  0  0  0  0  # atno 8009 bound_to 7997
  154.4910  140.0841  156.7575 H   0  0  0  0  0  0  0  0  0  0  0  0  # atno 8010 bound_to 7997
  140.4694  144.0786  150.6233 H   0  0  0  0  0  0  0  0  0  0  0  0  # atno 10167 bound_to 10162
  157.6742  131.0802  150.5697 H   0  0  0  0  0  0  0  0  0  0  0  0  # atno 10718 bound_to 10713
  153.4121  135.7008  153.6352 H   0  0  0  0  0  0  0  0  0  0  0  0  # atno 10763 bound_to 10752
  153.4842  135.3687  155.2458 H   0  0  0  0  0  0  0  0  0  0  0  0  # atno 10764 bound_to 10752
  154.8717  135.4073  154.3475 H   0  0  0  0  0  0  0  0  0  0  0  0  # atno 10765 bound_to 10752
  141.1023  133.6616  156.4312 H   0  0  0  0  0  0  0  0  0  0  0  0  # atno 11005 bound_to 11000
  144.7593  139.6996  143.7241 LP  0  0  0  0  0  0  0  0  0  0  0  0  # atno 17320 bound_to 7965
  146.2002  139.5292  142.9748 LP  0  0  0  0  0  0  0  0  0  0  0  0  # atno 17321 bound_to 7965
  140.3996  143.2710  151.9963 LP  0  0  0  0  0  0  0  0  0  0  0  0  # atno 17342 bound_to 10162
  139.4816  144.6009  151.7608 LP  0  0  0  0  0  0  0  0  0  0  0  0  # atno 17343 bound_to 10162
  156.5999  130.4351  149.5901 LP  0  0  0  0  0  0  0  0  0  0  0  0  # atno 17370 bound_to 10713
  156.2515  130.6910  151.1649 LP  0  0  0  0  0  0  0  0  0  0  0  0  # atno 17371 bound_to 10713
  140.4991  134.6502  157.5241 LP  0  0  0  0  0  0  0  0  0  0  0  0  # atno 17394 bound_to 11000
  139.9879  134.7032  155.9742 LP  0  0  0  0  0  0  0  0  0  0  0  0  # atno 17395 bound_to 11000

$$$$
