AV-unprocessed.smi:119|AV-procd|sdf|1136|dock5
  -GOLD-   2262018263D 1   1.00000     0.00000
 Structure written by MMmdl.
 51 54  0  0  0  0  0  0  0  0  1 V2000
  153.8700  140.8113  163.1009 C   0  0  0  0  0  0  0  0  0  0  0  0
  153.4585  141.3782  161.7360 C   0  0  1  0  0  0  0  0  0  0  0  0
  153.3804  140.2662  160.6739 C   0  0  0  0  0  0  0  0  0  0  0  0
  153.2366  140.7752  159.2277 C   0  0  0  0  0  0  0  0  0  0  0  0
  151.9095  141.3404  158.9500 N   0  0  0  0  0  0  0  0  0  0  0  0
  150.8506  140.5995  158.5295 C   0  0  0  0  0  0  0  0  0  0  0  0
  149.7372  141.0987  158.3455 O   0  0  0  0  0  0  0  0  0  0  0  0
  151.0398  139.0875  158.2726 C   0  0  0  0  0  0  0  0  0  0  0  0
  149.7698  138.3280  158.2419 N   0  0  0  0  0  0  0  0  0  0  0  0
  148.7930  138.6823  157.2796 C   0  0  0  0  0  0  0  0  0  0  0  0
  148.9839  139.6045  156.4852 O   0  0  0  0  0  0  0  0  0  0  0  0
  147.5732  137.8845  157.2999 C   0  0  0  0  0  0  0  0  0  0  0  0
  146.5838  138.1614  156.4335 F   0  0  0  0  0  0  0  0  0  0  0  0
  147.4157  136.8733  158.1792 C   0  0  0  0  0  0  0  0  0  0  0  0
  148.3828  136.5277  159.1087 N   0  0  0  0  0  0  0  0  0  0  0  0
  148.2313  135.3669  160.0726 C   0  0  1  0  0  0  0  0  0  0  0  0
  147.1566  135.5317  161.1508 C   0  0  0  0  0  0  0  0  0  0  0  0
  146.9350  134.0826  161.5163 C   0  0  0  0  0  0  0  0  0  0  0  0
  147.0082  133.4094  160.1458 C   0  0  0  0  0  0  0  0  0  0  0  0
  147.8547  134.2350  159.3465 O   0  0  0  0  0  0  0  0  0  0  0  0
  149.5920  137.2580  159.1512 C   0  0  0  0  0  0  0  0  0  0  0  0
  150.4738  136.9654  159.9622 O   0  0  0  0  0  0  0  0  0  0  0  0
  151.7613  142.7395  159.1548 C   0  0  0  0  0  0  0  0  0  0  0  0
  151.6247  143.5911  158.0351 C   0  0  0  0  0  0  0  0  0  0  0  0
  151.4764  144.9797  158.2118 C   0  0  0  0  0  0  0  0  0  0  0  0
  151.4642  145.5265  159.5087 C   0  0  0  0  0  0  0  0  0  0  0  0
  151.6002  144.6844  160.6284 C   0  0  0  0  0  0  0  0  0  0  0  0
  151.7533  143.2939  160.4582 C   0  0  0  0  0  0  0  0  0  0  0  0
  151.8904  142.2782  161.8978 S   0  0  0  0  0  0  0  0  0  0  0  0
  154.8421  140.3203  163.0472 H   0  0  0  0  0  0  0  0  0  0  0  0
  153.1455  140.0800  163.4607 H   0  0  0  0  0  0  0  0  0  0  0  0
  153.9440  141.6026  163.8474 H   0  0  0  0  0  0  0  0  0  0  0  0
  154.2170  142.1019  161.4353 H   0  0  0  0  0  0  0  0  0  0  0  0
  154.2982  139.6793  160.7242 H   0  0  0  0  0  0  0  0  0  0  0  0
  152.5752  139.5745  160.9224 H   0  0  0  0  0  0  0  0  0  0  0  0
  153.9954  141.5361  159.0381 H   0  0  0  0  0  0  0  0  0  0  0  0
  153.4788  139.9758  158.5282 H   0  0  0  0  0  0  0  0  0  0  0  0
  151.5831  138.9582  157.3360 H   0  0  0  0  0  0  0  0  0  0  0  0
  151.7034  138.6671  159.0276 H   0  0  0  0  0  0  0  0  0  0  0  0
  146.4786  136.3437  158.1360 H   0  0  0  0  0  0  0  0  0  0  0  0
  149.2206  135.2223  160.5123 H   0  0  0  0  0  0  0  0  0  0  0  0
  147.4985  136.1599  161.9736 H   0  0  0  0  0  0  0  0  0  0  0  0
  146.2298  135.9226  160.7323 H   0  0  0  0  0  0  0  0  0  0  0  0
  147.7430  133.7279  162.1577 H   0  0  0  0  0  0  0  0  0  0  0  0
  145.9883  133.9071  162.0279 H   0  0  0  0  0  0  0  0  0  0  0  0
  147.3914  132.3905  160.2082 H   0  0  0  0  0  0  0  0  0  0  0  0
  146.0221  133.3728  159.6812 H   0  0  0  0  0  0  0  0  0  0  0  0
  151.6319  143.1793  157.0362 H   0  0  0  0  0  0  0  0  0  0  0  0
  151.3699  145.6249  157.3521 H   0  0  0  0  0  0  0  0  0  0  0  0
  151.3480  146.5914  159.6448 H   0  0  0  0  0  0  0  0  0  0  0  0
  151.5851  145.1095  161.6215 H   0  0  0  0  0  0  0  0  0  0  0  0
  1  2  1  0  0  0  0
  1 30  1  0  0  0  0
  1 31  1  0  0  0  0
  1 32  1  0  0  0  0
  2 29  1  0  0  0  0
  2  3  1  0  0  0  0
  2 33  1  0  0  0  0
  3  4  1  0  0  0  0
  3 34  1  0  0  0  0
  3 35  1  0  0  0  0
  4  5  1  0  0  0  0
  4 36  1  0  0  0  0
  4 37  1  0  0  0  0
  5  6  1  0  0  0  0
  5 23  1  0  0  0  0
  6  7  2  0  0  0  0
  6  8  1  0  0  0  0
  8  9  1  0  0  0  0
  8 38  1  0  0  0  0
  8 39  1  0  0  0  0
  9 21  1  0  0  0  0
  9 10  1  0  0  0  0
 10 11  2  0  0  0  0
 10 12  1  0  0  0  0
 12 13  1  0  0  0  0
 12 14  2  0  0  0  0
 14 15  1  0  0  0  0
 14 40  1  0  0  0  0
 15 16  1  0  0  0  0
 15 21  1  0  0  0  0
 16 20  1  0  0  0  0
 16 17  1  0  0  0  0
 16 41  1  0  0  0  0
 17 18  1  0  0  0  0
 17 42  1  0  0  0  0
 17 43  1  0  0  0  0
 18 19  1  0  0  0  0
 18 44  1  0  0  0  0
 18 45  1  0  0  0  0
 19 20  1  0  0  0  0
 19 46  1  0  0  0  0
 19 47  1  0  0  0  0
 21 22  2  0  0  0  0
 23 28  2  0  0  0  0
 23 24  1  0  0  0  0
 24 25  2  0  0  0  0
 24 48  1  0  0  0  0
 25 26  1  0  0  0  0
 25 49  1  0  0  0  0
 26 27  2  0  0  0  0
 26 50  1  0  0  0  0
 27 28  1  0  0  0  0
 27 51  1  0  0  0  0
 28 29  1  0  0  0  0
M  END
> <s_m_source_file>
AV-unprocessed.smi

> <i_m_source_file_index>
119

> <i_lp_mmshare_version>
43012

> <i_f3d_flags>
0

> <s_epik_input>
W2NIXTFbY0hdW2NIXVtjSF1jKGMxMilTW0NASF0oW0NIM10pW0NIMl1bQ0gyXU4yQyg9TylbQ0gyXW4zYyg9TyljKEYpW2NIXW4oYzM9TylbQ0BASF00W0NIMl1bQ0gyXVtDSDJdTzQ=

> <s_epik_cmdline>
J2VwaWtfcHl0aG9uJywgJy1waCcsICc3LjAnLCAnLXRuJywgJzgnLCAnLW1hJywgJzIwMCcsICctbWV0YWxfYmluZGluZycsICctaW1hZScsICc8aW5maWxlLm1hZT4nLCAnLW9tYWUnLCAnPG91dGZpbGUubWFlPic=

> <r_lp_tautomer_probability>
1

> <r_epik_Ionization_Penalty>
1.68882e-06

> <r_epik_Ionization_Penalty_Charging>
3.67303e-09

> <r_epik_Ionization_Penalty_Neutral>
1.68515e-06

> <r_epik_State_Penalty>
-0

> <r_epik_Charging_Adjusted_Penalty>
3.67303e-09

> <i_epik_Tot_Q>
0

> <i_epik_Tot_abs_Q>
0

> <r_epik_Metal_State_Penalty>
-0

> <b_epik_Metal_Only>
0

> <s_epik_Chemistry_Notes>
This compound contains an acetal/aminal-like group ( X-CH(R)-Y where X, Y are N, S, or O) that may be acid/base labile, releasing an aldehyde.

> <s_lp_Force_Field>
OPLS_2005

> <r_lp_Energy>
51.7973

> <b_lp_Chiralities_Consistent>
1

> <s_lp_Variant>
AV-unprocessed.smi:119-4

> <Gold.Version>
5.8.1

> <Gold.Id.Protein>
6NUR|6NUR_protein|mol2

> <Gold.PLP.Fitness>
54.8790

> <Gold.PLP.PLP>
-52.7046

> <Gold.PLP.part.hbond>
-2.1418

> <Gold.PLP.part.metal>
0.0000

> <Gold.PLP.part.buried>
-4.5367

> <Gold.PLP.part.nonpolar>
-46.9463

> <Gold.PLP.part.repulsive>
0.0167

> <Gold.PLP.ligand.clash>
0.0000

> <Gold.PLP.ligand.torsion>
0.3820

> <Gold.PLP.Chemscore.Hbond>
0.9750

> <Gold.PLP.Chemscore.CHOScore>
0.0000

> <Gold.PLP.Chemscore.Metal>
0.0000

> <Gold.Chemscore.Hbonds>
donor molecule, donor type, donor heavy atom, donor atom, acceptor molecule, acceptor atom, score
      P1  H  6896  6907       L1    22  1.00

> <Gold.PLP.Chemscore.Internal.Correction>
0.0134

> <Gold.Rescore>
     Score         DG    S(hbond)    S(metal)    S(lipo)     H(rot)  DE(clash)    DE(int)     intcor
     16.29     -21.55       0.97        0.00     143.02       1.53       0.14       5.11       ----

> <Gold.Chemscore.Fitness>
16.2874

> <Gold.Chemscore.DG>
-21.5457

> <Gold.Chemscore.ZeroCoef>
-5.4800

> <Gold.Chemscore.Hbond>
0.9702

> <Gold.Chemscore.Metal>
0.0000

> <Gold.Chemscore.Lipo>
143.0214

> <Gold.Chemscore.Internal_Hbond>
0.0000

> <Gold.Chemscore.DEClash>
0.1444

> <Gold.Chemscore.DEInternal>
5.1140

> <Gold.Chemscore.Rot>
1.5266

> <Gold.Chemscore.Internal.Correction>
   9.000000E+99

> <Gold.Chemscore.Hbonds>
donor molecule, donor type, donor heavy atom, donor atom, acceptor molecule, acceptor atom, score
      P1  H  6896  6907       L1    22  0.92

> <Gold.Chemscore.Hbond.Weighted>
-3.2403

> <Gold.Chemscore.Metal.Weighted>
-0.0000

> <Gold.Chemscore.Lipo.Weighted>
-16.7335

> <Gold.Chemscore.Internal_Hbond.Weighted>
0.0000

> <Gold.Chemscore.DEClash.Weighted>
0.1444

> <Gold.Chemscore.DEInternal.Weighted>
5.1140

> <Gold.Chemscore.Rot.Weighted>
3.9081

> <Gold.Chemscore.Internal.Correction.Weighted>
   9.000000E+99

> <Gold.Protein.RotatedTorsions>
[ 6907 6896 6895 6894 ] final  -21.96 input  -60.11 | X-H torsion
[ 7974 7965 7964 7962 ] final   72.39 input  175.53 | X-H torsion
[ 8008 7997 7996 7995 ] final  153.43 input   59.86 | X-H torsion
[ 10167 10162 10161 10158 ] final    8.50 input  -65.29 | X-H torsion
[ 10718 10713 10712 10709 ] final -163.10 input   66.30 | X-H torsion
[ 10763 10752 10751 10750 ] final -154.40 input  -60.55 | X-H torsion
[ 11005 11000 10999 10996 ] final -179.76 input  -57.11 | X-H torsion

> <Gold.Protein.ActiveResidues>
 VAL166  LYS551  ARG553  GLY616  TRP617  ASP618  TYR619  PRO620  LYS621  CYS622 
 ASP623  PHE694  ASN695  SER759  ASP760  ASP761  ALA762  ILE779  LEU786  VAL792 
 PHE793  MET794  SER795  GLU796  ALA797  LYS798  CYS799  TRP800  GLU811  SER814 

> <Gold.Protein.RotatedAtoms>
  151.2256  135.0535  159.8966 H   0  0  0  0  0  0  0  0  0  0  0  0  # atno 6907 bound_to 6896
  152.5410  134.0593  159.8155 H   0  0  0  0  0  0  0  0  0  0  0  0  # atno 6908 bound_to 6896
  151.0765  133.5376  159.2655 H   0  0  0  0  0  0  0  0  0  0  0  0  # atno 6909 bound_to 6896
  145.7539  139.2772  143.1415 H   0  0  0  0  0  0  0  0  0  0  0  0  # atno 7974 bound_to 7965
  156.2582  140.1994  156.6489 H   0  0  0  0  0  0  0  0  0  0  0  0  # atno 8008 bound_to 7997
  154.6552  140.0567  157.0025 H   0  0  0  0  0  0  0  0  0  0  0  0  # atno 8009 bound_to 7997
  155.1359  140.3238  155.4466 H   0  0  0  0  0  0  0  0  0  0  0  0  # atno 8010 bound_to 7997
  140.6310  143.7993  150.7296 H   0  0  0  0  0  0  0  0  0  0  0  0  # atno 10167 bound_to 10162
  156.6199  130.8886  151.2955 H   0  0  0  0  0  0  0  0  0  0  0  0  # atno 10718 bound_to 10713
  154.7861  135.3191  154.7882 H   0  0  0  0  0  0  0  0  0  0  0  0  # atno 10763 bound_to 10752
  153.8581  135.6856  153.4790 H   0  0  0  0  0  0  0  0  0  0  0  0  # atno 10764 bound_to 10752
  153.1514  135.4698  154.9581 H   0  0  0  0  0  0  0  0  0  0  0  0  # atno 10765 bound_to 10752
  140.4150  134.6657  157.4634 H   0  0  0  0  0  0  0  0  0  0  0  0  # atno 11005 bound_to 11000
  146.0329  140.8240  142.9867 LP  0  0  0  0  0  0  0  0  0  0  0  0  # atno 17320 bound_to 7965
  144.6844  140.2796  143.7294 LP  0  0  0  0  0  0  0  0  0  0  0  0  # atno 17321 bound_to 7965
  140.1604  143.4280  152.2071 LP  0  0  0  0  0  0  0  0  0  0  0  0  # atno 17342 bound_to 10162
  139.5524  144.7348  151.4394 LP  0  0  0  0  0  0  0  0  0  0  0  0  # atno 17343 bound_to 10162
  157.7230  130.9584  150.1518 LP  0  0  0  0  0  0  0  0  0  0  0  0  # atno 17370 bound_to 10713
  156.2320  130.3683  149.8434 LP  0  0  0  0  0  0  0  0  0  0  0  0  # atno 17371 bound_to 10713
  140.0240  134.6504  155.9199 LP  0  0  0  0  0  0  0  0  0  0  0  0  # atno 17394 bound_to 11000
  141.1806  133.6546  156.5006 LP  0  0  0  0  0  0  0  0  0  0  0  0  # atno 17395 bound_to 11000

$$$$
