AV-unprocessed.smi:1451|AV-procd|sdf|5899|dock6
  -GOLD-   22720 5583D 1   1.00000     0.00000
 Structure written by MMmdl.
 47 48  0  0  0  0  0  0  0  0  2 V2000
  144.6883  135.5099  150.2336 C   0  0  0  0  0  0  0  0  0  0  0  0
  145.7373  135.6254  151.3490 C   0  0  2  0  0  0  0  0  0  0  0  0
  145.5893  134.4932  152.3791 C   0  0  0  0  0  0  0  0  0  0  0  0
  146.6328  134.6486  153.4923 C   0  0  0  0  0  0  0  0  0  0  0  0
  146.5447  136.0404  154.1382 C   0  0  0  0  0  0  0  0  0  0  0  0
  146.6932  137.1144  153.1219 N   0  3  2  0  0  0  0  0  0  0  0  0
  146.7443  138.4639  153.7392 C   0  0  0  0  0  0  0  0  0  0  0  0
  147.2375  139.5444  152.7566 C   0  0  0  0  0  0  0  0  0  0  0  0
  148.5664  140.0238  153.1170 N   0  0  0  0  0  0  0  0  0  0  0  0
  148.9314  140.4257  154.3439 C   0  0  0  0  0  0  0  0  0  0  0  0
  148.1691  140.4073  155.3113 O   0  0  0  0  0  0  0  0  0  0  0  0
  150.3812  140.9083  154.4939 C   0  0  0  0  0  0  0  0  0  0  0  0
  150.8487  140.9135  155.8905 N   0  0  0  0  0  0  0  0  0  0  0  0
  151.1020  142.1679  156.4801 C   0  0  0  0  0  0  0  0  0  0  0  0
  151.5474  142.3073  157.7434 C   0  0  0  0  0  0  0  0  0  0  0  0
  151.7620  143.6773  158.3676 C   0  0  0  0  0  0  0  0  0  0  0  0
  152.6091  144.4089  157.6431 F   0  0  0  0  0  0  0  0  0  0  0  0
  150.6028  144.3305  158.4366 F   0  0  0  0  0  0  0  0  0  0  0  0
  152.2521  143.5705  159.6033 F   0  0  0  0  0  0  0  0  0  0  0  0
  151.7284  141.0854  158.5026 C   0  0  0  0  0  0  0  0  0  0  0  0
  151.4847  139.8781  157.9563 C   0  0  0  0  0  0  0  0  0  0  0  0
  151.0241  139.7418  156.5726 C   0  0  0  0  0  0  0  0  0  0  0  0
  150.8099  138.6439  156.0574 O   0  0  0  0  0  0  0  0  0  0  0  0
  145.6679  136.9973  152.0500 C   0  0  0  0  0  0  0  0  0  0  0  0
  143.6758  135.5976  150.6292 H   0  0  0  0  0  0  0  0  0  0  0  0
  144.7634  134.5497  149.7219 H   0  0  0  0  0  0  0  0  0  0  0  0
  144.8227  136.2918  149.4855 H   0  0  0  0  0  0  0  0  0  0  0  0
  146.7204  135.5336  150.8842 H   0  0  0  0  0  0  0  0  0  0  0  0
  144.5874  134.5105  152.8107 H   0  0  0  0  0  0  0  0  0  0  0  0
  145.7044  133.5225  151.8956 H   0  0  0  0  0  0  0  0  0  0  0  0
  146.4875  133.8769  154.2489 H   0  0  0  0  0  0  0  0  0  0  0  0
  147.6325  134.4965  153.0829 H   0  0  0  0  0  0  0  0  0  0  0  0
  145.5913  136.1570  154.6561 H   0  0  0  0  0  0  0  0  0  0  0  0
  147.3285  136.1322  154.8912 H   0  0  0  0  0  0  0  0  0  0  0  0
  145.7646  138.7243  154.1435 H   0  0  0  0  0  0  0  0  0  0  0  0
  147.4279  138.4372  154.5889 H   0  0  0  0  0  0  0  0  0  0  0  0
  147.2438  139.1598  151.7353 H   0  0  0  0  0  0  0  0  0  0  0  0
  146.5726  140.4069  152.7592 H   0  0  0  0  0  0  0  0  0  0  0  0
  149.2564  140.0613  152.3803 H   0  0  0  0  0  0  0  0  0  0  0  0
  151.0159  140.2721  153.8756 H   0  0  0  0  0  0  0  0  0  0  0  0
  150.4791  141.9088  154.0676 H   0  0  0  0  0  0  0  0  0  0  0  0
  150.9145  143.0150  155.8362 H   0  0  0  0  0  0  0  0  0  0  0  0
  152.0701  141.1374  159.5258 H   0  0  0  0  0  0  0  0  0  0  0  0
  151.6332  138.9884  158.5508 H   0  0  0  0  0  0  0  0  0  0  0  0
  145.8140  137.7799  151.3064 H   0  0  0  0  0  0  0  0  0  0  0  0
  144.6764  137.1527  152.4785 H   0  0  0  0  0  0  0  0  0  0  0  0
  147.5932  136.9653  152.6882 H   0  0  0  0  0  0  0  0  0  0  0  0
  1  2  1  0  0  0  0
  1 25  1  0  0  0  0
  1 26  1  0  0  0  0
  1 27  1  0  0  0  0
  2 24  1  0  0  0  0
  2  3  1  0  0  0  0
  2 28  1  0  0  0  0
  3  4  1  0  0  0  0
  3 29  1  0  0  0  0
  3 30  1  0  0  0  0
  4  5  1  0  0  0  0
  4 31  1  0  0  0  0
  4 32  1  0  0  0  0
  5  6  1  0  0  0  0
  5 33  1  0  0  0  0
  5 34  1  0  0  0  0
  6  7  1  0  0  0  0
  6 24  1  0  0  0  0
  6 47  1  0  0  0  0
  7  8  1  0  0  0  0
  7 35  1  0  0  0  0
  7 36  1  0  0  0  0
  8  9  1  0  0  0  0
  8 37  1  0  0  0  0
  8 38  1  0  0  0  0
  9 10  1  0  0  0  0
  9 39  1  0  0  0  0
 10 11  2  0  0  0  0
 10 12  1  0  0  0  0
 12 13  1  0  0  0  0
 12 40  1  0  0  0  0
 12 41  1  0  0  0  0
 13 22  1  0  0  0  0
 13 14  1  0  0  0  0
 14 15  2  0  0  0  0
 14 42  1  0  0  0  0
 15 16  1  0  0  0  0
 15 20  1  0  0  0  0
 16 17  1  0  0  0  0
 16 18  1  0  0  0  0
 16 19  1  0  0  0  0
 20 21  2  0  0  0  0
 20 43  1  0  0  0  0
 21 22  1  0  0  0  0
 21 44  1  0  0  0  0
 22 23  2  0  0  0  0
 24 45  1  0  0  0  0
 24 46  1  0  0  0  0
M  CHG  1   6   1
M  END
> <s_m_source_file>
AV-unprocessed.smi

> <i_m_source_file_index>
1451

> <i_lp_mmshare_version>
43012

> <i_f3d_flags>
0

> <s_epik_input>
W0NIM11bQ0BASF0xW0NIMl1bQ0gyXVtDSDJdTihbQ0gyXTEpW0NIMl1bQ0gyXVtOSF1DKD1PKVtDSDJdbjJbY0hdYyhDKEYpKEYpRilbY0hdW2NIXWMyPU8=

> <s_epik_cmdline>
J2VwaWtfcHl0aG9uJywgJy1waCcsICc3LjAnLCAnLXRuJywgJzgnLCAnLW1hJywgJzIwMCcsICctbWV0YWxfYmluZGluZycsICctaW1hZScsICc8aW5maWxlLm1hZT4nLCAnLW9tYWUnLCAnPG91dGZpbGUubWFlPic=

> <r_lp_tautomer_probability>
1

> <r_epik_Ionization_Penalty>
0.00192452

> <r_epik_Ionization_Penalty_Charging>
0.00192444

> <r_epik_Ionization_Penalty_Neutral>
8.16761e-08

> <r_epik_State_Penalty>
0.00131115

> <r_epik_Charging_Adjusted_Penalty>
0.00323559

> <i_epik_Tot_Q>
1

> <i_epik_Tot_abs_Q>
1

> <r_epik_Metal_State_Penalty>
-0

> <b_epik_Metal_Only>
0

> <s_lp_Force_Field>
OPLS_2005

> <r_lp_Energy>
28.0939

> <b_lp_Chiralities_Consistent>
1

> <s_lp_Variant>
AV-unprocessed.smi:1451-1

> <Gold.Version>
5.8.1

> <Gold.Id.Protein>
6NUR|6NUR_protein|mol2

> <Gold.PLP.Fitness>
53.7951

> <Gold.PLP.PLP>
-43.3838

> <Gold.PLP.part.hbond>
-2.0000

> <Gold.PLP.part.metal>
0.0000

> <Gold.PLP.part.buried>
-1.9074

> <Gold.PLP.part.nonpolar>
-39.8108

> <Gold.PLP.part.repulsive>
0.1493

> <Gold.PLP.ligand.clash>
0.0000

> <Gold.PLP.ligand.torsion>
0.8450

> <Gold.PLP.Chemscore.Hbond>
3.0000

> <Gold.PLP.Chemscore.CHOScore>
1.0000

> <Gold.PLP.Chemscore.Metal>
0.0000

> <Gold.Chemscore.Hbonds>
donor molecule, donor type, donor heavy atom, donor atom, acceptor molecule, acceptor atom, score
      L1  H     6    47       P1  7948  2.00
      L1  H     9    39       P1  7957  0.34
      L1  C    14    42       P1  8028  0.71

> <Gold.PLP.Chemscore.Internal.Correction>
0.1014

> <Gold.Rescore>
     Score         DG    S(hbond)    S(metal)    S(lipo)     H(rot)  DE(clash)    DE(int)     intcor
     12.74     -16.59       1.98        0.00      83.94       2.08       1.63       2.22       ----

> <Gold.Chemscore.Fitness>
12.7399

> <Gold.Chemscore.DG>
-16.5935

> <Gold.Chemscore.ZeroCoef>
-5.4800

> <Gold.Chemscore.Hbond>
1.9784

> <Gold.Chemscore.Metal>
0.0000

> <Gold.Chemscore.Lipo>
83.9368

> <Gold.Chemscore.Internal_Hbond>
0.0000

> <Gold.Chemscore.DEClash>
1.6342

> <Gold.Chemscore.DEInternal>
2.2194

> <Gold.Chemscore.Rot>
2.0762

> <Gold.Chemscore.Internal.Correction>
   9.000000E+99

> <Gold.Chemscore.Hbonds>
donor molecule, donor type, donor heavy atom, donor atom, acceptor molecule, acceptor atom, score
      L1  H     6    47       P1  7948  1.00
      L1  H     9    39       P1  7957  0.34

> <Gold.Chemscore.Hbond.Weighted>
-6.6079

> <Gold.Chemscore.Metal.Weighted>
-0.0000

> <Gold.Chemscore.Lipo.Weighted>
-9.8206

> <Gold.Chemscore.Internal_Hbond.Weighted>
0.0000

> <Gold.Chemscore.DEClash.Weighted>
1.6342

> <Gold.Chemscore.DEInternal.Weighted>
2.2194

> <Gold.Chemscore.Rot.Weighted>
5.3150

> <Gold.Chemscore.Internal.Correction.Weighted>
   9.000000E+99

> <Gold.Protein.RotatedTorsions>
[ 6907 6896 6895 6894 ] final  112.04 input  -60.11 | X-H torsion
[ 7974 7965 7964 7962 ] final   25.32 input  175.53 | X-H torsion
[ 8008 7997 7996 7995 ] final  -57.12 input   59.86 | X-H torsion
[ 10167 10162 10161 10158 ] final  120.76 input  -65.29 | X-H torsion
[ 10718 10713 10712 10709 ] final   94.52 input   66.30 | X-H torsion
[ 10763 10752 10751 10750 ] final   35.19 input  -60.55 | X-H torsion
[ 11005 11000 10999 10996 ] final  100.86 input  -57.11 | X-H torsion

> <Gold.Protein.ActiveResidues>
 VAL166  LYS551  ARG553  GLY616  TRP617  ASP618  TYR619  PRO620  LYS621  CYS622 
 ASP623  PHE694  ASN695  SER759  ASP760  ASP761  ALA762  ILE779  LEU786  VAL792 
 PHE793  MET794  SER795  GLU796  ALA797  LYS798  CYS799  TRP800  GLU811  SER814 

> <Gold.Protein.RotatedAtoms>
  152.4938  133.8572  159.7231 H   0  0  0  0  0  0  0  0  0  0  0  0  # atno 6907 bound_to 6896
  150.9093  133.7008  159.2865 H   0  0  0  0  0  0  0  0  0  0  0  0  # atno 6908 bound_to 6896
  151.4423  135.1025  159.9726 H   0  0  0  0  0  0  0  0  0  0  0  0  # atno 6909 bound_to 6896
  146.1894  139.7482  142.8843 H   0  0  0  0  0  0  0  0  0  0  0  0  # atno 7974 bound_to 7965
  154.4256  140.1114  156.5747 H   0  0  0  0  0  0  0  0  0  0  0  0  # atno 8008 bound_to 7997
  155.6175  140.3495  155.4622 H   0  0  0  0  0  0  0  0  0  0  0  0  # atno 8009 bound_to 7997
  156.0050  140.1207  157.0499 H   0  0  0  0  0  0  0  0  0  0  0  0  # atno 8010 bound_to 7997
  139.5961  144.7042  151.3172 H   0  0  0  0  0  0  0  0  0  0  0  0  # atno 10167 bound_to 10162
  157.6947  131.0515  150.4199 H   0  0  0  0  0  0  0  0  0  0  0  0  # atno 10718 bound_to 10713
  153.0130  135.6340  154.1787 H   0  0  0  0  0  0  0  0  0  0  0  0  # atno 10763 bound_to 10752
  154.1528  135.2828  155.3132 H   0  0  0  0  0  0  0  0  0  0  0  0  # atno 10764 bound_to 10752
  154.6041  135.5578  153.7465 H   0  0  0  0  0  0  0  0  0  0  0  0  # atno 10765 bound_to 10752
  139.8772  134.9158  156.4820 H   0  0  0  0  0  0  0  0  0  0  0  0  # atno 11005 bound_to 11000
  145.3839  141.0362  143.3162 LP  0  0  0  0  0  0  0  0  0  0  0  0  # atno 17320 bound_to 7965
  144.8458  139.5399  143.6879 LP  0  0  0  0  0  0  0  0  0  0  0  0  # atno 17321 bound_to 7965
  140.7213  143.7127  150.7757 LP  0  0  0  0  0  0  0  0  0  0  0  0  # atno 17342 bound_to 10162
  140.0694  143.5076  152.2588 LP  0  0  0  0  0  0  0  0  0  0  0  0  # atno 17343 bound_to 10162
  156.4575  130.4025  149.6597 LP  0  0  0  0  0  0  0  0  0  0  0  0  # atno 17370 bound_to 10713
  156.3724  130.7537  151.2522 LP  0  0  0  0  0  0  0  0  0  0  0  0  # atno 17371 bound_to 10713
  140.8720  133.7981  155.9375 LP  0  0  0  0  0  0  0  0  0  0  0  0  # atno 17394 bound_to 11000
  140.8943  134.2457  157.5077 LP  0  0  0  0  0  0  0  0  0  0  0  0  # atno 17395 bound_to 11000

$$$$
