AV-unprocessed.smi:72|AV-procd|sdf|728|dock6
  -GOLD-   2262017 53D 1   1.00000     0.00000
 Structure written by MMmdl.
 28 29  0  0  0  0  0  0  0  0  2 V2000
  151.0856  134.3862  156.8050 N   0  0  0  0  0  0  0  0  0  0  0  0
  151.0787  135.5764  156.3889 C   0  0  0  0  0  0  0  0  0  0  0  0
  149.9296  136.0856  155.6724 N   0  0  0  0  0  0  0  0  0  0  0  0
  149.9697  137.3154  155.2599 C   0  0  0  0  0  0  0  0  0  0  0  0
  151.1275  138.1682  155.4972 N   0  0  0  0  0  0  0  0  0  0  0  0
  151.1803  139.6094  155.0205 C   0  0  1  0  0  0  0  0  0  0  0  0
  150.0503  139.8962  154.2433 O   0  0  0  0  0  0  0  0  0  0  0  0
  149.2335  140.8458  154.9172 C   0  0  2  0  0  0  0  0  0  0  0  0
  148.3213  141.5861  153.9229 C   0  0  0  0  0  0  0  0  0  0  0  0
  147.5844  142.6201  154.5427 O   0  0  0  0  0  0  0  0  0  0  0  0
  150.2295  141.6890  155.7133 C   0  0  1  0  0  0  0  0  0  0  0  0
  149.6240  142.4101  156.7706 O   0  0  0  0  0  0  0  0  0  0  0  0
  151.2269  140.6340  156.1835 C   0  0  1  0  0  0  0  0  0  0  0  0
  150.8682  140.0815  157.4419 O   0  0  0  0  0  0  0  0  0  0  0  0
  152.2368  137.6442  156.2121 C   0  0  0  0  0  0  0  0  0  0  0  0
  153.1950  138.3890  156.4208 O   0  0  0  0  0  0  0  0  0  0  0  0
  152.1878  136.3528  156.6425 N   0  5  0  0  0  0  0  0  0  0  0  0
  152.0464  139.6700  154.3595 H   0  0  0  0  0  0  0  0  0  0  0  0
  148.6050  140.2865  155.6126 H   0  0  0  0  0  0  0  0  0  0  0  0
  150.7490  142.3888  155.0582 H   0  0  0  0  0  0  0  0  0  0  0  0
  152.2342  141.0434  156.2660 H   0  0  0  0  0  0  0  0  0  0  0  0
  151.9378  134.1465  157.2900 H   0  0  0  0  0  0  0  0  0  0  0  0
  149.1452  137.7790  154.7185 H   0  0  0  0  0  0  0  0  0  0  0  0
  148.9065  141.9972  153.1000 H   0  0  0  0  0  0  0  0  0  0  0  0
  147.6091  140.8845  153.4880 H   0  0  0  0  0  0  0  0  0  0  0  0
  148.1859  143.1752  155.0150 H   0  0  0  0  0  0  0  0  0  0  0  0
  149.4715  143.2952  156.4774 H   0  0  0  0  0  0  0  0  0  0  0  0
  151.6561  139.7822  157.8706 H   0  0  0  0  0  0  0  0  0  0  0  0
  1  2  2  0  0  0  0
  1 22  1  0  0  0  0
  2 17  1  0  0  0  0
  2  3  1  0  0  0  0
  3  4  2  0  0  0  0
  4  5  1  0  0  0  0
  4 23  1  0  0  0  0
  5  6  1  0  0  0  0
  5 15  1  0  0  0  0
  6 18  1  0  0  0  0
  6 13  1  0  0  0  0
  6  7  1  0  0  0  0
  7  8  1  0  0  0  0
  8 19  1  0  0  0  0
  8  9  1  0  0  0  0
  8 11  1  0  0  0  0
  9 10  1  0  0  0  0
  9 24  1  0  0  0  0
  9 25  1  0  0  0  0
 10 26  1  0  0  0  0
 11 20  1  0  0  0  0
 11 12  1  0  0  0  0
 11 13  1  0  0  0  0
 12 27  1  0  0  0  0
 13 21  1  0  0  0  0
 13 14  1  0  0  0  0
 14 28  1  0  0  0  0
 15 16  2  0  0  0  0
 15 17  1  0  0  0  0
M  CHG  1  17  -1
M  END
> <s_m_source_file>
AV-unprocessed.smi

> <i_m_source_file_index>
72

> <i_lp_mmshare_version>
43012

> <i_f3d_flags>
0

> <s_epik_input>
W05IMl1jMW5bY0hdbihjKD1PKW4xKVtDQEBIXTJPW0NASF0oW0NIMl1bT0hdKVtDQEBIXShbT0hdKVtDQEhdMltPSF0=

> <s_epik_cmdline>
J2VwaWtfcHl0aG9uJywgJy1waCcsICc3LjAnLCAnLXRuJywgJzgnLCAnLW1hJywgJzIwMCcsICctbWV0YWxfYmluZGluZycsICctaW1hZScsICc8aW5maWxlLm1hZT4nLCAnLW9tYWUnLCAnPG91dGZpbGUubWFlPic=

> <r_lp_tautomer_probability>
7.17554e-07

> <r_epik_Ionization_Penalty>
12.8705

> <r_epik_Ionization_Penalty_Charging>
5.64144

> <r_epik_Ionization_Penalty_Neutral>
7.22905

> <r_epik_State_Penalty>
3.30104

> <r_epik_Charging_Adjusted_Penalty>
8.94249

> <i_epik_Tot_Q>
-1

> <i_epik_Tot_abs_Q>
1

> <r_epik_Metal_State_Penalty>
0.529074

> <b_epik_Metal_Only>
1

> <s_epik_Chemistry_Notes>
This compound contains an acetal/aminal-like group ( X-CH(R)-Y where X, Y are N, S, or O) that may be acid/base labile, releasing an aldehyde.

> <s_lp_Force_Field>
OPLS_2005

> <r_lp_Energy>
43.5119

> <b_lp_Chiralities_Consistent>
1

> <s_lp_Variant>
AV-unprocessed.smi:72-66

> <Gold.Version>
5.8.1

> <Gold.Id.Protein>
6NUR|6NUR_protein|mol2

> <Gold.PLP.Fitness>
40.2698

> <Gold.PLP.PLP>
-25.6455

> <Gold.PLP.part.hbond>
-5.6506

> <Gold.PLP.part.metal>
0.0000

> <Gold.PLP.part.buried>
-3.4466

> <Gold.PLP.part.nonpolar>
-17.5263

> <Gold.PLP.part.repulsive>
0.5831

> <Gold.PLP.ligand.clash>
0.0000

> <Gold.PLP.ligand.torsion>
0.0677

> <Gold.PLP.Chemscore.Hbond>
4.9120

> <Gold.PLP.Chemscore.CHOScore>
0.0000

> <Gold.PLP.Chemscore.Metal>
0.0000

> <Gold.Chemscore.Hbonds>
donor molecule, donor type, donor heavy atom, donor atom, acceptor molecule, acceptor atom, score
      L1  H    10    26       P1  8028  1.00
      L1  H    12    27       P1  8028  1.00
      P1  H  7997  8008       L1    16  0.83
      P1  H 10752 10765       L1    17  1.46

> <Gold.PLP.Chemscore.Internal.Correction>
0.0236

> <Gold.Rescore>
     Score         DG    S(hbond)    S(metal)    S(lipo)     H(rot)  DE(clash)    DE(int)     intcor
      7.66      -8.38       3.00        0.00      27.61       4.04       0.29       0.43       ----

> <Gold.Chemscore.Fitness>
7.6596

> <Gold.Chemscore.DG>
-8.3814

> <Gold.Chemscore.ZeroCoef>
-5.4800

> <Gold.Chemscore.Hbond>
2.9982

> <Gold.Chemscore.Metal>
0.0000

> <Gold.Chemscore.Lipo>
27.6121

> <Gold.Chemscore.Internal_Hbond>
0.0000

> <Gold.Chemscore.DEClash>
0.2946

> <Gold.Chemscore.DEInternal>
0.4273

> <Gold.Chemscore.Rot>
4.0403

> <Gold.Chemscore.Internal.Correction>
   9.000000E+99

> <Gold.Chemscore.Hbonds>
donor molecule, donor type, donor heavy atom, donor atom, acceptor molecule, acceptor atom, score
      L1  H    10    26       P1  8028  0.95
      L1  H    12    27       P1  8028  1.00
      P1  H  7997  8008       L1    16  0.79
      P1  H 10752 10765       L1    17  0.04

> <Gold.Chemscore.Hbond.Weighted>
-10.0139

> <Gold.Chemscore.Metal.Weighted>
-0.0000

> <Gold.Chemscore.Lipo.Weighted>
-3.2306

> <Gold.Chemscore.Internal_Hbond.Weighted>
0.0000

> <Gold.Chemscore.DEClash.Weighted>
0.2946

> <Gold.Chemscore.DEInternal.Weighted>
0.4273

> <Gold.Chemscore.Rot.Weighted>
10.3431

> <Gold.Chemscore.Internal.Correction.Weighted>
   9.000000E+99

> <Gold.Protein.RotatedTorsions>
[ 6907 6896 6895 6894 ] final   62.34 input  -60.11 | X-H torsion
[ 7974 7965 7964 7962 ] final   78.40 input  175.53 | X-H torsion
[ 8008 7997 7996 7995 ] final  -42.37 input   59.86 | X-H torsion
[ 10167 10162 10161 10158 ] final  127.59 input  -65.29 | X-H torsion
[ 10718 10713 10712 10709 ] final -105.27 input   66.30 | X-H torsion
[ 10763 10752 10751 10750 ] final -124.88 input  -60.55 | X-H torsion
[ 11005 11000 10999 10996 ] final -146.07 input  -57.11 | X-H torsion

> <Gold.Protein.ActiveResidues>
 VAL166  LYS551  ARG553  GLY616  TRP617  ASP618  TYR619  PRO620  LYS621  CYS622 
 ASP623  PHE694  ASN695  SER759  ASP760  ASP761  ALA762  ILE779  LEU786  VAL792 
 PHE793  MET794  SER795  GLU796  ALA797  LYS798  CYS799  TRP800  GLU811  SER814 

> <Gold.Protein.RotatedAtoms>
  152.4164  134.6034  160.0005 H   0  0  0  0  0  0  0  0  0  0  0  0  # atno 6907 bound_to 6896
  151.6196  133.3334  159.3093 H   0  0  0  0  0  0  0  0  0  0  0  0  # atno 6908 bound_to 6896
  150.8052  134.7212  159.6704 H   0  0  0  0  0  0  0  0  0  0  0  0  # atno 6909 bound_to 6896
  145.6776  139.2514  143.1832 H   0  0  0  0  0  0  0  0  0  0  0  0  # atno 7974 bound_to 7965
  154.3999  140.1475  156.3343 H   0  0  0  0  0  0  0  0  0  0  0  0  # atno 8008 bound_to 7997
  155.8414  140.3462  155.5613 H   0  0  0  0  0  0  0  0  0  0  0  0  # atno 8009 bound_to 7997
  155.8082  140.0880  157.1909 H   0  0  0  0  0  0  0  0  0  0  0  0  # atno 8010 bound_to 7997
  139.5570  144.6856  151.4153 H   0  0  0  0  0  0  0  0  0  0  0  0  # atno 10167 bound_to 10162
  156.0339  130.5555  150.7515 H   0  0  0  0  0  0  0  0  0  0  0  0  # atno 10718 bound_to 10713
  154.8729  135.4048  154.3177 H   0  0  0  0  0  0  0  0  0  0  0  0  # atno 10763 bound_to 10752
  153.4010  135.7018  153.6431 H   0  0  0  0  0  0  0  0  0  0  0  0  # atno 10764 bound_to 10752
  153.5174  135.3694  155.2586 H   0  0  0  0  0  0  0  0  0  0  0  0  # atno 10765 bound_to 10752
  140.7858  134.3026  157.5030 H   0  0  0  0  0  0  0  0  0  0  0  0  # atno 11005 bound_to 11000
  146.0992  140.7564  142.9557 LP  0  0  0  0  0  0  0  0  0  0  0  0  # atno 17320 bound_to 7965
  144.7036  140.3760  143.7136 LP  0  0  0  0  0  0  0  0  0  0  0  0  # atno 17321 bound_to 7965
  140.6845  143.8007  150.7166 LP  0  0  0  0  0  0  0  0  0  0  0  0  # atno 17342 bound_to 10162
  140.1470  143.4391  152.2156 LP  0  0  0  0  0  0  0  0  0  0  0  0  # atno 17343 bound_to 10162
  157.5058  131.0922  151.0259 LP  0  0  0  0  0  0  0  0  0  0  0  0  # atno 17370 bound_to 10713
  157.0627  130.5832  149.5388 LP  0  0  0  0  0  0  0  0  0  0  0  0  # atno 17371 bound_to 10713
  139.8737  134.9345  156.3609 LP  0  0  0  0  0  0  0  0  0  0  0  0  # atno 17394 bound_to 11000
  140.9438  133.7497  156.0181 LP  0  0  0  0  0  0  0  0  0  0  0  0  # atno 17395 bound_to 11000

$$$$
