AV-unprocessed.smi:2088|AV-procd|sdf|8527|dock10
  -GOLD-   2272011243D 1   1.00000     0.00000
 Structure written by MMmdl.
 33 34  0  0  0  0  0  0  0  0  1 V2000
  152.5529  139.4865  156.1280 O   0  0  0  0  0  0  0  0  0  0  0  0
  151.8743  140.0308  156.9985 C   0  0  0  0  0  0  0  0  0  0  0  0
  152.1967  139.7995  158.4740 C   0  0  0  0  0  0  0  0  0  0  0  0
  152.3633  141.0686  159.1588 N   0  0  0  0  0  0  0  0  0  0  0  0
  152.9065  141.3048  160.4033 C   0  0  0  0  0  0  0  0  0  0  0  0
  152.8786  142.6543  160.6078 C   0  0  0  0  0  0  0  0  0  0  0  0
  152.2945  143.1745  159.4162 C   0  0  0  0  0  0  0  0  0  0  0  0
  152.0171  144.6114  159.0610 C   0  0  0  0  0  0  0  0  0  0  0  0
  152.7877  144.9937  158.0427 F   0  0  0  0  0  0  0  0  0  0  0  0
  150.7394  144.7527  158.7083 F   0  0  0  0  0  0  0  0  0  0  0  0
  152.2689  145.3967  160.1083 F   0  0  0  0  0  0  0  0  0  0  0  0
  151.9855  142.2155  158.5536 N   0  0  0  0  0  0  0  0  0  0  0  0
  150.8592  140.8690  156.7376 N   0  0  0  0  0  0  0  0  0  0  0  0
  150.4792  141.3528  155.4153 C   0  0  0  0  0  0  0  0  0  0  0  0
  148.9967  141.0630  155.1268 C   0  0  1  0  0  0  0  0  0  0  0  0
  148.0055  141.7469  156.0702 C   0  0  0  0  0  0  0  0  0  0  0  0
  146.7580  141.7868  155.2191 C   0  0  0  0  0  0  0  0  0  0  0  0
  147.3345  142.0870  153.8382 C   0  0  0  0  0  0  0  0  0  0  0  0
  148.6442  141.5237  153.8253 O   0  0  0  0  0  0  0  0  0  0  0  0
  151.4031  139.2251  158.9547 H   0  0  0  0  0  0  0  0  0  0  0  0
  153.1175  139.2227  158.5694 H   0  0  0  0  0  0  0  0  0  0  0  0
  153.2692  140.5025  161.0289 H   0  0  0  0  0  0  0  0  0  0  0  0
  153.2286  143.1914  161.4767 H   0  0  0  0  0  0  0  0  0  0  0  0
  150.3610  141.2618  157.5233 H   0  0  0  0  0  0  0  0  0  0  0  0
  150.6869  142.4185  155.3070 H   0  0  0  0  0  0  0  0  0  0  0  0
  151.1009  140.8442  154.6782 H   0  0  0  0  0  0  0  0  0  0  0  0
  148.8200  139.9862  155.1489 H   0  0  0  0  0  0  0  0  0  0  0  0
  147.8674  141.2079  157.0084 H   0  0  0  0  0  0  0  0  0  0  0  0
  148.3315  142.7620  156.3022 H   0  0  0  0  0  0  0  0  0  0  0  0
  146.2729  140.8098  155.2209 H   0  0  0  0  0  0  0  0  0  0  0  0
  146.0330  142.5307  155.5509 H   0  0  0  0  0  0  0  0  0  0  0  0
  146.7189  141.6819  153.0350 H   0  0  0  0  0  0  0  0  0  0  0  0
  147.4213  143.1635  153.6880 H   0  0  0  0  0  0  0  0  0  0  0  0
  1  2  2  0  0  0  0
  2  3  1  0  0  0  0
  2 13  1  0  0  0  0
  3  4  1  0  0  0  0
  3 20  1  0  0  0  0
  3 21  1  0  0  0  0
  4 12  1  0  0  0  0
  4  5  1  0  0  0  0
  5  6  2  0  0  0  0
  5 22  1  0  0  0  0
  6  7  1  0  0  0  0
  6 23  1  0  0  0  0
  7  8  1  0  0  0  0
  7 12  2  0  0  0  0
  8  9  1  0  0  0  0
  8 10  1  0  0  0  0
  8 11  1  0  0  0  0
 13 14  1  0  0  0  0
 13 24  1  0  0  0  0
 14 15  1  0  0  0  0
 14 25  1  0  0  0  0
 14 26  1  0  0  0  0
 15 19  1  0  0  0  0
 15 16  1  0  0  0  0
 15 27  1  0  0  0  0
 16 17  1  0  0  0  0
 16 28  1  0  0  0  0
 16 29  1  0  0  0  0
 17 18  1  0  0  0  0
 17 30  1  0  0  0  0
 17 31  1  0  0  0  0
 18 19  1  0  0  0  0
 18 32  1  0  0  0  0
 18 33  1  0  0  0  0
M  END
> <s_m_source_file>
AV-unprocessed.smi

> <i_m_source_file_index>
2088

> <i_lp_mmshare_version>
43012

> <i_f3d_flags>
0

> <s_epik_input>
TzFbQ0gyXVtDSDJdW0NIMl1bQ0BIXTFbQ0gyXVtOSF1DKD1PKVtDSDJdbjJbY0hdW2NIXWMobjIpQyhGKShGKUY=

> <s_epik_cmdline>
J2VwaWtfcHl0aG9uJywgJy1waCcsICc3LjAnLCAnLXRuJywgJzgnLCAnLW1hJywgJzIwMCcsICctbWV0YWxfYmluZGluZycsICctaW1hZScsICc8aW5maWxlLm1hZT4nLCAnLW9tYWUnLCAnPG91dGZpbGUubWFlPic=

> <r_lp_tautomer_probability>
1

> <r_epik_Ionization_Penalty>
2.25732e-07

> <r_epik_Ionization_Penalty_Charging>
0

> <r_epik_Ionization_Penalty_Neutral>
2.25732e-07

> <r_epik_State_Penalty>
-0

> <r_epik_Charging_Adjusted_Penalty>
0

> <i_epik_Tot_Q>
0

> <i_epik_Tot_abs_Q>
0

> <r_epik_Metal_State_Penalty>
-0

> <b_epik_Metal_Only>
0

> <s_lp_Force_Field>
OPLS_2005

> <r_lp_Energy>
19.1857

> <b_lp_Chiralities_Consistent>
1

> <s_lp_Variant>
AV-unprocessed.smi:2088-2

> <Gold.Version>
5.8.1

> <Gold.Id.Protein>
6NUR|6NUR_protein|mol2

> <Gold.PLP.Fitness>
47.8272

> <Gold.PLP.PLP>
-43.6756

> <Gold.PLP.part.hbond>
-2.0000

> <Gold.PLP.part.metal>
0.0000

> <Gold.PLP.part.buried>
-5.3454

> <Gold.PLP.part.nonpolar>
-34.8592

> <Gold.PLP.part.repulsive>
0.2478

> <Gold.PLP.ligand.clash>
0.0000

> <Gold.PLP.ligand.torsion>
0.3504

> <Gold.PLP.Chemscore.Hbond>
1.6100

> <Gold.PLP.Chemscore.CHOScore>
0.0000

> <Gold.PLP.Chemscore.Metal>
0.0000

> <Gold.Chemscore.Hbonds>
donor molecule, donor type, donor heavy atom, donor atom, acceptor molecule, acceptor atom, score
      P1  H  7997  8009       L1     1  1.00
      P1  H  8011  8017       L1    19  0.60

> <Gold.PLP.Chemscore.Internal.Correction>
0.0226

> <Gold.Rescore>
     Score         DG    S(hbond)    S(metal)    S(lipo)     H(rot)  DE(clash)    DE(int)     intcor
     13.14     -13.96       1.22        0.00      79.03       1.89       0.21       0.61       ----

> <Gold.Chemscore.Fitness>
13.1429

> <Gold.Chemscore.DG>
-13.9581

> <Gold.Chemscore.ZeroCoef>
-5.4800

> <Gold.Chemscore.Hbond>
1.2207

> <Gold.Chemscore.Metal>
0.0000

> <Gold.Chemscore.Lipo>
79.0282

> <Gold.Chemscore.Internal_Hbond>
0.0000

> <Gold.Chemscore.DEClash>
0.2061

> <Gold.Chemscore.DEInternal>
0.6091

> <Gold.Chemscore.Rot>
1.8928

> <Gold.Chemscore.Internal.Correction>
   9.000000E+99

> <Gold.Chemscore.Hbonds>
donor molecule, donor type, donor heavy atom, donor atom, acceptor molecule, acceptor atom, score
      P1  H  7997  8009       L1     1  0.50
      P1  H  8011  8017       L1    19  0.43

> <Gold.Chemscore.Hbond.Weighted>
-4.0773

> <Gold.Chemscore.Metal.Weighted>
-0.0000

> <Gold.Chemscore.Lipo.Weighted>
-9.2463

> <Gold.Chemscore.Internal_Hbond.Weighted>
0.0000

> <Gold.Chemscore.DEClash.Weighted>
0.2061

> <Gold.Chemscore.DEInternal.Weighted>
0.6091

> <Gold.Chemscore.Rot.Weighted>
4.8455

> <Gold.Chemscore.Internal.Correction.Weighted>
   9.000000E+99

> <Gold.Protein.RotatedTorsions>
[ 6907 6896 6895 6894 ] final -163.09 input  -60.11 | X-H torsion
[ 7974 7965 7964 7962 ] final -160.91 input  175.53 | X-H torsion
[ 8008 7997 7996 7995 ] final -167.34 input   59.86 | X-H torsion
[ 10167 10162 10161 10158 ] final   54.13 input  -65.29 | X-H torsion
[ 10718 10713 10712 10709 ] final -149.65 input   66.30 | X-H torsion
[ 10763 10752 10751 10750 ] final -154.36 input  -60.55 | X-H torsion
[ 11005 11000 10999 10996 ] final   63.14 input  -57.11 | X-H torsion

> <Gold.Protein.ActiveResidues>
 VAL166  LYS551  ARG553  GLY616  TRP617  ASP618  TYR619  PRO620  LYS621  CYS622 
 ASP623  PHE694  ASN695  SER759  ASP760  ASP761  ALA762  ILE779  LEU786  VAL792 
 PHE793  MET794  SER795  GLU796  ALA797  LYS798  CYS799  TRP800  GLU811  SER814 

> <Gold.Protein.RotatedAtoms>
  151.3906  133.3790  159.2720 H   0  0  0  0  0  0  0  0  0  0  0  0  # atno 6907 bound_to 6896
  150.9508  134.8909  159.7681 H   0  0  0  0  0  0  0  0  0  0  0  0  # atno 6908 bound_to 6896
  152.5111  134.3861  159.9420 H   0  0  0  0  0  0  0  0  0  0  0  0  # atno 6909 bound_to 6896
  144.7410  140.3474  143.6122 H   0  0  0  0  0  0  0  0  0  0  0  0  # atno 7974 bound_to 7965
  155.8764  140.1002  157.1515 H   0  0  0  0  0  0  0  0  0  0  0  0  # atno 8008 bound_to 7997
  154.4001  140.1337  156.4205 H   0  0  0  0  0  0  0  0  0  0  0  0  # atno 8009 bound_to 7997
  155.7693  140.3461  155.5241 H   0  0  0  0  0  0  0  0  0  0  0  0  # atno 8010 bound_to 7997
  140.2334  144.3662  150.6406 H   0  0  0  0  0  0  0  0  0  0  0  0  # atno 10167 bound_to 10162
  156.4359  130.8098  151.2326 H   0  0  0  0  0  0  0  0  0  0  0  0  # atno 10718 bound_to 10713
  154.7864  135.3192  154.7876 H   0  0  0  0  0  0  0  0  0  0  0  0  # atno 10763 bound_to 10752
  153.8575  135.6856  153.4790 H   0  0  0  0  0  0  0  0  0  0  0  0  # atno 10764 bound_to 10752
  153.1518  135.4696  154.9586 H   0  0  0  0  0  0  0  0  0  0  0  0  # atno 10765 bound_to 10752
  140.0045  134.6391  155.9878 H   0  0  0  0  0  0  0  0  0  0  0  0  # atno 11005 bound_to 11000
  145.7311  139.1736  143.2429 LP  0  0  0  0  0  0  0  0  0  0  0  0  # atno 17320 bound_to 7965
  146.1205  140.7315  142.9460 LP  0  0  0  0  0  0  0  0  0  0  0  0  # atno 17321 bound_to 7965
  140.6168  143.2173  151.6776 LP  0  0  0  0  0  0  0  0  0  0  0  0  # atno 17342 bound_to 10162
  139.5102  144.3551  152.0615 LP  0  0  0  0  0  0  0  0  0  0  0  0  # atno 17343 bound_to 10162
  157.7507  131.0183  150.3623 LP  0  0  0  0  0  0  0  0  0  0  0  0  # atno 17370 bound_to 10713
  156.3970  130.3908  149.6988 LP  0  0  0  0  0  0  0  0  0  0  0  0  # atno 17371 bound_to 10713
  141.1666  133.6537  156.4503 LP  0  0  0  0  0  0  0  0  0  0  0  0  # atno 17394 bound_to 11000
  140.4667  134.6791  157.5110 LP  0  0  0  0  0  0  0  0  0  0  0  0  # atno 17395 bound_to 11000

$$$$
