AV-unprocessed.smi:2820|AV-procd|sdf|10854|dock10
  -GOLD-   2272015303D 1   1.00000     0.00000
 Structure written by MMmdl.
 29 30  0  0  0  0  0  0  0  0  1 V2000
  148.5577  141.0534  154.1958 C   0  0  0  0  0  0  0  0  0  0  0  0
  149.2262  141.9631  155.1114 N   0  0  0  0  0  0  0  0  0  0  0  0
  150.2360  141.5072  155.9706 C   0  0  0  0  0  0  0  0  0  0  0  0
  150.9447  140.3008  155.7651 C   0  0  0  0  0  0  0  0  0  0  0  0
  151.9433  139.9297  156.6862 C   0  0  0  0  0  0  0  0  0  0  0  0
  152.2030  140.7749  157.7846 C   0  0  0  0  0  0  0  0  0  0  0  0
  153.1978  140.4111  158.7033 N   0  0  0  0  0  0  0  0  0  0  0  0
  153.3941  141.3926  159.7630 C   0  0  0  0  0  0  0  0  0  0  0  0
  154.5824  140.9798  160.6489 C   0  0  0  0  0  0  0  0  0  0  0  0
  154.3650  139.6675  161.1599 O   0  0  0  0  0  0  0  0  0  0  0  0
  154.2440  138.7012  160.1196 C   0  0  0  0  0  0  0  0  0  0  0  0
  153.0464  139.0570  159.2218 C   0  0  0  0  0  0  0  0  0  0  0  0
  151.5292  141.9314  157.9888 N   0  0  0  0  0  0  0  0  0  0  0  0
  150.5740  142.2802  157.1014 C   0  0  0  0  0  0  0  0  0  0  0  0
  147.8074  141.5939  153.6188 H   0  0  0  0  0  0  0  0  0  0  0  0
  148.0554  140.2537  154.7409 H   0  0  0  0  0  0  0  0  0  0  0  0
  149.2699  140.6124  153.4978 H   0  0  0  0  0  0  0  0  0  0  0  0
  148.9507  142.9349  155.1258 H   0  0  0  0  0  0  0  0  0  0  0  0
  150.7395  139.6589  154.9213 H   0  0  0  0  0  0  0  0  0  0  0  0
  152.4980  139.0129  156.5499 H   0  0  0  0  0  0  0  0  0  0  0  0
  153.5739  142.3765  159.3281 H   0  0  0  0  0  0  0  0  0  0  0  0
  152.4902  141.4671  160.3693 H   0  0  0  0  0  0  0  0  0  0  0  0
  155.5168  141.0121  160.0864 H   0  0  0  0  0  0  0  0  0  0  0  0
  154.6883  141.6731  161.4833 H   0  0  0  0  0  0  0  0  0  0  0  0
  155.1669  138.6592  159.5389 H   0  0  0  0  0  0  0  0  0  0  0  0
  154.1017  137.7162  160.5641 H   0  0  0  0  0  0  0  0  0  0  0  0
  152.1212  138.9815  159.7946 H   0  0  0  0  0  0  0  0  0  0  0  0
  152.9738  138.3500  158.3946 H   0  0  0  0  0  0  0  0  0  0  0  0
  150.0624  143.2101  157.3031 H   0  0  0  0  0  0  0  0  0  0  0  0
  1  2  1  0  0  0  0
  1 15  1  0  0  0  0
  1 16  1  0  0  0  0
  1 17  1  0  0  0  0
  2  3  1  0  0  0  0
  2 18  1  0  0  0  0
  3 14  1  0  0  0  0
  3  4  2  0  0  0  0
  4  5  1  0  0  0  0
  4 19  1  0  0  0  0
  5  6  2  0  0  0  0
  5 20  1  0  0  0  0
  6  7  1  0  0  0  0
  6 13  1  0  0  0  0
  7 12  1  0  0  0  0
  7  8  1  0  0  0  0
  8  9  1  0  0  0  0
  8 21  1  0  0  0  0
  8 22  1  0  0  0  0
  9 10  1  0  0  0  0
  9 23  1  0  0  0  0
  9 24  1  0  0  0  0
 10 11  1  0  0  0  0
 11 12  1  0  0  0  0
 11 25  1  0  0  0  0
 11 26  1  0  0  0  0
 12 27  1  0  0  0  0
 12 28  1  0  0  0  0
 13 14  2  0  0  0  0
 14 29  1  0  0  0  0
M  END
> <s_m_source_file>
AV-unprocessed.smi

> <i_m_source_file_index>
2820

> <i_lp_mmshare_version>
43012

> <i_f3d_flags>
0

> <s_epik_input>
W0NIM11bTkhdYzFbY0hdW2NIXWMobltjSF0xKU4yW0NIMl1bQ0gyXU9bQ0gyXVtDSDJdMg==

> <s_epik_cmdline>
J2VwaWtfcHl0aG9uJywgJy1waCcsICc3LjAnLCAnLXRuJywgJzgnLCAnLW1hJywgJzIwMCcsICctbWV0YWxfYmluZGluZycsICctaW1hZScsICc8aW5maWxlLm1hZT4nLCAnLW9tYWUnLCAnPG91dGZpbGUubWFlPic=

> <r_lp_tautomer_probability>
1

> <r_epik_Ionization_Penalty>
0.0411205

> <r_epik_Ionization_Penalty_Charging>
0

> <r_epik_Ionization_Penalty_Neutral>
0.0411205

> <r_epik_State_Penalty>
0.0346301

> <r_epik_Charging_Adjusted_Penalty>
0.0346301

> <i_epik_Tot_Q>
0

> <i_epik_Tot_abs_Q>
0

> <r_epik_Metal_State_Penalty>
3.56611e-05

> <b_epik_Metal_Only>
0

> <s_lp_Force_Field>
OPLS_2005

> <r_lp_Energy>
22.0638

> <b_lp_Chiralities_Consistent>
1

> <s_lp_Variant>
AV-unprocessed.smi:2820-1

> <Gold.Version>
5.8.1

> <Gold.Id.Protein>
6NUR|6NUR_protein|mol2

> <Gold.PLP.Fitness>
33.0235

> <Gold.PLP.PLP>
-26.3138

> <Gold.PLP.part.hbond>
-1.8486

> <Gold.PLP.part.metal>
0.0000

> <Gold.PLP.part.buried>
-2.8379

> <Gold.PLP.part.nonpolar>
-21.7590

> <Gold.PLP.part.repulsive>
0.2391

> <Gold.PLP.ligand.clash>
0.0000

> <Gold.PLP.ligand.torsion>
0.1482

> <Gold.PLP.Chemscore.Hbond>
1.3022

> <Gold.PLP.Chemscore.CHOScore>
1.0000

> <Gold.PLP.Chemscore.Metal>
0.0000

> <Gold.Chemscore.Hbonds>
donor molecule, donor type, donor heavy atom, donor atom, acceptor molecule, acceptor atom, score
      L1  H     2    18       P1  8028  1.00
      P1  H  7997  8009       L1     7  0.34
      L1  C    14    29       P1  8028  0.97

> <Gold.PLP.Chemscore.Internal.Correction>
0.0992

> <Gold.Rescore>
     Score         DG    S(hbond)    S(metal)    S(lipo)     H(rot)  DE(clash)    DE(int)     intcor
     13.93     -14.00       1.01        0.00      65.95       1.00       0.01       0.06       ----

> <Gold.Chemscore.Fitness>
13.9337

> <Gold.Chemscore.DG>
-14.0047

> <Gold.Chemscore.ZeroCoef>
-5.4800

> <Gold.Chemscore.Hbond>
1.0085

> <Gold.Chemscore.Metal>
0.0000

> <Gold.Chemscore.Lipo>
65.9515

> <Gold.Chemscore.Internal_Hbond>
0.0000

> <Gold.Chemscore.DEClash>
0.0106

> <Gold.Chemscore.DEInternal>
0.0604

> <Gold.Chemscore.Rot>
1.0000

> <Gold.Chemscore.Internal.Correction>
   9.000000E+99

> <Gold.Chemscore.Hbonds>
donor molecule, donor type, donor heavy atom, donor atom, acceptor molecule, acceptor atom, score
      L1  H     2    18       P1  8028  1.00
      P1  H  7997  8009       L1     7  0.01

> <Gold.Chemscore.Hbond.Weighted>
-3.3684

> <Gold.Chemscore.Metal.Weighted>
-0.0000

> <Gold.Chemscore.Lipo.Weighted>
-7.7163

> <Gold.Chemscore.Internal_Hbond.Weighted>
0.0000

> <Gold.Chemscore.DEClash.Weighted>
0.0106

> <Gold.Chemscore.DEInternal.Weighted>
0.0604

> <Gold.Chemscore.Rot.Weighted>
2.5600

> <Gold.Chemscore.Internal.Correction.Weighted>
   9.000000E+99

> <Gold.Protein.RotatedTorsions>
[ 6907 6896 6895 6894 ] final   21.91 input  -60.11 | X-H torsion
[ 7974 7965 7964 7962 ] final -144.16 input  175.53 | X-H torsion
[ 8008 7997 7996 7995 ] final  138.58 input   59.86 | X-H torsion
[ 10167 10162 10161 10158 ] final  134.86 input  -65.29 | X-H torsion
[ 10718 10713 10712 10709 ] final   90.15 input   66.30 | X-H torsion
[ 10763 10752 10751 10750 ] final  160.99 input  -60.55 | X-H torsion
[ 11005 11000 10999 10996 ] final -101.62 input  -57.11 | X-H torsion

> <Gold.Protein.ActiveResidues>
 VAL166  LYS551  ARG553  GLY616  TRP617  ASP618  TYR619  PRO620  LYS621  CYS622 
 ASP623  PHE694  ASN695  SER759  ASP760  ASP761  ALA762  ILE779  LEU786  VAL792 
 PHE793  MET794  SER795  GLU796  ALA797  LYS798  CYS799  TRP800  GLU811  SER814 

> <Gold.Protein.RotatedAtoms>
  151.9190  135.0306  160.0520 H   0  0  0  0  0  0  0  0  0  0  0  0  # atno 6907 bound_to 6896
  152.2215  133.4983  159.5173 H   0  0  0  0  0  0  0  0  0  0  0  0  # atno 6908 bound_to 6896
  150.7001  134.1252  159.4092 H   0  0  0  0  0  0  0  0  0  0  0  0  # atno 6909 bound_to 6896
  144.8317  140.5744  143.5510 H   0  0  0  0  0  0  0  0  0  0  0  0  # atno 7974 bound_to 7965
  156.2996  140.2390  156.4098 H   0  0  0  0  0  0  0  0  0  0  0  0  # atno 8008 bound_to 7997
  154.8452  140.0426  157.1588 H   0  0  0  0  0  0  0  0  0  0  0  0  # atno 8009 bound_to 7997
  154.9059  140.2983  155.5296 H   0  0  0  0  0  0  0  0  0  0  0  0  # atno 8010 bound_to 7997
  139.5239  144.6546  151.5200 H   0  0  0  0  0  0  0  0  0  0  0  0  # atno 10167 bound_to 10162
  157.6958  131.0360  150.3533 H   0  0  0  0  0  0  0  0  0  0  0  0  # atno 10718 bound_to 10713
  154.2560  135.2770  155.2797 H   0  0  0  0  0  0  0  0  0  0  0  0  # atno 10763 bound_to 10752
  154.5425  135.5698  153.6855 H   0  0  0  0  0  0  0  0  0  0  0  0  # atno 10764 bound_to 10752
  152.9971  135.6254  154.2708 H   0  0  0  0  0  0  0  0  0  0  0  0  # atno 10765 bound_to 10752
  141.1223  133.8492  157.1255 H   0  0  0  0  0  0  0  0  0  0  0  0  # atno 11005 bound_to 11000
  145.4881  139.1490  143.3725 LP  0  0  0  0  0  0  0  0  0  0  0  0  # atno 17320 bound_to 7965
  146.2619  140.5019  142.8850 LP  0  0  0  0  0  0  0  0  0  0  0  0  # atno 17321 bound_to 7965
  140.6366  143.8972  150.6653 LP  0  0  0  0  0  0  0  0  0  0  0  0  # atno 17342 bound_to 10162
  140.2293  143.3748  152.1579 LP  0  0  0  0  0  0  0  0  0  0  0  0  # atno 17343 bound_to 10162
  156.3979  130.3910  149.6981 LP  0  0  0  0  0  0  0  0  0  0  0  0  # atno 17370 bound_to 10713
  156.4309  130.7814  151.2834 LP  0  0  0  0  0  0  0  0  0  0  0  0  # atno 17371 bound_to 10713
  140.0191  134.9954  157.0555 LP  0  0  0  0  0  0  0  0  0  0  0  0  # atno 17394 bound_to 11000
  140.4470  134.1622  155.7178 LP  0  0  0  0  0  0  0  0  0  0  0  0  # atno 17395 bound_to 11000

$$$$
