AV-unprocessed.smi:1293|AV-procd|sdf|5399|dock4
  -GOLD-   22720 4553D 1   1.00000     0.00000
 Structure written by MMmdl.
 39 40  0  0  0  0  0  0  0  0  1 V2000
  150.6235  135.1281  155.3131 C   0  0  0  0  0  0  0  0  0  0  0  0
  151.5600  136.1909  155.3125 O   0  0  0  0  0  0  0  0  0  0  0  0
  150.9646  137.4415  155.6180 C   0  0  0  0  0  0  0  0  0  0  0  0
  150.6080  138.1717  154.3130 C   0  0  0  0  0  0  0  0  0  0  0  0
  149.8553  139.4088  154.5675 N   0  0  0  0  0  0  0  0  0  0  0  0
  150.5072  140.4112  155.3126 C   0  0  0  0  0  0  0  0  0  0  0  0
  149.9217  141.5930  155.6067 C   0  0  0  0  0  0  0  0  0  0  0  0
  150.5131  142.6413  156.3282 N   0  0  0  0  0  0  0  0  0  0  0  0
  151.4061  142.5953  157.3377 C   0  0  0  0  0  0  0  0  0  0  0  0
  151.8570  141.5659  157.8402 O   0  0  0  0  0  0  0  0  0  0  0  0
  151.8625  143.9629  157.8749 C   0  0  0  0  0  0  0  0  0  0  0  0
  152.9725  143.8164  158.9335 C   0  0  0  0  0  0  0  0  0  0  0  0
  152.2640  143.9049  160.2841 C   0  0  0  0  0  0  0  0  0  0  0  0
  151.1526  144.9231  160.0457 C   0  0  0  0  0  0  0  0  0  0  0  0
  150.7169  144.7188  158.5886 C   0  0  0  0  0  0  0  0  0  0  0  0
  148.5756  141.7940  155.1145 C   0  0  0  0  0  0  0  0  0  0  0  0
  147.9464  140.8461  154.3934 C   0  0  0  0  0  0  0  0  0  0  0  0
  148.5912  139.5702  154.0757 C   0  0  0  0  0  0  0  0  0  0  0  0
  148.0292  138.7023  153.4069 O   0  0  0  0  0  0  0  0  0  0  0  0
  151.1312  134.1930  155.0760 H   0  0  0  0  0  0  0  0  0  0  0  0
  149.8456  135.2881  154.5652 H   0  0  0  0  0  0  0  0  0  0  0  0
  150.1532  135.0175  156.2908 H   0  0  0  0  0  0  0  0  0  0  0  0
  150.0766  137.3024  156.2368 H   0  0  0  0  0  0  0  0  0  0  0  0
  151.6673  138.0466  156.1926 H   0  0  0  0  0  0  0  0  0  0  0  0
  151.5211  138.3957  153.7590 H   0  0  0  0  0  0  0  0  0  0  0  0
  150.0435  137.5039  153.6603 H   0  0  0  0  0  0  0  0  0  0  0  0
  151.5099  140.1388  155.6003 H   0  0  0  0  0  0  0  0  0  0  0  0
  150.2206  143.5645  156.0429 H   0  0  0  0  0  0  0  0  0  0  0  0
  152.2398  144.5626  157.0444 H   0  0  0  0  0  0  0  0  0  0  0  0
  153.5480  142.8944  158.8367 H   0  0  0  0  0  0  0  0  0  0  0  0
  153.6772  144.6431  158.8360 H   0  0  0  0  0  0  0  0  0  0  0  0
  151.8317  142.9371  160.5420 H   0  0  0  0  0  0  0  0  0  0  0  0
  152.9350  144.1965  161.0924 H   0  0  0  0  0  0  0  0  0  0  0  0
  150.3269  144.8107  160.7487 H   0  0  0  0  0  0  0  0  0  0  0  0
  151.5529  145.9305  160.1672 H   0  0  0  0  0  0  0  0  0  0  0  0
  150.5200  145.6783  158.1090 H   0  0  0  0  0  0  0  0  0  0  0  0
  149.7795  144.1603  158.5592 H   0  0  0  0  0  0  0  0  0  0  0  0
  148.0614  142.7205  155.3256 H   0  0  0  0  0  0  0  0  0  0  0  0
  146.9422  141.0291  154.0405 H   0  0  0  0  0  0  0  0  0  0  0  0
  1  2  1  0  0  0  0
  1 20  1  0  0  0  0
  1 21  1  0  0  0  0
  1 22  1  0  0  0  0
  2  3  1  0  0  0  0
  3  4  1  0  0  0  0
  3 23  1  0  0  0  0
  3 24  1  0  0  0  0
  4  5  1  0  0  0  0
  4 25  1  0  0  0  0
  4 26  1  0  0  0  0
  5 18  1  0  0  0  0
  5  6  1  0  0  0  0
  6  7  2  0  0  0  0
  6 27  1  0  0  0  0
  7  8  1  0  0  0  0
  7 16  1  0  0  0  0
  8  9  1  0  0  0  0
  8 28  1  0  0  0  0
  9 10  2  0  0  0  0
  9 11  1  0  0  0  0
 11 15  1  0  0  0  0
 11 12  1  0  0  0  0
 11 29  1  0  0  0  0
 12 13  1  0  0  0  0
 12 30  1  0  0  0  0
 12 31  1  0  0  0  0
 13 14  1  0  0  0  0
 13 32  1  0  0  0  0
 13 33  1  0  0  0  0
 14 15  1  0  0  0  0
 14 34  1  0  0  0  0
 14 35  1  0  0  0  0
 15 36  1  0  0  0  0
 15 37  1  0  0  0  0
 16 17  2  0  0  0  0
 16 38  1  0  0  0  0
 17 18  1  0  0  0  0
 17 39  1  0  0  0  0
 18 19  2  0  0  0  0
M  END
> <s_m_source_file>
AV-unprocessed.smi

> <i_m_source_file_index>
1293

> <i_lp_mmshare_version>
43012

> <i_f3d_flags>
0

> <s_epik_input>
W0NIM11PW0NIMl1bQ0gyXW4xW2NIXWMoW2NIXVtjSF1jMT1PKVtOSF1DKD1PKVtDSF0yW0NIMl1bQ0gyXVtDSDJdW0NIMl0y

> <s_epik_cmdline>
J2VwaWtfcHl0aG9uJywgJy1waCcsICc3LjAnLCAnLXRuJywgJzgnLCAnLW1hJywgJzIwMCcsICctbWV0YWxfYmluZGluZycsICctaW1hZScsICc8aW5maWxlLm1hZT4nLCAnLW9tYWUnLCAnPG91dGZpbGUubWFlPic=

> <r_lp_tautomer_probability>
1

> <r_epik_Ionization_Penalty>
2.42474e-06

> <r_epik_Ionization_Penalty_Charging>
2.30353e-06

> <r_epik_Ionization_Penalty_Neutral>
1.21208e-07

> <r_epik_State_Penalty>
-0

> <r_epik_Charging_Adjusted_Penalty>
2.30353e-06

> <i_epik_Tot_Q>
0

> <i_epik_Tot_abs_Q>
0

> <r_epik_Metal_State_Penalty>
-0

> <b_epik_Metal_Only>
0

> <s_lp_Force_Field>
OPLS_2005

> <r_lp_Energy>
36.4395

> <b_lp_Chiralities_Consistent>
1

> <s_lp_Variant>
AV-unprocessed.smi:1293-1

> <Gold.Version>
5.8.1

> <Gold.Id.Protein>
6NUR|6NUR_protein|mol2

> <Gold.PLP.Fitness>
46.2175

> <Gold.PLP.PLP>
-41.2760

> <Gold.PLP.part.hbond>
-2.0000

> <Gold.PLP.part.metal>
0.0000

> <Gold.PLP.part.buried>
-2.9889

> <Gold.PLP.part.nonpolar>
-37.4949

> <Gold.PLP.part.repulsive>
1.2491

> <Gold.PLP.ligand.clash>
0.0000

> <Gold.PLP.ligand.torsion>
0.5457

> <Gold.PLP.Chemscore.Hbond>
2.0000

> <Gold.PLP.Chemscore.CHOScore>
0.0000

> <Gold.PLP.Chemscore.Metal>
0.0000

> <Gold.Chemscore.Hbonds>
donor molecule, donor type, donor heavy atom, donor atom, acceptor molecule, acceptor atom, score
      L1  H     8    28       P1  8028  1.00
      P1  H 10752 10764       L1     2  1.00

> <Gold.PLP.Chemscore.Internal.Correction>
0.0329

> <Gold.Rescore>
     Score         DG    S(hbond)    S(metal)    S(lipo)     H(rot)  DE(clash)    DE(int)     intcor
     19.46     -20.21       1.94        0.00     104.07       1.53       0.15       0.59       ----

> <Gold.Chemscore.Fitness>
19.4592

> <Gold.Chemscore.DG>
-20.2060

> <Gold.Chemscore.ZeroCoef>
-5.4800

> <Gold.Chemscore.Hbond>
1.9372

> <Gold.Chemscore.Metal>
0.0000

> <Gold.Chemscore.Lipo>
104.0738

> <Gold.Chemscore.Internal_Hbond>
0.0000

> <Gold.Chemscore.DEClash>
0.1546

> <Gold.Chemscore.DEInternal>
0.5922

> <Gold.Chemscore.Rot>
1.5316

> <Gold.Chemscore.Internal.Correction>
   9.000000E+99

> <Gold.Chemscore.Hbonds>
donor molecule, donor type, donor heavy atom, donor atom, acceptor molecule, acceptor atom, score
      L1  H     8    28       P1  8028  0.94
      P1  H 10752 10764       L1     2  0.55

> <Gold.Chemscore.Hbond.Weighted>
-6.4702

> <Gold.Chemscore.Metal.Weighted>
-0.0000

> <Gold.Chemscore.Lipo.Weighted>
-12.1766

> <Gold.Chemscore.Internal_Hbond.Weighted>
0.0000

> <Gold.Chemscore.DEClash.Weighted>
0.1546

> <Gold.Chemscore.DEInternal.Weighted>
0.5922

> <Gold.Chemscore.Rot.Weighted>
3.9209

> <Gold.Chemscore.Internal.Correction.Weighted>
   9.000000E+99

> <Gold.Protein.RotatedTorsions>
[ 6907 6896 6895 6894 ] final  -75.27 input  -60.11 | X-H torsion
[ 7974 7965 7964 7962 ] final  113.24 input  175.53 | X-H torsion
[ 8008 7997 7996 7995 ] final   40.93 input   59.86 | X-H torsion
[ 10167 10162 10161 10158 ] final  155.55 input  -65.29 | X-H torsion
[ 10718 10713 10712 10709 ] final  122.83 input   66.30 | X-H torsion
[ 10763 10752 10751 10750 ] final  -64.01 input  -60.55 | X-H torsion
[ 11005 11000 10999 10996 ] final   24.49 input  -57.11 | X-H torsion

> <Gold.Protein.ActiveResidues>
 VAL166  LYS551  ARG553  GLY616  TRP617  ASP618  TYR619  PRO620  LYS621  CYS622 
 ASP623  PHE694  ASN695  SER759  ASP760  ASP761  ALA762  ILE779  LEU786  VAL792 
 PHE793  MET794  SER795  GLU796  ALA797  LYS798  CYS799  TRP800  GLU811  SER814 

> <Gold.Protein.RotatedAtoms>
  150.7064  134.4745  159.5440 H   0  0  0  0  0  0  0  0  0  0  0  0  # atno 6907 bound_to 6896
  152.2395  134.8240  160.0471 H   0  0  0  0  0  0  0  0  0  0  0  0  # atno 6908 bound_to 6896
  151.9027  133.3507  159.3873 H   0  0  0  0  0  0  0  0  0  0  0  0  # atno 6909 bound_to 6896
  145.2194  139.2869  143.4226 H   0  0  0  0  0  0  0  0  0  0  0  0  # atno 7974 bound_to 7965
  155.2613  140.3359  155.4273 H   0  0  0  0  0  0  0  0  0  0  0  0  # atno 8008 bound_to 7997
  156.2173  140.1794  156.7601 H   0  0  0  0  0  0  0  0  0  0  0  0  # atno 8009 bound_to 7997
  154.5773  140.0659  156.9037 H   0  0  0  0  0  0  0  0  0  0  0  0  # atno 8010 bound_to 7997
  139.4821  144.5088  151.8056 H   0  0  0  0  0  0  0  0  0  0  0  0  # atno 10167 bound_to 10162
  157.5712  131.1083  150.8363 H   0  0  0  0  0  0  0  0  0  0  0  0  # atno 10718 bound_to 10713
  154.3237  135.6191  153.5519 H   0  0  0  0  0  0  0  0  0  0  0  0  # atno 10763 bound_to 10752
  152.9817  135.5730  154.5041 H   0  0  0  0  0  0  0  0  0  0  0  0  # atno 10764 bound_to 10752
  154.4714  135.2859  155.1616 H   0  0  0  0  0  0  0  0  0  0  0  0  # atno 10765 bound_to 10752
  140.3581  134.2155  155.7674 H   0  0  0  0  0  0  0  0  0  0  0  0  # atno 11005 bound_to 11000
  146.3379  140.2495  142.8598 LP  0  0  0  0  0  0  0  0  0  0  0  0  # atno 17320 bound_to 7965
  144.9780  140.8432  143.5415 LP  0  0  0  0  0  0  0  0  0  0  0  0  # atno 17321 bound_to 7965
  140.4589  144.1750  150.5904 LP  0  0  0  0  0  0  0  0  0  0  0  0  # atno 17342 bound_to 10162
  140.4506  143.2488  151.9353 LP  0  0  0  0  0  0  0  0  0  0  0  0  # atno 17343 bound_to 10162
  156.8834  130.5187  149.5290 LP  0  0  0  0  0  0  0  0  0  0  0  0  # atno 17370 bound_to 10713
  156.0758  130.5780  150.9470 LP  0  0  0  0  0  0  0  0  0  0  0  0  # atno 17371 bound_to 10713
  141.1992  133.8017  157.0546 LP  0  0  0  0  0  0  0  0  0  0  0  0  # atno 17394 bound_to 11000
  140.0649  134.9735  157.1368 LP  0  0  0  0  0  0  0  0  0  0  0  0  # atno 17395 bound_to 11000

$$$$
