AV-unprocessed.smi:255|AV-procd|sdf|1949|dock1
  -GOLD-   2262021 83D 1   1.00000     0.00000
 Structure written by MMmdl.
 44 47  0  0  0  0  0  0  0  0  1 V2000
  154.3383  138.1186  160.0599 O   0  0  0  0  0  0  0  0  0  0  0  0
  153.1147  138.6004  159.5457 C   0  0  0  0  0  0  0  0  0  0  0  0
  153.1992  140.1149  159.2762 C   0  0  2  0  0  0  0  0  0  0  0  0
  153.5173  140.9306  160.5299 C   0  0  0  0  0  0  0  0  0  0  0  0
  153.0765  142.3272  160.1088 C   0  0  2  0  0  0  0  0  0  0  0  0
  152.8137  143.1166  161.1497 F   0  0  0  0  0  0  0  0  0  0  0  0
  151.8434  142.0675  159.2392 C   0  0  0  0  0  0  0  0  0  0  0  0
  151.9367  140.6766  158.7992 N   0  0  0  0  0  0  0  0  0  0  0  0
  151.6769  140.4607  157.4906 C   0  0  0  0  0  0  0  0  0  0  0  0
  152.5418  139.7366  156.7322 N   0  0  0  0  0  0  0  0  0  0  0  0
  152.2692  139.5113  155.4432 C   0  0  0  0  0  0  0  0  0  0  0  0
  151.2117  139.9085  154.7312 N   0  0  0  0  0  0  0  0  0  0  0  0
  150.3435  140.6338  155.4939 C   0  0  0  0  0  0  0  0  0  0  0  0
  150.4980  140.9503  156.8720 C   0  0  0  0  0  0  0  0  0  0  0  0
  149.4127  141.6932  157.3177 N   0  0  0  0  0  0  0  0  0  0  0  0
  148.6597  141.8161  156.2583 C   0  0  0  0  0  0  0  0  0  0  0  0
  149.1460  141.2166  155.1175 N   0  0  0  0  0  0  0  0  0  0  0  0
  148.5164  141.2030  153.8061 C   0  0  0  0  0  0  0  0  0  0  0  0
  147.2897  140.2649  153.7254 C   0  0  1  0  0  0  0  0  0  0  0  0
  146.6537  140.4471  152.4718 O   0  0  0  0  0  0  0  0  0  0  0  0
  147.6225  138.7846  153.8905 C   0  0  0  0  0  0  0  0  0  0  0  0
  146.3741  138.2287  154.5607 C   0  0  0  0  0  0  0  0  0  0  0  0
  146.0294  139.2592  155.4708 O   0  0  0  0  0  0  0  0  0  0  0  0
  146.2525  140.5156  154.8386 C   0  0  0  0  0  0  0  0  0  0  0  0
  153.9892  140.3111  158.5483 H   0  0  0  0  0  0  0  0  0  0  0  0
  153.8594  142.8054  159.5186 H   0  0  0  0  0  0  0  0  0  0  0  0
  154.6444  137.4206  159.5010 H   0  0  0  0  0  0  0  0  0  0  0  0
  152.8308  138.0463  158.6502 H   0  0  0  0  0  0  0  0  0  0  0  0
  152.3536  138.3997  160.3002 H   0  0  0  0  0  0  0  0  0  0  0  0
  152.9169  140.5841  161.3728 H   0  0  0  0  0  0  0  0  0  0  0  0
  154.5686  140.8840  160.8158 H   0  0  0  0  0  0  0  0  0  0  0  0
  150.9353  142.1633  159.8351 H   0  0  0  0  0  0  0  0  0  0  0  0
  151.7728  142.7859  158.4215 H   0  0  0  0  0  0  0  0  0  0  0  0
  153.0024  138.9283  154.9055 H   0  0  0  0  0  0  0  0  0  0  0  0
  147.7241  142.3560  156.2777 H   0  0  0  0  0  0  0  0  0  0  0  0
  148.2242  142.2241  153.5573 H   0  0  0  0  0  0  0  0  0  0  0  0
  149.2652  140.9120  153.0681 H   0  0  0  0  0  0  0  0  0  0  0  0
  145.7231  140.5266  152.6170 H   0  0  0  0  0  0  0  0  0  0  0  0
  147.8739  138.2802  152.9564 H   0  0  0  0  0  0  0  0  0  0  0  0
  148.4649  138.6609  154.5722 H   0  0  0  0  0  0  0  0  0  0  0  0
  145.5687  138.0870  153.8384 H   0  0  0  0  0  0  0  0  0  0  0  0
  146.5538  137.2827  155.0717 H   0  0  0  0  0  0  0  0  0  0  0  0
  146.6068  141.2290  155.5834 H   0  0  0  0  0  0  0  0  0  0  0  0
  145.3097  140.8984  154.4442 H   0  0  0  0  0  0  0  0  0  0  0  0
  1  2  1  0  0  0  0
  1 27  1  0  0  0  0
  2  3  1  0  0  0  0
  2 28  1  0  0  0  0
  2 29  1  0  0  0  0
  3 25  1  0  0  0  0
  3  8  1  0  0  0  0
  3  4  1  0  0  0  0
  4  5  1  0  0  0  0
  4 30  1  0  0  0  0
  4 31  1  0  0  0  0
  5 26  1  0  0  0  0
  5  6  1  0  0  0  0
  5  7  1  0  0  0  0
  7  8  1  0  0  0  0
  7 32  1  0  0  0  0
  7 33  1  0  0  0  0
  8  9  1  0  0  0  0
  9 14  1  0  0  0  0
  9 10  2  0  0  0  0
 10 11  1  0  0  0  0
 11 12  2  0  0  0  0
 11 34  1  0  0  0  0
 12 13  1  0  0  0  0
 13 17  1  0  0  0  0
 13 14  2  0  0  0  0
 14 15  1  0  0  0  0
 15 16  2  0  0  0  0
 16 17  1  0  0  0  0
 16 35  1  0  0  0  0
 17 18  1  0  0  0  0
 18 19  1  0  0  0  0
 18 36  1  0  0  0  0
 18 37  1  0  0  0  0
 19 24  1  0  0  0  0
 19 20  1  0  0  0  0
 19 21  1  0  0  0  0
 20 38  1  0  0  0  0
 21 22  1  0  0  0  0
 21 39  1  0  0  0  0
 21 40  1  0  0  0  0
 22 23  1  0  0  0  0
 22 41  1  0  0  0  0
 22 42  1  0  0  0  0
 23 24  1  0  0  0  0
 24 43  1  0  0  0  0
 24 44  1  0  0  0  0
M  END
> <s_m_source_file>
AV-unprocessed.smi

> <i_m_source_file_index>
255

> <i_lp_mmshare_version>
43012

> <i_f3d_flags>
0

> <s_epik_input>
W09IXVtDSDJdW0NAQEhdMVtDSDJdW0NASF0oRilbQ0gyXU4xYyhuW2NIXW4yKWMoYzIzKW5bY0hdbjNbQ0gyXVtDQEBdNChbT0hdKVtDSDJdW0NIMl1PW0NIMl00

> <s_epik_cmdline>
J2VwaWtfcHl0aG9uJywgJy1waCcsICc3LjAnLCAnLXRuJywgJzgnLCAnLW1hJywgJzIwMCcsICctbWV0YWxfYmluZGluZycsICctaW1hZScsICc8aW5maWxlLm1hZT4nLCAnLW9tYWUnLCAnPG91dGZpbGUubWFlPic=

> <r_lp_tautomer_probability>
1

> <r_epik_Ionization_Penalty>
0.0058098

> <r_epik_Ionization_Penalty_Charging>
0

> <r_epik_Ionization_Penalty_Neutral>
0.0058098

> <r_epik_State_Penalty>
0.00411166

> <r_epik_Charging_Adjusted_Penalty>
0.00411166

> <i_epik_Tot_Q>
0

> <i_epik_Tot_abs_Q>
0

> <r_epik_Metal_State_Penalty>
-0

> <b_epik_Metal_Only>
0

> <s_lp_Force_Field>
OPLS_2005

> <r_lp_Energy>
52.3254

> <b_lp_Chiralities_Consistent>
1

> <s_lp_Variant>
AV-unprocessed.smi:255-1

> <Gold.Version>
5.8.1

> <Gold.Id.Protein>
6NUR|6NUR_protein|mol2

> <Gold.PLP.Fitness>
48.4709

> <Gold.PLP.PLP>
-39.3893

> <Gold.PLP.part.hbond>
-3.3391

> <Gold.PLP.part.metal>
0.0000

> <Gold.PLP.part.buried>
-2.7881

> <Gold.PLP.part.nonpolar>
-33.2031

> <Gold.PLP.part.repulsive>
0.2295

> <Gold.PLP.ligand.clash>
0.0000

> <Gold.PLP.ligand.torsion>
0.2833

> <Gold.PLP.Chemscore.Hbond>
3.0000

> <Gold.PLP.Chemscore.CHOScore>
0.1817

> <Gold.PLP.Chemscore.Metal>
0.0000

> <Gold.Chemscore.Hbonds>
donor molecule, donor type, donor heavy atom, donor atom, acceptor molecule, acceptor atom, score
      L1  H    20    38       P1 10175  0.99
      P1  H  7989  7998       L1    12  1.00
      P1  H  7997  8008       L1    10  1.00
      L1  C    16    35       P1  8028  0.18

> <Gold.PLP.Chemscore.Internal.Correction>
0.1030

> <Gold.Rescore>
     Score         DG    S(hbond)    S(metal)    S(lipo)     H(rot)  DE(clash)    DE(int)     intcor
     11.41     -11.76       2.00        0.00      69.48       3.33       0.03       0.32       ----

> <Gold.Chemscore.Fitness>
11.4135

> <Gold.Chemscore.DG>
-11.7645

> <Gold.Chemscore.ZeroCoef>
-5.4800

> <Gold.Chemscore.Hbond>
1.9980

> <Gold.Chemscore.Metal>
0.0000

> <Gold.Chemscore.Lipo>
69.4781

> <Gold.Chemscore.Internal_Hbond>
0.0000

> <Gold.Chemscore.DEClash>
0.0287

> <Gold.Chemscore.DEInternal>
0.3223

> <Gold.Chemscore.Rot>
3.3273

> <Gold.Chemscore.Internal.Correction>
   9.000000E+99

> <Gold.Chemscore.Hbonds>
donor molecule, donor type, donor heavy atom, donor atom, acceptor molecule, acceptor atom, score
      L1  H    20    38       P1 10175  0.51
      P1  H  7989  7998       L1    12  0.45
      P1  H  7997  8008       L1    10  0.43

> <Gold.Chemscore.Hbond.Weighted>
-6.6734

> <Gold.Chemscore.Metal.Weighted>
-0.0000

> <Gold.Chemscore.Lipo.Weighted>
-8.1289

> <Gold.Chemscore.Internal_Hbond.Weighted>
0.0000

> <Gold.Chemscore.DEClash.Weighted>
0.0287

> <Gold.Chemscore.DEInternal.Weighted>
0.3223

> <Gold.Chemscore.Rot.Weighted>
8.5179

> <Gold.Chemscore.Internal.Correction.Weighted>
   9.000000E+99

> <Gold.Protein.RotatedTorsions>
[ 6907 6896 6895 6894 ] final   65.38 input  -60.11 | X-H torsion
[ 7974 7965 7964 7962 ] final  112.74 input  175.53 | X-H torsion
[ 8008 7997 7996 7995 ] final  -68.55 input   59.86 | X-H torsion
[ 10167 10162 10161 10158 ] final   -2.59 input  -65.29 | X-H torsion
[ 10718 10713 10712 10709 ] final  146.95 input   66.30 | X-H torsion
[ 10763 10752 10751 10750 ] final -123.65 input  -60.55 | X-H torsion
[ 11005 11000 10999 10996 ] final   43.42 input  -57.11 | X-H torsion

> <Gold.Protein.ActiveResidues>
 VAL166  LYS551  ARG553  GLY616  TRP617  ASP618  TYR619  PRO620  LYS621  CYS622 
 ASP623  PHE694  ASN695  SER759  ASP760  ASP761  ALA762  ILE779  LEU786  VAL792 
 PHE793  MET794  SER795  GLU796  ALA797  LYS798  CYS799  TRP800  GLU811  SER814 

> <Gold.Protein.RotatedAtoms>
  152.4403  134.5604  159.9892 H   0  0  0  0  0  0  0  0  0  0  0  0  # atno 6907 bound_to 6896
  151.5703  133.3385  159.2996 H   0  0  0  0  0  0  0  0  0  0  0  0  # atno 6908 bound_to 6896
  150.8308  134.7594  159.6916 H   0  0  0  0  0  0  0  0  0  0  0  0  # atno 6909 bound_to 6896
  145.2257  139.2842  143.4194 H   0  0  0  0  0  0  0  0  0  0  0  0  # atno 7974 bound_to 7965
  154.4875  140.0871  156.7520 H   0  0  0  0  0  0  0  0  0  0  0  0  # atno 8008 bound_to 7997
  155.4312  140.3450  155.4262 H   0  0  0  0  0  0  0  0  0  0  0  0  # atno 8009 bound_to 7997
  156.1283  140.1494  156.9091 H   0  0  0  0  0  0  0  0  0  0  0  0  # atno 8010 bound_to 7997
  140.6857  143.6639  150.8243 H   0  0  0  0  0  0  0  0  0  0  0  0  # atno 10167 bound_to 10162
  157.3270  131.0914  151.1194 H   0  0  0  0  0  0  0  0  0  0  0  0  # atno 10718 bound_to 10713
  154.8711  135.4091  154.2978 H   0  0  0  0  0  0  0  0  0  0  0  0  # atno 10763 bound_to 10752
  153.3842  135.7012  153.6548 H   0  0  0  0  0  0  0  0  0  0  0  0  # atno 10764 bound_to 10752
  153.5357  135.3658  155.2667 H   0  0  0  0  0  0  0  0  0  0  0  0  # atno 10765 bound_to 10752
  140.1647  134.4297  155.8295 H   0  0  0  0  0  0  0  0  0  0  0  0  # atno 11005 bound_to 11000
  146.3365  140.2577  142.8601 LP  0  0  0  0  0  0  0  0  0  0  0  0  # atno 17320 bound_to 7965
  144.9723  140.8380  143.5448 LP  0  0  0  0  0  0  0  0  0  0  0  0  # atno 17321 bound_to 7965
  140.0345  143.5409  152.2745 LP  0  0  0  0  0  0  0  0  0  0  0  0  # atno 17342 bound_to 10162
  139.6214  144.7629  151.2733 LP  0  0  0  0  0  0  0  0  0  0  0  0  # atno 17343 bound_to 10162
  157.2457  130.6590  149.5909 LP  0  0  0  0  0  0  0  0  0  0  0  0  # atno 17370 bound_to 10713
  155.9691  130.4554  150.5887 LP  0  0  0  0  0  0  0  0  0  0  0  0  # atno 17371 bound_to 10713
  141.2212  133.6929  156.7657 LP  0  0  0  0  0  0  0  0  0  0  0  0  # atno 17394 bound_to 11000
  140.2448  134.8586  157.3609 LP  0  0  0  0  0  0  0  0  0  0  0  0  # atno 17395 bound_to 11000

$$$$
