AV-unprocessed.smi:2547|AV-procd|sdf|10003|dock8
  -GOLD-   2272014 53D 1   1.00000     0.00000
 Structure written by MMmdl.
 45 46  0  0  0  0  0  0  0  0  3 V2000
  143.2016  131.9005  150.2858 C   0  0  0  0  0  0  0  0  0  0  0  0
  143.5467  133.3095  150.5721 N   0  3  2  0  0  0  0  0  0  0  0  0
  144.9096  133.6636  150.1034 C   0  0  0  0  0  0  0  0  0  0  0  0
  145.1910  135.1628  150.3015 C   0  0  0  0  0  0  0  0  0  0  0  0
  144.9954  135.5750  151.7699 C   0  0  1  0  0  0  0  0  0  0  0  0
  145.1899  137.0152  151.9124 N   0  0  0  0  0  0  0  0  0  0  0  0
  146.0162  137.5973  152.7937 C   0  0  0  0  0  0  0  0  0  0  0  0
  146.7059  136.9669  153.5949 O   0  0  0  0  0  0  0  0  0  0  0  0
  145.9696  138.9373  152.6969 N   0  0  0  0  0  0  0  0  0  0  0  0
  146.6946  139.8945  153.4549 C   0  0  0  0  0  0  0  0  0  0  0  0
  148.0330  139.7219  153.8816 C   0  0  0  0  0  0  0  0  0  0  0  0
  148.6613  140.7467  154.6150 C   0  0  0  0  0  0  0  0  0  0  0  0
  147.9515  141.9284  154.9050 C   0  0  0  0  0  0  0  0  0  0  0  0
  146.6185  142.0746  154.4502 C   0  0  0  0  0  0  0  0  0  0  0  0
  145.8413  143.2276  154.6943 N   0  0  0  0  0  0  0  0  0  0  0  0
  145.4221  144.0683  153.5803 C   0  0  0  0  0  0  0  0  0  0  0  0
  145.3929  143.5249  156.0502 C   0  0  0  0  0  0  0  0  0  0  0  0
  146.0652  141.0551  153.7472 N   0  3  0  0  0  0  0  0  0  0  0  0
  143.5875  135.1619  152.2385 C   0  0  0  0  0  0  0  0  0  0  0  0
  143.3401  133.6631  151.9986 C   0  0  0  0  0  0  0  0  0  0  0  0
  143.8613  131.2186  150.8241 H   0  0  0  0  0  0  0  0  0  0  0  0
  143.2902  131.6920  149.2191 H   0  0  0  0  0  0  0  0  0  0  0  0
  142.1737  131.6875  150.5812 H   0  0  0  0  0  0  0  0  0  0  0  0
  145.6485  133.0685  150.6426 H   0  0  0  0  0  0  0  0  0  0  0  0
  145.0100  133.4115  149.0470 H   0  0  0  0  0  0  0  0  0  0  0  0
  146.2081  135.3914  149.9807 H   0  0  0  0  0  0  0  0  0  0  0  0
  144.5263  135.7437  149.6600 H   0  0  0  0  0  0  0  0  0  0  0  0
  145.7399  135.0516  152.3734 H   0  0  0  0  0  0  0  0  0  0  0  0
  144.6579  137.6103  151.2938 H   0  0  0  0  0  0  0  0  0  0  0  0
  145.2898  139.3143  152.0529 H   0  0  0  0  0  0  0  0  0  0  0  0
  148.5926  138.8281  153.6499 H   0  0  0  0  0  0  0  0  0  0  0  0
  149.6815  140.6287  154.9491 H   0  0  0  0  0  0  0  0  0  0  0  0
  148.4453  142.7053  155.4695 H   0  0  0  0  0  0  0  0  0  0  0  0
  144.8344  143.4919  152.8652 H   0  0  0  0  0  0  0  0  0  0  0  0
  146.2891  144.4839  153.0657 H   0  0  0  0  0  0  0  0  0  0  0  0
  144.8078  144.9016  153.9215 H   0  0  0  0  0  0  0  0  0  0  0  0
  146.2456  143.6418  156.7199 H   0  0  0  0  0  0  0  0  0  0  0  0
  144.7607  142.7216  156.4297 H   0  0  0  0  0  0  0  0  0  0  0  0
  144.8150  144.4487  156.0840 H   0  0  0  0  0  0  0  0  0  0  0  0
  143.4594  135.3880  153.2979 H   0  0  0  0  0  0  0  0  0  0  0  0
  142.8332  135.7434  151.7057 H   0  0  0  0  0  0  0  0  0  0  0  0
  142.3207  133.4118  152.2940 H   0  0  0  0  0  0  0  0  0  0  0  0
  144.0078  133.0677  152.6235 H   0  0  0  0  0  0  0  0  0  0  0  0
  142.9016  133.8754  150.0390 H   0  0  0  0  0  0  0  0  0  0  0  0
  145.1050  141.1702  153.4234 H   0  0  0  0  0  0  0  0  0  0  0  0
  1  2  1  0  0  0  0
  1 21  1  0  0  0  0
  1 22  1  0  0  0  0
  1 23  1  0  0  0  0
  2 20  1  0  0  0  0
  2  3  1  0  0  0  0
  2 44  1  0  0  0  0
  3  4  1  0  0  0  0
  3 24  1  0  0  0  0
  3 25  1  0  0  0  0
  4  5  1  0  0  0  0
  4 26  1  0  0  0  0
  4 27  1  0  0  0  0
  5  6  1  0  0  0  0
  5 19  1  0  0  0  0
  5 28  1  0  0  0  0
  6  7  1  0  0  0  0
  6 29  1  0  0  0  0
  7  8  2  0  0  0  0
  7  9  1  0  0  0  0
  9 10  1  0  0  0  0
  9 30  1  0  0  0  0
 10 18  1  0  0  0  0
 10 11  2  0  0  0  0
 11 12  1  0  0  0  0
 11 31  1  0  0  0  0
 12 13  2  0  0  0  0
 12 32  1  0  0  0  0
 13 14  1  0  0  0  0
 13 33  1  0  0  0  0
 14 15  1  0  0  0  0
 14 18  2  0  0  0  0
 15 16  1  0  0  0  0
 15 17  1  0  0  0  0
 16 34  1  0  0  0  0
 16 35  1  0  0  0  0
 16 36  1  0  0  0  0
 17 37  1  0  0  0  0
 17 38  1  0  0  0  0
 17 39  1  0  0  0  0
 18 45  1  0  0  0  0
 19 20  1  0  0  0  0
 19 40  1  0  0  0  0
 19 41  1  0  0  0  0
 20 42  1  0  0  0  0
 20 43  1  0  0  0  0
M  CHG  1   2   1
M  CHG  1  18   1
M  END
> <s_m_source_file>
AV-unprocessed.smi

> <i_m_source_file_index>
2547

> <i_lp_mmshare_version>
43012

> <i_f3d_flags>
0

> <s_epik_input>
W0NIM11OMVtDSDJdW0NIMl1bQ0hdKFtDSDJdW0NIMl0xKVtOSF1DKD1PKVtOSF1jMltjSF1bY0hdW2NIXWMobjIpTihbQ0gzXSlbQ0gzXQ==

> <s_epik_cmdline>
J2VwaWtfcHl0aG9uJywgJy1waCcsICc3LjAnLCAnLXRuJywgJzgnLCAnLW1hJywgJzIwMCcsICctbWV0YWxfYmluZGluZycsICctaW1hZScsICc8aW5maWxlLm1hZT4nLCAnLW9tYWUnLCAnPG91dGZpbGUubWFlPic=

> <r_lp_tautomer_probability>
0.999994

> <r_epik_Ionization_Penalty>
2.17028

> <r_epik_Ionization_Penalty_Charging>
2.10368

> <r_epik_Ionization_Penalty_Neutral>
0.0666017

> <r_epik_State_Penalty>
2.2357

> <r_epik_Charging_Adjusted_Penalty>
4.33938

> <i_epik_Tot_Q>
2

> <i_epik_Tot_abs_Q>
2

> <r_epik_Metal_State_Penalty>
2.25749

> <b_epik_Metal_Only>
0

> <s_lp_Force_Field>
OPLS_2005

> <r_lp_Energy>
26.2357

> <b_lp_Chiralities_Consistent>
1

> <s_lp_Variant>
AV-unprocessed.smi:2547-3

> <Gold.Version>
5.8.1

> <Gold.Id.Protein>
6NUR|6NUR_protein|mol2

> <Gold.PLP.Fitness>
45.7073

> <Gold.PLP.PLP>
-32.2638

> <Gold.PLP.part.hbond>
-4.0000

> <Gold.PLP.part.metal>
0.0000

> <Gold.PLP.part.buried>
2.2014

> <Gold.PLP.part.nonpolar>
-33.0322

> <Gold.PLP.part.repulsive>
1.4866

> <Gold.PLP.ligand.clash>
0.0000

> <Gold.PLP.ligand.torsion>
1.5967

> <Gold.PLP.Chemscore.Hbond>
5.5440

> <Gold.PLP.Chemscore.CHOScore>
0.0000

> <Gold.PLP.Chemscore.Metal>
0.0000

> <Gold.Chemscore.Hbonds>
donor molecule, donor type, donor heavy atom, donor atom, acceptor molecule, acceptor atom, score
      L1  H     2    44       P1 10186  2.00
      L1  H     6    29       P1 10171  1.00
      L1  H     9    30       P1 10175  0.59
      L1  H    18    45       P1 10175  1.95

> <Gold.PLP.Chemscore.Internal.Correction>
0.0049

> <Gold.Rescore>
     Score         DG    S(hbond)    S(metal)    S(lipo)     H(rot)  DE(clash)    DE(int)     intcor
     17.30     -21.42       3.06        0.00      70.68       1.00       2.17       1.95       ----

> <Gold.Chemscore.Fitness>
17.3008

> <Gold.Chemscore.DG>
-21.4196

> <Gold.Chemscore.ZeroCoef>
-5.4800

> <Gold.Chemscore.Hbond>
3.0628

> <Gold.Chemscore.Metal>
0.0000

> <Gold.Chemscore.Lipo>
70.6840

> <Gold.Chemscore.Internal_Hbond>
0.0000

> <Gold.Chemscore.DEClash>
2.1709

> <Gold.Chemscore.DEInternal>
1.9480

> <Gold.Chemscore.Rot>
1.0000

> <Gold.Chemscore.Internal.Correction>
   9.000000E+99

> <Gold.Chemscore.Hbonds>
donor molecule, donor type, donor heavy atom, donor atom, acceptor molecule, acceptor atom, score
      L1  H     2    44       P1 10186  0.89
      L1  H     6    29       P1 10171  0.99
      L1  H     9    30       P1 10175  0.55
      L1  H    18    45       P1 10175  0.32

> <Gold.Chemscore.Hbond.Weighted>
-10.2296

> <Gold.Chemscore.Metal.Weighted>
-0.0000

> <Gold.Chemscore.Lipo.Weighted>
-8.2700

> <Gold.Chemscore.Internal_Hbond.Weighted>
0.0000

> <Gold.Chemscore.DEClash.Weighted>
2.1709

> <Gold.Chemscore.DEInternal.Weighted>
1.9480

> <Gold.Chemscore.Rot.Weighted>
2.5600

> <Gold.Chemscore.Internal.Correction.Weighted>
   9.000000E+99

> <Gold.Protein.RotatedTorsions>
[ 6907 6896 6895 6894 ] final  115.04 input  -60.11 | X-H torsion
[ 7974 7965 7964 7962 ] final   25.40 input  175.53 | X-H torsion
[ 8008 7997 7996 7995 ] final -117.84 input   59.86 | X-H torsion
[ 10167 10162 10161 10158 ] final -144.87 input  -65.29 | X-H torsion
[ 10718 10713 10712 10709 ] final   14.93 input   66.30 | X-H torsion
[ 10763 10752 10751 10750 ] final  145.37 input  -60.55 | X-H torsion
[ 11005 11000 10999 10996 ] final -166.56 input  -57.11 | X-H torsion

> <Gold.Protein.ActiveResidues>
 VAL166  LYS551  ARG553  GLY616  TRP617  ASP618  TYR619  PRO620  LYS621  CYS622 
 ASP623  PHE694  ASN695  SER759  ASP760  ASP761  ALA762  ILE779  LEU786  VAL792 
 PHE793  MET794  SER795  GLU796  ALA797  LYS798  CYS799  TRP800  GLU811  SER814 

> <Gold.Protein.RotatedAtoms>
  152.4766  133.8152  159.7024 H   0  0  0  0  0  0  0  0  0  0  0  0  # atno 6907 bound_to 6896
  150.8787  133.7393  159.2945 H   0  0  0  0  0  0  0  0  0  0  0  0  # atno 6908 bound_to 6896
  151.4905  135.1060  159.9854 H   0  0  0  0  0  0  0  0  0  0  0  0  # atno 6909 bound_to 6896
  146.1890  139.7471  142.8845 H   0  0  0  0  0  0  0  0  0  0  0  0  # atno 7974 bound_to 7965
  155.0901  140.0395  157.2666 H   0  0  0  0  0  0  0  0  0  0  0  0  # atno 8008 bound_to 7997
  154.6839  140.2639  155.6856 H   0  0  0  0  0  0  0  0  0  0  0  0  # atno 8009 bound_to 7997
  156.2704  140.2773  156.1393 H   0  0  0  0  0  0  0  0  0  0  0  0  # atno 8010 bound_to 7997
  139.7859  143.8035  152.2644 H   0  0  0  0  0  0  0  0  0  0  0  0  # atno 10167 bound_to 10162
  157.0462  130.6251  149.5759 H   0  0  0  0  0  0  0  0  0  0  0  0  # atno 10718 bound_to 10713
  154.0042  135.2920  155.3399 H   0  0  0  0  0  0  0  0  0  0  0  0  # atno 10763 bound_to 10752
  154.7141  135.5137  153.8714 H   0  0  0  0  0  0  0  0  0  0  0  0  # atno 10764 bound_to 10752
  153.0752  135.6661  154.0281 H   0  0  0  0  0  0  0  0  0  0  0  0  # atno 10765 bound_to 10752
  140.5630  134.5314  157.5147 H   0  0  0  0  0  0  0  0  0  0  0  0  # atno 11005 bound_to 11000
  145.3850  141.0364  143.3156 LP  0  0  0  0  0  0  0  0  0  0  0  0  # atno 17320 bound_to 7965
  144.8451  139.5409  143.6882 LP  0  0  0  0  0  0  0  0  0  0  0  0  # atno 17321 bound_to 7965
  139.8112  144.7335  150.9695 LP  0  0  0  0  0  0  0  0  0  0  0  0  # atno 17342 bound_to 10162
  140.7819  143.4249  151.0783 LP  0  0  0  0  0  0  0  0  0  0  0  0  # atno 17343 bound_to 10162
  156.0022  130.5103  150.7703 LP  0  0  0  0  0  0  0  0  0  0  0  0  # atno 17370 bound_to 10713
  157.5066  131.0922  151.0250 LP  0  0  0  0  0  0  0  0  0  0  0  0  # atno 17371 bound_to 10713
  139.9398  134.7808  156.0707 LP  0  0  0  0  0  0  0  0  0  0  0  0  # atno 17394 bound_to 11000
  141.1103  133.6646  156.2961 LP  0  0  0  0  0  0  0  0  0  0  0  0  # atno 17395 bound_to 11000

$$$$
