AV-unprocessed.smi:93|AV-procd|sdf|850|dock3
  -GOLD-   2262017293D 1   1.00000     0.00000
 Structure written by MMmdl.
 50 52  0  0  0  0  0  0  0  0  1 V2000
  149.6365  135.1605  155.9115 C   0  0  0  0  0  0  0  0  0  0  0  0
  149.4709  136.4183  156.6318 N   0  0  0  0  0  0  0  0  0  0  0  0
  148.7823  136.4252  157.9287 C   0  0  0  0  0  0  0  0  0  0  0  0
  147.3649  137.0752  157.9249 C   0  0  0  0  0  0  0  0  0  0  0  0
  147.4429  138.5762  157.5607 C   0  0  0  0  0  0  0  0  0  0  0  0
  146.4966  136.3320  156.8744 C   0  0  0  0  0  0  0  0  0  0  0  0
  145.2095  136.9005  156.7295 O   0  0  0  0  0  0  0  0  0  0  0  0
  146.7087  136.9129  159.3221 C   0  0  0  0  0  0  0  0  0  0  0  0
  147.4800  137.4856  160.3600 O   0  0  0  0  0  0  0  0  0  0  0  0
  149.9301  137.5711  156.0709 C   0  0  0  0  0  0  0  0  0  0  0  0
  149.9868  137.6598  154.7156 N   0  0  0  0  0  0  0  0  0  0  0  0
  150.4188  138.7746  154.1212 C   0  0  0  0  0  0  0  0  0  0  0  0
  150.8324  139.9109  154.6821 N   0  0  0  0  0  0  0  0  0  0  0  0
  150.7737  139.8395  156.0420 C   0  0  0  0  0  0  0  0  0  0  0  0
  150.3486  138.7178  156.8122 C   0  0  0  0  0  0  0  0  0  0  0  0
  150.4285  139.0296  158.1656 N   0  0  0  0  0  0  0  0  0  0  0  0
  150.8751  140.2544  158.1927 C   0  0  0  0  0  0  0  0  0  0  0  0
  151.0940  140.8250  156.9604 N   0  0  0  0  0  0  0  0  0  0  0  0
  151.5678  142.1755  156.6961 C   0  0  0  0  0  0  0  0  0  0  0  0
  151.2006  143.1883  157.8074 C   0  0  2  0  0  0  0  0  0  0  0  0
  149.7937  143.2005  157.9761 O   0  0  0  0  0  0  0  0  0  0  0  0
  151.6571  144.6070  157.4930 C   0  0  0  0  0  0  0  0  0  0  0  0
  151.8520  145.2096  158.8776 C   0  0  0  0  0  0  0  0  0  0  0  0
  152.4310  144.1431  159.6102 O   0  0  0  0  0  0  0  0  0  0  0  0
  151.8522  142.9145  159.1790 C   0  0  0  0  0  0  0  0  0  0  0  0
  149.4250  135.2915  154.8497 H   0  0  0  0  0  0  0  0  0  0  0  0
  148.9560  134.3975  156.2903 H   0  0  0  0  0  0  0  0  0  0  0  0
  150.6531  134.7831  156.0190 H   0  0  0  0  0  0  0  0  0  0  0  0
  148.7341  135.4142  158.3333 H   0  0  0  0  0  0  0  0  0  0  0  0
  149.4115  136.9686  158.6344 H   0  0  0  0  0  0  0  0  0  0  0  0
  146.4504  139.0078  157.4301 H   0  0  0  0  0  0  0  0  0  0  0  0
  147.9895  138.7365  156.6311 H   0  0  0  0  0  0  0  0  0  0  0  0
  147.9422  139.1540  158.3383 H   0  0  0  0  0  0  0  0  0  0  0  0
  146.9862  136.3415  155.8999 H   0  0  0  0  0  0  0  0  0  0  0  0
  146.3636  135.2846  157.1465 H   0  0  0  0  0  0  0  0  0  0  0  0
  145.2381  137.7915  157.0429 H   0  0  0  0  0  0  0  0  0  0  0  0
  145.7187  137.3703  159.3363 H   0  0  0  0  0  0  0  0  0  0  0  0
  146.5757  135.8595  159.5672 H   0  0  0  0  0  0  0  0  0  0  0  0
  147.8476  136.7879  160.8806 H   0  0  0  0  0  0  0  0  0  0  0  0
  150.4299  138.7542  153.0415 H   0  0  0  0  0  0  0  0  0  0  0  0
  151.0487  140.7803  159.1203 H   0  0  0  0  0  0  0  0  0  0  0  0
  152.6505  142.1342  156.5692 H   0  0  0  0  0  0  0  0  0  0  0  0
  151.1609  142.5025  155.7383 H   0  0  0  0  0  0  0  0  0  0  0  0
  149.4251  143.8346  157.3801 H   0  0  0  0  0  0  0  0  0  0  0  0
  152.6170  144.5902  156.9749 H   0  0  0  0  0  0  0  0  0  0  0  0
  150.9554  145.1681  156.8743 H   0  0  0  0  0  0  0  0  0  0  0  0
  152.4962  146.0891  158.8703 H   0  0  0  0  0  0  0  0  0  0  0  0
  150.8954  145.4847  159.3246 H   0  0  0  0  0  0  0  0  0  0  0  0
  151.1329  142.5541  159.9161 H   0  0  0  0  0  0  0  0  0  0  0  0
  152.6517  142.1772  159.1158 H   0  0  0  0  0  0  0  0  0  0  0  0
  1  2  1  0  0  0  0
  1 26  1  0  0  0  0
  1 27  1  0  0  0  0
  1 28  1  0  0  0  0
  2  3  1  0  0  0  0
  2 10  1  0  0  0  0
  3  4  1  0  0  0  0
  3 29  1  0  0  0  0
  3 30  1  0  0  0  0
  4  5  1  0  0  0  0
  4  6  1  0  0  0  0
  4  8  1  0  0  0  0
  5 31  1  0  0  0  0
  5 32  1  0  0  0  0
  5 33  1  0  0  0  0
  6  7  1  0  0  0  0
  6 34  1  0  0  0  0
  6 35  1  0  0  0  0
  7 36  1  0  0  0  0
  8  9  1  0  0  0  0
  8 37  1  0  0  0  0
  8 38  1  0  0  0  0
  9 39  1  0  0  0  0
 10 15  1  0  0  0  0
 10 11  2  0  0  0  0
 11 12  1  0  0  0  0
 12 13  2  0  0  0  0
 12 40  1  0  0  0  0
 13 14  1  0  0  0  0
 14 18  1  0  0  0  0
 14 15  2  0  0  0  0
 15 16  1  0  0  0  0
 16 17  2  0  0  0  0
 17 18  1  0  0  0  0
 17 41  1  0  0  0  0
 18 19  1  0  0  0  0
 19 20  1  0  0  0  0
 19 42  1  0  0  0  0
 19 43  1  0  0  0  0
 20 25  1  0  0  0  0
 20 21  1  0  0  0  0
 20 22  1  0  0  0  0
 21 44  1  0  0  0  0
 22 23  1  0  0  0  0
 22 45  1  0  0  0  0
 22 46  1  0  0  0  0
 23 24  1  0  0  0  0
 23 47  1  0  0  0  0
 23 48  1  0  0  0  0
 24 25  1  0  0  0  0
 25 49  1  0  0  0  0
 25 50  1  0  0  0  0
M  END
> <s_m_source_file>
AV-unprocessed.smi

> <i_m_source_file_index>
93

> <i_lp_mmshare_version>
43012

> <i_f3d_flags>
0

> <s_epik_input>
W09IXVtDSDJdQyhbQ0gzXSkoW0NIMl1bT0hdKVtDSDJdTihbQ0gzXSljKG5bY0hdbjEpYyhjMTIpbltjSF1uMltDSDJdW0NAQF0zKFtPSF0pW0NIMl1bQ0gyXU9bQ0gyXTM=

> <s_epik_cmdline>
J2VwaWtfcHl0aG9uJywgJy1waCcsICc3LjAnLCAnLXRuJywgJzgnLCAnLW1hJywgJzIwMCcsICctbWV0YWxfYmluZGluZycsICctaW1hZScsICc8aW5maWxlLm1hZT4nLCAnLW9tYWUnLCAnPG91dGZpbGUubWFlPic=

> <r_lp_tautomer_probability>
1

> <r_epik_Ionization_Penalty>
0.00325397

> <r_epik_Ionization_Penalty_Charging>
0

> <r_epik_Ionization_Penalty_Neutral>
0.00325397

> <r_epik_State_Penalty>
0.00225047

> <r_epik_Charging_Adjusted_Penalty>
0.00225047

> <i_epik_Tot_Q>
0

> <i_epik_Tot_abs_Q>
0

> <r_epik_Metal_State_Penalty>
-0

> <b_epik_Metal_Only>
0

> <s_lp_Force_Field>
OPLS_2005

> <r_lp_Energy>
41.2901

> <b_lp_Chiralities_Consistent>
1

> <s_lp_Variant>
AV-unprocessed.smi:93-2

> <Gold.Version>
5.8.1

> <Gold.Id.Protein>
6NUR|6NUR_protein|mol2

> <Gold.PLP.Fitness>
42.0419

> <Gold.PLP.PLP>
-31.2787

> <Gold.PLP.part.hbond>
-3.9052

> <Gold.PLP.part.metal>
0.0000

> <Gold.PLP.part.buried>
-6.8575

> <Gold.PLP.part.nonpolar>
-21.1349

> <Gold.PLP.part.repulsive>
0.2711

> <Gold.PLP.ligand.clash>
0.0000

> <Gold.PLP.ligand.torsion>
0.8610

> <Gold.PLP.Chemscore.Hbond>
2.9920

> <Gold.PLP.Chemscore.CHOScore>
1.0000

> <Gold.PLP.Chemscore.Metal>
0.0000

> <Gold.Chemscore.Hbonds>
donor molecule, donor type, donor heavy atom, donor atom, acceptor molecule, acceptor atom, score
      L1  H    21    44       P1  8028  1.00
      P1  H  6934  6947       L1     9  0.98
      P1  H  7989  7998       L1    13  1.00
      L1  C    12    40       P1  7957  1.00

> <Gold.PLP.Chemscore.Internal.Correction>
0.5091

> <Gold.Rescore>
     Score         DG    S(hbond)    S(metal)    S(lipo)     H(rot)  DE(clash)    DE(int)     intcor
      7.73     -11.01       2.84        0.00      66.75       4.60       1.40       1.87       ----

> <Gold.Chemscore.Fitness>
7.7305

> <Gold.Chemscore.DG>
-11.0064

> <Gold.Chemscore.ZeroCoef>
-5.4800

> <Gold.Chemscore.Hbond>
2.8428

> <Gold.Chemscore.Metal>
0.0000

> <Gold.Chemscore.Lipo>
66.7539

> <Gold.Chemscore.Internal_Hbond>
0.0000

> <Gold.Chemscore.DEClash>
1.4049

> <Gold.Chemscore.DEInternal>
1.8710

> <Gold.Chemscore.Rot>
4.6010

> <Gold.Chemscore.Internal.Correction>
   9.000000E+99

> <Gold.Chemscore.Hbonds>
donor molecule, donor type, donor heavy atom, donor atom, acceptor molecule, acceptor atom, score
      L1  H    21    44       P1  8028  0.43
      P1  H  6934  6947       L1     9  0.92
      P1  H  7989  7998       L1    13  0.70

> <Gold.Chemscore.Hbond.Weighted>
-9.4949

> <Gold.Chemscore.Metal.Weighted>
-0.0000

> <Gold.Chemscore.Lipo.Weighted>
-7.8102

> <Gold.Chemscore.Internal_Hbond.Weighted>
0.0000

> <Gold.Chemscore.DEClash.Weighted>
1.4049

> <Gold.Chemscore.DEInternal.Weighted>
1.8710

> <Gold.Chemscore.Rot.Weighted>
11.7787

> <Gold.Chemscore.Internal.Correction.Weighted>
   9.000000E+99

> <Gold.Protein.RotatedTorsions>
[ 6907 6896 6895 6894 ] final  110.44 input  -60.11 | X-H torsion
[ 7974 7965 7964 7962 ] final -161.11 input  175.53 | X-H torsion
[ 8008 7997 7996 7995 ] final  165.72 input   59.86 | X-H torsion
[ 10167 10162 10161 10158 ] final  168.34 input  -65.29 | X-H torsion
[ 10718 10713 10712 10709 ] final  165.25 input   66.30 | X-H torsion
[ 10763 10752 10751 10750 ] final  156.02 input  -60.55 | X-H torsion
[ 11005 11000 10999 10996 ] final  133.67 input  -57.11 | X-H torsion

> <Gold.Protein.ActiveResidues>
 VAL166  LYS551  ARG553  GLY616  TRP617  ASP618  TYR619  PRO620  LYS621  CYS622 
 ASP623  PHE694  ASN695  SER759  ASP760  ASP761  ALA762  ILE779  LEU786  VAL792 
 PHE793  MET794  SER795  GLU796  ALA797  LYS798  CYS799  TRP800  GLU811  SER814 

> <Gold.Protein.RotatedAtoms>
  152.5019  133.8799  159.7340 H   0  0  0  0  0  0  0  0  0  0  0  0  # atno 6907 bound_to 6896
  150.9264  133.6809  159.2827 H   0  0  0  0  0  0  0  0  0  0  0  0  # atno 6908 bound_to 6896
  151.4169  135.0997  159.9654 H   0  0  0  0  0  0  0  0  0  0  0  0  # atno 6909 bound_to 6896
  144.7403  140.3445  143.6128 H   0  0  0  0  0  0  0  0  0  0  0  0  # atno 7974 bound_to 7965
  156.1777  140.1662  156.8331 H   0  0  0  0  0  0  0  0  0  0  0  0  # atno 8008 bound_to 7997
  154.5325  140.0753  156.8404 H   0  0  0  0  0  0  0  0  0  0  0  0  # atno 8009 bound_to 7997
  155.3377  140.3383  155.4241 H   0  0  0  0  0  0  0  0  0  0  0  0  # atno 8010 bound_to 7997
  139.4966  144.3825  151.9607 H   0  0  0  0  0  0  0  0  0  0  0  0  # atno 10167 bound_to 10162
  157.0828  131.0396  151.2568 H   0  0  0  0  0  0  0  0  0  0  0  0  # atno 10718 bound_to 10713
  154.1777  135.2801  155.3062 H   0  0  0  0  0  0  0  0  0  0  0  0  # atno 10763 bound_to 10752
  154.6027  135.5524  153.7394 H   0  0  0  0  0  0  0  0  0  0  0  0  # atno 10764 bound_to 10752
  153.0147  135.6395  154.1916 H   0  0  0  0  0  0  0  0  0  0  0  0  # atno 10765 bound_to 10752
  139.9866  134.9530  156.9758 H   0  0  0  0  0  0  0  0  0  0  0  0  # atno 11005 bound_to 11000
  145.7340  139.1744  143.2414 LP  0  0  0  0  0  0  0  0  0  0  0  0  # atno 17320 bound_to 7965
  146.1185  140.7339  142.9469 LP  0  0  0  0  0  0  0  0  0  0  0  0  # atno 17321 bound_to 7965
  140.3261  144.3371  150.5998 LP  0  0  0  0  0  0  0  0  0  0  0  0  # atno 17342 bound_to 10162
  140.5683  143.2183  151.7645 LP  0  0  0  0  0  0  0  0  0  0  0  0  # atno 17343 bound_to 10162
  157.4786  130.7751  149.7392 LP  0  0  0  0  0  0  0  0  0  0  0  0  # atno 17370 bound_to 10713
  155.9919  130.3934  150.2965 LP  0  0  0  0  0  0  0  0  0  0  0  0  # atno 17371 bound_to 10713
  140.4990  134.1117  155.7247 LP  0  0  0  0  0  0  0  0  0  0  0  0  # atno 17394 bound_to 11000
  141.1530  133.8934  157.2049 LP  0  0  0  0  0  0  0  0  0  0  0  0  # atno 17395 bound_to 11000

$$$$
