AV-unprocessed.smi:2027|AV-procd|sdf|8212|dock10
  -GOLD-   2272010473D 1   1.00000     0.00000
 Structure written by MMmdl.
 50 52  0  0  0  0  0  0  0  0  2 V2000
  153.8208  141.2343  161.7412 C   0  0  0  0  0  0  0  0  0  0  0  0
  153.0596  141.2247  160.4270 C   0  0  0  0  0  0  0  0  0  0  0  0
  152.6262  142.4513  159.8753 C   0  0  0  0  0  0  0  0  0  0  0  0
  151.9193  142.4863  158.6538 C   0  0  0  0  0  0  0  0  0  0  0  0
  151.4089  143.5571  157.9403 N   0  0  0  0  0  0  0  0  0  0  0  0
  150.8657  142.9468  156.8913 C   0  0  0  0  0  0  0  0  0  0  0  0
  150.9572  141.6035  156.8442 N   0  0  0  0  0  0  0  0  0  0  0  0
  150.4452  140.7249  155.8079 C   0  0  0  0  0  0  0  0  0  0  0  0
  149.4198  141.4241  154.8952 C   0  0  1  0  0  0  0  0  0  0  0  0
  149.6126  140.9968  153.5603 O   0  0  0  0  0  0  0  0  0  0  0  0
  147.9714  141.1000  155.3116 C   0  0  0  0  0  0  0  0  0  0  0  0
  147.0521  142.2453  155.0876 N   0  3  1  0  0  0  0  0  0  0  0  0
  146.8286  142.5044  153.6453 C   0  0  0  0  0  0  0  0  0  0  0  0
  145.7837  142.1319  155.8535 C   0  0  0  0  0  0  0  0  0  0  0  0
  144.9559  143.3821  155.7316 C   0  0  0  0  0  0  0  0  0  0  0  0
  144.6304  144.3134  156.7589 C   0  0  0  0  0  0  0  0  0  0  0  0
  143.8873  145.3178  156.3254 N   0  0  0  0  0  0  0  0  0  0  0  0
  143.7047  145.0605  155.0141 N   0  0  0  0  0  0  0  0  0  0  0  0
  142.9233  145.9745  154.2087 C   0  0  0  0  0  0  0  0  0  0  0  0
  144.3354  143.8977  154.6281 C   0  0  0  0  0  0  0  0  0  0  0  0
  151.6547  141.2503  157.9943 C   0  0  0  0  0  0  0  0  0  0  0  0
  152.0798  140.0233  158.5331 C   0  0  0  0  0  0  0  0  0  0  0  0
  152.7854  140.0066  159.7546 C   0  0  0  0  0  0  0  0  0  0  0  0
  153.2414  138.6769  160.3288 C   0  0  0  0  0  0  0  0  0  0  0  0
  153.9487  142.2486  162.1203 H   0  0  0  0  0  0  0  0  0  0  0  0
  154.8120  140.7992  161.6118 H   0  0  0  0  0  0  0  0  0  0  0  0
  153.2858  140.6598  162.4977 H   0  0  0  0  0  0  0  0  0  0  0  0
  152.8357  143.3795  160.3868 H   0  0  0  0  0  0  0  0  0  0  0  0
  150.3689  143.5086  156.1136 H   0  0  0  0  0  0  0  0  0  0  0  0
  151.2852  140.3486  155.2220 H   0  0  0  0  0  0  0  0  0  0  0  0
  149.9903  139.8602  156.2924 H   0  0  0  0  0  0  0  0  0  0  0  0
  149.5955  142.4989  154.9325 H   0  0  0  0  0  0  0  0  0  0  0  0
  149.1577  140.1765  153.4385 H   0  0  0  0  0  0  0  0  0  0  0  0
  147.6360  140.2321  154.7409 H   0  0  0  0  0  0  0  0  0  0  0  0
  147.9275  140.8047  156.3613 H   0  0  0  0  0  0  0  0  0  0  0  0
  146.3084  141.6692  153.1746 H   0  0  0  0  0  0  0  0  0  0  0  0
  147.7769  142.6518  153.1273 H   0  0  0  0  0  0  0  0  0  0  0  0
  146.2369  143.4066  153.4905 H   0  0  0  0  0  0  0  0  0  0  0  0
  145.2338  141.2544  155.5098 H   0  0  0  0  0  0  0  0  0  0  0  0
  146.0002  141.9449  156.9048 H   0  0  0  0  0  0  0  0  0  0  0  0
  144.9166  144.2910  157.8002 H   0  0  0  0  0  0  0  0  0  0  0  0
  142.7215  145.5336  153.2321 H   0  0  0  0  0  0  0  0  0  0  0  0
  143.4742  146.9056  154.0712 H   0  0  0  0  0  0  0  0  0  0  0  0
  141.9747  146.1885  154.7024 H   0  0  0  0  0  0  0  0  0  0  0  0
  144.2951  143.5392  153.6098 H   0  0  0  0  0  0  0  0  0  0  0  0
  151.8658  139.1029  158.0102 H   0  0  0  0  0  0  0  0  0  0  0  0
  152.9520  137.8452  159.6859 H   0  0  0  0  0  0  0  0  0  0  0  0
  152.7961  138.5115  161.3102 H   0  0  0  0  0  0  0  0  0  0  0  0
  154.3265  138.6571  160.4326 H   0  0  0  0  0  0  0  0  0  0  0  0
  147.5390  143.0552  155.4454 H   0  0  0  0  0  0  0  0  0  0  0  0
  1  2  1  0  0  0  0
  1 25  1  0  0  0  0
  1 26  1  0  0  0  0
  1 27  1  0  0  0  0
  2 23  1  0  0  0  0
  2  3  2  0  0  0  0
  3  4  1  0  0  0  0
  3 28  1  0  0  0  0
  4 21  2  0  0  0  0
  4  5  1  0  0  0  0
  5  6  2  0  0  0  0
  6  7  1  0  0  0  0
  6 29  1  0  0  0  0
  7  8  1  0  0  0  0
  7 21  1  0  0  0  0
  8  9  1  0  0  0  0
  8 30  1  0  0  0  0
  8 31  1  0  0  0  0
  9 10  1  0  0  0  0
  9 11  1  0  0  0  0
  9 32  1  0  0  0  0
 10 33  1  0  0  0  0
 11 12  1  0  0  0  0
 11 34  1  0  0  0  0
 11 35  1  0  0  0  0
 12 13  1  0  0  0  0
 12 14  1  0  0  0  0
 12 50  1  0  0  0  0
 13 36  1  0  0  0  0
 13 37  1  0  0  0  0
 13 38  1  0  0  0  0
 14 15  1  0  0  0  0
 14 39  1  0  0  0  0
 14 40  1  0  0  0  0
 15 20  2  0  0  0  0
 15 16  1  0  0  0  0
 16 17  2  0  0  0  0
 16 41  1  0  0  0  0
 17 18  1  0  0  0  0
 18 19  1  0  0  0  0
 18 20  1  0  0  0  0
 19 42  1  0  0  0  0
 19 43  1  0  0  0  0
 19 44  1  0  0  0  0
 20 45  1  0  0  0  0
 21 22  1  0  0  0  0
 22 23  2  0  0  0  0
 22 46  1  0  0  0  0
 23 24  1  0  0  0  0
 24 47  1  0  0  0  0
 24 48  1  0  0  0  0
 24 49  1  0  0  0  0
M  CHG  1  12   1
M  END
> <s_m_source_file>
AV-unprocessed.smi

> <i_m_source_file_index>
2027

> <i_lp_mmshare_version>
43012

> <i_f3d_flags>
0

> <s_epik_input>
W0NIM11jKFtjSF0xKWMoW0NIM10pW2NIXWMoYzEyKW4oW2NIXW4yKVtDSDJdW0NASF0oW09IXSlbQ0gyXU4oW0NIM10pW0NIMl1jM1tjSF1ubihbQ0gzXSlbY0hdMw==

> <s_epik_cmdline>
J2VwaWtfcHl0aG9uJywgJy1waCcsICc3LjAnLCAnLXRuJywgJzgnLCAnLW1hJywgJzIwMCcsICctbWV0YWxfYmluZGluZycsICctaW1hZScsICc8aW5maWxlLm1hZT4nLCAnLW9tYWUnLCAnPG91dGZpbGUubWFlPic=

> <r_lp_tautomer_probability>
1

> <r_epik_Ionization_Penalty>
0.646578

> <r_epik_Ionization_Penalty_Charging>
0.559419

> <r_epik_Ionization_Penalty_Neutral>
0.087159

> <r_epik_State_Penalty>
0.661677

> <r_epik_Charging_Adjusted_Penalty>
1.2211

> <i_epik_Tot_Q>
1

> <i_epik_Tot_abs_Q>
1

> <r_epik_Metal_State_Penalty>
0.649174

> <b_epik_Metal_Only>
0

> <s_lp_Force_Field>
OPLS_2005

> <r_lp_Energy>
9.42611

> <b_lp_Chiralities_Consistent>
1

> <s_lp_Variant>
AV-unprocessed.smi:2027-4

> <Gold.Version>
5.8.1

> <Gold.Id.Protein>
6NUR|6NUR_protein|mol2

> <Gold.PLP.Fitness>
61.7910

> <Gold.PLP.PLP>
-48.5428

> <Gold.PLP.part.hbond>
-4.0000

> <Gold.PLP.part.metal>
0.0000

> <Gold.PLP.part.buried>
-5.5978

> <Gold.PLP.part.nonpolar>
-39.8661

> <Gold.PLP.part.repulsive>
0.2552

> <Gold.PLP.ligand.clash>
0.0000

> <Gold.PLP.ligand.torsion>
1.3376

> <Gold.PLP.Chemscore.Hbond>
3.2888

> <Gold.PLP.Chemscore.CHOScore>
1.9456

> <Gold.PLP.Chemscore.Metal>
0.0000

> <Gold.Chemscore.Hbonds>
donor molecule, donor type, donor heavy atom, donor atom, acceptor molecule, acceptor atom, score
      L1  H    12    50       P1  8028  1.56
      P1  H  7989  7998       L1    10  0.29
      P1  H  8011  8017       L1    10  1.00
      L1  C     6    29       P1  8028  0.82
      L1  C    20    45       P1 10174  0.95

> <Gold.PLP.Chemscore.Internal.Correction>
0.2202

> <Gold.Rescore>
     Score         DG    S(hbond)    S(metal)    S(lipo)     H(rot)  DE(clash)    DE(int)     intcor
     14.77     -17.48       1.42        0.00     116.83       2.50       0.70       2.01       ----

> <Gold.Chemscore.Fitness>
14.7711

> <Gold.Chemscore.DG>
-17.4822

> <Gold.Chemscore.ZeroCoef>
-5.4800

> <Gold.Chemscore.Hbond>
1.4208

> <Gold.Chemscore.Metal>
0.0000

> <Gold.Chemscore.Lipo>
116.8271

> <Gold.Chemscore.Internal_Hbond>
0.0000

> <Gold.Chemscore.DEClash>
0.6995

> <Gold.Chemscore.DEInternal>
2.0116

> <Gold.Chemscore.Rot>
2.5047

> <Gold.Chemscore.Internal.Correction>
   9.000000E+99

> <Gold.Chemscore.Hbonds>
donor molecule, donor type, donor heavy atom, donor atom, acceptor molecule, acceptor atom, score
      L1  H    10    33       P1  7957  0.01
      L1  H    12    50       P1  8028  0.23
      P1  H  7989  7998       L1    10  0.09
      P1  H  8011  8017       L1    10  0.85

> <Gold.Chemscore.Hbond.Weighted>
-4.7454

> <Gold.Chemscore.Metal.Weighted>
-0.0000

> <Gold.Chemscore.Lipo.Weighted>
-13.6688

> <Gold.Chemscore.Internal_Hbond.Weighted>
0.0000

> <Gold.Chemscore.DEClash.Weighted>
0.6995

> <Gold.Chemscore.DEInternal.Weighted>
2.0116

> <Gold.Chemscore.Rot.Weighted>
6.4120

> <Gold.Chemscore.Internal.Correction.Weighted>
   9.000000E+99

> <Gold.Protein.RotatedTorsions>
[ 6907 6896 6895 6894 ] final   70.77 input  -60.11 | X-H torsion
[ 7974 7965 7964 7962 ] final  -11.23 input  175.53 | X-H torsion
[ 8008 7997 7996 7995 ] final    5.89 input   59.86 | X-H torsion
[ 10167 10162 10161 10158 ] final  149.49 input  -65.29 | X-H torsion
[ 10718 10713 10712 10709 ] final  -61.40 input   66.30 | X-H torsion
[ 10763 10752 10751 10750 ] final  -57.11 input  -60.55 | X-H torsion
[ 11005 11000 10999 10996 ] final  -38.56 input  -57.11 | X-H torsion

> <Gold.Protein.ActiveResidues>
 VAL166  LYS551  ARG553  GLY616  TRP617  ASP618  TYR619  PRO620  LYS621  CYS622 
 ASP623  PHE694  ASN695  SER759  ASP760  ASP761  ALA762  ILE779  LEU786  VAL792 
 PHE793  MET794  SER795  GLU796  ALA797  LYS798  CYS799  TRP800  GLU811  SER814 

> <Gold.Protein.RotatedAtoms>
  152.4769  134.4820  159.9668 H   0  0  0  0  0  0  0  0  0  0  0  0  # atno 6907 bound_to 6896
  151.4834  133.3535  159.2849 H   0  0  0  0  0  0  0  0  0  0  0  0  # atno 6908 bound_to 6896
  150.8814  134.8232  159.7289 H   0  0  0  0  0  0  0  0  0  0  0  0  # atno 6909 bound_to 6896
  146.2194  140.2880  142.8366 H   0  0  0  0  0  0  0  0  0  0  0  0  # atno 7974 bound_to 7965
  154.7341  140.2736  155.6430 H   0  0  0  0  0  0  0  0  0  0  0  0  # atno 8008 bound_to 7997
  156.2857  140.2710  156.1975 H   0  0  0  0  0  0  0  0  0  0  0  0  # atno 8009 bound_to 7997
  155.0343  140.0371  157.2476 H   0  0  0  0  0  0  0  0  0  0  0  0  # atno 8010 bound_to 7997
  139.4861  144.5597  151.7253 H   0  0  0  0  0  0  0  0  0  0  0  0  # atno 10167 bound_to 10162
  156.0924  130.4198  150.0989 H   0  0  0  0  0  0  0  0  0  0  0  0  # atno 10718 bound_to 10713
  154.2173  135.6384  153.5133 H   0  0  0  0  0  0  0  0  0  0  0  0  # atno 10763 bound_to 10752
  152.9976  135.5488  154.6152 H   0  0  0  0  0  0  0  0  0  0  0  0  # atno 10764 bound_to 10752
  154.5603  135.2908  155.0899 H   0  0  0  0  0  0  0  0  0  0  0  0  # atno 10765 bound_to 10752
  141.0037  133.6942  156.2070 H   0  0  0  0  0  0  0  0  0  0  0  0  # atno 11005 bound_to 11000
  144.9147  140.7799  143.5785 LP  0  0  0  0  0  0  0  0  0  0  0  0  # atno 17320 bound_to 7965
  145.2813  139.1917  143.4789 LP  0  0  0  0  0  0  0  0  0  0  0  0  # atno 17321 bound_to 7965
  140.5165  144.0945  150.6010 LP  0  0  0  0  0  0  0  0  0  0  0  0  # atno 17342 bound_to 10162
  140.3888  143.2763  152.0084 LP  0  0  0  0  0  0  0  0  0  0  0  0  # atno 17343 bound_to 10162
  156.8996  130.9616  151.3578 LP  0  0  0  0  0  0  0  0  0  0  0  0  # atno 17370 bound_to 10713
  157.6077  130.8559  149.8901 LP  0  0  0  0  0  0  0  0  0  0  0  0  # atno 17371 bound_to 10713
  140.6848  134.4729  157.5589 LP  0  0  0  0  0  0  0  0  0  0  0  0  # atno 17394 bound_to 11000
  139.9052  134.8466  156.1735 LP  0  0  0  0  0  0  0  0  0  0  0  0  # atno 17395 bound_to 11000

$$$$
