AV-unprocessed.smi:1550|AV-procd|sdf|6228|dock3
  -GOLD-   22720 6403D 1   1.00000     0.00000
 Structure written by MMmdl.
 42 43  0  0  0  0  0  0  0  0  2 V2000
  149.2551  138.2085  156.7637 C   0  0  0  0  0  0  0  0  0  0  0  0
  149.2572  138.4438  158.2814 C   0  0  2  0  0  0  0  0  0  0  0  0
  150.4286  139.1901  158.5999 O   0  0  0  0  0  0  0  0  0  0  0  0
  150.6287  140.3688  157.8275 C   0  0  0  0  0  0  0  0  0  0  0  0
  151.1393  141.4825  158.7506 C   0  0  2  0  0  0  0  0  0  0  0  0
  151.2647  142.8293  158.0116 C   0  0  0  0  0  0  0  0  0  0  0  0
  151.8595  143.8977  158.9360 C   0  0  0  0  0  0  0  0  0  0  0  0
  153.1735  143.3875  159.5369 C   0  0  0  0  0  0  0  0  0  0  0  0
  152.9611  142.0137  160.1916 C   0  0  0  0  0  0  0  0  0  0  0  0
  152.4254  141.1025  159.2371 O   0  0  0  0  0  0  0  0  0  0  0  0
  149.2473  137.1154  159.0553 C   0  0  0  0  0  0  0  0  0  0  0  0
  150.1965  136.3413  158.9358 O   0  0  0  0  0  0  0  0  0  0  0  0
  148.1759  136.9216  159.8495 N   0  0  0  0  0  0  0  0  0  0  0  0
  147.8563  135.8396  160.6883 C   0  0  0  0  0  0  0  0  0  0  0  0
  148.0370  134.5259  160.3768 C   0  0  0  0  0  0  0  0  0  0  0  0
  147.6793  133.4501  161.2929 C   0  0  0  0  0  0  0  0  0  0  0  0
  147.8004  131.9758  160.9498 C   0  0  0  0  0  0  0  0  0  0  0  0
  148.2628  131.8071  159.7107 F   0  0  0  0  0  0  0  0  0  0  0  0
  148.6243  131.3549  161.7942 F   0  0  0  0  0  0  0  0  0  0  0  0
  146.6056  131.3920  161.0301 F   0  0  0  0  0  0  0  0  0  0  0  0
  147.1204  133.9228  162.4641 C   0  0  0  0  0  0  0  0  0  0  0  0
  146.9132  135.1999  162.8529 N   0  5  0  0  0  0  0  0  0  0  0  0
  147.2635  136.1983  161.9937 C   0  0  0  0  0  0  0  0  0  0  0  0
  147.0975  137.3839  162.2830 O   0  0  0  0  0  0  0  0  0  0  0  0
  148.3892  137.6212  156.4556 H   0  0  0  0  0  0  0  0  0  0  0  0
  150.1528  137.6823  156.4364 H   0  0  0  0  0  0  0  0  0  0  0  0
  149.2171  139.1564  156.2267 H   0  0  0  0  0  0  0  0  0  0  0  0
  148.3718  139.0306  158.5353 H   0  0  0  0  0  0  0  0  0  0  0  0
  151.3392  140.1857  157.0201 H   0  0  0  0  0  0  0  0  0  0  0  0
  149.6892  140.6826  157.3714 H   0  0  0  0  0  0  0  0  0  0  0  0
  150.4471  141.5936  159.5873 H   0  0  0  0  0  0  0  0  0  0  0  0
  151.9010  142.7104  157.1336 H   0  0  0  0  0  0  0  0  0  0  0  0
  150.2894  143.1547  157.6481 H   0  0  0  0  0  0  0  0  0  0  0  0
  152.0253  144.8267  158.3897 H   0  0  0  0  0  0  0  0  0  0  0  0
  151.1536  144.1241  159.7362 H   0  0  0  0  0  0  0  0  0  0  0  0
  153.9279  143.3038  158.7534 H   0  0  0  0  0  0  0  0  0  0  0  0
  153.5572  144.1001  160.2673 H   0  0  0  0  0  0  0  0  0  0  0  0
  153.9101  141.6222  160.5587 H   0  0  0  0  0  0  0  0  0  0  0  0
  152.2945  142.0903  161.0520 H   0  0  0  0  0  0  0  0  0  0  0  0
  147.5061  137.6767  159.8800 H   0  0  0  0  0  0  0  0  0  0  0  0
  148.4473  134.2300  159.4261 H   0  0  0  0  0  0  0  0  0  0  0  0
  146.7888  133.1593  163.1999 H   0  0  0  0  0  0  0  0  0  0  0  0
  1  2  1  0  0  0  0
  1 25  1  0  0  0  0
  1 26  1  0  0  0  0
  1 27  1  0  0  0  0
  2  3  1  0  0  0  0
  2 11  1  0  0  0  0
  2 28  1  0  0  0  0
  3  4  1  0  0  0  0
  4  5  1  0  0  0  0
  4 29  1  0  0  0  0
  4 30  1  0  0  0  0
  5 10  1  0  0  0  0
  5  6  1  0  0  0  0
  5 31  1  0  0  0  0
  6  7  1  0  0  0  0
  6 32  1  0  0  0  0
  6 33  1  0  0  0  0
  7  8  1  0  0  0  0
  7 34  1  0  0  0  0
  7 35  1  0  0  0  0
  8  9  1  0  0  0  0
  8 36  1  0  0  0  0
  8 37  1  0  0  0  0
  9 10  1  0  0  0  0
  9 38  1  0  0  0  0
  9 39  1  0  0  0  0
 11 12  2  0  0  0  0
 11 13  1  0  0  0  0
 13 14  1  0  0  0  0
 13 40  1  0  0  0  0
 14 23  1  0  0  0  0
 14 15  2  0  0  0  0
 15 16  1  0  0  0  0
 15 41  1  0  0  0  0
 16 17  1  0  0  0  0
 16 21  2  0  0  0  0
 17 18  1  0  0  0  0
 17 19  1  0  0  0  0
 17 20  1  0  0  0  0
 21 22  1  0  0  0  0
 21 42  1  0  0  0  0
 22 23  1  0  0  0  0
 23 24  2  0  0  0  0
M  CHG  1  22  -1
M  END
> <s_m_source_file>
AV-unprocessed.smi

> <i_m_source_file_index>
1550

> <i_lp_mmshare_version>
43012

> <i_f3d_flags>
0

> <s_epik_input>
TzFbQ0gyXVtDSDJdW0NIMl1bQ0gyXVtDQEhdMVtDSDJdT1tDQEBIXShbQ0gzXSlDKD1PKVtOSF1jMltjSF1jKEMoRikoRilGKVtjSF1bbkhdYzI9Tw==

> <s_epik_cmdline>
J2VwaWtfcHl0aG9uJywgJy1waCcsICc3LjAnLCAnLXRuJywgJzgnLCAnLW1hJywgJzIwMCcsICctbWV0YWxfYmluZGluZycsICctaW1hZScsICc8aW5maWxlLm1hZT4nLCAnLW9tYWUnLCAnPG91dGZpbGUubWFlPic=

> <r_epik_Ionization_Penalty>
2.54933

> <r_epik_Ionization_Penalty_Charging>
0.0583423

> <r_epik_Ionization_Penalty_Neutral>
2.49099

> <r_epik_State_Penalty>
2.65532

> <r_epik_Charging_Adjusted_Penalty>
2.71366

> <i_epik_Tot_Q>
-1

> <i_epik_Tot_abs_Q>
1

> <r_epik_Metal_State_Penalty>
0.516364

> <b_epik_Metal_Only>
0

> <s_lp_Force_Field>
OPLS_2005

> <r_lp_Energy>
27.7019

> <b_lp_Chiralities_Consistent>
1

> <s_lp_Variant>
AV-unprocessed.smi:1550-5

> <Gold.Version>
5.8.1

> <Gold.Id.Protein>
6NUR|6NUR_protein|mol2

> <Gold.PLP.Fitness>
50.9125

> <Gold.PLP.PLP>
-45.3003

> <Gold.PLP.part.hbond>
-3.0000

> <Gold.PLP.part.metal>
0.0000

> <Gold.PLP.part.buried>
-6.5677

> <Gold.PLP.part.nonpolar>
-35.6845

> <Gold.PLP.part.repulsive>
0.2089

> <Gold.PLP.ligand.clash>
0.0000

> <Gold.PLP.ligand.torsion>
0.7079

> <Gold.PLP.Chemscore.Hbond>
2.2800

> <Gold.PLP.Chemscore.CHOScore>
0.0000

> <Gold.PLP.Chemscore.Metal>
0.0000

> <Gold.Chemscore.Hbonds>
donor molecule, donor type, donor heavy atom, donor atom, acceptor molecule, acceptor atom, score
      P1  H  6896  6908       L1    12  1.00
      P1  H  6931  6943       L1    24  0.50
      P1  H  6934  6947       L1    24  0.51

> <Gold.PLP.Chemscore.Internal.Correction>
0.1881

> <Gold.Rescore>
     Score         DG    S(hbond)    S(metal)    S(lipo)     H(rot)  DE(clash)    DE(int)     intcor
     18.09     -18.86       2.21        0.00      91.16       1.82       0.00       0.76       ----

> <Gold.Chemscore.Fitness>
18.0942

> <Gold.Chemscore.DG>
-18.8593

> <Gold.Chemscore.ZeroCoef>
-5.4800

> <Gold.Chemscore.Hbond>
2.2103

> <Gold.Chemscore.Metal>
0.0000

> <Gold.Chemscore.Lipo>
91.1561

> <Gold.Chemscore.Internal_Hbond>
0.0000

> <Gold.Chemscore.DEClash>
0.0015

> <Gold.Chemscore.DEInternal>
0.7636

> <Gold.Chemscore.Rot>
1.8236

> <Gold.Chemscore.Internal.Correction>
   9.000000E+99

> <Gold.Chemscore.Hbonds>
donor molecule, donor type, donor heavy atom, donor atom, acceptor molecule, acceptor atom, score
      P1  H  6896  6908       L1    12  0.98
      P1  H  6931  6943       L1    24  0.23
      P1  H  6934  6947       L1    24  0.50

> <Gold.Chemscore.Hbond.Weighted>
-7.3824

> <Gold.Chemscore.Metal.Weighted>
-0.0000

> <Gold.Chemscore.Lipo.Weighted>
-10.6653

> <Gold.Chemscore.Internal_Hbond.Weighted>
0.0000

> <Gold.Chemscore.DEClash.Weighted>
0.0015

> <Gold.Chemscore.DEInternal.Weighted>
0.7636

> <Gold.Chemscore.Rot.Weighted>
4.6684

> <Gold.Chemscore.Internal.Correction.Weighted>
   9.000000E+99

> <Gold.Protein.RotatedTorsions>
[ 6907 6896 6895 6894 ] final -174.75 input  -60.11 | X-H torsion
[ 7974 7965 7964 7962 ] final  -26.60 input  175.53 | X-H torsion
[ 8008 7997 7996 7995 ] final  158.62 input   59.86 | X-H torsion
[ 10167 10162 10161 10158 ] final  -48.13 input  -65.29 | X-H torsion
[ 10718 10713 10712 10709 ] final  153.38 input   66.30 | X-H torsion
[ 10763 10752 10751 10750 ] final   73.00 input  -60.55 | X-H torsion
[ 11005 11000 10999 10996 ] final -173.71 input  -57.11 | X-H torsion

> <Gold.Protein.ActiveResidues>
 VAL166  LYS551  ARG553  GLY616  TRP617  ASP618  TYR619  PRO620  LYS621  CYS622 
 ASP623  PHE694  ASN695  SER759  ASP760  ASP761  ALA762  ILE779  LEU786  VAL792 
 PHE793  MET794  SER795  GLU796  ALA797  LYS798  CYS799  TRP800  GLU811  SER814 

> <Gold.Protein.RotatedAtoms>
  151.5774  133.3382  159.3001 H   0  0  0  0  0  0  0  0  0  0  0  0  # atno 6907 bound_to 6896
  150.8333  134.7598  159.6883 H   0  0  0  0  0  0  0  0  0  0  0  0  # atno 6908 bound_to 6896
  152.4413  134.5591  159.9940 H   0  0  0  0  0  0  0  0  0  0  0  0  # atno 6909 bound_to 6896
  146.1415  140.5041  142.8650 H   0  0  0  0  0  0  0  0  0  0  0  0  # atno 7974 bound_to 7965
  156.2291  140.1853  156.7288 H   0  0  0  0  0  0  0  0  0  0  0  0  # atno 8008 bound_to 7997
  154.5991  140.0639  156.9372 H   0  0  0  0  0  0  0  0  0  0  0  0  # atno 8009 bound_to 7997
  155.2204  140.3307  155.4319 H   0  0  0  0  0  0  0  0  0  0  0  0  # atno 8010 bound_to 7997
  140.6744  143.2753  151.4027 H   0  0  0  0  0  0  0  0  0  0  0  0  # atno 10167 bound_to 10162
  157.2455  131.0768  151.1764 H   0  0  0  0  0  0  0  0  0  0  0  0  # atno 10718 bound_to 10713
  153.0494  135.5079  154.7828 H   0  0  0  0  0  0  0  0  0  0  0  0  # atno 10763 bound_to 10752
  154.6702  135.2952  154.9754 H   0  0  0  0  0  0  0  0  0  0  0  0  # atno 10764 bound_to 10752
  154.0574  135.6695  153.4860 H   0  0  0  0  0  0  0  0  0  0  0  0  # atno 10765 bound_to 10752
  140.4827  134.6060  157.4925 H   0  0  0  0  0  0  0  0  0  0  0  0  # atno 11005 bound_to 11000
  144.7797  140.5815  143.6614 LP  0  0  0  0  0  0  0  0  0  0  0  0  # atno 17320 bound_to 7965
  145.5037  139.1482  143.3643 LP  0  0  0  0  0  0  0  0  0  0  0  0  # atno 17321 bound_to 7965
  139.6029  144.1257  152.2218 LP  0  0  0  0  0  0  0  0  0  0  0  0  # atno 17342 bound_to 10162
  140.0647  144.5828  150.7236 LP  0  0  0  0  0  0  0  0  0  0  0  0  # atno 17343 bound_to 10162
  157.3333  130.6996  149.6337 LP  0  0  0  0  0  0  0  0  0  0  0  0  # atno 17370 bound_to 10713
  155.9668  130.4301  150.4861 LP  0  0  0  0  0  0  0  0  0  0  0  0  # atno 17371 bound_to 10713
  139.9817  134.7127  155.9848 LP  0  0  0  0  0  0  0  0  0  0  0  0  # atno 17394 bound_to 11000
  141.1523  133.6547  156.4052 LP  0  0  0  0  0  0  0  0  0  0  0  0  # atno 17395 bound_to 11000

$$$$
