AV-unprocessed.smi:2920|AV-procd|sdf|11196|dock6
  -GOLD-   2272016 83D 1   1.00000     0.00000
 Structure written by MMmdl.
 30 32  0  0  0  0  0  0  0  0  1 V2000
  150.3385  140.4096  155.3659 O   0  0  0  0  0  0  0  0  0  0  0  0
  149.7922  141.4768  155.6443 C   0  0  0  0  0  0  0  0  0  0  0  0
  150.1516  142.2935  156.6495 N   0  0  0  0  0  0  0  0  0  0  0  0
  151.1683  142.1021  157.6235 C   0  0  0  0  0  0  0  0  0  0  0  0
  151.9780  140.9491  157.5477 C   0  0  0  0  0  0  0  0  0  0  0  0
  152.9730  140.7125  158.4290 N   0  0  0  0  0  0  0  0  0  0  0  0
  153.1586  141.6247  159.3873 C   0  0  0  0  0  0  0  0  0  0  0  0
  154.2873  141.3805  160.3404 C   0  0  0  0  0  0  0  0  0  0  0  0
  154.3593  140.1004  161.1475 C   0  0  0  0  0  0  0  0  0  0  0  0
  154.0550  141.4009  161.8376 C   0  0  0  0  0  0  0  0  0  0  0  0
  152.4762  142.7617  159.5463 N   0  0  0  0  0  0  0  0  0  0  0  0
  151.4775  143.0058  158.6704 C   0  0  0  0  0  0  0  0  0  0  0  0
  148.7589  141.9825  154.9574 N   0  0  0  0  0  0  0  0  0  0  0  0
  148.1376  141.3716  153.8267 C   0  0  0  0  0  0  0  0  0  0  0  0
  146.6252  141.3284  153.7938 C   0  0  0  0  0  0  0  0  0  0  0  0
  147.4032  140.0668  154.0483 C   0  0  0  0  0  0  0  0  0  0  0  0
  149.6586  143.1726  156.7060 H   0  0  0  0  0  0  0  0  0  0  0  0
  151.8278  140.2095  156.7746 H   0  0  0  0  0  0  0  0  0  0  0  0
  155.2196  141.7980  159.9652 H   0  0  0  0  0  0  0  0  0  0  0  0
  153.5443  139.3868  161.0433 H   0  0  0  0  0  0  0  0  0  0  0  0
  155.3431  139.6642  161.3076 H   0  0  0  0  0  0  0  0  0  0  0  0
  154.8346  141.8359  162.4592 H   0  0  0  0  0  0  0  0  0  0  0  0
  153.0372  141.5522  162.1924 H   0  0  0  0  0  0  0  0  0  0  0  0
  150.9552  143.9386  158.8130 H   0  0  0  0  0  0  0  0  0  0  0  0
  148.3788  142.8681  155.2581 H   0  0  0  0  0  0  0  0  0  0  0  0
  148.6331  141.4819  152.8630 H   0  0  0  0  0  0  0  0  0  0  0  0
  146.0841  141.7622  154.6327 H   0  0  0  0  0  0  0  0  0  0  0  0
  146.1418  141.4330  152.8245 H   0  0  0  0  0  0  0  0  0  0  0  0
  147.4391  139.3294  153.2489 H   0  0  0  0  0  0  0  0  0  0  0  0
  147.3816  139.6586  155.0573 H   0  0  0  0  0  0  0  0  0  0  0  0
  1  2  2  0  0  0  0
  2  3  1  0  0  0  0
  2 13  1  0  0  0  0
  3  4  1  0  0  0  0
  3 17  1  0  0  0  0
  4 12  1  0  0  0  0
  4  5  2  0  0  0  0
  5  6  1  0  0  0  0
  5 18  1  0  0  0  0
  6  7  2  0  0  0  0
  7  8  1  0  0  0  0
  7 11  1  0  0  0  0
  8 10  1  0  0  0  0
  8  9  1  0  0  0  0
  8 19  1  0  0  0  0
  9 10  1  0  0  0  0
  9 20  1  0  0  0  0
  9 21  1  0  0  0  0
 10 22  1  0  0  0  0
 10 23  1  0  0  0  0
 11 12  2  0  0  0  0
 12 24  1  0  0  0  0
 13 14  1  0  0  0  0
 13 25  1  0  0  0  0
 14 16  1  0  0  0  0
 14 15  1  0  0  0  0
 14 26  1  0  0  0  0
 15 16  1  0  0  0  0
 15 27  1  0  0  0  0
 15 28  1  0  0  0  0
 16 29  1  0  0  0  0
 16 30  1  0  0  0  0
M  END
> <s_m_source_file>
AV-unprocessed.smi

> <i_m_source_file_index>
2920

> <i_lp_mmshare_version>
43012

> <i_f3d_flags>
0

> <s_epik_input>
W0NIMl0xW0NIMl1bQ0hdMVtOSF1DKD1PKVtOSF1jMltjSF1uYyhuW2NIXTIpW0NIXTNbQ0gyXVtDSDJdMw==

> <s_epik_cmdline>
J2VwaWtfcHl0aG9uJywgJy1waCcsICc3LjAnLCAnLXRuJywgJzgnLCAnLW1hJywgJzIwMCcsICctbWV0YWxfYmluZGluZycsICctaW1hZScsICc8aW5maWxlLm1hZT4nLCAnLW9tYWUnLCAnPG91dGZpbGUubWFlPic=

> <r_lp_tautomer_probability>
1

> <r_epik_Ionization_Penalty>
2.90508e-05

> <r_epik_Ionization_Penalty_Charging>
0

> <r_epik_Ionization_Penalty_Neutral>
2.90508e-05

> <r_epik_State_Penalty>
-0

> <r_epik_Charging_Adjusted_Penalty>
0

> <i_epik_Tot_Q>
0

> <i_epik_Tot_abs_Q>
0

> <r_epik_Metal_State_Penalty>
-0

> <b_epik_Metal_Only>
0

> <s_lp_Force_Field>
OPLS_2005

> <r_lp_Energy>
15.3097

> <b_lp_Chiralities_Consistent>
1

> <s_lp_Variant>
AV-unprocessed.smi:2920-1

> <Gold.Version>
5.8.1

> <Gold.Id.Protein>
6NUR|6NUR_protein|mol2

> <Gold.PLP.Fitness>
39.6170

> <Gold.PLP.PLP>
-30.3543

> <Gold.PLP.part.hbond>
-4.0000

> <Gold.PLP.part.metal>
0.0000

> <Gold.PLP.part.buried>
-0.8120

> <Gold.PLP.part.nonpolar>
-23.8487

> <Gold.PLP.part.repulsive>
0.3326

> <Gold.PLP.ligand.clash>
0.0000

> <Gold.PLP.ligand.torsion>
0.1613

> <Gold.PLP.Chemscore.Hbond>
3.1439

> <Gold.PLP.Chemscore.CHOScore>
0.0000

> <Gold.PLP.Chemscore.Metal>
0.0000

> <Gold.Chemscore.Hbonds>
donor molecule, donor type, donor heavy atom, donor atom, acceptor molecule, acceptor atom, score
      L1  H     3    17       P1  8028  0.93
      L1  H    13    25       P1  8028  0.86
      P1  H  7989  7998       L1     1  0.29
      P1  H  7997  8010       L1     6  0.34

> <Gold.PLP.Chemscore.Internal.Correction>
0.1536

> <Gold.Rescore>
     Score         DG    S(hbond)    S(metal)    S(lipo)     H(rot)  DE(clash)    DE(int)     intcor
     16.20     -17.88       2.12        0.00      71.79       1.20       0.12       1.56       ----

> <Gold.Chemscore.Fitness>
16.1971

> <Gold.Chemscore.DG>
-17.8794

> <Gold.Chemscore.ZeroCoef>
-5.4800

> <Gold.Chemscore.Hbond>
2.1208

> <Gold.Chemscore.Metal>
0.0000

> <Gold.Chemscore.Lipo>
71.7911

> <Gold.Chemscore.Internal_Hbond>
0.0000

> <Gold.Chemscore.DEClash>
0.1194

> <Gold.Chemscore.DEInternal>
1.5629

> <Gold.Chemscore.Rot>
1.2045

> <Gold.Chemscore.Internal.Correction>
   9.000000E+99

> <Gold.Chemscore.Hbonds>
donor molecule, donor type, donor heavy atom, donor atom, acceptor molecule, acceptor atom, score
      L1  H     3    17       P1  8028  0.85
      L1  H    13    25       P1  8028  0.84
      P1  H  7989  7998       L1     1  0.12
      P1  H  7997  8010       L1     6  0.11

> <Gold.Chemscore.Hbond.Weighted>
-7.0835

> <Gold.Chemscore.Metal.Weighted>
-0.0000

> <Gold.Chemscore.Lipo.Weighted>
-8.3996

> <Gold.Chemscore.Internal_Hbond.Weighted>
0.0000

> <Gold.Chemscore.DEClash.Weighted>
0.1194

> <Gold.Chemscore.DEInternal.Weighted>
1.5629

> <Gold.Chemscore.Rot.Weighted>
3.0836

> <Gold.Chemscore.Internal.Correction.Weighted>
   9.000000E+99

> <Gold.Protein.RotatedTorsions>
[ 6907 6896 6895 6894 ] final  -81.83 input  -60.11 | X-H torsion
[ 7974 7965 7964 7962 ] final  112.80 input  175.53 | X-H torsion
[ 8008 7997 7996 7995 ] final   31.10 input   59.86 | X-H torsion
[ 10167 10162 10161 10158 ] final -149.60 input  -65.29 | X-H torsion
[ 10718 10713 10712 10709 ] final  -41.43 input   66.30 | X-H torsion
[ 10763 10752 10751 10750 ] final   55.93 input  -60.55 | X-H torsion
[ 11005 11000 10999 10996 ] final  170.06 input  -57.11 | X-H torsion

> <Gold.Protein.ActiveResidues>
 VAL166  LYS551  ARG553  GLY616  TRP617  ASP618  TYR619  PRO620  LYS621  CYS622 
 ASP623  PHE694  ASN695  SER759  ASP760  ASP761  ALA762  ILE779  LEU786  VAL792 
 PHE793  MET794  SER795  GLU796  ALA797  LYS798  CYS799  TRP800  GLU811  SER814 

> <Gold.Protein.RotatedAtoms>
  150.6906  134.3757  159.5011 H   0  0  0  0  0  0  0  0  0  0  0  0  # atno 6907 bound_to 6896
  152.1567  134.8943  160.0553 H   0  0  0  0  0  0  0  0  0  0  0  0  # atno 6908 bound_to 6896
  152.0020  133.3794  159.4222 H   0  0  0  0  0  0  0  0  0  0  0  0  # atno 6909 bound_to 6896
  145.2249  139.2845  143.4198 H   0  0  0  0  0  0  0  0  0  0  0  0  # atno 7974 bound_to 7965
  155.1009  140.3229  155.4547 H   0  0  0  0  0  0  0  0  0  0  0  0  # atno 8008 bound_to 7997
  156.2717  140.2061  156.6082 H   0  0  0  0  0  0  0  0  0  0  0  0  # atno 8009 bound_to 7997
  154.6830  140.0524  157.0272 H   0  0  0  0  0  0  0  0  0  0  0  0  # atno 8010 bound_to 7997
  139.7428  143.8636  152.2567 H   0  0  0  0  0  0  0  0  0  0  0  0  # atno 10167 bound_to 10162
  156.2705  130.4206  149.8443 H   0  0  0  0  0  0  0  0  0  0  0  0  # atno 10718 bound_to 10713
  152.9824  135.5694  154.5146 H   0  0  0  0  0  0  0  0  0  0  0  0  # atno 10763 bound_to 10752
  154.4644  135.2782  155.1691 H   0  0  0  0  0  0  0  0  0  0  0  0  # atno 10764 bound_to 10752
  154.3265  135.6258  153.5585 H   0  0  0  0  0  0  0  0  0  0  0  0  # atno 10765 bound_to 10752
  140.3044  134.7569  157.3942 H   0  0  0  0  0  0  0  0  0  0  0  0  # atno 11005 bound_to 11000
  146.3367  140.2567  142.8600 LP  0  0  0  0  0  0  0  0  0  0  0  0  # atno 17320 bound_to 7965
  144.9730  140.8387  143.5443 LP  0  0  0  0  0  0  0  0  0  0  0  0  # atno 17321 bound_to 7965
  139.8591  144.7126  150.9121 LP  0  0  0  0  0  0  0  0  0  0  0  0  # atno 17342 bound_to 10162
  140.7788  143.3833  151.1439 LP  0  0  0  0  0  0  0  0  0  0  0  0  # atno 17343 bound_to 10162
  156.5927  130.8513  151.3412 LP  0  0  0  0  0  0  0  0  0  0  0  0  # atno 17370 bound_to 10713
  157.7282  130.9653  150.1732 LP  0  0  0  0  0  0  0  0  0  0  0  0  # atno 17371 bound_to 10713
  140.1080  134.5383  155.8291 LP  0  0  0  0  0  0  0  0  0  0  0  0  # atno 17394 bound_to 11000
  141.2121  133.6715  156.6636 LP  0  0  0  0  0  0  0  0  0  0  0  0  # atno 17395 bound_to 11000

$$$$
