AV-unprocessed.smi:2592|AV-procd|sdf|10159|dock5
  -GOLD-   2272014173D 1   1.00000     0.00000
 Structure written by MMmdl.
 43 44  0  0  0  0  0  0  0  0  2 V2000
  151.9055  144.8894  159.0829 C   0  0  0  0  0  0  0  0  0  0  0  0
  152.0551  143.4197  158.8348 C   0  0  0  0  0  0  0  0  0  0  0  0
  151.3806  142.8303  157.7617 N   0  0  0  0  0  0  0  0  0  0  0  0
  151.6129  141.5167  157.6770 C   0  0  0  0  0  0  0  0  0  0  0  0
  151.0545  140.6667  156.6864 N   0  0  0  0  0  0  0  0  0  0  0  0
  151.6893  139.7753  155.9051 C   0  0  0  0  0  0  0  0  0  0  0  0
  152.8978  139.5394  155.9291 O   0  0  0  0  0  0  0  0  0  0  0  0
  150.8346  139.1547  155.0786 N   0  0  0  0  0  0  0  0  0  0  0  0
  151.2100  138.1430  154.0968 C   0  0  0  0  0  0  0  0  0  0  0  0
  151.3580  136.7524  154.7371 C   0  0  0  0  0  0  0  0  0  0  0  0
  150.0197  136.2105  155.2670 C   0  0  0  0  0  0  0  0  0  0  0  0
  149.6080  134.9523  154.5952 N   0  3  0  0  0  0  0  0  0  0  0  0
  150.5702  133.8483  154.8280 C   0  0  0  0  0  0  0  0  0  0  0  0
  150.1309  132.5794  154.0778 C   0  0  0  0  0  0  0  0  0  0  0  0
  148.8180  132.2149  154.4842 O   0  0  0  0  0  0  0  0  0  0  0  0
  147.8684  133.2293  154.1823 C   0  0  0  0  0  0  0  0  0  0  0  0
  148.2310  134.5179  154.9393 C   0  0  0  0  0  0  0  0  0  0  0  0
  152.6904  140.9109  158.9228 S   0  0  0  0  0  0  0  0  0  0  0  0
  152.8113  142.5308  159.5638 C   0  0  0  0  0  0  0  0  0  0  0  0
  153.6527  142.8180  160.7628 C   0  0  0  0  0  0  0  0  0  0  0  0
  152.8138  145.4269  158.8103 H   0  0  0  0  0  0  0  0  0  0  0  0
  151.7032  145.0931  160.1346 H   0  0  0  0  0  0  0  0  0  0  0  0
  151.0848  145.3144  158.5042 H   0  0  0  0  0  0  0  0  0  0  0  0
  150.0572  140.7509  156.5563 H   0  0  0  0  0  0  0  0  0  0  0  0
  149.8586  139.4100  155.1212 H   0  0  0  0  0  0  0  0  0  0  0  0
  150.4395  138.1184  153.3259 H   0  0  0  0  0  0  0  0  0  0  0  0
  152.1366  138.4359  153.5998 H   0  0  0  0  0  0  0  0  0  0  0  0
  151.7731  136.0645  154.0008 H   0  0  0  0  0  0  0  0  0  0  0  0
  152.0794  136.8044  155.5536 H   0  0  0  0  0  0  0  0  0  0  0  0
  150.1316  136.0209  156.3356 H   0  0  0  0  0  0  0  0  0  0  0  0
  149.2322  136.9592  155.1675 H   0  0  0  0  0  0  0  0  0  0  0  0
  151.5640  134.1451  154.4909 H   0  0  0  0  0  0  0  0  0  0  0  0
  150.6412  133.6440  155.8976 H   0  0  0  0  0  0  0  0  0  0  0  0
  150.1612  132.7332  152.9979 H   0  0  0  0  0  0  0  0  0  0  0  0
  150.8104  131.7569  154.3014 H   0  0  0  0  0  0  0  0  0  0  0  0
  147.8351  133.4056  153.1057 H   0  0  0  0  0  0  0  0  0  0  0  0
  146.8775  132.8854  154.4791 H   0  0  0  0  0  0  0  0  0  0  0  0
  148.1575  134.3493  156.0149 H   0  0  0  0  0  0  0  0  0  0  0  0
  147.5090  135.2938  154.6876 H   0  0  0  0  0  0  0  0  0  0  0  0
  153.0294  142.9520  161.6469 H   0  0  0  0  0  0  0  0  0  0  0  0
  154.2369  143.7271  160.6194 H   0  0  0  0  0  0  0  0  0  0  0  0
  154.3488  142.0027  160.9606 H   0  0  0  0  0  0  0  0  0  0  0  0
  149.6225  135.1355  153.6020 H   0  0  0  0  0  0  0  0  0  0  0  0
  1  2  1  0  0  0  0
  1 21  1  0  0  0  0
  1 22  1  0  0  0  0
  1 23  1  0  0  0  0
  2 19  2  0  0  0  0
  2  3  1  0  0  0  0
  3  4  2  0  0  0  0
  4  5  1  0  0  0  0
  4 18  1  0  0  0  0
  5  6  1  0  0  0  0
  5 24  1  0  0  0  0
  6  7  2  0  0  0  0
  6  8  1  0  0  0  0
  8  9  1  0  0  0  0
  8 25  1  0  0  0  0
  9 10  1  0  0  0  0
  9 26  1  0  0  0  0
  9 27  1  0  0  0  0
 10 11  1  0  0  0  0
 10 28  1  0  0  0  0
 10 29  1  0  0  0  0
 11 12  1  0  0  0  0
 11 30  1  0  0  0  0
 11 31  1  0  0  0  0
 12 17  1  0  0  0  0
 12 13  1  0  0  0  0
 12 43  1  0  0  0  0
 13 14  1  0  0  0  0
 13 32  1  0  0  0  0
 13 33  1  0  0  0  0
 14 15  1  0  0  0  0
 14 34  1  0  0  0  0
 14 35  1  0  0  0  0
 15 16  1  0  0  0  0
 16 17  1  0  0  0  0
 16 36  1  0  0  0  0
 16 37  1  0  0  0  0
 17 38  1  0  0  0  0
 17 39  1  0  0  0  0
 18 19  1  0  0  0  0
 19 20  1  0  0  0  0
 20 40  1  0  0  0  0
 20 41  1  0  0  0  0
 20 42  1  0  0  0  0
M  CHG  1  12   1
M  END
> <s_m_source_file>
AV-unprocessed.smi

> <i_m_source_file_index>
2592

> <i_lp_mmshare_version>
43012

> <i_f3d_flags>
0

> <s_epik_input>
W0NIM11jMW5jKHNjMVtDSDNdKVtOSF1DKD1PKVtOSF1bQ0gyXVtDSDJdW0NIMl1OMltDSDJdW0NIMl1PW0NIMl1bQ0gyXTI=

> <s_epik_cmdline>
J2VwaWtfcHl0aG9uJywgJy1waCcsICc3LjAnLCAnLXRuJywgJzgnLCAnLW1hJywgJzIwMCcsICctbWV0YWxfYmluZGluZycsICctaW1hZScsICc8aW5maWxlLm1hZT4nLCAnLW9tYWUnLCAnPG91dGZpbGUubWFlPic=

> <r_lp_tautomer_probability>
0.999

> <r_epik_Ionization_Penalty>
0.281876

> <r_epik_Ionization_Penalty_Charging>
0.281705

> <r_epik_Ionization_Penalty_Neutral>
0.000171168

> <r_epik_State_Penalty>
0.274317

> <r_epik_Charging_Adjusted_Penalty>
0.556022

> <i_epik_Tot_Q>
1

> <i_epik_Tot_abs_Q>
1

> <r_epik_Metal_State_Penalty>
0.293174

> <b_epik_Metal_Only>
0

> <s_lp_Force_Field>
OPLS_2005

> <r_lp_Energy>
13.2764

> <b_lp_Chiralities_Consistent>
1

> <s_lp_Variant>
AV-unprocessed.smi:2592-1

> <Gold.Version>
5.8.1

> <Gold.Id.Protein>
6NUR|6NUR_protein|mol2

> <Gold.PLP.Fitness>
46.5383

> <Gold.PLP.PLP>
-39.4781

> <Gold.PLP.part.hbond>
-2.0000

> <Gold.PLP.part.metal>
0.0000

> <Gold.PLP.part.buried>
-6.3647

> <Gold.PLP.part.nonpolar>
-31.2398

> <Gold.PLP.part.repulsive>
0.3169

> <Gold.PLP.ligand.clash>
0.0000

> <Gold.PLP.ligand.torsion>
0.9899

> <Gold.PLP.Chemscore.Hbond>
3.0000

> <Gold.PLP.Chemscore.CHOScore>
0.0000

> <Gold.PLP.Chemscore.Metal>
0.0000

> <Gold.Chemscore.Hbonds>
donor molecule, donor type, donor heavy atom, donor atom, acceptor molecule, acceptor atom, score
      L1  H    12    43       P1  7948  0.86
      P1  H  7997  8010       L1     7  1.00

> <Gold.PLP.Chemscore.Internal.Correction>
0.0399

> <Gold.Rescore>
     Score         DG    S(hbond)    S(metal)    S(lipo)     H(rot)  DE(clash)    DE(int)     intcor
     16.66     -17.55       1.97        0.00      85.54       1.76       0.00       0.89       ----

> <Gold.Chemscore.Fitness>
16.6620

> <Gold.Chemscore.DG>
-17.5513

> <Gold.Chemscore.ZeroCoef>
-5.4800

> <Gold.Chemscore.Hbond>
1.9662

> <Gold.Chemscore.Metal>
0.0000

> <Gold.Chemscore.Lipo>
85.5397

> <Gold.Chemscore.Internal_Hbond>
0.0000

> <Gold.Chemscore.DEClash>
0.0000

> <Gold.Chemscore.DEInternal>
0.8893

> <Gold.Chemscore.Rot>
1.7593

> <Gold.Chemscore.Internal.Correction>
   9.000000E+99

> <Gold.Chemscore.Hbonds>
donor molecule, donor type, donor heavy atom, donor atom, acceptor molecule, acceptor atom, score
      L1  H    12    43       P1  7948  0.02
      P1  H  7997  8010       L1     7  0.98

> <Gold.Chemscore.Hbond.Weighted>
-6.5671

> <Gold.Chemscore.Metal.Weighted>
-0.0000

> <Gold.Chemscore.Lipo.Weighted>
-10.0081

> <Gold.Chemscore.Internal_Hbond.Weighted>
0.0000

> <Gold.Chemscore.DEClash.Weighted>
0.0000

> <Gold.Chemscore.DEInternal.Weighted>
0.8893

> <Gold.Chemscore.Rot.Weighted>
4.5039

> <Gold.Chemscore.Internal.Correction.Weighted>
   9.000000E+99

> <Gold.Protein.RotatedTorsions>
[ 6907 6896 6895 6894 ] final  164.81 input  -60.11 | X-H torsion
[ 7974 7965 7964 7962 ] final   97.78 input  175.53 | X-H torsion
[ 8008 7997 7996 7995 ] final   82.55 input   59.86 | X-H torsion
[ 10167 10162 10161 10158 ] final -102.90 input  -65.29 | X-H torsion
[ 10718 10713 10712 10709 ] final   62.47 input   66.30 | X-H torsion
[ 10763 10752 10751 10750 ] final -145.97 input  -60.55 | X-H torsion
[ 11005 11000 10999 10996 ] final  -31.59 input  -57.11 | X-H torsion

> <Gold.Protein.ActiveResidues>
 VAL166  LYS551  ARG553  GLY616  TRP617  ASP618  TYR619  PRO620  LYS621  CYS622 
 ASP623  PHE694  ASN695  SER759  ASP760  ASP761  ALA762  ILE779  LEU786  VAL792 
 PHE793  MET794  SER795  GLU796  ALA797  LYS798  CYS799  TRP800  GLU811  SER814 

> <Gold.Protein.RotatedAtoms>
  151.9041  133.3545  159.3840 H   0  0  0  0  0  0  0  0  0  0  0  0  # atno 6907 bound_to 6896
  150.7073  134.4798  159.5474 H   0  0  0  0  0  0  0  0  0  0  0  0  # atno 6908 bound_to 6896
  152.2392  134.8246  160.0513 H   0  0  0  0  0  0  0  0  0  0  0  0  # atno 6909 bound_to 6896
  145.4209  139.2321  143.3196 H   0  0  0  0  0  0  0  0  0  0  0  0  # atno 7974 bound_to 7965
  155.9121  140.3427  155.6107 H   0  0  0  0  0  0  0  0  0  0  0  0  # atno 8008 bound_to 7997
  155.7375  140.0803  157.2280 H   0  0  0  0  0  0  0  0  0  0  0  0  # atno 8009 bound_to 7997
  154.4057  140.1577  156.2565 H   0  0  0  0  0  0  0  0  0  0  0  0  # atno 8010 bound_to 7997
  140.2257  143.3643  152.0931 H   0  0  0  0  0  0  0  0  0  0  0  0  # atno 10167 bound_to 10162
  157.5903  130.9052  149.9592 H   0  0  0  0  0  0  0  0  0  0  0  0  # atno 10718 bound_to 10713
  154.8358  135.3399  154.6588 H   0  0  0  0  0  0  0  0  0  0  0  0  # atno 10763 bound_to 10752
  153.7203  135.6958  153.5019 H   0  0  0  0  0  0  0  0  0  0  0  0  # atno 10764 bound_to 10752
  153.2386  135.4392  155.0626 H   0  0  0  0  0  0  0  0  0  0  0  0  # atno 10765 bound_to 10752
  140.9481  133.7238  156.1177 H   0  0  0  0  0  0  0  0  0  0  0  0  # atno 11005 bound_to 11000
  146.2657  140.4934  142.8835 LP  0  0  0  0  0  0  0  0  0  0  0  0  # atno 17320 bound_to 7965
  144.8246  140.6606  143.6331 LP  0  0  0  0  0  0  0  0  0  0  0  0  # atno 17321 bound_to 7965
  139.5128  144.6922  151.5728 LP  0  0  0  0  0  0  0  0  0  0  0  0  # atno 17342 bound_to 10162
  140.6222  143.9236  150.6535 LP  0  0  0  0  0  0  0  0  0  0  0  0  # atno 17343 bound_to 10162
  156.0957  130.3659  150.0312 LP  0  0  0  0  0  0  0  0  0  0  0  0  # atno 17370 bound_to 10713
  156.8435  130.9434  151.3630 LP  0  0  0  0  0  0  0  0  0  0  0  0  # atno 17371 bound_to 10713
  140.7641  134.3906  157.5520 LP  0  0  0  0  0  0  0  0  0  0  0  0  # atno 17394 bound_to 11000
  139.8839  134.8980  156.2736 LP  0  0  0  0  0  0  0  0  0  0  0  0  # atno 17395 bound_to 11000

$$$$
