AV-unprocessed.smi:1004|AV-procd|sdf|4361|dock3
  -GOLD-   22720 2263D 1   1.00000     0.00000
 Structure written by MMmdl.
 42 43  0  0  0  0  0  0  0  0  1 V2000
  151.8666  144.4238  158.8813 C   0  0  0  0  0  0  0  0  0  0  0  0
  151.9307  142.9289  158.6448 C   0  0  0  0  0  0  0  0  0  0  0  0
  152.4170  142.0362  159.6761 C   0  0  0  0  0  0  0  0  0  0  0  0
  152.4603  140.7174  159.4318 C   0  0  0  0  0  0  0  0  0  0  0  0
  152.0468  140.1752  158.2014 N   0  0  0  0  0  0  0  0  0  0  0  0
  152.1489  138.7149  158.0421 C   0  0  0  0  0  0  0  0  0  0  0  0
  150.9617  137.9523  158.6481 C   0  0  0  0  0  0  0  0  0  0  0  0
  151.1129  137.2137  159.6223 O   0  0  0  0  0  0  0  0  0  0  0  0
  149.7731  138.1574  158.0644 N   0  0  0  0  0  0  0  0  0  0  0  0
  148.5282  137.5278  158.4873 C   0  0  0  0  0  0  0  0  0  0  0  0
  148.6947  136.0087  158.6636 C   0  0  0  0  0  0  0  0  0  0  0  0
  148.0428  135.4625  159.9253 C   0  0  0  0  0  0  0  0  0  0  0  0
  147.6514  136.2677  160.9325 C   0  0  0  0  0  0  0  0  0  0  0  0
  146.9799  135.7789  162.2038 C   0  0  0  0  0  0  0  0  0  0  0  0
  146.4802  134.3296  162.0824 C   0  0  0  0  0  0  0  0  0  0  0  0
  147.5238  133.4399  161.3960 C   0  0  0  0  0  0  0  0  0  0  0  0
  147.8531  133.9510  159.9818 C   0  0  0  0  0  0  0  0  0  0  0  0
  151.5809  140.9625  157.1857 C   0  0  0  0  0  0  0  0  0  0  0  0
  151.2223  140.4938  156.1047 O   0  0  0  0  0  0  0  0  0  0  0  0
  151.5363  142.4027  157.4644 C   0  0  0  0  0  0  0  0  0  0  0  0
  152.2399  144.6831  159.8725 H   0  0  0  0  0  0  0  0  0  0  0  0
  150.8381  144.7768  158.8013 H   0  0  0  0  0  0  0  0  0  0  0  0
  152.4706  144.9507  158.1422 H   0  0  0  0  0  0  0  0  0  0  0  0
  152.7459  142.4228  160.6295 H   0  0  0  0  0  0  0  0  0  0  0  0
  152.8190  139.9990  160.1545 H   0  0  0  0  0  0  0  0  0  0  0  0
  152.2185  138.4511  156.9859 H   0  0  0  0  0  0  0  0  0  0  0  0
  153.0767  138.3519  158.4881 H   0  0  0  0  0  0  0  0  0  0  0  0
  149.7279  138.7796  157.2704 H   0  0  0  0  0  0  0  0  0  0  0  0
  148.1965  137.9817  159.4224 H   0  0  0  0  0  0  0  0  0  0  0  0
  147.7501  137.7261  157.7486 H   0  0  0  0  0  0  0  0  0  0  0  0
  148.2725  135.4907  157.8020 H   0  0  0  0  0  0  0  0  0  0  0  0
  149.7579  135.7641  158.6713 H   0  0  0  0  0  0  0  0  0  0  0  0
  147.8185  137.3328  160.8651 H   0  0  0  0  0  0  0  0  0  0  0  0
  147.7004  135.8620  163.0179 H   0  0  0  0  0  0  0  0  0  0  0  0
  146.1471  136.4388  162.4482 H   0  0  0  0  0  0  0  0  0  0  0  0
  146.2340  133.9359  163.0690 H   0  0  0  0  0  0  0  0  0  0  0  0
  145.5567  134.3100  161.5022 H   0  0  0  0  0  0  0  0  0  0  0  0
  148.4330  133.4252  161.9983 H   0  0  0  0  0  0  0  0  0  0  0  0
  147.1707  132.4096  161.3461 H   0  0  0  0  0  0  0  0  0  0  0  0
  147.0467  133.6843  159.2979 H   0  0  0  0  0  0  0  0  0  0  0  0
  148.7535  133.4557  159.6170 H   0  0  0  0  0  0  0  0  0  0  0  0
  151.1733  143.0635  156.6905 H   0  0  0  0  0  0  0  0  0  0  0  0
  1  2  1  0  0  0  0
  1 21  1  0  0  0  0
  1 22  1  0  0  0  0
  1 23  1  0  0  0  0
  2 20  2  0  0  0  0
  2  3  1  0  0  0  0
  3  4  2  0  0  0  0
  3 24  1  0  0  0  0
  4  5  1  0  0  0  0
  4 25  1  0  0  0  0
  5  6  1  0  0  0  0
  5 18  1  0  0  0  0
  6  7  1  0  0  0  0
  6 26  1  0  0  0  0
  6 27  1  0  0  0  0
  7  8  2  0  0  0  0
  7  9  1  0  0  0  0
  9 10  1  0  0  0  0
  9 28  1  0  0  0  0
 10 11  1  0  0  0  0
 10 29  1  0  0  0  0
 10 30  1  0  0  0  0
 11 12  1  0  0  0  0
 11 31  1  0  0  0  0
 11 32  1  0  0  0  0
 12 17  1  0  0  0  0
 12 13  2  0  0  0  0
 13 14  1  0  0  0  0
 13 33  1  0  0  0  0
 14 15  1  0  0  0  0
 14 34  1  0  0  0  0
 14 35  1  0  0  0  0
 15 16  1  0  0  0  0
 15 36  1  0  0  0  0
 15 37  1  0  0  0  0
 16 17  1  0  0  0  0
 16 38  1  0  0  0  0
 16 39  1  0  0  0  0
 17 40  1  0  0  0  0
 17 41  1  0  0  0  0
 18 19  2  0  0  0  0
 18 20  1  0  0  0  0
 20 42  1  0  0  0  0
M  END
> <s_m_source_file>
AV-unprocessed.smi

> <i_m_source_file_index>
1004

> <i_lp_mmshare_version>
43012

> <i_f3d_flags>
0

> <s_epik_input>
W0NIM11jMVtjSF1bY0hdbihjKD1PKVtjSF0xKVtDSDJdQyg9TylbTkhdW0NIMl1bQ0gyXUMyPVtDSF1bQ0gyXVtDSDJdW0NIMl1bQ0gyXTI=

> <s_epik_cmdline>
J2VwaWtfcHl0aG9uJywgJy1waCcsICc3LjAnLCAnLXRuJywgJzgnLCAnLW1hJywgJzIwMCcsICctbWV0YWxfYmluZGluZycsICctaW1hZScsICc8aW5maWxlLm1hZT4nLCAnLW9tYWUnLCAnPG91dGZpbGUubWFlPic=

> <r_lp_tautomer_probability>
1

> <r_epik_Ionization_Penalty>
5.31482e-07

> <r_epik_Ionization_Penalty_Charging>
5.13379e-07

> <r_epik_Ionization_Penalty_Neutral>
1.81035e-08

> <r_epik_State_Penalty>
-0

> <r_epik_Charging_Adjusted_Penalty>
5.13379e-07

> <i_epik_Tot_Q>
0

> <i_epik_Tot_abs_Q>
0

> <r_epik_Metal_State_Penalty>
-0

> <b_epik_Metal_Only>
0

> <s_lp_Force_Field>
OPLS_2005

> <r_lp_Energy>
18.1417

> <b_lp_Chiralities_Consistent>
1

> <s_lp_Variant>
AV-unprocessed.smi:1004-1

> <Gold.Version>
5.8.1

> <Gold.Id.Protein>
6NUR|6NUR_protein|mol2

> <Gold.PLP.Fitness>
45.0812

> <Gold.PLP.PLP>
-43.9123

> <Gold.PLP.part.hbond>
-0.9669

> <Gold.PLP.part.metal>
0.0000

> <Gold.PLP.part.buried>
-5.6049

> <Gold.PLP.part.nonpolar>
-37.8320

> <Gold.PLP.part.repulsive>
0.1699

> <Gold.PLP.ligand.clash>
0.0000

> <Gold.PLP.ligand.torsion>
0.9151

> <Gold.PLP.Chemscore.Hbond>
0.9913

> <Gold.PLP.Chemscore.CHOScore>
0.0000

> <Gold.PLP.Chemscore.Metal>
0.0000

> <Gold.Chemscore.Hbonds>
donor molecule, donor type, donor heavy atom, donor atom, acceptor molecule, acceptor atom, score
      P1  H  6896  6907       L1     8  0.84

> <Gold.PLP.Chemscore.Internal.Correction>
0.0254

> <Gold.Rescore>
     Score         DG    S(hbond)    S(metal)    S(lipo)     H(rot)  DE(clash)    DE(int)     intcor
     17.79     -19.80       1.84        0.00     105.68       1.63       0.30       1.72       ----

> <Gold.Chemscore.Fitness>
17.7860

> <Gold.Chemscore.DG>
-19.7987

> <Gold.Chemscore.ZeroCoef>
-5.4800

> <Gold.Chemscore.Hbond>
1.8354

> <Gold.Chemscore.Metal>
0.0000

> <Gold.Chemscore.Lipo>
105.6757

> <Gold.Chemscore.Internal_Hbond>
0.0000

> <Gold.Chemscore.DEClash>
0.2956

> <Gold.Chemscore.DEInternal>
1.7171

> <Gold.Chemscore.Rot>
1.6311

> <Gold.Chemscore.Internal.Correction>
   9.000000E+99

> <Gold.Chemscore.Hbonds>
donor molecule, donor type, donor heavy atom, donor atom, acceptor molecule, acceptor atom, score
      P1  H  6896  6907       L1     8  0.82

> <Gold.Chemscore.Hbond.Weighted>
-6.1304

> <Gold.Chemscore.Metal.Weighted>
-0.0000

> <Gold.Chemscore.Lipo.Weighted>
-12.3641

> <Gold.Chemscore.Internal_Hbond.Weighted>
0.0000

> <Gold.Chemscore.DEClash.Weighted>
0.2956

> <Gold.Chemscore.DEInternal.Weighted>
1.7171

> <Gold.Chemscore.Rot.Weighted>
4.1757

> <Gold.Chemscore.Internal.Correction.Weighted>
   9.000000E+99

> <Gold.Protein.RotatedTorsions>
[ 6907 6896 6895 6894 ] final  -11.81 input  -60.11 | X-H torsion
[ 7974 7965 7964 7962 ] final  -87.19 input  175.53 | X-H torsion
[ 8008 7997 7996 7995 ] final   86.56 input   59.86 | X-H torsion
[ 10167 10162 10161 10158 ] final -135.80 input  -65.29 | X-H torsion
[ 10718 10713 10712 10709 ] final   -4.75 input   66.30 | X-H torsion
[ 10763 10752 10751 10750 ] final  -69.72 input  -60.55 | X-H torsion
[ 11005 11000 10999 10996 ] final   -2.98 input  -57.11 | X-H torsion

> <Gold.Protein.ActiveResidues>
 VAL166  LYS551  ARG553  GLY616  TRP617  ASP618  TYR619  PRO620  LYS621  CYS622 
 ASP623  PHE694  ASN695  SER759  ASP760  ASP761  ALA762  ILE779  LEU786  VAL792 
 PHE793  MET794  SER795  GLU796  ALA797  LYS798  CYS799  TRP800  GLU811  SER814 

> <Gold.Protein.RotatedAtoms>
  151.3803  135.0938  159.9493 H   0  0  0  0  0  0  0  0  0  0  0  0  # atno 6907 bound_to 6896
  152.5110  133.9078  159.7483 H   0  0  0  0  0  0  0  0  0  0  0  0  # atno 6908 bound_to 6896
  150.9510  133.6494  159.2801 H   0  0  0  0  0  0  0  0  0  0  0  0  # atno 6909 bound_to 6896
  145.4698  140.9560  143.1923 H   0  0  0  0  0  0  0  0  0  0  0  0  # atno 7974 bound_to 7965
  155.9644  140.3391  155.6519 H   0  0  0  0  0  0  0  0  0  0  0  0  # atno 8008 bound_to 7997
  155.6757  140.0732  157.2522 H   0  0  0  0  0  0  0  0  0  0  0  0  # atno 8009 bound_to 7997
  154.4151  140.1683  156.1915 H   0  0  0  0  0  0  0  0  0  0  0  0  # atno 8010 bound_to 7997
  139.8742  143.6919  152.2636 H   0  0  0  0  0  0  0  0  0  0  0  0  # atno 10167 bound_to 10162
  156.7567  130.5256  149.5793 H   0  0  0  0  0  0  0  0  0  0  0  0  # atno 10718 bound_to 10713
  154.4074  135.6017  153.5933 H   0  0  0  0  0  0  0  0  0  0  0  0  # atno 10763 bound_to 10752
  152.9789  135.5921  154.4111 H   0  0  0  0  0  0  0  0  0  0  0  0  # atno 10764 bound_to 10752
  154.3918  135.2842  155.2128 H   0  0  0  0  0  0  0  0  0  0  0  0  # atno 10765 bound_to 10752
  140.6643  133.9293  155.8455 H   0  0  0  0  0  0  0  0  0  0  0  0  # atno 11005 bound_to 11000
  144.7952  139.6248  143.7096 LP  0  0  0  0  0  0  0  0  0  0  0  0  # atno 17320 bound_to 7965
  146.2403  139.5988  142.9496 LP  0  0  0  0  0  0  0  0  0  0  0  0  # atno 17321 bound_to 7965
  139.7255  144.7593  151.0885 LP  0  0  0  0  0  0  0  0  0  0  0  0  # atno 17342 bound_to 10162
  140.7755  143.5153  150.9602 LP  0  0  0  0  0  0  0  0  0  0  0  0  # atno 17343 bound_to 10162
  156.1366  130.6215  151.0408 LP  0  0  0  0  0  0  0  0  0  0  0  0  # atno 17370 bound_to 10713
  157.6753  131.0852  150.7510 LP  0  0  0  0  0  0  0  0  0  0  0  0  # atno 17371 bound_to 10713
  141.0441  134.0579  157.3865 LP  0  0  0  0  0  0  0  0  0  0  0  0  # atno 17394 bound_to 11000
  139.9002  135.0161  156.7233 LP  0  0  0  0  0  0  0  0  0  0  0  0  # atno 17395 bound_to 11000

$$$$
