AV-unprocessed.smi:153|AV-procd|sdf|1262|dock4
  -GOLD-   2262018513D 1   1.00000     0.00000
 Structure written by MMmdl.
 59 62  0  0  0  0  0  0  0  0  1 V2000
  152.8493  144.3442  158.2392 C   0  0  0  0  0  0  0  0  0  0  0  0
  152.2601  143.1864  159.0598 C   0  0  2  0  0  0  0  0  0  0  0  0
  153.3484  142.4683  159.6359 O   0  0  0  0  0  0  0  0  0  0  0  0
  152.9793  141.1072  159.7712 C   0  0  0  0  0  0  0  0  0  0  0  0
  152.2212  140.8451  158.4791 C   0  0  0  0  0  0  0  0  0  0  0  0
  151.4220  142.1306  158.2835 C   0  0  1  0  0  0  0  0  0  0  0  0
  150.1867  141.9797  158.9638 O   0  0  0  0  0  0  0  0  0  0  0  0
  151.1112  142.4495  156.7974 C   0  0  0  0  0  0  0  0  0  0  0  0
  149.9421  141.7475  156.2889 N   0  0  0  0  0  0  0  0  0  0  0  0
  148.6277  142.1410  156.4042 C   0  0  0  0  0  0  0  0  0  0  0  0
  147.7556  141.3377  155.8594 N   0  0  0  0  0  0  0  0  0  0  0  0
  148.5269  140.3138  155.3238 C   0  0  0  0  0  0  0  0  0  0  0  0
  148.2309  139.1366  154.5814 C   0  0  0  0  0  0  0  0  0  0  0  0
  146.9632  138.7866  154.2481 N   0  0  0  0  0  0  0  0  0  0  0  0
  145.9605  139.2258  155.2114 C   0  0  0  0  0  0  0  0  0  0  0  0
  146.7287  137.5286  153.5352 C   0  0  0  0  0  0  0  0  0  0  0  0
  145.5628  137.5993  152.5240 C   0  0  1  0  0  0  0  0  0  0  0  0
  146.1395  137.6837  151.2378 O   0  0  0  0  0  0  0  0  0  0  0  0
  144.6543  136.3465  152.5654 C   0  0  0  0  0  0  0  0  0  0  0  0
  145.2100  135.1479  151.9352 N   0  0  0  0  0  0  0  0  0  0  0  0
  144.1709  134.2626  151.4108 C   0  0  0  0  0  0  0  0  0  0  0  0
  144.7552  132.9811  150.7936 C   0  0  0  0  0  0  0  0  0  0  0  0
  145.5555  132.3069  151.7587 O   0  0  0  0  0  0  0  0  0  0  0  0
  146.6139  133.1194  152.2547 C   0  0  0  0  0  0  0  0  0  0  0  0
  146.0304  134.3979  152.8810 C   0  0  0  0  0  0  0  0  0  0  0  0
  149.2764  138.3548  154.2023 N   0  0  0  0  0  0  0  0  0  0  0  0
  150.5273  138.7037  154.5163 C   0  0  0  0  0  0  0  0  0  0  0  0
  150.9503  139.7745  155.1909 N   0  0  0  0  0  0  0  0  0  0  0  0
  149.9051  140.5595  155.5797 C   0  0  0  0  0  0  0  0  0  0  0  0
  152.0662  144.9421  157.7730 H   0  0  0  0  0  0  0  0  0  0  0  0
  153.5162  143.9821  157.4565 H   0  0  0  0  0  0  0  0  0  0  0  0
  153.4299  145.0102  158.8781 H   0  0  0  0  0  0  0  0  0  0  0  0
  151.6744  143.6097  159.8781 H   0  0  0  0  0  0  0  0  0  0  0  0
  153.8504  140.4626  159.8890 H   0  0  0  0  0  0  0  0  0  0  0  0
  152.3331  140.9827  160.6414 H   0  0  0  0  0  0  0  0  0  0  0  0
  152.9433  140.7255  157.6706 H   0  0  0  0  0  0  0  0  0  0  0  0
  151.6084  139.9432  158.5132 H   0  0  0  0  0  0  0  0  0  0  0  0
  150.0862  142.7011  159.5659 H   0  0  0  0  0  0  0  0  0  0  0  0
  150.9509  143.5198  156.6611 H   0  0  0  0  0  0  0  0  0  0  0  0
  151.9573  142.1816  156.1642 H   0  0  0  0  0  0  0  0  0  0  0  0
  148.3333  143.0481  156.9118 H   0  0  0  0  0  0  0  0  0  0  0  0
  146.3663  139.2617  156.2238 H   0  0  0  0  0  0  0  0  0  0  0  0
  145.1016  138.5543  155.2235 H   0  0  0  0  0  0  0  0  0  0  0  0
  145.6007  140.2212  154.9502 H   0  0  0  0  0  0  0  0  0  0  0  0
  147.6486  137.2322  153.0291 H   0  0  0  0  0  0  0  0  0  0  0  0
  146.5189  136.7439  154.2633 H   0  0  0  0  0  0  0  0  0  0  0  0
  144.9890  138.5137  152.6655 H   0  0  0  0  0  0  0  0  0  0  0  0
  145.4659  137.9379  150.6255 H   0  0  0  0  0  0  0  0  0  0  0  0
  144.4055  136.1257  153.6048 H   0  0  0  0  0  0  0  0  0  0  0  0
  143.6957  136.5732  152.0964 H   0  0  0  0  0  0  0  0  0  0  0  0
  143.4783  133.9921  152.2092 H   0  0  0  0  0  0  0  0  0  0  0  0
  143.5855  134.7727  150.6479 H   0  0  0  0  0  0  0  0  0  0  0  0
  143.9520  132.3190  150.4692 H   0  0  0  0  0  0  0  0  0  0  0  0
  145.3545  133.2154  149.9126 H   0  0  0  0  0  0  0  0  0  0  0  0
  147.1773  132.5558  152.9985 H   0  0  0  0  0  0  0  0  0  0  0  0
  147.3045  133.3645  151.4463 H   0  0  0  0  0  0  0  0  0  0  0  0
  146.8465  135.0254  153.2409 H   0  0  0  0  0  0  0  0  0  0  0  0
  145.4352  134.1294  153.7554 H   0  0  0  0  0  0  0  0  0  0  0  0
  151.2997  138.0300  154.1763 H   0  0  0  0  0  0  0  0  0  0  0  0
  1  2  1  0  0  0  0
  1 30  1  0  0  0  0
  1 31  1  0  0  0  0
  1 32  1  0  0  0  0
  2  6  1  0  0  0  0
  2  3  1  0  0  0  0
  2 33  1  0  0  0  0
  3  4  1  0  0  0  0
  4  5  1  0  0  0  0
  4 34  1  0  0  0  0
  4 35  1  0  0  0  0
  5  6  1  0  0  0  0
  5 36  1  0  0  0  0
  5 37  1  0  0  0  0
  6  7  1  0  0  0  0
  6  8  1  0  0  0  0
  7 38  1  0  0  0  0
  8  9  1  0  0  0  0
  8 39  1  0  0  0  0
  8 40  1  0  0  0  0
  9 29  1  0  0  0  0
  9 10  1  0  0  0  0
 10 11  2  0  0  0  0
 10 41  1  0  0  0  0
 11 12  1  0  0  0  0
 12 29  2  0  0  0  0
 12 13  1  0  0  0  0
 13 14  1  0  0  0  0
 13 26  2  0  0  0  0
 14 15  1  0  0  0  0
 14 16  1  0  0  0  0
 15 42  1  0  0  0  0
 15 43  1  0  0  0  0
 15 44  1  0  0  0  0
 16 17  1  0  0  0  0
 16 45  1  0  0  0  0
 16 46  1  0  0  0  0
 17 18  1  0  0  0  0
 17 19  1  0  0  0  0
 17 47  1  0  0  0  0
 18 48  1  0  0  0  0
 19 20  1  0  0  0  0
 19 49  1  0  0  0  0
 19 50  1  0  0  0  0
 20 25  1  0  0  0  0
 20 21  1  0  0  0  0
 21 22  1  0  0  0  0
 21 51  1  0  0  0  0
 21 52  1  0  0  0  0
 22 23  1  0  0  0  0
 22 53  1  0  0  0  0
 22 54  1  0  0  0  0
 23 24  1  0  0  0  0
 24 25  1  0  0  0  0
 24 55  1  0  0  0  0
 24 56  1  0  0  0  0
 25 57  1  0  0  0  0
 25 58  1  0  0  0  0
 26 27  1  0  0  0  0
 27 28  2  0  0  0  0
 27 59  1  0  0  0  0
 28 29  1  0  0  0  0
M  END
> <s_m_source_file>
AV-unprocessed.smi

> <i_m_source_file_index>
153

> <i_lp_mmshare_version>
43012

> <i_f3d_flags>
0

> <s_epik_input>
W0NIMl0xW0NIMl1PW0NAQEhdKFtDSDNdKVtDQEBdMShbT0hdKVtDSDJdbihbY0hdbjIpYyhjMjMpbltjSF1uYzNOKFtDSDNdKVtDSDJdW0NASF0oW09IXSlbQ0gyXU40W0NIMl1bQ0gyXU9bQ0gyXVtDSDJdNA==

> <s_epik_cmdline>
J2VwaWtfcHl0aG9uJywgJy1waCcsICc3LjAnLCAnLXRuJywgJzgnLCAnLW1hJywgJzIwMCcsICctbWV0YWxfYmluZGluZycsICctaW1hZScsICc8aW5maWxlLm1hZT4nLCAnLW9tYWUnLCAnPG91dGZpbGUubWFlPic=

> <r_lp_tautomer_probability>
1

> <r_epik_Ionization_Penalty>
0.424123

> <r_epik_Ionization_Penalty_Charging>
0

> <r_epik_Ionization_Penalty_Neutral>
0.424123

> <r_epik_State_Penalty>
0.421495

> <r_epik_Charging_Adjusted_Penalty>
0.421495

> <i_epik_Tot_Q>
0

> <i_epik_Tot_abs_Q>
0

> <r_epik_Metal_State_Penalty>
0.421223

> <b_epik_Metal_Only>
0

> <s_lp_Force_Field>
OPLS_2005

> <r_lp_Energy>
51.9128

> <b_lp_Chiralities_Consistent>
1

> <s_lp_Variant>
AV-unprocessed.smi:153-13

> <Gold.Version>
5.8.1

> <Gold.Id.Protein>
6NUR|6NUR_protein|mol2

> <Gold.PLP.Fitness>
49.6923

> <Gold.PLP.PLP>
-43.5672

> <Gold.PLP.part.hbond>
-4.8186

> <Gold.PLP.part.metal>
0.0000

> <Gold.PLP.part.buried>
-1.9952

> <Gold.PLP.part.nonpolar>
-39.2084

> <Gold.PLP.part.repulsive>
0.7403

> <Gold.PLP.ligand.clash>
0.0000

> <Gold.PLP.ligand.torsion>
2.1947

> <Gold.PLP.Chemscore.Hbond>
2.6250

> <Gold.PLP.Chemscore.CHOScore>
0.5890

> <Gold.PLP.Chemscore.Metal>
0.0000

> <Gold.Chemscore.Hbonds>
donor molecule, donor type, donor heavy atom, donor atom, acceptor molecule, acceptor atom, score
      L1  H    18    48       P1 10171  1.00
      P1  H  7989  7998       L1    28  0.65
      L1  C    10    41       P1  8028  0.58

> <Gold.PLP.Chemscore.Internal.Correction>
0.8726

> <Gold.Rescore>
     Score         DG    S(hbond)    S(metal)    S(lipo)     H(rot)  DE(clash)    DE(int)     intcor
      6.81     -13.57       1.46        0.00     104.45       3.52       3.12       3.64       ----

> <Gold.Chemscore.Fitness>
6.8117

> <Gold.Chemscore.DG>
-13.5719

> <Gold.Chemscore.ZeroCoef>
-5.4800

> <Gold.Chemscore.Hbond>
1.4597

> <Gold.Chemscore.Metal>
0.0000

> <Gold.Chemscore.Lipo>
104.4470

> <Gold.Chemscore.Internal_Hbond>
0.0000

> <Gold.Chemscore.DEClash>
3.1249

> <Gold.Chemscore.DEInternal>
3.6353

> <Gold.Chemscore.Rot>
3.5170

> <Gold.Chemscore.Internal.Correction>
   9.000000E+99

> <Gold.Chemscore.Hbonds>
donor molecule, donor type, donor heavy atom, donor atom, acceptor molecule, acceptor atom, score
      L1  H    18    48       P1 10171  1.00
      P1  H  7954  7966       L1    18  0.02
      P1  H  7989  7998       L1    28  0.03

> <Gold.Chemscore.Hbond.Weighted>
-4.8752

> <Gold.Chemscore.Metal.Weighted>
-0.0000

> <Gold.Chemscore.Lipo.Weighted>
-12.2203

> <Gold.Chemscore.Internal_Hbond.Weighted>
0.0000

> <Gold.Chemscore.DEClash.Weighted>
3.1249

> <Gold.Chemscore.DEInternal.Weighted>
3.6353

> <Gold.Chemscore.Rot.Weighted>
9.0036

> <Gold.Chemscore.Internal.Correction.Weighted>
   9.000000E+99

> <Gold.Protein.RotatedTorsions>
[ 6907 6896 6895 6894 ] final  -42.72 input  -60.11 | X-H torsion
[ 7974 7965 7964 7962 ] final   75.15 input  175.53 | X-H torsion
[ 8008 7997 7996 7995 ] final -152.06 input   59.86 | X-H torsion
[ 10167 10162 10161 10158 ] final  -91.86 input  -65.29 | X-H torsion
[ 10718 10713 10712 10709 ] final   31.05 input   66.30 | X-H torsion
[ 10763 10752 10751 10750 ] final  -26.72 input  -60.55 | X-H torsion
[ 11005 11000 10999 10996 ] final   21.29 input  -57.11 | X-H torsion

> <Gold.Protein.ActiveResidues>
 VAL166  LYS551  ARG553  GLY616  TRP617  ASP618  TYR619  PRO620  LYS621  CYS622 
 ASP623  PHE694  ASN695  SER759  ASP760  ASP761  ALA762  ILE779  LEU786  VAL792 
 PHE793  MET794  SER795  GLU796  ALA797  LYS798  CYS799  TRP800  GLU811  SER814 

> <Gold.Protein.RotatedAtoms>
  150.9520  134.8919  159.7677 H   0  0  0  0  0  0  0  0  0  0  0  0  # atno 6907 bound_to 6896
  152.5123  134.3793  159.9355 H   0  0  0  0  0  0  0  0  0  0  0  0  # atno 6908 bound_to 6896
  151.3808  133.3781  159.2744 H   0  0  0  0  0  0  0  0  0  0  0  0  # atno 6909 bound_to 6896
  145.7192  139.2642  143.1606 H   0  0  0  0  0  0  0  0  0  0  0  0  # atno 7974 bound_to 7965
  155.6491  140.0710  157.2593 H   0  0  0  0  0  0  0  0  0  0  0  0  # atno 8008 bound_to 7997
  154.4166  140.1736  156.1705 H   0  0  0  0  0  0  0  0  0  0  0  0  # atno 8009 bound_to 7997
  155.9792  140.3355  155.6650 H   0  0  0  0  0  0  0  0  0  0  0  0  # atno 8010 bound_to 7997
  140.3406  143.2944  151.9839 H   0  0  0  0  0  0  0  0  0  0  0  0  # atno 10167 bound_to 10162
  157.2675  130.7191  149.6486 H   0  0  0  0  0  0  0  0  0  0  0  0  # atno 10718 bound_to 10713
  153.7204  135.6945  153.5014 H   0  0  0  0  0  0  0  0  0  0  0  0  # atno 10763 bound_to 10752
  153.2208  135.4370  155.0485 H   0  0  0  0  0  0  0  0  0  0  0  0  # atno 10764 bound_to 10752
  154.8286  135.3460  154.6738 H   0  0  0  0  0  0  0  0  0  0  0  0  # atno 10765 bound_to 10752
  140.3932  134.1797  155.7663 H   0  0  0  0  0  0  0  0  0  0  0  0  # atno 11005 bound_to 11000
  146.0641  140.7939  142.9720 LP  0  0  0  0  0  0  0  0  0  0  0  0  # atno 17320 bound_to 7965
  144.6921  140.3242  143.7227 LP  0  0  0  0  0  0  0  0  0  0  0  0  # atno 17321 bound_to 7965
  139.4841  144.6160  151.7346 LP  0  0  0  0  0  0  0  0  0  0  0  0  # atno 17342 bound_to 10162
  140.5312  144.0727  150.6054 LP  0  0  0  0  0  0  0  0  0  0  0  0  # atno 17343 bound_to 10162
  155.9663  130.4378  150.5190 LP  0  0  0  0  0  0  0  0  0  0  0  0  # atno 17370 bound_to 10713
  157.3108  131.0663  151.2002 LP  0  0  0  0  0  0  0  0  0  0  0  0  # atno 17371 bound_to 10713
  141.1883  133.8262  157.0999 LP  0  0  0  0  0  0  0  0  0  0  0  0  # atno 17394 bound_to 11000
  140.0391  134.9863  157.0927 LP  0  0  0  0  0  0  0  0  0  0  0  0  # atno 17395 bound_to 11000

$$$$
