AV-unprocessed.smi:2373|AV-procd|sdf|9440|dock6
  -GOLD-   2272013 73D 1   1.00000     0.00000
 Structure written by MMmdl.
 46 47  0  0  0  0  0  0  0  0  1 V2000
  144.4226  131.6909  151.1204 C   0  0  0  0  0  0  0  0  0  0  0  0
  145.1546  132.9503  151.0277 N   0  0  0  0  0  0  0  0  0  0  0  0
  146.5163  132.9626  150.5078 C   0  0  0  0  0  0  0  0  0  0  0  0
  144.5540  134.1479  151.4791 C   0  0  0  0  0  0  0  0  0  0  0  0
  143.3393  134.1376  152.2086 C   0  0  0  0  0  0  0  0  0  0  0  0
  142.7810  135.3587  152.6318 C   0  0  0  0  0  0  0  0  0  0  0  0
  143.4352  136.5642  152.3144 C   0  0  0  0  0  0  0  0  0  0  0  0
  142.8576  137.7804  152.7693 N   0  0  0  0  0  0  0  0  0  0  0  0
  141.6850  137.9643  153.3998 C   0  0  0  0  0  0  0  0  0  0  0  0
  140.9114  137.0673  153.7316 O   0  0  0  0  0  0  0  0  0  0  0  0
  141.4720  139.2681  153.6460 N   0  0  0  0  0  0  0  0  0  0  0  0
  140.3201  139.8934  154.3139 C   0  0  0  0  0  0  0  0  0  0  0  0
  140.5579  141.4200  154.5235 C   0  0  0  0  0  0  0  0  0  0  0  0
  141.6282  141.7984  155.5661 C   0  0  0  0  0  0  0  0  0  0  0  0
  142.8859  141.9052  154.9348 O   0  0  0  0  0  0  0  0  0  0  0  0
  139.0920  139.6178  153.4102 C   0  0  0  0  0  0  0  0  0  0  0  0
  137.7514  139.9066  154.1080 C   0  0  0  0  0  0  0  0  0  0  0  0
  137.6573  139.1489  155.3062 O   0  0  0  0  0  0  0  0  0  0  0  0
  138.6655  139.4901  156.2473 C   0  0  0  0  0  0  0  0  0  0  0  0
  140.0583  139.1827  155.6689 C   0  0  0  0  0  0  0  0  0  0  0  0
  144.6505  136.4783  151.5958 C   0  0  0  0  0  0  0  0  0  0  0  0
  145.1895  135.3096  151.1900 N   0  0  0  0  0  0  0  0  0  0  0  0
  143.4799  131.7542  150.5760 H   0  0  0  0  0  0  0  0  0  0  0  0
  144.2058  131.4498  152.1616 H   0  0  0  0  0  0  0  0  0  0  0  0
  144.9948  130.8652  150.6971 H   0  0  0  0  0  0  0  0  0  0  0  0
  147.2078  133.3592  151.2520 H   0  0  0  0  0  0  0  0  0  0  0  0
  146.5772  133.5778  149.6097 H   0  0  0  0  0  0  0  0  0  0  0  0
  146.8513  131.9586  150.2469 H   0  0  0  0  0  0  0  0  0  0  0  0
  142.8263  133.2200  152.4534 H   0  0  0  0  0  0  0  0  0  0  0  0
  141.8566  135.3650  153.1909 H   0  0  0  0  0  0  0  0  0  0  0  0
  143.4268  138.6039  152.6400 H   0  0  0  0  0  0  0  0  0  0  0  0
  142.1859  139.9080  153.3301 H   0  0  0  0  0  0  0  0  0  0  0  0
  140.8206  141.8873  153.5751 H   0  0  0  0  0  0  0  0  0  0  0  0
  139.6191  141.8915  154.8155 H   0  0  0  0  0  0  0  0  0  0  0  0
  141.4000  142.7521  156.0414 H   0  0  0  0  0  0  0  0  0  0  0  0
  141.7021  141.0481  156.3522 H   0  0  0  0  0  0  0  0  0  0  0  0
  142.9609  141.2146  154.2941 H   0  0  0  0  0  0  0  0  0  0  0  0
  139.1533  140.1756  152.4764 H   0  0  0  0  0  0  0  0  0  0  0  0
  139.0892  138.5656  153.1206 H   0  0  0  0  0  0  0  0  0  0  0  0
  137.6301  140.9693  154.3198 H   0  0  0  0  0  0  0  0  0  0  0  0
  136.9264  139.6237  153.4541 H   0  0  0  0  0  0  0  0  0  0  0  0
  138.5762  140.5391  156.5318 H   0  0  0  0  0  0  0  0  0  0  0  0
  138.5051  138.9074  157.1544 H   0  0  0  0  0  0  0  0  0  0  0  0
  140.1358  138.1027  155.5342 H   0  0  0  0  0  0  0  0  0  0  0  0
  140.8180  139.4497  156.4038 H   0  0  0  0  0  0  0  0  0  0  0  0
  145.2328  137.3514  151.3473 H   0  0  0  0  0  0  0  0  0  0  0  0
  1  2  1  0  0  0  0
  1 23  1  0  0  0  0
  1 24  1  0  0  0  0
  1 25  1  0  0  0  0
  2  3  1  0  0  0  0
  2  4  1  0  0  0  0
  3 26  1  0  0  0  0
  3 27  1  0  0  0  0
  3 28  1  0  0  0  0
  4 22  1  0  0  0  0
  4  5  2  0  0  0  0
  5  6  1  0  0  0  0
  5 29  1  0  0  0  0
  6  7  2  0  0  0  0
  6 30  1  0  0  0  0
  7  8  1  0  0  0  0
  7 21  1  0  0  0  0
  8  9  1  0  0  0  0
  8 31  1  0  0  0  0
  9 10  2  0  0  0  0
  9 11  1  0  0  0  0
 11 12  1  0  0  0  0
 11 32  1  0  0  0  0
 12 20  1  0  0  0  0
 12 13  1  0  0  0  0
 12 16  1  0  0  0  0
 13 14  1  0  0  0  0
 13 33  1  0  0  0  0
 13 34  1  0  0  0  0
 14 15  1  0  0  0  0
 14 35  1  0  0  0  0
 14 36  1  0  0  0  0
 15 37  1  0  0  0  0
 16 17  1  0  0  0  0
 16 38  1  0  0  0  0
 16 39  1  0  0  0  0
 17 18  1  0  0  0  0
 17 40  1  0  0  0  0
 17 41  1  0  0  0  0
 18 19  1  0  0  0  0
 19 20  1  0  0  0  0
 19 42  1  0  0  0  0
 19 43  1  0  0  0  0
 20 44  1  0  0  0  0
 20 45  1  0  0  0  0
 21 22  2  0  0  0  0
 21 46  1  0  0  0  0
M  END
> <s_m_source_file>
AV-unprocessed.smi

> <i_m_source_file_index>
2373

> <i_lp_mmshare_version>
43012

> <i_f3d_flags>
0

> <s_epik_input>
W0NIM11OKFtDSDNdKWMxW2NIXVtjSF1jKFtjSF1uMSlbTkhdQyg9TylbTkhdQzIoW0NIMl1bQ0gyXVtPSF0pW0NIMl1bQ0gyXU9bQ0gyXVtDSDJdMg==

> <s_epik_cmdline>
J2VwaWtfcHl0aG9uJywgJy1waCcsICc3LjAnLCAnLXRuJywgJzgnLCAnLW1hJywgJzIwMCcsICctbWV0YWxfYmluZGluZycsICctaW1hZScsICc8aW5maWxlLm1hZT4nLCAnLW9tYWUnLCAnPG91dGZpbGUubWFlPic=

> <r_lp_tautomer_probability>
1

> <r_epik_Ionization_Penalty>
0.631973

> <r_epik_Ionization_Penalty_Charging>
0

> <r_epik_Ionization_Penalty_Neutral>
0.631973

> <r_epik_State_Penalty>
0.647706

> <r_epik_Charging_Adjusted_Penalty>
0.647706

> <i_epik_Tot_Q>
0

> <i_epik_Tot_abs_Q>
0

> <r_epik_Metal_State_Penalty>
0.309159

> <b_epik_Metal_Only>
0

> <s_lp_Force_Field>
OPLS_2005

> <r_lp_Energy>
18.939

> <b_lp_Chiralities_Consistent>
1

> <s_lp_Variant>
AV-unprocessed.smi:2373-2

> <Gold.Version>
5.8.1

> <Gold.Id.Protein>
6NUR|6NUR_protein|mol2

> <Gold.PLP.Fitness>
41.5975

> <Gold.PLP.PLP>
-31.8400

> <Gold.PLP.part.hbond>
-4.9162

> <Gold.PLP.part.metal>
0.0000

> <Gold.PLP.part.buried>
-1.2211

> <Gold.PLP.part.nonpolar>
-25.2719

> <Gold.PLP.part.repulsive>
0.3677

> <Gold.PLP.ligand.clash>
0.0000

> <Gold.PLP.ligand.torsion>
0.3710

> <Gold.PLP.Chemscore.Hbond>
3.0000

> <Gold.PLP.Chemscore.CHOScore>
0.4909

> <Gold.PLP.Chemscore.Metal>
0.0000

> <Gold.Chemscore.Hbonds>
donor molecule, donor type, donor heavy atom, donor atom, acceptor molecule, acceptor atom, score
      L1  H     8    31       P1 10175  1.00
      L1  H    11    32       P1 10175  1.00
      L1  H    15    37       P1 10175  1.00
      L1  C    21    46       P1 10171  0.50

> <Gold.PLP.Chemscore.Internal.Correction>
0.0269

> <Gold.Rescore>
     Score         DG    S(hbond)    S(metal)    S(lipo)     H(rot)  DE(clash)    DE(int)     intcor
     11.66     -14.83       2.28        0.00      60.51       2.09       0.34       2.83       ----

> <Gold.Chemscore.Fitness>
11.6573

> <Gold.Chemscore.DG>
-14.8299

> <Gold.Chemscore.ZeroCoef>
-5.4800

> <Gold.Chemscore.Hbond>
2.2783

> <Gold.Chemscore.Metal>
0.0000

> <Gold.Chemscore.Lipo>
60.5148

> <Gold.Chemscore.Internal_Hbond>
0.0000

> <Gold.Chemscore.DEClash>
0.3402

> <Gold.Chemscore.DEInternal>
2.8324

> <Gold.Chemscore.Rot>
2.0859

> <Gold.Chemscore.Internal.Correction>
   9.000000E+99

> <Gold.Chemscore.Hbonds>
donor molecule, donor type, donor heavy atom, donor atom, acceptor molecule, acceptor atom, score
      L1  H     8    31       P1 10175  0.95
      L1  H    11    32       P1 10175  0.78
      L1  H    15    37       P1 10175  0.23

> <Gold.Chemscore.Hbond.Weighted>
-7.6095

> <Gold.Chemscore.Metal.Weighted>
-0.0000

> <Gold.Chemscore.Lipo.Weighted>
-7.0802

> <Gold.Chemscore.Internal_Hbond.Weighted>
0.0000

> <Gold.Chemscore.DEClash.Weighted>
0.3402

> <Gold.Chemscore.DEInternal.Weighted>
2.8324

> <Gold.Chemscore.Rot.Weighted>
5.3399

> <Gold.Chemscore.Internal.Correction.Weighted>
   9.000000E+99

> <Gold.Protein.RotatedTorsions>
[ 6907 6896 6895 6894 ] final -161.12 input  -60.11 | X-H torsion
[ 7974 7965 7964 7962 ] final  -20.49 input  175.53 | X-H torsion
[ 8008 7997 7996 7995 ] final  148.09 input   59.86 | X-H torsion
[ 10167 10162 10161 10158 ] final -175.48 input  -65.29 | X-H torsion
[ 10718 10713 10712 10709 ] final  145.70 input   66.30 | X-H torsion
[ 10763 10752 10751 10750 ] final  -35.33 input  -60.55 | X-H torsion
[ 11005 11000 10999 10996 ] final -151.40 input  -57.11 | X-H torsion

> <Gold.Protein.ActiveResidues>
 VAL166  LYS551  ARG553  GLY616  TRP617  ASP618  TYR619  PRO620  LYS621  CYS622 
 ASP623  PHE694  ASN695  SER759  ASP760  ASP761  ALA762  ILE779  LEU786  VAL792 
 PHE793  MET794  SER795  GLU796  ALA797  LYS798  CYS799  TRP800  GLU811  SER814 

> <Gold.Protein.RotatedAtoms>
  151.3597  133.3894  159.2688 H   0  0  0  0  0  0  0  0  0  0  0  0  # atno 6907 bound_to 6896
  150.9735  134.9104  159.7812 H   0  0  0  0  0  0  0  0  0  0  0  0  # atno 6908 bound_to 6896
  152.5193  134.3560  159.9320 H   0  0  0  0  0  0  0  0  0  0  0  0  # atno 6909 bound_to 6896
  146.1785  140.4209  142.8504 H   0  0  0  0  0  0  0  0  0  0  0  0  # atno 7974 bound_to 7965
  156.2803  140.2138  156.5642 H   0  0  0  0  0  0  0  0  0  0  0  0  # atno 8008 bound_to 7997
  154.7188  140.0505  157.0642 H   0  0  0  0  0  0  0  0  0  0  0  0  # atno 8009 bound_to 7997
  155.0506  140.3156  155.4696 H   0  0  0  0  0  0  0  0  0  0  0  0  # atno 8010 bound_to 7997
  139.5579  144.1943  152.1190 H   0  0  0  0  0  0  0  0  0  0  0  0  # atno 10167 bound_to 10162
  157.3421  131.0937  151.1073 H   0  0  0  0  0  0  0  0  0  0  0  0  # atno 10718 bound_to 10713
  153.8615  135.6839  153.4782 H   0  0  0  0  0  0  0  0  0  0  0  0  # atno 10763 bound_to 10752
  153.1339  135.4686  154.9390 H   0  0  0  0  0  0  0  0  0  0  0  0  # atno 10764 bound_to 10752
  154.7756  135.3252  154.8048 H   0  0  0  0  0  0  0  0  0  0  0  0  # atno 10765 bound_to 10752
  140.7300  134.3632  157.5168 H   0  0  0  0  0  0  0  0  0  0  0  0  # atno 11005 bound_to 11000
  144.8276  140.6654  143.6312 LP  0  0  0  0  0  0  0  0  0  0  0  0  # atno 17320 bound_to 7965
  145.4143  139.1574  143.4109 LP  0  0  0  0  0  0  0  0  0  0  0  0  # atno 17321 bound_to 7965
  140.1451  144.5166  150.6720 LP  0  0  0  0  0  0  0  0  0  0  0  0  # atno 17342 bound_to 10162
  140.6854  143.2347  151.5273 LP  0  0  0  0  0  0  0  0  0  0  0  0  # atno 17343 bound_to 10162
  157.2281  130.6512  149.5838 LP  0  0  0  0  0  0  0  0  0  0  0  0  # atno 17370 bound_to 10713
  155.9709  130.4607  150.6084 LP  0  0  0  0  0  0  0  0  0  0  0  0  # atno 17371 bound_to 10713
  139.8828  134.9012  156.2805 LP  0  0  0  0  0  0  0  0  0  0  0  0  # atno 17394 bound_to 11000
  140.9929  133.7198  156.0841 LP  0  0  0  0  0  0  0  0  0  0  0  0  # atno 17395 bound_to 11000

$$$$
