AV-unprocessed.smi:220|AV-procd|sdf|1683|dock2
  -GOLD-   2262020113D 1   1.00000     0.00000
 Structure written by MMmdl.
 51 55  0  0  0  0  0  0  0  0  1 V2000
  147.8859  134.4874  153.4488 N   0  0  0  0  0  0  0  0  0  0  0  0
  146.6244  134.2132  153.1086 C   0  0  0  0  0  0  0  0  0  0  0  0
  145.9662  133.3542  153.6936 O   0  0  0  0  0  0  0  0  0  0  0  0
  146.0334  135.0163  151.9282 C   0  0  1  0  0  0  0  0  0  0  0  0
  145.5696  134.1760  150.7058 C   0  0  1  0  0  0  0  0  0  0  0  0
  146.1564  132.7665  150.4474 C   0  0  0  0  0  0  0  0  0  0  0  0
  144.9433  131.8780  150.1543 C   0  0  0  0  0  0  0  0  0  0  0  0
  143.8170  132.4889  150.9876 C   0  0  0  0  0  0  0  0  0  0  0  0
  144.0545  133.9961  150.8579 C   0  0  1  0  0  0  0  0  0  0  0  0
  143.6440  134.8661  152.0491 C   0  0  0  0  0  0  0  0  0  0  0  0
  144.8032  135.7116  152.3160 N   0  0  0  0  0  0  0  0  0  0  0  0
  144.7663  136.6684  153.2871 C   0  0  0  0  0  0  0  0  0  0  0  0
  143.7894  136.5948  154.2306 N   0  0  0  0  0  0  0  0  0  0  0  0
  143.7120  137.5013  155.2078 C   0  0  0  0  0  0  0  0  0  0  0  0
  144.4961  138.5559  155.4286 N   0  0  0  0  0  0  0  0  0  0  0  0
  145.4745  138.6496  154.4844 C   0  0  0  0  0  0  0  0  0  0  0  0
  145.6794  137.7622  153.3874 C   0  0  0  0  0  0  0  0  0  0  0  0
  146.7664  138.2010  152.6386 N   0  0  0  0  0  0  0  0  0  0  0  0
  147.1830  139.2697  153.2584 C   0  0  0  0  0  0  0  0  0  0  0  0
  146.4709  139.6064  154.3855 N   0  0  0  0  0  0  0  0  0  0  0  0
  146.7146  140.7400  155.2647 C   0  0  0  0  0  0  0  0  0  0  0  0
  148.1363  140.7680  155.8616 C   0  0  0  0  0  0  0  0  0  0  0  0
  149.1741  141.0606  154.7639 C   0  0  0  0  0  0  0  0  0  0  0  0
  148.8538  142.2399  154.0547 O   0  0  0  0  0  0  0  0  0  0  0  0
  148.3126  141.6029  157.1382 C   0  0  0  0  0  0  0  0  0  0  0  0
  148.9379  140.5067  157.8380 O   0  0  0  0  0  0  0  0  0  0  0  0
  148.4938  139.6072  156.7999 C   0  0  0  0  0  0  0  0  0  0  0  0
  148.3159  133.9925  154.2165 H   0  0  0  0  0  0  0  0  0  0  0  0
  148.4036  135.1903  152.9413 H   0  0  0  0  0  0  0  0  0  0  0  0
  146.7759  135.7285  151.5709 H   0  0  0  0  0  0  0  0  0  0  0  0
  145.7339  134.7777  149.8101 H   0  0  0  0  0  0  0  0  0  0  0  0
  146.8644  132.7678  149.6181 H   0  0  0  0  0  0  0  0  0  0  0  0
  146.6826  132.3528  151.3052 H   0  0  0  0  0  0  0  0  0  0  0  0
  144.6895  131.9372  149.0950 H   0  0  0  0  0  0  0  0  0  0  0  0
  145.1230  130.8299  150.3954 H   0  0  0  0  0  0  0  0  0  0  0  0
  142.8269  132.1888  150.6442 H   0  0  0  0  0  0  0  0  0  0  0  0
  143.9236  132.1701  152.0255 H   0  0  0  0  0  0  0  0  0  0  0  0
  143.5704  134.3594  149.9499 H   0  0  0  0  0  0  0  0  0  0  0  0
  142.7649  135.4638  151.8044 H   0  0  0  0  0  0  0  0  0  0  0  0
  143.4090  134.2643  152.9282 H   0  0  0  0  0  0  0  0  0  0  0  0
  142.9069  137.3608  155.9138 H   0  0  0  0  0  0  0  0  0  0  0  0
  148.0275  139.8428  152.9056 H   0  0  0  0  0  0  0  0  0  0  0  0
  146.5255  141.6476  154.6900 H   0  0  0  0  0  0  0  0  0  0  0  0
  145.9632  140.7363  156.0550 H   0  0  0  0  0  0  0  0  0  0  0  0
  150.1803  141.1518  155.1731 H   0  0  0  0  0  0  0  0  0  0  0  0
  149.2143  140.2415  154.0452 H   0  0  0  0  0  0  0  0  0  0  0  0
  149.2076  142.9794  154.5250 H   0  0  0  0  0  0  0  0  0  0  0  0
  148.9759  142.4607  157.0212 H   0  0  0  0  0  0  0  0  0  0  0  0
  147.3763  141.8967  157.6147 H   0  0  0  0  0  0  0  0  0  0  0  0
  147.6353  139.0143  157.1189 H   0  0  0  0  0  0  0  0  0  0  0  0
  149.2942  138.9646  156.4313 H   0  0  0  0  0  0  0  0  0  0  0  0
  1  2  1  0  0  0  0
  1 28  1  0  0  0  0
  1 29  1  0  0  0  0
  2  3  2  0  0  0  0
  2  4  1  0  0  0  0
  4 11  1  0  0  0  0
  4  5  1  0  0  0  0
  4 30  1  0  0  0  0
  5  9  1  0  0  0  0
  5  6  1  0  0  0  0
  5 31  1  0  0  0  0
  6  7  1  0  0  0  0
  6 32  1  0  0  0  0
  6 33  1  0  0  0  0
  7  8  1  0  0  0  0
  7 34  1  0  0  0  0
  7 35  1  0  0  0  0
  8  9  1  0  0  0  0
  8 36  1  0  0  0  0
  8 37  1  0  0  0  0
  9 10  1  0  0  0  0
  9 38  1  0  0  0  0
 10 11  1  0  0  0  0
 10 39  1  0  0  0  0
 10 40  1  0  0  0  0
 11 12  1  0  0  0  0
 12 17  1  0  0  0  0
 12 13  2  0  0  0  0
 13 14  1  0  0  0  0
 14 15  2  0  0  0  0
 14 41  1  0  0  0  0
 15 16  1  0  0  0  0
 16 20  1  0  0  0  0
 16 17  2  0  0  0  0
 17 18  1  0  0  0  0
 18 19  2  0  0  0  0
 19 20  1  0  0  0  0
 19 42  1  0  0  0  0
 20 21  1  0  0  0  0
 21 22  1  0  0  0  0
 21 43  1  0  0  0  0
 21 44  1  0  0  0  0
 22 27  1  0  0  0  0
 22 23  1  0  0  0  0
 22 25  1  0  0  0  0
 23 24  1  0  0  0  0
 23 45  1  0  0  0  0
 23 46  1  0  0  0  0
 24 47  1  0  0  0  0
 25 26  1  0  0  0  0
 25 48  1  0  0  0  0
 25 49  1  0  0  0  0
 26 27  1  0  0  0  0
 27 50  1  0  0  0  0
 27 51  1  0  0  0  0
M  END
> <s_m_source_file>
AV-unprocessed.smi

> <i_m_source_file_index>
220

> <i_lp_mmshare_version>
43012

> <i_f3d_flags>
0

> <s_epik_input>
W0NIMl0xW0NIMl1bQ0gyXVtDQEhdKFtDQEhdMTIpW0NIMl1OKFtDQEBIXTJDKD1PKVtOSDJdKWMobltjSF1uMyljKGMzNCluW2NIXW40W0NIMl1DNShbQ0gyXVtPSF0pW0NIMl1PW0NIMl01

> <s_epik_cmdline>
J2VwaWtfcHl0aG9uJywgJy1waCcsICc3LjAnLCAnLXRuJywgJzgnLCAnLW1hJywgJzIwMCcsICctbWV0YWxfYmluZGluZycsICctaW1hZScsICc8aW5maWxlLm1hZT4nLCAnLW9tYWUnLCAnPG91dGZpbGUubWFlPic=

> <r_lp_tautomer_probability>
1

> <r_epik_Ionization_Penalty>
0.00118987

> <r_epik_Ionization_Penalty_Charging>
0

> <r_epik_Ionization_Penalty_Neutral>
0.00118987

> <r_epik_State_Penalty>
0.000654261

> <r_epik_Charging_Adjusted_Penalty>
0.000654261

> <i_epik_Tot_Q>
0

> <i_epik_Tot_abs_Q>
0

> <r_epik_Metal_State_Penalty>
-0

> <b_epik_Metal_Only>
0

> <s_lp_Force_Field>
OPLS_2005

> <r_lp_Energy>
61.4398

> <b_lp_Chiralities_Consistent>
1

> <s_lp_Variant>
AV-unprocessed.smi:220-2

> <Gold.Version>
5.8.1

> <Gold.Id.Protein>
6NUR|6NUR_protein|mol2

> <Gold.PLP.Fitness>
42.5798

> <Gold.PLP.PLP>
-33.6711

> <Gold.PLP.part.hbond>
-3.0000

> <Gold.PLP.part.metal>
0.0000

> <Gold.PLP.part.buried>
-5.7468

> <Gold.PLP.part.nonpolar>
-26.1192

> <Gold.PLP.part.repulsive>
0.8468

> <Gold.PLP.ligand.clash>
0.0000

> <Gold.PLP.ligand.torsion>
0.7328

> <Gold.PLP.Chemscore.Hbond>
2.2652

> <Gold.PLP.Chemscore.CHOScore>
1.0000

> <Gold.PLP.Chemscore.Metal>
0.0000

> <Gold.Chemscore.Hbonds>
donor molecule, donor type, donor heavy atom, donor atom, acceptor molecule, acceptor atom, score
      L1  H     1    29       P1  7948  1.00
      L1  H    24    47       P1  8028  0.86
      P1  H  8011  8017       L1    24  0.29
      L1  C    19    42       P1  7957  1.00

> <Gold.PLP.Chemscore.Internal.Correction>
0.5787

> <Gold.Rescore>
     Score         DG    S(hbond)    S(metal)    S(lipo)     H(rot)  DE(clash)    DE(int)     intcor
     12.13     -13.09       1.97        0.00      72.00       2.89       0.15       0.81       ----

> <Gold.Chemscore.Fitness>
12.1286

> <Gold.Chemscore.DG>
-13.0878

> <Gold.Chemscore.ZeroCoef>
-5.4800

> <Gold.Chemscore.Hbond>
1.9684

> <Gold.Chemscore.Metal>
0.0000

> <Gold.Chemscore.Lipo>
72.0002

> <Gold.Chemscore.Internal_Hbond>
0.0000

> <Gold.Chemscore.DEClash>
0.1458

> <Gold.Chemscore.DEInternal>
0.8135

> <Gold.Chemscore.Rot>
2.8869

> <Gold.Chemscore.Internal.Correction>
   9.000000E+99

> <Gold.Chemscore.Hbonds>
donor molecule, donor type, donor heavy atom, donor atom, acceptor molecule, acceptor atom, score
      L1  H     1    29       P1  7948  0.85
      L1  H    24    47       P1  8028  0.80
      P1  H  8011  8017       L1    24  0.06

> <Gold.Chemscore.Hbond.Weighted>
-6.5743

> <Gold.Chemscore.Metal.Weighted>
-0.0000

> <Gold.Chemscore.Lipo.Weighted>
-8.4240

> <Gold.Chemscore.Internal_Hbond.Weighted>
0.0000

> <Gold.Chemscore.DEClash.Weighted>
0.1458

> <Gold.Chemscore.DEInternal.Weighted>
0.8135

> <Gold.Chemscore.Rot.Weighted>
7.3905

> <Gold.Chemscore.Internal.Correction.Weighted>
   9.000000E+99

> <Gold.Protein.RotatedTorsions>
[ 6907 6896 6895 6894 ] final   76.75 input  -60.11 | X-H torsion
[ 7974 7965 7964 7962 ] final -157.53 input  175.53 | X-H torsion
[ 8008 7997 7996 7995 ] final  -52.43 input   59.86 | X-H torsion
[ 10167 10162 10161 10158 ] final  -29.54 input  -65.29 | X-H torsion
[ 10718 10713 10712 10709 ] final   27.04 input   66.30 | X-H torsion
[ 10763 10752 10751 10750 ] final   97.39 input  -60.55 | X-H torsion
[ 11005 11000 10999 10996 ] final  -26.48 input  -57.11 | X-H torsion

> <Gold.Protein.ActiveResidues>
 VAL166  LYS551  ARG553  GLY616  TRP617  ASP618  TYR619  PRO620  LYS621  CYS622 
 ASP623  PHE694  ASN695  SER759  ASP760  ASP761  ALA762  ILE779  LEU786  VAL792 
 PHE793  MET794  SER795  GLU796  ALA797  LYS798  CYS799  TRP800  GLU811  SER814 

> <Gold.Protein.RotatedAtoms>
  152.5087  134.3922  159.9387 H   0  0  0  0  0  0  0  0  0  0  0  0  # atno 6907 bound_to 6896
  151.3882  133.3791  159.2725 H   0  0  0  0  0  0  0  0  0  0  0  0  # atno 6908 bound_to 6896
  150.9453  134.8879  159.7696 H   0  0  0  0  0  0  0  0  0  0  0  0  # atno 6909 bound_to 6896
  144.7544  140.3956  143.6023 H   0  0  0  0  0  0  0  0  0  0  0  0  # atno 7974 bound_to 7965
  154.4106  140.1224  156.4990 H   0  0  0  0  0  0  0  0  0  0  0  0  # atno 8008 bound_to 7997
  155.6914  140.3495  155.4875 H   0  0  0  0  0  0  0  0  0  0  0  0  # atno 8009 bound_to 7997
  155.9466  140.1097  157.1002 H   0  0  0  0  0  0  0  0  0  0  0  0  # atno 8010 bound_to 7997
  140.7259  143.3920  151.1413 H   0  0  0  0  0  0  0  0  0  0  0  0  # atno 10167 bound_to 10162
  157.2149  130.6951  149.6244 H   0  0  0  0  0  0  0  0  0  0  0  0  # atno 10718 bound_to 10713
  153.2764  135.4185  155.1036 H   0  0  0  0  0  0  0  0  0  0  0  0  # atno 10763 bound_to 10752
  154.8474  135.3484  154.6173 H   0  0  0  0  0  0  0  0  0  0  0  0  # atno 10764 bound_to 10752
  153.6593  135.7049  153.5240 H   0  0  0  0  0  0  0  0  0  0  0  0  # atno 10765 bound_to 10752
  140.9033  133.7510  156.0572 H   0  0  0  0  0  0  0  0  0  0  0  0  # atno 11005 bound_to 11000
  145.6829  139.1622  143.2690 LP  0  0  0  0  0  0  0  0  0  0  0  0  # atno 17320 bound_to 7965
  146.1537  140.6889  142.9310 LP  0  0  0  0  0  0  0  0  0  0  0  0  # atno 17321 bound_to 7965
  139.7527  143.8754  152.3081 LP  0  0  0  0  0  0  0  0  0  0  0  0  # atno 17342 bound_to 10162
  139.8613  144.7115  150.9096 LP  0  0  0  0  0  0  0  0  0  0  0  0  # atno 17343 bound_to 10162
  155.9687  130.4539  150.5829 LP  0  0  0  0  0  0  0  0  0  0  0  0  # atno 17370 bound_to 10713
  157.3635  131.0754  151.1617 LP  0  0  0  0  0  0  0  0  0  0  0  0  # atno 17371 bound_to 10713
  140.8203  134.3297  157.5384 LP  0  0  0  0  0  0  0  0  0  0  0  0  # atno 17394 bound_to 11000
  139.8745  134.9305  156.3504 LP  0  0  0  0  0  0  0  0  0  0  0  0  # atno 17395 bound_to 11000

$$$$
