AV-unprocessed.smi:474|AV-procd|sdf|2665|dock2
  -GOLD-   2262023 83D 1   1.00000     0.00000
 Structure written by MMmdl.
 37 38  0  0  0  0  0  0  0  0  1 V2000
  143.1268  144.5173  161.1146 C   0  0  0  0  0  0  0  0  0  0  0  0
  144.4152  144.0787  160.5075 C   0  0  0  0  0  0  0  0  0  0  0  0
  145.1079  144.4842  159.4019 C   0  0  0  0  0  0  0  0  0  0  0  0
  146.2560  143.6394  159.4166 C   0  0  0  0  0  0  0  0  0  0  0  0
  147.3188  143.6474  158.4768 N   0  0  0  0  0  0  0  0  0  0  0  0
  148.3176  142.7596  158.3366 C   0  0  0  0  0  0  0  0  0  0  0  0
  148.4938  141.7661  159.0419 O   0  0  0  0  0  0  0  0  0  0  0  0
  149.1183  143.0895  157.3129 N   0  0  0  0  0  0  0  0  0  0  0  0
  150.2880  142.3314  156.8844 C   0  0  0  0  0  0  0  0  0  0  0  0
  151.5928  143.0908  157.1817 C   0  0  0  0  0  0  0  0  0  0  0  0
  151.7921  143.3598  158.6639 C   0  0  0  0  0  0  0  0  0  0  0  0
  152.3843  142.4642  159.4777 C   0  0  0  0  0  0  0  0  0  0  0  0
  152.5960  142.6731  160.9669 C   0  0  0  0  0  0  0  0  0  0  0  0
  151.7726  143.8496  161.5175 C   0  0  0  0  0  0  0  0  0  0  0  0
  151.8301  145.0560  160.5726 C   0  0  0  0  0  0  0  0  0  0  0  0
  151.2828  144.7018  159.1783 C   0  0  0  0  0  0  0  0  0  0  0  0
  146.2560  142.7993  160.4352 N   0  0  0  0  0  0  0  0  0  0  0  0
  145.0784  143.0737  161.1403 O   0  0  0  0  0  0  0  0  0  0  0  0
  142.8111  145.4773  160.7059 H   0  0  0  0  0  0  0  0  0  0  0  0
  143.2242  144.6267  162.1949 H   0  0  0  0  0  0  0  0  0  0  0  0
  142.3398  143.7897  160.9168 H   0  0  0  0  0  0  0  0  0  0  0  0
  144.8250  145.2615  158.7084 H   0  0  0  0  0  0  0  0  0  0  0  0
  147.3092  144.4172  157.8241 H   0  0  0  0  0  0  0  0  0  0  0  0
  148.9006  143.9237  156.7874 H   0  0  0  0  0  0  0  0  0  0  0  0
  150.2750  141.3788  157.4137 H   0  0  0  0  0  0  0  0  0  0  0  0
  150.2153  142.0975  155.8209 H   0  0  0  0  0  0  0  0  0  0  0  0
  152.4432  142.5206  156.8049 H   0  0  0  0  0  0  0  0  0  0  0  0
  151.6042  144.0430  156.6501 H   0  0  0  0  0  0  0  0  0  0  0  0
  152.7499  141.5309  159.0742 H   0  0  0  0  0  0  0  0  0  0  0  0
  152.3359  141.7578  161.4994 H   0  0  0  0  0  0  0  0  0  0  0  0
  153.6592  142.8468  161.1339 H   0  0  0  0  0  0  0  0  0  0  0  0
  150.7333  143.5415  161.6398 H   0  0  0  0  0  0  0  0  0  0  0  0
  152.1321  144.1246  162.5095 H   0  0  0  0  0  0  0  0  0  0  0  0
  151.2697  145.8928  160.9903 H   0  0  0  0  0  0  0  0  0  0  0  0
  152.8644  145.3915  160.4836 H   0  0  0  0  0  0  0  0  0  0  0  0
  151.5502  145.4890  158.4726 H   0  0  0  0  0  0  0  0  0  0  0  0
  150.1937  144.6629  159.2113 H   0  0  0  0  0  0  0  0  0  0  0  0
  1  2  1  0  0  0  0
  1 19  1  0  0  0  0
  1 20  1  0  0  0  0
  1 21  1  0  0  0  0
  2 18  1  0  0  0  0
  2  3  2  0  0  0  0
  3  4  1  0  0  0  0
  3 22  1  0  0  0  0
  4  5  1  0  0  0  0
  4 17  2  0  0  0  0
  5  6  1  0  0  0  0
  5 23  1  0  0  0  0
  6  7  2  0  0  0  0
  6  8  1  0  0  0  0
  8  9  1  0  0  0  0
  8 24  1  0  0  0  0
  9 10  1  0  0  0  0
  9 25  1  0  0  0  0
  9 26  1  0  0  0  0
 10 11  1  0  0  0  0
 10 27  1  0  0  0  0
 10 28  1  0  0  0  0
 11 16  1  0  0  0  0
 11 12  2  0  0  0  0
 12 13  1  0  0  0  0
 12 29  1  0  0  0  0
 13 14  1  0  0  0  0
 13 30  1  0  0  0  0
 13 31  1  0  0  0  0
 14 15  1  0  0  0  0
 14 32  1  0  0  0  0
 14 33  1  0  0  0  0
 15 16  1  0  0  0  0
 15 34  1  0  0  0  0
 15 35  1  0  0  0  0
 16 36  1  0  0  0  0
 16 37  1  0  0  0  0
 17 18  1  0  0  0  0
M  END
> <s_m_source_file>
AV-unprocessed.smi

> <i_m_source_file_index>
474

> <i_lp_mmshare_version>
43012

> <i_f3d_flags>
0

> <s_epik_input>
W0NIM11jMVtjSF1jKG5vMSlbTkhdQyg9TylbTkhdW0NIMl1bQ0gyXUMyPVtDSF1bQ0gyXVtDSDJdW0NIMl1bQ0gyXTI=

> <s_epik_cmdline>
J2VwaWtfcHl0aG9uJywgJy1waCcsICc3LjAnLCAnLXRuJywgJzgnLCAnLW1hJywgJzIwMCcsICctbWV0YWxfYmluZGluZycsICctaW1hZScsICc8aW5maWxlLm1hZT4nLCAnLW9tYWUnLCAnPG91dGZpbGUubWFlPic=

> <r_lp_tautomer_probability>
1

> <r_epik_Ionization_Penalty>
2.87157e-05

> <r_epik_Ionization_Penalty_Charging>
0

> <r_epik_Ionization_Penalty_Neutral>
2.87157e-05

> <r_epik_State_Penalty>
-0

> <r_epik_Charging_Adjusted_Penalty>
0

> <i_epik_Tot_Q>
0

> <i_epik_Tot_abs_Q>
0

> <r_epik_Metal_State_Penalty>
0.00793999

> <b_epik_Metal_Only>
0

> <s_lp_Force_Field>
OPLS_2005

> <r_lp_Energy>
6.67712

> <b_lp_Chiralities_Consistent>
1

> <s_lp_Variant>
AV-unprocessed.smi:474-1

> <Gold.Version>
5.8.1

> <Gold.Id.Protein>
6NUR|6NUR_protein|mol2

> <Gold.PLP.Fitness>
43.7794

> <Gold.PLP.PLP>
-33.6316

> <Gold.PLP.part.hbond>
-6.2717

> <Gold.PLP.part.metal>
0.0000

> <Gold.PLP.part.buried>
0.8009

> <Gold.PLP.part.nonpolar>
-28.6325

> <Gold.PLP.part.repulsive>
0.1655

> <Gold.PLP.ligand.clash>
0.0000

> <Gold.PLP.ligand.torsion>
0.4294

> <Gold.PLP.Chemscore.Hbond>
3.6639

> <Gold.PLP.Chemscore.CHOScore>
0.0000

> <Gold.PLP.Chemscore.Metal>
0.0000

> <Gold.Chemscore.Hbonds>
donor molecule, donor type, donor heavy atom, donor atom, acceptor molecule, acceptor atom, score
      L1  H     5    23       P1  8029  0.90
      L1  H     8    24       P1  8028  0.59
      P1  H  6934  6946       L1    17  0.93

> <Gold.PLP.Chemscore.Internal.Correction>
0.0150

> <Gold.Rescore>
     Score         DG    S(hbond)    S(metal)    S(lipo)     H(rot)  DE(clash)    DE(int)     intcor
     16.73     -21.12       2.26        0.00     101.57       1.48       2.62       1.77       ----

> <Gold.Chemscore.Fitness>
16.7291

> <Gold.Chemscore.DG>
-21.1195

> <Gold.Chemscore.ZeroCoef>
-5.4800

> <Gold.Chemscore.Hbond>
2.2602

> <Gold.Chemscore.Metal>
0.0000

> <Gold.Chemscore.Lipo>
101.5719

> <Gold.Chemscore.Internal_Hbond>
0.0000

> <Gold.Chemscore.DEClash>
2.6247

> <Gold.Chemscore.DEInternal>
1.7657

> <Gold.Chemscore.Rot>
1.4818

> <Gold.Chemscore.Internal.Correction>
   9.000000E+99

> <Gold.Chemscore.Hbonds>
donor molecule, donor type, donor heavy atom, donor atom, acceptor molecule, acceptor atom, score
      L1  H     5    23       P1  8029  0.17
      L1  H     8    24       P1  8028  0.17
      P1  H  6933  6944       L1    17  0.02
      P1  H  6934  6946       L1    17  0.72

> <Gold.Chemscore.Hbond.Weighted>
-7.5489

> <Gold.Chemscore.Metal.Weighted>
-0.0000

> <Gold.Chemscore.Lipo.Weighted>
-11.8839

> <Gold.Chemscore.Internal_Hbond.Weighted>
0.0000

> <Gold.Chemscore.DEClash.Weighted>
2.6247

> <Gold.Chemscore.DEInternal.Weighted>
1.7657

> <Gold.Chemscore.Rot.Weighted>
3.7933

> <Gold.Chemscore.Internal.Correction.Weighted>
   9.000000E+99

> <Gold.Protein.RotatedTorsions>
[ 6907 6896 6895 6894 ] final   47.21 input  -60.11 | X-H torsion
[ 7974 7965 7964 7962 ] final  -60.34 input  175.53 | X-H torsion
[ 8008 7997 7996 7995 ] final -140.87 input   59.86 | X-H torsion
[ 10167 10162 10161 10158 ] final   76.27 input  -65.29 | X-H torsion
[ 10718 10713 10712 10709 ] final  109.00 input   66.30 | X-H torsion
[ 10763 10752 10751 10750 ] final -121.38 input  -60.55 | X-H torsion
[ 11005 11000 10999 10996 ] final -119.50 input  -57.11 | X-H torsion

> <Gold.Protein.ActiveResidues>
 VAL166  LYS551  ARG553  GLY616  TRP617  ASP618  TYR619  PRO620  LYS621  CYS622 
 ASP623  PHE694  ASN695  SER759  ASP760  ASP761  ALA762  ILE779  LEU786  VAL792 
 PHE793  MET794  SER795  GLU796  ALA797  LYS798  CYS799  TRP800  GLU811  SER814 

> <Gold.Protein.RotatedAtoms>
  152.2654  134.7990  160.0423 H   0  0  0  0  0  0  0  0  0  0  0  0  # atno 6907 bound_to 6896
  151.8621  133.3454  159.3715 H   0  0  0  0  0  0  0  0  0  0  0  0  # atno 6908 bound_to 6896
  150.7132  134.5123  159.5658 H   0  0  0  0  0  0  0  0  0  0  0  0  # atno 6909 bound_to 6896
  145.8167  140.8566  143.0154 H   0  0  0  0  0  0  0  0  0  0  0  0  # atno 7974 bound_to 7965
  155.4684  140.0551  157.2982 H   0  0  0  0  0  0  0  0  0  0  0  0  # atno 8008 bound_to 7997
  154.4708  140.2039  155.9953 H   0  0  0  0  0  0  0  0  0  0  0  0  # atno 8009 bound_to 7997
  156.1053  140.3213  155.8002 H   0  0  0  0  0  0  0  0  0  0  0  0  # atno 8010 bound_to 7997
  139.9940  144.5736  150.7793 H   0  0  0  0  0  0  0  0  0  0  0  0  # atno 10167 bound_to 10162
  157.6561  131.0905  150.6389 H   0  0  0  0  0  0  0  0  0  0  0  0  # atno 10718 bound_to 10713
  154.8667  135.4170  154.2611 H   0  0  0  0  0  0  0  0  0  0  0  0  # atno 10763 bound_to 10752
  153.3539  135.7000  153.6772 H   0  0  0  0  0  0  0  0  0  0  0  0  # atno 10764 bound_to 10752
  153.5700  135.3593  155.2806 H   0  0  0  0  0  0  0  0  0  0  0  0  # atno 10765 bound_to 10752
  141.0211  134.0123  157.3281 H   0  0  0  0  0  0  0  0  0  0  0  0  # atno 11005 bound_to 11000
  144.6752  140.0473  143.7479 LP  0  0  0  0  0  0  0  0  0  0  0  0  # atno 17320 bound_to 7965
  145.9719  139.2876  143.1093 LP  0  0  0  0  0  0  0  0  0  0  0  0  # atno 17321 bound_to 7965
  140.7444  143.2860  151.3462 LP  0  0  0  0  0  0  0  0  0  0  0  0  # atno 17342 bound_to 10162
  139.6319  144.0704  152.2484 LP  0  0  0  0  0  0  0  0  0  0  0  0  # atno 17343 bound_to 10162
  156.6695  130.4535  149.5661 LP  0  0  0  0  0  0  0  0  0  0  0  0  # atno 17370 bound_to 10713
  156.2008  130.6618  151.1165 LP  0  0  0  0  0  0  0  0  0  0  0  0  # atno 17371 bound_to 10713
  139.9146  135.0195  156.7831 LP  0  0  0  0  0  0  0  0  0  0  0  0  # atno 17394 bound_to 11000
  140.6572  133.9678  155.7785 LP  0  0  0  0  0  0  0  0  0  0  0  0  # atno 17395 bound_to 11000

$$$$
