AV-unprocessed.smi:2087|AV-procd|sdf|8524|dock8
  -GOLD-   2272011243D 1   1.00000     0.00000
 Structure written by MMmdl.
 50 51  0  0  0  0  0  0  0  0  1 V2000
  153.2360  143.0803  159.9553 C   0  0  0  0  0  0  0  0  0  0  0  0
  152.0834  143.9203  159.3861 C   0  0  0  0  0  0  0  0  0  0  0  0
  151.6377  144.9815  160.4054 C   0  0  0  0  0  0  0  0  0  0  0  0
  150.9133  143.0085  158.9578 C   0  0  0  0  0  0  0  0  0  0  0  0
  151.1646  142.1494  157.7995 N   0  0  0  0  0  0  0  0  0  0  0  0
  151.3598  140.7478  158.1637 C   0  0  0  0  0  0  0  0  0  0  0  0
  151.6061  139.8646  156.9285 C   0  0  0  0  0  0  0  0  0  0  0  0
  150.5292  140.0084  156.0086 O   0  0  0  0  0  0  0  0  0  0  0  0
  150.3229  141.3571  155.5948 C   0  0  1  0  0  0  0  0  0  0  0  0
  149.1807  141.4053  154.5615 C   0  0  0  0  0  0  0  0  0  0  0  0
  147.9121  141.8370  155.1421 N   0  0  0  0  0  0  0  0  0  0  0  0
  146.7912  141.1013  155.1882 C   0  0  0  0  0  0  0  0  0  0  0  0
  146.7128  139.9596  154.7323 O   0  0  0  0  0  0  0  0  0  0  0  0
  145.5858  141.7554  155.8775 C   0  0  0  0  0  0  0  0  0  0  0  0
  145.0695  142.9214  155.1489 N   0  0  0  0  0  0  0  0  0  0  0  0
  145.5504  143.2076  153.8842 C   0  0  0  0  0  0  0  0  0  0  0  0
  145.1379  144.2657  153.1524 C   0  0  0  0  0  0  0  0  0  0  0  0
  144.1351  145.1899  153.6690 C   0  0  0  0  0  0  0  0  0  0  0  0
  143.7320  146.1639  153.0324 O   0  0  0  0  0  0  0  0  0  0  0  0
  143.6616  144.8739  154.9658 N   0  0  0  0  0  0  0  0  0  0  0  0
  142.6637  145.7234  155.5822 C   0  0  0  0  0  0  0  0  0  0  0  0
  144.0983  143.7670  155.7260 C   0  0  0  0  0  0  0  0  0  0  0  0
  143.6540  143.5391  156.8543 O   0  0  0  0  0  0  0  0  0  0  0  0
  150.0718  142.2379  156.8376 C   0  0  0  0  0  0  0  0  0  0  0  0
  152.9270  142.5360  160.8484 H   0  0  0  0  0  0  0  0  0  0  0  0
  154.0846  143.7091  160.2263 H   0  0  0  0  0  0  0  0  0  0  0  0
  153.5891  142.3507  159.2259 H   0  0  0  0  0  0  0  0  0  0  0  0
  152.4772  144.4361  158.5110 H   0  0  0  0  0  0  0  0  0  0  0  0
  151.2318  144.5200  161.3060 H   0  0  0  0  0  0  0  0  0  0  0  0
  150.8684  145.6327  159.9896 H   0  0  0  0  0  0  0  0  0  0  0  0
  152.4730  145.6158  160.7032 H   0  0  0  0  0  0  0  0  0  0  0  0
  150.6113  142.3890  159.8038 H   0  0  0  0  0  0  0  0  0  0  0  0
  150.0571  143.6496  158.7424 H   0  0  0  0  0  0  0  0  0  0  0  0
  152.2100  140.6429  158.8361 H   0  0  0  0  0  0  0  0  0  0  0  0
  150.4857  140.3797  158.7030 H   0  0  0  0  0  0  0  0  0  0  0  0
  152.5450  140.1349  156.4430 H   0  0  0  0  0  0  0  0  0  0  0  0
  151.6865  138.8175  157.2209 H   0  0  0  0  0  0  0  0  0  0  0  0
  151.2329  141.6999  155.0992 H   0  0  0  0  0  0  0  0  0  0  0  0
  149.4379  142.1125  153.7727 H   0  0  0  0  0  0  0  0  0  0  0  0
  149.0722  140.4356  154.0728 H   0  0  0  0  0  0  0  0  0  0  0  0
  147.8873  142.7629  155.5444 H   0  0  0  0  0  0  0  0  0  0  0  0
  144.8020  141.0030  155.9755 H   0  0  0  0  0  0  0  0  0  0  0  0
  145.8516  142.0377  156.8978 H   0  0  0  0  0  0  0  0  0  0  0  0
  146.2983  142.5546  153.4581 H   0  0  0  0  0  0  0  0  0  0  0  0
  145.5570  144.4314  152.1708 H   0  0  0  0  0  0  0  0  0  0  0  0
  141.7892  145.1012  155.7820 H   0  0  0  0  0  0  0  0  0  0  0  0
  142.3860  146.5504  154.9298 H   0  0  0  0  0  0  0  0  0  0  0  0
  143.0963  146.1113  156.5062 H   0  0  0  0  0  0  0  0  0  0  0  0
  149.1391  141.9412  157.3197 H   0  0  0  0  0  0  0  0  0  0  0  0
  149.9427  143.2739  156.5220 H   0  0  0  0  0  0  0  0  0  0  0  0
  1  2  1  0  0  0  0
  1 25  1  0  0  0  0
  1 26  1  0  0  0  0
  1 27  1  0  0  0  0
  2  3  1  0  0  0  0
  2  4  1  0  0  0  0
  2 28  1  0  0  0  0
  3 29  1  0  0  0  0
  3 30  1  0  0  0  0
  3 31  1  0  0  0  0
  4  5  1  0  0  0  0
  4 32  1  0  0  0  0
  4 33  1  0  0  0  0
  5 24  1  0  0  0  0
  5  6  1  0  0  0  0
  6  7  1  0  0  0  0
  6 34  1  0  0  0  0
  6 35  1  0  0  0  0
  7  8  1  0  0  0  0
  7 36  1  0  0  0  0
  7 37  1  0  0  0  0
  8  9  1  0  0  0  0
  9 10  1  0  0  0  0
  9 24  1  0  0  0  0
  9 38  1  0  0  0  0
 10 11  1  0  0  0  0
 10 39  1  0  0  0  0
 10 40  1  0  0  0  0
 11 12  1  0  0  0  0
 11 41  1  0  0  0  0
 12 13  2  0  0  0  0
 12 14  1  0  0  0  0
 14 15  1  0  0  0  0
 14 42  1  0  0  0  0
 14 43  1  0  0  0  0
 15 22  1  0  0  0  0
 15 16  1  0  0  0  0
 16 17  2  0  0  0  0
 16 44  1  0  0  0  0
 17 18  1  0  0  0  0
 17 45  1  0  0  0  0
 18 19  2  0  0  0  0
 18 20  1  0  0  0  0
 20 21  1  0  0  0  0
 20 22  1  0  0  0  0
 21 46  1  0  0  0  0
 21 47  1  0  0  0  0
 21 48  1  0  0  0  0
 22 23  2  0  0  0  0
 24 49  1  0  0  0  0
 24 50  1  0  0  0  0
M  END
> <s_m_source_file>
AV-unprocessed.smi

> <i_m_source_file_index>
2087

> <i_lp_mmshare_version>
43012

> <i_f3d_flags>
0

> <s_epik_input>
W0NIM11bQ0hdKFtDSDNdKVtDSDJdTjFbQ0gyXVtDSDJdT1tDQEhdKFtDSDJdMSlbQ0gyXVtOSF1DKD1PKVtDSDJdbjJbY0hdW2NIXWMoPU8pbihbQ0gzXSljMj1P

> <s_epik_cmdline>
J2VwaWtfcHl0aG9uJywgJy1waCcsICc3LjAnLCAnLXRuJywgJzgnLCAnLW1hJywgJzIwMCcsICctbWV0YWxfYmluZGluZycsICctaW1hZScsICc8aW5maWxlLm1hZT4nLCAnLW9tYWUnLCAnPG91dGZpbGUubWFlPic=

> <r_lp_tautomer_probability>
1

> <r_epik_Ionization_Penalty>
1.11669

> <r_epik_Ionization_Penalty_Charging>
1.16423e-08

> <r_epik_Ionization_Penalty_Neutral>
1.11669

> <r_epik_State_Penalty>
1.17516

> <r_epik_Charging_Adjusted_Penalty>
1.17516

> <i_epik_Tot_Q>
0

> <i_epik_Tot_abs_Q>
0

> <r_epik_Metal_State_Penalty>
1.17513

> <b_epik_Metal_Only>
0

> <s_lp_Force_Field>
OPLS_2005

> <r_lp_Energy>
34.2639

> <b_lp_Chiralities_Consistent>
1

> <s_lp_Variant>
AV-unprocessed.smi:2087-5

> <Gold.Version>
5.8.1

> <Gold.Id.Protein>
6NUR|6NUR_protein|mol2

> <Gold.PLP.Fitness>
50.5026

> <Gold.PLP.PLP>
-50.1484

> <Gold.PLP.part.hbond>
-3.0000

> <Gold.PLP.part.metal>
0.0000

> <Gold.PLP.part.buried>
-5.4800

> <Gold.PLP.part.nonpolar>
-42.3602

> <Gold.PLP.part.repulsive>
0.3763

> <Gold.PLP.ligand.clash>
0.0000

> <Gold.PLP.ligand.torsion>
1.3906

> <Gold.PLP.Chemscore.Hbond>
1.0000

> <Gold.PLP.Chemscore.CHOScore>
0.0000

> <Gold.PLP.Chemscore.Metal>
0.0000

> <Gold.Chemscore.Hbonds>
donor molecule, donor type, donor heavy atom, donor atom, acceptor molecule, acceptor atom, score
      L1  H    11    41       P1  8028  0.59

> <Gold.PLP.Chemscore.Internal.Correction>
0.1355

> <Gold.Rescore>
     Score         DG    S(hbond)    S(metal)    S(lipo)     H(rot)  DE(clash)    DE(int)     intcor
      9.96     -14.01       0.62        0.00     102.59       2.16       2.31       1.74       ----

> <Gold.Chemscore.Fitness>
9.9558

> <Gold.Chemscore.DG>
-14.0062

> <Gold.Chemscore.ZeroCoef>
-5.4800

> <Gold.Chemscore.Hbond>
0.6176

> <Gold.Chemscore.Metal>
0.0000

> <Gold.Chemscore.Lipo>
102.5862

> <Gold.Chemscore.Internal_Hbond>
0.0000

> <Gold.Chemscore.DEClash>
2.3142

> <Gold.Chemscore.DEInternal>
1.7362

> <Gold.Chemscore.Rot>
2.1638

> <Gold.Chemscore.Internal.Correction>
   9.000000E+99

> <Gold.Chemscore.Hbonds>
donor molecule, donor type, donor heavy atom, donor atom, acceptor molecule, acceptor atom, score
      L1  H    11    41       P1  8028  0.44

> <Gold.Chemscore.Hbond.Weighted>
-2.0629

> <Gold.Chemscore.Metal.Weighted>
-0.0000

> <Gold.Chemscore.Lipo.Weighted>
-12.0026

> <Gold.Chemscore.Internal_Hbond.Weighted>
0.0000

> <Gold.Chemscore.DEClash.Weighted>
2.3142

> <Gold.Chemscore.DEInternal.Weighted>
1.7362

> <Gold.Chemscore.Rot.Weighted>
5.5393

> <Gold.Chemscore.Internal.Correction.Weighted>
   9.000000E+99

> <Gold.Protein.RotatedTorsions>
[ 6907 6896 6895 6894 ] final   32.67 input  -60.11 | X-H torsion
[ 7974 7965 7964 7962 ] final  127.77 input  175.53 | X-H torsion
[ 8008 7997 7996 7995 ] final  -36.86 input   59.86 | X-H torsion
[ 10167 10162 10161 10158 ] final   -4.73 input  -65.29 | X-H torsion
[ 10718 10713 10712 10709 ] final  116.00 input   66.30 | X-H torsion
[ 10763 10752 10751 10750 ] final  156.19 input  -60.55 | X-H torsion
[ 11005 11000 10999 10996 ] final -145.96 input  -57.11 | X-H torsion

> <Gold.Protein.ActiveResidues>
 VAL166  LYS551  ARG553  GLY616  TRP617  ASP618  TYR619  PRO620  LYS621  CYS622 
 ASP623  PHE694  ASN695  SER759  ASP760  ASP761  ALA762  ILE779  LEU786  VAL792 
 PHE793  MET794  SER795  GLU796  ALA797  LYS798  CYS799  TRP800  GLU811  SER814 

> <Gold.Protein.RotatedAtoms>
  152.0777  134.9492  160.0573 H   0  0  0  0  0  0  0  0  0  0  0  0  # atno 6907 bound_to 6896
  152.0793  133.4140  159.4502 H   0  0  0  0  0  0  0  0  0  0  0  0  # atno 6908 bound_to 6896
  150.6836  134.2921  159.4714 H   0  0  0  0  0  0  0  0  0  0  0  0  # atno 6909 bound_to 6896
  145.0469  139.3916  143.5074 H   0  0  0  0  0  0  0  0  0  0  0  0  # atno 7974 bound_to 7965
  154.4064  140.1619  156.2442 H   0  0  0  0  0  0  0  0  0  0  0  0  # atno 8008 bound_to 7997
  155.9175  140.3423  155.6124 H   0  0  0  0  0  0  0  0  0  0  0  0  # atno 8009 bound_to 7997
  155.7262  140.0774  157.2299 H   0  0  0  0  0  0  0  0  0  0  0  0  # atno 8010 bound_to 7997
  140.6938  143.6390  150.8453 H   0  0  0  0  0  0  0  0  0  0  0  0  # atno 10167 bound_to 10162
  157.6188  131.1020  150.7410 H   0  0  0  0  0  0  0  0  0  0  0  0  # atno 10718 bound_to 10713
  154.1804  135.2800  155.3054 H   0  0  0  0  0  0  0  0  0  0  0  0  # atno 10763 bound_to 10752
  154.6007  135.5530  153.7374 H   0  0  0  0  0  0  0  0  0  0  0  0  # atno 10764 bound_to 10752
  153.0139  135.6391  154.1943 H   0  0  0  0  0  0  0  0  0  0  0  0  # atno 10765 bound_to 10752
  140.7869  134.3014  157.5027 H   0  0  0  0  0  0  0  0  0  0  0  0  # atno 11005 bound_to 11000
  146.3514  140.0099  142.8668 LP  0  0  0  0  0  0  0  0  0  0  0  0  # atno 17320 bound_to 7965
  145.1577  140.9656  143.4396 LP  0  0  0  0  0  0  0  0  0  0  0  0  # atno 17321 bound_to 7965
  140.0106  143.5647  152.2840 LP  0  0  0  0  0  0  0  0  0  0  0  0  # atno 17342 bound_to 10162
  139.6369  144.7651  151.2419 LP  0  0  0  0  0  0  0  0  0  0  0  0  # atno 17343 bound_to 10162
  156.7771  130.4847  149.5407 LP  0  0  0  0  0  0  0  0  0  0  0  0  # atno 17370 bound_to 10713
  156.1322  130.6186  151.0350 LP  0  0  0  0  0  0  0  0  0  0  0  0  # atno 17371 bound_to 10713
  139.8735  134.9352  156.3626 LP  0  0  0  0  0  0  0  0  0  0  0  0  # atno 17394 bound_to 11000
  140.9428  133.7503  156.0168 LP  0  0  0  0  0  0  0  0  0  0  0  0  # atno 17395 bound_to 11000

$$$$
