AV-unprocessed.smi:847|AV-procd|sdf|3938|dock2
  -GOLD-   22720 1403D 1   1.00000     0.00000
 Structure written by MMmdl.
 46 47  0  0  0  0  0  0  0  0  1 V2000
  151.7317  130.7755  163.5322 C   0  0  0  0  0  0  0  0  0  0  0  0
  152.6992  130.8358  164.5652 O   0  0  0  0  0  0  0  0  0  0  0  0
  152.8551  132.1446  165.0881 C   0  0  0  0  0  0  0  0  0  0  0  0
  153.9957  132.8497  164.3483 C   0  0  0  0  0  0  0  0  0  0  0  0
  153.9313  134.2442  164.6313 O   0  0  0  0  0  0  0  0  0  0  0  0
  154.1277  135.1363  163.5975 C   0  0  0  0  0  0  0  0  0  0  0  0
  153.7045  136.4697  163.7701 C   0  0  0  0  0  0  0  0  0  0  0  0
  153.9074  137.3870  162.7219 C   0  0  0  0  0  0  0  0  0  0  0  0
  154.5245  136.9409  161.5347 C   0  0  0  0  0  0  0  0  0  0  0  0
  154.7854  137.8937  160.3816 C   0  0  0  0  0  0  0  0  0  0  0  0
  154.0365  139.1378  160.5155 N   0  0  0  0  0  0  0  0  0  0  0  0
  153.5679  139.8760  159.4981 C   0  0  0  0  0  0  0  0  0  0  0  0
  153.7821  139.6131  158.3139 O   0  0  0  0  0  0  0  0  0  0  0  0
  152.7220  141.1051  159.8809 C   0  0  1  0  0  0  0  0  0  0  0  0
  153.5405  142.0638  160.7602 C   0  0  0  0  0  0  0  0  0  0  0  0
  152.9807  143.4403  160.4542 C   0  0  0  0  0  0  0  0  0  0  0  0
  152.4875  143.3484  159.0107 C   0  0  0  0  0  0  0  0  0  0  0  0
  152.2689  141.9251  158.7396 N   0  0  0  0  0  0  0  0  0  0  0  0
  151.6747  141.4636  157.6113 C   0  0  0  0  0  0  0  0  0  0  0  0
  151.3063  142.4673  156.5161 C   0  0  0  0  0  0  0  0  0  0  0  0
  151.4045  140.2762  157.4297 O   0  0  0  0  0  0  0  0  0  0  0  0
  154.9098  135.5863  161.4561 C   0  0  0  0  0  0  0  0  0  0  0  0
  154.7190  134.7005  162.4567 N   0  0  0  0  0  0  0  0  0  0  0  0
  151.8295  140.7870  160.4230 H   0  0  0  0  0  0  0  0  0  0  0  0
  151.6496  129.7522  163.1662 H   0  0  0  0  0  0  0  0  0  0  0  0
  152.0113  131.4121  162.6918 H   0  0  0  0  0  0  0  0  0  0  0  0
  150.7495  131.0837  163.8933 H   0  0  0  0  0  0  0  0  0  0  0  0
  151.9282  132.7008  164.9414 H   0  0  0  0  0  0  0  0  0  0  0  0
  153.0557  132.1175  166.1602 H   0  0  0  0  0  0  0  0  0  0  0  0
  154.9565  132.4266  164.6465 H   0  0  0  0  0  0  0  0  0  0  0  0
  153.8773  132.6914  163.2751 H   0  0  0  0  0  0  0  0  0  0  0  0
  153.2371  136.7842  164.6916 H   0  0  0  0  0  0  0  0  0  0  0  0
  153.5969  138.4152  162.8323 H   0  0  0  0  0  0  0  0  0  0  0  0
  155.8473  138.1377  160.3426 H   0  0  0  0  0  0  0  0  0  0  0  0
  154.5534  137.3953  159.4387 H   0  0  0  0  0  0  0  0  0  0  0  0
  153.8159  139.4352  161.4550 H   0  0  0  0  0  0  0  0  0  0  0  0
  153.4740  141.8160  161.8200 H   0  0  0  0  0  0  0  0  0  0  0  0
  154.5972  142.0486  160.4860 H   0  0  0  0  0  0  0  0  0  0  0  0
  152.1334  143.6364  161.1126 H   0  0  0  0  0  0  0  0  0  0  0  0
  153.7074  144.2393  160.6034 H   0  0  0  0  0  0  0  0  0  0  0  0
  151.5824  143.9413  158.8727 H   0  0  0  0  0  0  0  0  0  0  0  0
  153.2510  143.7277  158.3299 H   0  0  0  0  0  0  0  0  0  0  0  0
  152.1779  143.0450  156.2080 H   0  0  0  0  0  0  0  0  0  0  0  0
  150.5340  143.1534  156.8641 H   0  0  0  0  0  0  0  0  0  0  0  0
  150.9218  141.9507  155.6361 H   0  0  0  0  0  0  0  0  0  0  0  0
  155.3906  135.2012  160.5689 H   0  0  0  0  0  0  0  0  0  0  0  0
  1  2  1  0  0  0  0
  1 25  1  0  0  0  0
  1 26  1  0  0  0  0
  1 27  1  0  0  0  0
  2  3  1  0  0  0  0
  3  4  1  0  0  0  0
  3 28  1  0  0  0  0
  3 29  1  0  0  0  0
  4  5  1  0  0  0  0
  4 30  1  0  0  0  0
  4 31  1  0  0  0  0
  5  6  1  0  0  0  0
  6 23  1  0  0  0  0
  6  7  2  0  0  0  0
  7  8  1  0  0  0  0
  7 32  1  0  0  0  0
  8  9  2  0  0  0  0
  8 33  1  0  0  0  0
  9 10  1  0  0  0  0
  9 22  1  0  0  0  0
 10 11  1  0  0  0  0
 10 34  1  0  0  0  0
 10 35  1  0  0  0  0
 11 12  1  0  0  0  0
 11 36  1  0  0  0  0
 12 13  2  0  0  0  0
 12 14  1  0  0  0  0
 14 24  1  0  0  0  0
 14 18  1  0  0  0  0
 14 15  1  0  0  0  0
 15 16  1  0  0  0  0
 15 37  1  0  0  0  0
 15 38  1  0  0  0  0
 16 17  1  0  0  0  0
 16 39  1  0  0  0  0
 16 40  1  0  0  0  0
 17 18  1  0  0  0  0
 17 41  1  0  0  0  0
 17 42  1  0  0  0  0
 18 19  1  0  0  0  0
 19 20  1  0  0  0  0
 19 21  2  0  0  0  0
 20 43  1  0  0  0  0
 20 44  1  0  0  0  0
 20 45  1  0  0  0  0
 22 23  2  0  0  0  0
 22 46  1  0  0  0  0
M  END
> <s_m_source_file>
AV-unprocessed.smi

> <i_m_source_file_index>
847

> <i_lp_mmshare_version>
43012

> <i_f3d_flags>
0

> <s_epik_input>
W0NIM11PW0NIMl1bQ0gyXU9jMVtjSF1bY0hdYyhbY0hdbjEpW0NIMl1bTkhdQyg9TylbQ0BASF0yW0NIMl1bQ0gyXVtDSDJdTjJDKD1PKVtDSDNd

> <s_epik_cmdline>
J2VwaWtfcHl0aG9uJywgJy1waCcsICc3LjAnLCAnLXRuJywgJzgnLCAnLW1hJywgJzIwMCcsICctbWV0YWxfYmluZGluZycsICctaW1hZScsICc8aW5maWxlLm1hZT4nLCAnLW9tYWUnLCAnPG91dGZpbGUubWFlPic=

> <r_lp_tautomer_probability>
1

> <r_epik_Ionization_Penalty>
6.04138e-05

> <r_epik_Ionization_Penalty_Charging>
0

> <r_epik_Ionization_Penalty_Neutral>
6.04138e-05

> <r_epik_State_Penalty>
-0

> <r_epik_Charging_Adjusted_Penalty>
0

> <i_epik_Tot_Q>
0

> <i_epik_Tot_abs_Q>
0

> <r_epik_Metal_State_Penalty>
-0

> <b_epik_Metal_Only>
0

> <s_lp_Force_Field>
OPLS_2005

> <r_lp_Energy>
14.1261

> <b_lp_Chiralities_Consistent>
1

> <s_lp_Variant>
AV-unprocessed.smi:847-2

> <Gold.Version>
5.8.1

> <Gold.Id.Protein>
6NUR|6NUR_protein|mol2

> <Gold.PLP.Fitness>
47.2054

> <Gold.PLP.PLP>
-46.3320

> <Gold.PLP.part.hbond>
-1.0000

> <Gold.PLP.part.metal>
0.0000

> <Gold.PLP.part.buried>
-6.6330

> <Gold.PLP.part.nonpolar>
-38.7245

> <Gold.PLP.part.repulsive>
0.1937

> <Gold.PLP.ligand.clash>
0.0000

> <Gold.PLP.ligand.torsion>
1.1854

> <Gold.PLP.Chemscore.Hbond>
1.0000

> <Gold.PLP.Chemscore.CHOScore>
0.0000

> <Gold.PLP.Chemscore.Metal>
0.0000

> <Gold.Chemscore.Hbonds>
donor molecule, donor type, donor heavy atom, donor atom, acceptor molecule, acceptor atom, score
      P1  H  7997  8009       L1    13  1.00

> <Gold.PLP.Chemscore.Internal.Correction>
0.2442

> <Gold.Rescore>
     Score         DG    S(hbond)    S(metal)    S(lipo)     H(rot)  DE(clash)    DE(int)     intcor
     11.00     -16.30       0.97        0.00     115.20       2.31       0.57       4.73       ----

> <Gold.Chemscore.Fitness>
10.9971

> <Gold.Chemscore.DG>
-16.2952

> <Gold.Chemscore.ZeroCoef>
-5.4800

> <Gold.Chemscore.Hbond>
0.9701

> <Gold.Chemscore.Metal>
0.0000

> <Gold.Chemscore.Lipo>
115.2046

> <Gold.Chemscore.Internal_Hbond>
0.0000

> <Gold.Chemscore.DEClash>
0.5701

> <Gold.Chemscore.DEInternal>
4.7280

> <Gold.Chemscore.Rot>
2.3062

> <Gold.Chemscore.Internal.Correction>
   9.000000E+99

> <Gold.Chemscore.Hbonds>
donor molecule, donor type, donor heavy atom, donor atom, acceptor molecule, acceptor atom, score
      P1  H  7997  8009       L1    13  0.95

> <Gold.Chemscore.Hbond.Weighted>
-3.2401

> <Gold.Chemscore.Metal.Weighted>
-0.0000

> <Gold.Chemscore.Lipo.Weighted>
-13.4789

> <Gold.Chemscore.Internal_Hbond.Weighted>
0.0000

> <Gold.Chemscore.DEClash.Weighted>
0.5701

> <Gold.Chemscore.DEInternal.Weighted>
4.7280

> <Gold.Chemscore.Rot.Weighted>
5.9038

> <Gold.Chemscore.Internal.Correction.Weighted>
   9.000000E+99

> <Gold.Protein.RotatedTorsions>
[ 6907 6896 6895 6894 ] final   87.23 input  -60.11 | X-H torsion
[ 7974 7965 7964 7962 ] final -122.59 input  175.53 | X-H torsion
[ 8008 7997 7996 7995 ] final  145.05 input   59.86 | X-H torsion
[ 10167 10162 10161 10158 ] final  -86.06 input  -65.29 | X-H torsion
[ 10718 10713 10712 10709 ] final  -67.63 input   66.30 | X-H torsion
[ 10763 10752 10751 10750 ] final  134.11 input  -60.55 | X-H torsion
[ 11005 11000 10999 10996 ] final  169.60 input  -57.11 | X-H torsion

> <Gold.Protein.ActiveResidues>
 VAL166  LYS551  ARG553  GLY616  TRP617  ASP618  TYR619  PRO620  LYS621  CYS622 
 ASP623  PHE694  ASN695  SER759  ASP760  ASP761  ALA762  ILE779  LEU786  VAL792 
 PHE793  MET794  SER795  GLU796  ALA797  LYS798  CYS799  TRP800  GLU811  SER814 

> <Gold.Protein.RotatedAtoms>
  152.5408  134.2309  159.8824 H   0  0  0  0  0  0  0  0  0  0  0  0  # atno 6907 bound_to 6896
  151.2281  133.4458  159.2610 H   0  0  0  0  0  0  0  0  0  0  0  0  # atno 6908 bound_to 6896
  151.0741  134.9831  159.8379 H   0  0  0  0  0  0  0  0  0  0  0  0  # atno 6909 bound_to 6896
  145.0278  140.8043  143.4342 H   0  0  0  0  0  0  0  0  0  0  0  0  # atno 7974 bound_to 7965
  156.2893  140.2219  156.5152 H   0  0  0  0  0  0  0  0  0  0  0  0  # atno 8008 bound_to 7997
  154.7575  140.0476  157.0967 H   0  0  0  0  0  0  0  0  0  0  0  0  # atno 8009 bound_to 7997
  155.0033  140.3104  155.4862 H   0  0  0  0  0  0  0  0  0  0  0  0  # atno 8010 bound_to 7997
  140.3978  143.2676  151.9182 H   0  0  0  0  0  0  0  0  0  0  0  0  # atno 10167 bound_to 10162
  156.0547  130.4281  150.1882 H   0  0  0  0  0  0  0  0  0  0  0  0  # atno 10718 bound_to 10713
  153.8181  135.3120  155.3407 H   0  0  0  0  0  0  0  0  0  0  0  0  # atno 10763 bound_to 10752
  154.8024  135.4719  154.0311 H   0  0  0  0  0  0  0  0  0  0  0  0  # atno 10764 bound_to 10752
  153.1711  135.6878  153.8697 H   0  0  0  0  0  0  0  0  0  0  0  0  # atno 10765 bound_to 10752
  140.2995  134.7607  157.3904 H   0  0  0  0  0  0  0  0  0  0  0  0  # atno 11005 bound_to 11000
  145.1810  139.2352  143.5292 LP  0  0  0  0  0  0  0  0  0  0  0  0  # atno 17320 bound_to 7965
  146.3494  140.1584  142.8591 LP  0  0  0  0  0  0  0  0  0  0  0  0  # atno 17321 bound_to 7965
  139.4786  144.5664  151.8158 LP  0  0  0  0  0  0  0  0  0  0  0  0  # atno 17342 bound_to 10162
  140.4772  144.1502  150.5927 LP  0  0  0  0  0  0  0  0  0  0  0  0  # atno 17343 bound_to 10162
  156.9960  130.9908  151.3403 LP  0  0  0  0  0  0  0  0  0  0  0  0  # atno 17370 bound_to 10713
  157.5507  130.8180  149.8141 LP  0  0  0  0  0  0  0  0  0  0  0  0  # atno 17371 bound_to 10713
  140.1122  134.5330  155.8256 LP  0  0  0  0  0  0  0  0  0  0  0  0  # atno 17394 bound_to 11000
  141.2131  133.6728  156.6710 LP  0  0  0  0  0  0  0  0  0  0  0  0  # atno 17395 bound_to 11000

$$$$
