AV-unprocessed.smi:2069|AV-procd|sdf|8435|dock6
  -GOLD-   2272011133D 1   1.00000     0.00000
 Structure written by MMmdl.
 37 38  0  0  0  0  0  0  0  0  2 V2000
  148.5614  134.0674  157.9827 C   0  0  0  0  0  0  0  0  0  0  0  0
  149.5076  135.0408  157.3680 C   0  0  0  0  0  0  0  0  0  0  0  0
  150.1971  135.9297  158.0871 N   0  0  0  0  0  0  0  0  0  0  0  0
  151.0077  136.7284  157.2935 N   0  0  0  0  0  0  0  0  0  0  0  0
  150.9129  136.4407  155.9877 C   0  0  0  0  0  0  0  0  0  0  0  0
  151.6193  137.0979  155.0529 N   0  5  0  0  0  0  0  0  0  0  0  0
  152.2768  138.2345  155.3767 C   0  0  0  0  0  0  0  0  0  0  0  0
  153.4861  138.4408  155.2495 O   0  0  0  0  0  0  0  0  0  0  0  0
  151.4848  139.1900  155.8843 N   0  0  0  0  0  0  0  0  0  0  0  0
  151.9171  140.5102  156.3375 C   0  0  0  0  0  0  0  0  0  0  0  0
  151.7744  140.7168  157.8742 C   0  0  2  0  0  0  0  0  0  0  0  0
  150.3271  140.3556  158.2955 C   0  0  0  0  0  0  0  0  0  0  0  0
  152.1803  142.0685  158.3265 N   0  0  0  0  0  0  0  0  0  0  0  0
  152.2316  142.1871  159.7883 C   0  0  0  0  0  0  0  0  0  0  0  0
  152.6164  143.6000  160.2603 C   0  0  0  0  0  0  0  0  0  0  0  0
  151.7056  144.5507  159.7260 O   0  0  0  0  0  0  0  0  0  0  0  0
  151.6823  144.5243  158.3057 C   0  0  0  0  0  0  0  0  0  0  0  0
  151.2894  143.1187  157.8195 C   0  0  0  0  0  0  0  0  0  0  0  0
  149.8030  135.1151  155.6391 S   0  0  0  0  0  0  0  0  0  0  0  0
  147.6213  134.5641  158.2232 H   0  0  0  0  0  0  0  0  0  0  0  0
  148.9856  133.6547  158.8984 H   0  0  0  0  0  0  0  0  0  0  0  0
  148.3590  133.2480  157.2927 H   0  0  0  0  0  0  0  0  0  0  0  0
  150.5013  138.9789  155.9688 H   0  0  0  0  0  0  0  0  0  0  0  0
  152.9455  140.6333  156.0007 H   0  0  0  0  0  0  0  0  0  0  0  0
  151.3279  141.2584  155.8068 H   0  0  0  0  0  0  0  0  0  0  0  0
  152.4338  139.9936  158.3569 H   0  0  0  0  0  0  0  0  0  0  0  0
  150.0147  139.3821  157.9196 H   0  0  0  0  0  0  0  0  0  0  0  0
  149.6140  141.0931  157.9257 H   0  0  0  0  0  0  0  0  0  0  0  0
  150.2144  140.2894  159.3764 H   0  0  0  0  0  0  0  0  0  0  0  0
  151.2670  141.9108  160.2167 H   0  0  0  0  0  0  0  0  0  0  0  0
  152.9711  141.5063  160.2043 H   0  0  0  0  0  0  0  0  0  0  0  0
  152.5903  143.6549  161.3487 H   0  0  0  0  0  0  0  0  0  0  0  0
  153.6339  143.8461  159.9524 H   0  0  0  0  0  0  0  0  0  0  0  0
  150.9642  145.2625  157.9488 H   0  0  0  0  0  0  0  0  0  0  0  0
  152.6587  144.8110  157.9117 H   0  0  0  0  0  0  0  0  0  0  0  0
  151.3039  143.1429  156.7314 H   0  0  0  0  0  0  0  0  0  0  0  0
  150.2615  142.9075  158.1185 H   0  0  0  0  0  0  0  0  0  0  0  0
  1  2  1  0  0  0  0
  1 20  1  0  0  0  0
  1 21  1  0  0  0  0
  1 22  1  0  0  0  0
  2 19  1  0  0  0  0
  2  3  2  0  0  0  0
  3  4  1  0  0  0  0
  4  5  2  0  0  0  0
  5  6  1  0  0  0  0
  5 19  1  0  0  0  0
  6  7  1  0  0  0  0
  7  8  2  0  0  0  0
  7  9  1  0  0  0  0
  9 10  1  0  0  0  0
  9 23  1  0  0  0  0
 10 11  1  0  0  0  0
 10 24  1  0  0  0  0
 10 25  1  0  0  0  0
 11 12  1  0  0  0  0
 11 13  1  0  0  0  0
 11 26  1  0  0  0  0
 12 27  1  0  0  0  0
 12 28  1  0  0  0  0
 12 29  1  0  0  0  0
 13 18  1  0  0  0  0
 13 14  1  0  0  0  0
 14 15  1  0  0  0  0
 14 30  1  0  0  0  0
 14 31  1  0  0  0  0
 15 16  1  0  0  0  0
 15 32  1  0  0  0  0
 15 33  1  0  0  0  0
 16 17  1  0  0  0  0
 17 18  1  0  0  0  0
 17 34  1  0  0  0  0
 17 35  1  0  0  0  0
 18 36  1  0  0  0  0
 18 37  1  0  0  0  0
M  CHG  1   6  -1
M  END
> <s_m_source_file>
AV-unprocessed.smi

> <i_m_source_file_index>
2069

> <i_lp_mmshare_version>
43012

> <i_f3d_flags>
0

> <s_epik_input>
W0NIM11jMW5uYyhzMSlbTkhdQyg9TylbTkhdW0NIMl1bQ0BIXShbQ0gzXSlOMltDSDJdW0NIMl1PW0NIMl1bQ0gyXTI=

> <s_epik_cmdline>
J2VwaWtfcHl0aG9uJywgJy1waCcsICc3LjAnLCAnLXRuJywgJzgnLCAnLW1hJywgJzIwMCcsICctbWV0YWxfYmluZGluZycsICctaW1hZScsICc8aW5maWxlLm1hZT4nLCAnLW9tYWUnLCAnPG91dGZpbGUubWFlPic=

> <r_lp_tautomer_probability>
1

> <r_epik_Ionization_Penalty>
3.82002

> <r_epik_Ionization_Penalty_Charging>
3.36369

> <r_epik_Ionization_Penalty_Neutral>
0.456339

> <r_epik_State_Penalty>
3.571

> <r_epik_Charging_Adjusted_Penalty>
6.93469

> <i_epik_Tot_Q>
-1

> <i_epik_Tot_abs_Q>
1

> <r_epik_Metal_State_Penalty>
0.710436

> <b_epik_Metal_Only>
1

> <s_lp_Force_Field>
OPLS_2005

> <r_lp_Energy>
26.0796

> <b_lp_Chiralities_Consistent>
1

> <s_lp_Variant>
AV-unprocessed.smi:2069-5

> <Gold.Version>
5.8.1

> <Gold.Id.Protein>
6NUR|6NUR_protein|mol2

> <Gold.PLP.Fitness>
39.7432

> <Gold.PLP.PLP>
-30.2686

> <Gold.PLP.part.hbond>
-3.0000

> <Gold.PLP.part.metal>
0.0000

> <Gold.PLP.part.buried>
-6.1534

> <Gold.PLP.part.nonpolar>
-22.1223

> <Gold.PLP.part.repulsive>
0.2716

> <Gold.PLP.ligand.clash>
0.0000

> <Gold.PLP.ligand.torsion>
0.6362

> <Gold.PLP.Chemscore.Hbond>
3.5425

> <Gold.PLP.Chemscore.CHOScore>
0.0000

> <Gold.PLP.Chemscore.Metal>
0.0000

> <Gold.Chemscore.Hbonds>
donor molecule, donor type, donor heavy atom, donor atom, acceptor molecule, acceptor atom, score
      P1  H  6896  6907       L1     3  0.82
      P1  H  7997  8010       L1     8  0.65
      P1  H 10752 10765       L1     6  1.82

> <Gold.PLP.Chemscore.Internal.Correction>
0.1197

> <Gold.Rescore>
     Score         DG    S(hbond)    S(metal)    S(lipo)     H(rot)  DE(clash)    DE(int)     intcor
     15.00     -15.79       1.91        0.00      67.92       1.57       0.00       0.79       ----

> <Gold.Chemscore.Fitness>
15.0038

> <Gold.Chemscore.DG>
-15.7889

> <Gold.Chemscore.ZeroCoef>
-5.4800

> <Gold.Chemscore.Hbond>
1.9132

> <Gold.Chemscore.Metal>
0.0000

> <Gold.Chemscore.Lipo>
67.9171

> <Gold.Chemscore.Internal_Hbond>
0.0000

> <Gold.Chemscore.DEClash>
0.0000

> <Gold.Chemscore.DEInternal>
0.7852

> <Gold.Chemscore.Rot>
1.5732

> <Gold.Chemscore.Internal.Correction>
   9.000000E+99

> <Gold.Chemscore.Hbonds>
donor molecule, donor type, donor heavy atom, donor atom, acceptor molecule, acceptor atom, score
      P1  H  6896  6907       L1     3  0.17
      P1  H  7997  8010       L1     8  0.63
      P1  H 10752 10765       L1     6  0.14

> <Gold.Chemscore.Hbond.Weighted>
-6.3901

> <Gold.Chemscore.Metal.Weighted>
-0.0000

> <Gold.Chemscore.Lipo.Weighted>
-7.9463

> <Gold.Chemscore.Internal_Hbond.Weighted>
0.0000

> <Gold.Chemscore.DEClash.Weighted>
0.0000

> <Gold.Chemscore.DEInternal.Weighted>
0.7852

> <Gold.Chemscore.Rot.Weighted>
4.0274

> <Gold.Chemscore.Internal.Correction.Weighted>
   9.000000E+99

> <Gold.Protein.RotatedTorsions>
[ 6907 6896 6895 6894 ] final  -59.18 input  -60.11 | X-H torsion
[ 7974 7965 7964 7962 ] final -101.76 input  175.53 | X-H torsion
[ 8008 7997 7996 7995 ] final   86.68 input   59.86 | X-H torsion
[ 10167 10162 10161 10158 ] final  -94.06 input  -65.29 | X-H torsion
[ 10718 10713 10712 10709 ] final  -36.30 input   66.30 | X-H torsion
[ 10763 10752 10751 10750 ] final  178.55 input  -60.55 | X-H torsion
[ 11005 11000 10999 10996 ] final  131.08 input  -57.11 | X-H torsion

> <Gold.Protein.ActiveResidues>
 VAL166  LYS551  ARG553  GLY616  TRP617  ASP618  TYR619  PRO620  LYS621  CYS622 
 ASP623  PHE694  ASN695  SER759  ASP760  ASP761  ALA762  ILE779  LEU786  VAL792 
 PHE793  MET794  SER795  GLU796  ALA797  LYS798  CYS799  TRP800  GLU811  SER814 

> <Gold.Protein.RotatedAtoms>
  150.7950  134.7002  159.6545 H   0  0  0  0  0  0  0  0  0  0  0  0  # atno 6907 bound_to 6896
  152.4060  134.6202  160.0058 H   0  0  0  0  0  0  0  0  0  0  0  0  # atno 6908 bound_to 6896
  151.6459  133.3286  159.3177 H   0  0  0  0  0  0  0  0  0  0  0  0  # atno 6909 bound_to 6896
  145.2774  140.9316  143.2951 H   0  0  0  0  0  0  0  0  0  0  0  0  # atno 7974 bound_to 7965
  155.9658  140.3389  155.6531 H   0  0  0  0  0  0  0  0  0  0  0  0  # atno 8008 bound_to 7997
  155.6739  140.0730  157.2528 H   0  0  0  0  0  0  0  0  0  0  0  0  # atno 8009 bound_to 7997
  154.4154  140.1686  156.1896 H   0  0  0  0  0  0  0  0  0  0  0  0  # atno 8010 bound_to 7997
  140.3183  143.3064  152.0074 H   0  0  0  0  0  0  0  0  0  0  0  0  # atno 10167 bound_to 10162
  156.3284  130.4276  149.7895 H   0  0  0  0  0  0  0  0  0  0  0  0  # atno 10718 bound_to 10713
  154.5091  135.2787  155.1358 H   0  0  0  0  0  0  0  0  0  0  0  0  # atno 10763 bound_to 10752
  154.2960  135.6257  153.5408 H   0  0  0  0  0  0  0  0  0  0  0  0  # atno 10764 bound_to 10752
  152.9915  135.5685  154.5552 H   0  0  0  0  0  0  0  0  0  0  0  0  # atno 10765 bound_to 10752
  139.9709  134.9577  156.9387 H   0  0  0  0  0  0  0  0  0  0  0  0  # atno 11005 bound_to 11000
  144.9282  139.4329  143.6508 LP  0  0  0  0  0  0  0  0  0  0  0  0  # atno 17320 bound_to 7965
  146.3227  139.8179  142.8932 LP  0  0  0  0  0  0  0  0  0  0  0  0  # atno 17321 bound_to 7965
  139.4879  144.6331  151.7030 LP  0  0  0  0  0  0  0  0  0  0  0  0  # atno 17342 bound_to 10162
  140.5506  144.0431  150.6125 LP  0  0  0  0  0  0  0  0  0  0  0  0  # atno 17343 bound_to 10162
  156.5176  130.8200  151.3192 LP  0  0  0  0  0  0  0  0  0  0  0  0  # atno 17370 bound_to 10713
  157.7426  130.9893  150.2526 LP  0  0  0  0  0  0  0  0  0  0  0  0  # atno 17371 bound_to 10713
  140.5295  134.0827  155.7312 LP  0  0  0  0  0  0  0  0  0  0  0  0  # atno 17394 bound_to 11000
  141.1389  133.9173  157.2372 LP  0  0  0  0  0  0  0  0  0  0  0  0  # atno 17395 bound_to 11000

$$$$
