AV-unprocessed.smi:876|AV-procd|sdf|4024|dock5
  -GOLD-   22720 1513D 1   1.00000     0.00000
 Structure written by MMmdl.
 40 41  0  0  0  0  0  0  0  0  1 V2000
  136.5574  137.2016  155.2829 C   0  0  0  0  0  0  0  0  0  0  0  0
  137.3838  138.3212  154.8487 N   0  0  0  0  0  0  0  0  0  0  0  0
  136.8652  139.6829  154.9315 C   0  0  0  0  0  0  0  0  0  0  0  0
  138.6679  138.0891  154.3048 C   0  0  0  0  0  0  0  0  0  0  0  0
  139.1684  136.7758  154.1231 C   0  0  0  0  0  0  0  0  0  0  0  0
  140.4533  136.5948  153.5759 C   0  0  0  0  0  0  0  0  0  0  0  0
  141.2114  137.7319  153.2136 C   0  0  0  0  0  0  0  0  0  0  0  0
  142.5239  137.6867  152.6696 N   0  0  0  0  0  0  0  0  0  0  0  0
  143.2999  136.6154  152.4316 C   0  0  0  0  0  0  0  0  0  0  0  0
  142.9816  135.4433  152.6315 O   0  0  0  0  0  0  0  0  0  0  0  0
  144.4849  136.9806  151.9229 N   0  0  0  0  0  0  0  0  0  0  0  0
  145.5495  136.0580  151.5454 C   0  0  1  0  0  0  0  0  0  0  0  0
  145.9302  135.1844  152.7087 C   0  0  0  0  0  0  0  0  0  0  0  0
  145.7998  133.8870  152.4418 C   0  0  0  0  0  0  0  0  0  0  0  0
  145.2821  133.6236  151.0506 C   0  0  2  0  0  0  0  0  0  0  0  0
  146.2240  132.7307  150.2245 C   0  0  0  0  0  0  0  0  0  0  0  0
  146.5748  131.5708  150.9501 O   0  0  0  0  0  0  0  0  0  0  0  0
  145.1124  135.0445  150.4546 C   0  0  0  0  0  0  0  0  0  0  0  0
  140.6366  138.9968  153.4438 C   0  0  0  0  0  0  0  0  0  0  0  0
  139.4061  139.1746  153.9672 N   0  0  0  0  0  0  0  0  0  0  0  0
  146.4339  136.6130  151.2280 H   0  0  0  0  0  0  0  0  0  0  0  0
  144.3046  133.1466  151.1364 H   0  0  0  0  0  0  0  0  0  0  0  0
  137.0413  136.6615  156.0972 H   0  0  0  0  0  0  0  0  0  0  0  0
  136.3837  136.5100  154.4579 H   0  0  0  0  0  0  0  0  0  0  0  0
  135.5853  137.5409  155.6410 H   0  0  0  0  0  0  0  0  0  0  0  0
  136.7835  140.1220  153.9366 H   0  0  0  0  0  0  0  0  0  0  0  0
  137.5247  140.3087  155.5336 H   0  0  0  0  0  0  0  0  0  0  0  0
  135.8764  139.7055  155.3894 H   0  0  0  0  0  0  0  0  0  0  0  0
  138.5960  135.9026  154.3968 H   0  0  0  0  0  0  0  0  0  0  0  0
  140.8306  135.5910  153.4607 H   0  0  0  0  0  0  0  0  0  0  0  0
  142.9009  138.5779  152.3817 H   0  0  0  0  0  0  0  0  0  0  0  0
  144.6643  137.9647  151.7863 H   0  0  0  0  0  0  0  0  0  0  0  0
  146.2817  135.5929  153.6448 H   0  0  0  0  0  0  0  0  0  0  0  0
  146.0204  133.0867  153.1331 H   0  0  0  0  0  0  0  0  0  0  0  0
  145.7380  132.4235  149.2980 H   0  0  0  0  0  0  0  0  0  0  0  0
  147.1308  133.2711  149.9503 H   0  0  0  0  0  0  0  0  0  0  0  0
  147.3244  131.1720  150.5347 H   0  0  0  0  0  0  0  0  0  0  0  0
  144.0766  135.1999  150.1492 H   0  0  0  0  0  0  0  0  0  0  0  0
  145.7217  135.1762  149.5594 H   0  0  0  0  0  0  0  0  0  0  0  0
  141.1781  139.8986  153.1972 H   0  0  0  0  0  0  0  0  0  0  0  0
  1  2  1  0  0  0  0
  1 23  1  0  0  0  0
  1 24  1  0  0  0  0
  1 25  1  0  0  0  0
  2  3  1  0  0  0  0
  2  4  1  0  0  0  0
  3 26  1  0  0  0  0
  3 27  1  0  0  0  0
  3 28  1  0  0  0  0
  4 20  1  0  0  0  0
  4  5  2  0  0  0  0
  5  6  1  0  0  0  0
  5 29  1  0  0  0  0
  6  7  2  0  0  0  0
  6 30  1  0  0  0  0
  7  8  1  0  0  0  0
  7 19  1  0  0  0  0
  8  9  1  0  0  0  0
  8 31  1  0  0  0  0
  9 10  2  0  0  0  0
  9 11  1  0  0  0  0
 11 12  1  0  0  0  0
 11 32  1  0  0  0  0
 12 21  1  0  0  0  0
 12 18  1  0  0  0  0
 12 13  1  0  0  0  0
 13 14  2  0  0  0  0
 13 33  1  0  0  0  0
 14 15  1  0  0  0  0
 14 34  1  0  0  0  0
 15 22  1  0  0  0  0
 15 16  1  0  0  0  0
 15 18  1  0  0  0  0
 16 17  1  0  0  0  0
 16 35  1  0  0  0  0
 16 36  1  0  0  0  0
 17 37  1  0  0  0  0
 18 38  1  0  0  0  0
 18 39  1  0  0  0  0
 19 20  2  0  0  0  0
 19 40  1  0  0  0  0
M  END
> <s_m_source_file>
AV-unprocessed.smi

> <i_m_source_file_index>
876

> <i_lp_mmshare_version>
43012

> <i_f3d_flags>
0

> <s_epik_input>
W0NIM11OKFtDSDNdKWMxW2NIXVtjSF1jKFtjSF1uMSlbTkhdQyg9TylbTkhdW0NAQEhdMltDSF09W0NIXVtDQEBIXShbQ0gyXTIpW0NIMl1bT0hd

> <s_epik_cmdline>
J2VwaWtfcHl0aG9uJywgJy1waCcsICc3LjAnLCAnLXRuJywgJzgnLCAnLW1hJywgJzIwMCcsICctbWV0YWxfYmluZGluZycsICctaW1hZScsICc8aW5maWxlLm1hZT4nLCAnLW9tYWUnLCAnPG91dGZpbGUubWFlPic=

> <r_lp_tautomer_probability>
1

> <r_epik_Ionization_Penalty>
0.617998

> <r_epik_Ionization_Penalty_Charging>
0

> <r_epik_Ionization_Penalty_Neutral>
0.617998

> <r_epik_State_Penalty>
0.632637

> <r_epik_Charging_Adjusted_Penalty>
0.632637

> <i_epik_Tot_Q>
0

> <i_epik_Tot_abs_Q>
0

> <r_epik_Metal_State_Penalty>
0.305596

> <b_epik_Metal_Only>
0

> <s_lp_Force_Field>
OPLS_2005

> <r_lp_Energy>
20.6708

> <b_lp_Chiralities_Consistent>
1

> <s_lp_Variant>
AV-unprocessed.smi:876-6

> <Gold.Version>
5.8.1

> <Gold.Id.Protein>
6NUR|6NUR_protein|mol2

> <Gold.PLP.Fitness>
44.3651

> <Gold.PLP.PLP>
-34.0798

> <Gold.PLP.part.hbond>
-3.2148

> <Gold.PLP.part.metal>
0.0000

> <Gold.PLP.part.buried>
-3.3763

> <Gold.PLP.part.nonpolar>
-28.1191

> <Gold.PLP.part.repulsive>
0.3501

> <Gold.PLP.ligand.clash>
0.0000

> <Gold.PLP.ligand.torsion>
0.0818

> <Gold.PLP.Chemscore.Hbond>
2.1048

> <Gold.PLP.Chemscore.CHOScore>
1.3734

> <Gold.PLP.Chemscore.Metal>
0.0000

> <Gold.Chemscore.Hbonds>
donor molecule, donor type, donor heavy atom, donor atom, acceptor molecule, acceptor atom, score
      L1  H     8    31       P1 10175  1.00
      L1  H    11    32       P1 10171  0.10
      L1  H    17    37       P1 10747  1.00
      L1  C    19    40       P1 10160  0.53
      L1  C    19    40       P1 10175  0.78

> <Gold.PLP.Chemscore.Internal.Correction>
0.0144

> <Gold.Rescore>
     Score         DG    S(hbond)    S(metal)    S(lipo)     H(rot)  DE(clash)    DE(int)     intcor
     15.74     -18.53       2.83        0.00      70.14       1.80       0.30       2.49       ----

> <Gold.Chemscore.Fitness>
15.7375

> <Gold.Chemscore.DG>
-18.5292

> <Gold.Chemscore.ZeroCoef>
-5.4800

> <Gold.Chemscore.Hbond>
2.8282

> <Gold.Chemscore.Metal>
0.0000

> <Gold.Chemscore.Lipo>
70.1352

> <Gold.Chemscore.Internal_Hbond>
0.0000

> <Gold.Chemscore.DEClash>
0.2996

> <Gold.Chemscore.DEInternal>
2.4920

> <Gold.Chemscore.Rot>
1.7980

> <Gold.Chemscore.Internal.Correction>
   9.000000E+99

> <Gold.Chemscore.Hbonds>
donor molecule, donor type, donor heavy atom, donor atom, acceptor molecule, acceptor atom, score
      L1  H     8    31       P1 10175  0.97
      L1  H    11    32       P1 10171  0.11
      L1  H    17    37       P1 10747  0.99

> <Gold.Chemscore.Hbond.Weighted>
-9.4462

> <Gold.Chemscore.Metal.Weighted>
-0.0000

> <Gold.Chemscore.Lipo.Weighted>
-8.2058

> <Gold.Chemscore.Internal_Hbond.Weighted>
0.0000

> <Gold.Chemscore.DEClash.Weighted>
0.2996

> <Gold.Chemscore.DEInternal.Weighted>
2.4920

> <Gold.Chemscore.Rot.Weighted>
4.6029

> <Gold.Chemscore.Internal.Correction.Weighted>
   9.000000E+99

> <Gold.Protein.RotatedTorsions>
[ 6907 6896 6895 6894 ] final  141.95 input  -60.11 | X-H torsion
[ 7974 7965 7964 7962 ] final  139.75 input  175.53 | X-H torsion
[ 8008 7997 7996 7995 ] final   53.48 input   59.86 | X-H torsion
[ 10167 10162 10161 10158 ] final  167.64 input  -65.29 | X-H torsion
[ 10718 10713 10712 10709 ] final   65.62 input   66.30 | X-H torsion
[ 10763 10752 10751 10750 ] final -110.71 input  -60.55 | X-H torsion
[ 11005 11000 10999 10996 ] final   10.28 input  -57.11 | X-H torsion

> <Gold.Protein.ActiveResidues>
 VAL166  LYS551  ARG553  GLY616  TRP617  ASP618  TYR619  PRO620  LYS621  CYS622 
 ASP623  PHE694  ASN695  SER759  ASP760  ASP761  ALA762  ILE779  LEU786  VAL792 
 PHE793  MET794  SER795  GLU796  ALA797  LYS798  CYS799  TRP800  GLU811  SER814 

> <Gold.Protein.RotatedAtoms>
  152.2247  133.5011  159.5182 H   0  0  0  0  0  0  0  0  0  0  0  0  # atno 6907 bound_to 6896
  150.7022  134.1295  159.4073 H   0  0  0  0  0  0  0  0  0  0  0  0  # atno 6908 bound_to 6896
  151.9216  135.0295  160.0573 H   0  0  0  0  0  0  0  0  0  0  0  0  # atno 6909 bound_to 6896
  144.9250  139.5119  143.5645 H   0  0  0  0  0  0  0  0  0  0  0  0  # atno 7974 bound_to 7965
  155.4689  140.3464  155.4323 H   0  0  0  0  0  0  0  0  0  0  0  0  # atno 8008 bound_to 7997
  156.1113  140.1461  156.9364 H   0  0  0  0  0  0  0  0  0  0  0  0  # atno 8009 bound_to 7997
  154.4758  140.0885  156.7237 H   0  0  0  0  0  0  0  0  0  0  0  0  # atno 8010 bound_to 7997
  139.4950  144.3899  151.9528 H   0  0  0  0  0  0  0  0  0  0  0  0  # atno 10167 bound_to 10162
  157.6117  130.9223  150.0000 H   0  0  0  0  0  0  0  0  0  0  0  0  # atno 10718 bound_to 10713
  154.8262  135.4554  154.0927 H   0  0  0  0  0  0  0  0  0  0  0  0  # atno 10763 bound_to 10752
  153.2239  135.6897  153.7974 H   0  0  0  0  0  0  0  0  0  0  0  0  # atno 10764 bound_to 10752
  153.7382  135.3316  155.3275 H   0  0  0  0  0  0  0  0  0  0  0  0  # atno 10765 bound_to 10752
  140.5163  134.0603  155.7832 H   0  0  0  0  0  0  0  0  0  0  0  0  # atno 11005 bound_to 11000
  146.3222  139.8158  142.8936 LP  0  0  0  0  0  0  0  0  0  0  0  0  # atno 17320 bound_to 7965
  145.3234  141.0249  143.3487 LP  0  0  0  0  0  0  0  0  0  0  0  0  # atno 17321 bound_to 7965
  140.3337  144.3286  150.5982 LP  0  0  0  0  0  0  0  0  0  0  0  0  # atno 17342 bound_to 10162
  140.5624  143.2190  151.7742 LP  0  0  0  0  0  0  0  0  0  0  0  0  # atno 17343 bound_to 10162
  156.1222  130.3645  149.9868 LP  0  0  0  0  0  0  0  0  0  0  0  0  # atno 17370 bound_to 10713
  156.7946  130.9268  151.3646 LP  0  0  0  0  0  0  0  0  0  0  0  0  # atno 17371 bound_to 10713
  141.1358  133.9223  157.2436 LP  0  0  0  0  0  0  0  0  0  0  0  0  # atno 17394 bound_to 11000
  139.9631  135.0149  156.9314 LP  0  0  0  0  0  0  0  0  0  0  0  0  # atno 17395 bound_to 11000

$$$$
