AV-unprocessed.smi:509|AV-procd|sdf|2760|dock2
  -GOLD-   2262023223D 1   1.00000     0.00000
 Structure written by MMmdl.
 46 48  0  0  0  0  0  0  0  0  2 V2000
  154.0989  137.0649  158.9392 C   0  0  0  0  0  0  0  0  0  0  0  0
  152.7036  136.8461  158.8345 O   0  0  0  0  0  0  0  0  0  0  0  0
  151.9645  138.0562  158.8006 C   0  0  0  0  0  0  0  0  0  0  0  0
  152.4486  138.9193  157.6277 C   0  0  0  0  0  0  0  0  0  0  0  0
  151.8934  140.2712  157.6800 N   0  0  0  0  0  0  0  0  0  0  0  0
  151.1645  140.9389  156.7420 C   0  0  0  0  0  0  0  0  0  0  0  0
  150.7949  140.3680  155.5221 N   0  0  0  0  0  0  0  0  0  0  0  0
  149.6252  140.7151  154.7157 C   0  0  0  0  0  0  0  0  0  0  0  0
  148.8552  139.4589  154.2684 C   0  0  0  0  0  0  0  0  0  0  0  0
  149.7484  138.5457  153.5258 N   0  3  0  0  0  0  0  0  0  0  0  0
  150.9872  138.2338  154.2683 C   0  0  0  0  0  0  0  0  0  0  0  0
  151.6877  139.5257  154.7281 C   0  0  0  0  0  0  0  0  0  0  0  0
  150.8770  142.2027  157.0628 N   0  0  0  0  0  0  0  0  0  0  0  0
  151.4460  142.3482  158.3179 C   0  0  0  0  0  0  0  0  0  0  0  0
  152.0668  141.2091  158.7026 C   0  0  0  0  0  0  0  0  0  0  0  0
  152.7963  141.0972  159.9726 C   0  0  0  0  0  0  0  0  0  0  0  0
  153.3852  140.0625  160.2887 O   0  0  0  0  0  0  0  0  0  0  0  0
  152.7650  142.2318  160.7392 N   0  0  0  0  0  0  0  0  0  0  0  0
  153.4788  142.1662  162.0287 C   0  0  0  0  0  0  0  0  0  0  0  0
  152.1530  143.4204  160.3788 C   0  0  0  0  0  0  0  0  0  0  0  0
  152.2031  144.4176  161.1038 O   0  0  0  0  0  0  0  0  0  0  0  0
  151.4866  143.4735  159.1805 N   0  0  0  0  0  0  0  0  0  0  0  0
  150.8197  144.7117  158.7674 C   0  0  0  0  0  0  0  0  0  0  0  0
  154.6183  136.1071  158.9683 H   0  0  0  0  0  0  0  0  0  0  0  0
  154.3456  137.6100  159.8511 H   0  0  0  0  0  0  0  0  0  0  0  0
  154.4748  137.6257  158.0824 H   0  0  0  0  0  0  0  0  0  0  0  0
  150.9018  137.8394  158.6850 H   0  0  0  0  0  0  0  0  0  0  0  0
  152.0867  138.5967  159.7405 H   0  0  0  0  0  0  0  0  0  0  0  0
  153.5326  138.9492  157.6265 H   0  0  0  0  0  0  0  0  0  0  0  0
  152.1828  138.4585  156.6775 H   0  0  0  0  0  0  0  0  0  0  0  0
  148.9740  141.4014  155.2554 H   0  0  0  0  0  0  0  0  0  0  0  0
  149.9629  141.2682  153.8381 H   0  0  0  0  0  0  0  0  0  0  0  0
  148.4480  138.9323  155.1324 H   0  0  0  0  0  0  0  0  0  0  0  0
  148.0126  139.7325  153.6333 H   0  0  0  0  0  0  0  0  0  0  0  0
  149.2562  137.6890  153.3167 H   0  0  0  0  0  0  0  0  0  0  0  0
  150.7377  137.6142  155.1302 H   0  0  0  0  0  0  0  0  0  0  0  0
  151.6494  137.6448  153.6336 H   0  0  0  0  0  0  0  0  0  0  0  0
  152.0437  140.0922  153.8664 H   0  0  0  0  0  0  0  0  0  0  0  0
  152.5698  139.2691  155.3163 H   0  0  0  0  0  0  0  0  0  0  0  0
  153.2017  142.9484  162.7363 H   0  0  0  0  0  0  0  0  0  0  0  0
  154.5543  142.2419  161.8630 H   0  0  0  0  0  0  0  0  0  0  0  0
  153.2857  141.2259  162.5484 H   0  0  0  0  0  0  0  0  0  0  0  0
  150.1243  145.0525  159.5359 H   0  0  0  0  0  0  0  0  0  0  0  0
  150.2461  144.5955  157.8479 H   0  0  0  0  0  0  0  0  0  0  0  0
  151.5541  145.5002  158.5984 H   0  0  0  0  0  0  0  0  0  0  0  0
  150.0076  138.9950  152.6592 H   0  0  0  0  0  0  0  0  0  0  0  0
  1  2  1  0  0  0  0
  1 24  1  0  0  0  0
  1 25  1  0  0  0  0
  1 26  1  0  0  0  0
  2  3  1  0  0  0  0
  3  4  1  0  0  0  0
  3 27  1  0  0  0  0
  3 28  1  0  0  0  0
  4  5  1  0  0  0  0
  4 29  1  0  0  0  0
  4 30  1  0  0  0  0
  5 15  1  0  0  0  0
  5  6  1  0  0  0  0
  6  7  1  0  0  0  0
  6 13  2  0  0  0  0
  7 12  1  0  0  0  0
  7  8  1  0  0  0  0
  8  9  1  0  0  0  0
  8 31  1  0  0  0  0
  8 32  1  0  0  0  0
  9 10  1  0  0  0  0
  9 33  1  0  0  0  0
  9 34  1  0  0  0  0
 10 11  1  0  0  0  0
 10 35  1  0  0  0  0
 10 46  1  0  0  0  0
 11 12  1  0  0  0  0
 11 36  1  0  0  0  0
 11 37  1  0  0  0  0
 12 38  1  0  0  0  0
 12 39  1  0  0  0  0
 13 14  1  0  0  0  0
 14 22  1  0  0  0  0
 14 15  2  0  0  0  0
 15 16  1  0  0  0  0
 16 17  2  0  0  0  0
 16 18  1  0  0  0  0
 18 19  1  0  0  0  0
 18 20  1  0  0  0  0
 19 40  1  0  0  0  0
 19 41  1  0  0  0  0
 19 42  1  0  0  0  0
 20 21  2  0  0  0  0
 20 22  1  0  0  0  0
 22 23  1  0  0  0  0
 23 43  1  0  0  0  0
 23 44  1  0  0  0  0
 23 45  1  0  0  0  0
M  CHG  1  10   1
M  END
> <s_m_source_file>
AV-unprocessed.smi

> <i_m_source_file_index>
509

> <i_lp_mmshare_version>
43012

> <i_f3d_flags>
0

> <s_epik_input>
W0NIM11uMWMoPU8pbihbQ0gzXSljKD1PKWMoYzEyKW4oW0NIMl1bQ0gyXU9bQ0gzXSljKG4yKU4zW0NIMl1bQ0gyXVtOSF1bQ0gyXVtDSDJdMw==

> <s_epik_cmdline>
J2VwaWtfcHl0aG9uJywgJy1waCcsICc3LjAnLCAnLXRuJywgJzgnLCAnLW1hJywgJzIwMCcsICctbWV0YWxfYmluZGluZycsICctaW1hZScsICc8aW5maWxlLm1hZT4nLCAnLW9tYWUnLCAnPG91dGZpbGUubWFlPic=

> <r_epik_Ionization_Penalty>
0.00857468

> <r_epik_Ionization_Penalty_Charging>
0.00857162

> <r_epik_Ionization_Penalty_Neutral>
3.06002e-06

> <r_epik_State_Penalty>
0.00646614

> <r_epik_Charging_Adjusted_Penalty>
0.0150378

> <i_epik_Tot_Q>
1

> <i_epik_Tot_abs_Q>
1

> <r_epik_Metal_State_Penalty>
0.00646904

> <b_epik_Metal_Only>
0

> <s_lp_Force_Field>
OPLS_2005

> <r_lp_Energy>
52.9694

> <b_lp_Chiralities_Consistent>
1

> <s_lp_Variant>
AV-unprocessed.smi:509-1

> <Gold.Version>
5.8.1

> <Gold.Id.Protein>
6NUR|6NUR_protein|mol2

> <Gold.PLP.Fitness>
55.0557

> <Gold.PLP.PLP>
-47.4751

> <Gold.PLP.part.hbond>
-2.6776

> <Gold.PLP.part.metal>
0.0000

> <Gold.PLP.part.buried>
-2.3294

> <Gold.PLP.part.nonpolar>
-41.3643

> <Gold.PLP.part.repulsive>
0.3143

> <Gold.PLP.ligand.clash>
0.0000

> <Gold.PLP.ligand.torsion>
0.5412

> <Gold.PLP.Chemscore.Hbond>
2.7600

> <Gold.PLP.Chemscore.CHOScore>
0.0000

> <Gold.PLP.Chemscore.Metal>
0.0000

> <Gold.Chemscore.Hbonds>
donor molecule, donor type, donor heavy atom, donor atom, acceptor molecule, acceptor atom, score
      L1  H    10    35       P1  7948  1.60
      L1  H    10    46       P1  7957  1.00

> <Gold.PLP.Chemscore.Internal.Correction>
0.3830

> <Gold.Rescore>
     Score         DG    S(hbond)    S(metal)    S(lipo)     H(rot)  DE(clash)    DE(int)     intcor
     13.61     -16.01       1.79        0.00      71.95       1.51       1.61       0.79       ----

> <Gold.Chemscore.Fitness>
13.6064

> <Gold.Chemscore.DG>
-16.0079

> <Gold.Chemscore.ZeroCoef>
-5.4800

> <Gold.Chemscore.Hbond>
1.7880

> <Gold.Chemscore.Metal>
0.0000

> <Gold.Chemscore.Lipo>
71.9476

> <Gold.Chemscore.Internal_Hbond>
0.0000

> <Gold.Chemscore.DEClash>
1.6078

> <Gold.Chemscore.DEInternal>
0.7937

> <Gold.Chemscore.Rot>
1.5086

> <Gold.Chemscore.Internal.Correction>
   9.000000E+99

> <Gold.Chemscore.Hbonds>
donor molecule, donor type, donor heavy atom, donor atom, acceptor molecule, acceptor atom, score
      L1  H    10    35       P1  7948  0.75
      L1  H    10    46       P1  7957  0.68
      P1  H  6896  6908       L1     2  0.01

> <Gold.Chemscore.Hbond.Weighted>
-5.9721

> <Gold.Chemscore.Metal.Weighted>
-0.0000

> <Gold.Chemscore.Lipo.Weighted>
-8.4179

> <Gold.Chemscore.Internal_Hbond.Weighted>
0.0000

> <Gold.Chemscore.DEClash.Weighted>
1.6078

> <Gold.Chemscore.DEInternal.Weighted>
0.7937

> <Gold.Chemscore.Rot.Weighted>
3.8620

> <Gold.Chemscore.Internal.Correction.Weighted>
   9.000000E+99

> <Gold.Protein.RotatedTorsions>
[ 6907 6896 6895 6894 ] final  -59.02 input  -60.11 | X-H torsion
[ 7974 7965 7964 7962 ] final  -39.81 input  175.53 | X-H torsion
[ 8008 7997 7996 7995 ] final  -14.53 input   59.86 | X-H torsion
[ 10167 10162 10161 10158 ] final   93.05 input  -65.29 | X-H torsion
[ 10718 10713 10712 10709 ] final    4.19 input   66.30 | X-H torsion
[ 10763 10752 10751 10750 ] final  171.68 input  -60.55 | X-H torsion
[ 11005 11000 10999 10996 ] final  149.68 input  -57.11 | X-H torsion

> <Gold.Protein.ActiveResidues>
 VAL166  LYS551  ARG553  GLY616  TRP617  ASP618  TYR619  PRO620  LYS621  CYS622 
 ASP623  PHE694  ASN695  SER759  ASP760  ASP761  ALA762  ILE779  LEU786  VAL792 
 PHE793  MET794  SER795  GLU796  ALA797  LYS798  CYS799  TRP800  GLU811  SER814 

> <Gold.Protein.RotatedAtoms>
  150.7962  134.7023  159.6556 H   0  0  0  0  0  0  0  0  0  0  0  0  # atno 6907 bound_to 6896
  152.4074  134.6180  160.0053 H   0  0  0  0  0  0  0  0  0  0  0  0  # atno 6908 bound_to 6896
  151.6433  133.3288  159.3171 H   0  0  0  0  0  0  0  0  0  0  0  0  # atno 6909 bound_to 6896
  146.0362  140.6668  142.9109 H   0  0  0  0  0  0  0  0  0  0  0  0  # atno 7974 bound_to 7965
  154.5202  140.2220  155.8989 H   0  0  0  0  0  0  0  0  0  0  0  0  # atno 8008 bound_to 7997
  156.1654  140.3133  155.8844 H   0  0  0  0  0  0  0  0  0  0  0  0  # atno 8009 bound_to 7997
  155.3668  140.0464  157.3036 H   0  0  0  0  0  0  0  0  0  0  0  0  # atno 8010 bound_to 7997
  139.8218  144.6728  150.9510 H   0  0  0  0  0  0  0  0  0  0  0  0  # atno 10167 bound_to 10162
  156.8889  130.5680  149.5650 H   0  0  0  0  0  0  0  0  0  0  0  0  # atno 10718 bound_to 10713
  154.4154  135.2757  155.2010 H   0  0  0  0  0  0  0  0  0  0  0  0  # atno 10763 bound_to 10752
  154.3978  135.6051  153.5883 H   0  0  0  0  0  0  0  0  0  0  0  0  # atno 10764 bound_to 10752
  152.9832  135.5919  154.4441 H   0  0  0  0  0  0  0  0  0  0  0  0  # atno 10765 bound_to 10752
  140.1066  134.8950  157.1874 H   0  0  0  0  0  0  0  0  0  0  0  0  # atno 11005 bound_to 11000
  144.7053  140.3825  143.7123 LP  0  0  0  0  0  0  0  0  0  0  0  0  # atno 17320 bound_to 7965
  145.6960  139.1650  143.2620 LP  0  0  0  0  0  0  0  0  0  0  0  0  # atno 17321 bound_to 7965
  140.7813  143.4085  151.1032 LP  0  0  0  0  0  0  0  0  0  0  0  0  # atno 17342 bound_to 10162
  139.7744  143.8446  152.3126 LP  0  0  0  0  0  0  0  0  0  0  0  0  # atno 17343 bound_to 10162
  156.0639  130.5686  150.9249 LP  0  0  0  0  0  0  0  0  0  0  0  0  # atno 17370 bound_to 10713
  157.6096  131.0937  150.8819 LP  0  0  0  0  0  0  0  0  0  0  0  0  # atno 17371 bound_to 10713
  140.3148  134.2983  155.7259 LP  0  0  0  0  0  0  0  0  0  0  0  0  # atno 17394 bound_to 11000
  141.2119  133.7673  156.9828 LP  0  0  0  0  0  0  0  0  0  0  0  0  # atno 17395 bound_to 11000

$$$$
