AV-unprocessed.smi:332|AV-procd|sdf|2353|dock2
  -GOLD-   2262022263D 1   1.00000     0.00000
 Structure written by MMmdl.
 42 44  0  0  0  0  0  0  0  0  1 V2000
  150.8675  140.6015  158.0086 C   0  0  0  0  0  0  0  0  0  0  0  0
  150.9958  141.9186  157.2259 C   0  0  1  0  0  0  0  0  0  0  0  0
  149.9027  141.9885  156.2572 N   0  0  0  0  0  0  0  0  0  0  0  0
  149.7892  141.2473  155.1443 C   0  0  0  0  0  0  0  0  0  0  0  0
  150.5849  140.3606  154.8327 O   0  0  0  0  0  0  0  0  0  0  0  0
  148.5796  141.5526  154.2516 C   0  0  0  0  0  0  0  0  0  0  0  0
  147.5394  140.5142  154.3360 N   0  0  0  0  0  0  0  0  0  0  0  0
  147.3143  139.7316  153.1860 C   0  0  0  0  0  0  0  0  0  0  0  0
  146.3844  138.7638  153.1567 C   0  0  0  0  0  0  0  0  0  0  0  0
  145.6014  138.5327  154.3476 C   0  0  0  0  0  0  0  0  0  0  0  0
  145.8074  139.2765  155.4526 C   0  0  0  0  0  0  0  0  0  0  0  0
  146.8229  140.3354  155.4893 C   0  0  0  0  0  0  0  0  0  0  0  0
  147.0174  141.0198  156.4946 O   0  0  0  0  0  0  0  0  0  0  0  0
  150.9607  143.1701  158.1385 C   0  0  2  0  0  0  0  0  0  0  0  0
  151.5262  144.4506  157.4714 C   0  0  0  0  0  0  0  0  0  0  0  0
  152.5820  144.9400  158.4770 C   0  0  1  0  0  0  0  0  0  0  0  0
  151.8860  145.4517  159.7510 C   0  0  0  0  0  0  0  0  0  0  0  0
  151.3965  144.1507  160.4141 C   0  0  0  0  0  0  0  0  0  0  0  0
  151.8404  143.0690  159.4105 C   0  0  2  0  0  0  0  0  0  0  0  0
  153.1842  143.6232  158.9466 C   0  0  0  0  0  0  0  0  0  0  0  0
  151.7024  140.4530  158.6920 H   0  0  0  0  0  0  0  0  0  0  0  0
  150.8539  139.7463  157.3318 H   0  0  0  0  0  0  0  0  0  0  0  0
  149.9482  140.5752  158.5947 H   0  0  0  0  0  0  0  0  0  0  0  0
  151.9533  141.9038  156.7032 H   0  0  0  0  0  0  0  0  0  0  0  0
  149.1923  142.6850  156.4300 H   0  0  0  0  0  0  0  0  0  0  0  0
  148.1826  142.5259  154.5429 H   0  0  0  0  0  0  0  0  0  0  0  0
  148.9001  141.6724  153.2147 H   0  0  0  0  0  0  0  0  0  0  0  0
  147.9354  139.9722  152.3353 H   0  0  0  0  0  0  0  0  0  0  0  0
  146.2231  138.1766  152.2646 H   0  0  0  0  0  0  0  0  0  0  0  0
  144.8457  137.7609  154.3519 H   0  0  0  0  0  0  0  0  0  0  0  0
  145.2110  139.0910  156.3339 H   0  0  0  0  0  0  0  0  0  0  0  0
  149.9228  143.3435  158.4277 H   0  0  0  0  0  0  0  0  0  0  0  0
  152.0081  144.2298  156.5180 H   0  0  0  0  0  0  0  0  0  0  0  0
  150.7532  145.1963  157.2824 H   0  0  0  0  0  0  0  0  0  0  0  0
  153.2946  145.6476  158.0521 H   0  0  0  0  0  0  0  0  0  0  0  0
  152.5920  145.9711  160.4002 H   0  0  0  0  0  0  0  0  0  0  0  0
  151.0687  146.1379  159.5263 H   0  0  0  0  0  0  0  0  0  0  0  0
  151.8864  144.0064  161.3779 H   0  0  0  0  0  0  0  0  0  0  0  0
  150.3194  144.1475  160.5854 H   0  0  0  0  0  0  0  0  0  0  0  0
  151.8885  142.0760  159.8554 H   0  0  0  0  0  0  0  0  0  0  0  0
  153.6426  143.0455  158.1424 H   0  0  0  0  0  0  0  0  0  0  0  0
  153.9063  143.7424  159.7564 H   0  0  0  0  0  0  0  0  0  0  0  0
  1  2  1  0  0  0  0
  1 21  1  0  0  0  0
  1 22  1  0  0  0  0
  1 23  1  0  0  0  0
  2  3  1  0  0  0  0
  2 14  1  0  0  0  0
  2 24  1  0  0  0  0
  3  4  1  0  0  0  0
  3 25  1  0  0  0  0
  4  5  2  0  0  0  0
  4  6  1  0  0  0  0
  6  7  1  0  0  0  0
  6 26  1  0  0  0  0
  6 27  1  0  0  0  0
  7 12  1  0  0  0  0
  7  8  1  0  0  0  0
  8  9  2  0  0  0  0
  8 28  1  0  0  0  0
  9 10  1  0  0  0  0
  9 29  1  0  0  0  0
 10 11  2  0  0  0  0
 10 30  1  0  0  0  0
 11 12  1  0  0  0  0
 11 31  1  0  0  0  0
 12 13  2  0  0  0  0
 14 19  1  0  0  0  0
 14 15  1  0  0  0  0
 14 32  1  0  0  0  0
 15 16  1  0  0  0  0
 15 33  1  0  0  0  0
 15 34  1  0  0  0  0
 16 20  1  0  0  0  0
 16 17  1  0  0  0  0
 16 35  1  0  0  0  0
 17 18  1  0  0  0  0
 17 36  1  0  0  0  0
 17 37  1  0  0  0  0
 18 19  1  0  0  0  0
 18 38  1  0  0  0  0
 18 39  1  0  0  0  0
 19 20  1  0  0  0  0
 19 40  1  0  0  0  0
 20 41  1  0  0  0  0
 20 42  1  0  0  0  0
M  END
> <s_m_source_file>
AV-unprocessed.smi

> <i_m_source_file_index>
332

> <i_lp_mmshare_version>
43012

> <i_f3d_flags>
0

> <s_epik_input>
W0NIMl0xW0NIMl1bQ0BIXShbQ0gyXTIpW0NAQEhdKFtDSDJdW0NAQEhdMTIpW0NASF0oW0NIM10pW05IXUMoPU8pW0NIMl1uM1tjSF1bY0hdW2NIXVtjSF1jMz1P

> <s_epik_cmdline>
J2VwaWtfcHl0aG9uJywgJy1waCcsICc3LjAnLCAnLXRuJywgJzgnLCAnLW1hJywgJzIwMCcsICctbWV0YWxfYmluZGluZycsICctaW1hZScsICc8aW5maWxlLm1hZT4nLCAnLW9tYWUnLCAnPG91dGZpbGUubWFlPic=

> <r_lp_tautomer_probability>
1

> <r_epik_Ionization_Penalty>
4.05802e-07

> <r_epik_Ionization_Penalty_Charging>
3.84175e-07

> <r_epik_Ionization_Penalty_Neutral>
2.16269e-08

> <r_epik_State_Penalty>
-0

> <r_epik_Charging_Adjusted_Penalty>
3.84175e-07

> <i_epik_Tot_Q>
0

> <i_epik_Tot_abs_Q>
0

> <r_epik_Metal_State_Penalty>
-0

> <b_epik_Metal_Only>
0

> <s_lp_Force_Field>
OPLS_2005

> <r_lp_Energy>
60.1573

> <b_lp_Chiralities_Consistent>
1

> <s_lp_Variant>
AV-unprocessed.smi:332-2

> <Gold.Version>
5.8.1

> <Gold.Id.Protein>
6NUR|6NUR_protein|mol2

> <Gold.PLP.Fitness>
48.3813

> <Gold.PLP.PLP>
-42.2455

> <Gold.PLP.part.hbond>
-2.0000

> <Gold.PLP.part.metal>
0.0000

> <Gold.PLP.part.buried>
-3.0711

> <Gold.PLP.part.nonpolar>
-37.2450

> <Gold.PLP.part.repulsive>
0.1926

> <Gold.PLP.ligand.clash>
0.0000

> <Gold.PLP.ligand.torsion>
0.6231

> <Gold.PLP.Chemscore.Hbond>
1.4446

> <Gold.PLP.Chemscore.CHOScore>
1.0000

> <Gold.PLP.Chemscore.Metal>
0.0000

> <Gold.Chemscore.Hbonds>
donor molecule, donor type, donor heavy atom, donor atom, acceptor molecule, acceptor atom, score
      L1  H     3    25       P1  8028  0.38
      P1  H  7989  7998       L1     5  1.00
      L1  C     8    28       P1  7957  0.99

> <Gold.PLP.Chemscore.Internal.Correction>
0.0482

> <Gold.Rescore>
     Score         DG    S(hbond)    S(metal)    S(lipo)     H(rot)  DE(clash)    DE(int)     intcor
     19.49     -20.20       1.27        0.00     123.24       1.54       0.13       0.58       ----

> <Gold.Chemscore.Fitness>
19.4927

> <Gold.Chemscore.DG>
-20.2037

> <Gold.Chemscore.ZeroCoef>
-5.4800

> <Gold.Chemscore.Hbond>
1.2714

> <Gold.Chemscore.Metal>
0.0000

> <Gold.Chemscore.Lipo>
123.2409

> <Gold.Chemscore.Internal_Hbond>
0.0000

> <Gold.Chemscore.DEClash>
0.1316

> <Gold.Chemscore.DEInternal>
0.5794

> <Gold.Chemscore.Rot>
1.5398

> <Gold.Chemscore.Internal.Correction>
   9.000000E+99

> <Gold.Chemscore.Hbonds>
donor molecule, donor type, donor heavy atom, donor atom, acceptor molecule, acceptor atom, score
      L1  H     3    25       P1  8028  0.38
      P1  H  7989  7998       L1     5  0.77

> <Gold.Chemscore.Hbond.Weighted>
-4.2464

> <Gold.Chemscore.Metal.Weighted>
-0.0000

> <Gold.Chemscore.Lipo.Weighted>
-14.4192

> <Gold.Chemscore.Internal_Hbond.Weighted>
0.0000

> <Gold.Chemscore.DEClash.Weighted>
0.1316

> <Gold.Chemscore.DEInternal.Weighted>
0.5794

> <Gold.Chemscore.Rot.Weighted>
3.9419

> <Gold.Chemscore.Internal.Correction.Weighted>
   9.000000E+99

> <Gold.Protein.RotatedTorsions>
[ 6907 6896 6895 6894 ] final  -52.63 input  -60.11 | X-H torsion
[ 7974 7965 7964 7962 ] final   84.29 input  175.53 | X-H torsion
[ 8008 7997 7996 7995 ] final  146.29 input   59.86 | X-H torsion
[ 10167 10162 10161 10158 ] final   23.10 input  -65.29 | X-H torsion
[ 10718 10713 10712 10709 ] final  -80.81 input   66.30 | X-H torsion
[ 10763 10752 10751 10750 ] final   -3.51 input  -60.55 | X-H torsion
[ 11005 11000 10999 10996 ] final  125.43 input  -57.11 | X-H torsion

> <Gold.Protein.ActiveResidues>
 VAL166  LYS551  ARG553  GLY616  TRP617  ASP618  TYR619  PRO620  LYS621  CYS622 
 ASP623  PHE694  ASN695  SER759  ASP760  ASP761  ALA762  ILE779  LEU786  VAL792 
 PHE793  MET794  SER795  GLU796  ALA797  LYS798  CYS799  TRP800  GLU811  SER814 

> <Gold.Protein.RotatedAtoms>
  150.8500  134.7822  159.7001 H   0  0  0  0  0  0  0  0  0  0  0  0  # atno 6907 bound_to 6896
  152.4567  134.5271  159.9810 H   0  0  0  0  0  0  0  0  0  0  0  0  # atno 6908 bound_to 6896
  151.5394  133.3397  159.2968 H   0  0  0  0  0  0  0  0  0  0  0  0  # atno 6909 bound_to 6896
  145.6006  139.2352  143.2248 H   0  0  0  0  0  0  0  0  0  0  0  0  # atno 7974 bound_to 7965
  156.2859  140.2186  156.5353 H   0  0  0  0  0  0  0  0  0  0  0  0  # atno 8008 bound_to 7997
  154.7414  140.0487  157.0837 H   0  0  0  0  0  0  0  0  0  0  0  0  # atno 8009 bound_to 7997
  155.0225  140.3126  155.4791 H   0  0  0  0  0  0  0  0  0  0  0  0  # atno 8010 bound_to 7997
  140.5296  143.9865  150.6458 H   0  0  0  0  0  0  0  0  0  0  0  0  # atno 10167 bound_to 10162
  156.0062  130.4585  150.3856 H   0  0  0  0  0  0  0  0  0  0  0  0  # atno 10718 bound_to 10713
  153.3723  135.6995  153.6628 H   0  0  0  0  0  0  0  0  0  0  0  0  # atno 10763 bound_to 10752
  153.5274  135.3599  155.2660 H   0  0  0  0  0  0  0  0  0  0  0  0  # atno 10764 bound_to 10752
  154.8683  135.4172  154.3003 H   0  0  0  0  0  0  0  0  0  0  0  0  # atno 10765 bound_to 10752
  139.9406  134.9636  156.8557 H   0  0  0  0  0  0  0  0  0  0  0  0  # atno 11005 bound_to 11000
  146.1579  140.6831  142.9291 LP  0  0  0  0  0  0  0  0  0  0  0  0  # atno 17320 bound_to 7965
  144.7311  140.4675  143.6937 LP  0  0  0  0  0  0  0  0  0  0  0  0  # atno 17321 bound_to 7965
  140.3236  143.3121  152.0759 LP  0  0  0  0  0  0  0  0  0  0  0  0  # atno 17342 bound_to 10162
  139.4949  144.6557  151.6578 LP  0  0  0  0  0  0  0  0  0  0  0  0  # atno 17343 bound_to 10162
  157.1934  131.0420  151.2688 LP  0  0  0  0  0  0  0  0  0  0  0  0  # atno 17370 bound_to 10713
  157.4041  130.7349  149.6789 LP  0  0  0  0  0  0  0  0  0  0  0  0  # atno 17371 bound_to 10713
  140.5961  134.0215  155.7519 LP  0  0  0  0  0  0  0  0  0  0  0  0  # atno 17394 bound_to 11000
  141.1039  133.9725  157.3031 LP  0  0  0  0  0  0  0  0  0  0  0  0  # atno 17395 bound_to 11000

$$$$
