AV-unprocessed.smi:567|AV-procd|sdf|2956|dock2
  -GOLD-   2262023463D 1   1.00000     0.00000
 Structure written by MMmdl.
 53 54  0  0  0  0  0  0  0  0  2 V2000
  151.9394  145.5559  159.0135 C   0  0  0  0  0  0  0  0  0  0  0  0
  152.3804  144.2346  158.7577 O   0  0  0  0  0  0  0  0  0  0  0  0
  152.1956  143.3731  159.8706 C   0  0  0  0  0  0  0  0  0  0  0  0
  152.9214  142.0427  159.6145 C   0  0  0  0  0  0  0  0  0  0  0  0
  152.2206  141.2260  158.6171 N   0  0  0  0  0  0  0  0  0  0  0  0
  151.0481  141.7972  158.1580 N   0  0  0  0  0  0  0  0  0  0  0  0
  150.3268  141.1875  157.2746 C   0  0  0  0  0  0  0  0  0  0  0  0
  149.0517  141.7718  156.7797 C   0  0  0  0  0  0  0  0  0  0  0  0
  148.2608  142.3496  157.5265 O   0  0  0  0  0  0  0  0  0  0  0  0
  148.8334  141.6041  155.4640 N   0  0  0  0  0  0  0  0  0  0  0  0
  147.6382  141.9893  154.7242 C   0  0  0  0  0  0  0  0  0  0  0  0
  146.3495  141.7876  155.5401 C   0  0  0  0  0  0  0  0  0  0  0  0
  145.8938  140.3130  155.6938 C   0  0  0  0  0  0  0  0  0  0  0  0
  146.6872  139.5573  156.7841 C   0  0  0  0  0  0  0  0  0  0  0  0
  144.4219  140.3188  156.1507 C   0  0  0  0  0  0  0  0  0  0  0  0
  145.9358  139.5947  154.3881 N   0  3  0  0  0  0  0  0  0  0  0  0
  147.1073  139.7606  153.4809 C   0  0  0  0  0  0  0  0  0  0  0  0
  148.2749  138.8291  153.8809 C   0  0  0  0  0  0  0  0  0  0  0  0
  146.6491  139.3088  152.0806 C   0  0  0  0  0  0  0  0  0  0  0  0
  147.5384  141.2475  153.3821 C   0  0  0  0  0  0  0  0  0  0  0  0
  150.7397  139.9053  156.7323 C   0  0  0  0  0  0  0  0  0  0  0  0
  151.8765  139.3483  157.2059 C   0  0  0  0  0  0  0  0  0  0  0  0
  152.6942  140.0032  158.2298 C   0  0  0  0  0  0  0  0  0  0  0  0
  153.7131  139.4988  158.7006 O   0  0  0  0  0  0  0  0  0  0  0  0
  152.1090  146.1750  158.1326 H   0  0  0  0  0  0  0  0  0  0  0  0
  152.4845  145.9998  159.8476 H   0  0  0  0  0  0  0  0  0  0  0  0
  150.8728  145.5774  159.2403 H   0  0  0  0  0  0  0  0  0  0  0  0
  152.6081  143.8458  160.7630 H   0  0  0  0  0  0  0  0  0  0  0  0
  151.1341  143.2005  160.0551 H   0  0  0  0  0  0  0  0  0  0  0  0
  153.9436  142.2366  159.2849 H   0  0  0  0  0  0  0  0  0  0  0  0
  153.0247  141.4983  160.5545 H   0  0  0  0  0  0  0  0  0  0  0  0
  149.5549  141.1326  154.9374 H   0  0  0  0  0  0  0  0  0  0  0  0
  147.7302  143.0528  154.4965 H   0  0  0  0  0  0  0  0  0  0  0  0
  146.4428  142.2598  156.5194 H   0  0  0  0  0  0  0  0  0  0  0  0
  145.5616  142.3431  155.0285 H   0  0  0  0  0  0  0  0  0  0  0  0
  146.5301  140.0127  157.7626 H   0  0  0  0  0  0  0  0  0  0  0  0
  147.7602  139.5508  156.6260 H   0  0  0  0  0  0  0  0  0  0  0  0
  146.3659  138.5178  156.8572 H   0  0  0  0  0  0  0  0  0  0  0  0
  144.3004  140.8484  157.0967 H   0  0  0  0  0  0  0  0  0  0  0  0
  144.0422  139.3060  156.2921 H   0  0  0  0  0  0  0  0  0  0  0  0
  143.7763  140.8075  155.4197 H   0  0  0  0  0  0  0  0  0  0  0  0
  145.7803  138.6097  154.5485 H   0  0  0  0  0  0  0  0  0  0  0  0
  149.0613  138.8468  153.1254 H   0  0  0  0  0  0  0  0  0  0  0  0
  147.9409  137.7950  153.9717 H   0  0  0  0  0  0  0  0  0  0  0  0
  148.7543  139.0944  154.8171 H   0  0  0  0  0  0  0  0  0  0  0  0
  147.4461  139.4215  151.3443 H   0  0  0  0  0  0  0  0  0  0  0  0
  145.7968  139.8919  151.7292 H   0  0  0  0  0  0  0  0  0  0  0  0
  146.3471  138.2605  152.0772 H   0  0  0  0  0  0  0  0  0  0  0  0
  146.8031  141.7833  152.7791 H   0  0  0  0  0  0  0  0  0  0  0  0
  148.4774  141.3351  152.8334 H   0  0  0  0  0  0  0  0  0  0  0  0
  150.1543  139.4019  155.9766 H   0  0  0  0  0  0  0  0  0  0  0  0
  152.1956  138.3926  156.8164 H   0  0  0  0  0  0  0  0  0  0  0  0
  145.1452  139.9466  153.8671 H   0  0  0  0  0  0  0  0  0  0  0  0
  1  2  1  0  0  0  0
  1 25  1  0  0  0  0
  1 26  1  0  0  0  0
  1 27  1  0  0  0  0
  2  3  1  0  0  0  0
  3  4  1  0  0  0  0
  3 28  1  0  0  0  0
  3 29  1  0  0  0  0
  4  5  1  0  0  0  0
  4 30  1  0  0  0  0
  4 31  1  0  0  0  0
  5 23  1  0  0  0  0
  5  6  1  0  0  0  0
  6  7  2  0  0  0  0
  7  8  1  0  0  0  0
  7 21  1  0  0  0  0
  8  9  2  0  0  0  0
  8 10  1  0  0  0  0
 10 11  1  0  0  0  0
 10 32  1  0  0  0  0
 11 20  1  0  0  0  0
 11 12  1  0  0  0  0
 11 33  1  0  0  0  0
 12 13  1  0  0  0  0
 12 34  1  0  0  0  0
 12 35  1  0  0  0  0
 13 14  1  0  0  0  0
 13 15  1  0  0  0  0
 13 16  1  0  0  0  0
 14 36  1  0  0  0  0
 14 37  1  0  0  0  0
 14 38  1  0  0  0  0
 15 39  1  0  0  0  0
 15 40  1  0  0  0  0
 15 41  1  0  0  0  0
 16 17  1  0  0  0  0
 16 42  1  0  0  0  0
 16 53  1  0  0  0  0
 17 18  1  0  0  0  0
 17 19  1  0  0  0  0
 17 20  1  0  0  0  0
 18 43  1  0  0  0  0
 18 44  1  0  0  0  0
 18 45  1  0  0  0  0
 19 46  1  0  0  0  0
 19 47  1  0  0  0  0
 19 48  1  0  0  0  0
 20 49  1  0  0  0  0
 20 50  1  0  0  0  0
 21 22  2  0  0  0  0
 21 51  1  0  0  0  0
 22 23  1  0  0  0  0
 22 52  1  0  0  0  0
 23 24  2  0  0  0  0
M  CHG  1  16   1
M  END
> <s_m_source_file>
AV-unprocessed.smi

> <i_m_source_file_index>
567

> <i_lp_mmshare_version>
43012

> <i_f3d_flags>
0

> <s_epik_input>
W0NIM11PW0NIMl1bQ0gyXW4xbmMoW2NIXVtjSF1jMT1PKUMoPU8pW05IXVtDSF0oW0NIMl1DMihbQ0gzXSlbQ0gzXSlbQ0gyXUMoW05IXTIpKFtDSDNdKVtDSDNd

> <s_epik_cmdline>
J2VwaWtfcHl0aG9uJywgJy1waCcsICc3LjAnLCAnLXRuJywgJzgnLCAnLW1hJywgJzIwMCcsICctbWV0YWxfYmluZGluZycsICctaW1hZScsICc8aW5maWxlLm1hZT4nLCAnLW9tYWUnLCAnPG91dGZpbGUubWFlPic=

> <r_lp_tautomer_probability>
1

> <r_epik_Ionization_Penalty>
0.000138804

> <r_epik_Ionization_Penalty_Charging>
0.000136152

> <r_epik_Ionization_Penalty_Neutral>
2.65225e-06

> <r_epik_State_Penalty>
-0

> <r_epik_Charging_Adjusted_Penalty>
0.000136152

> <i_epik_Tot_Q>
1

> <i_epik_Tot_abs_Q>
1

> <r_epik_Metal_State_Penalty>
-0

> <b_epik_Metal_Only>
0

> <s_lp_Force_Field>
OPLS_2005

> <r_lp_Energy>
46.3617

> <b_lp_Chiralities_Consistent>
1

> <s_lp_Variant>
AV-unprocessed.smi:567-1

> <Gold.Version>
5.8.1

> <Gold.Id.Protein>
6NUR|6NUR_protein|mol2

> <Gold.PLP.Fitness>
43.2564

> <Gold.PLP.PLP>
-36.1200

> <Gold.PLP.part.hbond>
-2.7355

> <Gold.PLP.part.metal>
0.0000

> <Gold.PLP.part.buried>
-1.3761

> <Gold.PLP.part.nonpolar>
-32.1247

> <Gold.PLP.part.repulsive>
0.3138

> <Gold.PLP.ligand.clash>
0.0000

> <Gold.PLP.ligand.torsion>
0.9734

> <Gold.PLP.Chemscore.Hbond>
3.0000

> <Gold.PLP.Chemscore.CHOScore>
0.0000

> <Gold.PLP.Chemscore.Metal>
0.0000

> <Gold.Chemscore.Hbonds>
donor molecule, donor type, donor heavy atom, donor atom, acceptor molecule, acceptor atom, score
      L1  H    16    53       P1 10175  1.72
      P1  H  7997  8010       L1    24  0.90

> <Gold.PLP.Chemscore.Internal.Correction>
0.0833

> <Gold.Rescore>
     Score         DG    S(hbond)    S(metal)    S(lipo)     H(rot)  DE(clash)    DE(int)     intcor
     13.43     -17.64       1.81        0.00      87.45       1.61       0.44       3.77       ----

> <Gold.Chemscore.Fitness>
13.4269

> <Gold.Chemscore.DG>
-17.6354

> <Gold.Chemscore.ZeroCoef>
-5.4800

> <Gold.Chemscore.Hbond>
1.8108

> <Gold.Chemscore.Metal>
0.0000

> <Gold.Chemscore.Lipo>
87.4547

> <Gold.Chemscore.Internal_Hbond>
0.0000

> <Gold.Chemscore.DEClash>
0.4352

> <Gold.Chemscore.DEInternal>
3.7734

> <Gold.Chemscore.Rot>
1.6112

> <Gold.Chemscore.Internal.Correction>
   9.000000E+99

> <Gold.Chemscore.Hbonds>
donor molecule, donor type, donor heavy atom, donor atom, acceptor molecule, acceptor atom, score
      L1  H    16    53       P1 10175  0.84
      P1  H  7997  8010       L1    24  0.18

> <Gold.Chemscore.Hbond.Weighted>
-6.0479

> <Gold.Chemscore.Metal.Weighted>
-0.0000

> <Gold.Chemscore.Lipo.Weighted>
-10.2322

> <Gold.Chemscore.Internal_Hbond.Weighted>
0.0000

> <Gold.Chemscore.DEClash.Weighted>
0.4352

> <Gold.Chemscore.DEInternal.Weighted>
3.7734

> <Gold.Chemscore.Rot.Weighted>
4.1247

> <Gold.Chemscore.Internal.Correction.Weighted>
   9.000000E+99

> <Gold.Protein.RotatedTorsions>
[ 6907 6896 6895 6894 ] final  -30.06 input  -60.11 | X-H torsion
[ 7974 7965 7964 7962 ] final -152.60 input  175.53 | X-H torsion
[ 8008 7997 7996 7995 ] final    8.02 input   59.86 | X-H torsion
[ 10167 10162 10161 10158 ] final -107.96 input  -65.29 | X-H torsion
[ 10718 10713 10712 10709 ] final  -50.07 input   66.30 | X-H torsion
[ 10763 10752 10751 10750 ] final   10.82 input  -60.55 | X-H torsion
[ 11005 11000 10999 10996 ] final -123.28 input  -57.11 | X-H torsion

> <Gold.Protein.ActiveResidues>
 VAL166  LYS551  ARG553  GLY616  TRP617  ASP618  TYR619  PRO620  LYS621  CYS622 
 ASP623  PHE694  ASN695  SER759  ASP760  ASP761  ALA762  ILE779  LEU786  VAL792 
 PHE793  MET794  SER795  GLU796  ALA797  LYS798  CYS799  TRP800  GLU811  SER814 

> <Gold.Protein.RotatedAtoms>
  151.1107  135.0025  159.8492 H   0  0  0  0  0  0  0  0  0  0  0  0  # atno 6907 bound_to 6896
  152.5443  134.1839  159.8657 H   0  0  0  0  0  0  0  0  0  0  0  0  # atno 6908 bound_to 6896
  151.1889  133.4634  159.2628 H   0  0  0  0  0  0  0  0  0  0  0  0  # atno 6909 bound_to 6896
  144.7785  140.4639  143.5856 H   0  0  0  0  0  0  0  0  0  0  0  0  # atno 7974 bound_to 7965
  154.7614  140.2785  155.6211 H   0  0  0  0  0  0  0  0  0  0  0  0  # atno 8008 bound_to 7997
  156.2916  140.2659  156.2320 H   0  0  0  0  0  0  0  0  0  0  0  0  # atno 8009 bound_to 7997
  155.0013  140.0373  157.2351 H   0  0  0  0  0  0  0  0  0  0  0  0  # atno 8010 bound_to 7997
  140.1713  143.4040  152.1352 H   0  0  0  0  0  0  0  0  0  0  0  0  # atno 10167 bound_to 10162
  156.1834  130.4151  149.9474 H   0  0  0  0  0  0  0  0  0  0  0  0  # atno 10718 bound_to 10713
  153.1991  135.6853  153.8254 H   0  0  0  0  0  0  0  0  0  0  0  0  # atno 10763 bound_to 10752
  153.7526  135.3221  155.3325 H   0  0  0  0  0  0  0  0  0  0  0  0  # atno 10764 bound_to 10752
  154.8161  135.4684  154.0749 H   0  0  0  0  0  0  0  0  0  0  0  0  # atno 10765 bound_to 10752
  140.9931  134.0511  157.3631 H   0  0  0  0  0  0  0  0  0  0  0  0  # atno 11005 bound_to 11000
  145.6117  139.1514  143.3072 LP  0  0  0  0  0  0  0  0  0  0  0  0  # atno 17320 bound_to 7965
  146.1979  140.6232  142.9115 LP  0  0  0  0  0  0  0  0  0  0  0  0  # atno 17321 bound_to 7965
  139.5336  144.7186  151.4968 LP  0  0  0  0  0  0  0  0  0  0  0  0  # atno 17342 bound_to 10162
  140.6580  143.8559  150.6856 LP  0  0  0  0  0  0  0  0  0  0  0  0  # atno 17343 bound_to 10162
  156.7237  130.9017  151.3620 LP  0  0  0  0  0  0  0  0  0  0  0  0  # atno 17370 bound_to 10713
  157.6883  130.9207  150.0445 LP  0  0  0  0  0  0  0  0  0  0  0  0  # atno 17371 bound_to 10713
  139.9001  135.0161  156.7228 LP  0  0  0  0  0  0  0  0  0  0  0  0  # atno 17394 bound_to 11000
  140.7009  133.9307  155.8024 LP  0  0  0  0  0  0  0  0  0  0  0  0  # atno 17395 bound_to 11000

$$$$
