AV-unprocessed.smi:2027|AV-procd|sdf|8220|dock5
  -GOLD-   2272010493D 1   1.00000     0.00000
 Structure written by MMmdl.
 51 53  0  0  0  0  0  0  0  0  3 V2000
  153.4089  142.2868  160.9508 C   0  0  0  0  0  0  0  0  0  0  0  0
  152.5943  141.8513  159.7448 C   0  0  0  0  0  0  0  0  0  0  0  0
  152.7120  140.5159  159.2974 C   0  0  0  0  0  0  0  0  0  0  0  0
  151.9613  140.1501  158.1862 C   0  0  0  0  0  0  0  0  0  0  0  0
  151.8641  138.9325  157.5091 N   0  3  0  0  0  0  0  0  0  0  0  0
  151.0022  139.0615  156.4627 C   0  0  0  0  0  0  0  0  0  0  0  0
  150.5488  140.3446  156.4592 N   0  0  0  0  0  0  0  0  0  0  0  0
  149.6077  141.0024  155.5410 C   0  0  0  0  0  0  0  0  0  0  0  0
  149.1347  140.0895  154.3886 C   0  0  1  0  0  0  0  0  0  0  0  0
  150.2769  139.7735  153.6181 O   0  0  0  0  0  0  0  0  0  0  0  0
  148.4647  138.7833  154.8740 C   0  0  0  0  0  0  0  0  0  0  0  0
  147.6825  138.0672  153.8283 N   0  3  2  0  0  0  0  0  0  0  0  0
  147.1137  138.9752  152.8037 C   0  0  0  0  0  0  0  0  0  0  0  0
  146.6390  137.1736  154.3972 C   0  0  0  0  0  0  0  0  0  0  0  0
  145.6736  136.6868  153.3480 C   0  0  0  0  0  0  0  0  0  0  0  0
  144.2867  136.9924  153.2272 C   0  0  0  0  0  0  0  0  0  0  0  0
  143.7139  136.3863  152.2014 N   0  0  0  0  0  0  0  0  0  0  0  0
  144.7121  135.6862  151.6244 N   0  0  0  0  0  0  0  0  0  0  0  0
  144.4377  134.8900  150.4475 C   0  0  0  0  0  0  0  0  0  0  0  0
  145.9067  135.8521  152.2913 C   0  0  0  0  0  0  0  0  0  0  0  0
  151.1110  141.0585  157.5259 C   0  0  0  0  0  0  0  0  0  0  0  0
  150.9741  142.3748  157.9632 C   0  0  0  0  0  0  0  0  0  0  0  0
  151.7350  142.7686  159.0865 C   0  0  0  0  0  0  0  0  0  0  0  0
  151.6152  144.2025  159.5745 C   0  0  0  0  0  0  0  0  0  0  0  0
  154.0452  141.4798  161.3153 H   0  0  0  0  0  0  0  0  0  0  0  0
  152.7522  142.5894  161.7667 H   0  0  0  0  0  0  0  0  0  0  0  0
  154.0539  143.1276  160.6947 H   0  0  0  0  0  0  0  0  0  0  0  0
  153.3624  139.8116  159.7957 H   0  0  0  0  0  0  0  0  0  0  0  0
  150.7294  138.2859  155.7612 H   0  0  0  0  0  0  0  0  0  0  0  0
  148.7513  141.3238  156.1355 H   0  0  0  0  0  0  0  0  0  0  0  0
  150.0665  141.9148  155.1586 H   0  0  0  0  0  0  0  0  0  0  0  0
  148.4468  140.6604  153.7655 H   0  0  0  0  0  0  0  0  0  0  0  0
  150.0078  139.5768  152.7339 H   0  0  0  0  0  0  0  0  0  0  0  0
  149.2554  138.1351  155.2476 H   0  0  0  0  0  0  0  0  0  0  0  0
  147.8050  138.9826  155.7194 H   0  0  0  0  0  0  0  0  0  0  0  0
  146.4392  139.7028  153.2568 H   0  0  0  0  0  0  0  0  0  0  0  0
  146.5527  138.4132  152.0561 H   0  0  0  0  0  0  0  0  0  0  0  0
  147.8936  139.5152  152.2688 H   0  0  0  0  0  0  0  0  0  0  0  0
  147.1244  136.3377  154.9035 H   0  0  0  0  0  0  0  0  0  0  0  0
  146.0916  137.7129  155.1712 H   0  0  0  0  0  0  0  0  0  0  0  0
  143.6801  137.6236  153.8600 H   0  0  0  0  0  0  0  0  0  0  0  0
  145.3413  134.3694  150.1291 H   0  0  0  0  0  0  0  0  0  0  0  0
  144.0957  135.5342  149.6369 H   0  0  0  0  0  0  0  0  0  0  0  0
  143.6654  134.1533  150.6711 H   0  0  0  0  0  0  0  0  0  0  0  0
  146.8127  135.3619  151.9660 H   0  0  0  0  0  0  0  0  0  0  0  0
  150.3208  143.0772  157.4673 H   0  0  0  0  0  0  0  0  0  0  0  0
  150.8992  144.7693  158.9784 H   0  0  0  0  0  0  0  0  0  0  0  0
  152.5773  144.7109  159.5088 H   0  0  0  0  0  0  0  0  0  0  0  0
  151.2792  144.2281  160.6113 H   0  0  0  0  0  0  0  0  0  0  0  0
  148.3316  137.4616  153.3465 H   0  0  0  0  0  0  0  0  0  0  0  0
  152.3479  138.0745  157.7430 H   0  0  0  0  0  0  0  0  0  0  0  0
  1  2  1  0  0  0  0
  1 25  1  0  0  0  0
  1 26  1  0  0  0  0
  1 27  1  0  0  0  0
  2 23  1  0  0  0  0
  2  3  2  0  0  0  0
  3  4  1  0  0  0  0
  3 28  1  0  0  0  0
  4 21  2  0  0  0  0
  4  5  1  0  0  0  0
  5  6  2  0  0  0  0
  5 51  1  0  0  0  0
  6  7  1  0  0  0  0
  6 29  1  0  0  0  0
  7  8  1  0  0  0  0
  7 21  1  0  0  0  0
  8  9  1  0  0  0  0
  8 30  1  0  0  0  0
  8 31  1  0  0  0  0
  9 10  1  0  0  0  0
  9 11  1  0  0  0  0
  9 32  1  0  0  0  0
 10 33  1  0  0  0  0
 11 12  1  0  0  0  0
 11 34  1  0  0  0  0
 11 35  1  0  0  0  0
 12 13  1  0  0  0  0
 12 14  1  0  0  0  0
 12 50  1  0  0  0  0
 13 36  1  0  0  0  0
 13 37  1  0  0  0  0
 13 38  1  0  0  0  0
 14 15  1  0  0  0  0
 14 39  1  0  0  0  0
 14 40  1  0  0  0  0
 15 20  2  0  0  0  0
 15 16  1  0  0  0  0
 16 17  2  0  0  0  0
 16 41  1  0  0  0  0
 17 18  1  0  0  0  0
 18 19  1  0  0  0  0
 18 20  1  0  0  0  0
 19 42  1  0  0  0  0
 19 43  1  0  0  0  0
 19 44  1  0  0  0  0
 20 45  1  0  0  0  0
 21 22  1  0  0  0  0
 22 23  2  0  0  0  0
 22 46  1  0  0  0  0
 23 24  1  0  0  0  0
 24 47  1  0  0  0  0
 24 48  1  0  0  0  0
 24 49  1  0  0  0  0
M  CHG  1   5   1
M  CHG  1  12   1
M  END
> <s_m_source_file>
AV-unprocessed.smi

> <i_m_source_file_index>
2027

> <i_lp_mmshare_version>
43012

> <i_f3d_flags>
0

> <s_epik_input>
W0NIM11jKFtjSF0xKWMoW0NIM10pW2NIXWMoYzEyKW4oW2NIXW4yKVtDSDJdW0NASF0oW09IXSlbQ0gyXU4oW0NIM10pW0NIMl1jM1tjSF1ubihbQ0gzXSlbY0hdMw==

> <s_epik_cmdline>
J2VwaWtfcHl0aG9uJywgJy1waCcsICc3LjAnLCAnLXRuJywgJzgnLCAnLW1hJywgJzIwMCcsICctbWV0YWxfYmluZGluZycsICctaW1hZScsICc8aW5maWxlLm1hZT4nLCAnLW9tYWUnLCAnPG91dGZpbGUubWFlPic=

> <r_lp_tautomer_probability>
1

> <r_epik_Ionization_Penalty>
1.77469

> <r_epik_Ionization_Penalty_Charging>
1.77463

> <r_epik_Ionization_Penalty_Neutral>
6.41153e-05

> <r_epik_State_Penalty>
1.85225

> <r_epik_Charging_Adjusted_Penalty>
3.62688

> <i_epik_Tot_Q>
2

> <i_epik_Tot_abs_Q>
2

> <r_epik_Metal_State_Penalty>
1.92669

> <b_epik_Metal_Only>
0

> <s_lp_Force_Field>
OPLS_2005

> <r_lp_Energy>
22.5678

> <b_lp_Chiralities_Consistent>
1

> <s_lp_Variant>
AV-unprocessed.smi:2027-12

> <Gold.Version>
5.8.1

> <Gold.Id.Protein>
6NUR|6NUR_protein|mol2

> <Gold.PLP.Fitness>
54.6896

> <Gold.PLP.PLP>
-41.3534

> <Gold.PLP.part.hbond>
-2.9538

> <Gold.PLP.part.metal>
0.0000

> <Gold.PLP.part.buried>
-2.1980

> <Gold.PLP.part.nonpolar>
-36.3374

> <Gold.PLP.part.repulsive>
0.2517

> <Gold.PLP.ligand.clash>
0.0000

> <Gold.PLP.ligand.torsion>
0.6303

> <Gold.PLP.Chemscore.Hbond>
3.8160

> <Gold.PLP.Chemscore.CHOScore>
1.0000

> <Gold.PLP.Chemscore.Metal>
0.0000

> <Gold.Chemscore.Hbonds>
donor molecule, donor type, donor heavy atom, donor atom, acceptor molecule, acceptor atom, score
      L1  H    10    33       P1  7957  1.00
      L1  H    12    50       P1  7948  2.00
      P1  H  7989  7998       L1    10  0.85
      L1  C    20    45       P1  7948  0.99

> <Gold.PLP.Chemscore.Internal.Correction>
0.1488

> <Gold.Rescore>
     Score         DG    S(hbond)    S(metal)    S(lipo)     H(rot)  DE(clash)    DE(int)     intcor
     17.77     -20.35       2.42        0.00     114.47       2.58       0.66       1.92       ----

> <Gold.Chemscore.Fitness>
17.7672

> <Gold.Chemscore.DG>
-20.3533

> <Gold.Chemscore.ZeroCoef>
-5.4800

> <Gold.Chemscore.Hbond>
2.4233

> <Gold.Chemscore.Metal>
0.0000

> <Gold.Chemscore.Lipo>
114.4734

> <Gold.Chemscore.Internal_Hbond>
0.0000

> <Gold.Chemscore.DEClash>
0.6635

> <Gold.Chemscore.DEInternal>
1.9226

> <Gold.Chemscore.Rot>
2.5836

> <Gold.Chemscore.Internal.Correction>
   9.000000E+99

> <Gold.Chemscore.Hbonds>
donor molecule, donor type, donor heavy atom, donor atom, acceptor molecule, acceptor atom, score
      L1  H    10    33       P1  7957  0.95
      L1  H    12    50       P1  7948  0.93
      P1  H  7989  7998       L1    10  0.41

> <Gold.Chemscore.Hbond.Weighted>
-8.0938

> <Gold.Chemscore.Metal.Weighted>
-0.0000

> <Gold.Chemscore.Lipo.Weighted>
-13.3934

> <Gold.Chemscore.Internal_Hbond.Weighted>
0.0000

> <Gold.Chemscore.DEClash.Weighted>
0.6635

> <Gold.Chemscore.DEInternal.Weighted>
1.9226

> <Gold.Chemscore.Rot.Weighted>
6.6139

> <Gold.Chemscore.Internal.Correction.Weighted>
   9.000000E+99

> <Gold.Protein.RotatedTorsions>
[ 6907 6896 6895 6894 ] final  165.85 input  -60.11 | X-H torsion
[ 7974 7965 7964 7962 ] final   74.96 input  175.53 | X-H torsion
[ 8008 7997 7996 7995 ] final  -56.19 input   59.86 | X-H torsion
[ 10167 10162 10161 10158 ] final   52.75 input  -65.29 | X-H torsion
[ 10718 10713 10712 10709 ] final -114.43 input   66.30 | X-H torsion
[ 10763 10752 10751 10750 ] final -165.97 input  -60.55 | X-H torsion
[ 11005 11000 10999 10996 ] final   67.42 input  -57.11 | X-H torsion

> <Gold.Protein.ActiveResidues>
 VAL166  LYS551  ARG553  GLY616  TRP617  ASP618  TYR619  PRO620  LYS621  CYS622 
 ASP623  PHE694  ASN695  SER759  ASP760  ASP761  ALA762  ILE779  LEU786  VAL792 
 PHE793  MET794  SER795  GLU796  ALA797  LYS798  CYS799  TRP800  GLU811  SER814 

> <Gold.Protein.RotatedAtoms>
  151.8881  133.3510  159.3788 H   0  0  0  0  0  0  0  0  0  0  0  0  # atno 6907 bound_to 6896
  150.7110  134.4951  159.5544 H   0  0  0  0  0  0  0  0  0  0  0  0  # atno 6908 bound_to 6896
  152.2516  134.8127  160.0496 H   0  0  0  0  0  0  0  0  0  0  0  0  # atno 6909 bound_to 6896
  145.7216  139.2650  143.1593 H   0  0  0  0  0  0  0  0  0  0  0  0  # atno 7974 bound_to 7965
  154.4221  140.1135  156.5598 H   0  0  0  0  0  0  0  0  0  0  0  0  # atno 8008 bound_to 7997
  155.6323  140.3496  155.4668 H   0  0  0  0  0  0  0  0  0  0  0  0  # atno 8009 bound_to 7997
  155.9938  140.1185  157.0603 H   0  0  0  0  0  0  0  0  0  0  0  0  # atno 8010 bound_to 7997
  140.2481  144.3510  150.6357 H   0  0  0  0  0  0  0  0  0  0  0  0  # atno 10167 bound_to 10162
  156.0829  130.6026  150.8773 H   0  0  0  0  0  0  0  0  0  0  0  0  # atno 10718 bound_to 10713
  154.6880  135.2966  154.9520 H   0  0  0  0  0  0  0  0  0  0  0  0  # atno 10763 bound_to 10752
  154.0493  135.6646  153.4802 H   0  0  0  0  0  0  0  0  0  0  0  0  # atno 10764 bound_to 10752
  153.0592  135.5126  154.7957 H   0  0  0  0  0  0  0  0  0  0  0  0  # atno 10765 bound_to 10752
  139.9771  134.6804  156.0332 H   0  0  0  0  0  0  0  0  0  0  0  0  # atno 11005 bound_to 11000
  146.0620  140.7960  142.9730 LP  0  0  0  0  0  0  0  0  0  0  0  0  # atno 17320 bound_to 7965
  144.6915  140.3212  143.7232 LP  0  0  0  0  0  0  0  0  0  0  0  0  # atno 17321 bound_to 7965
  140.6062  143.2168  151.6976 LP  0  0  0  0  0  0  0  0  0  0  0  0  # atno 17342 bound_to 10162
  139.5055  144.3715  152.0466 LP  0  0  0  0  0  0  0  0  0  0  0  0  # atno 17343 bound_to 10162
  157.5953  131.0943  150.9051 LP  0  0  0  0  0  0  0  0  0  0  0  0  # atno 17370 bound_to 10713
  156.9219  130.5318  149.5279 LP  0  0  0  0  0  0  0  0  0  0  0  0  # atno 17371 bound_to 10713
  141.1447  133.6558  156.3834 LP  0  0  0  0  0  0  0  0  0  0  0  0  # atno 17394 bound_to 11000
  140.5171  134.6339  157.5305 LP  0  0  0  0  0  0  0  0  0  0  0  0  # atno 17395 bound_to 11000

$$$$
