AV-unprocessed.smi:1891|AV-procd|sdf|7666|dock3
  -GOLD-   22720 9403D 1   1.00000     0.00000
 Structure written by MMmdl.
 36 38  0  0  0  0  0  0  0  0  1 V2000
  153.4482  139.5840  154.6636 O   0  0  0  0  0  0  0  0  0  0  0  0
  152.5031  139.2271  155.6519 C   0  0  0  0  0  0  0  0  0  0  0  0
  151.1652  139.8916  155.4892 C   0  0  0  0  0  0  0  0  0  0  0  0
  150.4814  139.8756  154.3424 N   0  0  0  0  0  0  0  0  0  0  0  0
  149.3404  140.5875  154.6541 C   0  0  0  0  0  0  0  0  0  0  0  0
  148.2219  140.9246  153.8591 C   0  0  0  0  0  0  0  0  0  0  0  0
  147.1572  141.6711  154.4051 C   0  0  0  0  0  0  0  0  0  0  0  0
  147.1948  142.0883  155.7514 C   0  0  0  0  0  0  0  0  0  0  0  0
  148.3004  141.7630  156.5606 C   0  0  0  0  0  0  0  0  0  0  0  0
  149.3617  141.0203  156.0094 C   0  0  0  0  0  0  0  0  0  0  0  0
  150.5709  140.5532  156.5152 N   0  0  0  0  0  0  0  0  0  0  0  0
  151.0630  140.7546  157.8722 C   0  0  0  0  0  0  0  0  0  0  0  0
  151.9148  142.0339  158.0051 C   0  0  1  0  0  0  0  0  0  0  0  0
  151.1801  143.1133  157.4630 O   0  0  0  0  0  0  0  0  0  0  0  0
  152.3614  142.2938  159.4399 C   0  0  0  0  0  0  0  0  0  0  0  0
  151.9232  143.4476  160.1285 C   0  0  0  0  0  0  0  0  0  0  0  0
  152.3178  143.6750  161.4609 C   0  0  0  0  0  0  0  0  0  0  0  0
  153.1524  142.7500  162.1159 C   0  0  0  0  0  0  0  0  0  0  0  0
  153.5308  142.9679  163.3976 F   0  0  0  0  0  0  0  0  0  0  0  0
  153.5917  141.5975  161.4378 C   0  0  0  0  0  0  0  0  0  0  0  0
  153.1989  141.3683  160.1048 C   0  0  0  0  0  0  0  0  0  0  0  0
  153.6237  140.2484  159.4719 F   0  0  0  0  0  0  0  0  0  0  0  0
  153.4141  138.9440  153.9695 H   0  0  0  0  0  0  0  0  0  0  0  0
  152.3682  138.1456  155.6286 H   0  0  0  0  0  0  0  0  0  0  0  0
  152.9187  139.4855  156.6247 H   0  0  0  0  0  0  0  0  0  0  0  0
  148.1837  140.6091  152.8271 H   0  0  0  0  0  0  0  0  0  0  0  0
  146.3079  141.9248  153.7880 H   0  0  0  0  0  0  0  0  0  0  0  0
  146.3749  142.6593  156.1621 H   0  0  0  0  0  0  0  0  0  0  0  0
  148.3336  142.0832  157.5913 H   0  0  0  0  0  0  0  0  0  0  0  0
  150.1931  140.8203  158.5275 H   0  0  0  0  0  0  0  0  0  0  0  0
  151.6232  139.8799  158.2022 H   0  0  0  0  0  0  0  0  0  0  0  0
  152.8012  141.9393  157.3774 H   0  0  0  0  0  0  0  0  0  0  0  0
  150.2793  142.8457  157.3648 H   0  0  0  0  0  0  0  0  0  0  0  0
  151.2744  144.1607  159.6418 H   0  0  0  0  0  0  0  0  0  0  0  0
  151.9774  144.5579  161.9816 H   0  0  0  0  0  0  0  0  0  0  0  0
  154.2286  140.8856  161.9414 H   0  0  0  0  0  0  0  0  0  0  0  0
  1  2  1  0  0  0  0
  1 23  1  0  0  0  0
  2  3  1  0  0  0  0
  2 24  1  0  0  0  0
  2 25  1  0  0  0  0
  3 11  1  0  0  0  0
  3  4  2  0  0  0  0
  4  5  1  0  0  0  0
  5 10  2  0  0  0  0
  5  6  1  0  0  0  0
  6  7  2  0  0  0  0
  6 26  1  0  0  0  0
  7  8  1  0  0  0  0
  7 27  1  0  0  0  0
  8  9  2  0  0  0  0
  8 28  1  0  0  0  0
  9 10  1  0  0  0  0
  9 29  1  0  0  0  0
 10 11  1  0  0  0  0
 11 12  1  0  0  0  0
 12 13  1  0  0  0  0
 12 30  1  0  0  0  0
 12 31  1  0  0  0  0
 13 14  1  0  0  0  0
 13 15  1  0  0  0  0
 13 32  1  0  0  0  0
 14 33  1  0  0  0  0
 15 21  1  0  0  0  0
 15 16  2  0  0  0  0
 16 17  1  0  0  0  0
 16 34  1  0  0  0  0
 17 18  2  0  0  0  0
 17 35  1  0  0  0  0
 18 19  1  0  0  0  0
 18 20  1  0  0  0  0
 20 21  2  0  0  0  0
 20 36  1  0  0  0  0
 21 22  1  0  0  0  0
M  END
> <s_m_source_file>
AV-unprocessed.smi

> <i_m_source_file_index>
1891

> <i_lp_mmshare_version>
43012

> <i_f3d_flags>
0

> <s_epik_input>
W2NIXTFbY0hdW2NIXVtjSF1jKGMxMiluKGMobjIpW0NIMl1bT0hdKVtDSDJdW0NASF0oW09IXSljM1tjSF1bY0hdYyhGKVtjSF1jM0Y=

> <s_epik_cmdline>
J2VwaWtfcHl0aG9uJywgJy1waCcsICc3LjAnLCAnLXRuJywgJzgnLCAnLW1hJywgJzIwMCcsICctbWV0YWxfYmluZGluZycsICctaW1hZScsICc8aW5maWxlLm1hZT4nLCAnLW9tYWUnLCAnPG91dGZpbGUubWFlPic=

> <r_epik_Ionization_Penalty>
0.0634724

> <r_epik_Ionization_Penalty_Charging>
0

> <r_epik_Ionization_Penalty_Neutral>
0.0634724

> <r_epik_State_Penalty>
0.0551572

> <r_epik_Charging_Adjusted_Penalty>
0.0551572

> <i_epik_Tot_Q>
0

> <i_epik_Tot_abs_Q>
0

> <r_epik_Metal_State_Penalty>
5.78034e-05

> <b_epik_Metal_Only>
0

> <s_lp_Force_Field>
OPLS_2005

> <r_lp_Energy>
13.0815

> <b_lp_Chiralities_Consistent>
1

> <s_lp_Variant>
AV-unprocessed.smi:1891-2

> <Gold.Version>
5.8.1

> <Gold.Id.Protein>
6NUR|6NUR_protein|mol2

> <Gold.PLP.Fitness>
58.0355

> <Gold.PLP.PLP>
-53.6296

> <Gold.PLP.part.hbond>
-3.0000

> <Gold.PLP.part.metal>
0.0000

> <Gold.PLP.part.buried>
-2.3323

> <Gold.PLP.part.nonpolar>
-46.9388

> <Gold.PLP.part.repulsive>
0.1220

> <Gold.PLP.ligand.clash>
0.0000

> <Gold.PLP.ligand.torsion>
0.5067

> <Gold.PLP.Chemscore.Hbond>
1.8000

> <Gold.PLP.Chemscore.CHOScore>
0.0000

> <Gold.PLP.Chemscore.Metal>
0.0000

> <Gold.Chemscore.Hbonds>
donor molecule, donor type, donor heavy atom, donor atom, acceptor molecule, acceptor atom, score
      P1  H  7989  7998       L1     4  0.75
      P1  H  7997  8008       L1     1  1.00

> <Gold.PLP.Chemscore.Internal.Correction>
0.0194

> <Gold.Rescore>
     Score         DG    S(hbond)    S(metal)    S(lipo)     H(rot)  DE(clash)    DE(int)     intcor
     14.57     -15.20       0.94        0.00     119.17       2.88       0.07       0.56       ----

> <Gold.Chemscore.Fitness>
14.5654

> <Gold.Chemscore.DG>
-15.2016

> <Gold.Chemscore.ZeroCoef>
-5.4800

> <Gold.Chemscore.Hbond>
0.9412

> <Gold.Chemscore.Metal>
0.0000

> <Gold.Chemscore.Lipo>
119.1654

> <Gold.Chemscore.Internal_Hbond>
0.0000

> <Gold.Chemscore.DEClash>
0.0719

> <Gold.Chemscore.DEInternal>
0.5643

> <Gold.Chemscore.Rot>
2.8767

> <Gold.Chemscore.Internal.Correction>
   9.000000E+99

> <Gold.Chemscore.Hbonds>
donor molecule, donor type, donor heavy atom, donor atom, acceptor molecule, acceptor atom, score
      P1  H  7989  7998       L1     4  0.07
      P1  H  7997  8008       L1     1  0.53

> <Gold.Chemscore.Hbond.Weighted>
-3.1437

> <Gold.Chemscore.Metal.Weighted>
-0.0000

> <Gold.Chemscore.Lipo.Weighted>
-13.9423

> <Gold.Chemscore.Internal_Hbond.Weighted>
0.0000

> <Gold.Chemscore.DEClash.Weighted>
0.0719

> <Gold.Chemscore.DEInternal.Weighted>
0.5643

> <Gold.Chemscore.Rot.Weighted>
7.3644

> <Gold.Chemscore.Internal.Correction.Weighted>
   9.000000E+99

> <Gold.Protein.RotatedTorsions>
[ 6907 6896 6895 6894 ] final   -7.77 input  -60.11 | X-H torsion
[ 7974 7965 7964 7962 ] final   68.00 input  175.53 | X-H torsion
[ 8008 7997 7996 7995 ] final   14.94 input   59.86 | X-H torsion
[ 10167 10162 10161 10158 ] final  110.47 input  -65.29 | X-H torsion
[ 10718 10713 10712 10709 ] final    8.76 input   66.30 | X-H torsion
[ 10763 10752 10751 10750 ] final -155.97 input  -60.55 | X-H torsion
[ 11005 11000 10999 10996 ] final  117.16 input  -57.11 | X-H torsion

> <Gold.Protein.ActiveResidues>
 VAL166  LYS551  ARG553  GLY616  TRP617  ASP618  TYR619  PRO620  LYS621  CYS622 
 ASP623  PHE694  ASN695  SER759  ASP760  ASP761  ALA762  ILE779  LEU786  VAL792 
 PHE793  MET794  SER795  GLU796  ALA797  LYS798  CYS799  TRP800  GLU811  SER814 

> <Gold.Protein.RotatedAtoms>
  151.4442  135.1023  159.9678 H   0  0  0  0  0  0  0  0  0  0  0  0  # atno 6907 bound_to 6896
  152.4911  133.8500  159.7207 H   0  0  0  0  0  0  0  0  0  0  0  0  # atno 6908 bound_to 6896
  150.9066  133.6991  159.2892 H   0  0  0  0  0  0  0  0  0  0  0  0  # atno 6909 bound_to 6896
  145.8078  139.3016  143.1117 H   0  0  0  0  0  0  0  0  0  0  0  0  # atno 7974 bound_to 7965
  154.8556  140.2936  155.5571 H   0  0  0  0  0  0  0  0  0  0  0  0  # atno 8008 bound_to 7997
  156.3018  140.2487  156.3455 H   0  0  0  0  0  0  0  0  0  0  0  0  # atno 8009 bound_to 7997
  154.8973  140.0392  157.1862 H   0  0  0  0  0  0  0  0  0  0  0  0  # atno 8010 bound_to 7997
  139.6686  144.7126  151.1730 H   0  0  0  0  0  0  0  0  0  0  0  0  # atno 10167 bound_to 10162
  156.9564  130.5916  149.5659 H   0  0  0  0  0  0  0  0  0  0  0  0  # atno 10718 bound_to 10713
  154.7748  135.3156  154.8115 H   0  0  0  0  0  0  0  0  0  0  0  0  # atno 10763 bound_to 10752
  153.8841  135.6832  153.4769 H   0  0  0  0  0  0  0  0  0  0  0  0  # atno 10764 bound_to 10752
  153.1369  135.4756  154.9372 H   0  0  0  0  0  0  0  0  0  0  0  0  # atno 10765 bound_to 10752
  139.9065  134.9607  156.7309 H   0  0  0  0  0  0  0  0  0  0  0  0  # atno 11005 bound_to 11000
  145.9809  140.8683  143.0115 LP  0  0  0  0  0  0  0  0  0  0  0  0  # atno 17320 bound_to 7965
  144.6761  140.2079  143.7380 LP  0  0  0  0  0  0  0  0  0  0  0  0  # atno 17321 bound_to 7965
  140.7609  143.5880  150.8825 LP  0  0  0  0  0  0  0  0  0  0  0  0  # atno 17342 bound_to 10162
  139.9544  143.6235  152.3020 LP  0  0  0  0  0  0  0  0  0  0  0  0  # atno 17343 bound_to 10162
  156.0341  130.5430  150.8608 LP  0  0  0  0  0  0  0  0  0  0  0  0  # atno 17370 bound_to 10713
  157.5687  131.0946  150.9450 LP  0  0  0  0  0  0  0  0  0  0  0  0  # atno 17371 bound_to 10713
  140.6926  133.9376  155.7975 LP  0  0  0  0  0  0  0  0  0  0  0  0  # atno 17394 bound_to 11000
  141.0430  134.0594  157.3878 LP  0  0  0  0  0  0  0  0  0  0  0  0  # atno 17395 bound_to 11000

$$$$
