AV-unprocessed.smi:221|AV-procd|sdf|1694|dock7
  -GOLD-   2262020143D 1   1.00000     0.00000
 Structure written by MMmdl.
 50 53  0  0  0  0  0  0  0  0  1 V2000
  142.0885  134.3757  154.6232 N   0  0  0  0  0  0  0  0  0  0  0  0
  142.4144  135.3968  153.8273 C   0  0  0  0  0  0  0  0  0  0  0  0
  141.8556  136.4897  153.9046 O   0  0  0  0  0  0  0  0  0  0  0  0
  143.5426  135.1521  152.8149 C   0  0  2  0  0  0  0  0  0  0  0  0
  143.2838  133.9052  151.9588 C   0  0  0  0  0  0  0  0  0  0  0  0
  144.6814  133.5058  151.4991 C   0  0  1  0  0  0  0  0  0  0  0  0
  145.0311  134.2417  150.4430 F   0  0  0  0  0  0  0  0  0  0  0  0
  145.5644  133.8730  152.6940 C   0  0  0  0  0  0  0  0  0  0  0  0
  144.8230  134.8667  153.4659 N   0  0  0  0  0  0  0  0  0  0  0  0
  145.5328  135.9435  153.8694 C   0  0  0  0  0  0  0  0  0  0  0  0
  144.9795  137.1632  153.6623 N   0  0  0  0  0  0  0  0  0  0  0  0
  145.6374  138.2660  154.0334 C   0  0  0  0  0  0  0  0  0  0  0  0
  146.8347  138.3690  154.6154 N   0  0  0  0  0  0  0  0  0  0  0  0
  147.3912  137.1411  154.8238 C   0  0  0  0  0  0  0  0  0  0  0  0
  146.8135  135.8855  154.4871 C   0  0  0  0  0  0  0  0  0  0  0  0
  147.6703  134.8542  154.8532 N   0  0  0  0  0  0  0  0  0  0  0  0
  148.6988  135.4662  155.3737 C   0  0  0  0  0  0  0  0  0  0  0  0
  148.6173  136.8405  155.3887 N   0  0  0  0  0  0  0  0  0  0  0  0
  149.6111  137.7682  155.8971 C   0  0  0  0  0  0  0  0  0  0  0  0
  150.3007  138.6044  154.7908 C   0  0  2  0  0  0  0  0  0  0  0  0
  151.4888  137.8639  154.1235 C   0  0  0  0  0  0  0  0  0  0  0  0
  151.2748  136.4680  154.0810 O   0  0  0  0  0  0  0  0  0  0  0  0
  150.6821  140.0009  155.3450 C   0  0  1  0  0  0  0  0  0  0  0  0
  149.5700  140.7672  156.0527 C   0  0  0  0  0  0  0  0  0  0  0  0
  150.3524  141.6594  157.0057 C   0  0  0  0  0  0  0  0  0  0  0  0
  151.3843  140.8005  157.4614 O   0  0  0  0  0  0  0  0  0  0  0  0
  151.8377  140.0178  156.3618 C   0  0  0  0  0  0  0  0  0  0  0  0
  143.6399  136.0212  152.1613 H   0  0  0  0  0  0  0  0  0  0  0  0
  144.7606  132.4576  151.2096 H   0  0  0  0  0  0  0  0  0  0  0  0
  141.3500  134.4874  155.3026 H   0  0  0  0  0  0  0  0  0  0  0  0
  142.5771  133.4960  154.5414 H   0  0  0  0  0  0  0  0  0  0  0  0
  142.8563  133.1011  152.5610 H   0  0  0  0  0  0  0  0  0  0  0  0
  142.6058  134.0963  151.1263 H   0  0  0  0  0  0  0  0  0  0  0  0
  145.7056  133.0014  153.3340 H   0  0  0  0  0  0  0  0  0  0  0  0
  146.5554  134.2049  152.3790 H   0  0  0  0  0  0  0  0  0  0  0  0
  145.1324  139.1996  153.8341 H   0  0  0  0  0  0  0  0  0  0  0  0
  149.5546  134.9284  155.7552 H   0  0  0  0  0  0  0  0  0  0  0  0
  149.1144  138.4245  156.6127 H   0  0  0  0  0  0  0  0  0  0  0  0
  150.3533  137.2026  156.4615 H   0  0  0  0  0  0  0  0  0  0  0  0
  149.5566  138.7921  154.0148 H   0  0  0  0  0  0  0  0  0  0  0  0
  151.6351  138.1937  153.0958 H   0  0  0  0  0  0  0  0  0  0  0  0
  152.4210  138.0669  154.6514 H   0  0  0  0  0  0  0  0  0  0  0  0
  150.9839  136.2345  153.2126 H   0  0  0  0  0  0  0  0  0  0  0  0
  151.0107  140.6154  154.5051 H   0  0  0  0  0  0  0  0  0  0  0  0
  148.9398  141.3332  155.3662 H   0  0  0  0  0  0  0  0  0  0  0  0
  148.9283  140.1024  156.6300 H   0  0  0  0  0  0  0  0  0  0  0  0
  150.7871  142.5104  156.4790 H   0  0  0  0  0  0  0  0  0  0  0  0
  149.7453  142.0337  157.8302 H   0  0  0  0  0  0  0  0  0  0  0  0
  152.1277  139.0258  156.7077 H   0  0  0  0  0  0  0  0  0  0  0  0
  152.7232  140.4816  155.9252 H   0  0  0  0  0  0  0  0  0  0  0  0
  1  2  1  0  0  0  0
  1 30  1  0  0  0  0
  1 31  1  0  0  0  0
  2  3  2  0  0  0  0
  2  4  1  0  0  0  0
  4 28  1  0  0  0  0
  4  9  1  0  0  0  0
  4  5  1  0  0  0  0
  5  6  1  0  0  0  0
  5 32  1  0  0  0  0
  5 33  1  0  0  0  0
  6 29  1  0  0  0  0
  6  7  1  0  0  0  0
  6  8  1  0  0  0  0
  8  9  1  0  0  0  0
  8 34  1  0  0  0  0
  8 35  1  0  0  0  0
  9 10  1  0  0  0  0
 10 15  1  0  0  0  0
 10 11  2  0  0  0  0
 11 12  1  0  0  0  0
 12 13  2  0  0  0  0
 12 36  1  0  0  0  0
 13 14  1  0  0  0  0
 14 18  1  0  0  0  0
 14 15  2  0  0  0  0
 15 16  1  0  0  0  0
 16 17  2  0  0  0  0
 17 18  1  0  0  0  0
 17 37  1  0  0  0  0
 18 19  1  0  0  0  0
 19 20  1  0  0  0  0
 19 38  1  0  0  0  0
 19 39  1  0  0  0  0
 20 21  1  0  0  0  0
 20 23  1  0  0  0  0
 20 40  1  0  0  0  0
 21 22  1  0  0  0  0
 21 41  1  0  0  0  0
 21 42  1  0  0  0  0
 22 43  1  0  0  0  0
 23 27  1  0  0  0  0
 23 24  1  0  0  0  0
 23 44  1  0  0  0  0
 24 25  1  0  0  0  0
 24 45  1  0  0  0  0
 24 46  1  0  0  0  0
 25 26  1  0  0  0  0
 25 47  1  0  0  0  0
 25 48  1  0  0  0  0
 26 27  1  0  0  0  0
 27 49  1  0  0  0  0
 27 50  1  0  0  0  0
M  END
> <s_m_source_file>
AV-unprocessed.smi

> <i_m_source_file_index>
221

> <i_lp_mmshare_version>
43012

> <i_f3d_flags>
0

> <s_epik_input>
W05IMl1DKD1PKVtDQEBIXTFbQ0gyXVtDQEBIXShGKVtDSDJdTjFjKG5bY0hdbjIpYyhjMjMpbltjSF1uM1tDSDJdW0NASF0oW0NIMl1bT0hdKVtDQEBIXTRbQ0gyXVtDSDJdT1tDSDJdNA==

> <s_epik_cmdline>
J2VwaWtfcHl0aG9uJywgJy1waCcsICc3LjAnLCAnLXRuJywgJzgnLCAnLW1hJywgJzIwMCcsICctbWV0YWxfYmluZGluZycsICctaW1hZScsICc8aW5maWxlLm1hZT4nLCAnLW9tYWUnLCAnPG91dGZpbGUubWFlPic=

> <r_lp_tautomer_probability>
1

> <r_epik_Ionization_Penalty>
0.000818822

> <r_epik_Ionization_Penalty_Charging>
0

> <r_epik_Ionization_Penalty_Neutral>
0.000818822

> <r_epik_State_Penalty>
0.000440551

> <r_epik_Charging_Adjusted_Penalty>
0.000440551

> <i_epik_Tot_Q>
0

> <i_epik_Tot_abs_Q>
0

> <r_epik_Metal_State_Penalty>
-0

> <b_epik_Metal_Only>
0

> <s_lp_Force_Field>
OPLS_2005

> <r_lp_Energy>
51.8706

> <b_lp_Chiralities_Consistent>
1

> <s_lp_Variant>
AV-unprocessed.smi:221-9

> <Gold.Version>
5.8.1

> <Gold.Id.Protein>
6NUR|6NUR_protein|mol2

> <Gold.PLP.Fitness>
46.5884

> <Gold.PLP.PLP>
-33.2486

> <Gold.PLP.part.hbond>
-4.3921

> <Gold.PLP.part.metal>
0.0000

> <Gold.PLP.part.buried>
-3.9450

> <Gold.PLP.part.nonpolar>
-24.9692

> <Gold.PLP.part.repulsive>
0.5253

> <Gold.PLP.ligand.clash>
0.0000

> <Gold.PLP.ligand.torsion>
0.9530

> <Gold.PLP.Chemscore.Hbond>
4.0000

> <Gold.PLP.Chemscore.CHOScore>
1.0000

> <Gold.PLP.Chemscore.Metal>
0.0000

> <Gold.Chemscore.Hbonds>
donor molecule, donor type, donor heavy atom, donor atom, acceptor molecule, acceptor atom, score
      L1  H     1    30       P1 11000  1.00
      L1  H     1    31       P1 10957  0.99
      L1  H    22    43       P1  7949  0.90
      P1  H 10752 10763       L1    22  1.00
      L1  C    12    36       P1 10175  1.00

> <Gold.PLP.Chemscore.Internal.Correction>
0.2458

> <Gold.Rescore>
     Score         DG    S(hbond)    S(metal)    S(lipo)     H(rot)  DE(clash)    DE(int)     intcor
     12.23     -14.10       3.22        0.00      63.09       3.72       0.52       1.35       ----

> <Gold.Chemscore.Fitness>
12.2293

> <Gold.Chemscore.DG>
-14.0976

> <Gold.Chemscore.ZeroCoef>
-5.4800

> <Gold.Chemscore.Hbond>
3.2216

> <Gold.Chemscore.Metal>
0.0000

> <Gold.Chemscore.Lipo>
63.0876

> <Gold.Chemscore.Internal_Hbond>
0.0000

> <Gold.Chemscore.DEClash>
0.5229

> <Gold.Chemscore.DEInternal>
1.3453

> <Gold.Chemscore.Rot>
3.7202

> <Gold.Chemscore.Internal.Correction>
   9.000000E+99

> <Gold.Chemscore.Hbonds>
donor molecule, donor type, donor heavy atom, donor atom, acceptor molecule, acceptor atom, score
      L1  H     1    30       P1 11000  0.60
      L1  H     1    31       P1 10957  0.94
      L1  H    22    43       P1  7949  0.18
      P1  H 10752 10763       L1    22  0.27

> <Gold.Chemscore.Hbond.Weighted>
-10.7601

> <Gold.Chemscore.Metal.Weighted>
-0.0000

> <Gold.Chemscore.Lipo.Weighted>
-7.3812

> <Gold.Chemscore.Internal_Hbond.Weighted>
0.0000

> <Gold.Chemscore.DEClash.Weighted>
0.5229

> <Gold.Chemscore.DEInternal.Weighted>
1.3453

> <Gold.Chemscore.Rot.Weighted>
9.5237

> <Gold.Chemscore.Internal.Correction.Weighted>
   9.000000E+99

> <Gold.Protein.RotatedTorsions>
[ 6907 6896 6895 6894 ] final   23.07 input  -60.11 | X-H torsion
[ 7974 7965 7964 7962 ] final  -98.93 input  175.53 | X-H torsion
[ 8008 7997 7996 7995 ] final  -74.83 input   59.86 | X-H torsion
[ 10167 10162 10161 10158 ] final  -72.27 input  -65.29 | X-H torsion
[ 10718 10713 10712 10709 ] final  -75.74 input   66.30 | X-H torsion
[ 10763 10752 10751 10750 ] final   39.86 input  -60.55 | X-H torsion
[ 11005 11000 10999 10996 ] final  142.31 input  -57.11 | X-H torsion

> <Gold.Protein.ActiveResidues>
 VAL166  LYS551  ARG553  GLY616  TRP617  ASP618  TYR619  PRO620  LYS621  CYS622 
 ASP623  PHE694  ASN695  SER759  ASP760  ASP761  ALA762  ILE779  LEU786  VAL792 
 PHE793  MET794  SER795  GLU796  ALA797  LYS798  CYS799  TRP800  GLU811  SER814 

> <Gold.Protein.RotatedAtoms>
  151.9367  135.0232  160.0532 H   0  0  0  0  0  0  0  0  0  0  0  0  # atno 6907 bound_to 6896
  152.2072  133.4879  159.5098 H   0  0  0  0  0  0  0  0  0  0  0  0  # atno 6908 bound_to 6896
  150.6968  134.1431  159.4155 H   0  0  0  0  0  0  0  0  0  0  0  0  # atno 6909 bound_to 6896
  145.3142  140.9407  143.2752 H   0  0  0  0  0  0  0  0  0  0  0  0  # atno 7974 bound_to 7965
  154.5365  140.0754  156.8436 H   0  0  0  0  0  0  0  0  0  0  0  0  # atno 8008 bound_to 7997
  155.3268  140.3399  155.4222 H   0  0  0  0  0  0  0  0  0  0  0  0  # atno 8009 bound_to 7997
  156.1833  140.1660  156.8220 H   0  0  0  0  0  0  0  0  0  0  0  0  # atno 8010 bound_to 7997
  140.5206  143.2332  151.7437 H   0  0  0  0  0  0  0  0  0  0  0  0  # atno 10167 bound_to 10162
  156.0198  130.4448  150.3088 H   0  0  0  0  0  0  0  0  0  0  0  0  # atno 10718 bound_to 10713
  152.9954  135.6208  154.2533 H   0  0  0  0  0  0  0  0  0  0  0  0  # atno 10763 bound_to 10752
  154.2271  135.2793  155.2905 H   0  0  0  0  0  0  0  0  0  0  0  0  # atno 10764 bound_to 10752
  154.5480  135.5741  153.6955 H   0  0  0  0  0  0  0  0  0  0  0  0  # atno 10765 bound_to 10752
  140.0468  134.9277  157.0944 H   0  0  0  0  0  0  0  0  0  0  0  0  # atno 11005 bound_to 11000
  144.8991  139.4673  143.6641 LP  0  0  0  0  0  0  0  0  0  0  0  0  # atno 17320 bound_to 7965
  146.3106  139.7734  142.9022 LP  0  0  0  0  0  0  0  0  0  0  0  0  # atno 17321 bound_to 7965
  139.4922  144.4261  151.9924 LP  0  0  0  0  0  0  0  0  0  0  0  0  # atno 17342 bound_to 10162
  140.3357  144.3263  150.5977 LP  0  0  0  0  0  0  0  0  0  0  0  0  # atno 17343 bound_to 10162
  157.1190  131.0241  151.3017 LP  0  0  0  0  0  0  0  0  0  0  0  0  # atno 17370 bound_to 10713
  157.4644  130.7672  149.7265 LP  0  0  0  0  0  0  0  0  0  0  0  0  # atno 17371 bound_to 10713
  140.3981  134.2112  155.7164 LP  0  0  0  0  0  0  0  0  0  0  0  0  # atno 17394 bound_to 11000
  141.1911  133.8203  157.0894 LP  0  0  0  0  0  0  0  0  0  0  0  0  # atno 17395 bound_to 11000

$$$$
