AV-unprocessed.smi:3184|AV-procd|sdf|12161|dock2
  -GOLD-   2272017593D 1   1.00000     0.00000
 Structure written by MMmdl.
 35 36  0  0  0  0  0  0  0  0  2 V2000
  149.1663  140.5069  156.5513 C   0  0  0  0  0  0  0  0  0  0  0  0
  150.3140  141.3544  155.9863 C   0  0  2  0  0  0  0  0  0  0  0  0
  151.5354  140.4780  155.6353 C   0  0  0  0  0  0  0  0  0  0  0  0
  151.1612  139.1586  155.1152 N   0  0  0  0  0  0  0  0  0  0  0  0
  151.5940  137.9374  155.5644 C   0  0  0  0  0  0  0  0  0  0  0  0
  150.9710  136.9930  154.7900 C   0  0  0  0  0  0  0  0  0  0  0  0
  150.1884  137.6770  153.8988 N   0  3  0  0  0  0  0  0  0  0  0  0
  150.3094  138.9940  154.0946 C   0  0  0  0  0  0  0  0  0  0  0  0
  150.6671  142.3812  156.9657 N   0  0  0  0  0  0  0  0  0  0  0  0
  151.3193  142.1774  158.1241 C   0  0  0  0  0  0  0  0  0  0  0  0
  151.6963  141.0645  158.4935 O   0  0  0  0  0  0  0  0  0  0  0  0
  151.5133  143.2982  158.8521 N   0  0  0  0  0  0  0  0  0  0  0  0
  151.8218  143.3684  160.2837 C   0  0  0  0  0  0  0  0  0  0  0  0
  152.1924  144.8262  160.5579 C   0  0  0  0  0  0  0  0  0  0  0  0
  151.4795  145.6049  159.4617 C   0  0  0  0  0  0  0  0  0  0  0  0
  151.4508  144.6404  158.2762 C   0  0  0  0  0  0  0  0  0  0  0  0
  148.8488  139.7491  155.8346 H   0  0  0  0  0  0  0  0  0  0  0  0
  148.2971  141.1246  156.7805 H   0  0  0  0  0  0  0  0  0  0  0  0
  149.4625  139.9947  157.4675 H   0  0  0  0  0  0  0  0  0  0  0  0
  149.9447  141.8276  155.0746 H   0  0  0  0  0  0  0  0  0  0  0  0
  152.1774  140.9745  154.9057 H   0  0  0  0  0  0  0  0  0  0  0  0
  152.1439  140.3065  156.5242 H   0  0  0  0  0  0  0  0  0  0  0  0
  152.2892  137.8344  156.3849 H   0  0  0  0  0  0  0  0  0  0  0  0
  151.0234  135.9142  154.8070 H   0  0  0  0  0  0  0  0  0  0  0  0
  149.8071  139.7701  153.5451 H   0  0  0  0  0  0  0  0  0  0  0  0
  150.4012  143.3292  156.7418 H   0  0  0  0  0  0  0  0  0  0  0  0
  150.9349  143.0866  160.8532 H   0  0  0  0  0  0  0  0  0  0  0  0
  152.6365  142.7000  160.5666 H   0  0  0  0  0  0  0  0  0  0  0  0
  151.9127  145.1530  161.5596 H   0  0  0  0  0  0  0  0  0  0  0  0
  153.2705  144.9551  160.4535 H   0  0  0  0  0  0  0  0  0  0  0  0
  150.4591  145.8268  159.7767 H   0  0  0  0  0  0  0  0  0  0  0  0
  151.9696  146.5500  159.2264 H   0  0  0  0  0  0  0  0  0  0  0  0
  152.3220  144.7929  157.6372 H   0  0  0  0  0  0  0  0  0  0  0  0
  150.5557  144.7857  157.6695 H   0  0  0  0  0  0  0  0  0  0  0  0
  149.6004  137.2500  153.1940 H   0  0  0  0  0  0  0  0  0  0  0  0
  1  2  1  0  0  0  0
  1 17  1  0  0  0  0
  1 18  1  0  0  0  0
  1 19  1  0  0  0  0
  2  3  1  0  0  0  0
  2  9  1  0  0  0  0
  2 20  1  0  0  0  0
  3  4  1  0  0  0  0
  3 21  1  0  0  0  0
  3 22  1  0  0  0  0
  4  8  1  0  0  0  0
  4  5  1  0  0  0  0
  5  6  2  0  0  0  0
  5 23  1  0  0  0  0
  6  7  1  0  0  0  0
  6 24  1  0  0  0  0
  7  8  2  0  0  0  0
  7 35  1  0  0  0  0
  8 25  1  0  0  0  0
  9 10  1  0  0  0  0
  9 26  1  0  0  0  0
 10 11  2  0  0  0  0
 10 12  1  0  0  0  0
 12 16  1  0  0  0  0
 12 13  1  0  0  0  0
 13 14  1  0  0  0  0
 13 27  1  0  0  0  0
 13 28  1  0  0  0  0
 14 15  1  0  0  0  0
 14 29  1  0  0  0  0
 14 30  1  0  0  0  0
 15 16  1  0  0  0  0
 15 31  1  0  0  0  0
 15 32  1  0  0  0  0
 16 33  1  0  0  0  0
 16 34  1  0  0  0  0
M  CHG  1   7   1
M  END
> <s_m_source_file>
AV-unprocessed.smi

> <i_m_source_file_index>
3184

> <i_lp_mmshare_version>
43012

> <i_f3d_flags>
0

> <s_epik_input>
W2NIXTFuW2NIXVtjSF1uMVtDSDJdW0NAQEhdKFtDSDNdKVtOSF1DKD1PKU4yW0NIMl1bQ0gyXVtDSDJdW0NIMl0y

> <s_epik_cmdline>
J2VwaWtfcHl0aG9uJywgJy1waCcsICc3LjAnLCAnLXRuJywgJzgnLCAnLW1hJywgJzIwMCcsICctbWV0YWxfYmluZGluZycsICctaW1hZScsICc8aW5maWxlLm1hZT4nLCAnLW9tYWUnLCAnPG91dGZpbGUubWFlPic=

> <r_lp_tautomer_probability>
1

> <r_epik_Ionization_Penalty>
0.25331

> <r_epik_Ionization_Penalty_Charging>
0

> <r_epik_Ionization_Penalty_Neutral>
0.25331

> <r_epik_State_Penalty>
0.244676

> <r_epik_Charging_Adjusted_Penalty>
0.244676

> <i_epik_Tot_Q>
1

> <i_epik_Tot_abs_Q>
1

> <r_epik_Metal_State_Penalty>
0.535078

> <b_epik_Metal_Only>
0

> <s_lp_Force_Field>
OPLS_2005

> <r_lp_Energy>
36.6247

> <b_lp_Chiralities_Consistent>
1

> <s_lp_Variant>
AV-unprocessed.smi:3184-1

> <Gold.Version>
5.8.1

> <Gold.Id.Protein>
6NUR|6NUR_protein|mol2

> <Gold.PLP.Fitness>
43.5533

> <Gold.PLP.PLP>
-35.8307

> <Gold.PLP.part.hbond>
-2.2405

> <Gold.PLP.part.metal>
0.0000

> <Gold.PLP.part.buried>
-1.9469

> <Gold.PLP.part.nonpolar>
-31.0416

> <Gold.PLP.part.repulsive>
0.0899

> <Gold.PLP.ligand.clash>
0.8377

> <Gold.PLP.ligand.torsion>
0.5920

> <Gold.PLP.Chemscore.Hbond>
2.2808

> <Gold.PLP.Chemscore.CHOScore>
0.9597

> <Gold.PLP.Chemscore.Metal>
0.0000

> <Gold.Chemscore.Hbonds>
donor molecule, donor type, donor heavy atom, donor atom, acceptor molecule, acceptor atom, score
      L1  H     7    35       P1  7948  2.00
      L1  H     9    26       P1  8028  0.28
      L1  C     8    25       P1  7957  0.97

> <Gold.PLP.Chemscore.Internal.Correction>
0.0227

> <Gold.Rescore>
     Score         DG    S(hbond)    S(metal)    S(lipo)     H(rot)  DE(clash)    DE(int)     intcor
     13.65     -15.95       1.91        0.00      71.16       1.65       0.30       2.00       ----

> <Gold.Chemscore.Fitness>
13.6463

> <Gold.Chemscore.DG>
-15.9464

> <Gold.Chemscore.ZeroCoef>
-5.4800

> <Gold.Chemscore.Hbond>
1.9065

> <Gold.Chemscore.Metal>
0.0000

> <Gold.Chemscore.Lipo>
71.1620

> <Gold.Chemscore.Internal_Hbond>
0.0000

> <Gold.Chemscore.DEClash>
0.3019

> <Gold.Chemscore.DEInternal>
1.9983

> <Gold.Chemscore.Rot>
1.6513

> <Gold.Chemscore.Internal.Correction>
   9.000000E+99

> <Gold.Chemscore.Hbonds>
donor molecule, donor type, donor heavy atom, donor atom, acceptor molecule, acceptor atom, score
      L1  H     7    35       P1  7948  0.74
      L1  H     9    26       P1  8028  0.27

> <Gold.Chemscore.Hbond.Weighted>
-6.3677

> <Gold.Chemscore.Metal.Weighted>
-0.0000

> <Gold.Chemscore.Lipo.Weighted>
-8.3260

> <Gold.Chemscore.Internal_Hbond.Weighted>
0.0000

> <Gold.Chemscore.DEClash.Weighted>
0.3019

> <Gold.Chemscore.DEInternal.Weighted>
1.9983

> <Gold.Chemscore.Rot.Weighted>
4.2273

> <Gold.Chemscore.Internal.Correction.Weighted>
   9.000000E+99

> <Gold.Protein.RotatedTorsions>
[ 6907 6896 6895 6894 ] final  177.75 input  -60.11 | X-H torsion
[ 7974 7965 7964 7962 ] final   -1.54 input  175.53 | X-H torsion
[ 8008 7997 7996 7995 ] final -106.65 input   59.86 | X-H torsion
[ 10167 10162 10161 10158 ] final -164.50 input  -65.29 | X-H torsion
[ 10718 10713 10712 10709 ] final -103.57 input   66.30 | X-H torsion
[ 10763 10752 10751 10750 ] final -149.02 input  -60.55 | X-H torsion
[ 11005 11000 10999 10996 ] final   75.02 input  -57.11 | X-H torsion

> <Gold.Protein.ActiveResidues>
 VAL166  LYS551  ARG553  GLY616  TRP617  ASP618  TYR619  PRO620  LYS621  CYS622 
 ASP623  PHE694  ASN695  SER759  ASP760  ASP761  ALA762  ILE779  LEU786  VAL792 
 PHE793  MET794  SER795  GLU796  ALA797  LYS798  CYS799  TRP800  GLU811  SER814 

> <Gold.Protein.RotatedAtoms>
  151.6989  133.3311  159.3261 H   0  0  0  0  0  0  0  0  0  0  0  0  # atno 6907 bound_to 6896
  150.7745  134.6633  159.6361 H   0  0  0  0  0  0  0  0  0  0  0  0  # atno 6908 bound_to 6896
  152.3781  134.6635  160.0204 H   0  0  0  0  0  0  0  0  0  0  0  0  # atno 6909 bound_to 6896
  146.2416  140.1435  142.8335 H   0  0  0  0  0  0  0  0  0  0  0  0  # atno 7974 bound_to 7965
  154.9177  140.0408  157.1981 H   0  0  0  0  0  0  0  0  0  0  0  0  # atno 8008 bound_to 7997
  154.8285  140.2895  155.5717 H   0  0  0  0  0  0  0  0  0  0  0  0  # atno 8009 bound_to 7997
  156.2985  140.2505  156.3205 H   0  0  0  0  0  0  0  0  0  0  0  0  # atno 8010 bound_to 7997
  139.6246  144.0556  152.1964 H   0  0  0  0  0  0  0  0  0  0  0  0  # atno 10167 bound_to 10162
  156.0270  130.5474  150.7272 H   0  0  0  0  0  0  0  0  0  0  0  0  # atno 10718 bound_to 10713
  154.8201  135.3320  154.7063 H   0  0  0  0  0  0  0  0  0  0  0  0  # atno 10763 bound_to 10752
  153.7698  135.6926  153.4913 H   0  0  0  0  0  0  0  0  0  0  0  0  # atno 10764 bound_to 10752
  153.2053  135.4501  155.0264 H   0  0  0  0  0  0  0  0  0  0  0  0  # atno 10765 bound_to 10752
  139.9363  134.7482  156.1219 H   0  0  0  0  0  0  0  0  0  0  0  0  # atno 11005 bound_to 11000
  145.0227  140.8806  143.5157 LP  0  0  0  0  0  0  0  0  0  0  0  0  # atno 17320 bound_to 7965
  145.1486  139.2528  143.5452 LP  0  0  0  0  0  0  0  0  0  0  0  0  # atno 17321 bound_to 7965
  140.0207  144.6155  150.7569 LP  0  0  0  0  0  0  0  0  0  0  0  0  # atno 17342 bound_to 10162
  140.7403  143.2803  151.3619 LP  0  0  0  0  0  0  0  0  0  0  0  0  # atno 17343 bound_to 10162
  157.4873  131.0908  151.0467 LP  0  0  0  0  0  0  0  0  0  0  0  0  # atno 17370 bound_to 10713
  157.0884  130.5932  149.5434 LP  0  0  0  0  0  0  0  0  0  0  0  0  # atno 17371 bound_to 10713
  141.0978  133.6689  156.2685 LP  0  0  0  0  0  0  0  0  0  0  0  0  # atno 17394 bound_to 11000
  140.6067  134.5500  157.5527 LP  0  0  0  0  0  0  0  0  0  0  0  0  # atno 17395 bound_to 11000

$$$$
