AV-unprocessed.smi:39|AV-procd|sdf|356|dock10
  -GOLD-   2262016193D 1   1.00000     0.00000
 Structure written by MMmdl.
 32 33  0  0  0  0  0  0  0  0  3 V2000
  153.2649  142.5079  159.4297 C   0  0  0  0  0  0  0  0  0  0  0  0
  152.0505  142.2550  158.5513 C   0  0  0  0  0  0  0  0  0  0  0  0
  151.5486  141.0104  158.3450 C   0  0  0  0  0  0  0  0  0  0  0  0
  150.4363  140.7465  157.5531 N   0  0  0  0  0  0  0  0  0  0  0  0
  149.9115  139.3416  157.3216 C   0  0  2  0  0  0  0  0  0  0  0  0
  150.7222  138.2989  158.1098 C   0  0  0  0  0  0  0  0  0  0  0  0
  150.8469  137.1749  157.1027 C   0  0  2  0  0  0  0  0  0  0  0  0
  151.9545  136.2629  157.4016 N   0  0  0  0  0  0  0  0  0  0  0  0
  152.5402  136.4418  158.4777 N   0  3  0  0  0  0  0  0  0  0  0  0
  152.9819  136.5426  159.5216 N   0  5  0  0  0  0  0  0  0  0  0  0
  150.9762  137.9439  155.7790 C   0  0  2  0  0  0  0  0  0  0  0  0
  152.3760  138.5324  155.4876 C   0  0  0  0  0  0  0  0  0  0  0  0
  152.2462  139.8313  154.9514 O   0  0  0  0  0  0  0  0  0  0  0  0
  150.0342  139.0006  155.9671 O   0  0  0  0  0  0  0  0  0  0  0  0
  149.8137  141.8135  156.8715 C   0  0  0  0  0  0  0  0  0  0  0  0
  148.8604  141.6525  156.1104 O   0  0  0  0  0  0  0  0  0  0  0  0
  150.3249  143.0916  157.0870 N   0  0  0  0  0  0  0  0  0  0  0  0
  151.4150  143.4042  157.9018 C   0  0  0  0  0  0  0  0  0  0  0  0
  151.7699  144.5758  158.0191 O   0  0  0  0  0  0  0  0  0  0  0  0
  148.8546  139.3778  157.5926 H   0  0  0  0  0  0  0  0  0  0  0  0
  149.9008  136.6291  157.0944 H   0  0  0  0  0  0  0  0  0  0  0  0
  150.6646  137.3082  154.9490 H   0  0  0  0  0  0  0  0  0  0  0  0
  149.8732  143.8570  156.6077 H   0  0  0  0  0  0  0  0  0  0  0  0
  153.6506  141.5854  159.8648 H   0  0  0  0  0  0  0  0  0  0  0  0
  153.0094  143.1808  160.2490 H   0  0  0  0  0  0  0  0  0  0  0  0
  154.0668  142.9641  158.8482 H   0  0  0  0  0  0  0  0  0  0  0  0
  152.0577  140.1926  158.8314 H   0  0  0  0  0  0  0  0  0  0  0  0
  151.7032  138.7025  158.3669 H   0  0  0  0  0  0  0  0  0  0  0  0
  150.2062  138.0059  159.0246 H   0  0  0  0  0  0  0  0  0  0  0  0
  153.0120  138.5493  156.3717 H   0  0  0  0  0  0  0  0  0  0  0  0
  152.8963  137.9389  154.7365 H   0  0  0  0  0  0  0  0  0  0  0  0
  152.9604  140.3612  155.2714 H   0  0  0  0  0  0  0  0  0  0  0  0
  1  2  1  0  0  0  0
  1 24  1  0  0  0  0
  1 25  1  0  0  0  0
  1 26  1  0  0  0  0
  2 18  1  0  0  0  0
  2  3  2  0  0  0  0
  3  4  1  0  0  0  0
  3 27  1  0  0  0  0
  4  5  1  0  0  0  0
  4 15  1  0  0  0  0
  5 20  1  0  0  0  0
  5 14  1  0  0  0  0
  5  6  1  0  0  0  0
  6  7  1  0  0  0  0
  6 28  1  0  0  0  0
  6 29  1  0  0  0  0
  7 21  1  0  0  0  0
  7  8  1  0  0  0  0
  7 11  1  0  0  0  0
  8  9  2  0  0  0  0
  9 10  2  0  0  0  0
 11 22  1  0  0  0  0
 11 12  1  0  0  0  0
 11 14  1  0  0  0  0
 12 13  1  0  0  0  0
 12 30  1  0  0  0  0
 12 31  1  0  0  0  0
 13 32  1  0  0  0  0
 15 16  2  0  0  0  0
 15 17  1  0  0  0  0
 17 23  1  0  0  0  0
 17 18  1  0  0  0  0
 18 19  2  0  0  0  0
M  CHG  1   9   1
M  CHG  1  10  -1
M  END
> <s_m_source_file>
AV-unprocessed.smi

> <i_m_source_file_index>
39

> <i_lp_mmshare_version>
43012

> <i_f3d_flags>
0

> <s_epik_input>
Tz1jMVtuSF1jKD1PKW4oW2NIXWMxW0NIM10pW0NASF0yW0NIMl1bQ0BIXShOPVtOK109W04tXSlbQ0BIXShPMilbQ0gyXVtPSF0=

> <s_epik_cmdline>
J2VwaWtfcHl0aG9uJywgJy1waCcsICc3LjAnLCAnLXRuJywgJzgnLCAnLW1hJywgJzIwMCcsICctbWV0YWxfYmluZGluZycsICctaW1hZScsICc8aW5maWxlLm1hZT4nLCAnLW9tYWUnLCAnPG91dGZpbGUubWFlPic=

> <r_lp_tautomer_probability>
0.999537

> <r_epik_Ionization_Penalty>
0.00127512

> <r_epik_Ionization_Penalty_Charging>
0.00127507

> <r_epik_Ionization_Penalty_Neutral>
5.43433e-08

> <r_epik_State_Penalty>
0.000844892

> <r_epik_Charging_Adjusted_Penalty>
0.00211996

> <i_epik_Tot_Q>
0

> <i_epik_Tot_abs_Q>
2

> <r_epik_Metal_State_Penalty>
0.680636

> <b_epik_Metal_Only>
0

> <s_epik_Chemistry_Notes>
This compound contains an acetal/aminal-like group ( X-CH(R)-Y where X, Y are N, S, or O) that may be acid/base labile, releasing an aldehyde.

> <s_lp_Force_Field>
OPLS_2005

> <r_lp_Energy>
27.6629

> <b_lp_Chiralities_Consistent>
1

> <s_lp_Variant>
AV-unprocessed.smi:39-6

> <Gold.Version>
5.8.1

> <Gold.Id.Protein>
6NUR|6NUR_protein|mol2

> <Gold.PLP.Fitness>
36.8184

> <Gold.PLP.PLP>
-27.5784

> <Gold.PLP.part.hbond>
-5.1253

> <Gold.PLP.part.metal>
0.0000

> <Gold.PLP.part.buried>
-6.0230

> <Gold.PLP.part.nonpolar>
-16.8605

> <Gold.PLP.part.repulsive>
0.2129

> <Gold.PLP.ligand.clash>
0.0000

> <Gold.PLP.ligand.torsion>
0.5812

> <Gold.PLP.Chemscore.Hbond>
3.4560

> <Gold.PLP.Chemscore.CHOScore>
0.0000

> <Gold.PLP.Chemscore.Metal>
0.0000

> <Gold.Chemscore.Hbonds>
donor molecule, donor type, donor heavy atom, donor atom, acceptor molecule, acceptor atom, score
      L1  H    17    23       P1  8028  1.00
      P1  H  6896  6908       L1    10  0.55
      P1  H  7989  7998       L1    13  0.74

> <Gold.PLP.Chemscore.Internal.Correction>
0.0344

> <Gold.Rescore>
     Score         DG    S(hbond)    S(metal)    S(lipo)     H(rot)  DE(clash)    DE(int)     intcor
     12.69     -14.77       3.13        0.00      50.18       2.75       0.06       2.02       ----

> <Gold.Chemscore.Fitness>
12.6890

> <Gold.Chemscore.DG>
-14.7684

> <Gold.Chemscore.ZeroCoef>
-5.4800

> <Gold.Chemscore.Hbond>
3.1327

> <Gold.Chemscore.Metal>
0.0000

> <Gold.Chemscore.Lipo>
50.1823

> <Gold.Chemscore.Internal_Hbond>
0.0000

> <Gold.Chemscore.DEClash>
0.0619

> <Gold.Chemscore.DEInternal>
2.0175

> <Gold.Chemscore.Rot>
2.7524

> <Gold.Chemscore.Internal.Correction>
   9.000000E+99

> <Gold.Chemscore.Hbonds>
donor molecule, donor type, donor heavy atom, donor atom, acceptor molecule, acceptor atom, score
      L1  H    17    23       P1  8028  0.99
      P1  H  6896  6908       L1    10  0.03
      P1  H  7989  7998       L1    13  0.19

> <Gold.Chemscore.Hbond.Weighted>
-10.4632

> <Gold.Chemscore.Metal.Weighted>
-0.0000

> <Gold.Chemscore.Lipo.Weighted>
-5.8713

> <Gold.Chemscore.Internal_Hbond.Weighted>
0.0000

> <Gold.Chemscore.DEClash.Weighted>
0.0619

> <Gold.Chemscore.DEInternal.Weighted>
2.0175

> <Gold.Chemscore.Rot.Weighted>
7.0461

> <Gold.Chemscore.Internal.Correction.Weighted>
   9.000000E+99

> <Gold.Protein.RotatedTorsions>
[ 6907 6896 6895 6894 ] final  -75.46 input  -60.11 | X-H torsion
[ 7974 7965 7964 7962 ] final -143.00 input  175.53 | X-H torsion
[ 8008 7997 7996 7995 ] final -141.98 input   59.86 | X-H torsion
[ 10167 10162 10161 10158 ] final -123.98 input  -65.29 | X-H torsion
[ 10718 10713 10712 10709 ] final  -75.82 input   66.30 | X-H torsion
[ 10763 10752 10751 10750 ] final -124.16 input  -60.55 | X-H torsion
[ 11005 11000 10999 10996 ] final  173.06 input  -57.11 | X-H torsion

> <Gold.Protein.ActiveResidues>
 VAL166  LYS551  ARG553  GLY616  TRP617  ASP618  TYR619  PRO620  LYS621  CYS622 
 ASP623  PHE694  ASN695  SER759  ASP760  ASP761  ALA762  ILE779  LEU786  VAL792 
 PHE793  MET794  SER795  GLU796  ALA797  LYS798  CYS799  TRP800  GLU811  SER814 

> <Gold.Protein.RotatedAtoms>
  150.7058  134.4718  159.5428 H   0  0  0  0  0  0  0  0  0  0  0  0  # atno 6907 bound_to 6896
  152.2372  134.8261  160.0474 H   0  0  0  0  0  0  0  0  0  0  0  0  # atno 6908 bound_to 6896
  151.9055  133.3513  159.3882 H   0  0  0  0  0  0  0  0  0  0  0  0  # atno 6909 bound_to 6896
  144.8402  140.5889  143.5457 H   0  0  0  0  0  0  0  0  0  0  0  0  # atno 7974 bound_to 7965
  155.4867  140.0564  157.2959 H   0  0  0  0  0  0  0  0  0  0  0  0  # atno 8008 bound_to 7997
  154.4639  140.2009  156.0122 H   0  0  0  0  0  0  0  0  0  0  0  0  # atno 8009 bound_to 7997
  156.0940  140.3229  155.7857 H   0  0  0  0  0  0  0  0  0  0  0  0  # atno 8010 bound_to 7997
  139.9977  143.5573  152.2316 H   0  0  0  0  0  0  0  0  0  0  0  0  # atno 10167 bound_to 10162
  156.0195  130.4450  150.3100 H   0  0  0  0  0  0  0  0  0  0  0  0  # atno 10718 bound_to 10713
  154.8719  135.4073  154.3060 H   0  0  0  0  0  0  0  0  0  0  0  0  # atno 10763 bound_to 10752
  153.3911  135.7015  153.6499 H   0  0  0  0  0  0  0  0  0  0  0  0  # atno 10764 bound_to 10752
  153.5281  135.3673  155.2634 H   0  0  0  0  0  0  0  0  0  0  0  0  # atno 10765 bound_to 10752
  140.3364  134.7314  157.4171 H   0  0  0  0  0  0  0  0  0  0  0  0  # atno 11005 bound_to 11000
  145.4710  139.1503  143.3814 LP  0  0  0  0  0  0  0  0  0  0  0  0  # atno 17320 bound_to 7965
  146.2695  140.4843  142.8820 LP  0  0  0  0  0  0  0  0  0  0  0  0  # atno 17321 bound_to 7965
  139.6294  144.7642  151.2569 LP  0  0  0  0  0  0  0  0  0  0  0  0  # atno 17342 bound_to 10162
  140.7430  143.6506  150.8251 LP  0  0  0  0  0  0  0  0  0  0  0  0  # atno 17343 bound_to 10162
  157.1202  131.0244  151.3012 LP  0  0  0  0  0  0  0  0  0  0  0  0  # atno 17370 bound_to 10713
  157.4634  130.7667  149.7257 LP  0  0  0  0  0  0  0  0  0  0  0  0  # atno 17371 bound_to 10713
  140.0817  134.5721  155.8533 LP  0  0  0  0  0  0  0  0  0  0  0  0  # atno 17394 bound_to 11000
  141.2050  133.6643  156.6155 LP  0  0  0  0  0  0  0  0  0  0  0  0  # atno 17395 bound_to 11000

$$$$
