AV-unprocessed.smi:701|AV-procd|sdf|3410|dock6
  -GOLD-   22720 0393D 1   1.00000     0.00000
 Structure written by MMmdl.
 49 51  0  0  0  0  0  0  0  0  1 V2000
  150.5523  142.1724  157.4297 C   0  0  0  0  0  0  0  0  0  0  0  0
  150.3893  141.5586  156.0376 C   0  0  0  0  0  0  0  0  0  0  0  0
  149.0274  141.6513  155.6559 O   0  0  0  0  0  0  0  0  0  0  0  0
  148.7650  141.0777  154.3862 C   0  0  2  0  0  0  0  0  0  0  0  0
  147.3624  141.3746  153.8478 C   0  0  0  0  0  0  0  0  0  0  0  0
  147.3935  139.9496  153.2981 C   0  0  2  0  0  0  0  0  0  0  0  0
  146.0959  139.2881  153.3755 N   0  0  0  0  0  0  0  0  0  0  0  0
  145.9276  137.9812  153.6233 C   0  0  0  0  0  0  0  0  0  0  0  0
  146.8649  137.2084  153.8273 O   0  0  0  0  0  0  0  0  0  0  0  0
  144.4787  137.4785  153.6742 C   0  0  0  0  0  0  0  0  0  0  0  0
  144.3020  136.2010  152.9691 N   0  0  0  0  0  0  0  0  0  0  0  0
  144.6212  136.0905  151.6231 C   0  0  0  0  0  0  0  0  0  0  0  0
  144.4677  134.9483  150.9119 C   0  0  0  0  0  0  0  0  0  0  0  0
  143.9432  133.7456  151.5499 C   0  0  0  0  0  0  0  0  0  0  0  0
  143.7694  132.6646  150.9917 O   0  0  0  0  0  0  0  0  0  0  0  0
  143.6323  133.8975  152.9037 N   0  0  0  0  0  0  0  0  0  0  0  0
  143.7861  135.0718  153.6420 C   0  0  0  0  0  0  0  0  0  0  0  0
  143.4758  135.0988  154.8324 O   0  0  0  0  0  0  0  0  0  0  0  0
  148.3916  139.5702  154.4271 C   0  0  0  0  0  0  0  0  0  0  0  0
  147.7791  139.0312  155.7464 C   0  0  0  0  0  0  0  0  0  0  0  0
  148.8142  138.7825  156.8605 C   0  0  0  0  0  0  0  0  0  0  0  0
  149.9484  137.8681  156.3834 C   0  0  0  0  0  0  0  0  0  0  0  0
  150.5707  138.3927  155.0844 C   0  0  0  0  0  0  0  0  0  0  0  0
  149.4981  138.5912  154.0025 C   0  0  0  0  0  0  0  0  0  0  0  0
  143.2638  133.0916  153.3876 H   0  0  0  0  0  0  0  0  0  0  0  0
  151.5898  142.1190  157.7602 H   0  0  0  0  0  0  0  0  0  0  0  0
  149.9395  141.6476  158.1629 H   0  0  0  0  0  0  0  0  0  0  0  0
  150.2534  143.2209  157.4314 H   0  0  0  0  0  0  0  0  0  0  0  0
  151.0222  142.0866  155.3231 H   0  0  0  0  0  0  0  0  0  0  0  0
  150.7053  140.5145  156.0508 H   0  0  0  0  0  0  0  0  0  0  0  0
  149.5487  141.2872  153.6540 H   0  0  0  0  0  0  0  0  0  0  0  0
  146.6219  141.5324  154.6341 H   0  0  0  0  0  0  0  0  0  0  0  0
  147.3217  142.1562  153.0889 H   0  0  0  0  0  0  0  0  0  0  0  0
  147.8483  139.9197  152.3047 H   0  0  0  0  0  0  0  0  0  0  0  0
  145.2765  139.8588  153.2267 H   0  0  0  0  0  0  0  0  0  0  0  0
  144.1946  137.3767  154.7225 H   0  0  0  0  0  0  0  0  0  0  0  0
  143.8014  138.2311  153.2646 H   0  0  0  0  0  0  0  0  0  0  0  0
  145.0084  136.9580  151.1079 H   0  0  0  0  0  0  0  0  0  0  0  0
  144.7325  134.9244  149.8647 H   0  0  0  0  0  0  0  0  0  0  0  0
  147.0164  139.7114  156.1260 H   0  0  0  0  0  0  0  0  0  0  0  0
  147.2607  138.0911  155.5543 H   0  0  0  0  0  0  0  0  0  0  0  0
  149.2332  139.7268  157.2062 H   0  0  0  0  0  0  0  0  0  0  0  0
  148.3234  138.3384  157.7267 H   0  0  0  0  0  0  0  0  0  0  0  0
  150.7113  137.7822  157.1576 H   0  0  0  0  0  0  0  0  0  0  0  0
  149.5590  136.8627  156.2185 H   0  0  0  0  0  0  0  0  0  0  0  0
  151.0796  139.3386  155.2745 H   0  0  0  0  0  0  0  0  0  0  0  0
  151.3316  137.6963  154.7312 H   0  0  0  0  0  0  0  0  0  0  0  0
  149.0608  137.6240  153.7513 H   0  0  0  0  0  0  0  0  0  0  0  0
  149.9803  138.9384  153.0882 H   0  0  0  0  0  0  0  0  0  0  0  0
  1  2  1  0  0  0  0
  1 26  1  0  0  0  0
  1 27  1  0  0  0  0
  1 28  1  0  0  0  0
  2  3  1  0  0  0  0
  2 29  1  0  0  0  0
  2 30  1  0  0  0  0
  3  4  1  0  0  0  0
  4 19  1  0  0  0  0
  4  5  1  0  0  0  0
  4 31  1  0  0  0  0
  5  6  1  0  0  0  0
  5 32  1  0  0  0  0
  5 33  1  0  0  0  0
  6  7  1  0  0  0  0
  6 19  1  0  0  0  0
  6 34  1  0  0  0  0
  7  8  1  0  0  0  0
  7 35  1  0  0  0  0
  8  9  2  0  0  0  0
  8 10  1  0  0  0  0
 10 11  1  0  0  0  0
 10 36  1  0  0  0  0
 10 37  1  0  0  0  0
 11 17  1  0  0  0  0
 11 12  1  0  0  0  0
 12 13  2  0  0  0  0
 12 38  1  0  0  0  0
 13 14  1  0  0  0  0
 13 39  1  0  0  0  0
 14 15  2  0  0  0  0
 14 16  1  0  0  0  0
 16 25  1  0  0  0  0
 16 17  1  0  0  0  0
 17 18  2  0  0  0  0
 19 24  1  0  0  0  0
 19 20  1  0  0  0  0
 20 21  1  0  0  0  0
 20 40  1  0  0  0  0
 20 41  1  0  0  0  0
 21 22  1  0  0  0  0
 21 42  1  0  0  0  0
 21 43  1  0  0  0  0
 22 23  1  0  0  0  0
 22 44  1  0  0  0  0
 22 45  1  0  0  0  0
 23 24  1  0  0  0  0
 23 46  1  0  0  0  0
 23 47  1  0  0  0  0
 24 48  1  0  0  0  0
 24 49  1  0  0  0  0
M  END
> <s_m_source_file>
AV-unprocessed.smi

> <i_m_source_file_index>
701

> <i_lp_mmshare_version>
43012

> <i_f3d_flags>
0

> <s_epik_input>
W0NIMl0xW0NIMl1bQ0gyXVtDSDJdW0NIMl1DMTJbQ0BIXShPW0NIMl1bQ0gzXSlbQ0gyXVtDQEhdMltOSF1DKD1PKVtDSDJdbjNbY0hdW2NIXWMoPU8pW25IXWMzPU8=

> <s_epik_cmdline>
J2VwaWtfcHl0aG9uJywgJy1waCcsICc3LjAnLCAnLXRuJywgJzgnLCAnLW1hJywgJzIwMCcsICctbWV0YWxfYmluZGluZycsICctaW1hZScsICc8aW5maWxlLm1hZT4nLCAnLW9tYWUnLCAnPG91dGZpbGUubWFlPic=

> <r_lp_tautomer_probability>
0.999537

> <r_epik_Ionization_Penalty>
0.00304597

> <r_epik_Ionization_Penalty_Charging>
0.00304595

> <r_epik_Ionization_Penalty_Neutral>
1.88422e-08

> <r_epik_State_Penalty>
0.00214084

> <r_epik_Charging_Adjusted_Penalty>
0.00518679

> <i_epik_Tot_Q>
0

> <i_epik_Tot_abs_Q>
0

> <r_epik_Metal_State_Penalty>
0.361872

> <b_epik_Metal_Only>
0

> <s_lp_Force_Field>
OPLS_2005

> <r_lp_Energy>
27.3359

> <b_lp_Chiralities_Consistent>
1

> <s_lp_Variant>
AV-unprocessed.smi:701-3

> <Gold.Version>
5.8.1

> <Gold.Id.Protein>
6NUR|6NUR_protein|mol2

> <Gold.PLP.Fitness>
39.5622

> <Gold.PLP.PLP>
-31.6626

> <Gold.PLP.part.hbond>
-2.0000

> <Gold.PLP.part.metal>
0.0000

> <Gold.PLP.part.buried>
-3.8030

> <Gold.PLP.part.nonpolar>
-27.3498

> <Gold.PLP.part.repulsive>
1.8332

> <Gold.PLP.ligand.clash>
0.0000

> <Gold.PLP.ligand.torsion>
0.6923

> <Gold.PLP.Chemscore.Hbond>
2.0000

> <Gold.PLP.Chemscore.CHOScore>
0.9865

> <Gold.PLP.Chemscore.Metal>
0.0000

> <Gold.Chemscore.Hbonds>
donor molecule, donor type, donor heavy atom, donor atom, acceptor molecule, acceptor atom, score
      L1  H     7    35       P1 10175  1.00
      L1  H    16    25       P1 10957  1.00
      L1  C    12    38       P1 10171  0.99

> <Gold.PLP.Chemscore.Internal.Correction>
0.3246

> <Gold.Rescore>
     Score         DG    S(hbond)    S(metal)    S(lipo)     H(rot)  DE(clash)    DE(int)     intcor
      9.65     -15.16       1.96        0.00      72.51       2.09       0.17       5.34       ----

> <Gold.Chemscore.Fitness>
9.6536

> <Gold.Chemscore.DG>
-15.1603

> <Gold.Chemscore.ZeroCoef>
-5.4800

> <Gold.Chemscore.Hbond>
1.9625

> <Gold.Chemscore.Metal>
0.0000

> <Gold.Chemscore.Lipo>
72.5145

> <Gold.Chemscore.Internal_Hbond>
0.0000

> <Gold.Chemscore.DEClash>
0.1700

> <Gold.Chemscore.DEInternal>
5.3367

> <Gold.Chemscore.Rot>
2.0933

> <Gold.Chemscore.Internal.Correction>
   9.000000E+99

> <Gold.Chemscore.Hbonds>
donor molecule, donor type, donor heavy atom, donor atom, acceptor molecule, acceptor atom, score
      L1  H     7    35       P1 10175  1.00
      L1  H    16    25       P1 10957  0.84

> <Gold.Chemscore.Hbond.Weighted>
-6.5549

> <Gold.Chemscore.Metal.Weighted>
-0.0000

> <Gold.Chemscore.Lipo.Weighted>
-8.4842

> <Gold.Chemscore.Internal_Hbond.Weighted>
0.0000

> <Gold.Chemscore.DEClash.Weighted>
0.1700

> <Gold.Chemscore.DEInternal.Weighted>
5.3367

> <Gold.Chemscore.Rot.Weighted>
5.3588

> <Gold.Chemscore.Internal.Correction.Weighted>
   9.000000E+99

> <Gold.Protein.RotatedTorsions>
[ 6907 6896 6895 6894 ] final -135.22 input  -60.11 | X-H torsion
[ 7974 7965 7964 7962 ] final    4.50 input  175.53 | X-H torsion
[ 8008 7997 7996 7995 ] final   90.11 input   59.86 | X-H torsion
[ 10167 10162 10161 10158 ] final  -99.94 input  -65.29 | X-H torsion
[ 10718 10713 10712 10709 ] final -103.47 input   66.30 | X-H torsion
[ 10763 10752 10751 10750 ] final  -12.63 input  -60.55 | X-H torsion
[ 11005 11000 10999 10996 ] final  105.66 input  -57.11 | X-H torsion

> <Gold.Protein.ActiveResidues>
 VAL166  LYS551  ARG553  GLY616  TRP617  ASP618  TYR619  PRO620  LYS621  CYS622 
 ASP623  PHE694  ASN695  SER759  ASP760  ASP761  ALA762  ILE779  LEU786  VAL792 
 PHE793  MET794  SER795  GLU796  ALA797  LYS798  CYS799  TRP800  GLU811  SER814 

> <Gold.Protein.RotatedAtoms>
  150.9952  133.6110  159.2702 H   0  0  0  0  0  0  0  0  0  0  0  0  # atno 6907 bound_to 6896
  151.3316  135.0842  159.9350 H   0  0  0  0  0  0  0  0  0  0  0  0  # atno 6908 bound_to 6896
  152.5258  133.9580  159.7758 H   0  0  0  0  0  0  0  0  0  0  0  0  # atno 6909 bound_to 6896
  146.2444  140.0525  142.8374 H   0  0  0  0  0  0  0  0  0  0  0  0  # atno 7974 bound_to 7965
  156.0081  140.3353  155.6913 H   0  0  0  0  0  0  0  0  0  0  0  0  # atno 8008 bound_to 7997
  155.6196  140.0673  157.2700 H   0  0  0  0  0  0  0  0  0  0  0  0  # atno 8009 bound_to 7997
  154.4272  140.1779  156.1346 H   0  0  0  0  0  0  0  0  0  0  0  0  # atno 8010 bound_to 7997
  140.2572  143.3432  152.0660 H   0  0  0  0  0  0  0  0  0  0  0  0  # atno 10167 bound_to 10162
  156.0266  130.5468  150.7257 H   0  0  0  0  0  0  0  0  0  0  0  0  # atno 10718 bound_to 10713
  153.5014  135.7017  153.5830 H   0  0  0  0  0  0  0  0  0  0  0  0  # atno 10763 bound_to 10752
  153.3960  135.3884  155.1955 H   0  0  0  0  0  0  0  0  0  0  0  0  # atno 10764 bound_to 10752
  154.8710  135.3870  154.4485 H   0  0  0  0  0  0  0  0  0  0  0  0  # atno 10765 bound_to 10752
  139.8804  134.9343  156.5547 H   0  0  0  0  0  0  0  0  0  0  0  0  # atno 11005 bound_to 11000
  145.0971  140.9322  143.4734 LP  0  0  0  0  0  0  0  0  0  0  0  0  # atno 17320 bound_to 7965
  145.0710  139.3031  143.5832 LP  0  0  0  0  0  0  0  0  0  0  0  0  # atno 17321 bound_to 7965
  139.5028  144.6742  151.6169 LP  0  0  0  0  0  0  0  0  0  0  0  0  # atno 17342 bound_to 10162
  140.5995  143.9636  150.6376 LP  0  0  0  0  0  0  0  0  0  0  0  0  # atno 17343 bound_to 10162
  157.4862  131.0907  151.0480 LP  0  0  0  0  0  0  0  0  0  0  0  0  # atno 17370 bound_to 10713
  157.0900  130.5938  149.5437 LP  0  0  0  0  0  0  0  0  0  0  0  0  # atno 17371 bound_to 10713
  140.8214  133.8351  155.8899 LP  0  0  0  0  0  0  0  0  0  0  0  0  # atno 17394 bound_to 11000
  140.9415  134.1895  157.4794 LP  0  0  0  0  0  0  0  0  0  0  0  0  # atno 17395 bound_to 11000

$$$$
