AV-unprocessed.smi:2190|AV-procd|sdf|8888|dock8
  -GOLD-   2272012 93D 1   1.00000     0.00000
 Structure written by MMmdl.
 46 48  0  0  0  0  0  0  0  0  1 V2000
  146.6533  137.6274  162.9113 C   0  0  0  0  0  0  0  0  0  0  0  0
  146.7915  136.4777  161.9346 C   0  0  0  0  0  0  0  0  0  0  0  0
  146.1583  135.2465  162.1910 C   0  0  0  0  0  0  0  0  0  0  0  0
  146.2909  134.1852  161.2777 C   0  0  0  0  0  0  0  0  0  0  0  0
  147.0557  134.3476  160.1039 C   0  0  0  0  0  0  0  0  0  0  0  0
  147.1867  133.1924  159.1292 C   0  0  0  0  0  0  0  0  0  0  0  0
  147.6965  135.5791  159.8334 C   0  0  0  0  0  0  0  0  0  0  0  0
  148.4277  135.6722  158.6667 O   0  0  0  0  0  0  0  0  0  0  0  0
  149.1597  136.8646  158.4165 C   0  0  0  0  0  0  0  0  0  0  0  0
  149.6854  136.8331  156.9725 C   0  0  2  0  0  0  0  0  0  0  0  0
  149.7050  135.4902  156.5294 O   0  0  0  0  0  0  0  0  0  0  0  0
  151.1080  137.4213  156.8687 C   0  0  0  0  0  0  0  0  0  0  0  0
  151.1272  138.7717  156.3206 N   0  0  0  0  0  0  0  0  0  0  0  0
  151.0046  139.1474  155.0223 C   0  0  0  0  0  0  0  0  0  0  0  0
  150.8164  138.1333  153.9292 C   0  0  0  0  0  0  0  0  0  0  0  0
  151.8469  137.1686  153.8555 O   0  0  0  0  0  0  0  0  0  0  0  0
  151.0526  140.4625  154.7960 N   0  0  0  0  0  0  0  0  0  0  0  0
  151.2209  140.9862  156.0623 C   0  0  0  0  0  0  0  0  0  0  0  0
  151.3409  142.3269  156.4928 C   0  0  0  0  0  0  0  0  0  0  0  0
  151.5057  142.6252  157.8614 C   0  0  0  0  0  0  0  0  0  0  0  0
  151.5520  141.5895  158.8168 C   0  0  0  0  0  0  0  0  0  0  0  0
  151.4336  140.2468  158.4090 C   0  0  0  0  0  0  0  0  0  0  0  0
  151.2699  139.9542  157.0414 C   0  0  0  0  0  0  0  0  0  0  0  0
  147.5554  136.6424  160.7617 C   0  0  0  0  0  0  0  0  0  0  0  0
  146.1742  137.3075  163.8370 H   0  0  0  0  0  0  0  0  0  0  0  0
  146.0519  138.4239  162.4724 H   0  0  0  0  0  0  0  0  0  0  0  0
  147.6336  138.0343  163.1605 H   0  0  0  0  0  0  0  0  0  0  0  0
  145.5692  135.1105  163.0862 H   0  0  0  0  0  0  0  0  0  0  0  0
  145.8015  133.2445  161.4830 H   0  0  0  0  0  0  0  0  0  0  0  0
  148.2362  132.9331  158.9867 H   0  0  0  0  0  0  0  0  0  0  0  0
  146.7658  133.4663  158.1613 H   0  0  0  0  0  0  0  0  0  0  0  0
  146.6642  132.3050  159.4874 H   0  0  0  0  0  0  0  0  0  0  0  0
  148.4820  137.7120  158.5334 H   0  0  0  0  0  0  0  0  0  0  0  0
  149.9800  136.9921  159.1254 H   0  0  0  0  0  0  0  0  0  0  0  0
  149.0135  137.4019  156.3297 H   0  0  0  0  0  0  0  0  0  0  0  0
  150.1071  135.4608  155.6749 H   0  0  0  0  0  0  0  0  0  0  0  0
  151.5843  137.4360  157.8492 H   0  0  0  0  0  0  0  0  0  0  0  0
  151.7342  136.7842  156.2427 H   0  0  0  0  0  0  0  0  0  0  0  0
  149.8716  137.6113  154.0777 H   0  0  0  0  0  0  0  0  0  0  0  0
  150.7582  138.6503  152.9712 H   0  0  0  0  0  0  0  0  0  0  0  0
  151.6871  136.6144  153.1071 H   0  0  0  0  0  0  0  0  0  0  0  0
  151.3062  143.1269  155.7682 H   0  0  0  0  0  0  0  0  0  0  0  0
  151.5974  143.6534  158.1791 H   0  0  0  0  0  0  0  0  0  0  0  0
  151.6789  141.8263  159.8630 H   0  0  0  0  0  0  0  0  0  0  0  0
  151.4709  139.4520  159.1387 H   0  0  0  0  0  0  0  0  0  0  0  0
  148.0250  137.5997  160.5944 H   0  0  0  0  0  0  0  0  0  0  0  0
  1  2  1  0  0  0  0
  1 25  1  0  0  0  0
  1 26  1  0  0  0  0
  1 27  1  0  0  0  0
  2 24  1  0  0  0  0
  2  3  2  0  0  0  0
  3  4  1  0  0  0  0
  3 28  1  0  0  0  0
  4  5  2  0  0  0  0
  4 29  1  0  0  0  0
  5  6  1  0  0  0  0
  5  7  1  0  0  0  0
  6 30  1  0  0  0  0
  6 31  1  0  0  0  0
  6 32  1  0  0  0  0
  7  8  1  0  0  0  0
  7 24  2  0  0  0  0
  8  9  1  0  0  0  0
  9 10  1  0  0  0  0
  9 33  1  0  0  0  0
  9 34  1  0  0  0  0
 10 11  1  0  0  0  0
 10 12  1  0  0  0  0
 10 35  1  0  0  0  0
 11 36  1  0  0  0  0
 12 13  1  0  0  0  0
 12 37  1  0  0  0  0
 12 38  1  0  0  0  0
 13 23  1  0  0  0  0
 13 14  1  0  0  0  0
 14 15  1  0  0  0  0
 14 17  2  0  0  0  0
 15 16  1  0  0  0  0
 15 39  1  0  0  0  0
 15 40  1  0  0  0  0
 16 41  1  0  0  0  0
 17 18  1  0  0  0  0
 18 23  2  0  0  0  0
 18 19  1  0  0  0  0
 19 20  2  0  0  0  0
 19 42  1  0  0  0  0
 20 21  1  0  0  0  0
 20 43  1  0  0  0  0
 21 22  2  0  0  0  0
 21 44  1  0  0  0  0
 22 23  1  0  0  0  0
 22 45  1  0  0  0  0
 24 46  1  0  0  0  0
M  END
> <s_m_source_file>
AV-unprocessed.smi

> <i_m_source_file_index>
2190

> <i_lp_mmshare_version>
43012

> <i_f3d_flags>
0

> <s_epik_input>
W0NIM11jMVtjSF1bY0hdYyhbQ0gzXSljKFtjSF0xKU9bQ0gyXVtDQEhdKFtPSF0pW0NIMl1uKGMobjIpW0NIMl1bT0hdKWMoYzIzKVtjSF1bY0hdW2NIXVtjSF0z

> <s_epik_cmdline>
J2VwaWtfcHl0aG9uJywgJy1waCcsICc3LjAnLCAnLXRuJywgJzgnLCAnLW1hJywgJzIwMCcsICctbWV0YWxfYmluZGluZycsICctaW1hZScsICc8aW5maWxlLm1hZT4nLCAnLW9tYWUnLCAnPG91dGZpbGUubWFlPic=

> <r_lp_tautomer_probability>
1

> <r_epik_Ionization_Penalty>
0.0555874

> <r_epik_Ionization_Penalty_Charging>
0

> <r_epik_Ionization_Penalty_Neutral>
0.0555874

> <r_epik_State_Penalty>
0.0478234

> <r_epik_Charging_Adjusted_Penalty>
0.0478234

> <i_epik_Tot_Q>
0

> <i_epik_Tot_abs_Q>
0

> <r_epik_Metal_State_Penalty>
4.98044e-05

> <b_epik_Metal_Only>
0

> <s_lp_Force_Field>
OPLS_2005

> <r_lp_Energy>
17.5677

> <b_lp_Chiralities_Consistent>
1

> <s_lp_Variant>
AV-unprocessed.smi:2190-1

> <Gold.Version>
5.8.1

> <Gold.Id.Protein>
6NUR|6NUR_protein|mol2

> <Gold.PLP.Fitness>
53.0919

> <Gold.PLP.PLP>
-47.1145

> <Gold.PLP.part.hbond>
-4.0000

> <Gold.PLP.part.metal>
0.0000

> <Gold.PLP.part.buried>
-5.4390

> <Gold.PLP.part.nonpolar>
-38.2202

> <Gold.PLP.part.repulsive>
0.0656

> <Gold.PLP.ligand.clash>
0.1399

> <Gold.PLP.ligand.torsion>
1.4551

> <Gold.PLP.Chemscore.Hbond>
2.9913

> <Gold.PLP.Chemscore.CHOScore>
0.0000

> <Gold.PLP.Chemscore.Metal>
0.0000

> <Gold.Chemscore.Hbonds>
donor molecule, donor type, donor heavy atom, donor atom, acceptor molecule, acceptor atom, score
      L1  H    16    41       P1  7949  1.00
      P1  H  7989  7998       L1    17  0.86

> <Gold.PLP.Chemscore.Internal.Correction>
0.0538

> <Gold.Rescore>
     Score         DG    S(hbond)    S(metal)    S(lipo)     H(rot)  DE(clash)    DE(int)     intcor
     17.90     -19.51       2.25        0.00     120.30       2.96       0.08       1.54       ----

> <Gold.Chemscore.Fitness>
17.8997

> <Gold.Chemscore.DG>
-19.5120

> <Gold.Chemscore.ZeroCoef>
-5.4800

> <Gold.Chemscore.Hbond>
2.2530

> <Gold.Chemscore.Metal>
0.0000

> <Gold.Chemscore.Lipo>
120.2953

> <Gold.Chemscore.Internal_Hbond>
0.0000

> <Gold.Chemscore.DEClash>
0.0769

> <Gold.Chemscore.DEInternal>
1.5354

> <Gold.Chemscore.Rot>
2.9561

> <Gold.Chemscore.Internal.Correction>
   9.000000E+99

> <Gold.Chemscore.Hbonds>
donor molecule, donor type, donor heavy atom, donor atom, acceptor molecule, acceptor atom, score
      L1  H    16    41       P1  7949  0.98
      P1  H  7989  7998       L1    17  0.76

> <Gold.Chemscore.Hbond.Weighted>
-7.5251

> <Gold.Chemscore.Metal.Weighted>
-0.0000

> <Gold.Chemscore.Lipo.Weighted>
-14.0745

> <Gold.Chemscore.Internal_Hbond.Weighted>
0.0000

> <Gold.Chemscore.DEClash.Weighted>
0.0769

> <Gold.Chemscore.DEInternal.Weighted>
1.5354

> <Gold.Chemscore.Rot.Weighted>
7.5677

> <Gold.Chemscore.Internal.Correction.Weighted>
   9.000000E+99

> <Gold.Protein.RotatedTorsions>
[ 6907 6896 6895 6894 ] final   36.10 input  -60.11 | X-H torsion
[ 7974 7965 7964 7962 ] final -101.17 input  175.53 | X-H torsion
[ 8008 7997 7996 7995 ] final -101.82 input   59.86 | X-H torsion
[ 10167 10162 10161 10158 ] final   84.72 input  -65.29 | X-H torsion
[ 10718 10713 10712 10709 ] final -122.51 input   66.30 | X-H torsion
[ 10763 10752 10751 10750 ] final   10.79 input  -60.55 | X-H torsion
[ 11005 11000 10999 10996 ] final   68.85 input  -57.11 | X-H torsion

> <Gold.Protein.ActiveResidues>
 VAL166  LYS551  ARG553  GLY616  TRP617  ASP618  TYR619  PRO620  LYS621  CYS622 
 ASP623  PHE694  ASN695  SER759  ASP760  ASP761  ALA762  ILE779  LEU786  VAL792 
 PHE793  MET794  SER795  GLU796  ALA797  LYS798  CYS799  TRP800  GLU811  SER814 

> <Gold.Protein.RotatedAtoms>
  152.1252  134.9176  160.0561 H   0  0  0  0  0  0  0  0  0  0  0  0  # atno 6907 bound_to 6896
  152.0302  133.3929  159.4302 H   0  0  0  0  0  0  0  0  0  0  0  0  # atno 6908 bound_to 6896
  150.6852  134.3450  159.4928 H   0  0  0  0  0  0  0  0  0  0  0  0  # atno 6909 bound_to 6896
  145.2850  140.9337  143.2910 H   0  0  0  0  0  0  0  0  0  0  0  0  # atno 7974 bound_to 7965
  154.8479  140.0432  157.1584 H   0  0  0  0  0  0  0  0  0  0  0  0  # atno 8008 bound_to 7997
  154.8975  140.2995  155.5316 H   0  0  0  0  0  0  0  0  0  0  0  0  # atno 8009 bound_to 7997
  156.2995  140.2382  156.3999 H   0  0  0  0  0  0  0  0  0  0  0  0  # atno 8010 bound_to 7997
  139.9052  144.6306  150.8595 H   0  0  0  0  0  0  0  0  0  0  0  0  # atno 10167 bound_to 10162
  156.1424  130.6476  150.9792 H   0  0  0  0  0  0  0  0  0  0  0  0  # atno 10718 bound_to 10713
  153.1995  135.6854  153.8249 H   0  0  0  0  0  0  0  0  0  0  0  0  # atno 10763 bound_to 10752
  153.7521  135.3222  155.3324 H   0  0  0  0  0  0  0  0  0  0  0  0  # atno 10764 bound_to 10752
  154.8163  135.4683  154.0754 H   0  0  0  0  0  0  0  0  0  0  0  0  # atno 10765 bound_to 10752
  139.9687  134.6936  156.0491 H   0  0  0  0  0  0  0  0  0  0  0  0  # atno 11005 bound_to 11000
  144.9221  139.4399  143.6536 LP  0  0  0  0  0  0  0  0  0  0  0  0  # atno 17320 bound_to 7965
  146.3204  139.8086  142.8950 LP  0  0  0  0  0  0  0  0  0  0  0  0  # atno 17321 bound_to 7965
  140.7698  143.3407  151.2214 LP  0  0  0  0  0  0  0  0  0  0  0  0  # atno 17342 bound_to 10162
  139.6991  143.9563  152.2897 LP  0  0  0  0  0  0  0  0  0  0  0  0  # atno 17343 bound_to 10162
  157.6588  131.0884  150.7887 LP  0  0  0  0  0  0  0  0  0  0  0  0  # atno 17370 bound_to 10713
  156.7961  130.4906  149.5377 LP  0  0  0  0  0  0  0  0  0  0  0  0  # atno 17371 bound_to 10713
  141.1367  133.6573  156.3614 LP  0  0  0  0  0  0  0  0  0  0  0  0  # atno 17394 bound_to 11000
  140.5340  134.6185  157.5359 LP  0  0  0  0  0  0  0  0  0  0  0  0  # atno 17395 bound_to 11000

$$$$
