AV-unprocessed.smi:2489|AV-procd|sdf|9797|dock8
  -GOLD-   2272013433D 1   1.00000     0.00000
 Structure written by MMmdl.
 33 34  0  0  0  0  0  0  0  0  1 V2000
  153.7625  137.2495  157.2758 C   0  0  0  0  0  0  0  0  0  0  0  0
  152.8038  136.7848  156.3370 O   0  0  0  0  0  0  0  0  0  0  0  0
  152.0286  137.7232  155.6911 C   0  0  0  0  0  0  0  0  0  0  0  0
  151.4127  137.5258  154.4327 C   0  0  0  0  0  0  0  0  0  0  0  0
  150.6478  138.5741  153.8894 C   0  0  0  0  0  0  0  0  0  0  0  0
  150.4708  139.7596  154.5070 N   0  0  0  0  0  0  0  0  0  0  0  0
  151.0537  139.9667  155.7128 C   0  0  0  0  0  0  0  0  0  0  0  0
  150.9345  141.1752  156.4493 N   0  0  0  0  0  0  0  0  0  0  0  0
  151.0246  141.3552  157.7802 C   0  0  0  0  0  0  0  0  0  0  0  0
  151.2217  140.4533  158.5956 O   0  0  0  0  0  0  0  0  0  0  0  0
  150.8414  142.8001  158.2617 C   0  0  2  0  0  0  0  0  0  0  0  0
  151.8914  143.7884  157.7223 C   0  0  0  0  0  0  0  0  0  0  0  0
  152.8027  144.0140  158.9109 C   0  0  0  0  0  0  0  0  0  0  0  0
  151.8245  143.8875  160.0735 C   0  0  2  0  0  0  0  0  0  0  0  0
  152.4884  143.5875  161.4212 C   0  0  0  0  0  0  0  0  0  0  0  0
  150.9849  142.8107  159.6814 O   0  0  0  0  0  0  0  0  0  0  0  0
  151.8371  138.9656  156.3290 C   0  0  0  0  0  0  0  0  0  0  0  0
  154.2932  136.3975  157.7002 H   0  0  0  0  0  0  0  0  0  0  0  0
  153.2878  137.7849  158.0990 H   0  0  0  0  0  0  0  0  0  0  0  0
  154.5023  137.8965  156.8028 H   0  0  0  0  0  0  0  0  0  0  0  0
  151.5099  136.6044  153.8788 H   0  0  0  0  0  0  0  0  0  0  0  0
  150.1646  138.4577  152.9307 H   0  0  0  0  0  0  0  0  0  0  0  0
  150.7550  142.0030  155.9002 H   0  0  0  0  0  0  0  0  0  0  0  0
  149.8423  143.1517  157.9989 H   0  0  0  0  0  0  0  0  0  0  0  0
  152.4338  143.4341  156.8448 H   0  0  0  0  0  0  0  0  0  0  0  0
  151.4048  144.7248  157.4459 H   0  0  0  0  0  0  0  0  0  0  0  0
  153.5575  143.2275  158.9568 H   0  0  0  0  0  0  0  0  0  0  0  0
  153.3111  144.9780  158.8831 H   0  0  0  0  0  0  0  0  0  0  0  0
  151.2174  144.7914  160.1455 H   0  0  0  0  0  0  0  0  0  0  0  0
  153.1563  144.3969  161.7168 H   0  0  0  0  0  0  0  0  0  0  0  0
  153.0734  142.6684  161.3777 H   0  0  0  0  0  0  0  0  0  0  0  0
  151.7403  143.4690  162.2052 H   0  0  0  0  0  0  0  0  0  0  0  0
  152.2948  139.1461  157.2910 H   0  0  0  0  0  0  0  0  0  0  0  0
  1  2  1  0  0  0  0
  1 18  1  0  0  0  0
  1 19  1  0  0  0  0
  1 20  1  0  0  0  0
  2  3  1  0  0  0  0
  3 17  1  0  0  0  0
  3  4  2  0  0  0  0
  4  5  1  0  0  0  0
  4 21  1  0  0  0  0
  5  6  2  0  0  0  0
  5 22  1  0  0  0  0
  6  7  1  0  0  0  0
  7  8  1  0  0  0  0
  7 17  2  0  0  0  0
  8  9  1  0  0  0  0
  8 23  1  0  0  0  0
  9 10  2  0  0  0  0
  9 11  1  0  0  0  0
 11 16  1  0  0  0  0
 11 12  1  0  0  0  0
 11 24  1  0  0  0  0
 12 13  1  0  0  0  0
 12 25  1  0  0  0  0
 12 26  1  0  0  0  0
 13 14  1  0  0  0  0
 13 27  1  0  0  0  0
 13 28  1  0  0  0  0
 14 15  1  0  0  0  0
 14 16  1  0  0  0  0
 14 29  1  0  0  0  0
 15 30  1  0  0  0  0
 15 31  1  0  0  0  0
 15 32  1  0  0  0  0
 17 33  1  0  0  0  0
M  END
> <s_m_source_file>
AV-unprocessed.smi

> <i_m_source_file_index>
2489

> <i_lp_mmshare_version>
43012

> <i_f3d_flags>
0

> <s_epik_input>
W0NIM11PYzFbY0hdW2NIXW5jKFtjSF0xKVtOSF1DKD1PKVtDQEBIXTJbQ0gyXVtDSDJdW0NASF0oTzIpW0NIM10=

> <s_epik_cmdline>
J2VwaWtfcHl0aG9uJywgJy1waCcsICc3LjAnLCAnLXRuJywgJzgnLCAnLW1hJywgJzIwMCcsICctbWV0YWxfYmluZGluZycsICctaW1hZScsICc8aW5maWxlLm1hZT4nLCAnLW9tYWUnLCAnPG91dGZpbGUubWFlPic=

> <r_epik_Ionization_Penalty>
0.0871917

> <r_epik_Ionization_Penalty_Charging>
0

> <r_epik_Ionization_Penalty_Neutral>
0.0871917

> <r_epik_State_Penalty>
0.146479

> <r_epik_Charging_Adjusted_Penalty>
0.146479

> <i_epik_Tot_Q>
0

> <i_epik_Tot_abs_Q>
0

> <r_epik_Metal_State_Penalty>
0.067489

> <b_epik_Metal_Only>
0

> <s_lp_Force_Field>
OPLS_2005

> <r_lp_Energy>
22.1888

> <b_lp_Chiralities_Consistent>
1

> <s_lp_Variant>
AV-unprocessed.smi:2489-3

> <Gold.Version>
5.8.1

> <Gold.Id.Protein>
6NUR|6NUR_protein|mol2

> <Gold.PLP.Fitness>
43.6191

> <Gold.PLP.PLP>
-34.3682

> <Gold.PLP.part.hbond>
-3.0000

> <Gold.PLP.part.metal>
0.0000

> <Gold.PLP.part.buried>
-5.8232

> <Gold.PLP.part.nonpolar>
-27.0367

> <Gold.PLP.part.repulsive>
0.2070

> <Gold.PLP.ligand.clash>
0.0904

> <Gold.PLP.ligand.torsion>
0.4942

> <Gold.PLP.Chemscore.Hbond>
1.8440

> <Gold.PLP.Chemscore.CHOScore>
1.5962

> <Gold.PLP.Chemscore.Metal>
0.0000

> <Gold.Chemscore.Hbonds>
donor molecule, donor type, donor heavy atom, donor atom, acceptor molecule, acceptor atom, score
      P1  H  7989  7998       L1     6  0.85
      P1  H 10752 10764       L1     2  0.91
      L1  C     5    22       P1  7948  0.58
      L1  C     5    22       P1  7957  1.00

> <Gold.PLP.Chemscore.Internal.Correction>
0.0089

> <Gold.Rescore>
     Score         DG    S(hbond)    S(metal)    S(lipo)     H(rot)  DE(clash)    DE(int)     intcor
     14.39     -16.12       0.90        0.00      92.09       1.23       0.12       1.61       ----

> <Gold.Chemscore.Fitness>
14.3942

> <Gold.Chemscore.DG>
-16.1159

> <Gold.Chemscore.ZeroCoef>
-5.4800

> <Gold.Chemscore.Hbond>
0.8985

> <Gold.Chemscore.Metal>
0.0000

> <Gold.Chemscore.Lipo>
92.0899

> <Gold.Chemscore.Internal_Hbond>
0.0000

> <Gold.Chemscore.DEClash>
0.1158

> <Gold.Chemscore.DEInternal>
1.6059

> <Gold.Chemscore.Rot>
1.2264

> <Gold.Chemscore.Internal.Correction>
   9.000000E+99

> <Gold.Chemscore.Hbonds>
donor molecule, donor type, donor heavy atom, donor atom, acceptor molecule, acceptor atom, score
      P1  H  7989  7998       L1     6  0.04
      P1  H 10752 10764       L1     2  0.67

> <Gold.Chemscore.Hbond.Weighted>
-3.0009

> <Gold.Chemscore.Metal.Weighted>
-0.0000

> <Gold.Chemscore.Lipo.Weighted>
-10.7745

> <Gold.Chemscore.Internal_Hbond.Weighted>
0.0000

> <Gold.Chemscore.DEClash.Weighted>
0.1158

> <Gold.Chemscore.DEInternal.Weighted>
1.6059

> <Gold.Chemscore.Rot.Weighted>
3.1396

> <Gold.Chemscore.Internal.Correction.Weighted>
   9.000000E+99

> <Gold.Protein.RotatedTorsions>
[ 6907 6896 6895 6894 ] final  116.83 input  -60.11 | X-H torsion
[ 7974 7965 7964 7962 ] final -116.68 input  175.53 | X-H torsion
[ 8008 7997 7996 7995 ] final   17.25 input   59.86 | X-H torsion
[ 10167 10162 10161 10158 ] final   30.75 input  -65.29 | X-H torsion
[ 10718 10713 10712 10709 ] final  103.82 input   66.30 | X-H torsion
[ 10763 10752 10751 10750 ] final  -18.06 input  -60.55 | X-H torsion
[ 11005 11000 10999 10996 ] final  -67.25 input  -57.11 | X-H torsion

> <Gold.Protein.ActiveResidues>
 VAL166  LYS551  ARG553  GLY616  TRP617  ASP618  TYR619  PRO620  LYS621  CYS622 
 ASP623  PHE694  ASN695  SER759  ASP760  ASP761  ALA762  ILE779  LEU786  VAL792 
 PHE793  MET794  SER795  GLU796  ALA797  LYS798  CYS799  TRP800  GLU811  SER814 

> <Gold.Protein.RotatedAtoms>
  152.4652  133.7907  159.6900 H   0  0  0  0  0  0  0  0  0  0  0  0  # atno 6907 bound_to 6896
  150.8613  133.7629  159.2998 H   0  0  0  0  0  0  0  0  0  0  0  0  # atno 6908 bound_to 6896
  151.5194  135.1070  159.9926 H   0  0  0  0  0  0  0  0  0  0  0  0  # atno 6909 bound_to 6896
  145.0940  140.8509  143.3965 H   0  0  0  0  0  0  0  0  0  0  0  0  # atno 7974 bound_to 7965
  154.8887  140.2984  155.5383 H   0  0  0  0  0  0  0  0  0  0  0  0  # atno 8008 bound_to 7997
  156.3021  140.2428  156.3834 H   0  0  0  0  0  0  0  0  0  0  0  0  # atno 8009 bound_to 7997
  154.8641  140.0404  157.1672 H   0  0  0  0  0  0  0  0  0  0  0  0  # atno 8010 bound_to 7997
  140.4650  144.0849  150.6222 H   0  0  0  0  0  0  0  0  0  0  0  0  # atno 10167 bound_to 10162
  157.6760  131.0788  150.5613 H   0  0  0  0  0  0  0  0  0  0  0  0  # atno 10718 bound_to 10713
  153.5834  135.7004  153.5453 H   0  0  0  0  0  0  0  0  0  0  0  0  # atno 10763 bound_to 10752
  153.3241  135.4066  155.1441 H   0  0  0  0  0  0  0  0  0  0  0  0  # atno 10764 bound_to 10752
  154.8613  135.3702  154.5363 H   0  0  0  0  0  0  0  0  0  0  0  0  # atno 10765 bound_to 10752
  141.1503  133.6715  156.6264 H   0  0  0  0  0  0  0  0  0  0  0  0  # atno 11005 bound_to 11000
  145.1032  139.2808  143.5675 LP  0  0  0  0  0  0  0  0  0  0  0  0  # atno 17320 bound_to 7965
  146.3531  140.0606  142.8629 LP  0  0  0  0  0  0  0  0  0  0  0  0  # atno 17321 bound_to 7965
  140.4047  143.2686  151.9906 LP  0  0  0  0  0  0  0  0  0  0  0  0  # atno 17342 bound_to 10162
  139.4811  144.5968  151.7677 LP  0  0  0  0  0  0  0  0  0  0  0  0  # atno 17343 bound_to 10162
  156.5916  130.4331  149.5934 LP  0  0  0  0  0  0  0  0  0  0  0  0  # atno 17370 bound_to 10713
  156.2579  130.6945  151.1704 LP  0  0  0  0  0  0  0  0  0  0  0  0  # atno 17371 bound_to 10713
  140.3501  134.7776  157.4460 LP  0  0  0  0  0  0  0  0  0  0  0  0  # atno 17394 bound_to 11000
  140.0868  134.5656  155.8484 LP  0  0  0  0  0  0  0  0  0  0  0  0  # atno 17395 bound_to 11000

$$$$
