AV-unprocessed.smi:160|AV-procd|sdf|1346|dock2
  -GOLD-   2262019 43D 1   1.00000     0.00000
 Structure written by MMmdl.
 29 30  0  0  0  0  0  0  0  0  1 V2000
  145.0927  138.5120  154.4102 N   0  0  0  0  0  0  0  0  0  0  0  0
  145.9109  138.4068  153.3578 C   0  0  0  0  0  0  0  0  0  0  0  0
  146.7862  139.2370  153.1181 O   0  0  0  0  0  0  0  0  0  0  0  0
  145.7026  137.2089  152.4731 C   0  0  0  0  0  0  0  0  0  0  0  0
  146.1528  137.1955  151.1833 N   0  0  0  0  0  0  0  0  0  0  0  0
  145.7487  135.9806  150.8348 C   0  0  0  0  0  0  0  0  0  0  0  0
  145.1090  135.3175  151.8034 N   0  0  0  0  0  0  0  0  0  0  0  0
  144.5211  133.9415  151.8006 C   0  0  1  0  0  0  0  0  0  0  0  0
  143.7574  133.8145  150.6386 O   0  0  0  0  0  0  0  0  0  0  0  0
  144.0732  132.5979  149.9659 C   0  0  1  0  0  0  0  0  0  0  0  0
  143.7805  132.7067  148.4589 C   0  0  0  0  0  0  0  0  0  0  0  0
  142.5688  132.0510  148.1502 O   0  0  0  0  0  0  0  0  0  0  0  0
  145.5388  132.3336  150.3388 C   0  0  1  0  0  0  0  0  0  0  0  0
  146.4232  133.0400  149.4851 O   0  0  0  0  0  0  0  0  0  0  0  0
  145.5890  132.8284  151.7792 C   0  0  1  0  0  0  0  0  0  0  0  0
  146.8889  133.2039  152.2047 O   0  0  0  0  0  0  0  0  0  0  0  0
  145.0762  136.1121  152.9016 N   0  0  0  0  0  0  0  0  0  0  0  0
  143.8913  133.9124  152.6905 H   0  0  0  0  0  0  0  0  0  0  0  0
  143.4694  131.8027  150.4077 H   0  0  0  0  0  0  0  0  0  0  0  0
  145.7854  131.2734  150.2729 H   0  0  0  0  0  0  0  0  0  0  0  0
  145.2304  132.0331  152.4339 H   0  0  0  0  0  0  0  0  0  0  0  0
  145.1822  139.2932  155.0429 H   0  0  0  0  0  0  0  0  0  0  0  0
  144.3886  137.8043  154.5645 H   0  0  0  0  0  0  0  0  0  0  0  0
  145.9205  135.5663  149.8523 H   0  0  0  0  0  0  0  0  0  0  0  0
  143.7405  133.7477  148.1363 H   0  0  0  0  0  0  0  0  0  0  0  0
  144.5691  132.2176  147.8863 H   0  0  0  0  0  0  0  0  0  0  0  0
  142.3216  132.2785  147.2669 H   0  0  0  0  0  0  0  0  0  0  0  0
  145.9303  133.7139  149.0416 H   0  0  0  0  0  0  0  0  0  0  0  0
  147.5157  132.8916  151.5703 H   0  0  0  0  0  0  0  0  0  0  0  0
  1  2  1  0  0  0  0
  1 22  1  0  0  0  0
  1 23  1  0  0  0  0
  2  3  2  0  0  0  0
  2  4  1  0  0  0  0
  4 17  2  0  0  0  0
  4  5  1  0  0  0  0
  5  6  2  0  0  0  0
  6  7  1  0  0  0  0
  6 24  1  0  0  0  0
  7  8  1  0  0  0  0
  7 17  1  0  0  0  0
  8 18  1  0  0  0  0
  8 15  1  0  0  0  0
  8  9  1  0  0  0  0
  9 10  1  0  0  0  0
 10 19  1  0  0  0  0
 10 11  1  0  0  0  0
 10 13  1  0  0  0  0
 11 12  1  0  0  0  0
 11 25  1  0  0  0  0
 11 26  1  0  0  0  0
 12 27  1  0  0  0  0
 13 20  1  0  0  0  0
 13 14  1  0  0  0  0
 13 15  1  0  0  0  0
 14 28  1  0  0  0  0
 15 21  1  0  0  0  0
 15 16  1  0  0  0  0
 16 29  1  0  0  0  0
M  END
> <s_m_source_file>
AV-unprocessed.smi

> <i_m_source_file_index>
160

> <i_lp_mmshare_version>
43012

> <i_f3d_flags>
0

> <s_epik_input>
W05IMl1DKD1PKWMxbltjSF1uKG4xKVtDQEBIXTJPW0NASF0oW0NIMl1bT0hdKVtDQEBIXShbT0hdKVtDQEhdMltPSF0=

> <s_epik_cmdline>
J2VwaWtfcHl0aG9uJywgJy1waCcsICc3LjAnLCAnLXRuJywgJzgnLCAnLW1hJywgJzIwMCcsICctbWV0YWxfYmluZGluZycsICctaW1hZScsICc8aW5maWxlLm1hZT4nLCAnLW9tYWUnLCAnPG91dGZpbGUubWFlPic=

> <r_lp_tautomer_probability>
1

> <r_epik_Ionization_Penalty>
1.06932e-05

> <r_epik_Ionization_Penalty_Charging>
0

> <r_epik_Ionization_Penalty_Neutral>
1.06932e-05

> <r_epik_State_Penalty>
-0

> <r_epik_Charging_Adjusted_Penalty>
0

> <i_epik_Tot_Q>
0

> <i_epik_Tot_abs_Q>
0

> <r_epik_Metal_State_Penalty>
0.0142097

> <b_epik_Metal_Only>
0

> <s_epik_Chemistry_Notes>
This compound contains an acetal/aminal-like group ( X-CH(R)-Y where X, Y are N, S, or O) that may be acid/base labile, releasing an aldehyde.

> <s_lp_Force_Field>
OPLS_2005

> <r_lp_Energy>
47.6591

> <b_lp_Chiralities_Consistent>
1

> <s_lp_Variant>
AV-unprocessed.smi:160-4

> <Gold.Version>
5.8.1

> <Gold.Id.Protein>
6NUR|6NUR_protein|mol2

> <Gold.PLP.Fitness>
34.4100

> <Gold.PLP.PLP>
-26.0729

> <Gold.PLP.part.hbond>
-7.3327

> <Gold.PLP.part.metal>
0.0000

> <Gold.PLP.part.buried>
-2.6147

> <Gold.PLP.part.nonpolar>
-18.9199

> <Gold.PLP.part.repulsive>
3.7112

> <Gold.PLP.ligand.clash>
0.0000

> <Gold.PLP.ligand.torsion>
1.0364

> <Gold.PLP.Chemscore.Hbond>
2.4676

> <Gold.PLP.Chemscore.CHOScore>
1.0000

> <Gold.PLP.Chemscore.Metal>
0.0000

> <Gold.Chemscore.Hbonds>
donor molecule, donor type, donor heavy atom, donor atom, acceptor molecule, acceptor atom, score
      L1  H    12    27       P1 10195  1.00
      L1  H    14    28       P1  7921  0.52
      P1  H 10785 10796       L1    12  0.56
      L1  C     6    24       P1  7921  1.00

> <Gold.PLP.Chemscore.Internal.Correction>
0.0072

> <Gold.Rescore>
     Score         DG    S(hbond)    S(metal)    S(lipo)     H(rot)  DE(clash)    DE(int)     intcor
      1.65      -6.26       1.85        0.00      42.74       4.06       3.83       0.78       ----

> <Gold.Chemscore.Fitness>
1.6515

> <Gold.Chemscore.DG>
-6.2625

> <Gold.Chemscore.ZeroCoef>
-5.4800

> <Gold.Chemscore.Hbond>
1.8491

> <Gold.Chemscore.Metal>
0.0000

> <Gold.Chemscore.Lipo>
42.7354

> <Gold.Chemscore.Internal_Hbond>
0.0000

> <Gold.Chemscore.DEClash>
3.8349

> <Gold.Chemscore.DEInternal>
0.7761

> <Gold.Chemscore.Rot>
4.0600

> <Gold.Chemscore.Internal.Correction>
   9.000000E+99

> <Gold.Chemscore.Hbonds>
donor molecule, donor type, donor heavy atom, donor atom, acceptor molecule, acceptor atom, score
      L1  H    12    27       P1 10195  0.94
      L1  H    14    28       P1  7921  0.05
      P1  H  7954  7966       L1     5  0.02
      P1  H 10785 10796       L1    12  0.09

> <Gold.Chemscore.Hbond.Weighted>
-6.1761

> <Gold.Chemscore.Metal.Weighted>
-0.0000

> <Gold.Chemscore.Lipo.Weighted>
-5.0000

> <Gold.Chemscore.Internal_Hbond.Weighted>
0.0000

> <Gold.Chemscore.DEClash.Weighted>
3.8349

> <Gold.Chemscore.DEInternal.Weighted>
0.7761

> <Gold.Chemscore.Rot.Weighted>
10.3936

> <Gold.Chemscore.Internal.Correction.Weighted>
   9.000000E+99

> <Gold.Protein.RotatedTorsions>
[ 6907 6896 6895 6894 ] final  -39.51 input  -60.11 | X-H torsion
[ 7974 7965 7964 7962 ] final  -75.01 input  175.53 | X-H torsion
[ 8008 7997 7996 7995 ] final   13.73 input   59.86 | X-H torsion
[ 10167 10162 10161 10158 ] final   84.55 input  -65.29 | X-H torsion
[ 10718 10713 10712 10709 ] final  -46.67 input   66.30 | X-H torsion
[ 10763 10752 10751 10750 ] final -143.48 input  -60.55 | X-H torsion
[ 11005 11000 10999 10996 ] final -153.64 input  -57.11 | X-H torsion

> <Gold.Protein.ActiveResidues>
 VAL166  LYS551  ARG553  GLY616  TRP617  ASP618  TYR619  PRO620  LYS621  CYS622 
 ASP623  PHE694  ASN695  SER759  ASP760  ASP761  ALA762  ILE779  LEU786  VAL792 
 PHE793  MET794  SER795  GLU796  ALA797  LYS798  CYS799  TRP800  GLU811  SER814 

> <Gold.Protein.RotatedAtoms>
  150.9895  134.9233  159.7891 H   0  0  0  0  0  0  0  0  0  0  0  0  # atno 6907 bound_to 6896
  152.5246  134.3301  159.9189 H   0  0  0  0  0  0  0  0  0  0  0  0  # atno 6908 bound_to 6896
  151.3307  133.3960  159.2697 H   0  0  0  0  0  0  0  0  0  0  0  0  # atno 6909 bound_to 6896
  145.6316  140.9336  143.1084 H   0  0  0  0  0  0  0  0  0  0  0  0  # atno 7974 bound_to 7965
  154.8386  140.2911  155.5674 H   0  0  0  0  0  0  0  0  0  0  0  0  # atno 8008 bound_to 7997
  156.3010  140.2518  156.3256 H   0  0  0  0  0  0  0  0  0  0  0  0  # atno 8009 bound_to 7997
  154.9151  140.0387  157.1956 H   0  0  0  0  0  0  0  0  0  0  0  0  # atno 8010 bound_to 7997
  139.9068  144.6296  150.8579 H   0  0  0  0  0  0  0  0  0  0  0  0  # atno 10167 bound_to 10162
  156.2160  130.4163  149.9053 H   0  0  0  0  0  0  0  0  0  0  0  0  # atno 10718 bound_to 10713
  154.8468  135.3467  154.6194 H   0  0  0  0  0  0  0  0  0  0  0  0  # atno 10763 bound_to 10752
  153.6803  135.6980  153.5125 H   0  0  0  0  0  0  0  0  0  0  0  0  # atno 10764 bound_to 10752
  153.2674  135.4304  155.0910 H   0  0  0  0  0  0  0  0  0  0  0  0  # atno 10765 bound_to 10752
  140.7060  134.3885  157.5204 H   0  0  0  0  0  0  0  0  0  0  0  0  # atno 11005 bound_to 11000
  144.7191  139.8091  143.7388 LP  0  0  0  0  0  0  0  0  0  0  0  0  # atno 17320 bound_to 7965
  146.1352  139.4396  143.0143 LP  0  0  0  0  0  0  0  0  0  0  0  0  # atno 17321 bound_to 7965
  140.7694  143.3395  151.2238 LP  0  0  0  0  0  0  0  0  0  0  0  0  # atno 17342 bound_to 10162
  139.6977  143.9586  152.2890 LP  0  0  0  0  0  0  0  0  0  0  0  0  # atno 17343 bound_to 10162
  156.6715  130.8822  151.3563 LP  0  0  0  0  0  0  0  0  0  0  0  0  # atno 17370 bound_to 10713
  157.7063  130.9389  150.0943 LP  0  0  0  0  0  0  0  0  0  0  0  0  # atno 17371 bound_to 10713
  139.8884  134.8857  156.2476 LP  0  0  0  0  0  0  0  0  0  0  0  0  # atno 17394 bound_to 11000
  141.0124  133.7088  156.1134 LP  0  0  0  0  0  0  0  0  0  0  0  0  # atno 17395 bound_to 11000

$$$$
