AV-unprocessed.smi:37|AV-procd|sdf|316|dock8
  -GOLD-   2262016133D 1   1.00000     0.00000
 Structure written by MMmdl.
 44 45  0  0  0  0  0  0  0  0  1 V2000
  158.1250  137.4955  153.6713 C   0  0  0  0  0  0  0  0  0  0  0  0
  156.7802  138.2187  153.5127 C   0  0  0  0  0  0  0  0  0  0  0  0
  155.6704  137.6546  154.4016 C   0  0  0  0  0  0  0  0  0  0  0  0
  155.8315  136.6582  155.1084 O   0  0  0  0  0  0  0  0  0  0  0  0
  154.5426  138.3730  154.3100 O   0  0  0  0  0  0  0  0  0  0  0  0
  153.4364  138.0573  155.1407 C   0  0  0  0  0  0  0  0  0  0  0  0
  152.5608  139.2972  155.3718 C   0  0  1  0  0  0  0  0  0  0  0  0
  151.4663  139.3370  154.4561 O   0  0  0  0  0  0  0  0  0  0  0  0
  150.2501  139.3714  155.1444 C   0  0  1  0  0  0  0  0  0  0  0  0
  149.7069  137.9485  155.2097 N   0  0  0  0  0  0  0  0  0  0  0  0
  150.4414  136.8442  155.6378 C   0  0  0  0  0  0  0  0  0  0  0  0
  149.9429  135.5851  155.6551 C   0  0  0  0  0  0  0  0  0  0  0  0
  150.7164  134.5724  156.0811 F   0  0  0  0  0  0  0  0  0  0  0  0
  148.5804  135.3145  155.2103 C   0  0  0  0  0  0  0  0  0  0  0  0
  148.0446  134.2085  155.1846 O   0  0  0  0  0  0  0  0  0  0  0  0
  147.8807  136.4449  154.7841 N   0  0  0  0  0  0  0  0  0  0  0  0
  148.3807  137.7474  154.7616 C   0  0  0  0  0  0  0  0  0  0  0  0
  147.6688  138.6672  154.3606 O   0  0  0  0  0  0  0  0  0  0  0  0
  150.5824  140.0039  156.5002 C   0  0  2  0  0  0  0  0  0  0  0  0
  150.6884  141.9824  156.2536 Br  0  0  0  0  0  0  0  0  0  0  0  0
  151.9680  139.4269  156.7807 C   0  0  2  0  0  0  0  0  0  0  0  0
  152.7584  140.2609  157.6181 O   0  0  0  0  0  0  0  0  0  0  0  0
  152.2324  140.7841  158.7391 C   0  0  0  0  0  0  0  0  0  0  0  0
  151.1545  140.4637  159.2433 O   0  0  0  0  0  0  0  0  0  0  0  0
  153.1326  141.8645  159.3419 C   0  0  0  0  0  0  0  0  0  0  0  0
  153.6699  141.5092  160.7363 C   0  0  0  0  0  0  0  0  0  0  0  0
  146.9332  136.3079  154.4633 H   0  0  0  0  0  0  0  0  0  0  0  0
  158.8748  137.9332  153.0121 H   0  0  0  0  0  0  0  0  0  0  0  0
  158.0400  136.4383  153.4176 H   0  0  0  0  0  0  0  0  0  0  0  0
  158.5004  137.5704  154.6924 H   0  0  0  0  0  0  0  0  0  0  0  0
  156.9049  139.2748  153.7508 H   0  0  0  0  0  0  0  0  0  0  0  0
  156.4546  138.1643  152.4737 H   0  0  0  0  0  0  0  0  0  0  0  0
  152.8422  137.2724  154.6705 H   0  0  0  0  0  0  0  0  0  0  0  0
  153.7921  137.6688  156.0959 H   0  0  0  0  0  0  0  0  0  0  0  0
  153.1574  140.1842  155.1542 H   0  0  0  0  0  0  0  0  0  0  0  0
  149.4862  139.9301  154.6002 H   0  0  0  0  0  0  0  0  0  0  0  0
  151.4568  136.9476  155.9817 H   0  0  0  0  0  0  0  0  0  0  0  0
  149.8282  139.8141  157.2630 H   0  0  0  0  0  0  0  0  0  0  0  0
  151.8788  138.4320  157.2161 H   0  0  0  0  0  0  0  0  0  0  0  0
  153.9664  142.0395  158.6616 H   0  0  0  0  0  0  0  0  0  0  0  0
  152.5669  142.7949  159.3929 H   0  0  0  0  0  0  0  0  0  0  0  0
  154.3101  142.3063  161.1147 H   0  0  0  0  0  0  0  0  0  0  0  0
  154.2630  140.5942  160.7127 H   0  0  0  0  0  0  0  0  0  0  0  0
  152.8596  141.3696  161.4528 H   0  0  0  0  0  0  0  0  0  0  0  0
  1  2  1  0  0  0  0
  1 28  1  0  0  0  0
  1 29  1  0  0  0  0
  1 30  1  0  0  0  0
  2  3  1  0  0  0  0
  2 31  1  0  0  0  0
  2 32  1  0  0  0  0
  3  4  2  0  0  0  0
  3  5  1  0  0  0  0
  5  6  1  0  0  0  0
  6  7  1  0  0  0  0
  6 33  1  0  0  0  0
  6 34  1  0  0  0  0
  7 21  1  0  0  0  0
  7  8  1  0  0  0  0
  7 35  1  0  0  0  0
  8  9  1  0  0  0  0
  9 10  1  0  0  0  0
  9 19  1  0  0  0  0
  9 36  1  0  0  0  0
 10 17  1  0  0  0  0
 10 11  1  0  0  0  0
 11 12  2  0  0  0  0
 11 37  1  0  0  0  0
 12 13  1  0  0  0  0
 12 14  1  0  0  0  0
 14 15  2  0  0  0  0
 14 16  1  0  0  0  0
 16 27  1  0  0  0  0
 16 17  1  0  0  0  0
 17 18  2  0  0  0  0
 19 20  1  0  0  0  0
 19 21  1  0  0  0  0
 19 38  1  0  0  0  0
 21 22  1  0  0  0  0
 21 39  1  0  0  0  0
 22 23  1  0  0  0  0
 23 24  2  0  0  0  0
 23 25  1  0  0  0  0
 25 26  1  0  0  0  0
 25 40  1  0  0  0  0
 25 41  1  0  0  0  0
 26 42  1  0  0  0  0
 26 43  1  0  0  0  0
 26 44  1  0  0  0  0
M  END
> <s_m_source_file>
AV-unprocessed.smi

> <i_m_source_file_index>
37

> <i_lp_mmshare_version>
43012

> <i_f3d_flags>
0

> <s_epik_input>
W0NIM11bQ0gyXUMoPU8pT1tDSDJdW0NAQEhdMU9bQ0BASF0objJbY0hdYyhGKWMoPU8pW25IXWMyPU8pW0NAQEhdKEJyKVtDQEhdMU9DKD1PKVtDSDJdW0NIM10=

> <s_epik_cmdline>
J2VwaWtfcHl0aG9uJywgJy1waCcsICc3LjAnLCAnLXRuJywgJzgnLCAnLW1hJywgJzIwMCcsICctbWV0YWxfYmluZGluZycsICctaW1hZScsICc8aW5maWxlLm1hZT4nLCAnLW9tYWUnLCAnPG91dGZpbGUubWFlPic=

> <r_lp_tautomer_probability>
0.999537

> <r_epik_Ionization_Penalty>
0.104106

> <r_epik_Ionization_Penalty_Charging>
0.104106

> <r_epik_Ionization_Penalty_Neutral>
3.94675e-16

> <r_epik_State_Penalty>
0.0940182

> <r_epik_Charging_Adjusted_Penalty>
0.198124

> <i_epik_Tot_Q>
0

> <i_epik_Tot_abs_Q>
0

> <r_epik_Metal_State_Penalty>
3.05314

> <b_epik_Metal_Only>
0

> <s_epik_Chemistry_Notes>
This compound has an ester and may undergo hydrolysis at high or low pH. This compound contains an acetal/aminal-like group ( X-CH(R)-Y where X, Y are N, S, or O) that may be acid/base labile, releasing an aldehyde.

> <s_lp_Force_Field>
OPLS_2005

> <r_lp_Energy>
20.7256

> <b_lp_Chiralities_Consistent>
1

> <s_lp_Variant>
AV-unprocessed.smi:37-14

> <Gold.Version>
5.8.1

> <Gold.Id.Protein>
6NUR|6NUR_protein|mol2

> <Gold.PLP.Fitness>
41.3094

> <Gold.PLP.PLP>
-38.0813

> <Gold.PLP.part.hbond>
-5.0741

> <Gold.PLP.part.metal>
0.0000

> <Gold.PLP.part.buried>
3.7195

> <Gold.PLP.part.nonpolar>
-36.3241

> <Gold.PLP.part.repulsive>
0.3215

> <Gold.PLP.ligand.clash>
0.0000

> <Gold.PLP.ligand.torsion>
1.0540

> <Gold.PLP.Chemscore.Hbond>
1.7360

> <Gold.PLP.Chemscore.CHOScore>
0.0000

> <Gold.PLP.Chemscore.Metal>
0.0000

> <Gold.Chemscore.Hbonds>
donor molecule, donor type, donor heavy atom, donor atom, acceptor molecule, acceptor atom, score
      P1  H  7989  7998       L1     8  1.00
      P1  H 10752 10765       L1     4  0.78

> <Gold.PLP.Chemscore.Internal.Correction>
0.1281

> <Gold.Rescore>
     Score         DG    S(hbond)    S(metal)    S(lipo)     H(rot)  DE(clash)    DE(int)     intcor
      7.28     -11.21       1.28        0.00      85.24       3.33       1.73       2.20       ----

> <Gold.Chemscore.Fitness>
7.2762

> <Gold.Chemscore.DG>
-11.2123

> <Gold.Chemscore.ZeroCoef>
-5.4800

> <Gold.Chemscore.Hbond>
1.2827

> <Gold.Chemscore.Metal>
0.0000

> <Gold.Chemscore.Lipo>
85.2448

> <Gold.Chemscore.Internal_Hbond>
0.0000

> <Gold.Chemscore.DEClash>
1.7350

> <Gold.Chemscore.DEInternal>
2.2012

> <Gold.Chemscore.Rot>
3.3303

> <Gold.Chemscore.Internal.Correction>
   9.000000E+99

> <Gold.Chemscore.Hbonds>
donor molecule, donor type, donor heavy atom, donor atom, acceptor molecule, acceptor atom, score
      P1  H  7989  7998       L1     8  0.45
      P1  H 10752 10765       L1     4  0.58

> <Gold.Chemscore.Hbond.Weighted>
-4.2843

> <Gold.Chemscore.Metal.Weighted>
-0.0000

> <Gold.Chemscore.Lipo.Weighted>
-9.9736

> <Gold.Chemscore.Internal_Hbond.Weighted>
0.0000

> <Gold.Chemscore.DEClash.Weighted>
1.7350

> <Gold.Chemscore.DEInternal.Weighted>
2.2012

> <Gold.Chemscore.Rot.Weighted>
8.5256

> <Gold.Chemscore.Internal.Correction.Weighted>
   9.000000E+99

> <Gold.Protein.RotatedTorsions>
[ 6907 6896 6895 6894 ] final  165.27 input  -60.11 | X-H torsion
[ 7974 7965 7964 7962 ] final -145.24 input  175.53 | X-H torsion
[ 8008 7997 7996 7995 ] final  135.96 input   59.86 | X-H torsion
[ 10167 10162 10161 10158 ] final   17.04 input  -65.29 | X-H torsion
[ 10718 10713 10712 10709 ] final    6.30 input   66.30 | X-H torsion
[ 10763 10752 10751 10750 ] final  -16.97 input  -60.55 | X-H torsion
[ 11005 11000 10999 10996 ] final  -21.45 input  -57.11 | X-H torsion

> <Gold.Protein.ActiveResidues>
 VAL166  LYS551  ARG553  GLY616  TRP617  ASP618  TYR619  PRO620  LYS621  CYS622 
 ASP623  PHE694  ASN695  SER759  ASP760  ASP761  ALA762  ILE779  LEU786  VAL792 
 PHE793  MET794  SER795  GLU796  ALA797  LYS798  CYS799  TRP800  GLU811  SER814 

> <Gold.Protein.RotatedAtoms>
  151.8970  133.3529  159.3817 H   0  0  0  0  0  0  0  0  0  0  0  0  # atno 6907 bound_to 6896
  150.7089  134.4866  159.5505 H   0  0  0  0  0  0  0  0  0  0  0  0  # atno 6908 bound_to 6896
  152.2447  134.8193  160.0506 H   0  0  0  0  0  0  0  0  0  0  0  0  # atno 6909 bound_to 6896
  144.8241  140.5609  143.5558 H   0  0  0  0  0  0  0  0  0  0  0  0  # atno 7974 bound_to 7965
  156.3004  140.2457  156.3667 H   0  0  0  0  0  0  0  0  0  0  0  0  # atno 8008 bound_to 7997
  154.8827  140.0412  157.1811 H   0  0  0  0  0  0  0  0  0  0  0  0  # atno 8009 bound_to 7997
  154.8679  140.2930  155.5503 H   0  0  0  0  0  0  0  0  0  0  0  0  # atno 8010 bound_to 7997
  140.5754  143.9082  150.6746 H   0  0  0  0  0  0  0  0  0  0  0  0  # atno 10167 bound_to 10162
  156.9201  130.5788  149.5648 H   0  0  0  0  0  0  0  0  0  0  0  0  # atno 10718 bound_to 10713
  153.5667  135.7008  153.5523 H   0  0  0  0  0  0  0  0  0  0  0  0  # atno 10763 bound_to 10752
  153.3381  135.4029  155.1549 H   0  0  0  0  0  0  0  0  0  0  0  0  # atno 10764 bound_to 10752
  154.8639  135.3735  154.5188 H   0  0  0  0  0  0  0  0  0  0  0  0  # atno 10765 bound_to 10752
  140.8562  133.7820  156.0023 H   0  0  0  0  0  0  0  0  0  0  0  0  # atno 11005 bound_to 11000
  145.5039  139.1482  143.3642 LP  0  0  0  0  0  0  0  0  0  0  0  0  # atno 17320 bound_to 7965
  146.2547  140.5179  142.8879 LP  0  0  0  0  0  0  0  0  0  0  0  0  # atno 17321 bound_to 7965
  140.2568  143.3553  152.1358 LP  0  0  0  0  0  0  0  0  0  0  0  0  # atno 17342 bound_to 10162
  139.5140  144.6941  151.5679 LP  0  0  0  0  0  0  0  0  0  0  0  0  # atno 17343 bound_to 10162
  156.0495  130.5566  150.8957 LP  0  0  0  0  0  0  0  0  0  0  0  0  # atno 17370 bound_to 10713
  157.5913  131.0944  150.9114 LP  0  0  0  0  0  0  0  0  0  0  0  0  # atno 17371 bound_to 10713
  140.8734  134.2699  157.5180 LP  0  0  0  0  0  0  0  0  0  0  0  0  # atno 17394 bound_to 11000
  139.8705  134.9579  156.4282 LP  0  0  0  0  0  0  0  0  0  0  0  0  # atno 17395 bound_to 11000

$$$$
