AV-unprocessed.smi:1643|AV-procd|sdf|6582|dock6
  -GOLD-   22720 7273D 1   1.00000     0.00000
 Structure written by MMmdl.
 54 56  0  0  0  0  0  0  0  0  2 V2000
  144.7661  133.4268  162.0167 C   0  0  0  0  0  0  0  0  0  0  0  0
  145.8769  132.4140  161.7267 C   0  0  0  0  0  0  0  0  0  0  0  0
  145.5724  131.2241  161.6419 O   0  0  0  0  0  0  0  0  0  0  0  0
  147.1490  132.8555  161.5789 N   0  0  0  0  0  0  0  0  0  0  0  0
  147.4939  134.2806  161.6296 C   0  0  0  0  0  0  0  0  0  0  0  0
  147.4457  134.8943  160.2210 C   0  0  0  0  0  0  0  0  0  0  0  0
  148.3336  134.1833  159.1778 C   0  0  0  0  0  0  0  0  0  0  0  0
  147.8735  132.8317  158.8278 N   0  0  0  0  0  0  0  0  0  0  0  0
  148.1535  132.4879  157.4317 C   0  0  0  0  0  0  0  0  0  0  0  0
  149.5725  131.9468  157.1637 C   0  0  2  0  0  0  0  0  0  0  0  0
  150.4998  132.9907  157.3882 O   0  0  0  0  0  0  0  0  0  0  0  0
  149.7246  131.4492  155.7142 C   0  0  0  0  0  0  0  0  0  0  0  0
  149.1202  132.3634  154.7372 N   0  0  0  0  0  0  0  0  0  0  0  0
  149.3682  133.6798  154.4996 C   0  0  0  0  0  0  0  0  0  0  0  0
  148.5499  134.0743  153.4847 N   0  3  0  0  0  0  0  0  0  0  0  0
  147.7684  132.9934  153.0693 C   0  0  0  0  0  0  0  0  0  0  0  0
  146.7957  132.8975  152.0812 C   0  0  0  0  0  0  0  0  0  0  0  0
  146.1788  131.6383  151.9037 C   0  0  0  0  0  0  0  0  0  0  0  0
  145.1079  131.5002  150.8350 C   0  0  0  0  0  0  0  0  0  0  0  0
  146.5483  130.5244  152.7018 C   0  0  0  0  0  0  0  0  0  0  0  0
  145.8817  129.1743  152.4993 C   0  0  0  0  0  0  0  0  0  0  0  0
  147.5398  130.6426  153.7019 C   0  0  0  0  0  0  0  0  0  0  0  0
  148.1329  131.8916  153.8670 C   0  0  0  0  0  0  0  0  0  0  0  0
  148.4502  131.8049  159.7098 C   0  0  0  0  0  0  0  0  0  0  0  0
  148.2884  131.9980  161.2346 C   0  0  0  0  0  0  0  0  0  0  0  0
  144.9883  134.0058  162.9128 H   0  0  0  0  0  0  0  0  0  0  0  0
  143.8161  132.9170  162.1801 H   0  0  0  0  0  0  0  0  0  0  0  0
  144.6367  134.1096  161.1767 H   0  0  0  0  0  0  0  0  0  0  0  0
  146.8204  134.8255  162.2930 H   0  0  0  0  0  0  0  0  0  0  0  0
  148.4854  134.4249  162.0601 H   0  0  0  0  0  0  0  0  0  0  0  0
  146.4150  134.9083  159.8638 H   0  0  0  0  0  0  0  0  0  0  0  0
  147.7497  135.9392  160.2887 H   0  0  0  0  0  0  0  0  0  0  0  0
  148.3419  134.8204  158.2956 H   0  0  0  0  0  0  0  0  0  0  0  0
  149.3716  134.1563  159.5125 H   0  0  0  0  0  0  0  0  0  0  0  0
  147.4149  131.7608  157.0909 H   0  0  0  0  0  0  0  0  0  0  0  0
  148.0119  133.3673  156.8011 H   0  0  0  0  0  0  0  0  0  0  0  0
  149.8159  131.1295  157.8410 H   0  0  0  0  0  0  0  0  0  0  0  0
  150.1253  133.7946  157.0602 H   0  0  0  0  0  0  0  0  0  0  0  0
  150.7751  131.3118  155.4550 H   0  0  0  0  0  0  0  0  0  0  0  0
  149.2472  130.4758  155.5927 H   0  0  0  0  0  0  0  0  0  0  0  0
  150.0878  134.2968  155.0186 H   0  0  0  0  0  0  0  0  0  0  0  0
  146.5220  133.7488  151.4752 H   0  0  0  0  0  0  0  0  0  0  0  0
  144.1729  131.1478  151.2709 H   0  0  0  0  0  0  0  0  0  0  0  0
  145.4226  130.7918  150.0683 H   0  0  0  0  0  0  0  0  0  0  0  0
  144.9074  132.4536  150.3456 H   0  0  0  0  0  0  0  0  0  0  0  0
  146.3151  128.4136  153.1493 H   0  0  0  0  0  0  0  0  0  0  0  0
  146.0010  128.8370  151.4693 H   0  0  0  0  0  0  0  0  0  0  0  0
  144.8166  129.2376  152.7228 H   0  0  0  0  0  0  0  0  0  0  0  0
  147.8224  129.7958  154.3099 H   0  0  0  0  0  0  0  0  0  0  0  0
  147.9954  130.8473  159.4539 H   0  0  0  0  0  0  0  0  0  0  0  0
  149.5122  131.6853  159.4896 H   0  0  0  0  0  0  0  0  0  0  0  0
  149.2076  132.4359  161.6246 H   0  0  0  0  0  0  0  0  0  0  0  0
  148.2287  131.0296  161.7319 H   0  0  0  0  0  0  0  0  0  0  0  0
  148.5306  135.0120  153.1046 H   0  0  0  0  0  0  0  0  0  0  0  0
  1  2  1  0  0  0  0
  1 26  1  0  0  0  0
  1 27  1  0  0  0  0
  1 28  1  0  0  0  0
  2  3  2  0  0  0  0
  2  4  1  0  0  0  0
  4 25  1  0  0  0  0
  4  5  1  0  0  0  0
  5  6  1  0  0  0  0
  5 29  1  0  0  0  0
  5 30  1  0  0  0  0
  6  7  1  0  0  0  0
  6 31  1  0  0  0  0
  6 32  1  0  0  0  0
  7  8  1  0  0  0  0
  7 33  1  0  0  0  0
  7 34  1  0  0  0  0
  8  9  1  0  0  0  0
  8 24  1  0  0  0  0
  9 10  1  0  0  0  0
  9 35  1  0  0  0  0
  9 36  1  0  0  0  0
 10 11  1  0  0  0  0
 10 12  1  0  0  0  0
 10 37  1  0  0  0  0
 11 38  1  0  0  0  0
 12 13  1  0  0  0  0
 12 39  1  0  0  0  0
 12 40  1  0  0  0  0
 13 23  1  0  0  0  0
 13 14  1  0  0  0  0
 14 15  2  0  0  0  0
 14 41  1  0  0  0  0
 15 16  1  0  0  0  0
 15 54  1  0  0  0  0
 16 23  2  0  0  0  0
 16 17  1  0  0  0  0
 17 18  2  0  0  0  0
 17 42  1  0  0  0  0
 18 19  1  0  0  0  0
 18 20  1  0  0  0  0
 19 43  1  0  0  0  0
 19 44  1  0  0  0  0
 19 45  1  0  0  0  0
 20 21  1  0  0  0  0
 20 22  2  0  0  0  0
 21 46  1  0  0  0  0
 21 47  1  0  0  0  0
 21 48  1  0  0  0  0
 22 23  1  0  0  0  0
 22 49  1  0  0  0  0
 24 25  1  0  0  0  0
 24 50  1  0  0  0  0
 24 51  1  0  0  0  0
 25 52  1  0  0  0  0
 25 53  1  0  0  0  0
M  CHG  1  15   1
M  END
> <s_m_source_file>
AV-unprocessed.smi

> <i_m_source_file_index>
1643

> <i_lp_mmshare_version>
43012

> <i_f3d_flags>
0

> <s_epik_input>
W0NIM11DKD1PKU4xW0NIMl1bQ0gyXVtDSDJdTihbQ0gyXVtDSDJdMSlbQ0gyXVtDQEhdKFtPSF0pW0NIMl1uKFtjSF1uMiljKGMyMylbY0hdYyhbQ0gzXSljKFtjSF0zKVtDSDNd

> <s_epik_cmdline>
J2VwaWtfcHl0aG9uJywgJy1waCcsICc3LjAnLCAnLXRuJywgJzgnLCAnLW1hJywgJzIwMCcsICctbWV0YWxfYmluZGluZycsICctaW1hZScsICc8aW5maWxlLm1hZT4nLCAnLW9tYWUnLCAnPG91dGZpbGUubWFlPic=

> <r_epik_Ionization_Penalty>
2.25269

> <r_epik_Ionization_Penalty_Charging>
1.20735

> <r_epik_Ionization_Penalty_Neutral>
1.04533

> <r_epik_State_Penalty>
2.37869

> <r_epik_Charging_Adjusted_Penalty>
3.58604

> <i_epik_Tot_Q>
1

> <i_epik_Tot_abs_Q>
1

> <r_epik_Metal_State_Penalty>
6.40045

> <b_epik_Metal_Only>
0

> <s_lp_Force_Field>
OPLS_2005

> <r_lp_Energy>
52.9577

> <b_lp_Chiralities_Consistent>
1

> <s_lp_Variant>
AV-unprocessed.smi:1643-11

> <Gold.Version>
5.8.1

> <Gold.Id.Protein>
6NUR|6NUR_protein|mol2

> <Gold.PLP.Fitness>
49.9399

> <Gold.PLP.PLP>
-41.6020

> <Gold.PLP.part.hbond>
-2.0000

> <Gold.PLP.part.metal>
0.0000

> <Gold.PLP.part.buried>
-4.0272

> <Gold.PLP.part.nonpolar>
-35.4413

> <Gold.PLP.part.repulsive>
0.0807

> <Gold.PLP.ligand.clash>
0.0000

> <Gold.PLP.ligand.torsion>
0.3822

> <Gold.PLP.Chemscore.Hbond>
3.0000

> <Gold.PLP.Chemscore.CHOScore>
0.0000

> <Gold.PLP.Chemscore.Metal>
0.0000

> <Gold.Chemscore.Hbonds>
donor molecule, donor type, donor heavy atom, donor atom, acceptor molecule, acceptor atom, score
      L1  H    15    54       P1  7948  2.00
      P1  H  6896  6907       L1    11  1.00

> <Gold.PLP.Chemscore.Internal.Correction>
0.1022

> <Gold.Rescore>
     Score         DG    S(hbond)    S(metal)    S(lipo)     H(rot)  DE(clash)    DE(int)     intcor
     15.96     -16.49       1.57        0.00      95.63       2.12       0.02       0.51       ----

> <Gold.Chemscore.Fitness>
15.9576

> <Gold.Chemscore.DG>
-16.4893

> <Gold.Chemscore.ZeroCoef>
-5.4800

> <Gold.Chemscore.Hbond>
1.5728

> <Gold.Chemscore.Metal>
0.0000

> <Gold.Chemscore.Lipo>
95.6278

> <Gold.Chemscore.Internal_Hbond>
0.0000

> <Gold.Chemscore.DEClash>
0.0224

> <Gold.Chemscore.DEInternal>
0.5094

> <Gold.Chemscore.Rot>
2.1220

> <Gold.Chemscore.Internal.Correction>
   9.000000E+99

> <Gold.Chemscore.Hbonds>
donor molecule, donor type, donor heavy atom, donor atom, acceptor molecule, acceptor atom, score
      L1  H    15    54       P1  7948  0.67
      P1  H  6896  6907       L1    11  0.47

> <Gold.Chemscore.Hbond.Weighted>
-5.2531

> <Gold.Chemscore.Metal.Weighted>
-0.0000

> <Gold.Chemscore.Lipo.Weighted>
-11.1885

> <Gold.Chemscore.Internal_Hbond.Weighted>
0.0000

> <Gold.Chemscore.DEClash.Weighted>
0.0224

> <Gold.Chemscore.DEInternal.Weighted>
0.5094

> <Gold.Chemscore.Rot.Weighted>
5.4322

> <Gold.Chemscore.Internal.Correction.Weighted>
   9.000000E+99

> <Gold.Protein.RotatedTorsions>
[ 6907 6896 6895 6894 ] final -150.40 input  -60.11 | X-H torsion
[ 7974 7965 7964 7962 ] final  -47.87 input  175.53 | X-H torsion
[ 8008 7997 7996 7995 ] final -162.88 input   59.86 | X-H torsion
[ 10167 10162 10161 10158 ] final   90.76 input  -65.29 | X-H torsion
[ 10718 10713 10712 10709 ] final  134.20 input   66.30 | X-H torsion
[ 10763 10752 10751 10750 ] final  166.28 input  -60.55 | X-H torsion
[ 11005 11000 10999 10996 ] final  -82.61 input  -57.11 | X-H torsion

> <Gold.Protein.ActiveResidues>
 VAL166  LYS551  ARG553  GLY616  TRP617  ASP618  TYR619  PRO620  LYS621  CYS622 
 ASP623  PHE694  ASN695  SER759  ASP760  ASP761  ALA762  ILE779  LEU786  VAL792 
 PHE793  MET794  SER795  GLU796  ALA797  LYS798  CYS799  TRP800  GLU811  SER814 

> <Gold.Protein.RotatedAtoms>
  151.1980  133.4627  159.2595 H   0  0  0  0  0  0  0  0  0  0  0  0  # atno 6907 bound_to 6896
  151.1097  135.0020  159.8498 H   0  0  0  0  0  0  0  0  0  0  0  0  # atno 6908 bound_to 6896
  152.5449  134.1900  159.8723 H   0  0  0  0  0  0  0  0  0  0  0  0  # atno 6909 bound_to 6896
  145.9571  140.7515  142.9476 H   0  0  0  0  0  0  0  0  0  0  0  0  # atno 7974 bound_to 7965
  155.8132  140.0908  157.1892 H   0  0  0  0  0  0  0  0  0  0  0  0  # atno 8008 bound_to 7997
  154.3979  140.1450  156.3471 H   0  0  0  0  0  0  0  0  0  0  0  0  # atno 8009 bound_to 7997
  155.8343  140.3441  155.5594 H   0  0  0  0  0  0  0  0  0  0  0  0  # atno 8010 bound_to 7997
  139.8442  144.6626  150.9247 H   0  0  0  0  0  0  0  0  0  0  0  0  # atno 10167 bound_to 10162
  157.4697  131.1079  150.9818 H   0  0  0  0  0  0  0  0  0  0  0  0  # atno 10718 bound_to 10713
  154.3366  135.2754  155.2444 H   0  0  0  0  0  0  0  0  0  0  0  0  # atno 10763 bound_to 10752
  154.4733  135.5877  153.6340 H   0  0  0  0  0  0  0  0  0  0  0  0  # atno 10764 bound_to 10752
  152.9861  135.6093  154.3563 H   0  0  0  0  0  0  0  0  0  0  0  0  # atno 10765 bound_to 10752
  141.1662  133.7253  156.8597 H   0  0  0  0  0  0  0  0  0  0  0  0  # atno 11005 bound_to 11000
  144.6807  140.2530  143.7329 LP  0  0  0  0  0  0  0  0  0  0  0  0  # atno 17320 bound_to 7965
  145.8091  139.1995  143.2003 LP  0  0  0  0  0  0  0  0  0  0  0  0  # atno 17321 bound_to 7965
  140.7795  143.3885  151.1351 LP  0  0  0  0  0  0  0  0  0  0  0  0  # atno 17342 bound_to 10162
  139.7529  143.8751  152.3081 LP  0  0  0  0  0  0  0  0  0  0  0  0  # atno 17343 bound_to 10162
  157.0587  130.5817  149.5382 LP  0  0  0  0  0  0  0  0  0  0  0  0  # atno 17370 bound_to 10713
  156.0067  130.5155  150.7854 LP  0  0  0  0  0  0  0  0  0  0  0  0  # atno 17371 bound_to 10713
  140.1857  134.9001  157.3001 LP  0  0  0  0  0  0  0  0  0  0  0  0  # atno 17394 bound_to 11000
  140.2345  134.3869  155.7507 LP  0  0  0  0  0  0  0  0  0  0  0  0  # atno 17395 bound_to 11000

$$$$
