AV-unprocessed.smi:1752|AV-procd|sdf|7059|dock8
  -GOLD-   22720 8273D 1   1.00000     0.00000
 Structure written by MMmdl.
 43 44  0  0  0  0  0  0  0  0  2 V2000
  153.7322  140.3733  159.9824 C   0  0  0  0  0  0  0  0  0  0  0  0
  152.7096  141.3718  159.4235 C   0  0  1  0  0  0  0  0  0  0  0  0
  153.2798  142.8062  159.3990 C   0  0  0  0  0  0  0  0  0  0  0  0
  152.2547  143.8217  159.5639 N   0  0  0  0  0  0  0  0  0  0  0  0
  151.9178  144.5219  160.7033 C   0  0  0  0  0  0  0  0  0  0  0  0
  150.9086  145.3787  160.3700 C   0  0  0  0  0  0  0  0  0  0  0  0
  150.6903  145.1217  158.9875 C   0  0  0  0  0  0  0  0  0  0  0  0
  151.4962  144.1879  158.5085 N   0  0  0  0  0  0  0  0  0  0  0  0
  152.3188  140.9493  158.0789 N   0  0  0  0  0  0  0  0  0  0  0  0
  151.1847  141.2929  157.4418 C   0  0  0  0  0  0  0  0  0  0  0  0
  150.3268  142.0123  157.9549 O   0  0  0  0  0  0  0  0  0  0  0  0
  151.1075  140.8536  156.1609 N   0  0  0  0  0  0  0  0  0  0  0  0
  152.0003  139.8202  155.5905 C   0  0  0  0  0  0  0  0  0  0  0  0
  151.3500  138.9603  154.4804 C   0  0  0  0  0  0  0  0  0  0  0  0
  150.0715  138.2019  154.8992 C   0  0  0  0  0  0  0  0  0  0  0  0
  149.1288  138.9768  155.7506 N   0  3  2  0  0  0  0  0  0  0  0  0
  147.9107  138.1991  156.0677 C   0  0  0  0  0  0  0  0  0  0  0  0
  148.8099  140.3479  155.2692 C   0  0  0  0  0  0  0  0  0  0  0  0
  150.0176  141.3142  155.2837 C   0  0  0  0  0  0  0  0  0  0  0  0
  154.0244  140.6402  160.9984 H   0  0  0  0  0  0  0  0  0  0  0  0
  154.6366  140.3462  159.3735 H   0  0  0  0  0  0  0  0  0  0  0  0
  153.3201  139.3640  160.0142 H   0  0  0  0  0  0  0  0  0  0  0  0
  151.8442  141.3498  160.0884 H   0  0  0  0  0  0  0  0  0  0  0  0
  154.0121  142.9333  160.1978 H   0  0  0  0  0  0  0  0  0  0  0  0
  153.8076  142.9926  158.4625 H   0  0  0  0  0  0  0  0  0  0  0  0
  152.4236  144.3588  161.6436 H   0  0  0  0  0  0  0  0  0  0  0  0
  150.4027  146.0818  161.0149 H   0  0  0  0  0  0  0  0  0  0  0  0
  149.9748  145.5829  158.3227 H   0  0  0  0  0  0  0  0  0  0  0  0
  152.9825  140.3773  157.5775 H   0  0  0  0  0  0  0  0  0  0  0  0
  152.8907  140.3121  155.1970 H   0  0  0  0  0  0  0  0  0  0  0  0
  152.3418  139.1351  156.3683 H   0  0  0  0  0  0  0  0  0  0  0  0
  151.1468  139.5622  153.5954 H   0  0  0  0  0  0  0  0  0  0  0  0
  152.0818  138.2281  154.1375 H   0  0  0  0  0  0  0  0  0  0  0  0
  149.5538  137.8523  154.0047 H   0  0  0  0  0  0  0  0  0  0  0  0
  150.3615  137.3101  155.4562 H   0  0  0  0  0  0  0  0  0  0  0  0
  147.3086  138.0350  155.1733 H   0  0  0  0  0  0  0  0  0  0  0  0
  147.2971  138.7211  156.8029 H   0  0  0  0  0  0  0  0  0  0  0  0
  148.1712  137.2272  156.4884 H   0  0  0  0  0  0  0  0  0  0  0  0
  148.3626  140.3060  154.2751 H   0  0  0  0  0  0  0  0  0  0  0  0
  148.0479  140.7646  155.9298 H   0  0  0  0  0  0  0  0  0  0  0  0
  149.6777  142.3131  155.5642 H   0  0  0  0  0  0  0  0  0  0  0  0
  150.4017  141.4610  154.2749 H   0  0  0  0  0  0  0  0  0  0  0  0
  149.6040  139.1107  156.6320 H   0  0  0  0  0  0  0  0  0  0  0  0
  1  2  1  0  0  0  0
  1 20  1  0  0  0  0
  1 21  1  0  0  0  0
  1 22  1  0  0  0  0
  2  3  1  0  0  0  0
  2  9  1  0  0  0  0
  2 23  1  0  0  0  0
  3  4  1  0  0  0  0
  3 24  1  0  0  0  0
  3 25  1  0  0  0  0
  4  8  1  0  0  0  0
  4  5  1  0  0  0  0
  5  6  2  0  0  0  0
  5 26  1  0  0  0  0
  6  7  1  0  0  0  0
  6 27  1  0  0  0  0
  7  8  2  0  0  0  0
  7 28  1  0  0  0  0
  9 10  1  0  0  0  0
  9 29  1  0  0  0  0
 10 11  2  0  0  0  0
 10 12  1  0  0  0  0
 12 19  1  0  0  0  0
 12 13  1  0  0  0  0
 13 14  1  0  0  0  0
 13 30  1  0  0  0  0
 13 31  1  0  0  0  0
 14 15  1  0  0  0  0
 14 32  1  0  0  0  0
 14 33  1  0  0  0  0
 15 16  1  0  0  0  0
 15 34  1  0  0  0  0
 15 35  1  0  0  0  0
 16 17  1  0  0  0  0
 16 18  1  0  0  0  0
 16 43  1  0  0  0  0
 17 36  1  0  0  0  0
 17 37  1  0  0  0  0
 17 38  1  0  0  0  0
 18 19  1  0  0  0  0
 18 39  1  0  0  0  0
 18 40  1  0  0  0  0
 19 41  1  0  0  0  0
 19 42  1  0  0  0  0
M  CHG  1  16   1
M  END
> <s_m_source_file>
AV-unprocessed.smi

> <i_m_source_file_index>
1752

> <i_lp_mmshare_version>
43012

> <i_f3d_flags>
0

> <s_epik_input>
bjFbY0hdW2NIXVtjSF1uMVtDSDJdW0NAQEhdKFtDSDNdKVtOSF1DKD1PKU4yW0NIMl1bQ0gyXVtDSDJdTihbQ0gzXSlbQ0gyXVtDSDJdMg==

> <s_epik_cmdline>
J2VwaWtfcHl0aG9uJywgJy1waCcsICc3LjAnLCAnLXRuJywgJzgnLCAnLW1hJywgJzIwMCcsICctbWV0YWxfYmluZGluZycsICctaW1hZScsICc8aW5maWxlLm1hZT4nLCAnLW9tYWUnLCAnPG91dGZpbGUubWFlPic=

> <r_lp_tautomer_probability>
1

> <r_epik_Ionization_Penalty>
0.00208423

> <r_epik_Ionization_Penalty_Charging>
0.00203643

> <r_epik_Ionization_Penalty_Neutral>
4.77939e-05

> <r_epik_State_Penalty>
0.00139278

> <r_epik_Charging_Adjusted_Penalty>
0.00342922

> <i_epik_Tot_Q>
1

> <i_epik_Tot_abs_Q>
1

> <r_epik_Metal_State_Penalty>
-0

> <b_epik_Metal_Only>
0

> <s_lp_Force_Field>
OPLS_2005

> <r_lp_Energy>
45.8522

> <b_lp_Chiralities_Consistent>
1

> <s_lp_Variant>
AV-unprocessed.smi:1752-2

> <Gold.Version>
5.8.1

> <Gold.Id.Protein>
6NUR|6NUR_protein|mol2

> <Gold.PLP.Fitness>
41.6389

> <Gold.PLP.PLP>
-40.6388

> <Gold.PLP.part.hbond>
0.0000

> <Gold.PLP.part.metal>
0.0000

> <Gold.PLP.part.buried>
-4.8839

> <Gold.PLP.part.nonpolar>
-35.3950

> <Gold.PLP.part.repulsive>
0.2650

> <Gold.PLP.ligand.clash>
0.0000

> <Gold.PLP.ligand.torsion>
0.9811

> <Gold.PLP.Chemscore.Hbond>
0.0000

> <Gold.PLP.Chemscore.CHOScore>
0.9557

> <Gold.PLP.Chemscore.Metal>
0.0000

> <Gold.Chemscore.Hbonds>
donor molecule, donor type, donor heavy atom, donor atom, acceptor molecule, acceptor atom, score
      L1  C     7    28       P1  8029  1.00

> <Gold.PLP.Chemscore.Internal.Correction>
0.0952

> <Gold.Rescore>
     Score         DG    S(hbond)    S(metal)    S(lipo)     H(rot)  DE(clash)    DE(int)     intcor
     12.05     -13.14       0.00        0.00      96.36       1.41       0.12       0.97       ----

> <Gold.Chemscore.Fitness>
12.0478

> <Gold.Chemscore.DG>
-13.1385

> <Gold.Chemscore.ZeroCoef>
-5.4800

> <Gold.Chemscore.Hbond>
0.0000

> <Gold.Chemscore.Metal>
0.0000

> <Gold.Chemscore.Lipo>
96.3631

> <Gold.Chemscore.Internal_Hbond>
0.0000

> <Gold.Chemscore.DEClash>
0.1162

> <Gold.Chemscore.DEInternal>
0.9745

> <Gold.Chemscore.Rot>
1.4125

> <Gold.Chemscore.Internal.Correction>
   9.000000E+99

> <Gold.Chemscore.Hbond.Weighted>
-0.0000

> <Gold.Chemscore.Metal.Weighted>
-0.0000

> <Gold.Chemscore.Lipo.Weighted>
-11.2745

> <Gold.Chemscore.Internal_Hbond.Weighted>
0.0000

> <Gold.Chemscore.DEClash.Weighted>
0.1162

> <Gold.Chemscore.DEInternal.Weighted>
0.9745

> <Gold.Chemscore.Rot.Weighted>
3.6160

> <Gold.Chemscore.Internal.Correction.Weighted>
   9.000000E+99

> <Gold.Protein.RotatedTorsions>
[ 6907 6896 6895 6894 ] final  169.58 input  -60.11 | X-H torsion
[ 7974 7965 7964 7962 ] final  154.72 input  175.53 | X-H torsion
[ 8008 7997 7996 7995 ] final -166.26 input   59.86 | X-H torsion
[ 10167 10162 10161 10158 ] final  -40.22 input  -65.29 | X-H torsion
[ 10718 10713 10712 10709 ] final  105.15 input   66.30 | X-H torsion
[ 10763 10752 10751 10750 ] final -128.80 input  -60.55 | X-H torsion
[ 11005 11000 10999 10996 ] final   45.17 input  -57.11 | X-H torsion

> <Gold.Protein.ActiveResidues>
 VAL166  LYS551  ARG553  GLY616  TRP617  ASP618  TYR619  PRO620  LYS621  CYS622 
 ASP623  PHE694  ASN695  SER759  ASP760  ASP761  ALA762  ILE779  LEU786  VAL792 
 PHE793  MET794  SER795  GLU796  ALA797  LYS798  CYS799  TRP800  GLU811  SER814 

> <Gold.Protein.RotatedAtoms>
  151.8297  133.3407  159.3609 H   0  0  0  0  0  0  0  0  0  0  0  0  # atno 6907 bound_to 6896
  150.7268  134.5494  159.5796 H   0  0  0  0  0  0  0  0  0  0  0  0  # atno 6908 bound_to 6896
  152.2945  134.7684  160.0422 H   0  0  0  0  0  0  0  0  0  0  0  0  # atno 6909 bound_to 6896
  144.8071  139.6971  143.6157 H   0  0  0  0  0  0  0  0  0  0  0  0  # atno 7974 bound_to 7965
  155.8614  140.0978  157.1611 H   0  0  0  0  0  0  0  0  0  0  0  0  # atno 8008 bound_to 7997
  154.3991  140.1364  156.4028 H   0  0  0  0  0  0  0  0  0  0  0  0  # atno 8009 bound_to 7997
  155.7852  140.3457  155.5321 H   0  0  0  0  0  0  0  0  0  0  0  0  # atno 8010 bound_to 7997
  140.7041  143.3166  151.2894 H   0  0  0  0  0  0  0  0  0  0  0  0  # atno 10167 bound_to 10162
  157.6715  131.0821  150.5813 H   0  0  0  0  0  0  0  0  0  0  0  0  # atno 10718 bound_to 10713
  154.8757  135.3916  154.3816 H   0  0  0  0  0  0  0  0  0  0  0  0  # atno 10763 bound_to 10752
  153.4563  135.7028  153.6083 H   0  0  0  0  0  0  0  0  0  0  0  0  # atno 10764 bound_to 10752
  153.4601  135.3814  155.2302 H   0  0  0  0  0  0  0  0  0  0  0  0  # atno 10765 bound_to 10752
  140.1484  134.4493  155.8399 H   0  0  0  0  0  0  0  0  0  0  0  0  # atno 11005 bound_to 11000
  146.2364  139.5913  142.9521 LP  0  0  0  0  0  0  0  0  0  0  0  0  # atno 17320 bound_to 7965
  145.5413  141.0420  143.2329 LP  0  0  0  0  0  0  0  0  0  0  0  0  # atno 17321 bound_to 7965
  139.6607  144.0195  152.2690 LP  0  0  0  0  0  0  0  0  0  0  0  0  # atno 17342 bound_to 10162
  139.9761  144.6460  150.7944 LP  0  0  0  0  0  0  0  0  0  0  0  0  # atno 17343 bound_to 10162
  156.6114  130.4381  149.5857 LP  0  0  0  0  0  0  0  0  0  0  0  0  # atno 17370 bound_to 10713
  156.2428  130.6861  151.1571 LP  0  0  0  0  0  0  0  0  0  0  0  0  # atno 17371 bound_to 10713
  141.2196  133.6862  156.7376 LP  0  0  0  0  0  0  0  0  0  0  0  0  # atno 17394 bound_to 11000
  140.2635  134.8448  157.3781 LP  0  0  0  0  0  0  0  0  0  0  0  0  # atno 17395 bound_to 11000

$$$$
