AV-unprocessed.smi:775|AV-procd|sdf|3697|dock8
  -GOLD-   22720 1113D 1   1.00000     0.00000
 Structure written by MMmdl.
 38 39  0  0  0  0  0  0  0  0  1 V2000
  152.8330  141.6403  162.1385 C   0  0  0  0  0  0  0  0  0  0  0  0
  153.3199  141.1676  160.7612 C   0  0  2  0  0  0  0  0  0  0  0  0
  152.2524  141.4500  159.6777 C   0  0  0  0  0  0  0  0  0  0  0  0
  151.8656  142.8478  159.5963 N   0  0  0  0  0  0  0  0  0  0  0  0
  151.9846  143.7070  158.5240 C   0  0  0  0  0  0  0  0  0  0  0  0
  151.4809  144.9151  158.9127 C   0  0  0  0  0  0  0  0  0  0  0  0
  151.0818  144.6965  160.2608 C   0  0  0  0  0  0  0  0  0  0  0  0
  151.3158  143.4596  160.6682 N   0  0  0  0  0  0  0  0  0  0  0  0
  153.5914  139.7369  160.8740 N   0  0  0  0  0  0  0  0  0  0  0  0
  153.6344  139.0597  159.5690 C   0  0  0  0  0  0  0  0  0  0  0  0
  152.4990  138.0389  159.3816 C   0  0  0  0  0  0  0  0  0  0  0  0
  152.4642  137.0490  160.1155 O   0  0  0  0  0  0  0  0  0  0  0  0
  151.5690  138.2576  158.4181 N   0  0  0  0  0  0  0  0  0  0  0  0
  150.4367  137.3706  158.1346 C   0  0  0  0  0  0  0  0  0  0  0  0
  150.7204  136.6528  156.8039 C   0  0  0  0  0  0  0  0  0  0  0  0
  151.1707  137.5835  155.7660 N   0  0  0  0  0  0  0  0  0  0  0  0
  151.6258  138.8319  155.9861 C   0  0  0  0  0  0  0  0  0  0  0  0
  151.9762  139.5627  155.0625 O   0  0  0  0  0  0  0  0  0  0  0  0
  151.7044  139.3468  157.4375 C   0  0  0  0  0  0  0  0  0  0  0  0
  152.6268  142.7110  162.1338 H   0  0  0  0  0  0  0  0  0  0  0  0
  153.5831  141.4570  162.9087 H   0  0  0  0  0  0  0  0  0  0  0  0
  151.9165  141.1290  162.4363 H   0  0  0  0  0  0  0  0  0  0  0  0
  154.2373  141.7150  160.5363 H   0  0  0  0  0  0  0  0  0  0  0  0
  152.5977  141.1110  158.6991 H   0  0  0  0  0  0  0  0  0  0  0  0
  151.3481  140.8803  159.8953 H   0  0  0  0  0  0  0  0  0  0  0  0
  152.4075  143.3878  157.5828 H   0  0  0  0  0  0  0  0  0  0  0  0
  151.4099  145.8178  158.3243 H   0  0  0  0  0  0  0  0  0  0  0  0
  150.6310  145.3946  160.9506 H   0  0  0  0  0  0  0  0  0  0  0  0
  154.4603  139.6042  161.3718 H   0  0  0  0  0  0  0  0  0  0  0  0
  153.5640  139.8037  158.7795 H   0  0  0  0  0  0  0  0  0  0  0  0
  154.5906  138.5469  159.4576 H   0  0  0  0  0  0  0  0  0  0  0  0
  150.2066  136.6560  158.9235 H   0  0  0  0  0  0  0  0  0  0  0  0
  149.5391  137.9830  158.0351 H   0  0  0  0  0  0  0  0  0  0  0  0
  151.4968  135.9002  156.9452 H   0  0  0  0  0  0  0  0  0  0  0  0
  149.8297  136.1288  156.4570 H   0  0  0  0  0  0  0  0  0  0  0  0
  151.1306  137.2582  154.8107 H   0  0  0  0  0  0  0  0  0  0  0  0
  150.8972  140.0627  157.5962 H   0  0  0  0  0  0  0  0  0  0  0  0
  152.6348  139.9064  157.5448 H   0  0  0  0  0  0  0  0  0  0  0  0
  1  2  1  0  0  0  0
  1 20  1  0  0  0  0
  1 21  1  0  0  0  0
  1 22  1  0  0  0  0
  2  3  1  0  0  0  0
  2  9  1  0  0  0  0
  2 23  1  0  0  0  0
  3  4  1  0  0  0  0
  3 24  1  0  0  0  0
  3 25  1  0  0  0  0
  4  8  1  0  0  0  0
  4  5  1  0  0  0  0
  5  6  2  0  0  0  0
  5 26  1  0  0  0  0
  6  7  1  0  0  0  0
  6 27  1  0  0  0  0
  7  8  2  0  0  0  0
  7 28  1  0  0  0  0
  9 10  1  0  0  0  0
  9 29  1  0  0  0  0
 10 11  1  0  0  0  0
 10 30  1  0  0  0  0
 10 31  1  0  0  0  0
 11 12  2  0  0  0  0
 11 13  1  0  0  0  0
 13 19  1  0  0  0  0
 13 14  1  0  0  0  0
 14 15  1  0  0  0  0
 14 32  1  0  0  0  0
 14 33  1  0  0  0  0
 15 16  1  0  0  0  0
 15 34  1  0  0  0  0
 15 35  1  0  0  0  0
 16 17  1  0  0  0  0
 16 36  1  0  0  0  0
 17 18  2  0  0  0  0
 17 19  1  0  0  0  0
 19 37  1  0  0  0  0
 19 38  1  0  0  0  0
M  END
> <s_m_source_file>
AV-unprocessed.smi

> <i_m_source_file_index>
775

> <i_lp_mmshare_version>
43012

> <i_f3d_flags>
0

> <s_epik_input>
bjFbY0hdW2NIXVtjSF1uMVtDSDJdW0NAQEhdKFtDSDNdKVtOSF1bQ0gyXUMoPU8pTjJbQ0gyXVtDSDJdW05IXUMoPU8pW0NIMl0y

> <s_epik_cmdline>
J2VwaWtfcHl0aG9uJywgJy1waCcsICc3LjAnLCAnLXRuJywgJzgnLCAnLW1hJywgJzIwMCcsICctbWV0YWxfYmluZGluZycsICctaW1hZScsICc8aW5maWxlLm1hZT4nLCAnLW9tYWUnLCAnPG91dGZpbGUubWFlPic=

> <r_lp_tautomer_probability>
1

> <r_epik_Ionization_Penalty>
0.836058

> <r_epik_Ionization_Penalty_Charging>
0

> <r_epik_Ionization_Penalty_Neutral>
0.836058

> <r_epik_State_Penalty>
0.870309

> <r_epik_Charging_Adjusted_Penalty>
0.870309

> <i_epik_Tot_Q>
0

> <i_epik_Tot_abs_Q>
0

> <r_epik_Metal_State_Penalty>
0.870266

> <b_epik_Metal_Only>
0

> <s_lp_Force_Field>
OPLS_2005

> <r_lp_Energy>
24.9182

> <b_lp_Chiralities_Consistent>
1

> <s_lp_Variant>
AV-unprocessed.smi:775-3

> <Gold.Version>
5.8.1

> <Gold.Id.Protein>
6NUR|6NUR_protein|mol2

> <Gold.PLP.Fitness>
43.7819

> <Gold.PLP.PLP>
-40.0638

> <Gold.PLP.part.hbond>
-1.4813

> <Gold.PLP.part.metal>
0.0000

> <Gold.PLP.part.buried>
-7.1257

> <Gold.PLP.part.nonpolar>
-32.3130

> <Gold.PLP.part.repulsive>
0.1590

> <Gold.PLP.ligand.clash>
0.0000

> <Gold.PLP.ligand.torsion>
0.5870

> <Gold.PLP.Chemscore.Hbond>
1.6175

> <Gold.PLP.Chemscore.CHOScore>
0.0000

> <Gold.PLP.Chemscore.Metal>
0.0000

> <Gold.Chemscore.Hbonds>
donor molecule, donor type, donor heavy atom, donor atom, acceptor molecule, acceptor atom, score
      P1  H  6896  6909       L1    12  1.00
      P1  H  7989  7998       L1    18  0.89

> <Gold.PLP.Chemscore.Internal.Correction>
0.0396

> <Gold.Rescore>
     Score         DG    S(hbond)    S(metal)    S(lipo)     H(rot)  DE(clash)    DE(int)     intcor
     14.22     -16.09       1.99        0.00      80.27       2.12       0.00       1.88       ----

> <Gold.Chemscore.Fitness>
14.2155

> <Gold.Chemscore.DG>
-16.0919

> <Gold.Chemscore.ZeroCoef>
-5.4800

> <Gold.Chemscore.Hbond>
1.9934

> <Gold.Chemscore.Metal>
0.0000

> <Gold.Chemscore.Lipo>
80.2661

> <Gold.Chemscore.Internal_Hbond>
0.0000

> <Gold.Chemscore.DEClash>
0.0000

> <Gold.Chemscore.DEInternal>
1.8765

> <Gold.Chemscore.Rot>
2.1239

> <Gold.Chemscore.Internal.Correction>
   9.000000E+99

> <Gold.Chemscore.Hbonds>
donor molecule, donor type, donor heavy atom, donor atom, acceptor molecule, acceptor atom, score
      P1  H  6896  6909       L1    12  0.93
      P1  H  7989  7998       L1    18  0.82

> <Gold.Chemscore.Hbond.Weighted>
-6.6579

> <Gold.Chemscore.Metal.Weighted>
-0.0000

> <Gold.Chemscore.Lipo.Weighted>
-9.3911

> <Gold.Chemscore.Internal_Hbond.Weighted>
0.0000

> <Gold.Chemscore.DEClash.Weighted>
0.0000

> <Gold.Chemscore.DEInternal.Weighted>
1.8765

> <Gold.Chemscore.Rot.Weighted>
5.4371

> <Gold.Chemscore.Internal.Correction.Weighted>
   9.000000E+99

> <Gold.Protein.RotatedTorsions>
[ 6907 6896 6895 6894 ] final  129.98 input  -60.11 | X-H torsion
[ 7974 7965 7964 7962 ] final  -87.34 input  175.53 | X-H torsion
[ 8008 7997 7996 7995 ] final  -58.01 input   59.86 | X-H torsion
[ 10167 10162 10161 10158 ] final -147.53 input  -65.29 | X-H torsion
[ 10718 10713 10712 10709 ] final  146.18 input   66.30 | X-H torsion
[ 10763 10752 10751 10750 ] final  117.34 input  -60.55 | X-H torsion
[ 11005 11000 10999 10996 ] final   87.56 input  -57.11 | X-H torsion

> <Gold.Protein.ActiveResidues>
 VAL166  LYS551  ARG553  GLY616  TRP617  ASP618  TYR619  PRO620  LYS621  CYS622 
 ASP623  PHE694  ASN695  SER759  ASP760  ASP761  ALA762  ILE779  LEU786  VAL792 
 PHE793  MET794  SER795  GLU796  ALA797  LYS798  CYS799  TRP800  GLU811  SER814 

> <Gold.Protein.RotatedAtoms>
  152.3571  133.6251  159.5987 H   0  0  0  0  0  0  0  0  0  0  0  0  # atno 6907 bound_to 6896
  150.7576  133.9482  159.3486 H   0  0  0  0  0  0  0  0  0  0  0  0  # atno 6908 bound_to 6896
  151.7326  135.0872  160.0353 H   0  0  0  0  0  0  0  0  0  0  0  0  # atno 6909 bound_to 6896
  145.4679  140.9560  143.1933 H   0  0  0  0  0  0  0  0  0  0  0  0  # atno 7974 bound_to 7965
  154.4291  140.1094  156.5889 H   0  0  0  0  0  0  0  0  0  0  0  0  # atno 8008 bound_to 7997
  155.6033  140.3493  155.4581 H   0  0  0  0  0  0  0  0  0  0  0  0  # atno 8009 bound_to 7997
  156.0157  140.1228  157.0399 H   0  0  0  0  0  0  0  0  0  0  0  0  # atno 8010 bound_to 7997
  139.7613  143.8373  152.2607 H   0  0  0  0  0  0  0  0  0  0  0  0  # atno 10167 bound_to 10162
  157.3364  131.0928  151.1120 H   0  0  0  0  0  0  0  0  0  0  0  0  # atno 10718 bound_to 10713
  153.5508  135.3540  155.2759 H   0  0  0  0  0  0  0  0  0  0  0  0  # atno 10763 bound_to 10752
  154.8707  135.4113  154.2939 H   0  0  0  0  0  0  0  0  0  0  0  0  # atno 10764 bound_to 10752
  153.3665  135.7062  153.6740 H   0  0  0  0  0  0  0  0  0  0  0  0  # atno 10765 bound_to 10752
  139.8916  134.8430  156.2877 H   0  0  0  0  0  0  0  0  0  0  0  0  # atno 11005 bound_to 11000
  144.7963  139.6228  143.7091 LP  0  0  0  0  0  0  0  0  0  0  0  0  # atno 17320 bound_to 7965
  146.2414  139.6008  142.9489 LP  0  0  0  0  0  0  0  0  0  0  0  0  # atno 17321 bound_to 7965
  139.8380  144.7223  150.9367 LP  0  0  0  0  0  0  0  0  0  0  0  0  # atno 17342 bound_to 10162
  140.7807  143.4009  151.1150 LP  0  0  0  0  0  0  0  0  0  0  0  0  # atno 17343 bound_to 10162
  157.2348  130.6542  149.5865 LP  0  0  0  0  0  0  0  0  0  0  0  0  # atno 17370 bound_to 10713
  155.9702  130.4587  150.6009 LP  0  0  0  0  0  0  0  0  0  0  0  0  # atno 17371 bound_to 10713
  140.9996  133.7159  156.0940 LP  0  0  0  0  0  0  0  0  0  0  0  0  # atno 17394 bound_to 11000
  140.7515  134.4040  157.5540 LP  0  0  0  0  0  0  0  0  0  0  0  0  # atno 17395 bound_to 11000

$$$$
