AV-unprocessed.smi:1080|AV-procd|sdf|4708|dock7
  -GOLD-   22720 3233D 1   1.00000     0.00000
 Structure written by MMmdl.
 49 51  0  0  0  0  0  0  0  0  2 V2000
  151.2662  135.1619  156.2324 O   0  0  0  0  0  0  0  0  0  0  0  0
  150.7301  135.7353  155.2845 C   0  0  0  0  0  0  0  0  0  0  0  0
  149.9554  135.1462  154.3568 N   0  0  0  0  0  0  0  0  0  0  0  0
  149.6094  133.7729  154.2285 C   0  0  0  0  0  0  0  0  0  0  0  0
  150.2604  132.8549  155.0826 C   0  0  0  0  0  0  0  0  0  0  0  0
  149.9410  131.4840  155.0048 C   0  0  0  0  0  0  0  0  0  0  0  0
  149.0110  131.0594  154.1229 N   0  3  0  0  0  0  0  0  0  0  0  0
  148.3525  131.8993  153.2958 C   0  0  0  0  0  0  0  0  0  0  0  0
  148.6292  133.2814  153.3285 C   0  0  0  0  0  0  0  0  0  0  0  0
  150.8366  137.0535  155.0617 N   0  0  0  0  0  0  0  0  0  0  0  0
  151.6055  137.9872  155.8794 C   0  0  2  0  0  0  0  0  0  0  0  0
  151.3860  137.7102  157.3806 C   0  0  0  0  0  0  0  0  0  0  0  0
  152.1252  138.7353  158.2560 C   0  0  0  0  0  0  0  0  0  0  0  0
  151.7080  140.1796  157.9094 C   0  0  1  0  0  0  0  0  0  0  0  0
  152.4569  141.1916  158.8044 C   0  0  0  0  0  0  0  0  0  0  0  0
  153.2255  140.7531  159.6620 O   0  0  0  0  0  0  0  0  0  0  0  0
  152.2849  142.5246  158.6142 N   0  0  0  0  0  0  0  0  0  0  0  0
  151.2404  143.0614  157.7328 C   0  0  0  0  0  0  0  0  0  0  0  0
  150.0579  143.5366  158.5950 C   0  0  0  0  0  0  0  0  0  0  0  0
  150.5597  144.8783  159.7201 S   0  0  0  0  0  0  0  0  0  0  0  0
  152.0589  144.1366  160.4400 C   0  0  0  0  0  0  0  0  0  0  0  0
  152.9824  143.5952  159.3368 C   0  0  0  0  0  0  0  0  0  0  0  0
  151.9524  140.4481  156.4070 C   0  0  0  0  0  0  0  0  0  0  0  0
  151.2044  139.4319  155.5292 C   0  0  0  0  0  0  0  0  0  0  0  0
  149.5213  135.7656  153.6882 H   0  0  0  0  0  0  0  0  0  0  0  0
  151.0032  133.1943  155.7901 H   0  0  0  0  0  0  0  0  0  0  0  0
  150.3968  130.7205  155.6180 H   0  0  0  0  0  0  0  0  0  0  0  0
  147.6236  131.4451  152.6405 H   0  0  0  0  0  0  0  0  0  0  0  0
  148.0756  133.9345  152.6717 H   0  0  0  0  0  0  0  0  0  0  0  0
  150.3574  137.4424  154.2628 H   0  0  0  0  0  0  0  0  0  0  0  0
  152.6665  137.8675  155.6508 H   0  0  0  0  0  0  0  0  0  0  0  0
  150.3201  137.7406  157.6111 H   0  0  0  0  0  0  0  0  0  0  0  0
  151.7273  136.7055  157.6327 H   0  0  0  0  0  0  0  0  0  0  0  0
  151.9241  138.5237  159.3068 H   0  0  0  0  0  0  0  0  0  0  0  0
  153.2013  138.6153  158.1205 H   0  0  0  0  0  0  0  0  0  0  0  0
  150.6341  140.2878  158.0548 H   0  0  0  0  0  0  0  0  0  0  0  0
  151.6329  143.8894  157.1406 H   0  0  0  0  0  0  0  0  0  0  0  0
  150.8934  142.3268  157.0051 H   0  0  0  0  0  0  0  0  0  0  0  0
  149.2456  143.8953  157.9628 H   0  0  0  0  0  0  0  0  0  0  0  0
  149.6619  142.7086  159.1842 H   0  0  0  0  0  0  0  0  0  0  0  0
  152.5739  144.8937  161.0313 H   0  0  0  0  0  0  0  0  0  0  0  0
  151.7694  143.3377  161.1236 H   0  0  0  0  0  0  0  0  0  0  0  0
  153.9371  143.2752  159.7512 H   0  0  0  0  0  0  0  0  0  0  0  0
  153.2423  144.3998  158.6473 H   0  0  0  0  0  0  0  0  0  0  0  0
  151.6306  141.4581  156.1492 H   0  0  0  0  0  0  0  0  0  0  0  0
  153.0177  140.3944  156.1765 H   0  0  0  0  0  0  0  0  0  0  0  0
  151.4133  139.6333  154.4779 H   0  0  0  0  0  0  0  0  0  0  0  0
  150.1293  139.5622  155.6614 H   0  0  0  0  0  0  0  0  0  0  0  0
  148.7934  130.0632  154.0829 H   0  0  0  0  0  0  0  0  0  0  0  0
  1  2  2  0  0  0  0
  2  3  1  0  0  0  0
  2 10  1  0  0  0  0
  3  4  1  0  0  0  0
  3 25  1  0  0  0  0
  4  9  1  0  0  0  0
  4  5  2  0  0  0  0
  5  6  1  0  0  0  0
  5 26  1  0  0  0  0
  6  7  2  0  0  0  0
  6 27  1  0  0  0  0
  7  8  1  0  0  0  0
  7 49  1  0  0  0  0
  8  9  2  0  0  0  0
  8 28  1  0  0  0  0
  9 29  1  0  0  0  0
 10 11  1  0  0  0  0
 10 30  1  0  0  0  0
 11 24  1  0  0  0  0
 11 12  1  0  0  0  0
 11 31  1  0  0  0  0
 12 13  1  0  0  0  0
 12 32  1  0  0  0  0
 12 33  1  0  0  0  0
 13 14  1  0  0  0  0
 13 34  1  0  0  0  0
 13 35  1  0  0  0  0
 14 15  1  0  0  0  0
 14 23  1  0  0  0  0
 14 36  1  0  0  0  0
 15 16  2  0  0  0  0
 15 17  1  0  0  0  0
 17 22  1  0  0  0  0
 17 18  1  0  0  0  0
 18 19  1  0  0  0  0
 18 37  1  0  0  0  0
 18 38  1  0  0  0  0
 19 20  1  0  0  0  0
 19 39  1  0  0  0  0
 19 40  1  0  0  0  0
 20 21  1  0  0  0  0
 21 22  1  0  0  0  0
 21 41  1  0  0  0  0
 21 42  1  0  0  0  0
 22 43  1  0  0  0  0
 22 44  1  0  0  0  0
 23 24  1  0  0  0  0
 23 45  1  0  0  0  0
 23 46  1  0  0  0  0
 24 47  1  0  0  0  0
 24 48  1  0  0  0  0
M  CHG  1   7   1
M  END
> <s_m_source_file>
AV-unprocessed.smi

> <i_m_source_file_index>
1080

> <i_lp_mmshare_version>
43012

> <i_f3d_flags>
0

> <s_epik_input>
W2NIXTFbY0hdbltjSF1bY0hdYzFbTkhdQyg9TylbTkhdW0NAQEhdMltDSDJdW0NIMl1bQ0BIXShbQ0gyXVtDSDJdMilDKD1PKU4zW0NIMl1bQ0gyXVNbQ0gyXVtDSDJdMw==

> <s_epik_cmdline>
J2VwaWtfcHl0aG9uJywgJy1waCcsICc3LjAnLCAnLXRuJywgJzgnLCAnLW1hJywgJzIwMCcsICctbWV0YWxfYmluZGluZycsICctaW1hZScsICc8aW5maWxlLm1hZT4nLCAnLW9tYWUnLCAnPG91dGZpbGUubWFlPic=

> <r_epik_Ionization_Penalty>
1.01281

> <r_epik_Ionization_Penalty_Charging>
1.01278

> <r_epik_Ionization_Penalty_Neutral>
2.07681e-05

> <r_epik_State_Penalty>
1.06237

> <r_epik_Charging_Adjusted_Penalty>
2.07515

> <i_epik_Tot_Q>
1

> <i_epik_Tot_abs_Q>
1

> <r_epik_Metal_State_Penalty>
1.16243

> <b_epik_Metal_Only>
0

> <s_lp_Force_Field>
OPLS_2005

> <r_lp_Energy>
38.1228

> <b_lp_Chiralities_Consistent>
1

> <s_lp_Variant>
AV-unprocessed.smi:1080-3

> <Gold.Version>
5.8.1

> <Gold.Id.Protein>
6NUR|6NUR_protein|mol2

> <Gold.PLP.Fitness>
46.6462

> <Gold.PLP.PLP>
-44.1560

> <Gold.PLP.part.hbond>
-1.4230

> <Gold.PLP.part.metal>
0.0000

> <Gold.PLP.part.buried>
-6.6946

> <Gold.PLP.part.nonpolar>
-37.1969

> <Gold.PLP.part.repulsive>
0.1301

> <Gold.PLP.ligand.clash>
0.0000

> <Gold.PLP.ligand.torsion>
0.2729

> <Gold.PLP.Chemscore.Hbond>
0.9920

> <Gold.PLP.Chemscore.CHOScore>
0.0000

> <Gold.PLP.Chemscore.Metal>
0.0000

> <Gold.Chemscore.Hbonds>
donor molecule, donor type, donor heavy atom, donor atom, acceptor molecule, acceptor atom, score
      L1  H     3    25       P1  7948  1.00

> <Gold.PLP.Chemscore.Internal.Correction>
0.0601

> <Gold.Rescore>
     Score         DG    S(hbond)    S(metal)    S(lipo)     H(rot)  DE(clash)    DE(int)     intcor
     14.19     -17.25       0.77        0.00     105.89       1.25       0.08       2.97       ----

> <Gold.Chemscore.Fitness>
14.1942

> <Gold.Chemscore.DG>
-17.2460

> <Gold.Chemscore.ZeroCoef>
-5.4800

> <Gold.Chemscore.Hbond>
0.7706

> <Gold.Chemscore.Metal>
0.0000

> <Gold.Chemscore.Lipo>
105.8853

> <Gold.Chemscore.Internal_Hbond>
0.0000

> <Gold.Chemscore.DEClash>
0.0811

> <Gold.Chemscore.DEInternal>
2.9707

> <Gold.Chemscore.Rot>
1.2486

> <Gold.Chemscore.Internal.Correction>
   9.000000E+99

> <Gold.Chemscore.Hbonds>
donor molecule, donor type, donor heavy atom, donor atom, acceptor molecule, acceptor atom, score
      L1  H     3    25       P1  7948  0.33

> <Gold.Chemscore.Hbond.Weighted>
-2.5737

> <Gold.Chemscore.Metal.Weighted>
-0.0000

> <Gold.Chemscore.Lipo.Weighted>
-12.3886

> <Gold.Chemscore.Internal_Hbond.Weighted>
0.0000

> <Gold.Chemscore.DEClash.Weighted>
0.0811

> <Gold.Chemscore.DEInternal.Weighted>
2.9707

> <Gold.Chemscore.Rot.Weighted>
3.1963

> <Gold.Chemscore.Internal.Correction.Weighted>
   9.000000E+99

> <Gold.Protein.RotatedTorsions>
[ 6907 6896 6895 6894 ] final -109.00 input  -60.11 | X-H torsion
[ 7974 7965 7964 7962 ] final   35.48 input  175.53 | X-H torsion
[ 8008 7997 7996 7995 ] final    7.39 input   59.86 | X-H torsion
[ 10167 10162 10161 10158 ] final   80.37 input  -65.29 | X-H torsion
[ 10718 10713 10712 10709 ] final   99.54 input   66.30 | X-H torsion
[ 10763 10752 10751 10750 ] final  119.73 input  -60.55 | X-H torsion
[ 11005 11000 10999 10996 ] final  -30.24 input  -57.11 | X-H torsion

> <Gold.Protein.ActiveResidues>
 VAL166  LYS551  ARG553  GLY616  TRP617  ASP618  TYR619  PRO620  LYS621  CYS622 
 ASP623  PHE694  ASN695  SER759  ASP760  ASP761  ALA762  ILE779  LEU786  VAL792 
 PHE793  MET794  SER795  GLU796  ALA797  LYS798  CYS799  TRP800  GLU811  SER814 

> <Gold.Protein.RotatedAtoms>
  150.7535  133.9594  159.3510 H   0  0  0  0  0  0  0  0  0  0  0  0  # atno 6907 bound_to 6896
  151.7519  135.0829  160.0341 H   0  0  0  0  0  0  0  0  0  0  0  0  # atno 6908 bound_to 6896
  152.3461  133.6086  159.5947 H   0  0  0  0  0  0  0  0  0  0  0  0  # atno 6909 bound_to 6896
  146.1280  139.6137  142.9246 H   0  0  0  0  0  0  0  0  0  0  0  0  # atno 7974 bound_to 7965
  154.7533  140.2771  155.6275 H   0  0  0  0  0  0  0  0  0  0  0  0  # atno 8008 bound_to 7997
  156.2900  140.2674  156.2218 H   0  0  0  0  0  0  0  0  0  0  0  0  # atno 8009 bound_to 7997
  155.0110  140.0372  157.2389 H   0  0  0  0  0  0  0  0  0  0  0  0  # atno 8010 bound_to 7997
  139.9504  144.6030  150.8166 H   0  0  0  0  0  0  0  0  0  0  0  0  # atno 10167 bound_to 10162
  157.6874  131.0673  150.4964 H   0  0  0  0  0  0  0  0  0  0  0  0  # atno 10718 bound_to 10713
  153.5875  135.3472  155.2898 H   0  0  0  0  0  0  0  0  0  0  0  0  # atno 10763 bound_to 10752
  154.8658  135.4197  154.2553 H   0  0  0  0  0  0  0  0  0  0  0  0  # atno 10764 bound_to 10752
  153.3353  135.7046  153.6984 H   0  0  0  0  0  0  0  0  0  0  0  0  # atno 10765 bound_to 10752
  140.9366  133.7305  156.1014 H   0  0  0  0  0  0  0  0  0  0  0  0  # atno 11005 bound_to 11000
  145.5324  141.0426  143.2376 LP  0  0  0  0  0  0  0  0  0  0  0  0  # atno 17320 bound_to 7965
  144.7661  139.6841  143.7214 LP  0  0  0  0  0  0  0  0  0  0  0  0  # atno 17321 bound_to 7965
  140.7584  143.3107  151.2852 LP  0  0  0  0  0  0  0  0  0  0  0  0  # atno 17342 bound_to 10162
  139.6633  144.0151  152.2706 LP  0  0  0  0  0  0  0  0  0  0  0  0  # atno 17343 bound_to 10162
  156.5288  130.4180  149.6212 LP  0  0  0  0  0  0  0  0  0  0  0  0  # atno 17370 bound_to 10713
  156.3088  130.7217  151.2105 LP  0  0  0  0  0  0  0  0  0  0  0  0  # atno 17371 bound_to 10713
  140.7791  134.3746  157.5491 LP  0  0  0  0  0  0  0  0  0  0  0  0  # atno 17394 bound_to 11000
  139.8809  134.9070  156.2936 LP  0  0  0  0  0  0  0  0  0  0  0  0  # atno 17395 bound_to 11000

$$$$
