AV-unprocessed.smi:3155|AV-procd|sdf|12025|dock5
  -GOLD-   2272017443D 1   1.00000     0.00000
 Structure written by MMmdl.
 38 39  0  0  0  0  0  0  0  0  2 V2000
  147.6979  141.9164  154.1063 C   0  0  0  0  0  0  0  0  0  0  0  0
  148.8553  141.3746  154.9628 C   0  0  2  0  0  0  0  0  0  0  0  0
  148.7985  139.8375  155.1316 C   0  0  0  0  0  0  0  0  0  0  0  0
  150.0894  139.1961  154.9587 N   0  0  0  0  0  0  0  0  0  0  0  0
  150.3617  137.9205  154.5103 C   0  0  0  0  0  0  0  0  0  0  0  0
  151.7183  137.7662  154.5263 C   0  0  0  0  0  0  0  0  0  0  0  0
  152.1954  139.0142  155.0154 C   0  0  0  0  0  0  0  0  0  0  0  0
  151.2174  139.8667  155.2771 N   0  0  0  0  0  0  0  0  0  0  0  0
  148.8489  142.0597  156.2746 N   0  3  0  0  0  0  0  0  0  0  0  0
  149.9916  141.7546  157.1640 C   0  0  0  0  0  0  0  0  0  0  0  0
  150.1269  142.7744  158.3044 C   0  0  0  0  0  0  0  0  0  0  0  0
  149.1833  143.5210  158.5693 O   0  0  0  0  0  0  0  0  0  0  0  0
  151.2908  142.8209  158.9847 N   0  0  0  0  0  0  0  0  0  0  0  0
  151.5376  143.7279  160.1042 C   0  0  0  0  0  0  0  0  0  0  0  0
  152.8471  143.2562  160.7365 C   0  0  0  0  0  0  0  0  0  0  0  0
  153.5808  142.5619  159.5974 C   0  0  0  0  0  0  0  0  0  0  0  0
  152.4635  141.9858  158.7271 C   0  0  0  0  0  0  0  0  0  0  0  0
  147.7234  141.5159  153.0925 H   0  0  0  0  0  0  0  0  0  0  0  0
  147.7480  143.0027  154.0221 H   0  0  0  0  0  0  0  0  0  0  0  0
  146.7312  141.6608  154.5412 H   0  0  0  0  0  0  0  0  0  0  0  0
  149.7846  141.6398  154.4562 H   0  0  0  0  0  0  0  0  0  0  0  0
  148.4273  139.5660  156.1198 H   0  0  0  0  0  0  0  0  0  0  0  0
  148.1045  139.4065  154.4088 H   0  0  0  0  0  0  0  0  0  0  0  0
  149.5779  137.2372  154.2176 H   0  0  0  0  0  0  0  0  0  0  0  0
  152.2846  136.8938  154.2360 H   0  0  0  0  0  0  0  0  0  0  0  0
  153.2159  139.3227  155.1881 H   0  0  0  0  0  0  0  0  0  0  0  0
  148.8692  143.0545  156.1004 H   0  0  0  0  0  0  0  0  0  0  0  0
  149.8633  140.7603  157.5907 H   0  0  0  0  0  0  0  0  0  0  0  0
  150.9130  141.7521  156.5805 H   0  0  0  0  0  0  0  0  0  0  0  0
  151.6409  144.7447  159.7222 H   0  0  0  0  0  0  0  0  0  0  0  0
  150.7226  143.7193  160.8299 H   0  0  0  0  0  0  0  0  0  0  0  0
  153.4222  144.0709  161.1773 H   0  0  0  0  0  0  0  0  0  0  0  0
  152.6324  142.5342  161.5256 H   0  0  0  0  0  0  0  0  0  0  0  0
  154.1464  143.2987  159.0254 H   0  0  0  0  0  0  0  0  0  0  0  0
  154.2802  141.8013  159.9461 H   0  0  0  0  0  0  0  0  0  0  0  0
  152.2440  140.9591  159.0230 H   0  0  0  0  0  0  0  0  0  0  0  0
  152.7489  141.9854  157.6743 H   0  0  0  0  0  0  0  0  0  0  0  0
  147.9888  141.8422  156.7577 H   0  0  0  0  0  0  0  0  0  0  0  0
  1  2  1  0  0  0  0
  1 18  1  0  0  0  0
  1 19  1  0  0  0  0
  1 20  1  0  0  0  0
  2  3  1  0  0  0  0
  2  9  1  0  0  0  0
  2 21  1  0  0  0  0
  3  4  1  0  0  0  0
  3 22  1  0  0  0  0
  3 23  1  0  0  0  0
  4  8  1  0  0  0  0
  4  5  1  0  0  0  0
  5  6  2  0  0  0  0
  5 24  1  0  0  0  0
  6  7  1  0  0  0  0
  6 25  1  0  0  0  0
  7  8  2  0  0  0  0
  7 26  1  0  0  0  0
  9 10  1  0  0  0  0
  9 27  1  0  0  0  0
  9 38  1  0  0  0  0
 10 11  1  0  0  0  0
 10 28  1  0  0  0  0
 10 29  1  0  0  0  0
 11 12  2  0  0  0  0
 11 13  1  0  0  0  0
 13 17  1  0  0  0  0
 13 14  1  0  0  0  0
 14 15  1  0  0  0  0
 14 30  1  0  0  0  0
 14 31  1  0  0  0  0
 15 16  1  0  0  0  0
 15 32  1  0  0  0  0
 15 33  1  0  0  0  0
 16 17  1  0  0  0  0
 16 34  1  0  0  0  0
 16 35  1  0  0  0  0
 17 36  1  0  0  0  0
 17 37  1  0  0  0  0
M  CHG  1   9   1
M  END
> <s_m_source_file>
AV-unprocessed.smi

> <i_m_source_file_index>
3155

> <i_lp_mmshare_version>
43012

> <i_f3d_flags>
0

> <s_epik_input>
bjFbY0hdW2NIXVtjSF1uMVtDSDJdW0NAQEhdKFtDSDNdKVtOSF1bQ0gyXUMoPU8pTjJbQ0gyXVtDSDJdW0NIMl1bQ0gyXTI=

> <s_epik_cmdline>
J2VwaWtfcHl0aG9uJywgJy1waCcsICc3LjAnLCAnLXRuJywgJzgnLCAnLW1hJywgJzIwMCcsICctbWV0YWxfYmluZGluZycsICctaW1hZScsICc8aW5maWxlLm1hZT4nLCAnLW9tYWUnLCAnPG91dGZpbGUubWFlPic=

> <r_lp_tautomer_probability>
1

> <r_epik_Ionization_Penalty>
0.120138

> <r_epik_Ionization_Penalty_Charging>
0.120135

> <r_epik_Ionization_Penalty_Neutral>
3.43791e-06

> <r_epik_State_Penalty>
0.109683

> <r_epik_Charging_Adjusted_Penalty>
0.229818

> <i_epik_Tot_Q>
1

> <i_epik_Tot_abs_Q>
1

> <r_epik_Metal_State_Penalty>
0.109693

> <b_epik_Metal_Only>
0

> <s_lp_Force_Field>
OPLS_2005

> <r_lp_Energy>
27.5308

> <b_lp_Chiralities_Consistent>
1

> <s_lp_Variant>
AV-unprocessed.smi:3155-1

> <Gold.Version>
5.8.1

> <Gold.Id.Protein>
6NUR|6NUR_protein|mol2

> <Gold.PLP.Fitness>
45.6176

> <Gold.PLP.PLP>
-37.8458

> <Gold.PLP.part.hbond>
-2.0000

> <Gold.PLP.part.metal>
0.0000

> <Gold.PLP.part.buried>
-5.5559

> <Gold.PLP.part.nonpolar>
-32.7763

> <Gold.PLP.part.repulsive>
0.7539

> <Gold.PLP.ligand.clash>
0.0000

> <Gold.PLP.ligand.torsion>
1.2671

> <Gold.PLP.Chemscore.Hbond>
2.4275

> <Gold.PLP.Chemscore.CHOScore>
1.0000

> <Gold.PLP.Chemscore.Metal>
0.0000

> <Gold.Chemscore.Hbonds>
donor molecule, donor type, donor heavy atom, donor atom, acceptor molecule, acceptor atom, score
      L1  H     9    27       P1  8028  2.00
      P1  H  7989  7998       L1     8  0.39
      L1  C     5    24       P1  7948  0.80

> <Gold.PLP.Chemscore.Internal.Correction>
0.0236

> <Gold.Rescore>
     Score         DG    S(hbond)    S(metal)    S(lipo)     H(rot)  DE(clash)    DE(int)     intcor
     13.87     -15.31       1.00        0.00      95.55       1.84       0.06       1.38       ----

> <Gold.Chemscore.Fitness>
13.8652

> <Gold.Chemscore.DG>
-15.3131

> <Gold.Chemscore.ZeroCoef>
-5.4800

> <Gold.Chemscore.Hbond>
1.0046

> <Gold.Chemscore.Metal>
0.0000

> <Gold.Chemscore.Lipo>
95.5503

> <Gold.Chemscore.Internal_Hbond>
0.0000

> <Gold.Chemscore.DEClash>
0.0631

> <Gold.Chemscore.DEInternal>
1.3848

> <Gold.Chemscore.Rot>
1.8366

> <Gold.Chemscore.Internal.Correction>
   9.000000E+99

> <Gold.Chemscore.Hbonds>
donor molecule, donor type, donor heavy atom, donor atom, acceptor molecule, acceptor atom, score
      L1  H     9    27       P1  8028  1.00

> <Gold.Chemscore.Hbond.Weighted>
-3.3554

> <Gold.Chemscore.Metal.Weighted>
-0.0000

> <Gold.Chemscore.Lipo.Weighted>
-11.1794

> <Gold.Chemscore.Internal_Hbond.Weighted>
0.0000

> <Gold.Chemscore.DEClash.Weighted>
0.0631

> <Gold.Chemscore.DEInternal.Weighted>
1.3848

> <Gold.Chemscore.Rot.Weighted>
4.7017

> <Gold.Chemscore.Internal.Correction.Weighted>
   9.000000E+99

> <Gold.Protein.RotatedTorsions>
[ 6907 6896 6895 6894 ] final  161.31 input  -60.11 | X-H torsion
[ 7974 7965 7964 7962 ] final -103.58 input  175.53 | X-H torsion
[ 8008 7997 7996 7995 ] final   93.77 input   59.86 | X-H torsion
[ 10167 10162 10161 10158 ] final  -72.40 input  -65.29 | X-H torsion
[ 10718 10713 10712 10709 ] final   47.78 input   66.30 | X-H torsion
[ 10763 10752 10751 10750 ] final -145.78 input  -60.55 | X-H torsion
[ 11005 11000 10999 10996 ] final  -16.04 input  -57.11 | X-H torsion

> <Gold.Protein.ActiveResidues>
 VAL166  LYS551  ARG553  GLY616  TRP617  ASP618  TYR619  PRO620  LYS621  CYS622 
 ASP623  PHE694  ASN695  SER759  ASP760  ASP761  ALA762  ILE779  LEU786  VAL792 
 PHE793  MET794  SER795  GLU796  ALA797  LYS798  CYS799  TRP800  GLU811  SER814 

> <Gold.Protein.RotatedAtoms>
  151.9576  133.3685  159.4022 H   0  0  0  0  0  0  0  0  0  0  0  0  # atno 6907 bound_to 6896
  150.6970  134.4275  159.5242 H   0  0  0  0  0  0  0  0  0  0  0  0  # atno 6908 bound_to 6896
  152.1958  134.8631  160.0564 H   0  0  0  0  0  0  0  0  0  0  0  0  # atno 6909 bound_to 6896
  145.2540  140.9247  143.3079 H   0  0  0  0  0  0  0  0  0  0  0  0  # atno 7974 bound_to 7965
  156.0505  140.3308  155.7345 H   0  0  0  0  0  0  0  0  0  0  0  0  # atno 8008 bound_to 7997
  155.5609  140.0619  157.2846 H   0  0  0  0  0  0  0  0  0  0  0  0  # atno 8009 bound_to 7997
  154.4433  140.1877  156.0769 H   0  0  0  0  0  0  0  0  0  0  0  0  # atno 8010 bound_to 7997
  140.5195  143.2333  151.7455 H   0  0  0  0  0  0  0  0  0  0  0  0  # atno 10167 bound_to 10162
  157.4620  130.8202  149.7896 H   0  0  0  0  0  0  0  0  0  0  0  0  # atno 10718 bound_to 10713
  154.8367  135.3404  154.6558 H   0  0  0  0  0  0  0  0  0  0  0  0  # atno 10763 bound_to 10752
  153.7172  135.6960  153.5026 H   0  0  0  0  0  0  0  0  0  0  0  0  # atno 10764 bound_to 10752
  153.2408  135.4385  155.0649 H   0  0  0  0  0  0  0  0  0  0  0  0  # atno 10765 bound_to 10752
  140.8027  133.8201  155.9486 H   0  0  0  0  0  0  0  0  0  0  0  0  # atno 11005 bound_to 11000
  144.9477  139.4117  143.6418 LP  0  0  0  0  0  0  0  0  0  0  0  0  # atno 17320 bound_to 7965
  146.3294  139.8469  142.8880 LP  0  0  0  0  0  0  0  0  0  0  0  0  # atno 17321 bound_to 7965
  139.4919  144.4275  151.9909 LP  0  0  0  0  0  0  0  0  0  0  0  0  # atno 17342 bound_to 10162
  140.3371  144.3247  150.5975 LP  0  0  0  0  0  0  0  0  0  0  0  0  # atno 17343 bound_to 10162
  156.0033  130.3868  150.2524 LP  0  0  0  0  0  0  0  0  0  0  0  0  # atno 17370 bound_to 10713
  157.0702  131.0114  151.3193 LP  0  0  0  0  0  0  0  0  0  0  0  0  # atno 17371 bound_to 10713
  140.9278  134.2060  157.4884 LP  0  0  0  0  0  0  0  0  0  0  0  0  # atno 17394 bound_to 11000
  139.8720  134.9820  156.5138 LP  0  0  0  0  0  0  0  0  0  0  0  0  # atno 17395 bound_to 11000

$$$$
