AV-unprocessed.smi:686|AV-procd|sdf|3337|dock4
  -GOLD-   22720 0313D 1   1.00000     0.00000
 Structure written by MMmdl.
 41 42  0  0  0  0  0  0  0  0  2 V2000
  147.7146  128.1252  152.2078 C   0  0  0  0  0  0  0  0  0  0  0  0
  146.6585  129.0837  152.7797 C   0  0  2  0  0  0  0  0  0  0  0  0
  145.9412  129.8784  151.6822 C   0  0  0  0  0  0  0  0  0  0  0  0
  146.6085  131.1943  151.6250 N   0  3  1  0  0  0  0  0  0  0  0  0
  145.8407  132.2688  150.9336 C   0  0  0  0  0  0  0  0  0  0  0  0
  144.5598  132.6323  151.7077 C   0  0  0  0  0  0  0  0  0  0  0  0
  145.4753  131.8628  149.4934 C   0  0  0  0  0  0  0  0  0  0  0  0
  147.0170  131.5007  153.0127 C   0  0  0  0  0  0  0  0  0  0  0  0
  147.2790  130.1528  153.7020 C   0  0  1  0  0  0  0  0  0  0  0  0
  146.6653  130.1212  155.0341 N   0  0  0  0  0  0  0  0  0  0  0  0
  147.2885  129.0126  156.2031 S   0  0  0  0  0  0  0  0  0  0  0  0
  148.3403  128.2205  155.5476 O   0  0  0  0  0  0  0  0  0  0  0  0
  147.5960  129.7736  157.4241 O   0  0  0  0  0  0  0  0  0  0  0  0
  145.8390  127.9267  156.5400 C   0  0  0  0  0  0  0  0  0  0  0  0
  146.2735  126.7591  157.3787 C   0  0  0  0  0  0  0  0  0  0  0  0
  145.9261  126.4606  158.7254 C   0  0  0  0  0  0  0  0  0  0  0  0
  146.5920  125.2954  158.9751 C   0  0  0  0  0  0  0  0  0  0  0  0
  147.2948  124.9062  157.8815 O   0  0  0  0  0  0  0  0  0  0  0  0
  147.0867  125.8483  156.8677 N   0  0  0  0  0  0  0  0  0  0  0  0
  148.4741  128.6620  151.6381 H   0  0  0  0  0  0  0  0  0  0  0  0
  147.2590  127.3888  151.5454 H   0  0  0  0  0  0  0  0  0  0  0  0
  148.2186  127.5809  153.0073 H   0  0  0  0  0  0  0  0  0  0  0  0
  145.9195  128.4798  153.3085 H   0  0  0  0  0  0  0  0  0  0  0  0
  145.9589  129.3682  150.7186 H   0  0  0  0  0  0  0  0  0  0  0  0
  144.8962  130.0201  151.9634 H   0  0  0  0  0  0  0  0  0  0  0  0
  146.4695  133.1592  150.8839 H   0  0  0  0  0  0  0  0  0  0  0  0
  143.9774  133.3811  151.1700 H   0  0  0  0  0  0  0  0  0  0  0  0
  144.7800  133.0521  152.6893 H   0  0  0  0  0  0  0  0  0  0  0  0
  143.9217  131.7593  151.8505 H   0  0  0  0  0  0  0  0  0  0  0  0
  144.8763  132.6354  149.0105 H   0  0  0  0  0  0  0  0  0  0  0  0
  144.8963  130.9386  149.4764 H   0  0  0  0  0  0  0  0  0  0  0  0
  146.3592  131.7170  148.8724 H   0  0  0  0  0  0  0  0  0  0  0  0
  147.8993  132.1412  153.0334 H   0  0  0  0  0  0  0  0  0  0  0  0
  146.2073  132.0361  153.5126 H   0  0  0  0  0  0  0  0  0  0  0  0
  148.3556  130.0053  153.7983 H   0  0  0  0  0  0  0  0  0  0  0  0
  145.6500  130.0485  154.9705 H   0  0  0  0  0  0  0  0  0  0  0  0
  145.0742  128.5182  157.0445 H   0  0  0  0  0  0  0  0  0  0  0  0
  145.4279  127.5916  155.5880 H   0  0  0  0  0  0  0  0  0  0  0  0
  145.2860  127.0109  159.3988 H   0  0  0  0  0  0  0  0  0  0  0  0
  146.6632  124.6515  159.8393 H   0  0  0  0  0  0  0  0  0  0  0  0
  147.4636  131.0525  151.1061 H   0  0  0  0  0  0  0  0  0  0  0  0
  1  2  1  0  0  0  0
  1 20  1  0  0  0  0
  1 21  1  0  0  0  0
  1 22  1  0  0  0  0
  2  9  1  0  0  0  0
  2  3  1  0  0  0  0
  2 23  1  0  0  0  0
  3  4  1  0  0  0  0
  3 24  1  0  0  0  0
  3 25  1  0  0  0  0
  4  5  1  0  0  0  0
  4  8  1  0  0  0  0
  4 41  1  0  0  0  0
  5  6  1  0  0  0  0
  5  7  1  0  0  0  0
  5 26  1  0  0  0  0
  6 27  1  0  0  0  0
  6 28  1  0  0  0  0
  6 29  1  0  0  0  0
  7 30  1  0  0  0  0
  7 31  1  0  0  0  0
  7 32  1  0  0  0  0
  8  9  1  0  0  0  0
  8 33  1  0  0  0  0
  8 34  1  0  0  0  0
  9 10  1  0  0  0  0
  9 35  1  0  0  0  0
 10 11  1  0  0  0  0
 10 36  1  0  0  0  0
 11 12  2  0  0  0  0
 11 13  2  0  0  0  0
 11 14  1  0  0  0  0
 14 15  1  0  0  0  0
 14 37  1  0  0  0  0
 14 38  1  0  0  0  0
 15 19  2  0  0  0  0
 15 16  1  0  0  0  0
 16 17  2  0  0  0  0
 16 39  1  0  0  0  0
 17 18  1  0  0  0  0
 17 40  1  0  0  0  0
 18 19  1  0  0  0  0
M  CHG  1   4   1
M  END
> <s_m_source_file>
AV-unprocessed.smi

> <i_m_source_file_index>
686

> <i_lp_mmshare_version>
43012

> <i_f3d_flags>
0

> <s_epik_input>
W0NIM11bQ0BASF0xW0NIMl1OKFtDSF0oW0NIM10pW0NIM10pW0NIMl1bQ0BIXTFbTkhdUyg9TykoPU8pW0NIMl1jMltjSF1bY0hdb24y

> <s_epik_cmdline>
J2VwaWtfcHl0aG9uJywgJy1waCcsICc3LjAnLCAnLXRuJywgJzgnLCAnLW1hJywgJzIwMCcsICctbWV0YWxfYmluZGluZycsICctaW1hZScsICc8aW5maWxlLm1hZT4nLCAnLW9tYWUnLCAnPG91dGZpbGUubWFlPic=

> <r_epik_Ionization_Penalty>
0.00200818

> <r_epik_Ionization_Penalty_Charging>
0.000701289

> <r_epik_Ionization_Penalty_Neutral>
0.00130689

> <r_epik_State_Penalty>
0.00131314

> <r_epik_Charging_Adjusted_Penalty>
0.00201443

> <i_epik_Tot_Q>
1

> <i_epik_Tot_abs_Q>
1

> <r_epik_Metal_State_Penalty>
0.310831

> <b_epik_Metal_Only>
0

> <s_lp_Force_Field>
OPLS_2005

> <r_lp_Energy>
22.7484

> <b_lp_Chiralities_Consistent>
1

> <s_lp_Variant>
AV-unprocessed.smi:686-1

> <Gold.Version>
5.8.1

> <Gold.Id.Protein>
6NUR|6NUR_protein|mol2

> <Gold.PLP.Fitness>
36.0090

> <Gold.PLP.PLP>
-31.0001

> <Gold.PLP.part.hbond>
-3.0000

> <Gold.PLP.part.metal>
0.0000

> <Gold.PLP.part.buried>
-5.5953

> <Gold.PLP.part.nonpolar>
-22.3525

> <Gold.PLP.part.repulsive>
0.0836

> <Gold.PLP.ligand.clash>
0.0000

> <Gold.PLP.ligand.torsion>
0.5006

> <Gold.PLP.Chemscore.Hbond>
1.9440

> <Gold.PLP.Chemscore.CHOScore>
0.0000

> <Gold.PLP.Chemscore.Metal>
0.0000

> <Gold.Chemscore.Hbonds>
donor molecule, donor type, donor heavy atom, donor atom, acceptor molecule, acceptor atom, score
      L1  H     4    41       P1 10747  1.00
      L1  H    10    36       P1 10956  0.02

> <Gold.PLP.Chemscore.Internal.Correction>
0.1781

> <Gold.Rescore>
     Score         DG    S(hbond)    S(metal)    S(lipo)     H(rot)  DE(clash)    DE(int)     intcor
     15.08     -16.57       1.97        0.00      80.34       1.91       0.54       0.95       ----

> <Gold.Chemscore.Fitness>
15.0816

> <Gold.Chemscore.DG>
-16.5729

> <Gold.Chemscore.ZeroCoef>
-5.4800

> <Gold.Chemscore.Hbond>
1.9721

> <Gold.Chemscore.Metal>
0.0000

> <Gold.Chemscore.Lipo>
80.3375

> <Gold.Chemscore.Internal_Hbond>
0.0000

> <Gold.Chemscore.DEClash>
0.5423

> <Gold.Chemscore.DEInternal>
0.9490

> <Gold.Chemscore.Rot>
1.9115

> <Gold.Chemscore.Internal.Correction>
   9.000000E+99

> <Gold.Chemscore.Hbonds>
donor molecule, donor type, donor heavy atom, donor atom, acceptor molecule, acceptor atom, score
      L1  H     4    41       P1 10747  1.00
      L1  H    10    36       P1 10956  0.06

> <Gold.Chemscore.Hbond.Weighted>
-6.5869

> <Gold.Chemscore.Metal.Weighted>
-0.0000

> <Gold.Chemscore.Lipo.Weighted>
-9.3995

> <Gold.Chemscore.Internal_Hbond.Weighted>
0.0000

> <Gold.Chemscore.DEClash.Weighted>
0.5423

> <Gold.Chemscore.DEInternal.Weighted>
0.9490

> <Gold.Chemscore.Rot.Weighted>
4.8935

> <Gold.Chemscore.Internal.Correction.Weighted>
   9.000000E+99

> <Gold.Protein.RotatedTorsions>
[ 6907 6896 6895 6894 ] final   -6.31 input  -60.11 | X-H torsion
[ 7974 7965 7964 7962 ] final   30.74 input  175.53 | X-H torsion
[ 8008 7997 7996 7995 ] final  -72.74 input   59.86 | X-H torsion
[ 10167 10162 10161 10158 ] final  -26.78 input  -65.29 | X-H torsion
[ 10718 10713 10712 10709 ] final -132.82 input   66.30 | X-H torsion
[ 10763 10752 10751 10750 ] final   15.81 input  -60.55 | X-H torsion
[ 11005 11000 10999 10996 ] final  -99.42 input  -57.11 | X-H torsion

> <Gold.Protein.ActiveResidues>
 VAL166  LYS551  ARG553  GLY616  TRP617  ASP618  TYR619  PRO620  LYS621  CYS622 
 ASP623  PHE694  ASN695  SER759  ASP760  ASP761  ALA762  ILE779  LEU786  VAL792 
 PHE793  MET794  SER795  GLU796  ALA797  LYS798  CYS799  TRP800  GLU811  SER814 

> <Gold.Protein.RotatedAtoms>
  151.4676  135.1043  159.9742 H   0  0  0  0  0  0  0  0  0  0  0  0  # atno 6907 bound_to 6896
  152.4829  133.8295  159.7106 H   0  0  0  0  0  0  0  0  0  0  0  0  # atno 6908 bound_to 6896
  150.8914  133.7177  159.2930 H   0  0  0  0  0  0  0  0  0  0  0  0  # atno 6909 bound_to 6896
  146.1593  139.6748  142.9044 H   0  0  0  0  0  0  0  0  0  0  0  0  # atno 7974 bound_to 7965
  154.5191  140.0791  156.8137 H   0  0  0  0  0  0  0  0  0  0  0  0  # atno 8008 bound_to 7997
  155.3616  140.3418  155.4223 H   0  0  0  0  0  0  0  0  0  0  0  0  # atno 8009 bound_to 7997
  156.1661  140.1604  156.8516 H   0  0  0  0  0  0  0  0  0  0  0  0  # atno 8010 bound_to 7997
  140.7281  143.4149  151.1046 H   0  0  0  0  0  0  0  0  0  0  0  0  # atno 10167 bound_to 10162
  156.2385  130.7081  151.0932 H   0  0  0  0  0  0  0  0  0  0  0  0  # atno 10718 bound_to 10713
  153.1490  135.6775  153.8911 H   0  0  0  0  0  0  0  0  0  0  0  0  # atno 10763 bound_to 10752
  153.8344  135.3113  155.3422 H   0  0  0  0  0  0  0  0  0  0  0  0  # atno 10764 bound_to 10752
  154.7847  135.4869  154.0006 H   0  0  0  0  0  0  0  0  0  0  0  0  # atno 10765 bound_to 10752
  141.1309  133.8320  157.0970 H   0  0  0  0  0  0  0  0  0  0  0  0  # atno 11005 bound_to 11000
  145.4629  141.0433  143.2742 LP  0  0  0  0  0  0  0  0  0  0  0  0  # atno 17320 bound_to 7965
  144.8005  139.6149  143.7073 LP  0  0  0  0  0  0  0  0  0  0  0  0  # atno 17321 bound_to 7965
  139.7787  143.8388  152.3134 LP  0  0  0  0  0  0  0  0  0  0  0  0  # atno 17342 bound_to 10162
  139.8331  144.7244  150.9425 LP  0  0  0  0  0  0  0  0  0  0  0  0  # atno 17343 bound_to 10162
  157.7165  131.0707  150.6307 LP  0  0  0  0  0  0  0  0  0  0  0  0  # atno 17370 bound_to 10713
  156.6379  130.4450  149.5763 LP  0  0  0  0  0  0  0  0  0  0  0  0  # atno 17371 bound_to 10713
  140.0357  134.9879  157.0866 LP  0  0  0  0  0  0  0  0  0  0  0  0  # atno 17394 bound_to 11000
  140.4214  134.1876  155.7164 LP  0  0  0  0  0  0  0  0  0  0  0  0  # atno 17395 bound_to 11000

$$$$
