AV-unprocessed.smi:1159|AV-procd|sdf|4915|dock9
  -GOLD-   22720 3493D 1   1.00000     0.00000
 Structure written by MMmdl.
 41 42  0  0  0  0  0  0  0  0  1 V2000
  146.1246  138.3096  154.5246 O   0  0  0  0  0  0  0  0  0  0  0  0
  146.9877  137.7844  153.8213 C   0  0  0  0  0  0  0  0  0  0  0  0
  148.2742  138.1678  153.7563 N   0  0  0  0  0  0  0  0  0  0  0  0
  148.9189  139.2077  154.4790 C   0  0  0  0  0  0  0  0  0  0  0  0
  148.2411  140.1452  155.2937 C   0  0  0  0  0  0  0  0  0  0  0  0
  148.9920  141.1205  155.9771 C   0  0  0  0  0  0  0  0  0  0  0  0
  150.3935  141.1267  155.8337 C   0  0  0  0  0  0  0  0  0  0  0  0
  151.1205  142.0881  156.5048 O   0  0  0  0  0  0  0  0  0  0  0  0
  150.6067  142.5958  157.7335 C   0  0  0  0  0  0  0  0  0  0  0  0
  151.6331  143.5510  158.3530 C   0  0  0  0  0  0  0  0  0  0  0  0
  151.0819  144.2290  159.3592 F   0  0  0  0  0  0  0  0  0  0  0  0
  152.6617  142.8470  158.8241 F   0  0  0  0  0  0  0  0  0  0  0  0
  152.0845  144.4032  157.4330 F   0  0  0  0  0  0  0  0  0  0  0  0
  151.0511  140.2223  155.0665 N   0  0  0  0  0  0  0  0  0  0  0  0
  150.3253  139.2887  154.4153 C   0  0  0  0  0  0  0  0  0  0  0  0
  146.7454  136.7586  152.9927 N   0  0  0  0  0  0  0  0  0  0  0  0
  145.4499  136.1051  152.7963 C   0  0  1  0  0  0  0  0  0  0  0  0
  145.5713  135.0079  151.7150 C   0  0  0  0  0  0  0  0  0  0  0  0
  144.2387  134.6368  151.0449 C   0  0  0  0  0  0  0  0  0  0  0  0
  143.1895  134.0312  151.9887 C   0  0  0  0  0  0  0  0  0  0  0  0
  142.6911  135.0102  153.0655 C   0  0  0  0  0  0  0  0  0  0  0  0
  143.6219  135.1392  154.1797 N   0  0  0  0  0  0  0  0  0  0  0  0
  144.8773  135.6115  154.1387 C   0  0  0  0  0  0  0  0  0  0  0  0
  145.5652  135.6441  155.1589 O   0  0  0  0  0  0  0  0  0  0  0  0
  148.8430  137.7034  153.0634 H   0  0  0  0  0  0  0  0  0  0  0  0
  147.1695  140.1271  155.4187 H   0  0  0  0  0  0  0  0  0  0  0  0
  148.5006  141.8496  156.6045 H   0  0  0  0  0  0  0  0  0  0  0  0
  149.6697  143.1277  157.5603 H   0  0  0  0  0  0  0  0  0  0  0  0
  150.4037  141.7767  158.4255 H   0  0  0  0  0  0  0  0  0  0  0  0
  150.8882  138.5864  153.8178 H   0  0  0  0  0  0  0  0  0  0  0  0
  147.5169  136.3886  152.4567 H   0  0  0  0  0  0  0  0  0  0  0  0
  144.7592  136.8700  152.4358 H   0  0  0  0  0  0  0  0  0  0  0  0
  146.2443  135.3465  150.9260 H   0  0  0  0  0  0  0  0  0  0  0  0
  146.0388  134.1168  152.1364 H   0  0  0  0  0  0  0  0  0  0  0  0
  143.8218  135.5164  150.5524 H   0  0  0  0  0  0  0  0  0  0  0  0
  144.4415  133.9205  150.2482 H   0  0  0  0  0  0  0  0  0  0  0  0
  142.3352  133.7221  151.3856 H   0  0  0  0  0  0  0  0  0  0  0  0
  143.5733  133.1206  152.4509 H   0  0  0  0  0  0  0  0  0  0  0  0
  142.4704  135.9891  152.6375 H   0  0  0  0  0  0  0  0  0  0  0  0
  141.7524  134.6389  153.4773 H   0  0  0  0  0  0  0  0  0  0  0  0
  143.2815  134.8273  155.0779 H   0  0  0  0  0  0  0  0  0  0  0  0
  1  2  2  0  0  0  0
  2  3  1  0  0  0  0
  2 16  1  0  0  0  0
  3  4  1  0  0  0  0
  3 25  1  0  0  0  0
  4 15  1  0  0  0  0
  4  5  2  0  0  0  0
  5  6  1  0  0  0  0
  5 26  1  0  0  0  0
  6  7  2  0  0  0  0
  6 27  1  0  0  0  0
  7  8  1  0  0  0  0
  7 14  1  0  0  0  0
  8  9  1  0  0  0  0
  9 10  1  0  0  0  0
  9 28  1  0  0  0  0
  9 29  1  0  0  0  0
 10 11  1  0  0  0  0
 10 12  1  0  0  0  0
 10 13  1  0  0  0  0
 14 15  2  0  0  0  0
 15 30  1  0  0  0  0
 16 17  1  0  0  0  0
 16 31  1  0  0  0  0
 17 23  1  0  0  0  0
 17 18  1  0  0  0  0
 17 32  1  0  0  0  0
 18 19  1  0  0  0  0
 18 33  1  0  0  0  0
 18 34  1  0  0  0  0
 19 20  1  0  0  0  0
 19 35  1  0  0  0  0
 19 36  1  0  0  0  0
 20 21  1  0  0  0  0
 20 37  1  0  0  0  0
 20 38  1  0  0  0  0
 21 22  1  0  0  0  0
 21 39  1  0  0  0  0
 21 40  1  0  0  0  0
 22 23  1  0  0  0  0
 22 41  1  0  0  0  0
 23 24  2  0  0  0  0
M  END
> <s_m_source_file>
AV-unprocessed.smi

> <i_m_source_file_index>
1159

> <i_lp_mmshare_version>
43012

> <i_f3d_flags>
0

> <s_epik_input>
Tz1DMVtOSF1bQ0gyXVtDSDJdW0NIMl1bQ0gyXVtDQEhdMVtOSF1DKD1PKVtOSF1jMltjSF1bY0hdYyhuW2NIXTIpT1tDSDJdQyhGKShGKUY=

> <s_epik_cmdline>
J2VwaWtfcHl0aG9uJywgJy1waCcsICc3LjAnLCAnLXRuJywgJzgnLCAnLW1hJywgJzIwMCcsICctbWV0YWxfYmluZGluZycsICctaW1hZScsICc8aW5maWxlLm1hZT4nLCAnLW9tYWUnLCAnPG91dGZpbGUubWFlPic=

> <r_lp_tautomer_probability>
1

> <r_epik_Ionization_Penalty>
3.53205e-05

> <r_epik_Ionization_Penalty_Charging>
0

> <r_epik_Ionization_Penalty_Neutral>
3.53205e-05

> <r_epik_State_Penalty>
-0

> <r_epik_Charging_Adjusted_Penalty>
0

> <i_epik_Tot_Q>
0

> <i_epik_Tot_abs_Q>
0

> <r_epik_Metal_State_Penalty>
-0

> <b_epik_Metal_Only>
0

> <s_lp_Force_Field>
OPLS_2005

> <r_lp_Energy>
11.134

> <b_lp_Chiralities_Consistent>
1

> <s_lp_Variant>
AV-unprocessed.smi:1159-2

> <Gold.Version>
5.8.1

> <Gold.Id.Protein>
6NUR|6NUR_protein|mol2

> <Gold.PLP.Fitness>
44.7636

> <Gold.PLP.PLP>
-38.3043

> <Gold.PLP.part.hbond>
-3.0000

> <Gold.PLP.part.metal>
0.0000

> <Gold.PLP.part.buried>
-5.6669

> <Gold.PLP.part.nonpolar>
-30.0155

> <Gold.PLP.part.repulsive>
0.2599

> <Gold.PLP.ligand.clash>
0.0000

> <Gold.PLP.ligand.torsion>
0.5305

> <Gold.PLP.Chemscore.Hbond>
2.4940

> <Gold.PLP.Chemscore.CHOScore>
0.0000

> <Gold.PLP.Chemscore.Metal>
0.0000

> <Gold.Chemscore.Hbonds>
donor molecule, donor type, donor heavy atom, donor atom, acceptor molecule, acceptor atom, score
      L1  H     3    25       P1  7948  0.93
      L1  H    16    31       P1  7948  1.00
      P1  H  7989  7998       L1    14  0.55

> <Gold.PLP.Chemscore.Internal.Correction>
0.0382

> <Gold.Rescore>
     Score         DG    S(hbond)    S(metal)    S(lipo)     H(rot)  DE(clash)    DE(int)     intcor
     12.74     -14.88       1.97        0.00      63.49       1.81       0.28       1.85       ----

> <Gold.Chemscore.Fitness>
12.7442

> <Gold.Chemscore.DG>
-14.8803

> <Gold.Chemscore.ZeroCoef>
-5.4800

> <Gold.Chemscore.Hbond>
1.9747

> <Gold.Chemscore.Metal>
0.0000

> <Gold.Chemscore.Lipo>
63.4931

> <Gold.Chemscore.Internal_Hbond>
0.0000

> <Gold.Chemscore.DEClash>
0.2843

> <Gold.Chemscore.DEInternal>
1.8518

> <Gold.Chemscore.Rot>
1.8062

> <Gold.Chemscore.Internal.Correction>
   9.000000E+99

> <Gold.Chemscore.Hbonds>
donor molecule, donor type, donor heavy atom, donor atom, acceptor molecule, acceptor atom, score
      L1  H     3    25       P1  7948  0.91
      L1  H    16    31       P1  7948  0.95
      P1  H  7989  7998       L1    14  0.03

> <Gold.Chemscore.Hbond.Weighted>
-6.5955

> <Gold.Chemscore.Metal.Weighted>
-0.0000

> <Gold.Chemscore.Lipo.Weighted>
-7.4287

> <Gold.Chemscore.Internal_Hbond.Weighted>
0.0000

> <Gold.Chemscore.DEClash.Weighted>
0.2843

> <Gold.Chemscore.DEInternal.Weighted>
1.8518

> <Gold.Chemscore.Rot.Weighted>
4.6238

> <Gold.Chemscore.Internal.Correction.Weighted>
   9.000000E+99

> <Gold.Protein.RotatedTorsions>
[ 6907 6896 6895 6894 ] final   -5.73 input  -60.11 | X-H torsion
[ 7974 7965 7964 7962 ] final  -96.01 input  175.53 | X-H torsion
[ 8008 7997 7996 7995 ] final  -40.71 input   59.86 | X-H torsion
[ 10167 10162 10161 10158 ] final  147.29 input  -65.29 | X-H torsion
[ 10718 10713 10712 10709 ] final  -28.76 input   66.30 | X-H torsion
[ 10763 10752 10751 10750 ] final -148.65 input  -60.55 | X-H torsion
[ 11005 11000 10999 10996 ] final  -79.75 input  -57.11 | X-H torsion

> <Gold.Protein.ActiveResidues>
 VAL166  LYS551  ARG553  GLY616  TRP617  ASP618  TYR619  PRO620  LYS621  CYS622 
 ASP623  PHE694  ASN695  SER759  ASP760  ASP761  ALA762  ILE779  LEU786  VAL792 
 PHE793  MET794  SER795  GLU796  ALA797  LYS798  CYS799  TRP800  GLU811  SER814 

> <Gold.Protein.RotatedAtoms>
  151.4769  135.1049  159.9766 H   0  0  0  0  0  0  0  0  0  0  0  0  # atno 6907 bound_to 6896
  152.4794  133.8214  159.7066 H   0  0  0  0  0  0  0  0  0  0  0  0  # atno 6908 bound_to 6896
  150.8855  133.7252  159.2946 H   0  0  0  0  0  0  0  0  0  0  0  0  # atno 6909 bound_to 6896
  145.3525  140.9479  143.2546 H   0  0  0  0  0  0  0  0  0  0  0  0  # atno 7974 bound_to 7965
  154.4010  140.1518  156.3071 H   0  0  0  0  0  0  0  0  0  0  0  0  # atno 8008 bound_to 7997
  155.8649  140.3451  155.5759 H   0  0  0  0  0  0  0  0  0  0  0  0  # atno 8009 bound_to 7997
  155.7839  140.0847  157.2035 H   0  0  0  0  0  0  0  0  0  0  0  0  # atno 8010 bound_to 7997
  139.4892  144.5766  151.6953 H   0  0  0  0  0  0  0  0  0  0  0  0  # atno 10167 bound_to 10162
  156.4211  130.4426  149.7183 H   0  0  0  0  0  0  0  0  0  0  0  0  # atno 10718 bound_to 10713
  154.8221  135.3329  154.7007 H   0  0  0  0  0  0  0  0  0  0  0  0  # atno 10763 bound_to 10752
  153.7638  135.6930  153.4924 H   0  0  0  0  0  0  0  0  0  0  0  0  # atno 10764 bound_to 10752
  153.2092  135.4488  155.0308 H   0  0  0  0  0  0  0  0  0  0  0  0  # atno 10765 bound_to 10752
  141.1667  133.7119  156.8169 H   0  0  0  0  0  0  0  0  0  0  0  0  # atno 11005 bound_to 11000
  144.8707  139.5043  143.6769 LP  0  0  0  0  0  0  0  0  0  0  0  0  # atno 17320 bound_to 7965
  146.2962  139.7284  142.9125 LP  0  0  0  0  0  0  0  0  0  0  0  0  # atno 17321 bound_to 7965
  140.5364  144.0650  150.6072 LP  0  0  0  0  0  0  0  0  0  0  0  0  # atno 17342 bound_to 10162
  140.3657  143.2883  152.0334 LP  0  0  0  0  0  0  0  0  0  0  0  0  # atno 17343 bound_to 10162
  156.4124  130.7728  151.2742 LP  0  0  0  0  0  0  0  0  0  0  0  0  # atno 17370 bound_to 10713
  157.7508  131.0207  150.3721 LP  0  0  0  0  0  0  0  0  0  0  0  0  # atno 17371 bound_to 10713
  140.2147  134.8801  157.3313 LP  0  0  0  0  0  0  0  0  0  0  0  0  # atno 17394 bound_to 11000
  140.2050  134.4208  155.7642 LP  0  0  0  0  0  0  0  0  0  0  0  0  # atno 17395 bound_to 11000

$$$$
