AV-unprocessed.smi:701|AV-procd|sdf|3412|dock5
  -GOLD-   22720 0393D 1   1.00000     0.00000
 Structure written by MMmdl.
 48 50  0  0  0  0  0  0  0  0  2 V2000
  153.5302  142.0036  160.8366 C   0  0  0  0  0  0  0  0  0  0  0  0
  152.6632  142.5700  159.7102 C   0  0  0  0  0  0  0  0  0  0  0  0
  151.9596  141.5030  159.0970 O   0  0  0  0  0  0  0  0  0  0  0  0
  151.8639  141.6349  157.6841 C   0  0  2  0  0  0  0  0  0  0  0  0
  150.9366  142.7863  157.2742 C   0  0  0  0  0  0  0  0  0  0  0  0
  149.7994  141.7646  157.3124 C   0  0  1  0  0  0  0  0  0  0  0  0
  148.8442  141.9542  156.2293 N   0  0  0  0  0  0  0  0  0  0  0  0
  148.2074  140.9664  155.5805 C   0  0  0  0  0  0  0  0  0  0  0  0
  148.3300  139.7809  155.8866 O   0  0  0  0  0  0  0  0  0  0  0  0
  147.3016  141.3484  154.3968 C   0  0  0  0  0  0  0  0  0  0  0  0
  146.1745  142.2326  154.7469 N   0  0  0  0  0  0  0  0  0  0  0  0
  145.9054  143.3156  153.8916 C   0  0  0  0  0  0  0  0  0  0  0  0
  144.8823  144.1616  154.1166 C   0  0  0  0  0  0  0  0  0  0  0  0
  144.0409  143.9319  155.2845 C   0  0  0  0  0  0  0  0  0  0  0  0
  143.0996  144.6916  155.5033 O   0  0  0  0  0  0  0  0  0  0  0  0
  144.3438  142.8690  156.0857 N   0  5  0  0  0  0  0  0  0  0  0  0
  145.3870  142.0163  155.8443 C   0  0  0  0  0  0  0  0  0  0  0  0
  145.6356  141.0566  156.5743 O   0  0  0  0  0  0  0  0  0  0  0  0
  150.8435  140.6457  157.0587 C   0  0  0  0  0  0  0  0  0  0  0  0
  150.5999  139.3268  157.8136 C   0  0  0  0  0  0  0  0  0  0  0  0
  151.7926  138.3610  157.7205 C   0  0  0  0  0  0  0  0  0  0  0  0
  152.1218  138.0305  156.2589 C   0  0  0  0  0  0  0  0  0  0  0  0
  152.3179  139.3064  155.4299 C   0  0  0  0  0  0  0  0  0  0  0  0
  151.1225  140.2627  155.5852 C   0  0  0  0  0  0  0  0  0  0  0  0
  154.0899  142.7959  161.3340 H   0  0  0  0  0  0  0  0  0  0  0  0
  154.2469  141.2781  160.4511 H   0  0  0  0  0  0  0  0  0  0  0  0
  152.9174  141.5042  161.5873 H   0  0  0  0  0  0  0  0  0  0  0  0
  151.9679  143.3079  160.1119 H   0  0  0  0  0  0  0  0  0  0  0  0
  153.2917  143.0746  158.9750 H   0  0  0  0  0  0  0  0  0  0  0  0
  152.8343  141.6408  157.1853 H   0  0  0  0  0  0  0  0  0  0  0  0
  150.8420  143.5938  158.0001 H   0  0  0  0  0  0  0  0  0  0  0  0
  151.1528  143.1689  156.2750 H   0  0  0  0  0  0  0  0  0  0  0  0
  149.3460  141.7057  158.3047 H   0  0  0  0  0  0  0  0  0  0  0  0
  148.6920  142.9009  155.9118 H   0  0  0  0  0  0  0  0  0  0  0  0
  147.9168  141.8135  153.6246 H   0  0  0  0  0  0  0  0  0  0  0  0
  146.9309  140.4274  153.9455 H   0  0  0  0  0  0  0  0  0  0  0  0
  146.5712  143.4104  153.0463 H   0  0  0  0  0  0  0  0  0  0  0  0
  144.6870  144.9866  153.4476 H   0  0  0  0  0  0  0  0  0  0  0  0
  150.3776  139.5183  158.8636 H   0  0  0  0  0  0  0  0  0  0  0  0
  149.7103  138.8343  157.4188 H   0  0  0  0  0  0  0  0  0  0  0  0
  152.6634  138.8074  158.2020 H   0  0  0  0  0  0  0  0  0  0  0  0
  151.5726  137.4440  158.2675 H   0  0  0  0  0  0  0  0  0  0  0  0
  153.0150  137.4073  156.2060 H   0  0  0  0  0  0  0  0  0  0  0  0
  151.3088  137.4435  155.8299 H   0  0  0  0  0  0  0  0  0  0  0  0
  153.2354  139.8065  155.7405 H   0  0  0  0  0  0  0  0  0  0  0  0
  152.4510  139.0475  154.3790 H   0  0  0  0  0  0  0  0  0  0  0  0
  150.2420  139.7891  155.1491 H   0  0  0  0  0  0  0  0  0  0  0  0
  151.3040  141.1510  154.9793 H   0  0  0  0  0  0  0  0  0  0  0  0
  1  2  1  0  0  0  0
  1 25  1  0  0  0  0
  1 26  1  0  0  0  0
  1 27  1  0  0  0  0
  2  3  1  0  0  0  0
  2 28  1  0  0  0  0
  2 29  1  0  0  0  0
  3  4  1  0  0  0  0
  4 19  1  0  0  0  0
  4  5  1  0  0  0  0
  4 30  1  0  0  0  0
  5  6  1  0  0  0  0
  5 31  1  0  0  0  0
  5 32  1  0  0  0  0
  6  7  1  0  0  0  0
  6 19  1  0  0  0  0
  6 33  1  0  0  0  0
  7  8  1  0  0  0  0
  7 34  1  0  0  0  0
  8  9  2  0  0  0  0
  8 10  1  0  0  0  0
 10 11  1  0  0  0  0
 10 35  1  0  0  0  0
 10 36  1  0  0  0  0
 11 17  1  0  0  0  0
 11 12  1  0  0  0  0
 12 13  2  0  0  0  0
 12 37  1  0  0  0  0
 13 14  1  0  0  0  0
 13 38  1  0  0  0  0
 14 15  2  0  0  0  0
 14 16  1  0  0  0  0
 16 17  1  0  0  0  0
 17 18  2  0  0  0  0
 19 24  1  0  0  0  0
 19 20  1  0  0  0  0
 20 21  1  0  0  0  0
 20 39  1  0  0  0  0
 20 40  1  0  0  0  0
 21 22  1  0  0  0  0
 21 41  1  0  0  0  0
 21 42  1  0  0  0  0
 22 23  1  0  0  0  0
 22 43  1  0  0  0  0
 22 44  1  0  0  0  0
 23 24  1  0  0  0  0
 23 45  1  0  0  0  0
 23 46  1  0  0  0  0
 24 47  1  0  0  0  0
 24 48  1  0  0  0  0
M  CHG  1  16  -1
M  END
> <s_m_source_file>
AV-unprocessed.smi

> <i_m_source_file_index>
701

> <i_lp_mmshare_version>
43012

> <i_f3d_flags>
0

> <s_epik_input>
W0NIMl0xW0NIMl1bQ0gyXVtDSDJdW0NIMl1DMTJbQ0BIXShPW0NIMl1bQ0gzXSlbQ0gyXVtDQEhdMltOSF1DKD1PKVtDSDJdbjNbY0hdW2NIXWMoPU8pW25IXWMzPU8=

> <s_epik_cmdline>
J2VwaWtfcHl0aG9uJywgJy1waCcsICc3LjAnLCAnLXRuJywgJzgnLCAnLW1hJywgJzIwMCcsICctbWV0YWxfYmluZGluZycsICctaW1hZScsICc8aW5maWxlLm1hZT4nLCAnLW9tYWUnLCAnPG91dGZpbGUubWFlPic=

> <r_lp_tautomer_probability>
0.999537

> <r_epik_Ionization_Penalty>
3.12423

> <r_epik_Ionization_Penalty_Charging>
2.92877e-08

> <r_epik_Ionization_Penalty_Neutral>
3.12423

> <r_epik_State_Penalty>
3.12332

> <r_epik_Charging_Adjusted_Penalty>
3.12332

> <i_epik_Tot_Q>
-1

> <i_epik_Tot_abs_Q>
1

> <r_epik_Metal_State_Penalty>
0.463873

> <b_epik_Metal_Only>
1

> <s_lp_Force_Field>
OPLS_2005

> <r_lp_Energy>
34.5124

> <b_lp_Chiralities_Consistent>
1

> <s_lp_Variant>
AV-unprocessed.smi:701-5

> <Gold.Version>
5.8.1

> <Gold.Id.Protein>
6NUR|6NUR_protein|mol2

> <Gold.PLP.Fitness>
43.0289

> <Gold.PLP.PLP>
-41.3134

> <Gold.PLP.part.hbond>
-1.0000

> <Gold.PLP.part.metal>
0.0000

> <Gold.PLP.part.buried>
-5.8482

> <Gold.PLP.part.nonpolar>
-34.9594

> <Gold.PLP.part.repulsive>
0.2615

> <Gold.PLP.ligand.clash>
0.0399

> <Gold.PLP.ligand.torsion>
0.7925

> <Gold.PLP.Chemscore.Hbond>
1.0000

> <Gold.PLP.Chemscore.CHOScore>
0.0000

> <Gold.PLP.Chemscore.Metal>
0.0000

> <Gold.Chemscore.Hbonds>
donor molecule, donor type, donor heavy atom, donor atom, acceptor molecule, acceptor atom, score
      L1  H     7    34       P1  8028  1.00

> <Gold.PLP.Chemscore.Internal.Correction>
0.3404

> <Gold.Rescore>
     Score         DG    S(hbond)    S(metal)    S(lipo)     H(rot)  DE(clash)    DE(int)     intcor
     12.96     -15.14       0.98        0.00      99.39       2.04       0.42       1.76       ----

> <Gold.Chemscore.Fitness>
12.9591

> <Gold.Chemscore.DG>
-15.1439

> <Gold.Chemscore.ZeroCoef>
-5.4800

> <Gold.Chemscore.Hbond>
0.9753

> <Gold.Chemscore.Metal>
0.0000

> <Gold.Chemscore.Lipo>
99.3882

> <Gold.Chemscore.Internal_Hbond>
0.0000

> <Gold.Chemscore.DEClash>
0.4220

> <Gold.Chemscore.DEInternal>
1.7628

> <Gold.Chemscore.Rot>
2.0399

> <Gold.Chemscore.Internal.Correction>
   9.000000E+99

> <Gold.Chemscore.Hbonds>
donor molecule, donor type, donor heavy atom, donor atom, acceptor molecule, acceptor atom, score
      L1  H     7    34       P1  8028  1.00

> <Gold.Chemscore.Hbond.Weighted>
-3.2576

> <Gold.Chemscore.Metal.Weighted>
-0.0000

> <Gold.Chemscore.Lipo.Weighted>
-11.6284

> <Gold.Chemscore.Internal_Hbond.Weighted>
0.0000

> <Gold.Chemscore.DEClash.Weighted>
0.4220

> <Gold.Chemscore.DEInternal.Weighted>
1.7628

> <Gold.Chemscore.Rot.Weighted>
5.2222

> <Gold.Chemscore.Internal.Correction.Weighted>
   9.000000E+99

> <Gold.Protein.RotatedTorsions>
[ 6907 6896 6895 6894 ] final  -56.39 input  -60.11 | X-H torsion
[ 7974 7965 7964 7962 ] final   49.24 input  175.53 | X-H torsion
[ 8008 7997 7996 7995 ] final  -49.36 input   59.86 | X-H torsion
[ 10167 10162 10161 10158 ] final   -7.10 input  -65.29 | X-H torsion
[ 10718 10713 10712 10709 ] final  -40.44 input   66.30 | X-H torsion
[ 10763 10752 10751 10750 ] final  129.36 input  -60.55 | X-H torsion
[ 11005 11000 10999 10996 ] final -104.41 input  -57.11 | X-H torsion

> <Gold.Protein.ActiveResidues>
 VAL166  LYS551  ARG553  GLY616  TRP617  ASP618  TYR619  PRO620  LYS621  CYS622 
 ASP623  PHE694  ASN695  SER759  ASP760  ASP761  ALA762  ILE779  LEU786  VAL792 
 PHE793  MET794  SER795  GLU796  ALA797  LYS798  CYS799  TRP800  GLU811  SER814 

> <Gold.Protein.RotatedAtoms>
  150.8172  134.7360  159.6739 H   0  0  0  0  0  0  0  0  0  0  0  0  # atno 6907 bound_to 6896
  152.4290  134.5811  159.9958 H   0  0  0  0  0  0  0  0  0  0  0  0  # atno 6908 bound_to 6896
  151.6005  133.3319  159.3082 H   0  0  0  0  0  0  0  0  0  0  0  0  # atno 6909 bound_to 6896
  146.0128  139.4562  142.9946 H   0  0  0  0  0  0  0  0  0  0  0  0  # atno 7974 bound_to 7965
  154.4043  140.1298  156.4490 H   0  0  0  0  0  0  0  0  0  0  0  0  # atno 8008 bound_to 7997
  155.7385  140.3490  155.5073 H   0  0  0  0  0  0  0  0  0  0  0  0  # atno 8009 bound_to 7997
  155.9061  140.1028  157.1304 H   0  0  0  0  0  0  0  0  0  0  0  0  # atno 8010 bound_to 7997
  140.7018  143.6119  150.8695 H   0  0  0  0  0  0  0  0  0  0  0  0  # atno 10167 bound_to 10162
  156.2814  130.4217  149.8333 H   0  0  0  0  0  0  0  0  0  0  0  0  # atno 10718 bound_to 10713
  153.7405  135.3225  155.3303 H   0  0  0  0  0  0  0  0  0  0  0  0  # atno 10763 bound_to 10752
  154.8296  135.4543  154.1031 H   0  0  0  0  0  0  0  0  0  0  0  0  # atno 10764 bound_to 10752
  153.2205  135.6947  153.8088 H   0  0  0  0  0  0  0  0  0  0  0  0  # atno 10765 bound_to 10752
  141.1102  133.8721  157.1607 H   0  0  0  0  0  0  0  0  0  0  0  0  # atno 11005 bound_to 11000
  145.7316  141.0040  143.1349 LP  0  0  0  0  0  0  0  0  0  0  0  0  # atno 17320 bound_to 7965
  144.6959  139.8991  143.7457 LP  0  0  0  0  0  0  0  0  0  0  0  0  # atno 17321 bound_to 7965
  139.9842  143.5918  152.2932 LP  0  0  0  0  0  0  0  0  0  0  0  0  # atno 17342 bound_to 10162
  139.6550  144.7662  151.2074 LP  0  0  0  0  0  0  0  0  0  0  0  0  # atno 17343 bound_to 10162
  156.5779  130.8453  151.3375 LP  0  0  0  0  0  0  0  0  0  0  0  0  # atno 17370 bound_to 10713
  157.7315  130.9701  150.1884 LP  0  0  0  0  0  0  0  0  0  0  0  0  # atno 17371 bound_to 10713
  139.9991  135.0035  157.0150 LP  0  0  0  0  0  0  0  0  0  0  0  0  # atno 17394 bound_to 11000
  140.4796  134.1302  155.7215 LP  0  0  0  0  0  0  0  0  0  0  0  0  # atno 17395 bound_to 11000

$$$$
