AV-unprocessed.smi:1729|AV-procd|sdf|6969|dock2
  -GOLD-   22720 8183D 1   1.00000     0.00000
 Structure written by MMmdl.
 35 36  0  0  0  0  0  0  0  0  1 V2000
  148.9583  140.8938  155.9856 C   0  0  0  0  0  0  0  0  0  0  0  0
  148.4857  141.1541  154.5535 C   0  0  0  0  0  0  0  0  0  0  0  0
  149.1903  141.8595  153.8313 O   0  0  0  0  0  0  0  0  0  0  0  0
  147.3226  140.6039  154.1293 N   0  0  0  0  0  0  0  0  0  0  0  0
  146.8379  140.7375  152.7507 C   0  0  0  0  0  0  0  0  0  0  0  0
  146.9660  139.3750  152.0457 C   0  0  0  0  0  0  0  0  0  0  0  0
  146.2166  138.2689  152.8194 C   0  0  0  0  0  0  0  0  0  0  0  0
  146.5110  136.9692  152.2233 N   0  0  0  0  0  0  0  0  0  0  0  0
  145.5942  136.0716  151.8343 C   0  0  0  0  0  0  0  0  0  0  0  0
  144.3803  136.2460  151.9439 O   0  0  0  0  0  0  0  0  0  0  0  0
  146.1734  134.9749  151.3189 N   0  0  0  0  0  0  0  0  0  0  0  0
  145.5283  133.8186  150.8117 C   0  0  0  0  0  0  0  0  0  0  0  0
  146.0996  132.5174  150.7881 C   0  0  0  0  0  0  0  0  0  0  0  0
  145.2668  131.6327  150.2585 N   0  0  0  0  0  0  0  0  0  0  0  0
  144.1689  132.3570  149.9447 N   0  0  0  0  0  0  0  0  0  0  0  0
  144.2829  133.6921  150.2634 C   0  0  0  0  0  0  0  0  0  0  0  0
  146.5880  138.2797  154.3208 C   0  0  0  0  0  0  0  0  0  0  0  0
  146.4765  139.6957  154.9132 C   0  0  0  0  0  0  0  0  0  0  0  0
  143.3581  131.9304  149.5192 H   0  0  0  0  0  0  0  0  0  0  0  0
  149.0808  139.8252  156.1649 H   0  0  0  0  0  0  0  0  0  0  0  0
  148.2462  141.2961  156.7065 H   0  0  0  0  0  0  0  0  0  0  0  0
  149.9212  141.3731  156.1659 H   0  0  0  0  0  0  0  0  0  0  0  0
  145.7952  141.0578  152.7623 H   0  0  0  0  0  0  0  0  0  0  0  0
  147.3755  141.4999  152.1853 H   0  0  0  0  0  0  0  0  0  0  0  0
  146.5824  139.4456  151.0274 H   0  0  0  0  0  0  0  0  0  0  0  0
  148.0229  139.1173  151.9609 H   0  0  0  0  0  0  0  0  0  0  0  0
  145.1473  138.4693  152.7274 H   0  0  0  0  0  0  0  0  0  0  0  0
  147.4856  136.7392  152.0949 H   0  0  0  0  0  0  0  0  0  0  0  0
  147.1824  134.9648  151.2870 H   0  0  0  0  0  0  0  0  0  0  0  0
  147.0705  132.1917  151.1310 H   0  0  0  0  0  0  0  0  0  0  0  0
  143.4906  134.4014  150.0756 H   0  0  0  0  0  0  0  0  0  0  0  0
  145.9425  137.5967  154.8740 H   0  0  0  0  0  0  0  0  0  0  0  0
  147.6083  137.9160  154.4530 H   0  0  0  0  0  0  0  0  0  0  0  0
  146.7221  139.6751  155.9738 H   0  0  0  0  0  0  0  0  0  0  0  0
  145.4418  140.0380  154.8627 H   0  0  0  0  0  0  0  0  0  0  0  0
  1  2  1  0  0  0  0
  1 20  1  0  0  0  0
  1 21  1  0  0  0  0
  1 22  1  0  0  0  0
  2  3  2  0  0  0  0
  2  4  1  0  0  0  0
  4 18  1  0  0  0  0
  4  5  1  0  0  0  0
  5  6  1  0  0  0  0
  5 23  1  0  0  0  0
  5 24  1  0  0  0  0
  6  7  1  0  0  0  0
  6 25  1  0  0  0  0
  6 26  1  0  0  0  0
  7  8  1  0  0  0  0
  7 17  1  0  0  0  0
  7 27  1  0  0  0  0
  8  9  1  0  0  0  0
  8 28  1  0  0  0  0
  9 10  2  0  0  0  0
  9 11  1  0  0  0  0
 11 12  1  0  0  0  0
 11 29  1  0  0  0  0
 12 16  2  0  0  0  0
 12 13  1  0  0  0  0
 13 14  2  0  0  0  0
 13 30  1  0  0  0  0
 14 15  1  0  0  0  0
 15 19  1  0  0  0  0
 15 16  1  0  0  0  0
 16 31  1  0  0  0  0
 17 18  1  0  0  0  0
 17 32  1  0  0  0  0
 17 33  1  0  0  0  0
 18 34  1  0  0  0  0
 18 35  1  0  0  0  0
M  END
> <s_m_source_file>
AV-unprocessed.smi

> <i_m_source_file_index>
1729

> <i_lp_mmshare_version>
43012

> <i_f3d_flags>
0

> <s_epik_input>
W0NIM11DKD1PKU4xW0NIMl1bQ0gyXVtDSF0oW0NIMl1bQ0gyXTEpW05IXUMoPU8pW05IXWMyW2NIXW5bbkhdW2NIXTI=

> <s_epik_cmdline>
J2VwaWtfcHl0aG9uJywgJy1waCcsICc3LjAnLCAnLXRuJywgJzgnLCAnLW1hJywgJzIwMCcsICctbWV0YWxfYmluZGluZycsICctaW1hZScsICc8aW5maWxlLm1hZT4nLCAnLW9tYWUnLCAnPG91dGZpbGUubWFlPic=

> <r_lp_tautomer_probability>
1

> <r_epik_Ionization_Penalty>
5.29522e-05

> <r_epik_Ionization_Penalty_Charging>
0

> <r_epik_Ionization_Penalty_Neutral>
5.29522e-05

> <r_epik_State_Penalty>
-0

> <r_epik_Charging_Adjusted_Penalty>
0

> <i_epik_Tot_Q>
0

> <i_epik_Tot_abs_Q>
0

> <r_epik_Metal_State_Penalty>
-0

> <b_epik_Metal_Only>
0

> <s_lp_Force_Field>
OPLS_2005

> <r_lp_Energy>
24.3568

> <b_lp_Chiralities_Consistent>
1

> <s_lp_Variant>
AV-unprocessed.smi:1729-1

> <Gold.Version>
5.8.1

> <Gold.Id.Protein>
6NUR|6NUR_protein|mol2

> <Gold.PLP.Fitness>
36.8168

> <Gold.PLP.PLP>
-25.1753

> <Gold.PLP.part.hbond>
-3.5655

> <Gold.PLP.part.metal>
0.0000

> <Gold.PLP.part.buried>
-1.4377

> <Gold.PLP.part.nonpolar>
-20.9661

> <Gold.PLP.part.repulsive>
0.7411

> <Gold.PLP.ligand.clash>
0.0000

> <Gold.PLP.ligand.torsion>
0.2480

> <Gold.PLP.Chemscore.Hbond>
2.0401

> <Gold.PLP.Chemscore.CHOScore>
2.0000

> <Gold.PLP.Chemscore.Metal>
0.0000

> <Gold.Chemscore.Hbonds>
donor molecule, donor type, donor heavy atom, donor atom, acceptor molecule, acceptor atom, score
      L1  H     8    28       P1  7948  1.00
      L1  H    11    29       P1  7948  0.49
      P1  H  8011  8017       L1     3  0.54
      L1  C    13    30       P1 10747  1.00
      L1  C    16    31       P1 10186  1.00

> <Gold.PLP.Chemscore.Internal.Correction>
0.0173

> <Gold.Rescore>
     Score         DG    S(hbond)    S(metal)    S(lipo)     H(rot)  DE(clash)    DE(int)     intcor
     15.15     -15.69       2.12        0.00      48.55       1.00       0.18       0.36       ----

> <Gold.Chemscore.Fitness>
15.1460

> <Gold.Chemscore.DG>
-15.6887

> <Gold.Chemscore.ZeroCoef>
-5.4800

> <Gold.Chemscore.Hbond>
2.1223

> <Gold.Chemscore.Metal>
0.0000

> <Gold.Chemscore.Lipo>
48.5486

> <Gold.Chemscore.Internal_Hbond>
0.0000

> <Gold.Chemscore.DEClash>
0.1812

> <Gold.Chemscore.DEInternal>
0.3616

> <Gold.Chemscore.Rot>
1.0000

> <Gold.Chemscore.Internal.Correction>
   9.000000E+99

> <Gold.Chemscore.Hbonds>
donor molecule, donor type, donor heavy atom, donor atom, acceptor molecule, acceptor atom, score
      L1  H     8    28       P1  7948  0.95
      L1  H    11    29       P1  7948  0.29
      P1  H  8011  8017       L1     3  0.54

> <Gold.Chemscore.Hbond.Weighted>
-7.0885

> <Gold.Chemscore.Metal.Weighted>
-0.0000

> <Gold.Chemscore.Lipo.Weighted>
-5.6802

> <Gold.Chemscore.Internal_Hbond.Weighted>
0.0000

> <Gold.Chemscore.DEClash.Weighted>
0.1812

> <Gold.Chemscore.DEInternal.Weighted>
0.3616

> <Gold.Chemscore.Rot.Weighted>
2.5600

> <Gold.Chemscore.Internal.Correction.Weighted>
   9.000000E+99

> <Gold.Protein.RotatedTorsions>
[ 6907 6896 6895 6894 ] final    8.01 input  -60.11 | X-H torsion
[ 7974 7965 7964 7962 ] final  104.10 input  175.53 | X-H torsion
[ 8008 7997 7996 7995 ] final  -47.09 input   59.86 | X-H torsion
[ 10167 10162 10161 10158 ] final  -25.77 input  -65.29 | X-H torsion
[ 10718 10713 10712 10709 ] final   58.16 input   66.30 | X-H torsion
[ 10763 10752 10751 10750 ] final   26.20 input  -60.55 | X-H torsion
[ 11005 11000 10999 10996 ] final   17.45 input  -57.11 | X-H torsion

> <Gold.Protein.ActiveResidues>
 VAL166  LYS551  ARG553  GLY616  TRP617  ASP618  TYR619  PRO620  LYS621  CYS622 
 ASP623  PHE694  ASN695  SER759  ASP760  ASP761  ALA762  ILE779  LEU786  VAL792 
 PHE793  MET794  SER795  GLU796  ALA797  LYS798  CYS799  TRP800  GLU811  SER814 

> <Gold.Protein.RotatedAtoms>
  151.6991  135.0933  160.0247 H   0  0  0  0  0  0  0  0  0  0  0  0  # atno 6907 bound_to 6896
  152.3731  133.6441  159.6111 H   0  0  0  0  0  0  0  0  0  0  0  0  # atno 6908 bound_to 6896
  150.7689  133.9153  159.3423 H   0  0  0  0  0  0  0  0  0  0  0  0  # atno 6909 bound_to 6896
  145.3372  139.2471  143.3629 H   0  0  0  0  0  0  0  0  0  0  0  0  # atno 7974 bound_to 7965
  154.4013  140.1355  156.4119 H   0  0  0  0  0  0  0  0  0  0  0  0  # atno 8008 bound_to 7997
  155.7725  140.3483  155.5234 H   0  0  0  0  0  0  0  0  0  0  0  0  # atno 8009 bound_to 7997
  155.8753  140.0978  157.1513 H   0  0  0  0  0  0  0  0  0  0  0  0  # atno 8010 bound_to 7997
  140.7285  143.4236  151.0912 H   0  0  0  0  0  0  0  0  0  0  0  0  # atno 10167 bound_to 10162
  157.5574  130.8810  149.9057 H   0  0  0  0  0  0  0  0  0  0  0  0  # atno 10718 bound_to 10713
  153.0639  135.6565  154.0400 H   0  0  0  0  0  0  0  0  0  0  0  0  # atno 10763 bound_to 10752
  154.0061  135.2932  155.3399 H   0  0  0  0  0  0  0  0  0  0  0  0  # atno 10764 bound_to 10752
  154.6988  135.5253  153.8566 H   0  0  0  0  0  0  0  0  0  0  0  0  # atno 10765 bound_to 10752
  140.4358  134.1372  155.7685 H   0  0  0  0  0  0  0  0  0  0  0  0  # atno 11005 bound_to 11000
  146.3022  140.3962  142.8700 LP  0  0  0  0  0  0  0  0  0  0  0  0  # atno 17320 bound_to 7965
  144.8818  140.7410  143.5982 LP  0  0  0  0  0  0  0  0  0  0  0  0  # atno 17321 bound_to 7965
  139.7884  143.8253  152.3148 LP  0  0  0  0  0  0  0  0  0  0  0  0  # atno 17342 bound_to 10162
  139.8229  144.7288  150.9550 LP  0  0  0  0  0  0  0  0  0  0  0  0  # atno 17343 bound_to 10162
  156.0631  130.3696  150.0938 LP  0  0  0  0  0  0  0  0  0  0  0  0  # atno 17370 bound_to 10713
  156.9106  130.9650  151.3563 LP  0  0  0  0  0  0  0  0  0  0  0  0  # atno 17371 bound_to 10713
  141.1726  133.8578  157.1522 LP  0  0  0  0  0  0  0  0  0  0  0  0  # atno 17394 bound_to 11000
  140.0103  134.9991  157.0381 LP  0  0  0  0  0  0  0  0  0  0  0  0  # atno 17395 bound_to 11000

$$$$
