AV-unprocessed.smi:1005|AV-procd|sdf|4369|dock8
  -GOLD-   22720 2273D 1   1.00000     0.00000
 Structure written by MMmdl.
 57 59  0  0  0  0  0  0  0  0  3 V2000
  153.4663  142.1172  161.6233 C   0  0  0  0  0  0  0  0  0  0  0  0
  152.8777  141.7152  160.2825 C   0  0  0  0  0  0  0  0  0  0  0  0
  152.0942  142.6495  159.5683 C   0  0  0  0  0  0  0  0  0  0  0  0
  151.5283  142.3149  158.3189 C   0  0  0  0  0  0  0  0  0  0  0  0
  150.7438  143.0632  157.4579 N   0  0  0  0  0  0  0  0  0  0  0  0
  150.5360  142.2019  156.4669 C   0  0  0  0  0  0  0  0  0  0  0  0
  151.0961  140.9824  156.5820 N   0  0  0  0  0  0  0  0  0  0  0  0
  151.0078  139.8890  155.6307 C   0  0  0  0  0  0  0  0  0  0  0  0
  149.8209  140.0479  154.6616 C   0  0  1  0  0  0  0  0  0  0  0  0
  149.8778  139.0320  153.6787 O   0  0  0  0  0  0  0  0  0  0  0  0
  148.4681  139.9455  155.3931 C   0  0  0  0  0  0  0  0  0  0  0  0
  147.3160  139.9143  154.4521 N   0  3  2  0  0  0  0  0  0  0  0  0
  147.2814  141.0316  153.4745 C   0  0  0  0  0  0  0  0  0  0  0  0
  146.7469  142.3263  154.1159 C   0  0  0  0  0  0  0  0  0  0  0  0
  145.4757  142.0824  154.7063 O   0  0  0  0  0  0  0  0  0  0  0  0
  145.5277  141.1030  155.7392 C   0  0  1  0  0  0  0  0  0  0  0  0
  144.1164  140.9769  156.3444 C   0  0  0  0  0  0  0  0  0  0  0  0
  143.1486  140.3160  155.4308 N   0  3  0  0  0  0  0  0  0  0  0  0
  141.7706  140.8482  155.5445 C   0  0  0  0  0  0  0  0  0  0  0  0
  143.1719  138.8427  155.5705 C   0  0  0  0  0  0  0  0  0  0  0  0
  145.9995  139.7692  155.1210 C   0  0  0  0  0  0  0  0  0  0  0  0
  151.7671  141.0088  157.8001 C   0  0  0  0  0  0  0  0  0  0  0  0
  152.5450  140.0705  158.5011 C   0  0  0  0  0  0  0  0  0  0  0  0
  153.1049  140.4219  159.7472 C   0  0  0  0  0  0  0  0  0  0  0  0
  153.9461  139.4029  160.4951 C   0  0  0  0  0  0  0  0  0  0  0  0
  153.2282  143.1526  161.8687 H   0  0  0  0  0  0  0  0  0  0  0  0
  154.5519  142.0191  161.6107 H   0  0  0  0  0  0  0  0  0  0  0  0
  153.0699  141.4849  162.4182 H   0  0  0  0  0  0  0  0  0  0  0  0
  151.9215  143.6349  159.9756 H   0  0  0  0  0  0  0  0  0  0  0  0
  149.9442  142.4739  155.6049 H   0  0  0  0  0  0  0  0  0  0  0  0
  151.9488  139.8245  155.0825 H   0  0  0  0  0  0  0  0  0  0  0  0
  150.9121  138.9590  156.1928 H   0  0  0  0  0  0  0  0  0  0  0  0
  149.9115  141.0111  154.1600 H   0  0  0  0  0  0  0  0  0  0  0  0
  149.8649  139.4378  152.8244 H   0  0  0  0  0  0  0  0  0  0  0  0
  148.4744  139.0372  155.9980 H   0  0  0  0  0  0  0  0  0  0  0  0
  148.3537  140.7712  156.0955 H   0  0  0  0  0  0  0  0  0  0  0  0
  148.2614  141.2010  153.0300 H   0  0  0  0  0  0  0  0  0  0  0  0
  146.6227  140.7423  152.6544 H   0  0  0  0  0  0  0  0  0  0  0  0
  147.4387  142.7192  154.8617 H   0  0  0  0  0  0  0  0  0  0  0  0
  146.6361  143.0995  153.3555 H   0  0  0  0  0  0  0  0  0  0  0  0
  146.2366  141.4130  156.5070 H   0  0  0  0  0  0  0  0  0  0  0  0
  144.1925  140.4005  157.2677 H   0  0  0  0  0  0  0  0  0  0  0  0
  143.7318  141.9580  156.6273 H   0  0  0  0  0  0  0  0  0  0  0  0
  141.3763  140.7027  156.5510 H   0  0  0  0  0  0  0  0  0  0  0  0
  141.1055  140.3401  154.8453 H   0  0  0  0  0  0  0  0  0  0  0  0
  141.7294  141.9113  155.3110 H   0  0  0  0  0  0  0  0  0  0  0  0
  142.8694  138.5399  156.5741 H   0  0  0  0  0  0  0  0  0  0  0  0
  144.1712  138.4501  155.3806 H   0  0  0  0  0  0  0  0  0  0  0  0
  142.4952  138.3751  154.8543 H   0  0  0  0  0  0  0  0  0  0  0  0
  145.2757  139.4371  154.3753 H   0  0  0  0  0  0  0  0  0  0  0  0
  146.0407  138.9816  155.8747 H   0  0  0  0  0  0  0  0  0  0  0  0
  152.7118  139.0892  158.0824 H   0  0  0  0  0  0  0  0  0  0  0  0
  154.0032  138.4586  159.9529 H   0  0  0  0  0  0  0  0  0  0  0  0
  153.5179  139.1994  161.4770 H   0  0  0  0  0  0  0  0  0  0  0  0
  154.9627  139.7730  160.6299 H   0  0  0  0  0  0  0  0  0  0  0  0
  143.4620  140.5082  154.4896 H   0  0  0  0  0  0  0  0  0  0  0  0
  147.4481  139.0659  153.9185 H   0  0  0  0  0  0  0  0  0  0  0  0
  1  2  1  0  0  0  0
  1 26  1  0  0  0  0
  1 27  1  0  0  0  0
  1 28  1  0  0  0  0
  2 24  1  0  0  0  0
  2  3  2  0  0  0  0
  3  4  1  0  0  0  0
  3 29  1  0  0  0  0
  4 22  2  0  0  0  0
  4  5  1  0  0  0  0
  5  6  2  0  0  0  0
  6  7  1  0  0  0  0
  6 30  1  0  0  0  0
  7  8  1  0  0  0  0
  7 22  1  0  0  0  0
  8  9  1  0  0  0  0
  8 31  1  0  0  0  0
  8 32  1  0  0  0  0
  9 10  1  0  0  0  0
  9 11  1  0  0  0  0
  9 33  1  0  0  0  0
 10 34  1  0  0  0  0
 11 12  1  0  0  0  0
 11 35  1  0  0  0  0
 11 36  1  0  0  0  0
 12 21  1  0  0  0  0
 12 13  1  0  0  0  0
 12 57  1  0  0  0  0
 13 14  1  0  0  0  0
 13 37  1  0  0  0  0
 13 38  1  0  0  0  0
 14 15  1  0  0  0  0
 14 39  1  0  0  0  0
 14 40  1  0  0  0  0
 15 16  1  0  0  0  0
 16 17  1  0  0  0  0
 16 21  1  0  0  0  0
 16 41  1  0  0  0  0
 17 18  1  0  0  0  0
 17 42  1  0  0  0  0
 17 43  1  0  0  0  0
 18 19  1  0  0  0  0
 18 20  1  0  0  0  0
 18 56  1  0  0  0  0
 19 44  1  0  0  0  0
 19 45  1  0  0  0  0
 19 46  1  0  0  0  0
 20 47  1  0  0  0  0
 20 48  1  0  0  0  0
 20 49  1  0  0  0  0
 21 50  1  0  0  0  0
 21 51  1  0  0  0  0
 22 23  1  0  0  0  0
 23 24  2  0  0  0  0
 23 52  1  0  0  0  0
 24 25  1  0  0  0  0
 25 53  1  0  0  0  0
 25 54  1  0  0  0  0
 25 55  1  0  0  0  0
M  CHG  1  12   1
M  CHG  1  18   1
M  END
> <s_m_source_file>
AV-unprocessed.smi

> <i_m_source_file_index>
1005

> <i_lp_mmshare_version>
43012

> <i_f3d_flags>
0

> <s_epik_input>
W0NIM11jKFtjSF0xKWMoW0NIM10pW2NIXWMoYzEyKW4oW2NIXW4yKVtDSDJdW0NASF0oW09IXSlbQ0gyXU4zW0NIMl1bQ0gyXU9bQ0BIXShbQ0gyXTMpW0NIMl1OKFtDSDNdKVtDSDNd

> <s_epik_cmdline>
J2VwaWtfcHl0aG9uJywgJy1waCcsICc3LjAnLCAnLXRuJywgJzgnLCAnLW1hJywgJzIwMCcsICctbWV0YWxfYmluZGluZycsICctaW1hZScsICc8aW5maWxlLm1hZT4nLCAnLW9tYWUnLCAnPG91dGZpbGUubWFlPic=

> <r_epik_Ionization_Penalty>
1.0968

> <r_epik_Ionization_Penalty_Charging>
1.0096

> <r_epik_Ionization_Penalty_Neutral>
0.0871956

> <r_epik_State_Penalty>
1.31185

> <r_epik_Charging_Adjusted_Penalty>
2.32145

> <i_epik_Tot_Q>
2

> <i_epik_Tot_abs_Q>
2

> <r_epik_Metal_State_Penalty>
1.22442

> <b_epik_Metal_Only>
0

> <s_lp_Force_Field>
OPLS_2005

> <r_lp_Energy>
34.9346

> <b_lp_Chiralities_Consistent>
1

> <s_lp_Variant>
AV-unprocessed.smi:1005-8

> <Gold.Version>
5.8.1

> <Gold.Id.Protein>
6NUR|6NUR_protein|mol2

> <Gold.PLP.Fitness>
52.4077

> <Gold.PLP.PLP>
-42.6255

> <Gold.PLP.part.hbond>
-2.0000

> <Gold.PLP.part.metal>
0.0000

> <Gold.PLP.part.buried>
-5.9612

> <Gold.PLP.part.nonpolar>
-35.5305

> <Gold.PLP.part.repulsive>
0.3279

> <Gold.PLP.ligand.clash>
0.0000

> <Gold.PLP.ligand.torsion>
0.7918

> <Gold.PLP.Chemscore.Hbond>
3.0000

> <Gold.PLP.Chemscore.CHOScore>
0.7566

> <Gold.PLP.Chemscore.Metal>
0.0000

> <Gold.Chemscore.Hbonds>
donor molecule, donor type, donor heavy atom, donor atom, acceptor molecule, acceptor atom, score
      L1  H    10    34       P1  7957  1.00
      L1  H    18    56       P1 10175  2.00
      L1  C     6    30       P1  8028  0.73

> <Gold.PLP.Chemscore.Internal.Correction>
0.0960

> <Gold.Rescore>
     Score         DG    S(hbond)    S(metal)    S(lipo)     H(rot)  DE(clash)    DE(int)     intcor
     17.33     -18.36       1.96        0.00     108.38       2.48       0.24       0.79       ----

> <Gold.Chemscore.Fitness>
17.3274

> <Gold.Chemscore.DG>
-18.3581

> <Gold.Chemscore.ZeroCoef>
-5.4800

> <Gold.Chemscore.Hbond>
1.9610

> <Gold.Chemscore.Metal>
0.0000

> <Gold.Chemscore.Lipo>
108.3824

> <Gold.Chemscore.Internal_Hbond>
0.0000

> <Gold.Chemscore.DEClash>
0.2369

> <Gold.Chemscore.DEInternal>
0.7938

> <Gold.Chemscore.Rot>
2.4814

> <Gold.Chemscore.Internal.Correction>
   9.000000E+99

> <Gold.Chemscore.Hbonds>
donor molecule, donor type, donor heavy atom, donor atom, acceptor molecule, acceptor atom, score
      L1  H    10    34       P1  7957  0.99
      L1  H    18    56       P1 10175  0.97

> <Gold.Chemscore.Hbond.Weighted>
-6.5497

> <Gold.Chemscore.Metal.Weighted>
-0.0000

> <Gold.Chemscore.Lipo.Weighted>
-12.6807

> <Gold.Chemscore.Internal_Hbond.Weighted>
0.0000

> <Gold.Chemscore.DEClash.Weighted>
0.2369

> <Gold.Chemscore.DEInternal.Weighted>
0.7938

> <Gold.Chemscore.Rot.Weighted>
6.3524

> <Gold.Chemscore.Internal.Correction.Weighted>
   9.000000E+99

> <Gold.Protein.RotatedTorsions>
[ 6907 6896 6895 6894 ] final   71.77 input  -60.11 | X-H torsion
[ 7974 7965 7964 7962 ] final  124.66 input  175.53 | X-H torsion
[ 8008 7997 7996 7995 ] final -163.33 input   59.86 | X-H torsion
[ 10167 10162 10161 10158 ] final -157.36 input  -65.29 | X-H torsion
[ 10718 10713 10712 10709 ] final  -80.08 input   66.30 | X-H torsion
[ 10763 10752 10751 10750 ] final -132.10 input  -60.55 | X-H torsion
[ 11005 11000 10999 10996 ] final -126.59 input  -57.11 | X-H torsion

> <Gold.Protein.ActiveResidues>
 VAL166  LYS551  ARG553  GLY616  TRP617  ASP618  TYR619  PRO620  LYS621  CYS622 
 ASP623  PHE694  ASN695  SER759  ASP760  ASP761  ALA762  ILE779  LEU786  VAL792 
 PHE793  MET794  SER795  GLU796  ALA797  LYS798  CYS799  TRP800  GLU811  SER814 

> <Gold.Protein.RotatedAtoms>
  152.4829  134.4671  159.9623 H   0  0  0  0  0  0  0  0  0  0  0  0  # atno 6907 bound_to 6896
  151.4673  133.3571  159.2826 H   0  0  0  0  0  0  0  0  0  0  0  0  # atno 6908 bound_to 6896
  150.8916  134.8345  159.7358 H   0  0  0  0  0  0  0  0  0  0  0  0  # atno 6909 bound_to 6896
  145.0819  139.3651  143.4905 H   0  0  0  0  0  0  0  0  0  0  0  0  # atno 7974 bound_to 7965
  155.8197  140.0917  157.1856 H   0  0  0  0  0  0  0  0  0  0  0  0  # atno 8008 bound_to 7997
  154.3979  140.1439  156.3545 H   0  0  0  0  0  0  0  0  0  0  0  0  # atno 8009 bound_to 7997
  155.8279  140.3444  155.5557 H   0  0  0  0  0  0  0  0  0  0  0  0  # atno 8010 bound_to 7997
  139.6777  143.9635  152.2319 H   0  0  0  0  0  0  0  0  0  0  0  0  # atno 10167 bound_to 10162
  156.0078  130.4564  150.3746 H   0  0  0  0  0  0  0  0  0  0  0  0  # atno 10718 bound_to 10713
  154.8746  135.3809  154.4355 H   0  0  0  0  0  0  0  0  0  0  0  0  # atno 10763 bound_to 10752
  153.5044  135.7030  153.5819 H   0  0  0  0  0  0  0  0  0  0  0  0  # atno 10764 bound_to 10752
  153.4136  135.3918  155.2033 H   0  0  0  0  0  0  0  0  0  0  0  0  # atno 10765 bound_to 10752
  140.9669  134.0859  157.3910 H   0  0  0  0  0  0  0  0  0  0  0  0  # atno 11005 bound_to 11000
  146.3531  140.0613  142.8629 LP  0  0  0  0  0  0  0  0  0  0  0  0  # atno 17320 bound_to 7965
  145.1168  140.9439  143.4624 LP  0  0  0  0  0  0  0  0  0  0  0  0  # atno 17321 bound_to 7965
  139.9416  144.6678  150.8260 LP  0  0  0  0  0  0  0  0  0  0  0  0  # atno 17342 bound_to 10162
  140.7641  143.3240  151.2557 LP  0  0  0  0  0  0  0  0  0  0  0  0  # atno 17343 bound_to 10162
  157.1829  131.0396  151.2739 LP  0  0  0  0  0  0  0  0  0  0  0  0  # atno 17370 bound_to 10713
  157.4130  130.7395  149.6853 LP  0  0  0  0  0  0  0  0  0  0  0  0  # atno 17371 bound_to 10713
  139.8898  135.0107  156.6698 LP  0  0  0  0  0  0  0  0  0  0  0  0  # atno 17394 bound_to 11000
  140.7386  133.8997  155.8262 LP  0  0  0  0  0  0  0  0  0  0  0  0  # atno 17395 bound_to 11000

$$$$
