AV-unprocessed.smi:3287|AV-procd|sdf|12593|dock1
  -GOLD-   2272018513D 1   1.00000     0.00000
 Structure written by MMmdl.
 43 44  0  0  0  0  0  0  0  0  2 V2000
  153.1077  143.1452  161.0056 C   0  0  0  0  0  0  0  0  0  0  0  0
  152.6044  142.9089  159.5721 C   0  0  1  0  0  0  0  0  0  0  0  0
  151.8953  141.5480  159.4303 C   0  0  0  0  0  0  0  0  0  0  0  0
  151.4703  141.2807  157.9773 C   0  0  0  0  0  0  0  0  0  0  0  0
  150.5892  142.4175  157.4191 C   0  0  2  0  0  0  0  0  0  0  0  0
  150.2538  142.1943  155.9954 N   0  3  0  0  0  0  0  0  0  0  0  0
  149.8161  140.8235  155.6545 C   0  0  0  0  0  0  0  0  0  0  0  0
  148.7870  140.8310  154.5106 C   0  0  2  0  0  0  0  0  0  0  0  0
  149.4359  141.2135  153.3132 O   0  0  0  0  0  0  0  0  0  0  0  0
  147.6166  141.7459  154.8333 C   0  0  0  0  0  0  0  0  0  0  0  0
  147.2065  141.9388  156.1692 C   0  0  0  0  0  0  0  0  0  0  0  0
  146.1217  142.8019  156.4230 C   0  0  0  0  0  0  0  0  0  0  0  0
  145.4529  143.4578  155.4507 N   0  0  0  0  0  0  0  0  0  0  0  0
  145.8501  143.2716  154.1740 C   0  0  0  0  0  0  0  0  0  0  0  0
  146.9222  142.4313  153.8127 C   0  0  0  0  0  0  0  0  0  0  0  0
  151.3066  143.7735  157.5739 C   0  0  0  0  0  0  0  0  0  0  0  0
  151.7271  144.0659  159.0298 C   0  0  1  0  0  0  0  0  0  0  0  0
  150.5134  144.4097  159.9171 C   0  0  0  0  0  0  0  0  0  0  0  0
  152.2946  143.1121  161.7309 H   0  0  0  0  0  0  0  0  0  0  0  0
  153.5999  144.1139  161.0959 H   0  0  0  0  0  0  0  0  0  0  0  0
  153.8312  142.3822  161.2942 H   0  0  0  0  0  0  0  0  0  0  0  0
  153.4943  142.8683  158.9418 H   0  0  0  0  0  0  0  0  0  0  0  0
  152.5593  140.7493  159.7630 H   0  0  0  0  0  0  0  0  0  0  0  0
  151.0231  141.5071  160.0832 H   0  0  0  0  0  0  0  0  0  0  0  0
  152.3613  141.1690  157.3578 H   0  0  0  0  0  0  0  0  0  0  0  0
  150.9437  140.3275  157.9343 H   0  0  0  0  0  0  0  0  0  0  0  0
  149.6550  142.4566  157.9806 H   0  0  0  0  0  0  0  0  0  0  0  0
  149.4900  142.8122  155.7593 H   0  0  0  0  0  0  0  0  0  0  0  0
  150.6837  140.2363  155.3531 H   0  0  0  0  0  0  0  0  0  0  0  0
  149.3955  140.3426  156.5390 H   0  0  0  0  0  0  0  0  0  0  0  0
  148.4041  139.8199  154.3646 H   0  0  0  0  0  0  0  0  0  0  0  0
  149.3185  140.5249  152.6759 H   0  0  0  0  0  0  0  0  0  0  0  0
  147.7079  141.4398  156.9856 H   0  0  0  0  0  0  0  0  0  0  0  0
  145.7837  142.9713  157.4349 H   0  0  0  0  0  0  0  0  0  0  0  0
  145.2988  143.8098  153.4172 H   0  0  0  0  0  0  0  0  0  0  0  0
  147.2015  142.3200  152.7752 H   0  0  0  0  0  0  0  0  0  0  0  0
  152.1964  143.7823  156.9422 H   0  0  0  0  0  0  0  0  0  0  0  0
  150.6694  144.5780  157.2041 H   0  0  0  0  0  0  0  0  0  0  0  0
  152.3492  144.9617  159.0045 H   0  0  0  0  0  0  0  0  0  0  0  0
  149.8575  143.5534  160.0705 H   0  0  0  0  0  0  0  0  0  0  0  0
  149.9156  145.2032  159.4678 H   0  0  0  0  0  0  0  0  0  0  0  0
  150.8252  144.7666  160.8985 H   0  0  0  0  0  0  0  0  0  0  0  0
  151.0510  142.4422  155.4270 H   0  0  0  0  0  0  0  0  0  0  0  0
  1  2  1  0  0  0  0
  1 19  1  0  0  0  0
  1 20  1  0  0  0  0
  1 21  1  0  0  0  0
  2 17  1  0  0  0  0
  2  3  1  0  0  0  0
  2 22  1  0  0  0  0
  3  4  1  0  0  0  0
  3 23  1  0  0  0  0
  3 24  1  0  0  0  0
  4  5  1  0  0  0  0
  4 25  1  0  0  0  0
  4 26  1  0  0  0  0
  5  6  1  0  0  0  0
  5 16  1  0  0  0  0
  5 27  1  0  0  0  0
  6  7  1  0  0  0  0
  6 28  1  0  0  0  0
  6 43  1  0  0  0  0
  7  8  1  0  0  0  0
  7 29  1  0  0  0  0
  7 30  1  0  0  0  0
  8  9  1  0  0  0  0
  8 10  1  0  0  0  0
  8 31  1  0  0  0  0
  9 32  1  0  0  0  0
 10 15  1  0  0  0  0
 10 11  2  0  0  0  0
 11 12  1  0  0  0  0
 11 33  1  0  0  0  0
 12 13  2  0  0  0  0
 12 34  1  0  0  0  0
 13 14  1  0  0  0  0
 14 15  2  0  0  0  0
 14 35  1  0  0  0  0
 15 36  1  0  0  0  0
 16 17  1  0  0  0  0
 16 37  1  0  0  0  0
 16 38  1  0  0  0  0
 17 18  1  0  0  0  0
 17 39  1  0  0  0  0
 18 40  1  0  0  0  0
 18 41  1  0  0  0  0
 18 42  1  0  0  0  0
M  CHG  1   6   1
M  END
> <s_m_source_file>
AV-unprocessed.smi

> <i_m_source_file_index>
3287

> <i_lp_mmshare_version>
43012

> <i_f3d_flags>
0

> <s_epik_input>
W0NIM11bQ0BASF0xW0NIMl1bQ0gyXVtDQEhdKFtDSDJdW0NASF0xW0NIM10pW05IXVtDSDJdW0NASF0oW09IXSljMltjSF1bY0hdbltjSF1bY0hdMg==

> <s_epik_cmdline>
J2VwaWtfcHl0aG9uJywgJy1waCcsICc3LjAnLCAnLXRuJywgJzgnLCAnLW1hJywgJzIwMCcsICctbWV0YWxfYmluZGluZycsICctaW1hZScsICc8aW5maWxlLm1hZT4nLCAnLW9tYWUnLCAnPG91dGZpbGUubWFlPic=

> <r_lp_tautomer_probability>
1

> <r_epik_Ionization_Penalty>
0.00537262

> <r_epik_Ionization_Penalty_Charging>
0.00321624

> <r_epik_Ionization_Penalty_Neutral>
0.00215638

> <r_epik_State_Penalty>
-0

> <r_epik_Charging_Adjusted_Penalty>
0.00321624

> <i_epik_Tot_Q>
1

> <i_epik_Tot_abs_Q>
1

> <r_epik_Metal_State_Penalty>
-0

> <b_epik_Metal_Only>
0

> <s_lp_Force_Field>
OPLS_2005

> <r_lp_Energy>
18.3798

> <b_lp_Chiralities_Consistent>
1

> <s_lp_Variant>
AV-unprocessed.smi:3287-4

> <Gold.Version>
5.8.1

> <Gold.Id.Protein>
6NUR|6NUR_protein|mol2

> <Gold.PLP.Fitness>
51.4996

> <Gold.PLP.PLP>
-42.2047

> <Gold.PLP.part.hbond>
-3.6565

> <Gold.PLP.part.metal>
0.0000

> <Gold.PLP.part.buried>
-5.0292

> <Gold.PLP.part.nonpolar>
-32.9181

> <Gold.PLP.part.repulsive>
0.3100

> <Gold.PLP.ligand.clash>
0.0000

> <Gold.PLP.ligand.torsion>
1.0706

> <Gold.PLP.Chemscore.Hbond>
3.8044

> <Gold.PLP.Chemscore.CHOScore>
0.0000

> <Gold.PLP.Chemscore.Metal>
0.0000

> <Gold.Chemscore.Hbonds>
donor molecule, donor type, donor heavy atom, donor atom, acceptor molecule, acceptor atom, score
      L1  H     6    28       P1  8028  1.82
      L1  H     9    32       P1  7957  0.90
      P1  H  7989  7998       L1     9  0.05
      P1  H  8011  8017       L1     9  0.95

> <Gold.PLP.Chemscore.Internal.Correction>
0.0228

> <Gold.Rescore>
     Score         DG    S(hbond)    S(metal)    S(lipo)     H(rot)  DE(clash)    DE(int)     intcor
     19.14     -20.02       1.83        0.00     113.68       1.90       0.04       0.84       ----

> <Gold.Chemscore.Fitness>
19.1418

> <Gold.Chemscore.DG>
-20.0225

> <Gold.Chemscore.ZeroCoef>
-5.4800

> <Gold.Chemscore.Hbond>
1.8308

> <Gold.Chemscore.Metal>
0.0000

> <Gold.Chemscore.Lipo>
113.6786

> <Gold.Chemscore.Internal_Hbond>
0.0000

> <Gold.Chemscore.DEClash>
0.0390

> <Gold.Chemscore.DEInternal>
0.8416

> <Gold.Chemscore.Rot>
1.9035

> <Gold.Chemscore.Internal.Correction>
   9.000000E+99

> <Gold.Chemscore.Hbonds>
donor molecule, donor type, donor heavy atom, donor atom, acceptor molecule, acceptor atom, score
      L1  H     6    28       P1  8028  0.85
      L1  H     9    32       P1  7957  0.87
      P1  H  8011  8017       L1     9  0.21

> <Gold.Chemscore.Hbond.Weighted>
-6.1150

> <Gold.Chemscore.Metal.Weighted>
-0.0000

> <Gold.Chemscore.Lipo.Weighted>
-13.3004

> <Gold.Chemscore.Internal_Hbond.Weighted>
0.0000

> <Gold.Chemscore.DEClash.Weighted>
0.0390

> <Gold.Chemscore.DEInternal.Weighted>
0.8416

> <Gold.Chemscore.Rot.Weighted>
4.8729

> <Gold.Chemscore.Internal.Correction.Weighted>
   9.000000E+99

> <Gold.Protein.RotatedTorsions>
[ 6907 6896 6895 6894 ] final -116.42 input  -60.11 | X-H torsion
[ 7974 7965 7964 7962 ] final  101.06 input  175.53 | X-H torsion
[ 8008 7997 7996 7995 ] final  132.87 input   59.86 | X-H torsion
[ 10167 10162 10161 10158 ] final -101.04 input  -65.29 | X-H torsion
[ 10718 10713 10712 10709 ] final -169.52 input   66.30 | X-H torsion
[ 10763 10752 10751 10750 ] final  -54.37 input  -60.55 | X-H torsion
[ 11005 11000 10999 10996 ] final   36.63 input  -57.11 | X-H torsion

> <Gold.Protein.ActiveResidues>
 VAL166  LYS551  ARG553  GLY616  TRP617  ASP618  TYR619  PRO620  LYS621  CYS622 
 ASP623  PHE694  ASN695  SER759  ASP760  ASP761  ALA762  ILE779  LEU786  VAL792 
 PHE793  MET794  SER795  GLU796  ALA797  LYS798  CYS799  TRP800  GLU811  SER814 

> <Gold.Protein.RotatedAtoms>
  150.8055  133.8519  159.3207 H   0  0  0  0  0  0  0  0  0  0  0  0  # atno 6907 bound_to 6896
  151.6320  135.1020  160.0133 H   0  0  0  0  0  0  0  0  0  0  0  0  # atno 6908 bound_to 6896
  152.4145  133.6976  159.6461 H   0  0  0  0  0  0  0  0  0  0  0  0  # atno 6909 bound_to 6896
  145.3773  139.2386  143.3422 H   0  0  0  0  0  0  0  0  0  0  0  0  # atno 7974 bound_to 7965
  156.2987  140.2536  156.3159 H   0  0  0  0  0  0  0  0  0  0  0  0  # atno 8008 bound_to 7997
  154.9281  140.0399  157.2052 H   0  0  0  0  0  0  0  0  0  0  0  0  # atno 8009 bound_to 7997
  154.8245  140.2865  155.5768 H   0  0  0  0  0  0  0  0  0  0  0  0  # atno 8010 bound_to 7997
  140.2455  143.3509  152.0763 H   0  0  0  0  0  0  0  0  0  0  0  0  # atno 10167 bound_to 10162
  156.7128  130.9240  151.3091 H   0  0  0  0  0  0  0  0  0  0  0  0  # atno 10718 bound_to 10713
  154.1737  135.6455  153.5016 H   0  0  0  0  0  0  0  0  0  0  0  0  # atno 10763 bound_to 10752
  153.0077  135.5389  154.6586 H   0  0  0  0  0  0  0  0  0  0  0  0  # atno 10764 bound_to 10752
  154.5932  135.2936  155.0586 H   0  0  0  0  0  0  0  0  0  0  0  0  # atno 10765 bound_to 10752
  140.2306  134.3532  155.7965 H   0  0  0  0  0  0  0  0  0  0  0  0  # atno 11005 bound_to 11000
  146.2858  140.4435  142.8758 LP  0  0  0  0  0  0  0  0  0  0  0  0  # atno 17320 bound_to 7965
  144.8533  140.7033  143.6154 LP  0  0  0  0  0  0  0  0  0  0  0  0  # atno 17321 bound_to 7965
  139.5063  144.6811  151.6005 LP  0  0  0  0  0  0  0  0  0  0  0  0  # atno 17342 bound_to 10162
  140.6081  143.9487  150.6433 LP  0  0  0  0  0  0  0  0  0  0  0  0  # atno 17343 bound_to 10162
  157.6929  130.9252  150.0564 LP  0  0  0  0  0  0  0  0  0  0  0  0  # atno 17370 bound_to 10713
  156.1649  130.3645  149.9247 LP  0  0  0  0  0  0  0  0  0  0  0  0  # atno 17371 bound_to 10713
  141.2218  133.7243  156.8725 LP  0  0  0  0  0  0  0  0  0  0  0  0  # atno 17394 bound_to 11000
  140.1754  134.9070  157.2885 LP  0  0  0  0  0  0  0  0  0  0  0  0  # atno 17395 bound_to 11000

$$$$
