AV-unprocessed.smi:232|AV-procd|sdf|1780|dock6
  -GOLD-   2262020323D 1   1.00000     0.00000
 Structure written by MMmdl.
 52 55  0  0  0  0  0  0  0  0  1 V2000
  151.2306  143.3634  158.6983 C   0  0  0  0  0  0  0  0  0  0  0  0
  151.2942  141.8667  159.0270 C   0  0  0  0  0  0  0  0  0  0  0  0
  152.7360  141.3442  159.2010 C   0  0  1  0  0  0  0  0  0  0  0  0
  153.4781  141.9538  160.4012 C   0  0  0  0  0  0  0  0  0  0  0  0
  154.3725  140.8261  160.9299 C   0  0  0  0  0  0  0  0  0  0  0  0
  154.1345  139.6623  159.9630 C   0  0  1  0  0  0  0  0  0  0  0  0
  154.2768  138.2796  160.6196 C   0  0  0  0  0  0  0  0  0  0  0  0
  152.8026  139.9034  159.4201 N   0  0  0  0  0  0  0  0  0  0  0  0
  152.4471  139.1479  158.3541 C   0  0  0  0  0  0  0  0  0  0  0  0
  152.8836  139.4640  157.1056 N   0  0  0  0  0  0  0  0  0  0  0  0
  152.5174  138.7150  156.0608 C   0  0  0  0  0  0  0  0  0  0  0  0
  151.7350  137.6331  156.0415 N   0  0  0  0  0  0  0  0  0  0  0  0
  151.2953  137.3187  157.2939 C   0  0  0  0  0  0  0  0  0  0  0  0
  151.6017  138.0168  158.4945 C   0  0  0  0  0  0  0  0  0  0  0  0
  150.9763  137.4075  159.5749 N   0  0  0  0  0  0  0  0  0  0  0  0
  150.3342  136.4031  159.0423 C   0  0  0  0  0  0  0  0  0  0  0  0
  150.4736  136.2748  157.6783 N   0  0  0  0  0  0  0  0  0  0  0  0
  149.8776  135.2567  156.8320 C   0  0  0  0  0  0  0  0  0  0  0  0
  150.7741  134.0107  156.6956 C   0  0  1  0  0  0  0  0  0  0  0  0
  151.0280  133.4381  157.9653 O   0  0  0  0  0  0  0  0  0  0  0  0
  150.1938  132.9574  155.7304 C   0  0  1  0  0  0  0  0  0  0  0  0
  149.5205  133.5016  154.4587 C   0  0  0  0  0  0  0  0  0  0  0  0
  150.1683  132.7084  153.3351 C   0  0  0  0  0  0  0  0  0  0  0  0
  150.7639  131.5037  154.0539 C   0  0  0  0  0  0  0  0  0  0  0  0
  151.1976  132.0509  155.2875 O   0  0  0  0  0  0  0  0  0  0  0  0
  150.1990  143.6825  158.5484 H   0  0  0  0  0  0  0  0  0  0  0  0
  151.7840  143.5891  157.7865 H   0  0  0  0  0  0  0  0  0  0  0  0
  151.6487  143.9679  159.5035 H   0  0  0  0  0  0  0  0  0  0  0  0
  150.7157  141.6651  159.9293 H   0  0  0  0  0  0  0  0  0  0  0  0
  150.7989  141.3236  158.2218 H   0  0  0  0  0  0  0  0  0  0  0  0
  153.3030  141.5730  158.2965 H   0  0  0  0  0  0  0  0  0  0  0  0
  154.0538  142.8319  160.1064 H   0  0  0  0  0  0  0  0  0  0  0  0
  152.7813  142.2624  161.1817 H   0  0  0  0  0  0  0  0  0  0  0  0
  155.4244  141.1107  160.9692 H   0  0  0  0  0  0  0  0  0  0  0  0
  154.0629  140.5602  161.9416 H   0  0  0  0  0  0  0  0  0  0  0  0
  154.8649  139.7441  159.1563 H   0  0  0  0  0  0  0  0  0  0  0  0
  155.2705  138.1551  161.0503 H   0  0  0  0  0  0  0  0  0  0  0  0
  154.1314  137.4777  159.8951 H   0  0  0  0  0  0  0  0  0  0  0  0
  153.5469  138.1432  161.4181 H   0  0  0  0  0  0  0  0  0  0  0  0
  152.9063  139.0281  155.1030 H   0  0  0  0  0  0  0  0  0  0  0  0
  149.7403  135.7217  159.6341 H   0  0  0  0  0  0  0  0  0  0  0  0
  148.9043  134.9871  157.2446 H   0  0  0  0  0  0  0  0  0  0  0  0
  149.6901  135.6960  155.8516 H   0  0  0  0  0  0  0  0  0  0  0  0
  151.7414  134.3229  156.2998 H   0  0  0  0  0  0  0  0  0  0  0  0
  150.2038  133.3324  158.4153 H   0  0  0  0  0  0  0  0  0  0  0  0
  149.4579  132.3611  156.2727 H   0  0  0  0  0  0  0  0  0  0  0  0
  148.4460  133.3176  154.4954 H   0  0  0  0  0  0  0  0  0  0  0  0
  149.6627  134.5731  154.3154 H   0  0  0  0  0  0  0  0  0  0  0  0
  149.4665  132.4292  152.5487 H   0  0  0  0  0  0  0  0  0  0  0  0
  150.9676  133.2972  152.8833 H   0  0  0  0  0  0  0  0  0  0  0  0
  150.0044  130.7420  154.2368 H   0  0  0  0  0  0  0  0  0  0  0  0
  151.5867  131.0472  153.5033 H   0  0  0  0  0  0  0  0  0  0  0  0
  1  2  1  0  0  0  0
  1 26  1  0  0  0  0
  1 27  1  0  0  0  0
  1 28  1  0  0  0  0
  2  3  1  0  0  0  0
  2 29  1  0  0  0  0
  2 30  1  0  0  0  0
  3  8  1  0  0  0  0
  3  4  1  0  0  0  0
  3 31  1  0  0  0  0
  4  5  1  0  0  0  0
  4 32  1  0  0  0  0
  4 33  1  0  0  0  0
  5  6  1  0  0  0  0
  5 34  1  0  0  0  0
  5 35  1  0  0  0  0
  6  7  1  0  0  0  0
  6  8  1  0  0  0  0
  6 36  1  0  0  0  0
  7 37  1  0  0  0  0
  7 38  1  0  0  0  0
  7 39  1  0  0  0  0
  8  9  1  0  0  0  0
  9 14  1  0  0  0  0
  9 10  2  0  0  0  0
 10 11  1  0  0  0  0
 11 12  2  0  0  0  0
 11 40  1  0  0  0  0
 12 13  1  0  0  0  0
 13 17  1  0  0  0  0
 13 14  2  0  0  0  0
 14 15  1  0  0  0  0
 15 16  2  0  0  0  0
 16 17  1  0  0  0  0
 16 41  1  0  0  0  0
 17 18  1  0  0  0  0
 18 19  1  0  0  0  0
 18 42  1  0  0  0  0
 18 43  1  0  0  0  0
 19 20  1  0  0  0  0
 19 21  1  0  0  0  0
 19 44  1  0  0  0  0
 20 45  1  0  0  0  0
 21 25  1  0  0  0  0
 21 22  1  0  0  0  0
 21 46  1  0  0  0  0
 22 23  1  0  0  0  0
 22 47  1  0  0  0  0
 22 48  1  0  0  0  0
 23 24  1  0  0  0  0
 23 49  1  0  0  0  0
 23 50  1  0  0  0  0
 24 25  1  0  0  0  0
 24 51  1  0  0  0  0
 24 52  1  0  0  0  0
M  END
> <s_m_source_file>
AV-unprocessed.smi

> <i_m_source_file_index>
232

> <i_lp_mmshare_version>
43012

> <i_f3d_flags>
0

> <s_epik_input>
W0NIM11bQ0gyXVtDQEBIXTFbQ0gyXVtDSDJdW0NAQEhdKFtDSDNdKU4xYyhuW2NIXW4yKWMoYzIzKW5bY0hdbjNbQ0gyXVtDQEhdKFtPSF0pW0NAQEhdNFtDSDJdW0NIMl1bQ0gyXU80

> <s_epik_cmdline>
J2VwaWtfcHl0aG9uJywgJy1waCcsICc3LjAnLCAnLXRuJywgJzgnLCAnLW1hJywgJzIwMCcsICctbWV0YWxfYmluZGluZycsICctaW1hZScsICc8aW5maWxlLm1hZT4nLCAnLW9tYWUnLCAnPG91dGZpbGUubWFlPic=

> <r_lp_tautomer_probability>
1

> <r_epik_Ionization_Penalty>
0.00258048

> <r_epik_Ionization_Penalty_Charging>
0

> <r_epik_Ionization_Penalty_Neutral>
0.00258048

> <r_epik_State_Penalty>
0.00168551

> <r_epik_Charging_Adjusted_Penalty>
0.00168551

> <i_epik_Tot_Q>
0

> <i_epik_Tot_abs_Q>
0

> <r_epik_Metal_State_Penalty>
-0

> <b_epik_Metal_Only>
0

> <s_lp_Force_Field>
OPLS_2005

> <r_lp_Energy>
53.8555

> <b_lp_Chiralities_Consistent>
1

> <s_lp_Variant>
AV-unprocessed.smi:232-14

> <Gold.Version>
5.8.1

> <Gold.Id.Protein>
6NUR|6NUR_protein|mol2

> <Gold.PLP.Fitness>
42.7443

> <Gold.PLP.PLP>
-38.9598

> <Gold.PLP.part.hbond>
-3.0000

> <Gold.PLP.part.metal>
0.0000

> <Gold.PLP.part.buried>
-5.4289

> <Gold.PLP.part.nonpolar>
-30.5467

> <Gold.PLP.part.repulsive>
0.0006

> <Gold.PLP.ligand.clash>
0.0000

> <Gold.PLP.ligand.torsion>
1.1662

> <Gold.PLP.Chemscore.Hbond>
2.0000

> <Gold.PLP.Chemscore.CHOScore>
0.0000

> <Gold.PLP.Chemscore.Metal>
0.0000

> <Gold.Chemscore.Hbonds>
donor molecule, donor type, donor heavy atom, donor atom, acceptor molecule, acceptor atom, score
      P1  H  7997  8010       L1    10  1.00

> <Gold.PLP.Chemscore.Internal.Correction>
0.1169

> <Gold.Rescore>
     Score         DG    S(hbond)    S(metal)    S(lipo)     H(rot)  DE(clash)    DE(int)     intcor
     15.56     -16.01       1.88        0.00      89.56       2.43       0.00       0.45       ----

> <Gold.Chemscore.Fitness>
15.5591

> <Gold.Chemscore.DG>
-16.0126

> <Gold.Chemscore.ZeroCoef>
-5.4800

> <Gold.Chemscore.Hbond>
1.8757

> <Gold.Chemscore.Metal>
0.0000

> <Gold.Chemscore.Lipo>
89.5594

> <Gold.Chemscore.Internal_Hbond>
0.0000

> <Gold.Chemscore.DEClash>
0.0000

> <Gold.Chemscore.DEInternal>
0.4536

> <Gold.Chemscore.Rot>
2.4260

> <Gold.Chemscore.Internal.Correction>
   9.000000E+99

> <Gold.Chemscore.Hbonds>
donor molecule, donor type, donor heavy atom, donor atom, acceptor molecule, acceptor atom, score
      P1  H  7997  8010       L1    10  0.30

> <Gold.Chemscore.Hbond.Weighted>
-6.2649

> <Gold.Chemscore.Metal.Weighted>
-0.0000

> <Gold.Chemscore.Lipo.Weighted>
-10.4784

> <Gold.Chemscore.Internal_Hbond.Weighted>
0.0000

> <Gold.Chemscore.DEClash.Weighted>
0.0000

> <Gold.Chemscore.DEInternal.Weighted>
0.4536

> <Gold.Chemscore.Rot.Weighted>
6.2107

> <Gold.Chemscore.Internal.Correction.Weighted>
   9.000000E+99

> <Gold.Protein.RotatedTorsions>
[ 6907 6896 6895 6894 ] final  130.50 input  -60.11 | X-H torsion
[ 7974 7965 7964 7962 ] final   32.50 input  175.53 | X-H torsion
[ 8008 7997 7996 7995 ] final   64.68 input   59.86 | X-H torsion
[ 10167 10162 10161 10158 ] final -136.71 input  -65.29 | X-H torsion
[ 10718 10713 10712 10709 ] final    7.38 input   66.30 | X-H torsion
[ 10763 10752 10751 10750 ] final   67.45 input  -60.55 | X-H torsion
[ 11005 11000 10999 10996 ] final  -72.02 input  -57.11 | X-H torsion

> <Gold.Protein.ActiveResidues>
 VAL166  LYS551  ARG553  GLY616  TRP617  ASP618  TYR619  PRO620  LYS621  CYS622 
 ASP623  PHE694  ASN695  SER759  ASP760  ASP761  ALA762  ILE779  LEU786  VAL792 
 PHE793  MET794  SER795  GLU796  ALA797  LYS798  CYS799  TRP800  GLU811  SER814 

> <Gold.Protein.RotatedAtoms>
  152.3520  133.6191  159.5951 H   0  0  0  0  0  0  0  0  0  0  0  0  # atno 6907 bound_to 6896
  150.7544  133.9560  159.3509 H   0  0  0  0  0  0  0  0  0  0  0  0  # atno 6908 bound_to 6896
  151.7410  135.0855  160.0367 H   0  0  0  0  0  0  0  0  0  0  0  0  # atno 6909 bound_to 6896
  146.1482  139.6517  142.9117 H   0  0  0  0  0  0  0  0  0  0  0  0  # atno 7974 bound_to 7965
  155.6498  140.3497  155.4744 H   0  0  0  0  0  0  0  0  0  0  0  0  # atno 8008 bound_to 7997
  155.9857  140.1183  157.0708 H   0  0  0  0  0  0  0  0  0  0  0  0  # atno 8009 bound_to 7997
  154.4204  140.1129  156.5483 H   0  0  0  0  0  0  0  0  0  0  0  0  # atno 8010 bound_to 7997
  139.8650  143.7029  152.2646 H   0  0  0  0  0  0  0  0  0  0  0  0  # atno 10167 bound_to 10162
  156.9360  130.5843  149.5651 H   0  0  0  0  0  0  0  0  0  0  0  0  # atno 10718 bound_to 10713
  153.0187  135.5283  154.6981 H   0  0  0  0  0  0  0  0  0  0  0  0  # atno 10763 bound_to 10752
  154.6097  135.2877  155.0448 H   0  0  0  0  0  0  0  0  0  0  0  0  # atno 10764 bound_to 10752
  154.1474  135.6568  153.5008 H   0  0  0  0  0  0  0  0  0  0  0  0  # atno 10765 bound_to 10752
  141.1602  133.6834  156.6995 H   0  0  0  0  0  0  0  0  0  0  0  0  # atno 11005 bound_to 11000
  145.4887  141.0438  143.2605 LP  0  0  0  0  0  0  0  0  0  0  0  0  # atno 17320 bound_to 7965
  144.7872  139.6403  143.7129 LP  0  0  0  0  0  0  0  0  0  0  0  0  # atno 17321 bound_to 7965
  139.7337  144.7576  151.0761 LP  0  0  0  0  0  0  0  0  0  0  0  0  # atno 17342 bound_to 10162
  140.7769  143.5056  150.9716 LP  0  0  0  0  0  0  0  0  0  0  0  0  # atno 17343 bound_to 10162
  156.0426  130.5506  150.8805 LP  0  0  0  0  0  0  0  0  0  0  0  0  # atno 17370 bound_to 10713
  157.5816  131.0946  150.9262 LP  0  0  0  0  0  0  0  0  0  0  0  0  # atno 17371 bound_to 10713
  140.2970  134.8195  157.4065 LP  0  0  0  0  0  0  0  0  0  0  0  0  # atno 17394 bound_to 11000
  140.1296  134.5113  155.8116 LP  0  0  0  0  0  0  0  0  0  0  0  0  # atno 17395 bound_to 11000

$$$$
