AV-unprocessed.smi:2079|AV-procd|sdf|8486|dock5
  -GOLD-   2272011193D 1   1.00000     0.00000
 Structure written by MMmdl.
 41 42  0  0  0  0  0  0  0  0  3 V2000
  147.4509  135.3633  162.4400 C   0  0  0  0  0  0  0  0  0  0  0  0
  147.9461  135.7619  161.0923 C   0  0  0  0  0  0  0  0  0  0  0  0
  148.2436  135.0516  159.9637 C   0  0  0  0  0  0  0  0  0  0  0  0
  148.6586  136.0573  159.0508 C   0  0  0  0  0  0  0  0  0  0  0  0
  149.0621  135.7167  157.7326 N   0  0  0  0  0  0  0  0  0  0  0  0
  149.3288  134.5013  157.2208 C   0  0  0  0  0  0  0  0  0  0  0  0
  149.2397  133.4913  157.9294 O   0  0  0  0  0  0  0  0  0  0  0  0
  149.6775  134.5598  155.9054 N   0  5  0  0  0  0  0  0  0  0  0  0
  148.9181  133.9522  154.8138 C   0  0  0  0  0  0  0  0  0  0  0  0
  147.6718  134.8006  154.4890 C   0  0  0  0  0  0  0  0  0  0  0  0
  147.2245  134.5872  153.0829 N   0  3  1  0  0  0  0  0  0  0  0  0
  147.0885  133.1340  152.7789 C   0  0  0  0  0  0  0  0  0  0  0  0
  146.7725  132.8800  151.2999 C   0  0  0  0  0  0  0  0  0  0  0  0
  145.4917  133.6124  150.8999 C   0  0  0  0  0  0  0  0  0  0  0  0
  145.6479  135.1052  151.2009 C   0  0  0  0  0  0  0  0  0  0  0  0
  146.0129  135.3737  152.6787 C   0  0  2  0  0  0  0  0  0  0  0  0
  146.1984  136.8952  152.8635 C   0  0  0  0  0  0  0  0  0  0  0  0
  148.6185  137.2725  159.5769 N   0  0  0  0  0  0  0  0  0  0  0  0
  148.1610  137.0893  160.8871 O   0  0  0  0  0  0  0  0  0  0  0  0
  147.6332  134.3044  162.6238 H   0  0  0  0  0  0  0  0  0  0  0  0
  146.3791  135.5423  162.5246 H   0  0  0  0  0  0  0  0  0  0  0  0
  147.9528  135.9326  163.2225 H   0  0  0  0  0  0  0  0  0  0  0  0
  148.1743  133.9844  159.8160 H   0  0  0  0  0  0  0  0  0  0  0  0
  149.1630  136.4914  157.0940 H   0  0  0  0  0  0  0  0  0  0  0  0
  149.5273  133.8681  153.9135 H   0  0  0  0  0  0  0  0  0  0  0  0
  148.6063  132.9329  155.0466 H   0  0  0  0  0  0  0  0  0  0  0  0
  146.8692  134.5369  155.1802 H   0  0  0  0  0  0  0  0  0  0  0  0
  147.8662  135.8536  154.6900 H   0  0  0  0  0  0  0  0  0  0  0  0
  148.0159  132.6200  153.0367 H   0  0  0  0  0  0  0  0  0  0  0  0
  146.3043  132.7047  153.4048 H   0  0  0  0  0  0  0  0  0  0  0  0
  147.6046  133.2160  150.6797 H   0  0  0  0  0  0  0  0  0  0  0  0
  146.6617  131.8101  151.1207 H   0  0  0  0  0  0  0  0  0  0  0  0
  145.2846  133.4602  149.8401 H   0  0  0  0  0  0  0  0  0  0  0  0
  144.6407  133.2072  151.4491 H   0  0  0  0  0  0  0  0  0  0  0  0
  146.4194  135.5211  150.5508 H   0  0  0  0  0  0  0  0  0  0  0  0
  144.7225  135.6227  150.9451 H   0  0  0  0  0  0  0  0  0  0  0  0
  145.1800  135.0483  153.3043 H   0  0  0  0  0  0  0  0  0  0  0  0
  145.3286  137.4392  152.4943 H   0  0  0  0  0  0  0  0  0  0  0  0
  147.0678  137.2571  152.3137 H   0  0  0  0  0  0  0  0  0  0  0  0
  146.3216  137.1841  153.9064 H   0  0  0  0  0  0  0  0  0  0  0  0
  147.9819  134.9245  152.5060 H   0  0  0  0  0  0  0  0  0  0  0  0
  1  2  1  0  0  0  0
  1 20  1  0  0  0  0
  1 21  1  0  0  0  0
  1 22  1  0  0  0  0
  2 19  1  0  0  0  0
  2  3  2  0  0  0  0
  3  4  1  0  0  0  0
  3 23  1  0  0  0  0
  4  5  1  0  0  0  0
  4 18  2  0  0  0  0
  5  6  1  0  0  0  0
  5 24  1  0  0  0  0
  6  7  2  0  0  0  0
  6  8  1  0  0  0  0
  8  9  1  0  0  0  0
  9 10  1  0  0  0  0
  9 25  1  0  0  0  0
  9 26  1  0  0  0  0
 10 11  1  0  0  0  0
 10 27  1  0  0  0  0
 10 28  1  0  0  0  0
 11 16  1  0  0  0  0
 11 12  1  0  0  0  0
 11 41  1  0  0  0  0
 12 13  1  0  0  0  0
 12 29  1  0  0  0  0
 12 30  1  0  0  0  0
 13 14  1  0  0  0  0
 13 31  1  0  0  0  0
 13 32  1  0  0  0  0
 14 15  1  0  0  0  0
 14 33  1  0  0  0  0
 14 34  1  0  0  0  0
 15 16  1  0  0  0  0
 15 35  1  0  0  0  0
 15 36  1  0  0  0  0
 16 17  1  0  0  0  0
 16 37  1  0  0  0  0
 17 38  1  0  0  0  0
 17 39  1  0  0  0  0
 17 40  1  0  0  0  0
 18 19  1  0  0  0  0
M  CHG  1   8  -1
M  CHG  1  11   1
M  END
> <s_m_source_file>
AV-unprocessed.smi

> <i_m_source_file_index>
2079

> <i_lp_mmshare_version>
43012

> <i_f3d_flags>
0

> <s_epik_input>
W0NIM11jMVtjSF1jKG5vMSlbTkhdQyg9TylbTkhdW0NIMl1bQ0gyXU4yW0NIMl1bQ0gyXVtDSDJdW0NIMl1bQ0BIXTJbQ0gzXQ==

> <s_epik_cmdline>
J2VwaWtfcHl0aG9uJywgJy1waCcsICc3LjAnLCAnLXRuJywgJzgnLCAnLW1hJywgJzIwMCcsICctbWV0YWxfYmluZGluZycsICctaW1hZScsICc8aW5maWxlLm1hZT4nLCAnLW9tYWUnLCAnPG91dGZpbGUubWFlPic=

> <r_epik_Ionization_Penalty>
6.7666

> <r_epik_Ionization_Penalty_Charging>
6.7666

> <r_epik_Ionization_Penalty_Neutral>
5.77131e-06

> <r_epik_State_Penalty>
6.79217

> <r_epik_Charging_Adjusted_Penalty>
13.5588

> <i_epik_Tot_Q>
0

> <i_epik_Tot_abs_Q>
2

> <r_epik_Metal_State_Penalty>
2.72569

> <b_epik_Metal_Only>
1

> <s_lp_Force_Field>
OPLS_2005

> <r_lp_Energy>
14.3166

> <b_lp_Chiralities_Consistent>
1

> <s_lp_Variant>
AV-unprocessed.smi:2079-12

> <Gold.Version>
5.8.1

> <Gold.Id.Protein>
6NUR|6NUR_protein|mol2

> <Gold.PLP.Fitness>
40.5925

> <Gold.PLP.PLP>
-29.8816

> <Gold.PLP.part.hbond>
-5.7613

> <Gold.PLP.part.metal>
0.0000

> <Gold.PLP.part.buried>
-3.3143

> <Gold.PLP.part.nonpolar>
-21.1764

> <Gold.PLP.part.repulsive>
0.1007

> <Gold.PLP.ligand.clash>
0.0000

> <Gold.PLP.ligand.torsion>
0.8998

> <Gold.PLP.Chemscore.Hbond>
4.1520

> <Gold.PLP.Chemscore.CHOScore>
0.0000

> <Gold.PLP.Chemscore.Metal>
0.0000

> <Gold.Chemscore.Hbonds>
donor molecule, donor type, donor heavy atom, donor atom, acceptor molecule, acceptor atom, score
      L1  H    11    41       P1  7948  2.00
      P1  H  6896  6908       L1     7  0.94
      P1  H  6931  6943       L1    19  0.96
      P1  H  6934  6947       L1    19  0.31

> <Gold.PLP.Chemscore.Internal.Correction>
0.0544

> <Gold.Rescore>
     Score         DG    S(hbond)    S(metal)    S(lipo)     H(rot)  DE(clash)    DE(int)     intcor
     14.73     -17.10       2.64        0.00      57.82       1.54       0.04       2.33       ----

> <Gold.Chemscore.Fitness>
14.7275

> <Gold.Chemscore.DG>
-17.1047

> <Gold.Chemscore.ZeroCoef>
-5.4800

> <Gold.Chemscore.Hbond>
2.6362

> <Gold.Chemscore.Metal>
0.0000

> <Gold.Chemscore.Lipo>
57.8171

> <Gold.Chemscore.Internal_Hbond>
0.0000

> <Gold.Chemscore.DEClash>
0.0440

> <Gold.Chemscore.DEInternal>
2.3332

> <Gold.Chemscore.Rot>
1.5409

> <Gold.Chemscore.Internal.Correction>
   9.000000E+99

> <Gold.Chemscore.Hbonds>
donor molecule, donor type, donor heavy atom, donor atom, acceptor molecule, acceptor atom, score
      L1  H    11    41       P1  7948  0.80
      P1  H  6896  6908       L1     7  0.27
      P1  H  6931  6943       L1    19  0.51
      P1  H  6934  6947       L1    19  0.03

> <Gold.Chemscore.Hbond.Weighted>
-8.8048

> <Gold.Chemscore.Metal.Weighted>
-0.0000

> <Gold.Chemscore.Lipo.Weighted>
-6.7646

> <Gold.Chemscore.Internal_Hbond.Weighted>
0.0000

> <Gold.Chemscore.DEClash.Weighted>
0.0440

> <Gold.Chemscore.DEInternal.Weighted>
2.3332

> <Gold.Chemscore.Rot.Weighted>
3.9446

> <Gold.Chemscore.Internal.Correction.Weighted>
   9.000000E+99

> <Gold.Protein.RotatedTorsions>
[ 6907 6896 6895 6894 ] final  123.37 input  -60.11 | X-H torsion
[ 7974 7965 7964 7962 ] final   86.73 input  175.53 | X-H torsion
[ 8008 7997 7996 7995 ] final   41.54 input   59.86 | X-H torsion
[ 10167 10162 10161 10158 ] final   20.85 input  -65.29 | X-H torsion
[ 10718 10713 10712 10709 ] final -117.08 input   66.30 | X-H torsion
[ 10763 10752 10751 10750 ] final -167.04 input  -60.55 | X-H torsion
[ 11005 11000 10999 10996 ] final   34.24 input  -57.11 | X-H torsion

> <Gold.Protein.ActiveResidues>
 VAL166  LYS551  ARG553  GLY616  TRP617  ASP618  TYR619  PRO620  LYS621  CYS622 
 ASP623  PHE694  ASN695  SER759  ASP760  ASP761  ALA762  ILE779  LEU786  VAL792 
 PHE793  MET794  SER795  GLU796  ALA797  LYS798  CYS799  TRP800  GLU811  SER814 

> <Gold.Protein.RotatedAtoms>
  152.4167  133.7050  159.6445 H   0  0  0  0  0  0  0  0  0  0  0  0  # atno 6907 bound_to 6896
  150.8044  133.8526  159.3218 H   0  0  0  0  0  0  0  0  0  0  0  0  # atno 6908 bound_to 6896
  151.6254  135.1030  160.0162 H   0  0  0  0  0  0  0  0  0  0  0  0  # atno 6909 bound_to 6896
  145.5683  139.2311  143.2420 H   0  0  0  0  0  0  0  0  0  0  0  0  # atno 7974 bound_to 7965
  155.2714  140.3366  155.4265 H   0  0  0  0  0  0  0  0  0  0  0  0  # atno 8008 bound_to 7997
  156.2131  140.1778  156.7692 H   0  0  0  0  0  0  0  0  0  0  0  0  # atno 8009 bound_to 7997
  154.5714  140.0669  156.8955 H   0  0  0  0  0  0  0  0  0  0  0  0  # atno 8010 bound_to 7997
  140.5472  143.9574  150.6555 H   0  0  0  0  0  0  0  0  0  0  0  0  # atno 10167 bound_to 10162
  156.1008  130.6170  150.9118 H   0  0  0  0  0  0  0  0  0  0  0  0  # atno 10718 bound_to 10713
  154.6772  135.2949  154.9662 H   0  0  0  0  0  0  0  0  0  0  0  0  # atno 10763 bound_to 10752
  154.0669  135.6623  153.4823 H   0  0  0  0  0  0  0  0  0  0  0  0  # atno 10764 bound_to 10752
  153.0524  135.5165  154.7798 H   0  0  0  0  0  0  0  0  0  0  0  0  # atno 10765 bound_to 10752
  140.2549  134.3260  155.7877 H   0  0  0  0  0  0  0  0  0  0  0  0  # atno 11005 bound_to 11000
  146.1802  140.6509  142.9192 LP  0  0  0  0  0  0  0  0  0  0  0  0  # atno 17320 bound_to 7965
  144.7450  140.5043  143.6842 LP  0  0  0  0  0  0  0  0  0  0  0  0  # atno 17321 bound_to 7965
  140.2990  143.3273  152.0990 LP  0  0  0  0  0  0  0  0  0  0  0  0  # atno 17342 bound_to 10162
  139.5012  144.6708  151.6246 LP  0  0  0  0  0  0  0  0  0  0  0  0  # atno 17343 bound_to 10162
  157.6178  131.0932  150.8679 LP  0  0  0  0  0  0  0  0  0  0  0  0  # atno 17370 bound_to 10713
  156.8807  130.5178  149.5291 LP  0  0  0  0  0  0  0  0  0  0  0  0  # atno 17371 bound_to 10713
  141.2197  133.7375  156.9096 LP  0  0  0  0  0  0  0  0  0  0  0  0  # atno 17394 bound_to 11000
  140.1521  134.9223  157.2606 LP  0  0  0  0  0  0  0  0  0  0  0  0  # atno 17395 bound_to 11000

$$$$
