AV-unprocessed.smi:1451|AV-procd|sdf|5900|dock10
  -GOLD-   22720 5583D 1   1.00000     0.00000
 Structure written by MMmdl.
 47 48  0  0  0  0  0  0  0  0  2 V2000
  152.2382  138.1081  154.4677 C   0  0  0  0  0  0  0  0  0  0  0  0
  151.5170  139.3799  154.9478 C   0  0  1  0  0  0  0  0  0  0  0  0
  150.0775  139.4859  154.4114 C   0  0  0  0  0  0  0  0  0  0  0  0
  149.1437  138.5011  155.1286 C   0  0  0  0  0  0  0  0  0  0  0  0
  149.2239  138.6760  156.6531 C   0  0  0  0  0  0  0  0  0  0  0  0
  150.6219  138.5348  157.1333 N   0  3  2  0  0  0  0  0  0  0  0  0
  150.7179  138.5391  158.6164 C   0  0  0  0  0  0  0  0  0  0  0  0
  152.0764  138.0298  159.1363 C   0  0  0  0  0  0  0  0  0  0  0  0
  152.7744  139.0641  159.8945 N   0  0  0  0  0  0  0  0  0  0  0  0
  153.9803  139.5798  159.5996 C   0  0  0  0  0  0  0  0  0  0  0  0
  154.6095  139.2682  158.5899 O   0  0  0  0  0  0  0  0  0  0  0  0
  154.6131  140.5652  160.5965 C   0  0  0  0  0  0  0  0  0  0  0  0
  153.8061  141.7687  160.8659 N   0  0  0  0  0  0  0  0  0  0  0  0
  153.2424  142.4147  159.7480 C   0  0  0  0  0  0  0  0  0  0  0  0
  152.4896  143.5263  159.8458 C   0  0  0  0  0  0  0  0  0  0  0  0
  151.9469  144.2228  158.6082 C   0  0  0  0  0  0  0  0  0  0  0  0
  152.9287  144.7354  157.8664 F   0  0  0  0  0  0  0  0  0  0  0  0
  151.2561  143.3665  157.8545 F   0  0  0  0  0  0  0  0  0  0  0  0
  151.1290  145.2124  158.9640 F   0  0  0  0  0  0  0  0  0  0  0  0
  152.2875  144.0535  161.1816 C   0  0  0  0  0  0  0  0  0  0  0  0
  152.8323  143.4565  162.2598 C   0  0  0  0  0  0  0  0  0  0  0  0
  153.6520  142.2490  162.1361 C   0  0  0  0  0  0  0  0  0  0  0  0
  154.1761  141.7097  163.1103 O   0  0  0  0  0  0  0  0  0  0  0  0
  151.5317  139.5167  156.4846 C   0  0  0  0  0  0  0  0  0  0  0  0
  151.7768  137.2027  154.8620 H   0  0  0  0  0  0  0  0  0  0  0  0
  153.2817  138.1089  154.7830 H   0  0  0  0  0  0  0  0  0  0  0  0
  152.2277  138.0385  153.3798 H   0  0  0  0  0  0  0  0  0  0  0  0
  152.0775  140.2219  154.5394 H   0  0  0  0  0  0  0  0  0  0  0  0
  149.7101  140.5012  154.5664 H   0  0  0  0  0  0  0  0  0  0  0  0
  150.0547  139.3146  153.3346 H   0  0  0  0  0  0  0  0  0  0  0  0
  148.1177  138.6504  154.7916 H   0  0  0  0  0  0  0  0  0  0  0  0
  149.4069  137.4776  154.8605 H   0  0  0  0  0  0  0  0  0  0  0  0
  148.8343  139.6531  156.9434 H   0  0  0  0  0  0  0  0  0  0  0  0
  148.5910  137.9261  157.1293 H   0  0  0  0  0  0  0  0  0  0  0  0
  150.5033  139.5351  159.0057 H   0  0  0  0  0  0  0  0  0  0  0  0
  149.9465  137.8820  159.0205 H   0  0  0  0  0  0  0  0  0  0  0  0
  151.9423  137.1238  159.7288 H   0  0  0  0  0  0  0  0  0  0  0  0
  152.7048  137.7423  158.2931 H   0  0  0  0  0  0  0  0  0  0  0  0
  152.3190  139.3920  160.7344 H   0  0  0  0  0  0  0  0  0  0  0  0
  154.7905  140.0330  161.5326 H   0  0  0  0  0  0  0  0  0  0  0  0
  155.6077  140.8303  160.2337 H   0  0  0  0  0  0  0  0  0  0  0  0
  153.4745  141.9535  158.7985 H   0  0  0  0  0  0  0  0  0  0  0  0
  151.6866  144.9398  161.3242 H   0  0  0  0  0  0  0  0  0  0  0  0
  152.6593  143.8760  163.2402 H   0  0  0  0  0  0  0  0  0  0  0  0
  152.5509  139.3908  156.8497 H   0  0  0  0  0  0  0  0  0  0  0  0
  151.2250  140.5249  156.7679 H   0  0  0  0  0  0  0  0  0  0  0  0
  150.9272  137.6189  156.8367 H   0  0  0  0  0  0  0  0  0  0  0  0
  1  2  1  0  0  0  0
  1 25  1  0  0  0  0
  1 26  1  0  0  0  0
  1 27  1  0  0  0  0
  2 24  1  0  0  0  0
  2  3  1  0  0  0  0
  2 28  1  0  0  0  0
  3  4  1  0  0  0  0
  3 29  1  0  0  0  0
  3 30  1  0  0  0  0
  4  5  1  0  0  0  0
  4 31  1  0  0  0  0
  4 32  1  0  0  0  0
  5  6  1  0  0  0  0
  5 33  1  0  0  0  0
  5 34  1  0  0  0  0
  6  7  1  0  0  0  0
  6 24  1  0  0  0  0
  6 47  1  0  0  0  0
  7  8  1  0  0  0  0
  7 35  1  0  0  0  0
  7 36  1  0  0  0  0
  8  9  1  0  0  0  0
  8 37  1  0  0  0  0
  8 38  1  0  0  0  0
  9 10  1  0  0  0  0
  9 39  1  0  0  0  0
 10 11  2  0  0  0  0
 10 12  1  0  0  0  0
 12 13  1  0  0  0  0
 12 40  1  0  0  0  0
 12 41  1  0  0  0  0
 13 22  1  0  0  0  0
 13 14  1  0  0  0  0
 14 15  2  0  0  0  0
 14 42  1  0  0  0  0
 15 16  1  0  0  0  0
 15 20  1  0  0  0  0
 16 17  1  0  0  0  0
 16 18  1  0  0  0  0
 16 19  1  0  0  0  0
 20 21  2  0  0  0  0
 20 43  1  0  0  0  0
 21 22  1  0  0  0  0
 21 44  1  0  0  0  0
 22 23  2  0  0  0  0
 24 45  1  0  0  0  0
 24 46  1  0  0  0  0
M  CHG  1   6   1
M  END
> <s_m_source_file>
AV-unprocessed.smi

> <i_m_source_file_index>
1451

> <i_lp_mmshare_version>
43012

> <i_f3d_flags>
0

> <s_epik_input>
W0NIM11bQ0BASF0xW0NIMl1bQ0gyXVtDSDJdTihbQ0gyXTEpW0NIMl1bQ0gyXVtOSF1DKD1PKVtDSDJdbjJbY0hdYyhDKEYpKEYpRilbY0hdW2NIXWMyPU8=

> <s_epik_cmdline>
J2VwaWtfcHl0aG9uJywgJy1waCcsICc3LjAnLCAnLXRuJywgJzgnLCAnLW1hJywgJzIwMCcsICctbWV0YWxfYmluZGluZycsICctaW1hZScsICc8aW5maWxlLm1hZT4nLCAnLW9tYWUnLCAnPG91dGZpbGUubWFlPic=

> <r_lp_tautomer_probability>
1

> <r_epik_Ionization_Penalty>
0.00192452

> <r_epik_Ionization_Penalty_Charging>
0.00192444

> <r_epik_Ionization_Penalty_Neutral>
8.16761e-08

> <r_epik_State_Penalty>
0.00131115

> <r_epik_Charging_Adjusted_Penalty>
0.00323559

> <i_epik_Tot_Q>
1

> <i_epik_Tot_abs_Q>
1

> <r_epik_Metal_State_Penalty>
-0

> <b_epik_Metal_Only>
0

> <s_lp_Force_Field>
OPLS_2005

> <r_lp_Energy>
37.139

> <b_lp_Chiralities_Consistent>
1

> <s_lp_Variant>
AV-unprocessed.smi:1451-2

> <Gold.Version>
5.8.1

> <Gold.Id.Protein>
6NUR|6NUR_protein|mol2

> <Gold.PLP.Fitness>
57.9830

> <Gold.PLP.PLP>
-56.5777

> <Gold.PLP.part.hbond>
-1.6675

> <Gold.PLP.part.metal>
0.0000

> <Gold.PLP.part.buried>
-4.4821

> <Gold.PLP.part.nonpolar>
-51.5571

> <Gold.PLP.part.repulsive>
0.1046

> <Gold.PLP.ligand.clash>
0.0000

> <Gold.PLP.ligand.torsion>
0.8186

> <Gold.PLP.Chemscore.Hbond>
1.0000

> <Gold.PLP.Chemscore.CHOScore>
0.0000

> <Gold.PLP.Chemscore.Metal>
0.0000

> <Gold.Chemscore.Hbonds>
donor molecule, donor type, donor heavy atom, donor atom, acceptor molecule, acceptor atom, score
      P1  H  7997  8009       L1    11  1.00

> <Gold.PLP.Chemscore.Internal.Correction>
0.0424

> <Gold.Rescore>
     Score         DG    S(hbond)    S(metal)    S(lipo)     H(rot)  DE(clash)    DE(int)     intcor
     15.29     -16.01       0.98        0.00     107.36       2.08       0.12       0.60       ----

> <Gold.Chemscore.Fitness>
15.2942

> <Gold.Chemscore.DG>
-16.0134

> <Gold.Chemscore.ZeroCoef>
-5.4800

> <Gold.Chemscore.Hbond>
0.9842

> <Gold.Chemscore.Metal>
0.0000

> <Gold.Chemscore.Lipo>
107.3606

> <Gold.Chemscore.Internal_Hbond>
0.0000

> <Gold.Chemscore.DEClash>
0.1162

> <Gold.Chemscore.DEInternal>
0.6029

> <Gold.Chemscore.Rot>
2.0762

> <Gold.Chemscore.Internal.Correction>
   9.000000E+99

> <Gold.Chemscore.Hbonds>
donor molecule, donor type, donor heavy atom, donor atom, acceptor molecule, acceptor atom, score
      P1  H  7997  8009       L1    11  0.93

> <Gold.Chemscore.Hbond.Weighted>
-3.2872

> <Gold.Chemscore.Metal.Weighted>
-0.0000

> <Gold.Chemscore.Lipo.Weighted>
-12.5612

> <Gold.Chemscore.Internal_Hbond.Weighted>
0.0000

> <Gold.Chemscore.DEClash.Weighted>
0.1162

> <Gold.Chemscore.DEInternal.Weighted>
0.6029

> <Gold.Chemscore.Rot.Weighted>
5.3150

> <Gold.Chemscore.Internal.Correction.Weighted>
   9.000000E+99

> <Gold.Protein.RotatedTorsions>
[ 6907 6896 6895 6894 ] final  -34.93 input  -60.11 | X-H torsion
[ 7974 7965 7964 7962 ] final   29.65 input  175.53 | X-H torsion
[ 8008 7997 7996 7995 ] final  127.77 input   59.86 | X-H torsion
[ 10167 10162 10161 10158 ] final  -97.61 input  -65.29 | X-H torsion
[ 10718 10713 10712 10709 ] final  -95.76 input   66.30 | X-H torsion
[ 10763 10752 10751 10750 ] final   59.71 input  -60.55 | X-H torsion
[ 11005 11000 10999 10996 ] final -164.87 input  -57.11 | X-H torsion

> <Gold.Protein.ActiveResidues>
 VAL166  LYS551  ARG553  GLY616  TRP617  ASP618  TYR619  PRO620  LYS621  CYS622 
 ASP623  PHE694  ASN695  SER759  ASP760  ASP761  ALA762  ILE779  LEU786  VAL792 
 PHE793  MET794  SER795  GLU796  ALA797  LYS798  CYS799  TRP800  GLU811  SER814 

> <Gold.Protein.RotatedAtoms>
  151.0463  134.9642  159.8187 H   0  0  0  0  0  0  0  0  0  0  0  0  # atno 6907 bound_to 6896
  152.5373  134.2594  159.8939 H   0  0  0  0  0  0  0  0  0  0  0  0  # atno 6908 bound_to 6896
  151.2608  133.4260  159.2650 H   0  0  0  0  0  0  0  0  0  0  0  0  # atno 6909 bound_to 6896
  146.1659  139.6893  142.9001 H   0  0  0  0  0  0  0  0  0  0  0  0  # atno 7974 bound_to 7965
  156.2899  140.2661  156.2328 H   0  0  0  0  0  0  0  0  0  0  0  0  # atno 8008 bound_to 7997
  155.0055  140.0387  157.2396 H   0  0  0  0  0  0  0  0  0  0  0  0  # atno 8009 bound_to 7997
  154.7563  140.2752  155.6255 H   0  0  0  0  0  0  0  0  0  0  0  0  # atno 8010 bound_to 7997
  140.2816  143.3278  152.0435 H   0  0  0  0  0  0  0  0  0  0  0  0  # atno 10167 bound_to 10162
  156.0049  130.5123  150.6125 H   0  0  0  0  0  0  0  0  0  0  0  0  # atno 10718 bound_to 10713
  152.9901  135.5562  154.5757 H   0  0  0  0  0  0  0  0  0  0  0  0  # atno 10763 bound_to 10752
  154.5149  135.2804  155.1314 H   0  0  0  0  0  0  0  0  0  0  0  0  # atno 10764 bound_to 10752
  154.2691  135.6366  153.5356 H   0  0  0  0  0  0  0  0  0  0  0  0  # atno 10765 bound_to 10752
  140.5820  134.5132  157.5180 H   0  0  0  0  0  0  0  0  0  0  0  0  # atno 11005 bound_to 11000
  145.4469  141.0426  143.2826 LP  0  0  0  0  0  0  0  0  0  0  0  0  # atno 17320 bound_to 7965
  144.8091  139.5995  143.7037 LP  0  0  0  0  0  0  0  0  0  0  0  0  # atno 17321 bound_to 7965
  139.4961  144.6587  151.6513 LP  0  0  0  0  0  0  0  0  0  0  0  0  # atno 17342 bound_to 10162
  140.5807  143.9952  150.6266 LP  0  0  0  0  0  0  0  0  0  0  0  0  # atno 17343 bound_to 10162
  157.3955  131.0802  151.1356 LP  0  0  0  0  0  0  0  0  0  0  0  0  # atno 17370 bound_to 10713
  157.2034  130.6405  149.5747 LP  0  0  0  0  0  0  0  0  0  0  0  0  # atno 17371 bound_to 10713
  139.9313  134.7959  156.0924 LP  0  0  0  0  0  0  0  0  0  0  0  0  # atno 17394 bound_to 11000
  141.0990  133.6684  156.2711 LP  0  0  0  0  0  0  0  0  0  0  0  0  # atno 17395 bound_to 11000

$$$$
