AV-unprocessed.smi:2562|AV-procd|sdf|10043|dock1
  -GOLD-   2272014 83D 1   1.00000     0.00000
 Structure written by MMmdl.
 31 32  0  0  0  0  0  0  0  0  2 V2000
  152.7540  142.5909  160.5926 C   0  0  0  0  0  0  0  0  0  0  0  0
  152.5088  142.2873  159.1106 C   0  0  0  0  0  0  0  0  0  0  0  0
  151.4191  141.2266  158.8987 C   0  0  0  0  0  0  0  0  0  0  0  0
  151.1802  140.9308  157.4545 C   0  0  0  0  0  0  0  0  0  0  0  0
  152.1621  140.5593  156.6305 N   0  0  0  0  0  0  0  0  0  0  0  0
  151.6521  140.3332  155.4012 N   0  0  0  0  0  0  0  0  0  0  0  0
  150.3609  140.6094  155.5801 C   0  0  0  0  0  0  0  0  0  0  0  0
  149.3801  140.4459  154.4613 C   0  0  1  0  0  0  0  0  0  0  0  0
  149.3051  138.9909  153.9603 C   0  0  0  0  0  0  0  0  0  0  0  0
  148.2532  138.8669  152.9326 N   0  3  0  0  0  0  0  0  0  0  0  0
  146.9522  139.3588  153.4285 C   0  0  0  0  0  0  0  0  0  0  0  0
  147.0951  140.7968  153.9583 C   0  0  0  0  0  0  0  0  0  0  0  0
  148.1049  140.8429  154.9612 O   0  0  0  0  0  0  0  0  0  0  0  0
  149.9978  140.9688  156.8499 N   0  0  0  0  0  0  0  0  0  0  0  0
  153.1409  140.4441  156.8531 H   0  0  0  0  0  0  0  0  0  0  0  0
  153.5329  143.3442  160.7110 H   0  0  0  0  0  0  0  0  0  0  0  0
  153.0712  141.6972  161.1307 H   0  0  0  0  0  0  0  0  0  0  0  0
  151.8506  142.9688  161.0721 H   0  0  0  0  0  0  0  0  0  0  0  0
  152.2275  143.2078  158.5978 H   0  0  0  0  0  0  0  0  0  0  0  0
  153.4408  141.9510  158.6544 H   0  0  0  0  0  0  0  0  0  0  0  0
  151.6977  140.2991  159.4003 H   0  0  0  0  0  0  0  0  0  0  0  0
  150.4829  141.5555  159.3521 H   0  0  0  0  0  0  0  0  0  0  0  0
  149.6671  141.1110  153.6438 H   0  0  0  0  0  0  0  0  0  0  0  0
  150.2606  138.6765  153.5396 H   0  0  0  0  0  0  0  0  0  0  0  0
  149.0771  138.3144  154.7857 H   0  0  0  0  0  0  0  0  0  0  0  0
  148.5210  139.4160  152.1281 H   0  0  0  0  0  0  0  0  0  0  0  0
  146.2183  139.3168  152.6235 H   0  0  0  0  0  0  0  0  0  0  0  0
  146.5980  138.6991  154.2219 H   0  0  0  0  0  0  0  0  0  0  0  0
  147.3404  141.4867  153.1492 H   0  0  0  0  0  0  0  0  0  0  0  0
  146.1527  141.1346  154.3896 H   0  0  0  0  0  0  0  0  0  0  0  0
  148.1641  137.8993  152.6563 H   0  0  0  0  0  0  0  0  0  0  0  0
  1  2  1  0  0  0  0
  1 16  1  0  0  0  0
  1 17  1  0  0  0  0
  1 18  1  0  0  0  0
  2  3  1  0  0  0  0
  2 19  1  0  0  0  0
  2 20  1  0  0  0  0
  3 21  1  0  0  0  0
  3 22  1  0  0  0  0
  3  4  1  0  0  0  0
  4 14  2  0  0  0  0
  4  5  1  0  0  0  0
  5  6  1  0  0  0  0
  5 15  1  0  0  0  0
  6  7  2  0  0  0  0
  7 14  1  0  0  0  0
  7  8  1  0  0  0  0
  8 13  1  0  0  0  0
  8  9  1  0  0  0  0
  8 23  1  0  0  0  0
  9 10  1  0  0  0  0
  9 24  1  0  0  0  0
  9 25  1  0  0  0  0
 10 11  1  0  0  0  0
 10 26  1  0  0  0  0
 10 31  1  0  0  0  0
 11 12  1  0  0  0  0
 11 27  1  0  0  0  0
 11 28  1  0  0  0  0
 12 13  1  0  0  0  0
 12 29  1  0  0  0  0
 12 30  1  0  0  0  0
M  CHG  1  10   1
M  END
> <s_m_source_file>
AV-unprocessed.smi

> <i_m_source_file_index>
2562

> <i_lp_mmshare_version>
43012

> <i_f3d_flags>
0

> <s_epik_input>
W0NIM11bQ0gyXVtDSDJdYzFuW25IXWMobjEpW0NAQEhdMltDSDJdW05IXVtDSDJdW0NIMl1PMg==

> <s_epik_cmdline>
J2VwaWtfcHl0aG9uJywgJy1waCcsICc3LjAnLCAnLXRuJywgJzgnLCAnLW1hJywgJzIwMCcsICctbWV0YWxfYmluZGluZycsICctaW1hZScsICc8aW5maWxlLm1hZT4nLCAnLW9tYWUnLCAnPG91dGZpbGUubWFlPic=

> <r_lp_tautomer_probability>
0.948284

> <r_epik_Ionization_Penalty>
0.10647

> <r_epik_Ionization_Penalty_Charging>
0.100865

> <r_epik_Ionization_Penalty_Neutral>
0.0056057

> <r_epik_State_Penalty>
0.375056

> <r_epik_Charging_Adjusted_Penalty>
0.47592

> <i_epik_Tot_Q>
1

> <i_epik_Tot_abs_Q>
1

> <r_epik_Metal_State_Penalty>
0.497514

> <b_epik_Metal_Only>
0

> <s_lp_Force_Field>
OPLS_2005

> <r_lp_Energy>
10.4144

> <b_lp_Chiralities_Consistent>
1

> <s_lp_Variant>
AV-unprocessed.smi:2562-2

> <Gold.Version>
5.8.1

> <Gold.Id.Protein>
6NUR|6NUR_protein|mol2

> <Gold.PLP.Fitness>
35.6920

> <Gold.PLP.PLP>
-24.9333

> <Gold.PLP.part.hbond>
-2.9225

> <Gold.PLP.part.metal>
0.0000

> <Gold.PLP.part.buried>
-1.3479

> <Gold.PLP.part.nonpolar>
-21.2076

> <Gold.PLP.part.repulsive>
0.4887

> <Gold.PLP.ligand.clash>
0.0000

> <Gold.PLP.ligand.torsion>
0.0608

> <Gold.PLP.Chemscore.Hbond>
3.6200

> <Gold.PLP.Chemscore.CHOScore>
0.0000

> <Gold.PLP.Chemscore.Metal>
0.0000

> <Gold.Chemscore.Hbonds>
donor molecule, donor type, donor heavy atom, donor atom, acceptor molecule, acceptor atom, score
      L1  H    10    26       P1  7957  1.00
      L1  H    10    31       P1  7948  1.98
      P1  H  7989  7998       L1     6  0.59

> <Gold.PLP.Chemscore.Internal.Correction>
0.0202

> <Gold.Rescore>
     Score         DG    S(hbond)    S(metal)    S(lipo)     H(rot)  DE(clash)    DE(int)     intcor
     14.24     -14.44       1.94        0.00      54.23       1.51       0.12       0.08       ----

> <Gold.Chemscore.Fitness>
14.2401

> <Gold.Chemscore.DG>
-14.4405

> <Gold.Chemscore.ZeroCoef>
-5.4800

> <Gold.Chemscore.Hbond>
1.9416

> <Gold.Chemscore.Metal>
0.0000

> <Gold.Chemscore.Lipo>
54.2318

> <Gold.Chemscore.Internal_Hbond>
0.0000

> <Gold.Chemscore.DEClash>
0.1172

> <Gold.Chemscore.DEInternal>
0.0831

> <Gold.Chemscore.Rot>
1.5115

> <Gold.Chemscore.Internal.Correction>
   9.000000E+99

> <Gold.Chemscore.Hbonds>
donor molecule, donor type, donor heavy atom, donor atom, acceptor molecule, acceptor atom, score
      L1  H    10    26       P1  7957  0.94
      L1  H    10    31       P1  7948  0.90
      P1  H  7989  7998       L1     6  0.06

> <Gold.Chemscore.Hbond.Weighted>
-6.4848

> <Gold.Chemscore.Metal.Weighted>
-0.0000

> <Gold.Chemscore.Lipo.Weighted>
-6.3451

> <Gold.Chemscore.Internal_Hbond.Weighted>
0.0000

> <Gold.Chemscore.DEClash.Weighted>
0.1172

> <Gold.Chemscore.DEInternal.Weighted>
0.0831

> <Gold.Chemscore.Rot.Weighted>
3.8695

> <Gold.Chemscore.Internal.Correction.Weighted>
   9.000000E+99

> <Gold.Protein.RotatedTorsions>
[ 6907 6896 6895 6894 ] final   66.86 input  -60.11 | X-H torsion
[ 7974 7965 7964 7962 ] final  166.48 input  175.53 | X-H torsion
[ 8008 7997 7996 7995 ] final   77.56 input   59.86 | X-H torsion
[ 10167 10162 10161 10158 ] final   81.74 input  -65.29 | X-H torsion
[ 10718 10713 10712 10709 ] final -176.09 input   66.30 | X-H torsion
[ 10763 10752 10751 10750 ] final  -69.38 input  -60.55 | X-H torsion
[ 11005 11000 10999 10996 ] final   99.12 input  -57.11 | X-H torsion

> <Gold.Protein.ActiveResidues>
 VAL166  LYS551  ARG553  GLY616  TRP617  ASP618  TYR619  PRO620  LYS621  CYS622 
 ASP623  PHE694  ASN695  SER759  ASP760  ASP761  ALA762  ILE779  LEU786  VAL792 
 PHE793  MET794  SER795  GLU796  ALA797  LYS798  CYS799  TRP800  GLU811  SER814 

> <Gold.Protein.RotatedAtoms>
  152.4511  134.5391  159.9833 H   0  0  0  0  0  0  0  0  0  0  0  0  # atno 6907 bound_to 6896
  151.5463  133.3419  159.2952 H   0  0  0  0  0  0  0  0  0  0  0  0  # atno 6908 bound_to 6896
  150.8441  134.7775  159.7019 H   0  0  0  0  0  0  0  0  0  0  0  0  # atno 6909 bound_to 6896
  144.7461  139.8622  143.6382 H   0  0  0  0  0  0  0  0  0  0  0  0  # atno 7974 bound_to 7965
  155.8433  140.3461  155.5645 H   0  0  0  0  0  0  0  0  0  0  0  0  # atno 8008 bound_to 7997
  155.8117  140.0900  157.1919 H   0  0  0  0  0  0  0  0  0  0  0  0  # atno 8009 bound_to 7997
  154.4005  140.1446  156.3382 H   0  0  0  0  0  0  0  0  0  0  0  0  # atno 8010 bound_to 7997
  139.9360  144.6121  150.8298 H   0  0  0  0  0  0  0  0  0  0  0  0  # atno 10167 bound_to 10162
  156.8095  130.9581  151.3116 H   0  0  0  0  0  0  0  0  0  0  0  0  # atno 10718 bound_to 10713
  154.4026  135.6027  153.5906 H   0  0  0  0  0  0  0  0  0  0  0  0  # atno 10763 bound_to 10752
  152.9788  135.5910  154.4165 H   0  0  0  0  0  0  0  0  0  0  0  0  # atno 10764 bound_to 10752
  154.3966  135.2842  155.2100 H   0  0  0  0  0  0  0  0  0  0  0  0  # atno 10765 bound_to 10752
  139.8771  134.9081  156.4559 H   0  0  0  0  0  0  0  0  0  0  0  0  # atno 11005 bound_to 11000
  146.1340  139.4382  143.0150 LP  0  0  0  0  0  0  0  0  0  0  0  0  # atno 17320 bound_to 7965
  145.7119  141.0103  143.1448 LP  0  0  0  0  0  0  0  0  0  0  0  0  # atno 17321 bound_to 7965
  140.7624  143.3198  151.2649 LP  0  0  0  0  0  0  0  0  0  0  0  0  # atno 17342 bound_to 10162
  139.6743  143.9965  152.2771 LP  0  0  0  0  0  0  0  0  0  0  0  0  # atno 17343 bound_to 10162
  157.6513  130.8887  149.9639 LP  0  0  0  0  0  0  0  0  0  0  0  0  # atno 17370 bound_to 10713
  156.1053  130.3653  150.0145 LP  0  0  0  0  0  0  0  0  0  0  0  0  # atno 17371 bound_to 10713
  140.8899  133.7856  155.9560 LP  0  0  0  0  0  0  0  0  0  0  0  0  # atno 17394 bound_to 11000
  140.8765  134.2663  157.5165 LP  0  0  0  0  0  0  0  0  0  0  0  0  # atno 17395 bound_to 11000

$$$$
