AV-unprocessed.smi:817|AV-procd|sdf|3830|dock5
  -GOLD-   22720 1273D 1   1.00000     0.00000
 Structure written by MMmdl.
 48 49  0  0  0  0  0  0  0  0  2 V2000
  139.8869  136.4064  153.8224 C   0  0  0  0  0  0  0  0  0  0  0  0
  141.4112  136.4360  154.0063 C   0  0  2  0  0  0  0  0  0  0  0  0
  142.0423  137.6000  153.2225 C   0  0  0  0  0  0  0  0  0  0  0  0
  143.5689  137.6252  153.3741 C   0  0  0  0  0  0  0  0  0  0  0  0
  144.1834  136.2746  152.9667 C   0  0  0  0  0  0  0  0  0  0  0  0
  143.6020  135.0475  153.7422 C   0  0  2  0  0  0  0  0  0  0  0  0
  143.9993  135.1627  155.2468 C   0  0  0  0  0  0  0  0  0  0  0  0
  143.1786  134.3111  156.1108 N   0  0  0  0  0  0  0  0  0  0  0  0
  143.6024  133.4801  157.0783 C   0  0  0  0  0  0  0  0  0  0  0  0
  144.7979  133.3733  157.3401 O   0  0  0  0  0  0  0  0  0  0  0  0
  142.6098  132.8222  157.7094 N   0  0  0  0  0  0  0  0  0  0  0  0
  142.6884  131.8730  158.7644 C   0  0  0  0  0  0  0  0  0  0  0  0
  143.8595  131.5914  159.5095 C   0  0  0  0  0  0  0  0  0  0  0  0
  143.8026  130.6126  160.5205 C   0  0  0  0  0  0  0  0  0  0  0  0
  142.5822  129.9471  160.7460 C   0  0  0  0  0  0  0  0  0  0  0  0
  141.4617  130.1972  160.0368 N   0  0  0  0  0  0  0  0  0  0  0  0
  141.5239  131.1369  159.0696 C   0  0  0  0  0  0  0  0  0  0  0  0
  144.1649  133.7536  153.1974 N   0  3  0  0  0  0  0  0  0  0  0  0
  145.6169  133.5193  153.4128 C   0  0  0  0  0  0  0  0  0  0  0  0
  143.7960  133.4392  151.7915 C   0  0  0  0  0  0  0  0  0  0  0  0
  142.0500  135.0872  153.6026 C   0  0  0  0  0  0  0  0  0  0  0  0
  139.6144  136.2489  152.7784 H   0  0  0  0  0  0  0  0  0  0  0  0
  139.4342  137.3440  154.1461 H   0  0  0  0  0  0  0  0  0  0  0  0
  139.4359  135.6053  154.4086 H   0  0  0  0  0  0  0  0  0  0  0  0
  141.5943  136.6050  155.0674 H   0  0  0  0  0  0  0  0  0  0  0  0
  141.7862  137.5124  152.1656 H   0  0  0  0  0  0  0  0  0  0  0  0
  141.6262  138.5495  153.5610 H   0  0  0  0  0  0  0  0  0  0  0  0
  143.9805  138.4144  152.7441 H   0  0  0  0  0  0  0  0  0  0  0  0
  143.8440  137.8920  154.3938 H   0  0  0  0  0  0  0  0  0  0  0  0
  143.9835  136.1838  151.8998 H   0  0  0  0  0  0  0  0  0  0  0  0
  145.2684  136.3180  153.0678 H   0  0  0  0  0  0  0  0  0  0  0  0
  145.0426  134.8993  155.4101 H   0  0  0  0  0  0  0  0  0  0  0  0
  143.9204  136.1966  155.5826 H   0  0  0  0  0  0  0  0  0  0  0  0
  142.1820  134.3416  155.9510 H   0  0  0  0  0  0  0  0  0  0  0  0
  141.6725  133.0669  157.4252 H   0  0  0  0  0  0  0  0  0  0  0  0
  144.7977  132.0893  159.3240 H   0  0  0  0  0  0  0  0  0  0  0  0
  144.6772  130.3747  161.1079 H   0  0  0  0  0  0  0  0  0  0  0  0
  142.5052  129.1906  161.5129 H   0  0  0  0  0  0  0  0  0  0  0  0
  140.6089  131.3082  158.5213 H   0  0  0  0  0  0  0  0  0  0  0  0
  146.2221  134.3345  153.0166 H   0  0  0  0  0  0  0  0  0  0  0  0
  145.9386  132.6010  152.9207 H   0  0  0  0  0  0  0  0  0  0  0  0
  145.8507  133.3851  154.4684 H   0  0  0  0  0  0  0  0  0  0  0  0
  144.2962  134.1043  151.0872 H   0  0  0  0  0  0  0  0  0  0  0  0
  142.7235  133.4922  151.6150 H   0  0  0  0  0  0  0  0  0  0  0  0
  144.0952  132.4200  151.5445 H   0  0  0  0  0  0  0  0  0  0  0  0
  141.5958  134.3023  154.2078 H   0  0  0  0  0  0  0  0  0  0  0  0
  141.7677  134.8713  152.5719 H   0  0  0  0  0  0  0  0  0  0  0  0
  143.7145  133.0341  153.7445 H   0  0  0  0  0  0  0  0  0  0  0  0
  1  2  1  0  0  0  0
  1 22  1  0  0  0  0
  1 23  1  0  0  0  0
  1 24  1  0  0  0  0
  2 21  1  0  0  0  0
  2  3  1  0  0  0  0
  2 25  1  0  0  0  0
  3  4  1  0  0  0  0
  3 26  1  0  0  0  0
  3 27  1  0  0  0  0
  4  5  1  0  0  0  0
  4 28  1  0  0  0  0
  4 29  1  0  0  0  0
  5  6  1  0  0  0  0
  5 30  1  0  0  0  0
  5 31  1  0  0  0  0
  6  7  1  0  0  0  0
  6 18  1  0  0  0  0
  6 21  1  0  0  0  0
  7  8  1  0  0  0  0
  7 32  1  0  0  0  0
  7 33  1  0  0  0  0
  8  9  1  0  0  0  0
  8 34  1  0  0  0  0
  9 10  2  0  0  0  0
  9 11  1  0  0  0  0
 11 12  1  0  0  0  0
 11 35  1  0  0  0  0
 12 17  1  0  0  0  0
 12 13  2  0  0  0  0
 13 14  1  0  0  0  0
 13 36  1  0  0  0  0
 14 15  2  0  0  0  0
 14 37  1  0  0  0  0
 15 16  1  0  0  0  0
 15 38  1  0  0  0  0
 16 17  2  0  0  0  0
 17 39  1  0  0  0  0
 18 19  1  0  0  0  0
 18 20  1  0  0  0  0
 18 48  1  0  0  0  0
 19 40  1  0  0  0  0
 19 41  1  0  0  0  0
 19 42  1  0  0  0  0
 20 43  1  0  0  0  0
 20 44  1  0  0  0  0
 20 45  1  0  0  0  0
 21 46  1  0  0  0  0
 21 47  1  0  0  0  0
M  CHG  1  18   1
M  END
> <s_m_source_file>
AV-unprocessed.smi

> <i_m_source_file_index>
817

> <i_lp_mmshare_version>
43012

> <i_f3d_flags>
0

> <s_epik_input>
W0NIM11bQ0BASF0oW0NIMl0xKVtDSDJdW0NIMl1bQ0gyXVtDQF0xKE4oW0NIM10pW0NIM10pW0NIMl1bTkhdQyg9TylbTkhdYzJbY0hdW2NIXVtjSF1uW2NIXTI=

> <s_epik_cmdline>
J2VwaWtfcHl0aG9uJywgJy1waCcsICc3LjAnLCAnLXRuJywgJzgnLCAnLW1hJywgJzIwMCcsICctbWV0YWxfYmluZGluZycsICctaW1hZScsICc8aW5maWxlLm1hZT4nLCAnLW9tYWUnLCAnPG91dGZpbGUubWFlPic=

> <r_lp_tautomer_probability>
1

> <r_epik_Ionization_Penalty>
0.00584939

> <r_epik_Ionization_Penalty_Charging>
0.00160539

> <r_epik_Ionization_Penalty_Neutral>
0.004244

> <r_epik_State_Penalty>
-0

> <r_epik_Charging_Adjusted_Penalty>
0.00160539

> <i_epik_Tot_Q>
1

> <i_epik_Tot_abs_Q>
1

> <r_epik_Metal_State_Penalty>
-0

> <b_epik_Metal_Only>
0

> <s_lp_Force_Field>
OPLS_2005

> <r_lp_Energy>
49.7529

> <b_lp_Chiralities_Consistent>
1

> <s_lp_Variant>
AV-unprocessed.smi:817-3

> <Gold.Version>
5.8.1

> <Gold.Id.Protein>
6NUR|6NUR_protein|mol2

> <Gold.PLP.Fitness>
43.1093

> <Gold.PLP.PLP>
-29.8354

> <Gold.PLP.part.hbond>
-5.0000

> <Gold.PLP.part.metal>
0.0000

> <Gold.PLP.part.buried>
-2.6901

> <Gold.PLP.part.nonpolar>
-22.5832

> <Gold.PLP.part.repulsive>
0.1748

> <Gold.PLP.ligand.clash>
0.0000

> <Gold.PLP.ligand.torsion>
0.3561

> <Gold.PLP.Chemscore.Hbond>
3.6260

> <Gold.PLP.Chemscore.CHOScore>
1.0000

> <Gold.PLP.Chemscore.Metal>
0.0000

> <Gold.Chemscore.Hbonds>
donor molecule, donor type, donor heavy atom, donor atom, acceptor molecule, acceptor atom, score
      L1  H     8    34       P1 11000  0.96
      L1  H    11    35       P1 11000  0.65
      L1  H    18    48       P1 10957  2.00
      L1  C    17    39       P1 10998  1.00

> <Gold.PLP.Chemscore.Internal.Correction>
0.1080

> <Gold.Rescore>
     Score         DG    S(hbond)    S(metal)    S(lipo)     H(rot)  DE(clash)    DE(int)     intcor
     14.24     -15.73       1.84        0.00      66.51       1.44       0.02       1.47       ----

> <Gold.Chemscore.Fitness>
14.2376

> <Gold.Chemscore.DG>
-15.7278

> <Gold.Chemscore.ZeroCoef>
-5.4800

> <Gold.Chemscore.Hbond>
1.8427

> <Gold.Chemscore.Metal>
0.0000

> <Gold.Chemscore.Lipo>
66.5052

> <Gold.Chemscore.Internal_Hbond>
0.0000

> <Gold.Chemscore.DEClash>
0.0163

> <Gold.Chemscore.DEInternal>
1.4739

> <Gold.Chemscore.Rot>
1.4405

> <Gold.Chemscore.Internal.Correction>
   9.000000E+99

> <Gold.Chemscore.Hbonds>
donor molecule, donor type, donor heavy atom, donor atom, acceptor molecule, acceptor atom, score
      L1  H     8    34       P1 11000  0.45
      L1  H    11    35       P1 11000  0.06
      L1  H    18    48       P1 10957  0.95

> <Gold.Chemscore.Hbond.Weighted>
-6.1545

> <Gold.Chemscore.Metal.Weighted>
-0.0000

> <Gold.Chemscore.Lipo.Weighted>
-7.7811

> <Gold.Chemscore.Internal_Hbond.Weighted>
0.0000

> <Gold.Chemscore.DEClash.Weighted>
0.0163

> <Gold.Chemscore.DEInternal.Weighted>
1.4739

> <Gold.Chemscore.Rot.Weighted>
3.6878

> <Gold.Chemscore.Internal.Correction.Weighted>
   9.000000E+99

> <Gold.Protein.RotatedTorsions>
[ 6907 6896 6895 6894 ] final  120.60 input  -60.11 | X-H torsion
[ 7974 7965 7964 7962 ] final  178.83 input  175.53 | X-H torsion
[ 8008 7997 7996 7995 ] final  -83.32 input   59.86 | X-H torsion
[ 10167 10162 10161 10158 ] final  -60.05 input  -65.29 | X-H torsion
[ 10718 10713 10712 10709 ] final    0.07 input   66.30 | X-H torsion
[ 10763 10752 10751 10750 ] final  120.77 input  -60.55 | X-H torsion
[ 11005 11000 10999 10996 ] final  105.43 input  -57.11 | X-H torsion

> <Gold.Protein.ActiveResidues>
 VAL166  LYS551  ARG553  GLY616  TRP617  ASP618  TYR619  PRO620  LYS621  CYS622 
 ASP623  PHE694  ASN695  SER759  ASP760  ASP761  ALA762  ILE779  LEU786  VAL792 
 PHE793  MET794  SER795  GLU796  ALA797  LYS798  CYS799  TRP800  GLU811  SER814 

> <Gold.Protein.RotatedAtoms>
  152.4386  133.7406  159.6638 H   0  0  0  0  0  0  0  0  0  0  0  0  # atno 6907 bound_to 6896
  150.8273  133.8140  159.3119 H   0  0  0  0  0  0  0  0  0  0  0  0  # atno 6908 bound_to 6896
  151.5804  135.1061  160.0067 H   0  0  0  0  0  0  0  0  0  0  0  0  # atno 6909 bound_to 6896
  144.7152  140.0457  143.6436 H   0  0  0  0  0  0  0  0  0  0  0  0  # atno 7974 bound_to 7965
  154.6179  140.0620  156.9577 H   0  0  0  0  0  0  0  0  0  0  0  0  # atno 8008 bound_to 7997
  155.1866  140.3303  155.4347 H   0  0  0  0  0  0  0  0  0  0  0  0  # atno 8009 bound_to 7997
  156.2415  140.1888  156.6958 H   0  0  0  0  0  0  0  0  0  0  0  0  # atno 8010 bound_to 7997
  140.6096  143.2383  151.5740 H   0  0  0  0  0  0  0  0  0  0  0  0  # atno 10167 bound_to 10162
  156.8280  130.5479  149.5690 H   0  0  0  0  0  0  0  0  0  0  0  0  # atno 10718 bound_to 10713
  153.6038  135.3443  155.2954 H   0  0  0  0  0  0  0  0  0  0  0  0  # atno 10763 bound_to 10752
  154.8631  135.4234  154.2384 H   0  0  0  0  0  0  0  0  0  0  0  0  # atno 10764 bound_to 10752
  153.3219  135.7038  153.7095 H   0  0  0  0  0  0  0  0  0  0  0  0  # atno 10765 bound_to 10752
  139.8802  134.9335  156.5512 H   0  0  0  0  0  0  0  0  0  0  0  0  # atno 11005 bound_to 11000
  145.9986  139.3073  143.0941 LP  0  0  0  0  0  0  0  0  0  0  0  0  # atno 17320 bound_to 7965
  145.8819  140.9357  143.0597 LP  0  0  0  0  0  0  0  0  0  0  0  0  # atno 17321 bound_to 7965
  139.5351  144.2804  152.1233 LP  0  0  0  0  0  0  0  0  0  0  0  0  # atno 17342 bound_to 10162
  140.2001  144.4666  150.6436 LP  0  0  0  0  0  0  0  0  0  0  0  0  # atno 17343 bound_to 10162
  156.0951  130.5926  150.9799 LP  0  0  0  0  0  0  0  0  0  0  0  0  # atno 17370 bound_to 10713
  157.6422  131.0909  150.8228 LP  0  0  0  0  0  0  0  0  0  0  0  0  # atno 17371 bound_to 10713
  140.8238  133.8332  155.8920 LP  0  0  0  0  0  0  0  0  0  0  0  0  # atno 17394 bound_to 11000
  140.9393  134.1921  157.4809 LP  0  0  0  0  0  0  0  0  0  0  0  0  # atno 17395 bound_to 11000

$$$$
