AV-unprocessed.smi:2603|AV-procd|sdf|10185|dock6
  -GOLD-   2272014203D 1   1.00000     0.00000
 Structure written by MMmdl.
 35 36  0  0  0  0  0  0  0  0  1 V2000
  151.2273  142.5161  156.6754 C   0  0  0  0  0  0  0  0  0  0  0  0
  150.6674  141.0930  156.6144 C   0  0  0  0  0  0  0  0  0  0  0  0
  151.0970  140.4802  155.4115 O   0  0  0  0  0  0  0  0  0  0  0  0
  151.1311  139.0688  155.5164 C   0  0  2  0  0  0  0  0  0  0  0  0
  152.2818  138.4280  154.7926 C   0  0  0  0  0  0  0  0  0  0  0  0
  150.8888  138.3890  154.1892 C   0  0  1  0  0  0  0  0  0  0  0  0
  150.1947  137.1433  154.2072 N   0  0  0  0  0  0  0  0  0  0  0  0
  150.3888  136.1535  155.0911 C   0  0  0  0  0  0  0  0  0  0  0  0
  151.2099  136.2054  156.0068 O   0  0  0  0  0  0  0  0  0  0  0  0
  149.5139  134.9120  154.9203 C   0  0  0  0  0  0  0  0  0  0  0  0
  149.3554  134.2179  156.2484 C   0  0  0  0  0  0  0  0  0  0  0  0
  148.8565  134.7533  157.4713 C   0  0  0  0  0  0  0  0  0  0  0  0
  148.3669  136.1443  157.7563 C   0  0  0  0  0  0  0  0  0  0  0  0
  148.8644  133.8563  158.4429 N   0  0  0  0  0  0  0  0  0  0  0  0
  149.3761  132.6840  157.8784 O   0  0  0  0  0  0  0  0  0  0  0  0
  149.6616  132.9252  156.5734 C   0  0  0  0  0  0  0  0  0  0  0  0
  150.2310  131.7919  155.7892 C   0  0  0  0  0  0  0  0  0  0  0  0
  150.9105  143.0205  157.5884 H   0  0  0  0  0  0  0  0  0  0  0  0
  150.8824  143.1094  155.8282 H   0  0  0  0  0  0  0  0  0  0  0  0
  152.3174  142.5081  156.6586 H   0  0  0  0  0  0  0  0  0  0  0  0
  151.0145  140.5181  157.4744 H   0  0  0  0  0  0  0  0  0  0  0  0
  149.5774  141.1194  156.6523 H   0  0  0  0  0  0  0  0  0  0  0  0
  150.7243  138.6371  156.4299 H   0  0  0  0  0  0  0  0  0  0  0  0
  153.0137  139.0841  154.3251 H   0  0  0  0  0  0  0  0  0  0  0  0
  152.6826  137.5046  155.2060 H   0  0  0  0  0  0  0  0  0  0  0  0
  150.7194  139.0432  153.3349 H   0  0  0  0  0  0  0  0  0  0  0  0
  149.4959  137.0041  153.4919 H   0  0  0  0  0  0  0  0  0  0  0  0
  148.5487  135.1997  154.5014 H   0  0  0  0  0  0  0  0  0  0  0  0
  149.9763  134.2559  154.1820 H   0  0  0  0  0  0  0  0  0  0  0  0
  149.1927  136.7948  158.0448 H   0  0  0  0  0  0  0  0  0  0  0  0
  147.6362  136.1540  158.5658 H   0  0  0  0  0  0  0  0  0  0  0  0
  147.8900  136.5820  156.8795 H   0  0  0  0  0  0  0  0  0  0  0  0
  151.2641  131.9990  155.5102 H   0  0  0  0  0  0  0  0  0  0  0  0
  149.6602  131.6297  154.8748 H   0  0  0  0  0  0  0  0  0  0  0  0
  150.2154  130.8663  156.3655 H   0  0  0  0  0  0  0  0  0  0  0  0
  1  2  1  0  0  0  0
  1 18  1  0  0  0  0
  1 19  1  0  0  0  0
  1 20  1  0  0  0  0
  2  3  1  0  0  0  0
  2 21  1  0  0  0  0
  2 22  1  0  0  0  0
  3  4  1  0  0  0  0
  4  6  1  0  0  0  0
  4  5  1  0  0  0  0
  4 23  1  0  0  0  0
  5  6  1  0  0  0  0
  5 24  1  0  0  0  0
  5 25  1  0  0  0  0
  6  7  1  0  0  0  0
  6 26  1  0  0  0  0
  7  8  1  0  0  0  0
  7 27  1  0  0  0  0
  8  9  2  0  0  0  0
  8 10  1  0  0  0  0
 10 11  1  0  0  0  0
 10 28  1  0  0  0  0
 10 29  1  0  0  0  0
 11 16  2  0  0  0  0
 11 12  1  0  0  0  0
 12 13  1  0  0  0  0
 12 14  2  0  0  0  0
 13 30  1  0  0  0  0
 13 31  1  0  0  0  0
 13 32  1  0  0  0  0
 14 15  1  0  0  0  0
 15 16  1  0  0  0  0
 16 17  1  0  0  0  0
 17 33  1  0  0  0  0
 17 34  1  0  0  0  0
 17 35  1  0  0  0  0
M  END
> <s_m_source_file>
AV-unprocessed.smi

> <i_m_source_file_index>
2603

> <i_lp_mmshare_version>
43012

> <i_f3d_flags>
0

> <s_epik_input>
W0NIM11bQ0gyXU9bQ0BASF0xW0NIMl1bQ0BIXTFbTkhdQyg9TylbQ0gyXWMyYyhbQ0gzXSlub2MyW0NIM10=

> <s_epik_cmdline>
J2VwaWtfcHl0aG9uJywgJy1waCcsICc3LjAnLCAnLXRuJywgJzgnLCAnLW1hJywgJzIwMCcsICctbWV0YWxfYmluZGluZycsICctaW1hZScsICc8aW5maWxlLm1hZT4nLCAnLW9tYWUnLCAnPG91dGZpbGUubWFlPic=

> <r_lp_tautomer_probability>
1

> <r_epik_Ionization_Penalty>
2.37325e-08

> <r_epik_Ionization_Penalty_Charging>
0

> <r_epik_Ionization_Penalty_Neutral>
2.37325e-08

> <r_epik_State_Penalty>
-0

> <r_epik_Charging_Adjusted_Penalty>
0

> <i_epik_Tot_Q>
0

> <i_epik_Tot_abs_Q>
0

> <r_epik_Metal_State_Penalty>
-0

> <b_epik_Metal_Only>
0

> <s_lp_Force_Field>
OPLS_2005

> <r_lp_Energy>
10.4269

> <b_lp_Chiralities_Consistent>
1

> <s_lp_Variant>
AV-unprocessed.smi:2603-1

> <Gold.Version>
5.8.1

> <Gold.Id.Protein>
6NUR|6NUR_protein|mol2

> <Gold.PLP.Fitness>
39.1555

> <Gold.PLP.PLP>
-29.0155

> <Gold.PLP.part.hbond>
-5.7608

> <Gold.PLP.part.metal>
0.0000

> <Gold.PLP.part.buried>
-3.6257

> <Gold.PLP.part.nonpolar>
-20.0453

> <Gold.PLP.part.repulsive>
0.1343

> <Gold.PLP.ligand.clash>
0.0000

> <Gold.PLP.ligand.torsion>
1.2539

> <Gold.PLP.Chemscore.Hbond>
3.9920

> <Gold.PLP.Chemscore.CHOScore>
0.0000

> <Gold.PLP.Chemscore.Metal>
0.0000

> <Gold.Chemscore.Hbonds>
donor molecule, donor type, donor heavy atom, donor atom, acceptor molecule, acceptor atom, score
      L1  H     7    27       P1  7948  0.98
      P1  H  6896  6907       L1    14  0.25
      P1  H  7989  7998       L1     3  0.94
      P1  H 10752 10765       L1     9  0.44

> <Gold.PLP.Chemscore.Internal.Correction>
0.6718

> <Gold.Rescore>
     Score         DG    S(hbond)    S(metal)    S(lipo)     H(rot)  DE(clash)    DE(int)     intcor
     13.17     -17.72       2.74        0.00      63.61       1.69       0.50       4.06       ----

> <Gold.Chemscore.Fitness>
13.1679

> <Gold.Chemscore.DG>
-17.7241

> <Gold.Chemscore.ZeroCoef>
-5.4800

> <Gold.Chemscore.Hbond>
2.7355

> <Gold.Chemscore.Metal>
0.0000

> <Gold.Chemscore.Lipo>
63.6092

> <Gold.Chemscore.Internal_Hbond>
0.0000

> <Gold.Chemscore.DEClash>
0.4950

> <Gold.Chemscore.DEInternal>
4.0612

> <Gold.Chemscore.Rot>
1.6933

> <Gold.Chemscore.Internal.Correction>
   9.000000E+99

> <Gold.Chemscore.Hbonds>
donor molecule, donor type, donor heavy atom, donor atom, acceptor molecule, acceptor atom, score
      L1  H     7    27       P1  7948  0.82
      P1  H  7989  7998       L1     3  0.43
      P1  H 10752 10765       L1     9  0.15

> <Gold.Chemscore.Hbond.Weighted>
-9.1366

> <Gold.Chemscore.Metal.Weighted>
-0.0000

> <Gold.Chemscore.Lipo.Weighted>
-7.4423

> <Gold.Chemscore.Internal_Hbond.Weighted>
0.0000

> <Gold.Chemscore.DEClash.Weighted>
0.4950

> <Gold.Chemscore.DEInternal.Weighted>
4.0612

> <Gold.Chemscore.Rot.Weighted>
4.3348

> <Gold.Chemscore.Internal.Correction.Weighted>
   9.000000E+99

> <Gold.Protein.RotatedTorsions>
[ 6907 6896 6895 6894 ] final -106.36 input  -60.11 | X-H torsion
[ 7974 7965 7964 7962 ] final  -75.83 input  175.53 | X-H torsion
[ 8008 7997 7996 7995 ] final -163.82 input   59.86 | X-H torsion
[ 10167 10162 10161 10158 ] final  -94.18 input  -65.29 | X-H torsion
[ 10718 10713 10712 10709 ] final -100.88 input   66.30 | X-H torsion
[ 10763 10752 10751 10750 ] final -155.69 input  -60.55 | X-H torsion
[ 11005 11000 10999 10996 ] final  -52.23 input  -57.11 | X-H torsion

> <Gold.Protein.ActiveResidues>
 VAL166  LYS551  ARG553  GLY616  TRP617  ASP618  TYR619  PRO620  LYS621  CYS622 
 ASP623  PHE694  ASN695  SER759  ASP760  ASP761  ALA762  ILE779  LEU786  VAL792 
 PHE793  MET794  SER795  GLU796  ALA797  LYS798  CYS799  TRP800  GLU811  SER814 

> <Gold.Protein.RotatedAtoms>
  150.7385  133.9987  159.3630 H   0  0  0  0  0  0  0  0  0  0  0  0  # atno 6907 bound_to 6896
  151.7940  135.0725  160.0400 H   0  0  0  0  0  0  0  0  0  0  0  0  # atno 6908 bound_to 6896
  152.3188  133.5794  159.5766 H   0  0  0  0  0  0  0  0  0  0  0  0  # atno 6909 bound_to 6896
  145.6208  140.9363  143.1139 H   0  0  0  0  0  0  0  0  0  0  0  0  # atno 7974 bound_to 7965
  155.8268  140.0928  157.1816 H   0  0  0  0  0  0  0  0  0  0  0  0  # atno 8008 bound_to 7997
  154.3979  140.1426  156.3626 H   0  0  0  0  0  0  0  0  0  0  0  0  # atno 8009 bound_to 7997
  155.8208  140.3446  155.5515 H   0  0  0  0  0  0  0  0  0  0  0  0  # atno 8010 bound_to 7997
  140.3171  143.3071  152.0087 H   0  0  0  0  0  0  0  0  0  0  0  0  # atno 10167 bound_to 10162
  156.0177  130.5348  150.6882 H   0  0  0  0  0  0  0  0  0  0  0  0  # atno 10718 bound_to 10713
  154.7768  135.3162  154.8074 H   0  0  0  0  0  0  0  0  0  0  0  0  # atno 10763 bound_to 10752
  153.8796  135.6836  153.4772 H   0  0  0  0  0  0  0  0  0  0  0  0  # atno 10764 bound_to 10752
  153.1394  135.4745  154.9409 H   0  0  0  0  0  0  0  0  0  0  0  0  # atno 10765 bound_to 10752
  141.0913  133.6632  156.3994 H   0  0  0  0  0  0  0  0  0  0  0  0  # atno 11005 bound_to 11000
  144.7232  139.7962  143.7374 LP  0  0  0  0  0  0  0  0  0  0  0  0  # atno 17320 bound_to 7965
  146.1432  139.4495  143.0095 LP  0  0  0  0  0  0  0  0  0  0  0  0  # atno 17321 bound_to 7965
  139.4882  144.6340  151.7013 LP  0  0  0  0  0  0  0  0  0  0  0  0  # atno 17342 bound_to 10162
  140.5517  144.0414  150.6130 LP  0  0  0  0  0  0  0  0  0  0  0  0  # atno 17343 bound_to 10162
  157.4570  131.0879  151.0786 LP  0  0  0  0  0  0  0  0  0  0  0  0  # atno 17370 bound_to 10713
  157.1285  130.6092  149.5523 LP  0  0  0  0  0  0  0  0  0  0  0  0  # atno 17371 bound_to 10713
  140.5244  134.6273  157.5329 LP  0  0  0  0  0  0  0  0  0  0  0  0  # atno 17394 bound_to 11000
  139.9740  134.7246  155.9986 LP  0  0  0  0  0  0  0  0  0  0  0  0  # atno 17395 bound_to 11000

$$$$
