AV-unprocessed.smi:202|AV-procd|sdf|1581|dock7
  -GOLD-   2262019473D 1   1.00000     0.00000
 Structure written by MMmdl.
 49 52  0  0  0  0  0  0  0  0  1 V2000
  146.3457  130.0534  152.5979 C   0  0  0  0  0  0  0  0  0  0  0  0
  146.3983  131.5635  152.8714 C   0  0  0  0  0  0  0  0  0  0  0  0
  145.0574  132.1890  152.4377 C   0  0  0  0  0  0  0  0  0  0  0  0
  144.9938  132.7594  151.0043 C   0  0  0  0  0  0  0  0  0  0  0  0
  143.7155  132.9664  150.6907 F   0  0  0  0  0  0  0  0  0  0  0  0
  145.6366  133.9234  150.9196 F   0  0  0  0  0  0  0  0  0  0  0  0
  145.5021  131.9112  150.1117 F   0  0  0  0  0  0  0  0  0  0  0  0
  146.8651  131.9456  154.2866 C   0  0  0  0  0  0  0  0  0  0  0  0
  148.2061  132.0916  153.7435 N   0  0  0  0  0  0  0  0  0  0  0  0
  148.9372  133.1788  154.2950 C   0  0  0  0  0  0  0  0  0  0  0  0
  150.2238  133.0311  154.7148 N   0  0  0  0  0  0  0  0  0  0  0  0
  150.9008  134.0637  155.2257 C   0  0  0  0  0  0  0  0  0  0  0  0
  150.4934  135.3208  155.4037 N   0  0  0  0  0  0  0  0  0  0  0  0
  149.2086  135.4843  154.9796 C   0  0  0  0  0  0  0  0  0  0  0  0
  148.3720  134.4765  154.4217 C   0  0  0  0  0  0  0  0  0  0  0  0
  147.1291  135.0117  154.1093 N   0  0  0  0  0  0  0  0  0  0  0  0
  147.2253  136.2650  154.4609 C   0  0  0  0  0  0  0  0  0  0  0  0
  148.4428  136.6373  154.9857 N   0  0  0  0  0  0  0  0  0  0  0  0
  148.8199  137.9622  155.4562 C   0  0  0  0  0  0  0  0  0  0  0  0
  149.3111  138.9188  154.3353 C   0  0  0  0  0  0  0  0  0  0  0  0
  148.3358  138.9101  153.3088 O   0  0  0  0  0  0  0  0  0  0  0  0
  149.4318  140.3713  154.8381 C   0  0  0  0  0  0  0  0  0  0  0  0
  150.6744  140.5627  155.7268 C   0  0  0  0  0  0  0  0  0  0  0  0
  151.8443  140.1663  155.0196 O   0  0  0  0  0  0  0  0  0  0  0  0
  151.8352  138.7909  154.6530 C   0  0  0  0  0  0  0  0  0  0  0  0
  150.6585  138.5092  153.7019 C   0  0  0  0  0  0  0  0  0  0  0  0
  147.6751  132.2811  152.4003 C   0  0  0  0  0  0  0  0  0  0  0  0
  145.4083  129.6089  152.9339 H   0  0  0  0  0  0  0  0  0  0  0  0
  147.1493  129.5267  153.1137 H   0  0  0  0  0  0  0  0  0  0  0  0
  146.4630  129.8298  151.5381 H   0  0  0  0  0  0  0  0  0  0  0  0
  144.2515  131.4652  152.5659 H   0  0  0  0  0  0  0  0  0  0  0  0
  144.8124  133.0026  153.1218 H   0  0  0  0  0  0  0  0  0  0  0  0
  146.4383  132.8822  154.6501 H   0  0  0  0  0  0  0  0  0  0  0  0
  146.7778  131.1468  155.0235 H   0  0  0  0  0  0  0  0  0  0  0  0
  151.9140  133.8526  155.5344 H   0  0  0  0  0  0  0  0  0  0  0  0
  146.4059  136.9591  154.3424 H   0  0  0  0  0  0  0  0  0  0  0  0
  147.9569  138.3944  155.9643 H   0  0  0  0  0  0  0  0  0  0  0  0
  149.5838  137.8402  156.2237 H   0  0  0  0  0  0  0  0  0  0  0  0
  148.7685  139.0605  152.4822 H   0  0  0  0  0  0  0  0  0  0  0  0
  149.5154  141.0490  153.9868 H   0  0  0  0  0  0  0  0  0  0  0  0
  148.5320  140.6690  155.3779 H   0  0  0  0  0  0  0  0  0  0  0  0
  150.7743  141.6121  156.0042 H   0  0  0  0  0  0  0  0  0  0  0  0
  150.5901  140.0012  156.6578 H   0  0  0  0  0  0  0  0  0  0  0  0
  152.7775  138.5554  154.1581 H   0  0  0  0  0  0  0  0  0  0  0  0
  151.7853  138.1674  155.5458 H   0  0  0  0  0  0  0  0  0  0  0  0
  150.6561  137.4622  153.3987 H   0  0  0  0  0  0  0  0  0  0  0  0
  150.8196  139.0823  152.7875 H   0  0  0  0  0  0  0  0  0  0  0  0
  148.2331  131.7441  151.6328 H   0  0  0  0  0  0  0  0  0  0  0  0
  147.5028  133.3213  152.1211 H   0  0  0  0  0  0  0  0  0  0  0  0
  1  2  1  0  0  0  0
  1 28  1  0  0  0  0
  1 29  1  0  0  0  0
  1 30  1  0  0  0  0
  2 27  1  0  0  0  0
  2  3  1  0  0  0  0
  2  8  1  0  0  0  0
  3  4  1  0  0  0  0
  3 31  1  0  0  0  0
  3 32  1  0  0  0  0
  4  5  1  0  0  0  0
  4  6  1  0  0  0  0
  4  7  1  0  0  0  0
  8  9  1  0  0  0  0
  8 33  1  0  0  0  0
  8 34  1  0  0  0  0
  9 10  1  0  0  0  0
  9 27  1  0  0  0  0
 10 15  1  0  0  0  0
 10 11  2  0  0  0  0
 11 12  1  0  0  0  0
 12 13  2  0  0  0  0
 12 35  1  0  0  0  0
 13 14  1  0  0  0  0
 14 18  1  0  0  0  0
 14 15  2  0  0  0  0
 15 16  1  0  0  0  0
 16 17  2  0  0  0  0
 17 18  1  0  0  0  0
 17 36  1  0  0  0  0
 18 19  1  0  0  0  0
 19 20  1  0  0  0  0
 19 37  1  0  0  0  0
 19 38  1  0  0  0  0
 20 26  1  0  0  0  0
 20 21  1  0  0  0  0
 20 22  1  0  0  0  0
 21 39  1  0  0  0  0
 22 23  1  0  0  0  0
 22 40  1  0  0  0  0
 22 41  1  0  0  0  0
 23 24  1  0  0  0  0
 23 42  1  0  0  0  0
 23 43  1  0  0  0  0
 24 25  1  0  0  0  0
 25 26  1  0  0  0  0
 25 44  1  0  0  0  0
 25 45  1  0  0  0  0
 26 46  1  0  0  0  0
 26 47  1  0  0  0  0
 27 48  1  0  0  0  0
 27 49  1  0  0  0  0
M  END
> <s_m_source_file>
AV-unprocessed.smi

> <i_m_source_file_index>
202

> <i_lp_mmshare_version>
43012

> <i_f3d_flags>
0

> <s_epik_input>
RkMoRikoRilbQ0gyXUMxKFtDSDNdKVtDSDJdTihbQ0gyXTEpYyhuW2NIXW4yKWMoYzIzKW5bY0hdbjNbQ0gyXUM0KFtPSF0pW0NIMl1bQ0gyXU9bQ0gyXVtDSDJdNA==

> <s_epik_cmdline>
J2VwaWtfcHl0aG9uJywgJy1waCcsICc3LjAnLCAnLXRuJywgJzgnLCAnLW1hJywgJzIwMCcsICctbWV0YWxfYmluZGluZycsICctaW1hZScsICc8aW5maWxlLm1hZT4nLCAnLW9tYWUnLCAnPG91dGZpbGUubWFlPic=

> <r_lp_tautomer_probability>
1

> <r_epik_Ionization_Penalty>
0.00132063

> <r_epik_Ionization_Penalty_Charging>
0

> <r_epik_Ionization_Penalty_Neutral>
0.00132063

> <r_epik_State_Penalty>
0.000845314

> <r_epik_Charging_Adjusted_Penalty>
0.000845314

> <i_epik_Tot_Q>
0

> <i_epik_Tot_abs_Q>
0

> <r_epik_Metal_State_Penalty>
-0

> <b_epik_Metal_Only>
0

> <s_lp_Force_Field>
OPLS_2005

> <r_lp_Energy>
42.0456

> <b_lp_Chiralities_Consistent>
1

> <s_lp_Variant>
AV-unprocessed.smi:202-1

> <Gold.Version>
5.8.1

> <Gold.Id.Protein>
6NUR|6NUR_protein|mol2

> <Gold.PLP.Fitness>
45.8730

> <Gold.PLP.PLP>
-41.7515

> <Gold.PLP.part.hbond>
-3.0000

> <Gold.PLP.part.metal>
0.0000

> <Gold.PLP.part.buried>
-4.3940

> <Gold.PLP.part.nonpolar>
-34.8822

> <Gold.PLP.part.repulsive>
0.3997

> <Gold.PLP.ligand.clash>
0.0000

> <Gold.PLP.ligand.torsion>
1.3453

> <Gold.PLP.Chemscore.Hbond>
1.8800

> <Gold.PLP.Chemscore.CHOScore>
0.0000

> <Gold.PLP.Chemscore.Metal>
0.0000

> <Gold.Chemscore.Hbonds>
donor molecule, donor type, donor heavy atom, donor atom, acceptor molecule, acceptor atom, score
      L1  H    21    39       P1  7957  1.00
      P1  H  7989  7998       L1    24  0.88

> <Gold.PLP.Chemscore.Internal.Correction>
1.1721

> <Gold.Rescore>
     Score         DG    S(hbond)    S(metal)    S(lipo)     H(rot)  DE(clash)    DE(int)     intcor
     11.66     -13.70       1.85        0.00      73.92       2.58       0.24       1.81       ----

> <Gold.Chemscore.Fitness>
11.6582

> <Gold.Chemscore.DG>
-13.7050

> <Gold.Chemscore.ZeroCoef>
-5.4800

> <Gold.Chemscore.Hbond>
1.8541

> <Gold.Chemscore.Metal>
0.0000

> <Gold.Chemscore.Lipo>
73.9191

> <Gold.Chemscore.Internal_Hbond>
0.0000

> <Gold.Chemscore.DEClash>
0.2383

> <Gold.Chemscore.DEInternal>
1.8085

> <Gold.Chemscore.Rot>
2.5845

> <Gold.Chemscore.Internal.Correction>
   9.000000E+99

> <Gold.Chemscore.Hbonds>
donor molecule, donor type, donor heavy atom, donor atom, acceptor molecule, acceptor atom, score
      L1  H    21    39       P1  7957  0.99
      P1  H  7989  7998       L1    24  0.10

> <Gold.Chemscore.Hbond.Weighted>
-6.1927

> <Gold.Chemscore.Metal.Weighted>
-0.0000

> <Gold.Chemscore.Lipo.Weighted>
-8.6485

> <Gold.Chemscore.Internal_Hbond.Weighted>
0.0000

> <Gold.Chemscore.DEClash.Weighted>
0.2383

> <Gold.Chemscore.DEInternal.Weighted>
1.8085

> <Gold.Chemscore.Rot.Weighted>
6.6163

> <Gold.Chemscore.Internal.Correction.Weighted>
   9.000000E+99

> <Gold.Protein.RotatedTorsions>
[ 6907 6896 6895 6894 ] final -163.97 input  -60.11 | X-H torsion
[ 7974 7965 7964 7962 ] final -123.18 input  175.53 | X-H torsion
[ 8008 7997 7996 7995 ] final   98.76 input   59.86 | X-H torsion
[ 10167 10162 10161 10158 ] final -152.72 input  -65.29 | X-H torsion
[ 10718 10713 10712 10709 ] final  139.37 input   66.30 | X-H torsion
[ 10763 10752 10751 10750 ] final   98.84 input  -60.55 | X-H torsion
[ 11005 11000 10999 10996 ] final  142.29 input  -57.11 | X-H torsion

> <Gold.Protein.ActiveResidues>
 VAL166  LYS551  ARG553  GLY616  TRP617  ASP618  TYR619  PRO620  LYS621  CYS622 
 ASP623  PHE694  ASN695  SER759  ASP760  ASP761  ALA762  ILE779  LEU786  VAL792 
 PHE793  MET794  SER795  GLU796  ALA797  LYS798  CYS799  TRP800  GLU811  SER814 

> <Gold.Protein.RotatedAtoms>
  151.4045  133.3747  159.2736 H   0  0  0  0  0  0  0  0  0  0  0  0  # atno 6907 bound_to 6896
  150.9409  134.8819  159.7622 H   0  0  0  0  0  0  0  0  0  0  0  0  # atno 6908 bound_to 6896
  152.5071  134.3995  159.9464 H   0  0  0  0  0  0  0  0  0  0  0  0  # atno 6909 bound_to 6896
  145.0214  140.7991  143.4378 H   0  0  0  0  0  0  0  0  0  0  0  0  # atno 7974 bound_to 7965
  156.1036  140.3239  155.7976 H   0  0  0  0  0  0  0  0  0  0  0  0  # atno 8008 bound_to 7997
  155.4794  140.0553  157.2986 H   0  0  0  0  0  0  0  0  0  0  0  0  # atno 8009 bound_to 7997
  154.4713  140.2012  156.0002 H   0  0  0  0  0  0  0  0  0  0  0  0  # atno 8010 bound_to 7997
  139.7157  143.9037  152.2485 H   0  0  0  0  0  0  0  0  0  0  0  0  # atno 10167 bound_to 10162
  157.4152  131.1032  151.0412 H   0  0  0  0  0  0  0  0  0  0  0  0  # atno 10718 bound_to 10713
  153.2940  135.4134  155.1193 H   0  0  0  0  0  0  0  0  0  0  0  0  # atno 10763 bound_to 10752
  154.8529  135.3525  154.5942 H   0  0  0  0  0  0  0  0  0  0  0  0  # atno 10764 bound_to 10752
  153.6365  135.7058  153.5314 H   0  0  0  0  0  0  0  0  0  0  0  0  # atno 10765 bound_to 10752
  140.0465  134.9278  157.0940 H   0  0  0  0  0  0  0  0  0  0  0  0  # atno 11005 bound_to 11000
  145.1890  139.2311  143.5252 LP  0  0  0  0  0  0  0  0  0  0  0  0  # atno 17320 bound_to 7965
  146.3486  140.1682  142.8590 LP  0  0  0  0  0  0  0  0  0  0  0  0  # atno 17321 bound_to 7965
  139.8918  144.6961  150.8761 LP  0  0  0  0  0  0  0  0  0  0  0  0  # atno 17342 bound_to 10162
  140.7743  143.3580  151.1883 LP  0  0  0  0  0  0  0  0  0  0  0  0  # atno 17343 bound_to 10162
  157.1363  130.6124  149.5543 LP  0  0  0  0  0  0  0  0  0  0  0  0  # atno 17370 bound_to 10713
  155.9863  130.4897  150.7071 LP  0  0  0  0  0  0  0  0  0  0  0  0  # atno 17371 bound_to 10713
  140.3984  134.2108  155.7164 LP  0  0  0  0  0  0  0  0  0  0  0  0  # atno 17394 bound_to 11000
  141.1910  133.8205  157.0898 LP  0  0  0  0  0  0  0  0  0  0  0  0  # atno 17395 bound_to 11000

$$$$
