AV-unprocessed.smi:1624|AV-procd|sdf|6504|dock5
  -GOLD-   22720 7173D 1   1.00000     0.00000
 Structure written by MMmdl.
 35 36  0  0  0  0  0  0  0  0  2 V2000
  147.8189  140.8151  158.2708 O   0  0  0  0  0  0  0  0  0  0  0  0
  147.8554  142.0209  158.5279 C   0  0  0  0  0  0  0  0  0  0  0  0
  148.9530  142.7336  158.2351 N   0  0  0  0  0  0  0  0  0  0  0  0
  150.1626  142.2143  157.6067 C   0  0  0  0  0  0  0  0  0  0  0  0
  151.2163  143.3201  157.4118 C   0  0  0  0  0  0  0  0  0  0  0  0
  152.1353  143.3905  158.5529 N   0  0  0  0  0  0  0  0  0  0  0  0
  152.3560  144.7310  159.1168 C   0  0  0  0  0  0  0  0  0  0  0  0
  151.7017  144.9336  160.5018 C   0  0  0  0  0  0  0  0  0  0  0  0
  151.6231  143.6853  161.4027 C   0  0  0  0  0  0  0  0  0  0  0  0
  152.9513  142.9186  161.5738 C   0  0  0  0  0  0  0  0  0  0  0  0
  153.6582  142.4526  160.2768 C   0  0  0  0  0  0  0  0  0  0  0  0
  152.7296  142.2841  159.0624 C   0  0  0  0  0  0  0  0  0  0  0  0
  152.5615  141.1564  158.5974 O   0  0  0  0  0  0  0  0  0  0  0  0
  146.8662  142.7485  159.0952 N   0  5  0  0  0  0  0  0  0  0  0  0
  146.3337  142.3581  160.2649 C   0  0  0  0  0  0  0  0  0  0  0  0
  146.2068  141.0646  160.6022 N   0  0  0  0  0  0  0  0  0  0  0  0
  145.6342  140.8805  161.8539 N   0  0  0  0  0  0  0  0  0  0  0  0
  145.3515  142.0461  162.4351 C   0  0  0  0  0  0  0  0  0  0  0  0
  145.7607  143.4739  161.5078 S   0  0  0  0  0  0  0  0  0  0  0  0
  148.9421  143.7173  158.4618 H   0  0  0  0  0  0  0  0  0  0  0  0
  150.5599  141.4223  158.2418 H   0  0  0  0  0  0  0  0  0  0  0  0
  149.9136  141.7488  156.6516 H   0  0  0  0  0  0  0  0  0  0  0  0
  151.7811  143.1475  156.4946 H   0  0  0  0  0  0  0  0  0  0  0  0
  150.7235  144.2825  157.2632 H   0  0  0  0  0  0  0  0  0  0  0  0
  153.4274  144.9200  159.1845 H   0  0  0  0  0  0  0  0  0  0  0  0
  151.9978  145.5032  158.4347 H   0  0  0  0  0  0  0  0  0  0  0  0
  152.2293  145.7307  161.0262 H   0  0  0  0  0  0  0  0  0  0  0  0
  150.6856  145.3009  160.3545 H   0  0  0  0  0  0  0  0  0  0  0  0
  151.2599  143.9856  162.3860 H   0  0  0  0  0  0  0  0  0  0  0  0
  150.8600  143.0079  161.0162 H   0  0  0  0  0  0  0  0  0  0  0  0
  153.6450  143.5382  162.1429 H   0  0  0  0  0  0  0  0  0  0  0  0
  152.7610  142.0458  162.1993 H   0  0  0  0  0  0  0  0  0  0  0  0
  154.4548  143.1485  160.0142 H   0  0  0  0  0  0  0  0  0  0  0  0
  154.1685  141.5079  160.4686 H   0  0  0  0  0  0  0  0  0  0  0  0
  144.9023  142.0656  163.4168 H   0  0  0  0  0  0  0  0  0  0  0  0
  1  2  2  0  0  0  0
  2  3  1  0  0  0  0
  2 14  1  0  0  0  0
  3  4  1  0  0  0  0
  3 20  1  0  0  0  0
  4  5  1  0  0  0  0
  4 21  1  0  0  0  0
  4 22  1  0  0  0  0
  5  6  1  0  0  0  0
  5 23  1  0  0  0  0
  5 24  1  0  0  0  0
  6 12  1  0  0  0  0
  6  7  1  0  0  0  0
  7  8  1  0  0  0  0
  7 25  1  0  0  0  0
  7 26  1  0  0  0  0
  8  9  1  0  0  0  0
  8 27  1  0  0  0  0
  8 28  1  0  0  0  0
  9 10  1  0  0  0  0
  9 29  1  0  0  0  0
  9 30  1  0  0  0  0
 10 11  1  0  0  0  0
 10 31  1  0  0  0  0
 10 32  1  0  0  0  0
 11 12  1  0  0  0  0
 11 33  1  0  0  0  0
 11 34  1  0  0  0  0
 12 13  2  0  0  0  0
 14 15  1  0  0  0  0
 15 19  1  0  0  0  0
 15 16  2  0  0  0  0
 16 17  1  0  0  0  0
 17 18  2  0  0  0  0
 18 19  1  0  0  0  0
 18 35  1  0  0  0  0
M  CHG  1  14  -1
M  END
> <s_m_source_file>
AV-unprocessed.smi

> <i_m_source_file_index>
1624

> <i_lp_mmshare_version>
43012

> <i_f3d_flags>
0

> <s_epik_input>
czFbY0hdbm5jMVtOSF1DKD1PKVtOSF1bQ0gyXVtDSDJdTjJbQ0gyXVtDSDJdW0NIMl1bQ0gyXVtDSDJdQzI9Tw==

> <s_epik_cmdline>
J2VwaWtfcHl0aG9uJywgJy1waCcsICc3LjAnLCAnLXRuJywgJzgnLCAnLW1hJywgJzIwMCcsICctbWV0YWxfYmluZGluZycsICctaW1hZScsICc8aW5maWxlLm1hZT4nLCAnLW9tYWUnLCAnPG91dGZpbGUubWFlPic=

> <r_lp_tautomer_probability>
1

> <r_epik_Ionization_Penalty>
3.35684

> <r_epik_Ionization_Penalty_Charging>
3.31562

> <r_epik_Ionization_Penalty_Neutral>
0.0412242

> <r_epik_State_Penalty>
3.31341

> <r_epik_Charging_Adjusted_Penalty>
6.62903

> <i_epik_Tot_Q>
-1

> <i_epik_Tot_abs_Q>
1

> <r_epik_Metal_State_Penalty>
0.484053

> <b_epik_Metal_Only>
1

> <s_lp_Force_Field>
OPLS_2005

> <r_lp_Energy>
19.6576

> <b_lp_Chiralities_Consistent>
1

> <s_lp_Variant>
AV-unprocessed.smi:1624-2

> <Gold.Version>
5.8.1

> <Gold.Id.Protein>
6NUR|6NUR_protein|mol2

> <Gold.PLP.Fitness>
46.7769

> <Gold.PLP.PLP>
-45.6142

> <Gold.PLP.part.hbond>
-5.0477

> <Gold.PLP.part.metal>
0.0000

> <Gold.PLP.part.buried>
-6.4869

> <Gold.PLP.part.nonpolar>
-34.7804

> <Gold.PLP.part.repulsive>
0.7892

> <Gold.PLP.ligand.clash>
0.0000

> <Gold.PLP.ligand.torsion>
1.0515

> <Gold.PLP.Chemscore.Hbond>
1.0819

> <Gold.PLP.Chemscore.CHOScore>
0.0000

> <Gold.PLP.Chemscore.Metal>
0.0000

> <Gold.PLP.Chemscore.Internal.Correction>
0.0200

> <Gold.Rescore>
     Score         DG    S(hbond)    S(metal)    S(lipo)     H(rot)  DE(clash)    DE(int)     intcor
     12.21     -14.51       0.95        0.00      88.06       1.73       0.01       2.29       ----

> <Gold.Chemscore.Fitness>
12.2090

> <Gold.Chemscore.DG>
-14.5132

> <Gold.Chemscore.ZeroCoef>
-5.4800

> <Gold.Chemscore.Hbond>
0.9492

> <Gold.Chemscore.Metal>
0.0000

> <Gold.Chemscore.Lipo>
88.0635

> <Gold.Chemscore.Internal_Hbond>
0.0000

> <Gold.Chemscore.DEClash>
0.0117

> <Gold.Chemscore.DEInternal>
2.2924

> <Gold.Chemscore.Rot>
1.7346

> <Gold.Chemscore.Internal.Correction>
   9.000000E+99

> <Gold.Chemscore.Hbond.Weighted>
-3.1703

> <Gold.Chemscore.Metal.Weighted>
-0.0000

> <Gold.Chemscore.Lipo.Weighted>
-10.3034

> <Gold.Chemscore.Internal_Hbond.Weighted>
0.0000

> <Gold.Chemscore.DEClash.Weighted>
0.0117

> <Gold.Chemscore.DEInternal.Weighted>
2.2924

> <Gold.Chemscore.Rot.Weighted>
4.4406

> <Gold.Chemscore.Internal.Correction.Weighted>
   9.000000E+99

> <Gold.Protein.RotatedTorsions>
[ 6907 6896 6895 6894 ] final -117.87 input  -60.11 | X-H torsion
[ 7974 7965 7964 7962 ] final   -1.44 input  175.53 | X-H torsion
[ 8008 7997 7996 7995 ] final -108.74 input   59.86 | X-H torsion
[ 10167 10162 10161 10158 ] final   10.32 input  -65.29 | X-H torsion
[ 10718 10713 10712 10709 ] final    5.24 input   66.30 | X-H torsion
[ 10763 10752 10751 10750 ] final   17.97 input  -60.55 | X-H torsion
[ 11005 11000 10999 10996 ] final  -81.57 input  -57.11 | X-H torsion

> <Gold.Protein.ActiveResidues>
 VAL166  LYS551  ARG553  GLY616  TRP617  ASP618  TYR619  PRO620  LYS621  CYS622 
 ASP623  PHE694  ASN695  SER759  ASP760  ASP761  ALA762  ILE779  LEU786  VAL792 
 PHE793  MET794  SER795  GLU796  ALA797  LYS798  CYS799  TRP800  GLU811  SER814 

> <Gold.Protein.RotatedAtoms>
  150.8173  133.8315  159.3154 H   0  0  0  0  0  0  0  0  0  0  0  0  # atno 6907 bound_to 6896
  151.6084  135.1040  160.0085 H   0  0  0  0  0  0  0  0  0  0  0  0  # atno 6908 bound_to 6896
  152.4263  133.7161  159.6563 H   0  0  0  0  0  0  0  0  0  0  0  0  # atno 6909 bound_to 6896
  146.2417  140.1421  142.8335 H   0  0  0  0  0  0  0  0  0  0  0  0  # atno 7974 bound_to 7965
  154.9488  140.0401  157.2133 H   0  0  0  0  0  0  0  0  0  0  0  0  # atno 8008 bound_to 7997
  154.7998  140.2850  155.5907 H   0  0  0  0  0  0  0  0  0  0  0  0  # atno 8009 bound_to 7997
  156.2960  140.2557  156.2864 H   0  0  0  0  0  0  0  0  0  0  0  0  # atno 8010 bound_to 7997
  140.6201  143.8223  150.7165 H   0  0  0  0  0  0  0  0  0  0  0  0  # atno 10167 bound_to 10162
  156.9046  130.5734  149.5647 H   0  0  0  0  0  0  0  0  0  0  0  0  # atno 10718 bound_to 10713
  153.1291  135.6736  153.9208 H   0  0  0  0  0  0  0  0  0  0  0  0  # atno 10763 bound_to 10752
  153.8700  135.3071  155.3443 H   0  0  0  0  0  0  0  0  0  0  0  0  # atno 10764 bound_to 10752
  154.7691  135.4949  153.9694 H   0  0  0  0  0  0  0  0  0  0  0  0  # atno 10765 bound_to 10752
  141.1666  133.7203  156.8442 H   0  0  0  0  0  0  0  0  0  0  0  0  # atno 11005 bound_to 11000
  145.0238  140.8815  143.5151 LP  0  0  0  0  0  0  0  0  0  0  0  0  # atno 17320 bound_to 7965
  145.1474  139.2535  143.5459 LP  0  0  0  0  0  0  0  0  0  0  0  0  # atno 17321 bound_to 7965
  140.1811  143.4114  152.1932 LP  0  0  0  0  0  0  0  0  0  0  0  0  # atno 17342 bound_to 10162
  139.5431  144.7275  151.4669 LP  0  0  0  0  0  0  0  0  0  0  0  0  # atno 17343 bound_to 10162
  156.0565  130.5626  150.9103 LP  0  0  0  0  0  0  0  0  0  0  0  0  # atno 17370 bound_to 10713
  157.6005  131.0941  150.8968 LP  0  0  0  0  0  0  0  0  0  0  0  0  # atno 17371 bound_to 10713
  140.1962  134.8930  157.3117 LP  0  0  0  0  0  0  0  0  0  0  0  0  # atno 17394 bound_to 11000
  140.2237  134.3992  155.7554 LP  0  0  0  0  0  0  0  0  0  0  0  0  # atno 17395 bound_to 11000

$$$$
