AV-unprocessed.smi:3061|AV-procd|sdf|11681|dock7
  -GOLD-   2272017 83D 1   1.00000     0.00000
 Structure written by MMmdl.
 35 36  0  0  0  0  0  0  0  0  1 V2000
  146.8615  138.8661  153.0695 C   0  0  0  0  0  0  0  0  0  0  0  0
  147.0574  138.1343  154.4039 C   0  0  2  0  0  0  0  0  0  0  0  0
  147.5759  139.0902  155.4994 C   0  0  0  0  0  0  0  0  0  0  0  0
  149.0003  139.3520  155.3865 N   0  0  0  0  0  0  0  0  0  0  0  0
  149.7062  139.9027  154.3976 C   0  0  0  0  0  0  0  0  0  0  0  0
  151.0032  139.9986  154.6549 N   0  0  0  0  0  0  0  0  0  0  0  0
  151.0292  139.4486  155.9053 C   0  0  0  0  0  0  0  0  0  0  0  0
  149.8557  139.0409  156.3887 N   0  0  0  0  0  0  0  0  0  0  0  0
  147.9839  137.0203  154.2050 N   0  0  0  0  0  0  0  0  0  0  0  0
  148.2635  136.0656  155.1068 C   0  0  0  0  0  0  0  0  0  0  0  0
  147.7212  135.9966  156.2105 O   0  0  0  0  0  0  0  0  0  0  0  0
  149.3389  135.0431  154.7104 C   0  0  1  0  0  0  0  0  0  0  0  0
  150.3399  134.8150  155.8617 C   0  0  0  0  0  0  0  0  0  0  0  0
  150.0744  133.3850  156.3018 C   0  0  0  0  0  0  0  0  0  0  0  0
  150.6211  132.8738  157.2779 O   0  0  0  0  0  0  0  0  0  0  0  0
  149.1828  132.7960  155.5001 N   0  0  0  0  0  0  0  0  0  0  0  0
  148.6840  131.4345  155.6361 C   0  0  0  0  0  0  0  0  0  0  0  0
  148.7474  133.6489  154.4077 C   0  0  0  0  0  0  0  0  0  0  0  0
  146.1533  139.6885  153.1739 H   0  0  0  0  0  0  0  0  0  0  0  0
  146.4718  138.1922  152.3058 H   0  0  0  0  0  0  0  0  0  0  0  0
  147.8005  139.2808  152.7011 H   0  0  0  0  0  0  0  0  0  0  0  0
  146.0800  137.7550  154.7079 H   0  0  0  0  0  0  0  0  0  0  0  0
  147.0347  140.0376  155.4689 H   0  0  0  0  0  0  0  0  0  0  0  0
  147.3949  138.6609  156.4855 H   0  0  0  0  0  0  0  0  0  0  0  0
  149.2614  140.2486  153.4761 H   0  0  0  0  0  0  0  0  0  0  0  0
  151.9402  139.3444  156.4761 H   0  0  0  0  0  0  0  0  0  0  0  0
  148.4808  136.9964  153.3261 H   0  0  0  0  0  0  0  0  0  0  0  0
  149.8697  135.4090  153.8298 H   0  0  0  0  0  0  0  0  0  0  0  0
  151.3686  134.9028  155.5115 H   0  0  0  0  0  0  0  0  0  0  0  0
  150.2105  135.5020  156.6998 H   0  0  0  0  0  0  0  0  0  0  0  0
  149.5100  130.7230  155.6645 H   0  0  0  0  0  0  0  0  0  0  0  0
  148.0376  131.1678  154.7997 H   0  0  0  0  0  0  0  0  0  0  0  0
  148.1080  131.3308  156.5564 H   0  0  0  0  0  0  0  0  0  0  0  0
  147.6582  133.6515  154.3353 H   0  0  0  0  0  0  0  0  0  0  0  0
  149.1382  133.2589  153.4671 H   0  0  0  0  0  0  0  0  0  0  0  0
  1  2  1  0  0  0  0
  1 19  1  0  0  0  0
  1 20  1  0  0  0  0
  1 21  1  0  0  0  0
  2  3  1  0  0  0  0
  2  9  1  0  0  0  0
  2 22  1  0  0  0  0
  3  4  1  0  0  0  0
  3 23  1  0  0  0  0
  3 24  1  0  0  0  0
  4  8  1  0  0  0  0
  4  5  1  0  0  0  0
  5  6  2  0  0  0  0
  5 25  1  0  0  0  0
  6  7  1  0  0  0  0
  7  8  2  0  0  0  0
  7 26  1  0  0  0  0
  9 10  1  0  0  0  0
  9 27  1  0  0  0  0
 10 11  2  0  0  0  0
 10 12  1  0  0  0  0
 12 18  1  0  0  0  0
 12 13  1  0  0  0  0
 12 28  1  0  0  0  0
 13 14  1  0  0  0  0
 13 29  1  0  0  0  0
 13 30  1  0  0  0  0
 14 15  2  0  0  0  0
 14 16  1  0  0  0  0
 16 17  1  0  0  0  0
 16 18  1  0  0  0  0
 17 31  1  0  0  0  0
 17 32  1  0  0  0  0
 17 33  1  0  0  0  0
 18 34  1  0  0  0  0
 18 35  1  0  0  0  0
M  END
> <s_m_source_file>
AV-unprocessed.smi

> <i_m_source_file_index>
3061

> <i_lp_mmshare_version>
43012

> <i_f3d_flags>
0

> <s_epik_input>
bjFbY0hdbltjSF1uMVtDSDJdW0NAQEhdKFtDSDNdKVtOSF1DKD1PKVtDQEBIXTJbQ0gyXUMoPU8pTihbQ0gzXSlbQ0gyXTI=

> <s_epik_cmdline>
J2VwaWtfcHl0aG9uJywgJy1waCcsICc3LjAnLCAnLXRuJywgJzgnLCAnLW1hJywgJzIwMCcsICctbWV0YWxfYmluZGluZycsICctaW1hZScsICc8aW5maWxlLm1hZT4nLCAnLW9tYWUnLCAnPG91dGZpbGUubWFlPic=

> <r_lp_tautomer_probability>
1

> <r_epik_Ionization_Penalty>
4.97611e-05

> <r_epik_Ionization_Penalty_Charging>
0

> <r_epik_Ionization_Penalty_Neutral>
4.97611e-05

> <r_epik_State_Penalty>
-0

> <r_epik_Charging_Adjusted_Penalty>
0

> <i_epik_Tot_Q>
0

> <i_epik_Tot_abs_Q>
0

> <r_epik_Metal_State_Penalty>
-0

> <b_epik_Metal_Only>
0

> <s_lp_Force_Field>
OPLS_2005

> <r_lp_Energy>
12.1986

> <b_lp_Chiralities_Consistent>
1

> <s_lp_Variant>
AV-unprocessed.smi:3061-3

> <Gold.Version>
5.8.1

> <Gold.Id.Protein>
6NUR|6NUR_protein|mol2

> <Gold.PLP.Fitness>
33.3273

> <Gold.PLP.PLP>
-22.6292

> <Gold.PLP.part.hbond>
-3.0000

> <Gold.PLP.part.metal>
0.0000

> <Gold.PLP.part.buried>
-2.4360

> <Gold.PLP.part.nonpolar>
-18.0742

> <Gold.PLP.part.repulsive>
0.1017

> <Gold.PLP.ligand.clash>
0.0000

> <Gold.PLP.ligand.torsion>
0.5190

> <Gold.PLP.Chemscore.Hbond>
2.9040

> <Gold.PLP.Chemscore.CHOScore>
1.0000

> <Gold.PLP.Chemscore.Metal>
0.0000

> <Gold.Chemscore.Hbonds>
donor molecule, donor type, donor heavy atom, donor atom, acceptor molecule, acceptor atom, score
      L1  H     9    27       P1  7948  1.00
      P1  H  6896  6908       L1    15  0.78
      P1  H  7989  7998       L1     6  1.00
      L1  C     5    25       P1  7957  1.00

> <Gold.PLP.Chemscore.Internal.Correction>
0.0242

> <Gold.Rescore>
     Score         DG    S(hbond)    S(metal)    S(lipo)     H(rot)  DE(clash)    DE(int)     intcor
     11.50     -11.97       2.83        0.00      27.68       2.42       0.00       0.46       ----

> <Gold.Chemscore.Fitness>
11.5020

> <Gold.Chemscore.DG>
-11.9650

> <Gold.Chemscore.ZeroCoef>
-5.4800

> <Gold.Chemscore.Hbond>
2.8265

> <Gold.Chemscore.Metal>
0.0000

> <Gold.Chemscore.Lipo>
27.6833

> <Gold.Chemscore.Internal_Hbond>
0.0000

> <Gold.Chemscore.DEClash>
0.0048

> <Gold.Chemscore.DEInternal>
0.4582

> <Gold.Chemscore.Rot>
2.4197

> <Gold.Chemscore.Internal.Correction>
   9.000000E+99

> <Gold.Chemscore.Hbonds>
donor molecule, donor type, donor heavy atom, donor atom, acceptor molecule, acceptor atom, score
      L1  H     9    27       P1  7948  0.97
      P1  H  6896  6908       L1    15  0.73
      P1  H  7989  7998       L1     6  0.59

> <Gold.Chemscore.Hbond.Weighted>
-9.4406

> <Gold.Chemscore.Metal.Weighted>
-0.0000

> <Gold.Chemscore.Lipo.Weighted>
-3.2389

> <Gold.Chemscore.Internal_Hbond.Weighted>
0.0000

> <Gold.Chemscore.DEClash.Weighted>
0.0048

> <Gold.Chemscore.DEInternal.Weighted>
0.4582

> <Gold.Chemscore.Rot.Weighted>
6.1945

> <Gold.Chemscore.Internal.Correction.Weighted>
   9.000000E+99

> <Gold.Protein.RotatedTorsions>
[ 6907 6896 6895 6894 ] final   79.11 input  -60.11 | X-H torsion
[ 7974 7965 7964 7962 ] final  157.09 input  175.53 | X-H torsion
[ 8008 7997 7996 7995 ] final  -57.46 input   59.86 | X-H torsion
[ 10167 10162 10161 10158 ] final  101.29 input  -65.29 | X-H torsion
[ 10718 10713 10712 10709 ] final   15.30 input   66.30 | X-H torsion
[ 10763 10752 10751 10750 ] final  -89.58 input  -60.55 | X-H torsion
[ 11005 11000 10999 10996 ] final  -12.26 input  -57.11 | X-H torsion

> <Gold.Protein.ActiveResidues>
 VAL166  LYS551  ARG553  GLY616  TRP617  ASP618  TYR619  PRO620  LYS621  CYS622 
 ASP623  PHE694  ASN695  SER759  ASP760  ASP761  ALA762  ILE779  LEU786  VAL792 
 PHE793  MET794  SER795  GLU796  ALA797  LYS798  CYS799  TRP800  GLU811  SER814 

> <Gold.Protein.RotatedAtoms>
  152.5186  134.3561  159.9268 H   0  0  0  0  0  0  0  0  0  0  0  0  # atno 6907 bound_to 6896
  151.3513  133.3918  159.2688 H   0  0  0  0  0  0  0  0  0  0  0  0  # atno 6908 bound_to 6896
  150.9725  134.9114  159.7854 H   0  0  0  0  0  0  0  0  0  0  0  0  # atno 6909 bound_to 6896
  144.7924  139.7293  143.6216 H   0  0  0  0  0  0  0  0  0  0  0  0  # atno 7974 bound_to 7965
  154.4269  140.1106  156.5801 H   0  0  0  0  0  0  0  0  0  0  0  0  # atno 8008 bound_to 7997
  155.6122  140.3494  155.4607 H   0  0  0  0  0  0  0  0  0  0  0  0  # atno 8009 bound_to 7997
  156.0091  140.1215  157.0462 H   0  0  0  0  0  0  0  0  0  0  0  0  # atno 8010 bound_to 7997
  139.7451  144.7000  151.0516 H   0  0  0  0  0  0  0  0  0  0  0  0  # atno 10167 bound_to 10162
  157.0516  130.6272  149.5769 H   0  0  0  0  0  0  0  0  0  0  0  0  # atno 10718 bound_to 10713
  154.6568  135.5335  153.7968 H   0  0  0  0  0  0  0  0  0  0  0  0  # atno 10763 bound_to 10752
  153.0418  135.6496  154.0933 H   0  0  0  0  0  0  0  0  0  0  0  0  # atno 10764 bound_to 10752
  154.0846  135.2944  155.3263 H   0  0  0  0  0  0  0  0  0  0  0  0  # atno 10765 bound_to 10752
  140.7639  133.8493  155.9148 H   0  0  0  0  0  0  0  0  0  0  0  0  # atno 11005 bound_to 11000
  146.2180  139.5585  142.9637 LP  0  0  0  0  0  0  0  0  0  0  0  0  # atno 17320 bound_to 7965
  145.5760  141.0388  143.2148 LP  0  0  0  0  0  0  0  0  0  0  0  0  # atno 17321 bound_to 7965
  140.7791  143.4877  150.9934 LP  0  0  0  0  0  0  0  0  0  0  0  0  # atno 17342 bound_to 10162
  139.8565  143.7370  152.3175 LP  0  0  0  0  0  0  0  0  0  0  0  0  # atno 17343 bound_to 10162
  156.0006  130.5084  150.7648 LP  0  0  0  0  0  0  0  0  0  0  0  0  # atno 17370 bound_to 10713
  157.5026  131.0919  151.0296 LP  0  0  0  0  0  0  0  0  0  0  0  0  # atno 17371 bound_to 10713
  140.9638  134.1621  157.4633 LP  0  0  0  0  0  0  0  0  0  0  0  0  # atno 17394 bound_to 11000
  139.8766  134.9954  156.5742 LP  0  0  0  0  0  0  0  0  0  0  0  0  # atno 17395 bound_to 11000

$$$$
