AV-unprocessed.smi:2510|AV-procd|sdf|9871|dock6
  -GOLD-   2272013503D 1   1.00000     0.00000
 Structure written by MMmdl.
 48 49  0  0  0  0  0  0  0  0  1 V2000
  147.5070  136.6574  154.7442 C   0  0  0  0  0  0  0  0  0  0  0  0
  148.1971  138.0249  154.6398 C   0  0  0  0  0  0  0  0  0  0  0  0
  147.4497  139.0901  153.8073 C   0  0  0  0  0  0  0  0  0  0  0  0
  146.9374  138.4082  152.5006 C   0  0  0  0  0  0  0  0  0  0  0  0
  146.6451  139.3423  151.3132 C   0  0  0  0  0  0  0  0  0  0  0  0
  146.3990  139.8962  154.6252 C   0  0  2  0  0  0  0  0  0  0  0  0
  145.0138  139.4742  154.4478 N   0  0  0  0  0  0  0  0  0  0  0  0
  144.4808  138.3747  155.0005 C   0  0  0  0  0  0  0  0  0  0  0  0
  145.0929  137.6413  155.7767 O   0  0  0  0  0  0  0  0  0  0  0  0
  143.0451  138.0376  154.5984 C   0  0  0  0  0  0  0  0  0  0  0  0
  142.9834  136.6288  154.0709 C   0  0  0  0  0  0  0  0  0  0  0  0
  143.3166  136.1636  152.7636 C   0  0  0  0  0  0  0  0  0  0  0  0
  143.1025  134.8153  152.8186 C   0  0  0  0  0  0  0  0  0  0  0  0
  143.2724  133.7466  151.7932 C   0  0  0  0  0  0  0  0  0  0  0  0
  142.6579  134.5491  154.0929 N   0  0  0  0  0  0  0  0  0  0  0  0
  142.5792  135.6477  154.8660 N   0  0  0  0  0  0  0  0  0  0  0  0
  146.7635  141.1379  153.8047 C   0  0  1  0  0  0  0  0  0  0  0  0
  146.6203  142.5220  154.4249 C   0  0  0  0  0  0  0  0  0  0  0  0
  148.1468  140.4750  153.6480 C   0  0  1  0  0  0  0  0  0  0  0  0
  149.0180  140.7583  154.7395 O   0  0  0  0  0  0  0  0  0  0  0  0
  150.2994  140.1678  154.6015 C   0  0  0  0  0  0  0  0  0  0  0  0
  142.4087  133.6352  154.4443 H   0  0  0  0  0  0  0  0  0  0  0  0
  148.1798  135.9249  155.1901 H   0  0  0  0  0  0  0  0  0  0  0  0
  147.2119  136.2799  153.7651 H   0  0  0  0  0  0  0  0  0  0  0  0
  146.6233  136.7013  155.3791 H   0  0  0  0  0  0  0  0  0  0  0  0
  148.3968  138.3995  155.6442 H   0  0  0  0  0  0  0  0  0  0  0  0
  149.1860  137.8575  154.2118 H   0  0  0  0  0  0  0  0  0  0  0  0
  147.6408  137.6418  152.1725 H   0  0  0  0  0  0  0  0  0  0  0  0
  146.0118  137.8633  152.6796 H   0  0  0  0  0  0  0  0  0  0  0  0
  146.4556  138.7594  150.4117 H   0  0  0  0  0  0  0  0  0  0  0  0
  147.4667  140.0215  151.0964 H   0  0  0  0  0  0  0  0  0  0  0  0
  145.7545  139.9443  151.4917 H   0  0  0  0  0  0  0  0  0  0  0  0
  146.6809  140.0194  155.6742 H   0  0  0  0  0  0  0  0  0  0  0  0
  144.4405  140.0243  153.8249 H   0  0  0  0  0  0  0  0  0  0  0  0
  142.3919  138.1628  155.4632 H   0  0  0  0  0  0  0  0  0  0  0  0
  142.6967  138.7423  153.8423 H   0  0  0  0  0  0  0  0  0  0  0  0
  143.6693  136.7346  151.9176 H   0  0  0  0  0  0  0  0  0  0  0  0
  143.8693  134.1041  150.9539 H   0  0  0  0  0  0  0  0  0  0  0  0
  142.3052  133.4243  151.4071 H   0  0  0  0  0  0  0  0  0  0  0  0
  143.7757  132.8770  152.2166 H   0  0  0  0  0  0  0  0  0  0  0  0
  146.2532  141.1107  152.8396 H   0  0  0  0  0  0  0  0  0  0  0  0
  147.1051  142.5776  155.3998 H   0  0  0  0  0  0  0  0  0  0  0  0
  145.5708  142.7796  154.5677 H   0  0  0  0  0  0  0  0  0  0  0  0
  147.0630  143.2880  153.7886 H   0  0  0  0  0  0  0  0  0  0  0  0
  148.6188  140.6398  152.6798 H   0  0  0  0  0  0  0  0  0  0  0  0
  150.9272  140.4559  155.4445 H   0  0  0  0  0  0  0  0  0  0  0  0
  150.7960  140.4905  153.6866 H   0  0  0  0  0  0  0  0  0  0  0  0
  150.2276  139.0796  154.5935 H   0  0  0  0  0  0  0  0  0  0  0  0
  1  2  1  0  0  0  0
  1 23  1  0  0  0  0
  1 24  1  0  0  0  0
  1 25  1  0  0  0  0
  2  3  1  0  0  0  0
  2 26  1  0  0  0  0
  2 27  1  0  0  0  0
  3 19  1  0  0  0  0
  3  4  1  0  0  0  0
  3  6  1  0  0  0  0
  4  5  1  0  0  0  0
  4 28  1  0  0  0  0
  4 29  1  0  0  0  0
  5 30  1  0  0  0  0
  5 31  1  0  0  0  0
  5 32  1  0  0  0  0
  6  7  1  0  0  0  0
  6 17  1  0  0  0  0
  6 33  1  0  0  0  0
  7  8  1  0  0  0  0
  7 34  1  0  0  0  0
  8  9  2  0  0  0  0
  8 10  1  0  0  0  0
 10 11  1  0  0  0  0
 10 35  1  0  0  0  0
 10 36  1  0  0  0  0
 11 16  2  0  0  0  0
 11 12  1  0  0  0  0
 12 13  2  0  0  0  0
 12 37  1  0  0  0  0
 13 14  1  0  0  0  0
 13 15  1  0  0  0  0
 14 38  1  0  0  0  0
 14 39  1  0  0  0  0
 14 40  1  0  0  0  0
 15 22  1  0  0  0  0
 15 16  1  0  0  0  0
 17 18  1  0  0  0  0
 17 19  1  0  0  0  0
 17 41  1  0  0  0  0
 18 42  1  0  0  0  0
 18 43  1  0  0  0  0
 18 44  1  0  0  0  0
 19 20  1  0  0  0  0
 19 45  1  0  0  0  0
 20 21  1  0  0  0  0
 21 46  1  0  0  0  0
 21 47  1  0  0  0  0
 21 48  1  0  0  0  0
M  END
> <s_m_source_file>
AV-unprocessed.smi

> <i_m_source_file_index>
2510

> <i_lp_mmshare_version>
43012

> <i_f3d_flags>
0

> <s_epik_input>
W0NIM11PW0NAQEhdMVtDQEhdKFtDSDNdKVtDQEBIXShDMShbQ0gyXVtDSDNdKVtDSDJdW0NIM10pW05IXUMoPU8pW0NIMl1jMltjSF1jKFtDSDNdKVtuSF1uMg==

> <s_epik_cmdline>
J2VwaWtfcHl0aG9uJywgJy1waCcsICc3LjAnLCAnLXRuJywgJzgnLCAnLW1hJywgJzIwMCcsICctbWV0YWxfYmluZGluZycsICctaW1hZScsICc8aW5maWxlLm1hZT4nLCAnLW9tYWUnLCAnPG91dGZpbGUubWFlPic=

> <r_lp_tautomer_probability>
0.5

> <r_epik_Ionization_Penalty>
9.73156e-05

> <r_epik_Ionization_Penalty_Charging>
0

> <r_epik_Ionization_Penalty_Neutral>
9.73156e-05

> <r_epik_State_Penalty>
0.41068

> <r_epik_Charging_Adjusted_Penalty>
0.41068

> <i_epik_Tot_Q>
0

> <i_epik_Tot_abs_Q>
0

> <r_epik_Metal_State_Penalty>
0.410699

> <b_epik_Metal_Only>
0

> <s_lp_Force_Field>
OPLS_2005

> <r_lp_Energy>
28.8176

> <b_lp_Chiralities_Consistent>
1

> <s_lp_Variant>
AV-unprocessed.smi:2510-2

> <Gold.Version>
5.8.1

> <Gold.Id.Protein>
6NUR|6NUR_protein|mol2

> <Gold.PLP.Fitness>
32.6503

> <Gold.PLP.PLP>
-28.3625

> <Gold.PLP.part.hbond>
-2.4729

> <Gold.PLP.part.metal>
0.0000

> <Gold.PLP.part.buried>
1.5180

> <Gold.PLP.part.nonpolar>
-26.9600

> <Gold.PLP.part.repulsive>
0.2150

> <Gold.PLP.ligand.clash>
0.0000

> <Gold.PLP.ligand.torsion>
1.1820

> <Gold.PLP.Chemscore.Hbond>
1.9920

> <Gold.PLP.Chemscore.CHOScore>
0.0000

> <Gold.PLP.Chemscore.Metal>
0.0000

> <Gold.Chemscore.Hbonds>
donor molecule, donor type, donor heavy atom, donor atom, acceptor molecule, acceptor atom, score
      L1  H     7    34       P1 10175  1.00
      L1  H    15    22       P1 10957  1.00

> <Gold.PLP.Chemscore.Internal.Correction>
0.6757

> <Gold.Rescore>
     Score         DG    S(hbond)    S(metal)    S(lipo)     H(rot)  DE(clash)    DE(int)     intcor
     12.18     -15.92       1.99        0.00      72.00       1.81       0.34       3.40       ----

> <Gold.Chemscore.Fitness>
12.1773

> <Gold.Chemscore.DG>
-15.9205

> <Gold.Chemscore.ZeroCoef>
-5.4800

> <Gold.Chemscore.Hbond>
1.9913

> <Gold.Chemscore.Metal>
0.0000

> <Gold.Chemscore.Lipo>
71.9966

> <Gold.Chemscore.Internal_Hbond>
0.0000

> <Gold.Chemscore.DEClash>
0.3417

> <Gold.Chemscore.DEInternal>
3.4014

> <Gold.Chemscore.Rot>
1.8102

> <Gold.Chemscore.Internal.Correction>
   9.000000E+99

> <Gold.Chemscore.Hbonds>
donor molecule, donor type, donor heavy atom, donor atom, acceptor molecule, acceptor atom, score
      L1  H     7    34       P1 10175  0.98
      L1  H    15    22       P1 10957  0.99

> <Gold.Chemscore.Hbond.Weighted>
-6.6510

> <Gold.Chemscore.Metal.Weighted>
-0.0000

> <Gold.Chemscore.Lipo.Weighted>
-8.4236

> <Gold.Chemscore.Internal_Hbond.Weighted>
0.0000

> <Gold.Chemscore.DEClash.Weighted>
0.3417

> <Gold.Chemscore.DEInternal.Weighted>
3.4014

> <Gold.Chemscore.Rot.Weighted>
4.6341

> <Gold.Chemscore.Internal.Correction.Weighted>
   9.000000E+99

> <Gold.Protein.RotatedTorsions>
[ 6907 6896 6895 6894 ] final -179.18 input  -60.11 | X-H torsion
[ 7974 7965 7964 7962 ] final  -87.18 input  175.53 | X-H torsion
[ 8008 7997 7996 7995 ] final  168.63 input   59.86 | X-H torsion
[ 10167 10162 10161 10158 ] final  134.03 input  -65.29 | X-H torsion
[ 10718 10713 10712 10709 ] final   31.04 input   66.30 | X-H torsion
[ 10763 10752 10751 10750 ] final  119.18 input  -60.55 | X-H torsion
[ 11005 11000 10999 10996 ] final  -87.29 input  -57.11 | X-H torsion

> <Gold.Protein.ActiveResidues>
 VAL166  LYS551  ARG553  GLY616  TRP617  ASP618  TYR619  PRO620  LYS621  CYS622 
 ASP623  PHE694  ASN695  SER759  ASP760  ASP761  ALA762  ILE779  LEU786  VAL792 
 PHE793  MET794  SER795  GLU796  ALA797  LYS798  CYS799  TRP800  GLU811  SER814 

> <Gold.Protein.RotatedAtoms>
  151.6492  133.3322  159.3147 H   0  0  0  0  0  0  0  0  0  0  0  0  # atno 6907 bound_to 6896
  150.7968  134.7038  159.6574 H   0  0  0  0  0  0  0  0  0  0  0  0  # atno 6908 bound_to 6896
  152.4056  134.6216  160.0103 H   0  0  0  0  0  0  0  0  0  0  0  0  # atno 6909 bound_to 6896
  145.4699  140.9560  143.1922 H   0  0  0  0  0  0  0  0  0  0  0  0  # atno 7974 bound_to 7965
  156.1530  140.1585  156.8739 H   0  0  0  0  0  0  0  0  0  0  0  0  # atno 8008 bound_to 7997
  154.5088  140.0806  156.7985 H   0  0  0  0  0  0  0  0  0  0  0  0  # atno 8009 bound_to 7997
  155.3859  140.3407  155.4251 H   0  0  0  0  0  0  0  0  0  0  0  0  # atno 8010 bound_to 7997
  139.5272  144.6587  151.5081 H   0  0  0  0  0  0  0  0  0  0  0  0  # atno 10167 bound_to 10162
  157.2673  130.7190  149.6485 H   0  0  0  0  0  0  0  0  0  0  0  0  # atno 10718 bound_to 10713
  153.5790  135.3487  155.2867 H   0  0  0  0  0  0  0  0  0  0  0  0  # atno 10763 bound_to 10752
  154.8671  135.4177  154.2641 H   0  0  0  0  0  0  0  0  0  0  0  0  # atno 10764 bound_to 10752
  153.3424  135.7050  153.6926 H   0  0  0  0  0  0  0  0  0  0  0  0  # atno 10765 bound_to 10752
  141.1619  133.7503  156.9285 H   0  0  0  0  0  0  0  0  0  0  0  0  # atno 11005 bound_to 11000
  144.7951  139.6250  143.7096 LP  0  0  0  0  0  0  0  0  0  0  0  0  # atno 17320 bound_to 7965
  146.2402  139.5986  142.9496 LP  0  0  0  0  0  0  0  0  0  0  0  0  # atno 17321 bound_to 7965
  140.6425  143.8861  150.6705 LP  0  0  0  0  0  0  0  0  0  0  0  0  # atno 17342 bound_to 10162
  140.2200  143.3816  152.1650 LP  0  0  0  0  0  0  0  0  0  0  0  0  # atno 17343 bound_to 10162
  155.9663  130.4378  150.5193 LP  0  0  0  0  0  0  0  0  0  0  0  0  # atno 17370 bound_to 10713
  157.3110  131.0663  151.2001 LP  0  0  0  0  0  0  0  0  0  0  0  0  # atno 17371 bound_to 10713
  140.1403  134.9298  157.2457 LP  0  0  0  0  0  0  0  0  0  0  0  0  # atno 17394 bound_to 11000
  140.2845  134.3311  155.7333 LP  0  0  0  0  0  0  0  0  0  0  0  0  # atno 17395 bound_to 11000

$$$$
