AV-unprocessed.smi:2042|AV-procd|sdf|8295|dock1
  -GOLD-   2272010563D 1   1.00000     0.00000
 Structure written by MMmdl.
 30 31  0  0  0  0  0  0  0  0  1 V2000
  147.0579  133.0995  153.7313 O   0  0  0  0  0  0  0  0  0  0  0  0
  147.7299  132.4758  152.9134 C   0  0  0  0  0  0  0  0  0  0  0  0
  147.2836  132.0517  151.7145 N   0  0  0  0  0  0  0  0  0  0  0  0
  146.0151  132.2601  151.1078 C   0  0  0  0  0  0  0  0  0  0  0  0
  144.8725  132.7516  151.7852 C   0  0  0  0  0  0  0  0  0  0  0  0
  143.6780  132.9322  151.0612 C   0  0  0  0  0  0  0  0  0  0  0  0
  143.6697  132.6216  149.6877 C   0  0  0  0  0  0  0  0  0  0  0  0
  144.7534  132.1635  149.0268 N   0  0  0  0  0  0  0  0  0  0  0  0
  145.8951  131.9939  149.7273 C   0  0  0  0  0  0  0  0  0  0  0  0
  149.0022  132.1312  153.1822 N   0  0  0  0  0  0  0  0  0  0  0  0
  149.7902  132.4265  154.3799 C   0  0  1  0  0  0  0  0  0  0  0  0
  149.9317  133.9464  154.5853 C   0  0  0  0  0  0  0  0  0  0  0  0
  150.4393  134.2056  156.0092 C   0  0  0  0  0  0  0  0  0  0  0  0
  149.7775  132.8422  157.0405 S   0  0  0  0  0  0  0  0  0  0  0  0
  150.9010  132.1382  157.6772 O   0  0  0  0  0  0  0  0  0  0  0  0
  148.6413  133.3312  157.8361 O   0  0  0  0  0  0  0  0  0  0  0  0
  149.1431  131.8393  155.6448 C   0  0  0  0  0  0  0  0  0  0  0  0
  147.9228  131.4756  151.1868 H   0  0  0  0  0  0  0  0  0  0  0  0
  144.8874  133.0065  152.8331 H   0  0  0  0  0  0  0  0  0  0  0  0
  142.7891  133.3054  151.5478 H   0  0  0  0  0  0  0  0  0  0  0  0
  142.7702  132.7499  149.1037 H   0  0  0  0  0  0  0  0  0  0  0  0
  146.7426  131.6299  149.1646 H   0  0  0  0  0  0  0  0  0  0  0  0
  149.4694  131.5758  152.4799 H   0  0  0  0  0  0  0  0  0  0  0  0
  150.7980  132.0197  154.2772 H   0  0  0  0  0  0  0  0  0  0  0  0
  150.5874  134.3973  153.8396 H   0  0  0  0  0  0  0  0  0  0  0  0
  148.9537  134.4172  154.4739 H   0  0  0  0  0  0  0  0  0  0  0  0
  151.5278  134.1562  156.0462 H   0  0  0  0  0  0  0  0  0  0  0  0
  150.1207  135.1695  156.4062 H   0  0  0  0  0  0  0  0  0  0  0  0
  148.0583  131.9516  155.6222 H   0  0  0  0  0  0  0  0  0  0  0  0
  149.3804  130.7870  155.8016 H   0  0  0  0  0  0  0  0  0  0  0  0
  1  2  2  0  0  0  0
  2  3  1  0  0  0  0
  2 10  1  0  0  0  0
  3  4  1  0  0  0  0
  3 18  1  0  0  0  0
  4  9  1  0  0  0  0
  4  5  2  0  0  0  0
  5  6  1  0  0  0  0
  5 19  1  0  0  0  0
  6  7  2  0  0  0  0
  6 20  1  0  0  0  0
  7  8  1  0  0  0  0
  7 21  1  0  0  0  0
  8  9  2  0  0  0  0
  9 22  1  0  0  0  0
 10 11  1  0  0  0  0
 10 23  1  0  0  0  0
 11 17  1  0  0  0  0
 11 12  1  0  0  0  0
 11 24  1  0  0  0  0
 12 13  1  0  0  0  0
 12 25  1  0  0  0  0
 12 26  1  0  0  0  0
 13 14  1  0  0  0  0
 13 27  1  0  0  0  0
 13 28  1  0  0  0  0
 14 15  2  0  0  0  0
 14 16  2  0  0  0  0
 14 17  1  0  0  0  0
 17 29  1  0  0  0  0
 17 30  1  0  0  0  0
M  END
> <s_m_source_file>
AV-unprocessed.smi

> <i_m_source_file_index>
2042

> <i_lp_mmshare_version>
43012

> <i_f3d_flags>
0

> <s_epik_input>
Tz1TMSg9TylbQ0gyXVtDSDJdW0NASF0oW0NIMl0xKVtOSF1DKD1PKVtOSF1jMltjSF1bY0hdW2NIXW5bY0hdMg==

> <s_epik_cmdline>
J2VwaWtfcHl0aG9uJywgJy1waCcsICc3LjAnLCAnLXRuJywgJzgnLCAnLW1hJywgJzIwMCcsICctbWV0YWxfYmluZGluZycsICctaW1hZScsICc8aW5maWxlLm1hZT4nLCAnLW9tYWUnLCAnPG91dGZpbGUubWFlPic=

> <r_epik_Ionization_Penalty>
0.00421056

> <r_epik_Ionization_Penalty_Charging>
0

> <r_epik_Ionization_Penalty_Neutral>
0.00421056

> <r_epik_State_Penalty>
0.00300625

> <r_epik_Charging_Adjusted_Penalty>
0.00300625

> <i_epik_Tot_Q>
0

> <i_epik_Tot_abs_Q>
0

> <r_epik_Metal_State_Penalty>
-0

> <b_epik_Metal_Only>
0

> <s_lp_Force_Field>
OPLS_2005

> <r_lp_Energy>
18.6302

> <b_lp_Chiralities_Consistent>
1

> <s_lp_Variant>
AV-unprocessed.smi:2042-2

> <Gold.Version>
5.8.1

> <Gold.Id.Protein>
6NUR|6NUR_protein|mol2

> <Gold.PLP.Fitness>
41.4867

> <Gold.PLP.PLP>
-30.3159

> <Gold.PLP.part.hbond>
-3.2658

> <Gold.PLP.part.metal>
0.0000

> <Gold.PLP.part.buried>
-4.8234

> <Gold.PLP.part.nonpolar>
-23.5939

> <Gold.PLP.part.repulsive>
0.3099

> <Gold.PLP.ligand.clash>
0.0000

> <Gold.PLP.ligand.torsion>
0.0444

> <Gold.PLP.Chemscore.Hbond>
2.1344

> <Gold.PLP.Chemscore.CHOScore>
1.6186

> <Gold.PLP.Chemscore.Metal>
0.0000

> <Gold.Chemscore.Hbonds>
donor molecule, donor type, donor heavy atom, donor atom, acceptor molecule, acceptor atom, score
      L1  H     3    18       P1 10747  0.99
      L1  H    10    23       P1 10747  0.16
      P1  H  6896  6907       L1    15  0.59
      L1  C     7    21       P1 10186  0.92
      L1  C     9    22       P1 10747  0.77

> <Gold.PLP.Chemscore.Internal.Correction>
0.0005

> <Gold.Rescore>
     Score         DG    S(hbond)    S(metal)    S(lipo)     H(rot)  DE(clash)    DE(int)     intcor
     14.46     -16.55       1.80        0.00      65.06       1.00       0.05       2.05       ----

> <Gold.Chemscore.Fitness>
14.4628

> <Gold.Chemscore.DG>
-16.5547

> <Gold.Chemscore.ZeroCoef>
-5.4800

> <Gold.Chemscore.Hbond>
1.8033

> <Gold.Chemscore.Metal>
0.0000

> <Gold.Chemscore.Lipo>
65.0577

> <Gold.Chemscore.Internal_Hbond>
0.0000

> <Gold.Chemscore.DEClash>
0.0456

> <Gold.Chemscore.DEInternal>
2.0463

> <Gold.Chemscore.Rot>
1.0000

> <Gold.Chemscore.Internal.Correction>
   9.000000E+99

> <Gold.Chemscore.Hbonds>
donor molecule, donor type, donor heavy atom, donor atom, acceptor molecule, acceptor atom, score
      L1  H     3    18       P1 10747  0.92
      L1  H    10    23       P1 10747  0.03
      P1  H  6896  6907       L1    15  0.05

> <Gold.Chemscore.Hbond.Weighted>
-6.0230

> <Gold.Chemscore.Metal.Weighted>
-0.0000

> <Gold.Chemscore.Lipo.Weighted>
-7.6117

> <Gold.Chemscore.Internal_Hbond.Weighted>
0.0000

> <Gold.Chemscore.DEClash.Weighted>
0.0456

> <Gold.Chemscore.DEInternal.Weighted>
2.0463

> <Gold.Chemscore.Rot.Weighted>
2.5600

> <Gold.Chemscore.Internal.Correction.Weighted>
   9.000000E+99

> <Gold.Protein.RotatedTorsions>
[ 6907 6896 6895 6894 ] final -139.58 input  -60.11 | X-H torsion
[ 7974 7965 7964 7962 ] final  -95.65 input  175.53 | X-H torsion
[ 8008 7997 7996 7995 ] final  150.12 input   59.86 | X-H torsion
[ 10167 10162 10161 10158 ] final   91.86 input  -65.29 | X-H torsion
[ 10718 10713 10712 10709 ] final  -83.83 input   66.30 | X-H torsion
[ 10763 10752 10751 10750 ] final -143.90 input  -60.55 | X-H torsion
[ 11005 11000 10999 10996 ] final  -54.97 input  -57.11 | X-H torsion

> <Gold.Protein.ActiveResidues>
 VAL166  LYS551  ARG553  GLY616  TRP617  ASP618  TYR619  PRO620  LYS621  CYS622 
 ASP623  PHE694  ASN695  SER759  ASP760  ASP761  ALA762  ILE779  LEU786  VAL792 
 PHE793  MET794  SER795  GLU796  ALA797  LYS798  CYS799  TRP800  GLU811  SER814 

> <Gold.Protein.RotatedAtoms>
  151.0497  133.5635  159.2643 H   0  0  0  0  0  0  0  0  0  0  0  0  # atno 6907 bound_to 6896
  151.2651  135.0665  159.9122 H   0  0  0  0  0  0  0  0  0  0  0  0  # atno 6908 bound_to 6896
  152.5379  134.0236  159.8047 H   0  0  0  0  0  0  0  0  0  0  0  0  # atno 6909 bound_to 6896
  145.3573  140.9486  143.2520 H   0  0  0  0  0  0  0  0  0  0  0  0  # atno 7974 bound_to 7965
  156.2728  140.2083  156.5967 H   0  0  0  0  0  0  0  0  0  0  0  0  # atno 8008 bound_to 7997
  154.6939  140.0527  157.0414 H   0  0  0  0  0  0  0  0  0  0  0  0  # atno 8009 bound_to 7997
  155.0828  140.3188  155.4599 H   0  0  0  0  0  0  0  0  0  0  0  0  # atno 8010 bound_to 7997
  139.8333  144.6677  150.9373 H   0  0  0  0  0  0  0  0  0  0  0  0  # atno 10167 bound_to 10162
  156.0013  130.4678  150.4317 H   0  0  0  0  0  0  0  0  0  0  0  0  # atno 10718 bound_to 10713
  154.8451  135.3455  154.6261 H   0  0  0  0  0  0  0  0  0  0  0  0  # atno 10763 bound_to 10752
  153.6870  135.6977  153.5105 H   0  0  0  0  0  0  0  0  0  0  0  0  # atno 10764 bound_to 10752
  153.2624  135.4318  155.0863 H   0  0  0  0  0  0  0  0  0  0  0  0  # atno 10765 bound_to 10752
  141.1052  133.6614  156.4400 H   0  0  0  0  0  0  0  0  0  0  0  0  # atno 11005 bound_to 11000
  144.8672  139.5090  143.6784 LP  0  0  0  0  0  0  0  0  0  0  0  0  # atno 17320 bound_to 7965
  146.2942  139.7229  142.9138 LP  0  0  0  0  0  0  0  0  0  0  0  0  # atno 17321 bound_to 7965
  140.7805  143.3980  151.1196 LP  0  0  0  0  0  0  0  0  0  0  0  0  # atno 17342 bound_to 10162
  139.7632  143.8603  152.3105 LP  0  0  0  0  0  0  0  0  0  0  0  0  # atno 17343 bound_to 10162
  157.2366  131.0516  151.2461 LP  0  0  0  0  0  0  0  0  0  0  0  0  # atno 17370 bound_to 10713
  157.3661  130.7156  149.6533 LP  0  0  0  0  0  0  0  0  0  0  0  0  # atno 17371 bound_to 10713
  140.4921  134.6565  157.5215 LP  0  0  0  0  0  0  0  0  0  0  0  0  # atno 17394 bound_to 11000
  139.9919  134.6972  155.9676 LP  0  0  0  0  0  0  0  0  0  0  0  0  # atno 17395 bound_to 11000

$$$$
