AV-unprocessed.smi:2489|AV-procd|sdf|9798|dock4
  -GOLD-   2272013433D 1   1.00000     0.00000
 Structure written by MMmdl.
 33 34  0  0  0  0  0  0  0  0  1 V2000
  152.4671  143.1623  161.9738 C   0  0  0  0  0  0  0  0  0  0  0  0
  151.8373  142.6404  160.8131 O   0  0  0  0  0  0  0  0  0  0  0  0
  152.5014  141.6619  160.1057 C   0  0  0  0  0  0  0  0  0  0  0  0
  153.7572  141.1212  160.4702 C   0  0  0  0  0  0  0  0  0  0  0  0
  154.3200  140.1239  159.6530 C   0  0  0  0  0  0  0  0  0  0  0  0
  153.7236  139.6554  158.5381 N   0  0  0  0  0  0  0  0  0  0  0  0
  152.5208  140.1619  158.1733 C   0  0  0  0  0  0  0  0  0  0  0  0
  151.8069  139.7446  157.0192 N   0  0  0  0  0  0  0  0  0  0  0  0
  152.2781  139.1265  155.9188 C   0  0  0  0  0  0  0  0  0  0  0  0
  153.4620  138.8398  155.7380 O   0  0  0  0  0  0  0  0  0  0  0  0
  151.2481  138.7955  154.8236 C   0  0  1  0  0  0  0  0  0  0  0  0
  150.1097  137.8745  155.3086 C   0  0  0  0  0  0  0  0  0  0  0  0
  148.8440  138.6523  154.9955 C   0  0  0  0  0  0  0  0  0  0  0  0
  149.3320  140.0956  154.9979 C   0  0  2  0  0  0  0  0  0  0  0  0
  148.4303  141.0674  154.2301 C   0  0  0  0  0  0  0  0  0  0  0  0
  150.6008  139.9876  154.3708 O   0  0  0  0  0  0  0  0  0  0  0  0
  151.8862  141.1658  158.9382 C   0  0  0  0  0  0  0  0  0  0  0  0
  151.8257  143.9215  162.4210 H   0  0  0  0  0  0  0  0  0  0  0  0
  153.4195  143.6361  161.7317 H   0  0  0  0  0  0  0  0  0  0  0  0
  152.6300  142.3856  162.7223 H   0  0  0  0  0  0  0  0  0  0  0  0
  154.2943  141.4461  161.3483 H   0  0  0  0  0  0  0  0  0  0  0  0
  155.2769  139.6898  159.9016 H   0  0  0  0  0  0  0  0  0  0  0  0
  150.8133  139.9242  157.0315 H   0  0  0  0  0  0  0  0  0  0  0  0
  151.7738  138.3479  153.9797 H   0  0  0  0  0  0  0  0  0  0  0  0
  150.1214  136.9076  154.8047 H   0  0  0  0  0  0  0  0  0  0  0  0
  150.1644  137.6842  156.3817 H   0  0  0  0  0  0  0  0  0  0  0  0
  148.4794  138.3778  154.0045 H   0  0  0  0  0  0  0  0  0  0  0  0
  148.0436  138.4718  155.7138 H   0  0  0  0  0  0  0  0  0  0  0  0
  149.4721  140.4419  156.0235 H   0  0  0  0  0  0  0  0  0  0  0  0
  147.4434  141.1301  154.6889 H   0  0  0  0  0  0  0  0  0  0  0  0
  148.2999  140.7529  153.1941 H   0  0  0  0  0  0  0  0  0  0  0  0
  148.8583  142.0699  154.2221 H   0  0  0  0  0  0  0  0  0  0  0  0
  150.9269  141.5588  158.6339 H   0  0  0  0  0  0  0  0  0  0  0  0
  1  2  1  0  0  0  0
  1 18  1  0  0  0  0
  1 19  1  0  0  0  0
  1 20  1  0  0  0  0
  2  3  1  0  0  0  0
  3 17  1  0  0  0  0
  3  4  2  0  0  0  0
  4  5  1  0  0  0  0
  4 21  1  0  0  0  0
  5  6  2  0  0  0  0
  5 22  1  0  0  0  0
  6  7  1  0  0  0  0
  7  8  1  0  0  0  0
  7 17  2  0  0  0  0
  8  9  1  0  0  0  0
  8 23  1  0  0  0  0
  9 10  2  0  0  0  0
  9 11  1  0  0  0  0
 11 16  1  0  0  0  0
 11 12  1  0  0  0  0
 11 24  1  0  0  0  0
 12 13  1  0  0  0  0
 12 25  1  0  0  0  0
 12 26  1  0  0  0  0
 13 14  1  0  0  0  0
 13 27  1  0  0  0  0
 13 28  1  0  0  0  0
 14 15  1  0  0  0  0
 14 16  1  0  0  0  0
 14 29  1  0  0  0  0
 15 30  1  0  0  0  0
 15 31  1  0  0  0  0
 15 32  1  0  0  0  0
 17 33  1  0  0  0  0
M  END
> <s_m_source_file>
AV-unprocessed.smi

> <i_m_source_file_index>
2489

> <i_lp_mmshare_version>
43012

> <i_f3d_flags>
0

> <s_epik_input>
W0NIM11PYzFbY0hdW2NIXW5jKFtjSF0xKVtOSF1DKD1PKVtDQEBIXTJbQ0gyXVtDSDJdW0NASF0oTzIpW0NIM10=

> <s_epik_cmdline>
J2VwaWtfcHl0aG9uJywgJy1waCcsICc3LjAnLCAnLXRuJywgJzgnLCAnLW1hJywgJzIwMCcsICctbWV0YWxfYmluZGluZycsICctaW1hZScsICc8aW5maWxlLm1hZT4nLCAnLW9tYWUnLCAnPG91dGZpbGUubWFlPic=

> <r_epik_Ionization_Penalty>
0.0871917

> <r_epik_Ionization_Penalty_Charging>
0

> <r_epik_Ionization_Penalty_Neutral>
0.0871917

> <r_epik_State_Penalty>
0.146479

> <r_epik_Charging_Adjusted_Penalty>
0.146479

> <i_epik_Tot_Q>
0

> <i_epik_Tot_abs_Q>
0

> <r_epik_Metal_State_Penalty>
0.067489

> <b_epik_Metal_Only>
0

> <s_lp_Force_Field>
OPLS_2005

> <r_lp_Energy>
22.8638

> <b_lp_Chiralities_Consistent>
1

> <s_lp_Variant>
AV-unprocessed.smi:2489-4

> <Gold.Version>
5.8.1

> <Gold.Id.Protein>
6NUR|6NUR_protein|mol2

> <Gold.PLP.Fitness>
42.1275

> <Gold.PLP.PLP>
-35.1632

> <Gold.PLP.part.hbond>
-3.6325

> <Gold.PLP.part.metal>
0.0000

> <Gold.PLP.part.buried>
-5.9878

> <Gold.PLP.part.nonpolar>
-26.7646

> <Gold.PLP.part.repulsive>
0.2753

> <Gold.PLP.ligand.clash>
0.0000

> <Gold.PLP.ligand.torsion>
0.1000

> <Gold.PLP.Chemscore.Hbond>
2.3857

> <Gold.PLP.Chemscore.CHOScore>
0.0000

> <Gold.PLP.Chemscore.Metal>
0.0000

> <Gold.Chemscore.Hbonds>
donor molecule, donor type, donor heavy atom, donor atom, acceptor molecule, acceptor atom, score
      P1  H  7989  7998       L1    16  1.00
      P1  H  7997  8009       L1     6  0.87
      P1  H  7997  8010       L1    10  0.53

> <Gold.PLP.Chemscore.Internal.Correction>
0.0074

> <Gold.Rescore>
     Score         DG    S(hbond)    S(metal)    S(lipo)     H(rot)  DE(clash)    DE(int)     intcor
     16.15     -17.49       1.86        0.00      76.50       1.23       0.02       1.32       ----

> <Gold.Chemscore.Fitness>
16.1509

> <Gold.Chemscore.DG>
-17.4893

> <Gold.Chemscore.ZeroCoef>
-5.4800

> <Gold.Chemscore.Hbond>
1.8557

> <Gold.Chemscore.Metal>
0.0000

> <Gold.Chemscore.Lipo>
76.5034

> <Gold.Chemscore.Internal_Hbond>
0.0000

> <Gold.Chemscore.DEClash>
0.0226

> <Gold.Chemscore.DEInternal>
1.3159

> <Gold.Chemscore.Rot>
1.2264

> <Gold.Chemscore.Internal.Correction>
   9.000000E+99

> <Gold.Chemscore.Hbonds>
donor molecule, donor type, donor heavy atom, donor atom, acceptor molecule, acceptor atom, score
      P1  H  7989  7998       L1    16  0.74
      P1  H  7997  8009       L1     6  0.16
      P1  H  7997  8010       L1    10  0.51

> <Gold.Chemscore.Hbond.Weighted>
-6.1980

> <Gold.Chemscore.Metal.Weighted>
-0.0000

> <Gold.Chemscore.Lipo.Weighted>
-8.9509

> <Gold.Chemscore.Internal_Hbond.Weighted>
0.0000

> <Gold.Chemscore.DEClash.Weighted>
0.0226

> <Gold.Chemscore.DEInternal.Weighted>
1.3159

> <Gold.Chemscore.Rot.Weighted>
3.1396

> <Gold.Chemscore.Internal.Correction.Weighted>
   9.000000E+99

> <Gold.Protein.RotatedTorsions>
[ 6907 6896 6895 6894 ] final  -52.35 input  -60.11 | X-H torsion
[ 7974 7965 7964 7962 ] final -121.61 input  175.53 | X-H torsion
[ 8008 7997 7996 7995 ] final  122.02 input   59.86 | X-H torsion
[ 10167 10162 10161 10158 ] final   71.10 input  -65.29 | X-H torsion
[ 10718 10713 10712 10709 ] final  -11.53 input   66.30 | X-H torsion
[ 10763 10752 10751 10750 ] final  -32.81 input  -60.55 | X-H torsion
[ 11005 11000 10999 10996 ] final   44.93 input  -57.11 | X-H torsion

> <Gold.Protein.ActiveResidues>
 VAL166  LYS551  ARG553  GLY616  TRP617  ASP618  TYR619  PRO620  LYS621  CYS622 
 ASP623  PHE694  ASN695  SER759  ASP760  ASP761  ALA762  ILE779  LEU786  VAL792 
 PHE793  MET794  SER795  GLU796  ALA797  LYS798  CYS799  TRP800  GLU811  SER814 

> <Gold.Protein.RotatedAtoms>
  150.8526  134.7856  159.7020 H   0  0  0  0  0  0  0  0  0  0  0  0  # atno 6907 bound_to 6896
  152.4587  134.5231  159.9798 H   0  0  0  0  0  0  0  0  0  0  0  0  # atno 6908 bound_to 6896
  151.5349  133.3404  159.2960 H   0  0  0  0  0  0  0  0  0  0  0  0  # atno 6909 bound_to 6896
  145.0385  140.8125  143.4280 H   0  0  0  0  0  0  0  0  0  0  0  0  # atno 7974 bound_to 7965
  156.2711  140.2795  156.1401 H   0  0  0  0  0  0  0  0  0  0  0  0  # atno 8008 bound_to 7997
  155.0962  140.0389  157.2701 H   0  0  0  0  0  0  0  0  0  0  0  0  # atno 8009 bound_to 7997
  154.6850  140.2617  155.6875 H   0  0  0  0  0  0  0  0  0  0  0  0  # atno 8010 bound_to 7997
  140.0498  144.5321  150.7372 H   0  0  0  0  0  0  0  0  0  0  0  0  # atno 10167 bound_to 10162
  156.6577  130.4973  149.6041 H   0  0  0  0  0  0  0  0  0  0  0  0  # atno 10718 bound_to 10713
  153.8199  135.6875  153.4828 H   0  0  0  0  0  0  0  0  0  0  0  0  # atno 10763 bound_to 10752
  153.1575  135.4593  154.9724 H   0  0  0  0  0  0  0  0  0  0  0  0  # atno 10764 bound_to 10752
  154.7932  135.3309  154.7672 H   0  0  0  0  0  0  0  0  0  0  0  0  # atno 10765 bound_to 10752
  140.1506  134.4466  155.8384 H   0  0  0  0  0  0  0  0  0  0  0  0  # atno 11005 bound_to 11000
  145.1678  139.2421  143.5358 LP  0  0  0  0  0  0  0  0  0  0  0  0  # atno 17320 bound_to 7965
  146.3507  140.1422  142.8594 LP  0  0  0  0  0  0  0  0  0  0  0  0  # atno 17321 bound_to 7965
  140.7222  143.2600  151.4240 LP  0  0  0  0  0  0  0  0  0  0  0  0  # atno 17342 bound_to 10162
  139.5960  144.1395  152.2145 LP  0  0  0  0  0  0  0  0  0  0  0  0  # atno 17343 bound_to 10162
  156.2035  130.6634  151.1193 LP  0  0  0  0  0  0  0  0  0  0  0  0  # atno 17370 bound_to 10713
  157.7120  131.0729  150.6466 LP  0  0  0  0  0  0  0  0  0  0  0  0  # atno 17371 bound_to 10713
  141.2198  133.6871  156.7415 LP  0  0  0  0  0  0  0  0  0  0  0  0  # atno 17394 bound_to 11000
  140.2609  134.8467  157.3757 LP  0  0  0  0  0  0  0  0  0  0  0  0  # atno 17395 bound_to 11000

$$$$
