AV-unprocessed.smi:2277|AV-procd|sdf|9178|dock7
  -GOLD-   2272012393D 1   1.00000     0.00000
 Structure written by MMmdl.
 37 38  0  0  0  0  0  0  0  0  1 V2000
  153.1672  143.0071  162.5119 C   0  0  0  0  0  0  0  0  0  0  0  0
  152.4505  142.9953  161.1780 C   0  0  0  0  0  0  0  0  0  0  0  0
  152.7852  142.0640  160.1766 C   0  0  0  0  0  0  0  0  0  0  0  0
  152.0847  142.0998  158.9554 C   0  0  0  0  0  0  0  0  0  0  0  0
  151.0687  143.0631  158.7638 C   0  0  0  0  0  0  0  0  0  0  0  0
  150.4231  143.0129  157.4997 N   0  0  0  0  0  0  0  0  0  0  0  0
  150.3680  141.9842  156.6354 C   0  0  0  0  0  0  0  0  0  0  0  0
  150.8702  140.8743  156.8140 O   0  0  0  0  0  0  0  0  0  0  0  0
  149.6923  142.3177  155.5251 N   0  0  0  0  0  0  0  0  0  0  0  0
  149.4520  141.4325  154.3844 C   0  0  0  0  0  0  0  0  0  0  0  0
  148.3953  140.3403  154.6189 C   0  0  0  0  0  0  0  0  0  0  0  0
  147.7035  140.3876  155.6352 O   0  0  0  0  0  0  0  0  0  0  0  0
  148.2655  139.3703  153.6995 N   0  0  0  0  0  0  0  0  0  0  0  0
  147.3282  138.2616  153.7884 C   0  0  0  0  0  0  0  0  0  0  0  0
  146.2094  138.3240  152.7704 C   0  0  0  0  0  0  0  0  0  0  0  0
  145.9204  137.1435  151.8733 C   0  0  0  0  0  0  0  0  0  0  0  0
  146.5073  138.4081  151.2918 C   0  0  0  0  0  0  0  0  0  0  0  0
  150.7533  143.9556  159.7353 N   0  0  0  0  0  0  0  0  0  0  0  0
  151.4251  143.9210  160.9052 C   0  0  0  0  0  0  0  0  0  0  0  0
  153.9514  142.2503  162.5480 H   0  0  0  0  0  0  0  0  0  0  0  0
  152.4634  142.8085  163.3204 H   0  0  0  0  0  0  0  0  0  0  0  0
  153.6253  143.9811  162.6861 H   0  0  0  0  0  0  0  0  0  0  0  0
  153.5641  141.3329  160.3369 H   0  0  0  0  0  0  0  0  0  0  0  0
  152.3288  141.3925  158.1761 H   0  0  0  0  0  0  0  0  0  0  0  0
  149.9554  143.8615  157.2180 H   0  0  0  0  0  0  0  0  0  0  0  0
  149.3136  143.2511  155.4603 H   0  0  0  0  0  0  0  0  0  0  0  0
  149.1677  142.0198  153.5096 H   0  0  0  0  0  0  0  0  0  0  0  0
  150.3946  140.9456  154.1333 H   0  0  0  0  0  0  0  0  0  0  0  0
  148.8739  139.3935  152.8941 H   0  0  0  0  0  0  0  0  0  0  0  0
  147.8686  137.3204  153.6721 H   0  0  0  0  0  0  0  0  0  0  0  0
  146.8846  138.2519  154.7850 H   0  0  0  0  0  0  0  0  0  0  0  0
  145.3355  138.8738  153.1152 H   0  0  0  0  0  0  0  0  0  0  0  0
  146.5735  136.2762  151.9486 H   0  0  0  0  0  0  0  0  0  0  0  0
  144.8781  136.9246  151.6507 H   0  0  0  0  0  0  0  0  0  0  0  0
  145.8562  139.0331  150.6844 H   0  0  0  0  0  0  0  0  0  0  0  0
  147.5505  138.3821  150.9823 H   0  0  0  0  0  0  0  0  0  0  0  0
  151.1346  144.6535  161.6440 H   0  0  0  0  0  0  0  0  0  0  0  0
  1  2  1  0  0  0  0
  1 20  1  0  0  0  0
  1 21  1  0  0  0  0
  1 22  1  0  0  0  0
  2 19  1  0  0  0  0
  2  3  2  0  0  0  0
  3  4  1  0  0  0  0
  3 23  1  0  0  0  0
  4  5  2  0  0  0  0
  4 24  1  0  0  0  0
  5  6  1  0  0  0  0
  5 18  1  0  0  0  0
  6  7  1  0  0  0  0
  6 25  1  0  0  0  0
  7  8  2  0  0  0  0
  7  9  1  0  0  0  0
  9 10  1  0  0  0  0
  9 26  1  0  0  0  0
 10 11  1  0  0  0  0
 10 27  1  0  0  0  0
 10 28  1  0  0  0  0
 11 12  2  0  0  0  0
 11 13  1  0  0  0  0
 13 14  1  0  0  0  0
 13 29  1  0  0  0  0
 14 15  1  0  0  0  0
 14 30  1  0  0  0  0
 14 31  1  0  0  0  0
 15 17  1  0  0  0  0
 15 16  1  0  0  0  0
 15 32  1  0  0  0  0
 16 17  1  0  0  0  0
 16 33  1  0  0  0  0
 16 34  1  0  0  0  0
 17 35  1  0  0  0  0
 17 36  1  0  0  0  0
 18 19  2  0  0  0  0
 19 37  1  0  0  0  0
M  END
> <s_m_source_file>
AV-unprocessed.smi

> <i_m_source_file_index>
2277

> <i_lp_mmshare_version>
43012

> <i_f3d_flags>
0

> <s_epik_input>
W0NIM11jMVtjSF1bY0hdYyhuW2NIXTEpW05IXUMoPU8pW05IXVtDSDJdQyg9TylbTkhdW0NIMl1bQ0hdMltDSDJdW0NIMl0y

> <s_epik_cmdline>
J2VwaWtfcHl0aG9uJywgJy1waCcsICc3LjAnLCAnLXRuJywgJzgnLCAnLW1hJywgJzIwMCcsICctbWV0YWxfYmluZGluZycsICctaW1hZScsICc8aW5maWxlLm1hZT4nLCAnLW9tYWUnLCAnPG91dGZpbGUubWFlPic=

> <r_lp_tautomer_probability>
1

> <r_epik_Ionization_Penalty>
4.99402e-05

> <r_epik_Ionization_Penalty_Charging>
0

> <r_epik_Ionization_Penalty_Neutral>
4.99402e-05

> <r_epik_State_Penalty>
-0

> <r_epik_Charging_Adjusted_Penalty>
0

> <i_epik_Tot_Q>
0

> <i_epik_Tot_abs_Q>
0

> <r_epik_Metal_State_Penalty>
-0

> <b_epik_Metal_Only>
0

> <s_lp_Force_Field>
OPLS_2005

> <r_lp_Energy>
11.1939

> <b_lp_Chiralities_Consistent>
1

> <s_lp_Variant>
AV-unprocessed.smi:2277-1

> <Gold.Version>
5.8.1

> <Gold.Id.Protein>
6NUR|6NUR_protein|mol2

> <Gold.PLP.Fitness>
42.7834

> <Gold.PLP.PLP>
-35.0988

> <Gold.PLP.part.hbond>
-3.0000

> <Gold.PLP.part.metal>
0.0000

> <Gold.PLP.part.buried>
0.9936

> <Gold.PLP.part.nonpolar>
-32.7345

> <Gold.PLP.part.repulsive>
0.3984

> <Gold.PLP.ligand.clash>
0.0013

> <Gold.PLP.ligand.torsion>
0.6763

> <Gold.PLP.Chemscore.Hbond>
2.8294

> <Gold.PLP.Chemscore.CHOScore>
0.0000

> <Gold.PLP.Chemscore.Metal>
0.0000

> <Gold.Chemscore.Hbonds>
donor molecule, donor type, donor heavy atom, donor atom, acceptor molecule, acceptor atom, score
      L1  H     6    25       P1  8028  0.82
      L1  H     9    26       P1  8028  1.00
      L1  H    13    29       P1  7957  1.00

> <Gold.PLP.Chemscore.Internal.Correction>
0.5503

> <Gold.Rescore>
     Score         DG    S(hbond)    S(metal)    S(lipo)     H(rot)  DE(clash)    DE(int)     intcor
     17.67     -21.03       2.87        0.00      90.47       1.81       1.27       2.09       ----

> <Gold.Chemscore.Fitness>
17.6683

> <Gold.Chemscore.DG>
-21.0339

> <Gold.Chemscore.ZeroCoef>
-5.4800

> <Gold.Chemscore.Hbond>
2.8719

> <Gold.Chemscore.Metal>
0.0000

> <Gold.Chemscore.Lipo>
90.4674

> <Gold.Chemscore.Internal_Hbond>
0.0000

> <Gold.Chemscore.DEClash>
1.2718

> <Gold.Chemscore.DEInternal>
2.0938

> <Gold.Chemscore.Rot>
1.8058

> <Gold.Chemscore.Internal.Correction>
   9.000000E+99

> <Gold.Chemscore.Hbonds>
donor molecule, donor type, donor heavy atom, donor atom, acceptor molecule, acceptor atom, score
      L1  H     6    25       P1  8028  0.68
      L1  H     9    26       P1  8028  0.94
      L1  H    13    29       P1  7957  0.97

> <Gold.Chemscore.Hbond.Weighted>
-9.5922

> <Gold.Chemscore.Metal.Weighted>
-0.0000

> <Gold.Chemscore.Lipo.Weighted>
-10.5847

> <Gold.Chemscore.Internal_Hbond.Weighted>
0.0000

> <Gold.Chemscore.DEClash.Weighted>
1.2718

> <Gold.Chemscore.DEInternal.Weighted>
2.0938

> <Gold.Chemscore.Rot.Weighted>
4.6230

> <Gold.Chemscore.Internal.Correction.Weighted>
   9.000000E+99

> <Gold.Protein.RotatedTorsions>
[ 6907 6896 6895 6894 ] final  -36.03 input  -60.11 | X-H torsion
[ 7974 7965 7964 7962 ] final  -85.92 input  175.53 | X-H torsion
[ 8008 7997 7996 7995 ] final -157.50 input   59.86 | X-H torsion
[ 10167 10162 10161 10158 ] final -170.60 input  -65.29 | X-H torsion
[ 10718 10713 10712 10709 ] final  -19.43 input   66.30 | X-H torsion
[ 10763 10752 10751 10750 ] final   94.69 input  -60.55 | X-H torsion
[ 11005 11000 10999 10996 ] final   81.93 input  -57.11 | X-H torsion

> <Gold.Protein.ActiveResidues>
 VAL166  LYS551  ARG553  GLY616  TRP617  ASP618  TYR619  PRO620  LYS621  CYS622 
 ASP623  PHE694  ASN695  SER759  ASP760  ASP761  ALA762  ILE779  LEU786  VAL792 
 PHE793  MET794  SER795  GLU796  ALA797  LYS798  CYS799  TRP800  GLU811  SER814 

> <Gold.Protein.RotatedAtoms>
  151.0323  134.9548  159.8117 H   0  0  0  0  0  0  0  0  0  0  0  0  # atno 6907 bound_to 6896
  152.5348  134.2764  159.9001 H   0  0  0  0  0  0  0  0  0  0  0  0  # atno 6908 bound_to 6896
  151.2774  133.4183  159.2659 H   0  0  0  0  0  0  0  0  0  0  0  0  # atno 6909 bound_to 6896
  145.4869  140.9554  143.1834 H   0  0  0  0  0  0  0  0  0  0  0  0  # atno 7974 bound_to 7965
  155.7334  140.0805  157.2279 H   0  0  0  0  0  0  0  0  0  0  0  0  # atno 8008 bound_to 7997
  154.4030  140.1591  156.2589 H   0  0  0  0  0  0  0  0  0  0  0  0  # atno 8009 bound_to 7997
  155.9088  140.3405  155.6085 H   0  0  0  0  0  0  0  0  0  0  0  0  # atno 8010 bound_to 7997
  139.5852  144.1334  152.1566 H   0  0  0  0  0  0  0  0  0  0  0  0  # atno 10167 bound_to 10162
  156.5458  130.4689  149.6476 H   0  0  0  0  0  0  0  0  0  0  0  0  # atno 10718 bound_to 10713
  153.2445  135.4280  155.0733 H   0  0  0  0  0  0  0  0  0  0  0  0  # atno 10763 bound_to 10752
  154.8355  135.3411  154.6601 H   0  0  0  0  0  0  0  0  0  0  0  0  # atno 10764 bound_to 10752
  153.7023  135.7027  153.5116 H   0  0  0  0  0  0  0  0  0  0  0  0  # atno 10765 bound_to 10752
  139.9081  134.8033  156.2107 H   0  0  0  0  0  0  0  0  0  0  0  0  # atno 11005 bound_to 11000
  144.7856  139.6433  143.7135 LP  0  0  0  0  0  0  0  0  0  0  0  0  # atno 17320 bound_to 7965
  146.2308  139.5809  142.9557 LP  0  0  0  0  0  0  0  0  0  0  0  0  # atno 17321 bound_to 7965
  140.0896  144.5632  150.7064 LP  0  0  0  0  0  0  0  0  0  0  0  0  # atno 17342 bound_to 10162
  140.7125  143.2516  151.4537 LP  0  0  0  0  0  0  0  0  0  0  0  0  # atno 17343 bound_to 10162
  156.2930  130.7134  151.1988 LP  0  0  0  0  0  0  0  0  0  0  0  0  # atno 17370 bound_to 10713
  157.7397  131.0526  150.5216 LP  0  0  0  0  0  0  0  0  0  0  0  0  # atno 17371 bound_to 10713
  141.0467  133.6909  156.1697 LP  0  0  0  0  0  0  0  0  0  0  0  0  # atno 17394 bound_to 11000
  140.6873  134.4704  157.5589 LP  0  0  0  0  0  0  0  0  0  0  0  0  # atno 17395 bound_to 11000

$$$$
