AV-unprocessed.smi:1464|AV-procd|sdf|5945|dock2
  -GOLD-   22720 6 23D 1   1.00000     0.00000
 Structure written by MMmdl.
 41 42  0  0  0  0  0  0  0  0  1 V2000
  153.6298  141.8403  160.4807 C   0  0  0  0  0  0  0  0  0  0  0  0
  152.8464  142.7307  159.4988 C   0  0  2  0  0  0  0  0  0  0  0  0
  152.5192  144.0773  160.1749 C   0  0  0  0  0  0  0  0  0  0  0  0
  151.7663  145.0213  159.2316 C   0  0  0  0  0  0  0  0  0  0  0  0
  150.4776  144.3646  158.7292 C   0  0  0  0  0  0  0  0  0  0  0  0
  150.7682  143.0220  158.0309 C   0  0  2  0  0  0  0  0  0  0  0  0
  149.5073  142.4156  157.6070 N   0  0  0  0  0  0  0  0  0  0  0  0
  148.3758  142.3864  158.3272 C   0  0  0  0  0  0  0  0  0  0  0  0
  148.2863  142.8515  159.4642 O   0  0  0  0  0  0  0  0  0  0  0  0
  147.1719  141.7061  157.6597 C   0  0  0  0  0  0  0  0  0  0  0  0
  147.0571  142.0091  156.2260 N   0  0  0  0  0  0  0  0  0  0  0  0
  148.1250  141.5600  155.4640 N   0  0  0  0  0  0  0  0  0  0  0  0
  148.1325  141.7522  154.1882 C   0  0  0  0  0  0  0  0  0  0  0  0
  149.2078  141.2883  153.4708 O   0  0  0  0  0  0  0  0  0  0  0  0
  147.0426  142.4368  153.5277 C   0  0  0  0  0  0  0  0  0  0  0  0
  146.0097  142.8763  154.2795 C   0  0  0  0  0  0  0  0  0  0  0  0
  145.9698  142.6757  155.7292 C   0  0  0  0  0  0  0  0  0  0  0  0
  145.0438  143.0685  156.4389 O   0  0  0  0  0  0  0  0  0  0  0  0
  151.5596  142.0513  158.9493 C   0  0  1  0  0  0  0  0  0  0  0  0
  151.8727  140.7274  158.2173 C   0  0  0  0  0  0  0  0  0  0  0  0
  148.8535  140.6512  152.8699 H   0  0  0  0  0  0  0  0  0  0  0  0
  153.0022  141.5177  161.3118 H   0  0  0  0  0  0  0  0  0  0  0  0
  154.4818  142.3767  160.8994 H   0  0  0  0  0  0  0  0  0  0  0  0
  154.0296  140.9510  159.9948 H   0  0  0  0  0  0  0  0  0  0  0  0
  153.5032  142.9402  158.6531 H   0  0  0  0  0  0  0  0  0  0  0  0
  151.9208  143.9055  161.0708 H   0  0  0  0  0  0  0  0  0  0  0  0
  153.4382  144.5611  160.5081 H   0  0  0  0  0  0  0  0  0  0  0  0
  151.5328  145.9540  159.7456 H   0  0  0  0  0  0  0  0  0  0  0  0
  152.4021  145.2832  158.3848 H   0  0  0  0  0  0  0  0  0  0  0  0
  149.7992  144.2071  159.5691 H   0  0  0  0  0  0  0  0  0  0  0  0
  149.9685  145.0439  158.0443 H   0  0  0  0  0  0  0  0  0  0  0  0
  151.3811  143.2187  157.1487 H   0  0  0  0  0  0  0  0  0  0  0  0
  149.4907  142.0028  156.6858 H   0  0  0  0  0  0  0  0  0  0  0  0
  147.2317  140.6256  157.8054 H   0  0  0  0  0  0  0  0  0  0  0  0
  146.2708  142.0235  158.1876 H   0  0  0  0  0  0  0  0  0  0  0  0
  147.0624  142.5899  152.4587 H   0  0  0  0  0  0  0  0  0  0  0  0
  145.1892  143.3896  153.8002 H   0  0  0  0  0  0  0  0  0  0  0  0
  150.9232  141.8098  159.8024 H   0  0  0  0  0  0  0  0  0  0  0  0
  152.5533  140.8904  157.3810 H   0  0  0  0  0  0  0  0  0  0  0  0
  150.9729  140.2568  157.8211 H   0  0  0  0  0  0  0  0  0  0  0  0
  152.3287  139.9946  158.8817 H   0  0  0  0  0  0  0  0  0  0  0  0
  1  2  1  0  0  0  0
  1 22  1  0  0  0  0
  1 23  1  0  0  0  0
  1 24  1  0  0  0  0
  2 19  1  0  0  0  0
  2  3  1  0  0  0  0
  2 25  1  0  0  0  0
  3  4  1  0  0  0  0
  3 26  1  0  0  0  0
  3 27  1  0  0  0  0
  4  5  1  0  0  0  0
  4 28  1  0  0  0  0
  4 29  1  0  0  0  0
  5  6  1  0  0  0  0
  5 30  1  0  0  0  0
  5 31  1  0  0  0  0
  6  7  1  0  0  0  0
  6 19  1  0  0  0  0
  6 32  1  0  0  0  0
  7  8  1  0  0  0  0
  7 33  1  0  0  0  0
  8  9  2  0  0  0  0
  8 10  1  0  0  0  0
 10 34  1  0  0  0  0
 10 35  1  0  0  0  0
 10 11  1  0  0  0  0
 11 12  1  0  0  0  0
 11 17  1  0  0  0  0
 12 13  2  0  0  0  0
 13 14  1  0  0  0  0
 13 15  1  0  0  0  0
 14 21  1  0  0  0  0
 15 36  1  0  0  0  0
 15 16  2  0  0  0  0
 16 37  1  0  0  0  0
 16 17  1  0  0  0  0
 17 18  2  0  0  0  0
 19 20  1  0  0  0  0
 19 38  1  0  0  0  0
 20 39  1  0  0  0  0
 20 40  1  0  0  0  0
 20 41  1  0  0  0  0
M  END
> <s_m_source_file>
AV-unprocessed.smi

> <i_m_source_file_index>
1464

> <i_lp_mmshare_version>
43012

> <i_f3d_flags>
0

> <s_epik_input>
W0NIM11bQ0BASF0xW0NIMl1bQ0gyXVtDSDJdW0NASF0oW0NASF0xW0NIM10pW05IXUMoPU8pW0NIMl1uMltuSF1jKD1PKVtjSF1bY0hdYzI9Tw==

> <s_epik_cmdline>
J2VwaWtfcHl0aG9uJywgJy1waCcsICc3LjAnLCAnLXRuJywgJzgnLCAnLW1hJywgJzIwMCcsICctbWV0YWxfYmluZGluZycsICctaW1hZScsICc8aW5maWxlLm1hZT4nLCAnLW9tYWUnLCAnPG91dGZpbGUubWFlPic=

> <r_lp_tautomer_probability>
0.9996

> <r_epik_Ionization_Penalty>
2.10335

> <r_epik_Ionization_Penalty_Charging>
3.98079e-08

> <r_epik_Ionization_Penalty_Neutral>
2.10335

> <r_epik_State_Penalty>
1.67957

> <r_epik_Charging_Adjusted_Penalty>
1.67957

> <i_epik_Tot_Q>
0

> <i_epik_Tot_abs_Q>
0

> <r_epik_Metal_State_Penalty>
1.67957

> <b_epik_Metal_Only>
0

> <s_lp_Force_Field>
OPLS_2005

> <r_lp_Energy>
21.8095

> <b_lp_Chiralities_Consistent>
1

> <s_lp_Variant>
AV-unprocessed.smi:1464-11

> <Gold.Version>
5.8.1

> <Gold.Id.Protein>
6NUR|6NUR_protein|mol2

> <Gold.PLP.Fitness>
48.5781

> <Gold.PLP.PLP>
-43.5967

> <Gold.PLP.part.hbond>
-4.9293

> <Gold.PLP.part.metal>
0.0000

> <Gold.PLP.part.buried>
-7.3858

> <Gold.PLP.part.nonpolar>
-31.9395

> <Gold.PLP.part.repulsive>
0.3712

> <Gold.PLP.ligand.clash>
0.0000

> <Gold.PLP.ligand.torsion>
0.5836

> <Gold.PLP.Chemscore.Hbond>
2.0463

> <Gold.PLP.Chemscore.CHOScore>
0.0000

> <Gold.PLP.Chemscore.Metal>
0.0000

> <Gold.Chemscore.Hbonds>
donor molecule, donor type, donor heavy atom, donor atom, acceptor molecule, acceptor atom, score
      L1  H    14    21       P1  7957  0.56
      P1  H  6933  6944       L1     9  0.50
      P1  H  7989  7998       L1    14  0.01
      P1  H  8011  8017       L1    14  0.93

> <Gold.PLP.Chemscore.Internal.Correction>
0.0097

> <Gold.Rescore>
     Score         DG    S(hbond)    S(metal)    S(lipo)     H(rot)  DE(clash)    DE(int)     intcor
     12.22     -15.66       1.47        0.00      93.58       2.22       0.04       3.40       ----

> <Gold.Chemscore.Fitness>
12.2201

> <Gold.Chemscore.DG>
-15.6587

> <Gold.Chemscore.ZeroCoef>
-5.4800

> <Gold.Chemscore.Hbond>
1.4727

> <Gold.Chemscore.Metal>
0.0000

> <Gold.Chemscore.Lipo>
93.5821

> <Gold.Chemscore.Internal_Hbond>
0.0000

> <Gold.Chemscore.DEClash>
0.0352

> <Gold.Chemscore.DEInternal>
3.4034

> <Gold.Chemscore.Rot>
2.2224

> <Gold.Chemscore.Internal.Correction>
   9.000000E+99

> <Gold.Chemscore.Hbonds>
donor molecule, donor type, donor heavy atom, donor atom, acceptor molecule, acceptor atom, score
      L1  H    14    21       P1  7957  0.55
      P1  H  6933  6944       L1     9  0.45
      P1  H  7989  7998       L1    14  0.01
      P1  H  8011  8017       L1    14  0.17

> <Gold.Chemscore.Hbond.Weighted>
-4.9189

> <Gold.Chemscore.Metal.Weighted>
-0.0000

> <Gold.Chemscore.Lipo.Weighted>
-10.9491

> <Gold.Chemscore.Internal_Hbond.Weighted>
0.0000

> <Gold.Chemscore.DEClash.Weighted>
0.0352

> <Gold.Chemscore.DEInternal.Weighted>
3.4034

> <Gold.Chemscore.Rot.Weighted>
5.6893

> <Gold.Chemscore.Internal.Correction.Weighted>
   9.000000E+99

> <Gold.Protein.RotatedTorsions>
[ 6907 6896 6895 6894 ] final -141.24 input  -60.11 | X-H torsion
[ 7974 7965 7964 7962 ] final   80.83 input  175.53 | X-H torsion
[ 8008 7997 7996 7995 ] final   13.64 input   59.86 | X-H torsion
[ 10167 10162 10161 10158 ] final -125.12 input  -65.29 | X-H torsion
[ 10718 10713 10712 10709 ] final  -19.79 input   66.30 | X-H torsion
[ 10763 10752 10751 10750 ] final -116.49 input  -60.55 | X-H torsion
[ 11005 11000 10999 10996 ] final  -60.63 input  -57.11 | X-H torsion

> <Gold.Protein.ActiveResidues>
 VAL166  LYS551  ARG553  GLY616  TRP617  ASP618  TYR619  PRO620  LYS621  CYS622 
 ASP623  PHE694  ASN695  SER759  ASP760  ASP761  ALA762  ILE779  LEU786  VAL792 
 PHE793  MET794  SER795  GLU796  ALA797  LYS798  CYS799  TRP800  GLU811  SER814 

> <Gold.Protein.RotatedAtoms>
  151.0711  133.5465  159.2626 H   0  0  0  0  0  0  0  0  0  0  0  0  # atno 6907 bound_to 6896
  151.2404  135.0586  159.9032 H   0  0  0  0  0  0  0  0  0  0  0  0  # atno 6908 bound_to 6896
  152.5411  134.0487  159.8154 H   0  0  0  0  0  0  0  0  0  0  0  0  # atno 6909 bound_to 6896
  145.6461  139.2436  143.2003 H   0  0  0  0  0  0  0  0  0  0  0  0  # atno 7974 bound_to 7965
  154.8373  140.2909  155.5683 H   0  0  0  0  0  0  0  0  0  0  0  0  # atno 8008 bound_to 7997
  156.3009  140.2520  156.3240 H   0  0  0  0  0  0  0  0  0  0  0  0  # atno 8009 bound_to 7997
  154.9165  140.0387  157.1964 H   0  0  0  0  0  0  0  0  0  0  0  0  # atno 8010 bound_to 7997
  139.9855  143.5697  152.2362 H   0  0  0  0  0  0  0  0  0  0  0  0  # atno 10167 bound_to 10162
  156.5408  130.4677  149.6500 H   0  0  0  0  0  0  0  0  0  0  0  0  # atno 10718 bound_to 10713
  154.8521  135.4344  154.1829 H   0  0  0  0  0  0  0  0  0  0  0  0  # atno 10763 bound_to 10752
  153.2915  135.6962  153.7294 H   0  0  0  0  0  0  0  0  0  0  0  0  # atno 10764 bound_to 10752
  153.6459  135.3460  155.3060 H   0  0  0  0  0  0  0  0  0  0  0  0  # atno 10765 bound_to 10752
  141.1294  133.6623  156.5253 H   0  0  0  0  0  0  0  0  0  0  0  0  # atno 11005 bound_to 11000
  146.1241  140.7271  142.9443 LP  0  0  0  0  0  0  0  0  0  0  0  0  # atno 17320 bound_to 7965
  144.7139  140.4140  143.7059 LP  0  0  0  0  0  0  0  0  0  0  0  0  # atno 17321 bound_to 7965
  139.6378  144.7652  151.2401 LP  0  0  0  0  0  0  0  0  0  0  0  0  # atno 17342 bound_to 10162
  140.7474  143.6368  150.8372 LP  0  0  0  0  0  0  0  0  0  0  0  0  # atno 17343 bound_to 10162
  156.2973  130.7157  151.2021 LP  0  0  0  0  0  0  0  0  0  0  0  0  # atno 17370 bound_to 10713
  157.7405  131.0515  150.5158 LP  0  0  0  0  0  0  0  0  0  0  0  0  # atno 17371 bound_to 10713
  140.4259  134.7145  157.4916 LP  0  0  0  0  0  0  0  0  0  0  0  0  # atno 17394 bound_to 11000
  140.0327  134.6382  155.9085 LP  0  0  0  0  0  0  0  0  0  0  0  0  # atno 17395 bound_to 11000

$$$$
