AV-unprocessed.smi:2751|AV-procd|sdf|10598|dock1
  -GOLD-   2272015 53D 1   1.00000     0.00000
 Structure written by MMmdl.
 35 36  0  0  0  0  0  0  0  0  2 V2000
  144.6330  136.9624  152.5266 O   0  0  0  0  0  0  0  0  0  0  0  0
  145.8370  136.7955  152.3283 C   0  0  0  0  0  0  0  0  0  0  0  0
  146.7827  137.6517  152.7432 N   0  0  0  0  0  0  0  0  0  0  0  0
  146.5263  138.8895  153.4715 C   0  0  0  0  0  0  0  0  0  0  0  0
  147.6810  139.8927  153.3056 C   0  0  0  0  0  0  0  0  0  0  0  0
  148.7155  139.8083  154.4390 C   0  0  1  0  0  0  0  0  0  0  0  0
  149.7404  138.6831  154.1971 C   0  0  0  0  0  0  0  0  0  0  0  0
  150.8074  138.6769  155.2974 C   0  0  0  0  0  0  0  0  0  0  0  0
  151.4263  140.0727  155.4238 C   0  0  0  0  0  0  0  0  0  0  0  0
  150.3254  141.1303  155.5995 C   0  0  0  0  0  0  0  0  0  0  0  0
  149.4027  141.0560  154.5169 O   0  0  0  0  0  0  0  0  0  0  0  0
  146.3697  135.7489  151.6752 N   0  0  0  0  0  0  0  0  0  0  0  0
  145.6735  134.6590  151.0937 C   0  0  0  0  0  0  0  0  0  0  0  0
  146.2022  133.6253  150.4346 N   0  3  0  0  0  0  0  0  0  0  0  0
  145.1909  132.7899  150.0317 C   0  0  0  0  0  0  0  0  0  0  0  0
  144.0292  133.3701  150.4805 C   0  0  0  0  0  0  0  0  0  0  0  0
  144.3174  134.5440  151.1489 O   0  0  0  0  0  0  0  0  0  0  0  0
  147.7485  137.4385  152.5398 H   0  0  0  0  0  0  0  0  0  0  0  0
  145.5829  139.3283  153.1426 H   0  0  0  0  0  0  0  0  0  0  0  0
  146.4004  138.6407  154.5255 H   0  0  0  0  0  0  0  0  0  0  0  0
  148.1783  139.7048  152.3531 H   0  0  0  0  0  0  0  0  0  0  0  0
  147.2884  140.9089  153.2517 H   0  0  0  0  0  0  0  0  0  0  0  0
  148.1940  139.6256  155.3805 H   0  0  0  0  0  0  0  0  0  0  0  0
  149.2396  137.7153  154.1608 H   0  0  0  0  0  0  0  0  0  0  0  0
  150.2194  138.8241  153.2273 H   0  0  0  0  0  0  0  0  0  0  0  0
  150.3553  138.3878  156.2469 H   0  0  0  0  0  0  0  0  0  0  0  0
  151.5774  137.9371  155.0774 H   0  0  0  0  0  0  0  0  0  0  0  0
  152.1195  140.1042  156.2648 H   0  0  0  0  0  0  0  0  0  0  0  0
  152.0083  140.2983  154.5293 H   0  0  0  0  0  0  0  0  0  0  0  0
  149.8022  140.9944  156.5472 H   0  0  0  0  0  0  0  0  0  0  0  0
  150.7647  142.1278  155.6195 H   0  0  0  0  0  0  0  0  0  0  0  0
  147.1822  133.4529  150.2448 H   0  0  0  0  0  0  0  0  0  0  0  0
  145.3949  131.8849  149.4774 H   0  0  0  0  0  0  0  0  0  0  0  0
  142.9857  133.0979  150.4142 H   0  0  0  0  0  0  0  0  0  0  0  0
  147.3745  135.7304  151.5816 H   0  0  0  0  0  0  0  0  0  0  0  0
  1  2  2  0  0  0  0
  2 12  1  0  0  0  0
  2  3  1  0  0  0  0
  3  4  1  0  0  0  0
  3 18  1  0  0  0  0
  4  5  1  0  0  0  0
  4 19  1  0  0  0  0
  4 20  1  0  0  0  0
  5  6  1  0  0  0  0
  5 21  1  0  0  0  0
  5 22  1  0  0  0  0
  6 11  1  0  0  0  0
  6  7  1  0  0  0  0
  6 23  1  0  0  0  0
  7  8  1  0  0  0  0
  7 24  1  0  0  0  0
  7 25  1  0  0  0  0
  8  9  1  0  0  0  0
  8 26  1  0  0  0  0
  8 27  1  0  0  0  0
  9 10  1  0  0  0  0
  9 28  1  0  0  0  0
  9 29  1  0  0  0  0
 10 11  1  0  0  0  0
 10 30  1  0  0  0  0
 10 31  1  0  0  0  0
 12 13  1  0  0  0  0
 12 35  1  0  0  0  0
 13 17  1  0  0  0  0
 13 14  2  0  0  0  0
 14 32  1  0  0  0  0
 14 15  1  0  0  0  0
 15 33  1  0  0  0  0
 15 16  2  0  0  0  0
 16 34  1  0  0  0  0
 16 17  1  0  0  0  0
M  CHG  1  14   1
M  END
> <s_m_source_file>
AV-unprocessed.smi

> <i_m_source_file_index>
2751

> <i_lp_mmshare_version>
43012

> <i_f3d_flags>
0

> <s_epik_input>
bzFbY0hdW2NIXW5jMVtOSF1DKD1PKVtOSF1bQ0gyXVtDSDJdW0NAQEhdMltDSDJdW0NIMl1bQ0gyXVtDSDJdTzI=

> <s_epik_cmdline>
J2VwaWtfcHl0aG9uJywgJy1waCcsICc3LjAnLCAnLXRuJywgJzgnLCAnLW1hJywgJzIwMCcsICctbWV0YWxfYmluZGluZycsICctaW1hZScsICc8aW5maWxlLm1hZT4nLCAnLW9tYWUnLCAnPG91dGZpbGUubWFlPic=

> <r_epik_Ionization_Penalty>
6.63408

> <r_epik_Ionization_Penalty_Charging>
6.57733

> <r_epik_Ionization_Penalty_Neutral>
0.0567487

> <r_epik_State_Penalty>
1.8175

> <r_epik_Charging_Adjusted_Penalty>
8.39483

> <i_epik_Tot_Q>
1

> <i_epik_Tot_abs_Q>
1

> <r_epik_Metal_State_Penalty>
1.83396

> <b_epik_Metal_Only>
0

> <s_lp_Force_Field>
OPLS_2005

> <r_lp_Energy>
17.5714

> <b_lp_Chiralities_Consistent>
1

> <s_lp_Variant>
AV-unprocessed.smi:2751-4

> <Gold.Version>
5.8.1

> <Gold.Id.Protein>
6NUR|6NUR_protein|mol2

> <Gold.PLP.Fitness>
34.5536

> <Gold.PLP.PLP>
-26.9142

> <Gold.PLP.part.hbond>
-3.6139

> <Gold.PLP.part.metal>
0.0000

> <Gold.PLP.part.buried>
-1.2442

> <Gold.PLP.part.nonpolar>
-23.3659

> <Gold.PLP.part.repulsive>
0.7118

> <Gold.PLP.ligand.clash>
0.0000

> <Gold.PLP.ligand.torsion>
0.6336

> <Gold.PLP.Chemscore.Hbond>
1.9600

> <Gold.PLP.Chemscore.CHOScore>
1.0000

> <Gold.PLP.Chemscore.Metal>
0.0000

> <Gold.Chemscore.Hbonds>
donor molecule, donor type, donor heavy atom, donor atom, acceptor molecule, acceptor atom, score
      L1  H     3    18       P1  7948  0.94
      L1  H    12    35       P1  7948  1.00
      L1  C    16    34       P1 10186  1.00

> <Gold.PLP.Chemscore.Internal.Correction>
0.0266

> <Gold.Rescore>
     Score         DG    S(hbond)    S(metal)    S(lipo)     H(rot)  DE(clash)    DE(int)     intcor
     12.70     -14.75       1.92        0.00      60.60       1.66       0.03       2.01       ----

> <Gold.Chemscore.Fitness>
12.7049

> <Gold.Chemscore.DG>
-14.7464

> <Gold.Chemscore.ZeroCoef>
-5.4800

> <Gold.Chemscore.Hbond>
1.9219

> <Gold.Chemscore.Metal>
0.0000

> <Gold.Chemscore.Lipo>
60.6000

> <Gold.Chemscore.Internal_Hbond>
0.0000

> <Gold.Chemscore.DEClash>
0.0318

> <Gold.Chemscore.DEInternal>
2.0096

> <Gold.Chemscore.Rot>
1.6575

> <Gold.Chemscore.Internal.Correction>
   9.000000E+99

> <Gold.Chemscore.Hbonds>
donor molecule, donor type, donor heavy atom, donor atom, acceptor molecule, acceptor atom, score
      L1  H     3    18       P1  7948  0.92
      L1  H    12    35       P1  7948  0.98

> <Gold.Chemscore.Hbond.Weighted>
-6.4192

> <Gold.Chemscore.Metal.Weighted>
-0.0000

> <Gold.Chemscore.Lipo.Weighted>
-7.0902

> <Gold.Chemscore.Internal_Hbond.Weighted>
0.0000

> <Gold.Chemscore.DEClash.Weighted>
0.0318

> <Gold.Chemscore.DEInternal.Weighted>
2.0096

> <Gold.Chemscore.Rot.Weighted>
4.2431

> <Gold.Chemscore.Internal.Correction.Weighted>
   9.000000E+99

> <Gold.Protein.RotatedTorsions>
[ 6907 6896 6895 6894 ] final   17.00 input  -60.11 | X-H torsion
[ 7974 7965 7964 7962 ] final -153.09 input  175.53 | X-H torsion
[ 8008 7997 7996 7995 ] final -132.46 input   59.86 | X-H torsion
[ 10167 10162 10161 10158 ] final  -84.81 input  -65.29 | X-H torsion
[ 10718 10713 10712 10709 ] final   29.92 input   66.30 | X-H torsion
[ 10763 10752 10751 10750 ] final  -84.55 input  -60.55 | X-H torsion
[ 11005 11000 10999 10996 ] final  163.93 input  -57.11 | X-H torsion

> <Gold.Protein.ActiveResidues>
 VAL166  LYS551  ARG553  GLY616  TRP617  ASP618  TYR619  PRO620  LYS621  CYS622 
 ASP623  PHE694  ASN695  SER759  ASP760  ASP761  ALA762  ILE779  LEU786  VAL792 
 PHE793  MET794  SER795  GLU796  ALA797  LYS798  CYS799  TRP800  GLU811  SER814 

> <Gold.Protein.RotatedAtoms>
  151.8427  135.0584  160.0449 H   0  0  0  0  0  0  0  0  0  0  0  0  # atno 6907 bound_to 6896
  152.2796  133.5454  159.5498 H   0  0  0  0  0  0  0  0  0  0  0  0  # atno 6908 bound_to 6896
  150.7184  134.0498  159.3837 H   0  0  0  0  0  0  0  0  0  0  0  0  # atno 6909 bound_to 6896
  144.7759  140.4573  143.5874 H   0  0  0  0  0  0  0  0  0  0  0  0  # atno 7974 bound_to 7965
  155.3293  140.0466  157.3042 H   0  0  0  0  0  0  0  0  0  0  0  0  # atno 8008 bound_to 7997
  154.5337  140.2265  155.8725 H   0  0  0  0  0  0  0  0  0  0  0  0  # atno 8009 bound_to 7997
  156.1814  140.3073  155.9162 H   0  0  0  0  0  0  0  0  0  0  0  0  # atno 8010 bound_to 7997
  140.4097  143.2628  151.9034 H   0  0  0  0  0  0  0  0  0  0  0  0  # atno 10167 bound_to 10162
  157.2529  130.7124  149.6414 H   0  0  0  0  0  0  0  0  0  0  0  0  # atno 10718 bound_to 10713
  154.6008  135.5516  153.7373 H   0  0  0  0  0  0  0  0  0  0  0  0  # atno 10763 bound_to 10752
  153.0154  135.6366  154.1717 H   0  0  0  0  0  0  0  0  0  0  0  0  # atno 10764 bound_to 10752
  154.1656  135.2895  155.3076 H   0  0  0  0  0  0  0  0  0  0  0  0  # atno 10765 bound_to 10752
  140.2407  134.8053  157.3408 H   0  0  0  0  0  0  0  0  0  0  0  0  # atno 11005 bound_to 11000
  145.6188  139.1521  143.3034 LP  0  0  0  0  0  0  0  0  0  0  0  0  # atno 17320 bound_to 7965
  146.1938  140.6299  142.9133 LP  0  0  0  0  0  0  0  0  0  0  0  0  # atno 17321 bound_to 7965
  139.4783  144.5550  151.8328 LP  0  0  0  0  0  0  0  0  0  0  0  0  # atno 17342 bound_to 10162
  140.4651  144.1666  150.5911 LP  0  0  0  0  0  0  0  0  0  0  0  0  # atno 17343 bound_to 10162
  155.9666  130.4422  150.5370 LP  0  0  0  0  0  0  0  0  0  0  0  0  # atno 17370 bound_to 10713
  157.3258  131.0690  151.1898 LP  0  0  0  0  0  0  0  0  0  0  0  0  # atno 17371 bound_to 10713
  140.1656  134.4674  155.7865 LP  0  0  0  0  0  0  0  0  0  0  0  0  # atno 17394 bound_to 11000
  141.2210  133.6919  156.7619 LP  0  0  0  0  0  0  0  0  0  0  0  0  # atno 17395 bound_to 11000

$$$$
