AV-unprocessed.smi:36|AV-procd|sdf|290|dock8
  -GOLD-   2262016 73D 1   1.00000     0.00000
 Structure written by MMmdl.
 64 67  0  0  0  0  0  0  0  0  1 V2000
  154.7342  127.7579  163.2416 C   0  0  0  0  0  0  0  0  0  0  0  0
  154.8384  127.2660  164.6947 C   0  0  0  0  0  0  0  0  0  0  0  0
  153.4605  127.3436  165.3731 C   0  0  0  0  0  0  0  0  0  0  0  0
  155.3467  125.8149  164.7206 C   0  0  0  0  0  0  0  0  0  0  0  0
  156.0676  128.3707  165.6535 Si  0  0  0  0  0  0  0  0  0  0  0  0
  156.1105  127.9055  167.4957 C   0  0  0  0  0  0  0  0  0  0  0  0
  157.8161  128.2544  164.9188 C   0  0  0  0  0  0  0  0  0  0  0  0
  155.5414  129.9721  165.5172 O   0  0  0  0  0  0  0  0  0  0  0  0
  155.4491  130.6599  164.2876 C   0  0  0  0  0  0  0  0  0  0  0  0
  154.6397  131.9472  164.4989 C   0  0  1  0  0  0  0  0  0  0  0  0
  154.4949  132.6736  163.2785 O   0  0  0  0  0  0  0  0  0  0  0  0
  153.2383  133.2797  163.2195 C   0  0  2  0  0  0  0  0  0  0  0  0
  153.4163  134.7408  162.9590 N   0  0  0  0  0  0  0  0  0  0  0  0
  153.1883  135.7365  163.8357 C   0  0  0  0  0  0  0  0  0  0  0  0
  153.4192  136.9643  163.3789 N   0  0  0  0  0  0  0  0  0  0  0  0
  153.8327  136.7292  162.0717 C   0  0  0  0  0  0  0  0  0  0  0  0
  154.2426  137.6797  161.0154 C   0  0  0  0  0  0  0  0  0  0  0  0
  154.2486  138.9441  161.3119 N   0  0  0  0  0  0  0  0  0  0  0  0
  154.6234  139.8824  160.3590 C   0  0  0  0  0  0  0  0  0  0  0  0
  155.3230  139.7273  159.3541 O   0  0  0  0  0  0  0  0  0  0  0  0
  154.1275  141.2593  160.6605 C   0  0  0  0  0  0  0  0  0  0  0  0
  153.7656  141.6073  161.9793 C   0  0  0  0  0  0  0  0  0  0  0  0
  153.2924  142.9033  162.2635 C   0  0  0  0  0  0  0  0  0  0  0  0
  153.1772  143.8537  161.2303 C   0  0  0  0  0  0  0  0  0  0  0  0
  153.5338  143.5081  159.9122 C   0  0  0  0  0  0  0  0  0  0  0  0
  154.0078  142.2126  159.6267 C   0  0  0  0  0  0  0  0  0  0  0  0
  154.5646  136.9801  159.8452 N   0  0  0  0  0  0  0  0  0  0  0  0
  154.5261  135.5869  159.6825 C   0  0  0  0  0  0  0  0  0  0  0  0
  154.1765  134.7365  160.6101 N   0  0  0  0  0  0  0  0  0  0  0  0
  153.8349  135.3792  161.7922 C   0  0  0  0  0  0  0  0  0  0  0  0
  152.5443  133.0411  164.5619 C   0  0  0  0  0  0  0  0  0  0  0  0
  153.2090  131.7607  165.0225 C   0  0  1  0  0  0  0  0  0  0  0  0
  152.5744  130.6306  164.4530 O   0  0  0  0  0  0  0  0  0  0  0  0
  154.0347  127.1498  162.6670 H   0  0  0  0  0  0  0  0  0  0  0  0
  155.6994  127.7127  162.7366 H   0  0  0  0  0  0  0  0  0  0  0  0
  154.3865  128.7900  163.1950 H   0  0  0  0  0  0  0  0  0  0  0  0
  153.0707  128.3617  165.3671 H   0  0  0  0  0  0  0  0  0  0  0  0
  153.5126  127.0175  166.4124 H   0  0  0  0  0  0  0  0  0  0  0  0
  152.7321  126.7106  164.8652 H   0  0  0  0  0  0  0  0  0  0  0  0
  154.6628  125.1454  164.1978 H   0  0  0  0  0  0  0  0  0  0  0  0
  155.4488  125.4493  165.7430 H   0  0  0  0  0  0  0  0  0  0  0  0
  156.3219  125.7265  164.2413 H   0  0  0  0  0  0  0  0  0  0  0  0
  156.3978  126.8644  167.6395 H   0  0  0  0  0  0  0  0  0  0  0  0
  155.1370  128.0433  167.9657 H   0  0  0  0  0  0  0  0  0  0  0  0
  156.8251  128.5165  168.0466 H   0  0  0  0  0  0  0  0  0  0  0  0
  158.1976  127.2343  164.9508 H   0  0  0  0  0  0  0  0  0  0  0  0
  158.5202  128.8811  165.4656 H   0  0  0  0  0  0  0  0  0  0  0  0
  157.8359  128.5774  163.8782 H   0  0  0  0  0  0  0  0  0  0  0  0
  156.4429  130.8805  163.8972 H   0  0  0  0  0  0  0  0  0  0  0  0
  154.9476  130.0120  163.5680 H   0  0  0  0  0  0  0  0  0  0  0  0
  155.1702  132.5895  165.2033 H   0  0  0  0  0  0  0  0  0  0  0  0
  152.6776  132.8934  162.3673 H   0  0  0  0  0  0  0  0  0  0  0  0
  152.8457  135.5551  164.8439 H   0  0  0  0  0  0  0  0  0  0  0  0
  153.8502  140.8832  162.7773 H   0  0  0  0  0  0  0  0  0  0  0  0
  153.0168  143.1682  163.2738 H   0  0  0  0  0  0  0  0  0  0  0  0
  152.8136  144.8470  161.4488 H   0  0  0  0  0  0  0  0  0  0  0  0
  153.4426  144.2363  159.1198 H   0  0  0  0  0  0  0  0  0  0  0  0
  154.2773  141.9541  158.6127 H   0  0  0  0  0  0  0  0  0  0  0  0
  154.8210  135.2480  158.6883 H   0  0  0  0  0  0  0  0  0  0  0  0
  152.7782  133.8523  165.2528 H   0  0  0  0  0  0  0  0  0  0  0  0
  151.4617  132.9756  164.4475 H   0  0  0  0  0  0  0  0  0  0  0  0
  153.1854  131.6585  166.1078 H   0  0  0  0  0  0  0  0  0  0  0  0
  152.1460  130.1497  165.1446 H   0  0  0  0  0  0  0  0  0  0  0  0
  154.8559  137.5291  159.0490 H   0  0  0  0  0  0  0  0  0  0  0  0
  1  2  1  0  0  0  0
  1 34  1  0  0  0  0
  1 35  1  0  0  0  0
  1 36  1  0  0  0  0
  2  3  1  0  0  0  0
  2  4  1  0  0  0  0
  2  5  1  0  0  0  0
  3 37  1  0  0  0  0
  3 38  1  0  0  0  0
  3 39  1  0  0  0  0
  4 40  1  0  0  0  0
  4 41  1  0  0  0  0
  4 42  1  0  0  0  0
  5  6  1  0  0  0  0
  5  7  1  0  0  0  0
  5  8  1  0  0  0  0
  6 43  1  0  0  0  0
  6 44  1  0  0  0  0
  6 45  1  0  0  0  0
  7 46  1  0  0  0  0
  7 47  1  0  0  0  0
  7 48  1  0  0  0  0
  8  9  1  0  0  0  0
  9 10  1  0  0  0  0
  9 49  1  0  0  0  0
  9 50  1  0  0  0  0
 10 32  1  0  0  0  0
 10 11  1  0  0  0  0
 10 51  1  0  0  0  0
 11 12  1  0  0  0  0
 12 13  1  0  0  0  0
 12 31  1  0  0  0  0
 12 52  1  0  0  0  0
 13 30  1  0  0  0  0
 13 14  1  0  0  0  0
 14 15  2  0  0  0  0
 14 53  1  0  0  0  0
 15 16  1  0  0  0  0
 16 30  2  0  0  0  0
 16 17  1  0  0  0  0
 17 18  2  0  0  0  0
 17 27  1  0  0  0  0
 18 19  1  0  0  0  0
 19 20  2  0  0  0  0
 19 21  1  0  0  0  0
 21 26  1  0  0  0  0
 21 22  2  0  0  0  0
 22 23  1  0  0  0  0
 22 54  1  0  0  0  0
 23 24  2  0  0  0  0
 23 55  1  0  0  0  0
 24 25  1  0  0  0  0
 24 56  1  0  0  0  0
 25 26  2  0  0  0  0
 25 57  1  0  0  0  0
 26 58  1  0  0  0  0
 27 28  1  0  0  0  0
 27 64  1  0  0  0  0
 28 29  2  0  0  0  0
 28 59  1  0  0  0  0
 29 30  1  0  0  0  0
 31 32  1  0  0  0  0
 31 60  1  0  0  0  0
 31 61  1  0  0  0  0
 32 33  1  0  0  0  0
 32 62  1  0  0  0  0
 33 63  1  0  0  0  0
M  END
> <s_m_source_file>
AV-unprocessed.smi

> <i_m_source_file_index>
36

> <i_lp_mmshare_version>
43012

> <i_f3d_flags>
0

> <s_epik_input>
W0NIM11DKFtDSDNdKShbQ0gzXSlbU2ldKFtDSDNdKShbQ0gzXSlPW0NIMl1bQ0BASF0xT1tDQEhdKFtDSDJdW0NASF0xW09IXSluKFtjSF1uMiljKGMyMyluW2NIXW5jM1tOSF1DKD1PKWM0W2NIXVtjSF1bY0hdW2NIXVtjSF00

> <s_epik_cmdline>
J2VwaWtfcHl0aG9uJywgJy1waCcsICc3LjAnLCAnLXRuJywgJzgnLCAnLW1hJywgJzIwMCcsICctbWV0YWxfYmluZGluZycsICctaW1hZScsICc8aW5maWxlLm1hZT4nLCAnLW9tYWUnLCAnPG91dGZpbGUubWFlPic=

> <r_epik_Ionization_Penalty>
0.0850405

> <r_epik_Ionization_Penalty_Charging>
0.0850403

> <r_epik_Ionization_Penalty_Neutral>
1.47497e-07

> <r_epik_State_Penalty>
2.6133

> <r_epik_Charging_Adjusted_Penalty>
2.69834

> <i_epik_Tot_Q>
0

> <i_epik_Tot_abs_Q>
0

> <r_epik_Metal_State_Penalty>
2.92945

> <b_epik_Metal_Only>
0

> <s_epik_Chemistry_Notes>
This compound contains an acetal/aminal-like group ( X-CH(R)-Y where X, Y are N, S, or O) that may be acid/base labile, releasing an aldehyde.

> <s_lp_Force_Field>
OPLS_2005

> <r_lp_Energy>
50.4083

> <b_lp_Chiralities_Consistent>
1

> <s_lp_Variant>
AV-unprocessed.smi:36-12

> <Gold.Version>
5.8.1

> <Gold.Id.Protein>
6NUR|6NUR_protein|mol2

> <Gold.PLP.Fitness>
54.5603

> <Gold.PLP.PLP>
-52.6407

> <Gold.PLP.part.hbond>
-1.0000

> <Gold.PLP.part.metal>
0.0000

> <Gold.PLP.part.buried>
-6.0469

> <Gold.PLP.part.nonpolar>
-45.2287

> <Gold.PLP.part.repulsive>
0.0783

> <Gold.PLP.ligand.clash>
0.0000

> <Gold.PLP.ligand.torsion>
0.5944

> <Gold.PLP.Chemscore.Hbond>
1.0000

> <Gold.PLP.Chemscore.CHOScore>
0.0000

> <Gold.PLP.Chemscore.Metal>
0.0000

> <Gold.Chemscore.Hbonds>
donor molecule, donor type, donor heavy atom, donor atom, acceptor molecule, acceptor atom, score
      P1  H  6896  6907       L1    29  0.02
      P1  H  7997  8010       L1    20  1.00

> <Gold.PLP.Chemscore.Internal.Correction>
0.1085

> <Gold.Rescore>
     Score         DG    S(hbond)    S(metal)    S(lipo)     H(rot)  DE(clash)    DE(int)     intcor
     14.91     -15.27       0.99        0.00     114.48       2.70       0.06       0.30       ----

> <Gold.Chemscore.Fitness>
14.9145

> <Gold.Chemscore.DG>
-15.2684

> <Gold.Chemscore.ZeroCoef>
-5.4800

> <Gold.Chemscore.Hbond>
0.9930

> <Gold.Chemscore.Metal>
0.0000

> <Gold.Chemscore.Lipo>
114.4802

> <Gold.Chemscore.Internal_Hbond>
0.0000

> <Gold.Chemscore.DEClash>
0.0582

> <Gold.Chemscore.DEInternal>
0.2957

> <Gold.Chemscore.Rot>
2.7041

> <Gold.Chemscore.Internal.Correction>
   9.000000E+99

> <Gold.Chemscore.Hbonds>
donor molecule, donor type, donor heavy atom, donor atom, acceptor molecule, acceptor atom, score
      P1  H  6896  6907       L1    29  0.01
      P1  H  7997  8010       L1    20  0.95

> <Gold.Chemscore.Hbond.Weighted>
-3.3167

> <Gold.Chemscore.Metal.Weighted>
-0.0000

> <Gold.Chemscore.Lipo.Weighted>
-13.3942

> <Gold.Chemscore.Internal_Hbond.Weighted>
0.0000

> <Gold.Chemscore.DEClash.Weighted>
0.0582

> <Gold.Chemscore.DEInternal.Weighted>
0.2957

> <Gold.Chemscore.Rot.Weighted>
6.9225

> <Gold.Chemscore.Internal.Correction.Weighted>
   9.000000E+99

> <Gold.Protein.RotatedTorsions>
[ 6907 6896 6895 6894 ] final  130.89 input  -60.11 | X-H torsion
[ 7974 7965 7964 7962 ] final  -33.36 input  175.53 | X-H torsion
[ 8008 7997 7996 7995 ] final  -14.83 input   59.86 | X-H torsion
[ 10167 10162 10161 10158 ] final  -15.56 input  -65.29 | X-H torsion
[ 10718 10713 10712 10709 ] final   18.51 input   66.30 | X-H torsion
[ 10763 10752 10751 10750 ] final -133.74 input  -60.55 | X-H torsion
[ 11005 11000 10999 10996 ] final   19.54 input  -57.11 | X-H torsion

> <Gold.Protein.ActiveResidues>
 VAL166  LYS551  ARG553  GLY616  TRP617  ASP618  TYR619  PRO620  LYS621  CYS622 
 ASP623  PHE694  ASN695  SER759  ASP760  ASP761  ALA762  ILE779  LEU786  VAL792 
 PHE793  MET794  SER795  GLU796  ALA797  LYS798  CYS799  TRP800  GLU811  SER814 

> <Gold.Protein.RotatedAtoms>
  152.3481  133.6146  159.5924 H   0  0  0  0  0  0  0  0  0  0  0  0  # atno 6907 bound_to 6896
  150.7520  133.9617  159.3526 H   0  0  0  0  0  0  0  0  0  0  0  0  # atno 6908 bound_to 6896
  151.7473  135.0841  160.0376 H   0  0  0  0  0  0  0  0  0  0  0  0  # atno 6909 bound_to 6896
  146.0916  140.5907  142.8861 H   0  0  0  0  0  0  0  0  0  0  0  0  # atno 7974 bound_to 7965
  154.5179  140.2212  155.9032 H   0  0  0  0  0  0  0  0  0  0  0  0  # atno 8008 bound_to 7997
  156.1628  140.3138  155.8802 H   0  0  0  0  0  0  0  0  0  0  0  0  # atno 8009 bound_to 7997
  155.3717  140.0467  157.3036 H   0  0  0  0  0  0  0  0  0  0  0  0  # atno 8010 bound_to 7997
  140.7220  143.5205  150.9639 H   0  0  0  0  0  0  0  0  0  0  0  0  # atno 10167 bound_to 10162
  157.0973  130.6453  149.5863 H   0  0  0  0  0  0  0  0  0  0  0  0  # atno 10718 bound_to 10713
  154.8729  135.3756  154.4622 H   0  0  0  0  0  0  0  0  0  0  0  0  # atno 10763 bound_to 10752
  153.5289  135.7028  153.5698 H   0  0  0  0  0  0  0  0  0  0  0  0  # atno 10764 bound_to 10752
  153.3912  135.3972  155.1889 H   0  0  0  0  0  0  0  0  0  0  0  0  # atno 10765 bound_to 10752
  140.4125  134.1603  155.7668 H   0  0  0  0  0  0  0  0  0  0  0  0  # atno 11005 bound_to 11000
  144.7365  140.4822  143.6900 LP  0  0  0  0  0  0  0  0  0  0  0  0  # atno 17320 bound_to 7965
  145.6027  139.1505  143.3120 LP  0  0  0  0  0  0  0  0  0  0  0  0  # atno 17321 bound_to 7965
  139.8923  143.6938  152.3143 LP  0  0  0  0  0  0  0  0  0  0  0  0  # atno 17342 bound_to 10162
  139.7258  144.7593  151.0881 LP  0  0  0  0  0  0  0  0  0  0  0  0  # atno 17343 bound_to 10162
  155.9882  130.4925  150.7161 LP  0  0  0  0  0  0  0  0  0  0  0  0  # atno 17370 bound_to 10713
  157.4670  131.0889  151.0684 LP  0  0  0  0  0  0  0  0  0  0  0  0  # atno 17371 bound_to 10713
  141.1815  133.8403  157.1239 LP  0  0  0  0  0  0  0  0  0  0  0  0  # atno 17394 bound_to 11000
  140.0257  134.9925  157.0681 LP  0  0  0  0  0  0  0  0  0  0  0  0  # atno 17395 bound_to 11000

$$$$
