AV-unprocessed.smi:2095|AV-procd|sdf|8559|dock3
  -GOLD-   2272011283D 1   1.00000     0.00000
 Structure written by MMmdl.
 42 43  0  0  0  0  0  0  0  0  2 V2000
  146.1646  137.6959  152.0651 C   0  0  0  0  0  0  0  0  0  0  0  0
  145.2104  136.5797  152.5269 C   0  0  1  0  0  0  0  0  0  0  0  0
  144.6360  135.7685  151.3535 C   0  0  0  0  0  0  0  0  0  0  0  0
  145.6944  134.8274  150.7685 C   0  0  0  0  0  0  0  0  0  0  0  0
  146.2963  133.9393  151.8665 C   0  0  0  0  0  0  0  0  0  0  0  0
  146.8897  134.7498  152.9682 N   0  3  2  0  0  0  0  0  0  0  0  0
  147.6790  133.9007  153.9213 C   0  0  1  0  0  0  0  0  0  0  0  0
  148.6293  132.9838  153.1198 C   0  0  0  0  0  0  0  0  0  0  0  0
  148.4584  134.6989  155.0032 C   0  0  0  0  0  0  0  0  0  0  0  0
  149.0286  135.9423  154.4880 N   0  0  0  0  0  0  0  0  0  0  0  0
  149.4692  136.9676  155.2345 C   0  0  0  0  0  0  0  0  0  0  0  0
  149.4262  136.9754  156.4647 O   0  0  0  0  0  0  0  0  0  0  0  0
  150.0325  138.1717  154.4754 C   0  0  0  0  0  0  0  0  0  0  0  0
  151.4257  138.4056  154.8086 N   0  0  0  0  0  0  0  0  0  0  0  0
  152.0135  139.4037  155.4716 C   0  0  0  0  0  0  0  0  0  0  0  0
  153.3238  139.2312  155.5546 N   0  0  0  0  0  0  0  0  0  0  0  0
  153.5262  138.0344  154.8877 N   0  0  0  0  0  0  0  0  0  0  0  0
  152.4034  137.5393  154.4437 N   0  0  0  0  0  0  0  0  0  0  0  0
  145.8629  135.6502  153.5734 C   0  0  0  0  0  0  0  0  0  0  0  0
  147.0615  137.2965  151.5915 H   0  0  0  0  0  0  0  0  0  0  0  0
  146.4848  138.3102  152.9072 H   0  0  0  0  0  0  0  0  0  0  0  0
  145.6764  138.3558  151.3476 H   0  0  0  0  0  0  0  0  0  0  0  0
  144.3719  137.0791  153.0140 H   0  0  0  0  0  0  0  0  0  0  0  0
  143.7885  135.1781  151.7046 H   0  0  0  0  0  0  0  0  0  0  0  0
  144.2474  136.4319  150.5801 H   0  0  0  0  0  0  0  0  0  0  0  0
  145.2457  134.2050  149.9938 H   0  0  0  0  0  0  0  0  0  0  0  0
  146.4831  135.4012  150.2808 H   0  0  0  0  0  0  0  0  0  0  0  0
  145.5266  133.2825  152.2752 H   0  0  0  0  0  0  0  0  0  0  0  0
  147.0449  133.2908  151.4138 H   0  0  0  0  0  0  0  0  0  0  0  0
  146.9705  133.2675  154.4582 H   0  0  0  0  0  0  0  0  0  0  0  0
  149.1216  132.2535  153.7613 H   0  0  0  0  0  0  0  0  0  0  0  0
  149.4071  133.5648  152.6229 H   0  0  0  0  0  0  0  0  0  0  0  0
  148.1105  132.4112  152.3526 H   0  0  0  0  0  0  0  0  0  0  0  0
  147.8216  134.8961  155.8674 H   0  0  0  0  0  0  0  0  0  0  0  0
  149.3070  134.1193  155.3668 H   0  0  0  0  0  0  0  0  0  0  0  0
  149.1011  136.0267  153.4842 H   0  0  0  0  0  0  0  0  0  0  0  0
  149.9555  138.0215  153.3974 H   0  0  0  0  0  0  0  0  0  0  0  0
  149.4470  139.0592  154.7198 H   0  0  0  0  0  0  0  0  0  0  0  0
  151.4863  140.2493  155.8881 H   0  0  0  0  0  0  0  0  0  0  0  0
  146.2997  136.2869  154.3419 H   0  0  0  0  0  0  0  0  0  0  0  0
  145.0977  135.0427  154.0595 H   0  0  0  0  0  0  0  0  0  0  0  0
  147.5624  135.3701  152.5402 H   0  0  0  0  0  0  0  0  0  0  0  0
  1  2  1  0  0  0  0
  1 20  1  0  0  0  0
  1 21  1  0  0  0  0
  1 22  1  0  0  0  0
  2 19  1  0  0  0  0
  2  3  1  0  0  0  0
  2 23  1  0  0  0  0
  3  4  1  0  0  0  0
  3 24  1  0  0  0  0
  3 25  1  0  0  0  0
  4  5  1  0  0  0  0
  4 26  1  0  0  0  0
  4 27  1  0  0  0  0
  5  6  1  0  0  0  0
  5 28  1  0  0  0  0
  5 29  1  0  0  0  0
  6  7  1  0  0  0  0
  6 19  1  0  0  0  0
  6 42  1  0  0  0  0
  7  8  1  0  0  0  0
  7  9  1  0  0  0  0
  7 30  1  0  0  0  0
  8 31  1  0  0  0  0
  8 32  1  0  0  0  0
  8 33  1  0  0  0  0
  9 10  1  0  0  0  0
  9 34  1  0  0  0  0
  9 35  1  0  0  0  0
 10 11  1  0  0  0  0
 10 36  1  0  0  0  0
 11 12  2  0  0  0  0
 11 13  1  0  0  0  0
 13 14  1  0  0  0  0
 13 37  1  0  0  0  0
 13 38  1  0  0  0  0
 14 18  1  0  0  0  0
 14 15  1  0  0  0  0
 15 16  2  0  0  0  0
 15 39  1  0  0  0  0
 16 17  1  0  0  0  0
 17 18  2  0  0  0  0
 19 40  1  0  0  0  0
 19 41  1  0  0  0  0
M  CHG  1   6   1
M  END
> <s_m_source_file>
AV-unprocessed.smi

> <i_m_source_file_index>
2095

> <i_lp_mmshare_version>
43012

> <i_f3d_flags>
0

> <s_epik_input>
W0NIM11bQ0BASF0xW0NIMl1bQ0gyXVtDSDJdTihbQ0gyXTEpW0NASF0oW0NIM10pW0NIMl1bTkhdQyg9TylbQ0gyXW4yW2NIXW5ubjI=

> <s_epik_cmdline>
J2VwaWtfcHl0aG9uJywgJy1waCcsICc3LjAnLCAnLXRuJywgJzgnLCAnLW1hJywgJzIwMCcsICctbWV0YWxfYmluZGluZycsICctaW1hZScsICc8aW5maWxlLm1hZT4nLCAnLW9tYWUnLCAnPG91dGZpbGUubWFlPic=

> <r_lp_tautomer_probability>
1

> <r_epik_Ionization_Penalty>
0.00268321

> <r_epik_Ionization_Penalty_Charging>
0.00267875

> <r_epik_Ionization_Penalty_Neutral>
4.46125e-06

> <r_epik_State_Penalty>
0.00186642

> <r_epik_Charging_Adjusted_Penalty>
0.00454517

> <i_epik_Tot_Q>
1

> <i_epik_Tot_abs_Q>
1

> <r_epik_Metal_State_Penalty>
-0

> <b_epik_Metal_Only>
0

> <s_lp_Force_Field>
OPLS_2005

> <r_lp_Energy>
29.9009

> <b_lp_Chiralities_Consistent>
1

> <s_lp_Variant>
AV-unprocessed.smi:2095-6

> <Gold.Version>
5.8.1

> <Gold.Id.Protein>
6NUR|6NUR_protein|mol2

> <Gold.PLP.Fitness>
45.3895

> <Gold.PLP.PLP>
-32.5232

> <Gold.PLP.part.hbond>
-4.8060

> <Gold.PLP.part.metal>
0.0000

> <Gold.PLP.part.buried>
-3.9634

> <Gold.PLP.part.nonpolar>
-24.6266

> <Gold.PLP.part.repulsive>
0.1604

> <Gold.PLP.ligand.clash>
0.0000

> <Gold.PLP.ligand.torsion>
0.4815

> <Gold.PLP.Chemscore.Hbond>
4.5817

> <Gold.PLP.Chemscore.CHOScore>
0.0000

> <Gold.PLP.Chemscore.Metal>
0.0000

> <Gold.Chemscore.Hbonds>
donor molecule, donor type, donor heavy atom, donor atom, acceptor molecule, acceptor atom, score
      L1  H     6    42       P1  7948  2.00
      L1  H    10    36       P1  7948  1.00
      P1  H  7997  8010       L1    16  0.99
      P1  H 10752 10763       L1    18  0.59

> <Gold.PLP.Chemscore.Internal.Correction>
0.0843

> <Gold.Rescore>
     Score         DG    S(hbond)    S(metal)    S(lipo)     H(rot)  DE(clash)    DE(int)     intcor
     14.09     -14.69       3.00        0.00      50.83       2.64       0.05       0.55       ----

> <Gold.Chemscore.Fitness>
14.0898

> <Gold.Chemscore.DG>
-14.6920

> <Gold.Chemscore.ZeroCoef>
-5.4800

> <Gold.Chemscore.Hbond>
3.0041

> <Gold.Chemscore.Metal>
0.0000

> <Gold.Chemscore.Lipo>
50.8267

> <Gold.Chemscore.Internal_Hbond>
0.0000

> <Gold.Chemscore.DEClash>
0.0529

> <Gold.Chemscore.DEInternal>
0.5492

> <Gold.Chemscore.Rot>
2.6439

> <Gold.Chemscore.Internal.Correction>
   9.000000E+99

> <Gold.Chemscore.Hbonds>
donor molecule, donor type, donor heavy atom, donor atom, acceptor molecule, acceptor atom, score
      L1  H     6    42       P1  7948  1.00
      L1  H    10    36       P1  7948  0.90
      P1  H  7997  8010       L1    16  0.87
      P1  H 10752 10763       L1    18  0.12

> <Gold.Chemscore.Hbond.Weighted>
-10.0337

> <Gold.Chemscore.Metal.Weighted>
-0.0000

> <Gold.Chemscore.Lipo.Weighted>
-5.9467

> <Gold.Chemscore.Internal_Hbond.Weighted>
0.0000

> <Gold.Chemscore.DEClash.Weighted>
0.0529

> <Gold.Chemscore.DEInternal.Weighted>
0.5492

> <Gold.Chemscore.Rot.Weighted>
6.7685

> <Gold.Chemscore.Internal.Correction.Weighted>
   9.000000E+99

> <Gold.Protein.RotatedTorsions>
[ 6907 6896 6895 6894 ] final -125.64 input  -60.11 | X-H torsion
[ 7974 7965 7964 7962 ] final -160.12 input  175.53 | X-H torsion
[ 8008 7997 7996 7995 ] final  110.86 input   59.86 | X-H torsion
[ 10167 10162 10161 10158 ] final  -91.59 input  -65.29 | X-H torsion
[ 10718 10713 10712 10709 ] final   24.39 input   66.30 | X-H torsion
[ 10763 10752 10751 10750 ] final   38.32 input  -60.55 | X-H torsion
[ 11005 11000 10999 10996 ] final  -49.56 input  -57.11 | X-H torsion

> <Gold.Protein.ActiveResidues>
 VAL166  LYS551  ARG553  GLY616  TRP617  ASP618  TYR619  PRO620  LYS621  CYS622 
 ASP623  PHE694  ASN695  SER759  ASP760  ASP761  ALA762  ILE779  LEU786  VAL792 
 PHE793  MET794  SER795  GLU796  ALA797  LYS798  CYS799  TRP800  GLU811  SER814 

> <Gold.Protein.RotatedAtoms>
  150.8888  133.7271  159.2910 H   0  0  0  0  0  0  0  0  0  0  0  0  # atno 6907 bound_to 6896
  151.4828  135.1052  159.9792 H   0  0  0  0  0  0  0  0  0  0  0  0  # atno 6908 bound_to 6896
  152.4807  133.8200  159.7104 H   0  0  0  0  0  0  0  0  0  0  0  0  # atno 6909 bound_to 6896
  144.7439  140.3587  143.6100 H   0  0  0  0  0  0  0  0  0  0  0  0  # atno 7974 bound_to 7965
  156.2083  140.3030  155.9676 H   0  0  0  0  0  0  0  0  0  0  0  0  # atno 8008 bound_to 7997
  155.2786  140.0437  157.3030 H   0  0  0  0  0  0  0  0  0  0  0  0  # atno 8009 bound_to 7997
  154.5664  140.2335  155.8265 H   0  0  0  0  0  0  0  0  0  0  0  0  # atno 8010 bound_to 7997
  140.3433  143.2930  151.9810 H   0  0  0  0  0  0  0  0  0  0  0  0  # atno 10167 bound_to 10162
  157.1791  130.6794  149.6106 H   0  0  0  0  0  0  0  0  0  0  0  0  # atno 10718 bound_to 10713
  153.0005  135.6253  154.2286 H   0  0  0  0  0  0  0  0  0  0  0  0  # atno 10763 bound_to 10752
  154.2028  135.2803  155.2986 H   0  0  0  0  0  0  0  0  0  0  0  0  # atno 10764 bound_to 10752
  154.5670  135.5688  153.7118 H   0  0  0  0  0  0  0  0  0  0  0  0  # atno 10765 bound_to 10752
  141.0766  133.6664  156.3603 H   0  0  0  0  0  0  0  0  0  0  0  0  # atno 11005 bound_to 11000
  145.7200  139.1707  143.2490 LP  0  0  0  0  0  0  0  0  0  0  0  0  # atno 17320 bound_to 7965
  146.1284  140.7218  142.9424 LP  0  0  0  0  0  0  0  0  0  0  0  0  # atno 17321 bound_to 7965
  139.4837  144.6138  151.7384 LP  0  0  0  0  0  0  0  0  0  0  0  0  # atno 17342 bound_to 10162
  140.5288  144.0763  150.6046 LP  0  0  0  0  0  0  0  0  0  0  0  0  # atno 17343 bound_to 10162
  155.9727  130.4652  150.6247 LP  0  0  0  0  0  0  0  0  0  0  0  0  # atno 17370 bound_to 10713
  157.3969  131.0804  151.1343 LP  0  0  0  0  0  0  0  0  0  0  0  0  # atno 17371 bound_to 10713
  140.5560  134.5981  157.5421 LP  0  0  0  0  0  0  0  0  0  0  0  0  # atno 17394 bound_to 11000
  139.9578  134.7504  156.0303 LP  0  0  0  0  0  0  0  0  0  0  0  0  # atno 17395 bound_to 11000

$$$$
