AV-unprocessed.smi:72|AV-procd|sdf|675|dock3
  -GOLD-   2262016583D 1   1.00000     0.00000
 Structure written by MMmdl.
 29 30  0  0  0  0  0  0  0  0  1 V2000
  153.3996  137.8121  155.0640 N   0  0  0  0  0  0  0  0  0  0  0  0
  152.3711  138.5641  155.2340 C   0  0  0  0  0  0  0  0  0  0  0  0
  152.3673  139.7898  155.9172 N   0  0  0  0  0  0  0  0  0  0  0  0
  151.2522  140.4462  156.0110 C   0  0  0  0  0  0  0  0  0  0  0  0
  150.0115  139.9538  155.4332 N   0  0  0  0  0  0  0  0  0  0  0  0
  148.7238  140.7402  155.5638 C   0  0  2  0  0  0  0  0  0  0  0  0
  147.6998  139.8700  155.9430 O   0  0  0  0  0  0  0  0  0  0  0  0
  146.5016  140.2246  155.2611 C   0  0  2  0  0  0  0  0  0  0  0  0
  145.5054  139.0515  155.2340 C   0  0  0  0  0  0  0  0  0  0  0  0
  144.2225  139.5113  154.8655 O   0  0  0  0  0  0  0  0  0  0  0  0
  147.0055  140.6970  153.8897 C   0  0  2  0  0  0  0  0  0  0  0  0
  147.2337  139.5955  153.0259 O   0  0  0  0  0  0  0  0  0  0  0  0
  148.2931  141.4317  154.2523 C   0  0  2  0  0  0  0  0  0  0  0  0
  149.2520  141.4331  153.2077 O   0  0  0  0  0  0  0  0  0  0  0  0
  149.9946  138.7126  154.7510 C   0  0  0  0  0  0  0  0  0  0  0  0
  148.9698  138.2362  154.2639 O   0  0  0  0  0  0  0  0  0  0  0  0
  151.1828  138.0743  154.6745 N   0  0  0  0  0  0  0  0  0  0  0  0
  148.8732  141.4512  156.3777 H   0  0  0  0  0  0  0  0  0  0  0  0
  146.0570  141.0816  155.7713 H   0  0  0  0  0  0  0  0  0  0  0  0
  146.2877  141.3604  153.4063 H   0  0  0  0  0  0  0  0  0  0  0  0
  148.0544  142.4667  154.5006 H   0  0  0  0  0  0  0  0  0  0  0  0
  153.1517  136.9836  154.5431 H   0  0  0  0  0  0  0  0  0  0  0  0
  151.1726  141.4031  156.5284 H   0  0  0  0  0  0  0  0  0  0  0  0
  145.8126  138.3161  154.4899 H   0  0  0  0  0  0  0  0  0  0  0  0
  145.4627  138.5423  156.1976 H   0  0  0  0  0  0  0  0  0  0  0  0
  144.2205  139.6824  153.9361 H   0  0  0  0  0  0  0  0  0  0  0  0
  147.9106  139.8346  152.4112 H   0  0  0  0  0  0  0  0  0  0  0  0
  149.0301  140.7438  152.6003 H   0  0  0  0  0  0  0  0  0  0  0  0
  151.2038  137.1887  154.1909 H   0  0  0  0  0  0  0  0  0  0  0  0
  1  2  2  0  0  0  0
  1 22  1  0  0  0  0
  2 17  1  0  0  0  0
  2  3  1  0  0  0  0
  3  4  2  0  0  0  0
  4  5  1  0  0  0  0
  4 23  1  0  0  0  0
  5  6  1  0  0  0  0
  5 15  1  0  0  0  0
  6 18  1  0  0  0  0
  6 13  1  0  0  0  0
  6  7  1  0  0  0  0
  7  8  1  0  0  0  0
  8 19  1  0  0  0  0
  8  9  1  0  0  0  0
  8 11  1  0  0  0  0
  9 10  1  0  0  0  0
  9 24  1  0  0  0  0
  9 25  1  0  0  0  0
 10 26  1  0  0  0  0
 11 20  1  0  0  0  0
 11 12  1  0  0  0  0
 11 13  1  0  0  0  0
 12 27  1  0  0  0  0
 13 21  1  0  0  0  0
 13 14  1  0  0  0  0
 14 28  1  0  0  0  0
 15 16  2  0  0  0  0
 15 17  1  0  0  0  0
 17 29  1  0  0  0  0
M  END
> <s_m_source_file>
AV-unprocessed.smi

> <i_m_source_file_index>
72

> <i_lp_mmshare_version>
43012

> <i_f3d_flags>
0

> <s_epik_input>
W05IMl1jMW5bY0hdbihjKD1PKW4xKVtDQEBIXTJPW0NASF0oW0NIMl1bT0hdKVtDQEBIXShbT0hdKVtDQEhdMltPSF0=

> <s_epik_cmdline>
J2VwaWtfcHl0aG9uJywgJy1waCcsICc3LjAnLCAnLXRuJywgJzgnLCAnLW1hJywgJzIwMCcsICctbWV0YWxfYmluZGluZycsICctaW1hZScsICc8aW5maWxlLm1hZT4nLCAnLW9tYWUnLCAnPG91dGZpbGUubWFlPic=

> <r_lp_tautomer_probability>
7.17554e-07

> <r_epik_Ionization_Penalty>
0.0066451

> <r_epik_Ionization_Penalty_Charging>
0.00663793

> <r_epik_Ionization_Penalty_Neutral>
7.17052e-06

> <r_epik_State_Penalty>
0.419231

> <r_epik_Charging_Adjusted_Penalty>
0.425868

> <i_epik_Tot_Q>
0

> <i_epik_Tot_abs_Q>
0

> <r_epik_Metal_State_Penalty>
1.44144

> <b_epik_Metal_Only>
0

> <s_epik_Chemistry_Notes>
This compound contains an acetal/aminal-like group ( X-CH(R)-Y where X, Y are N, S, or O) that may be acid/base labile, releasing an aldehyde.

> <s_lp_Force_Field>
OPLS_2005

> <r_lp_Energy>
49.9877

> <b_lp_Chiralities_Consistent>
1

> <s_lp_Variant>
AV-unprocessed.smi:72-13

> <Gold.Version>
5.8.1

> <Gold.Id.Protein>
6NUR|6NUR_protein|mol2

> <Gold.PLP.Fitness>
37.1249

> <Gold.PLP.PLP>
-24.4618

> <Gold.PLP.part.hbond>
-6.1528

> <Gold.PLP.part.metal>
0.0000

> <Gold.PLP.part.buried>
-3.0151

> <Gold.PLP.part.nonpolar>
-15.2965

> <Gold.PLP.part.repulsive>
0.3282

> <Gold.PLP.ligand.clash>
0.0000

> <Gold.PLP.ligand.torsion>
0.4703

> <Gold.PLP.Chemscore.Hbond>
4.5324

> <Gold.PLP.Chemscore.CHOScore>
0.0000

> <Gold.PLP.Chemscore.Metal>
0.0000

> <Gold.Chemscore.Hbonds>
donor molecule, donor type, donor heavy atom, donor atom, acceptor molecule, acceptor atom, score
      L1  H    10    26       P1 10175  1.00
      L1  H    12    27       P1  7957  0.83
      L1  H    14    28       P1  7957  0.78
      P1  H  7997  8009       L1     3  0.96
      P1  H  8011  8017       L1    14  0.73

> <Gold.PLP.Chemscore.Internal.Correction>
0.0065

> <Gold.Rescore>
     Score         DG    S(hbond)    S(metal)    S(lipo)     H(rot)  DE(clash)    DE(int)     intcor
      6.74     -10.54       3.99        0.00      18.31       4.06       0.02       3.79       ----

> <Gold.Chemscore.Fitness>
6.7401

> <Gold.Chemscore.DG>
-10.5438

> <Gold.Chemscore.ZeroCoef>
-5.4800

> <Gold.Chemscore.Hbond>
3.9867

> <Gold.Chemscore.Metal>
0.0000

> <Gold.Chemscore.Lipo>
18.3066

> <Gold.Chemscore.Internal_Hbond>
0.0000

> <Gold.Chemscore.DEClash>
0.0162

> <Gold.Chemscore.DEInternal>
3.7875

> <Gold.Chemscore.Rot>
4.0600

> <Gold.Chemscore.Internal.Correction>
   9.000000E+99

> <Gold.Chemscore.Hbonds>
donor molecule, donor type, donor heavy atom, donor atom, acceptor molecule, acceptor atom, score
      L1  H    10    26       P1 10175  0.98
      L1  H    12    27       P1  7957  0.80
      L1  H    14    28       P1  7957  0.78
      P1  H  7997  8009       L1     3  0.32
      P1  H  8011  8017       L1    14  0.21

> <Gold.Chemscore.Hbond.Weighted>
-13.3155

> <Gold.Chemscore.Metal.Weighted>
-0.0000

> <Gold.Chemscore.Lipo.Weighted>
-2.1419

> <Gold.Chemscore.Internal_Hbond.Weighted>
0.0000

> <Gold.Chemscore.DEClash.Weighted>
0.0162

> <Gold.Chemscore.DEInternal.Weighted>
3.7875

> <Gold.Chemscore.Rot.Weighted>
10.3936

> <Gold.Chemscore.Internal.Correction.Weighted>
   9.000000E+99

> <Gold.Protein.RotatedTorsions>
[ 6907 6896 6895 6894 ] final  118.16 input  -60.11 | X-H torsion
[ 7974 7965 7964 7962 ] final   89.97 input  175.53 | X-H torsion
[ 8008 7997 7996 7995 ] final -146.32 input   59.86 | X-H torsion
[ 10167 10162 10161 10158 ] final   91.93 input  -65.29 | X-H torsion
[ 10718 10713 10712 10709 ] final -107.20 input   66.30 | X-H torsion
[ 10763 10752 10751 10750 ] final  -51.98 input  -60.55 | X-H torsion
[ 11005 11000 10999 10996 ] final   62.83 input  -57.11 | X-H torsion

> <Gold.Protein.ActiveResidues>
 VAL166  LYS551  ARG553  GLY616  TRP617  ASP618  TYR619  PRO620  LYS621  CYS622 
 ASP623  PHE694  ASN695  SER759  ASP760  ASP761  ALA762  ILE779  LEU786  VAL792 
 PHE793  MET794  SER795  GLU796  ALA797  LYS798  CYS799  TRP800  GLU811  SER814 

> <Gold.Protein.RotatedAtoms>
  152.4562  133.7728  159.6807 H   0  0  0  0  0  0  0  0  0  0  0  0  # atno 6907 bound_to 6896
  150.8489  133.7807  159.3039 H   0  0  0  0  0  0  0  0  0  0  0  0  # atno 6908 bound_to 6896
  151.5409  135.1071  159.9978 H   0  0  0  0  0  0  0  0  0  0  0  0  # atno 6909 bound_to 6896
  145.5252  139.2281  143.2649 H   0  0  0  0  0  0  0  0  0  0  0  0  # atno 7974 bound_to 7965
  155.5575  140.0622  157.2836 H   0  0  0  0  0  0  0  0  0  0  0  0  # atno 8008 bound_to 7997
  154.4401  140.1891  156.0794 H   0  0  0  0  0  0  0  0  0  0  0  0  # atno 8009 bound_to 7997
  156.0471  140.3289  155.7313 H   0  0  0  0  0  0  0  0  0  0  0  0  # atno 8010 bound_to 7997
  139.8327  144.6679  150.9380 H   0  0  0  0  0  0  0  0  0  0  0  0  # atno 10167 bound_to 10162
  156.0425  130.5650  150.7787 H   0  0  0  0  0  0  0  0  0  0  0  0  # atno 10718 bound_to 10713
  154.1353  135.6513  153.4930 H   0  0  0  0  0  0  0  0  0  0  0  0  # atno 10763 bound_to 10752
  153.0182  135.5302  154.6959 H   0  0  0  0  0  0  0  0  0  0  0  0  # atno 10764 bound_to 10752
  154.6206  135.2964  155.0301 H   0  0  0  0  0  0  0  0  0  0  0  0  # atno 10765 bound_to 10752
  140.0065  134.6361  155.9846 H   0  0  0  0  0  0  0  0  0  0  0  0  # atno 11005 bound_to 11000
  146.2080  140.6066  142.9072 LP  0  0  0  0  0  0  0  0  0  0  0  0  # atno 17320 bound_to 7965
  144.7655  140.5520  143.6706 LP  0  0  0  0  0  0  0  0  0  0  0  0  # atno 17321 bound_to 7965
  140.7805  143.3986  151.1187 LP  0  0  0  0  0  0  0  0  0  0  0  0  # atno 17342 bound_to 10162
  139.7638  143.8595  152.3106 LP  0  0  0  0  0  0  0  0  0  0  0  0  # atno 17343 bound_to 10162
  157.5261  131.0934  151.0016 LP  0  0  0  0  0  0  0  0  0  0  0  0  # atno 17370 bound_to 10713
  157.0334  130.5720  149.5346 LP  0  0  0  0  0  0  0  0  0  0  0  0  # atno 17371 bound_to 10713
  141.1681  133.6537  156.4551 LP  0  0  0  0  0  0  0  0  0  0  0  0  # atno 17394 bound_to 11000
  140.4631  134.6823  157.5095 LP  0  0  0  0  0  0  0  0  0  0  0  0  # atno 17395 bound_to 11000

$$$$
