AV-unprocessed.smi:304|AV-procd|sdf|2279|dock7
  -GOLD-   2262022173D 1   1.00000     0.00000
 Structure written by MMmdl.
 37 39  0  0  0  0  0  0  0  0  2 V2000
  151.0742  140.3139  155.0612 O   0  0  0  0  0  0  0  0  0  0  0  0
  150.7688  141.3867  155.9306 C   0  0  1  0  0  0  0  0  0  0  0  0
  149.2944  141.2740  156.3468 C   0  0  0  0  0  0  0  0  0  0  0  0
  148.5394  140.8472  155.2258 O   0  0  0  0  0  0  0  0  0  0  0  0
  148.4423  141.8372  154.2153 C   0  0  0  0  0  0  0  0  0  0  0  0
  147.1552  142.5675  154.4253 C   0  0  0  0  0  0  0  0  0  0  0  0
  146.5845  143.4947  153.5907 C   0  0  0  0  0  0  0  0  0  0  0  0
  145.3558  144.0198  154.0882 C   0  0  0  0  0  0  0  0  0  0  0  0
  145.0068  143.4945  155.3038 C   0  0  0  0  0  0  0  0  0  0  0  0
  146.1859  142.3402  155.8632 S   0  0  0  0  0  0  0  0  0  0  0  0
  151.7182  141.3292  157.1437 C   0  0  0  0  0  0  0  0  0  0  0  0
  151.5534  142.4742  158.0490 N   0  0  0  0  0  0  0  0  0  0  0  0
  150.8690  143.6372  157.8731 C   0  0  0  0  0  0  0  0  0  0  0  0
  151.0133  144.3742  159.0094 N   0  3  0  0  0  0  0  0  0  0  0  0
  151.8011  143.6716  159.9244 C   0  0  0  0  0  0  0  0  0  0  0  0
  152.2240  144.0018  161.2079 C   0  0  0  0  0  0  0  0  0  0  0  0
  153.0256  143.0528  161.8765 C   0  0  0  0  0  0  0  0  0  0  0  0
  153.4664  143.3246  163.1275 F   0  0  0  0  0  0  0  0  0  0  0  0
  153.3758  141.8285  161.2680 C   0  0  0  0  0  0  0  0  0  0  0  0
  154.1454  140.9446  161.9458 F   0  0  0  0  0  0  0  0  0  0  0  0
  152.9404  141.5046  159.9660 C   0  0  0  0  0  0  0  0  0  0  0  0
  152.1510  142.4497  159.3129 C   0  0  0  0  0  0  0  0  0  0  0  0
  150.4920  139.5957  155.2589 H   0  0  0  0  0  0  0  0  0  0  0  0
  150.9250  142.3258  155.3983 H   0  0  0  0  0  0  0  0  0  0  0  0
  149.1709  140.5971  157.1942 H   0  0  0  0  0  0  0  0  0  0  0  0
  148.9237  142.2526  156.6564 H   0  0  0  0  0  0  0  0  0  0  0  0
  149.2808  142.5322  154.2790 H   0  0  0  0  0  0  0  0  0  0  0  0
  148.4601  141.3768  153.2263 H   0  0  0  0  0  0  0  0  0  0  0  0
  147.0017  143.8096  152.6458 H   0  0  0  0  0  0  0  0  0  0  0  0
  144.7806  144.7552  153.5454 H   0  0  0  0  0  0  0  0  0  0  0  0
  144.1355  143.7150  155.9025 H   0  0  0  0  0  0  0  0  0  0  0  0
  151.5681  140.4132  157.7166 H   0  0  0  0  0  0  0  0  0  0  0  0
  152.7574  141.3199  156.8120 H   0  0  0  0  0  0  0  0  0  0  0  0
  150.3083  143.9202  156.9937 H   0  0  0  0  0  0  0  0  0  0  0  0
  151.9571  144.9370  161.6777 H   0  0  0  0  0  0  0  0  0  0  0  0
  153.2118  140.5646  159.5095 H   0  0  0  0  0  0  0  0  0  0  0  0
  150.6006  145.2880  159.1475 H   0  0  0  0  0  0  0  0  0  0  0  0
  1  2  1  0  0  0  0
  1 23  1  0  0  0  0
  2  3  1  0  0  0  0
  2 11  1  0  0  0  0
  2 24  1  0  0  0  0
  3  4  1  0  0  0  0
  3 25  1  0  0  0  0
  3 26  1  0  0  0  0
  4  5  1  0  0  0  0
  5  6  1  0  0  0  0
  5 27  1  0  0  0  0
  5 28  1  0  0  0  0
  6 10  1  0  0  0  0
  6  7  2  0  0  0  0
  7  8  1  0  0  0  0
  7 29  1  0  0  0  0
  8  9  2  0  0  0  0
  8 30  1  0  0  0  0
  9 10  1  0  0  0  0
  9 31  1  0  0  0  0
 11 12  1  0  0  0  0
 11 32  1  0  0  0  0
 11 33  1  0  0  0  0
 12 22  1  0  0  0  0
 12 13  1  0  0  0  0
 13 14  2  0  0  0  0
 13 34  1  0  0  0  0
 14 15  1  0  0  0  0
 14 37  1  0  0  0  0
 15 22  2  0  0  0  0
 15 16  1  0  0  0  0
 16 17  2  0  0  0  0
 16 35  1  0  0  0  0
 17 18  1  0  0  0  0
 17 19  1  0  0  0  0
 19 20  1  0  0  0  0
 19 21  2  0  0  0  0
 21 22  1  0  0  0  0
 21 36  1  0  0  0  0
M  CHG  1  14   1
M  END
> <s_m_source_file>
AV-unprocessed.smi

> <i_m_source_file_index>
304

> <i_lp_mmshare_version>
43012

> <i_f3d_flags>
0

> <s_epik_input>
W2NIXTFjKEYpYyhGKVtjSF1jKGMxMiluKFtjSF1uMilbQ0gyXVtDQEhdKFtPSF0pW0NIMl1PW0NIMl1jM1tjSF1bY0hdW2NIXXMz

> <s_epik_cmdline>
J2VwaWtfcHl0aG9uJywgJy1waCcsICc3LjAnLCAnLXRuJywgJzgnLCAnLW1hJywgJzIwMCcsICctbWV0YWxfYmluZGluZycsICctaW1hZScsICc8aW5maWxlLm1hZT4nLCAnLW9tYWUnLCAnPG91dGZpbGUubWFlPic=

> <r_epik_Ionization_Penalty>
2.17745

> <r_epik_Ionization_Penalty_Charging>
2.17744

> <r_epik_Ionization_Penalty_Neutral>
1.26231e-06

> <r_epik_State_Penalty>
2.31922

> <r_epik_Charging_Adjusted_Penalty>
4.49666

> <i_epik_Tot_Q>
1

> <i_epik_Tot_abs_Q>
1

> <r_epik_Metal_State_Penalty>
6.40003

> <b_epik_Metal_Only>
0

> <s_lp_Force_Field>
OPLS_2005

> <r_lp_Energy>
12.5781

> <b_lp_Chiralities_Consistent>
1

> <s_lp_Variant>
AV-unprocessed.smi:304-4

> <Gold.Version>
5.8.1

> <Gold.Id.Protein>
6NUR|6NUR_protein|mol2

> <Gold.PLP.Fitness>
58.5530

> <Gold.PLP.PLP>
-53.7979

> <Gold.PLP.part.hbond>
-1.0000

> <Gold.PLP.part.metal>
0.0000

> <Gold.PLP.part.buried>
-6.4589

> <Gold.PLP.part.nonpolar>
-45.3971

> <Gold.PLP.part.repulsive>
0.1872

> <Gold.PLP.ligand.clash>
0.0000

> <Gold.PLP.ligand.torsion>
0.6886

> <Gold.PLP.Chemscore.Hbond>
1.0000

> <Gold.PLP.Chemscore.CHOScore>
1.0000

> <Gold.PLP.Chemscore.Metal>
0.0000

> <Gold.Chemscore.Hbonds>
donor molecule, donor type, donor heavy atom, donor atom, acceptor molecule, acceptor atom, score
      P1  H  7989  7998       L1     1  1.00
      L1  C    13    34       P1  8028  1.00

> <Gold.PLP.Chemscore.Internal.Correction>
0.1322

> <Gold.Rescore>
     Score         DG    S(hbond)    S(metal)    S(lipo)     H(rot)  DE(clash)    DE(int)     intcor
     14.40     -15.08       0.95        0.00     114.66       2.73       0.04       0.65       ----

> <Gold.Chemscore.Fitness>
14.3953

> <Gold.Chemscore.DG>
-15.0840

> <Gold.Chemscore.ZeroCoef>
-5.4800

> <Gold.Chemscore.Hbond>
0.9483

> <Gold.Chemscore.Metal>
0.0000

> <Gold.Chemscore.Lipo>
114.6559

> <Gold.Chemscore.Internal_Hbond>
0.0000

> <Gold.Chemscore.DEClash>
0.0420

> <Gold.Chemscore.DEInternal>
0.6467

> <Gold.Chemscore.Rot>
2.7258

> <Gold.Chemscore.Internal.Correction>
   9.000000E+99

> <Gold.Chemscore.Hbonds>
donor molecule, donor type, donor heavy atom, donor atom, acceptor molecule, acceptor atom, score
      P1  H  7989  7998       L1     1  0.81

> <Gold.Chemscore.Hbond.Weighted>
-3.1674

> <Gold.Chemscore.Metal.Weighted>
-0.0000

> <Gold.Chemscore.Lipo.Weighted>
-13.4147

> <Gold.Chemscore.Internal_Hbond.Weighted>
0.0000

> <Gold.Chemscore.DEClash.Weighted>
0.0420

> <Gold.Chemscore.DEInternal.Weighted>
0.6467

> <Gold.Chemscore.Rot.Weighted>
6.9781

> <Gold.Chemscore.Internal.Correction.Weighted>
   9.000000E+99

> <Gold.Protein.RotatedTorsions>
[ 6907 6896 6895 6894 ] final  163.51 input  -60.11 | X-H torsion
[ 7974 7965 7964 7962 ] final -159.68 input  175.53 | X-H torsion
[ 8008 7997 7996 7995 ] final  147.77 input   59.86 | X-H torsion
[ 10167 10162 10161 10158 ] final   -9.43 input  -65.29 | X-H torsion
[ 10718 10713 10712 10709 ] final  128.09 input   66.30 | X-H torsion
[ 10763 10752 10751 10750 ] final  -35.09 input  -60.55 | X-H torsion
[ 11005 11000 10999 10996 ] final  -38.78 input  -57.11 | X-H torsion

> <Gold.Protein.ActiveResidues>
 VAL166  LYS551  ARG553  GLY616  TRP617  ASP618  TYR619  PRO620  LYS621  CYS622 
 ASP623  PHE694  ASN695  SER759  ASP760  ASP761  ALA762  ILE779  LEU786  VAL792 
 PHE793  MET794  SER795  GLU796  ALA797  LYS798  CYS799  TRP800  GLU811  SER814 

> <Gold.Protein.RotatedAtoms>
  151.9242  133.3593  159.3907 H   0  0  0  0  0  0  0  0  0  0  0  0  # atno 6907 bound_to 6896
  150.7030  134.4604  159.5387 H   0  0  0  0  0  0  0  0  0  0  0  0  # atno 6908 bound_to 6896
  152.2233  134.8392  160.0534 H   0  0  0  0  0  0  0  0  0  0  0  0  # atno 6909 bound_to 6896
  144.7456  140.3650  143.6088 H   0  0  0  0  0  0  0  0  0  0  0  0  # atno 7974 bound_to 7965
  156.2814  140.2146  156.5591 H   0  0  0  0  0  0  0  0  0  0  0  0  # atno 8008 bound_to 7997
  154.7228  140.0502  157.0678 H   0  0  0  0  0  0  0  0  0  0  0  0  # atno 8009 bound_to 7997
  155.0456  140.3150  155.4712 H   0  0  0  0  0  0  0  0  0  0  0  0  # atno 8010 bound_to 7997
  140.7087  143.5859  150.8944 H   0  0  0  0  0  0  0  0  0  0  0  0  # atno 10167 bound_to 10162
  157.5275  131.1098  150.9060 H   0  0  0  0  0  0  0  0  0  0  0  0  # atno 10718 bound_to 10713
  153.8574  135.6843  153.4786 H   0  0  0  0  0  0  0  0  0  0  0  0  # atno 10763 bound_to 10752
  153.1362  135.4677  154.9423 H   0  0  0  0  0  0  0  0  0  0  0  0  # atno 10764 bound_to 10752
  154.7774  135.3258  154.8011 H   0  0  0  0  0  0  0  0  0  0  0  0  # atno 10765 bound_to 10752
  141.0053  133.6935  156.2099 H   0  0  0  0  0  0  0  0  0  0  0  0  # atno 11005 bound_to 11000
  145.7138  139.1691  143.2524 LP  0  0  0  0  0  0  0  0  0  0  0  0  # atno 17320 bound_to 7965
  146.1328  140.7163  142.9404 LP  0  0  0  0  0  0  0  0  0  0  0  0  # atno 17321 bound_to 7965
  139.9585  143.6191  152.3009 LP  0  0  0  0  0  0  0  0  0  0  0  0  # atno 17342 bound_to 10162
  139.6735  144.7660  151.1739 LP  0  0  0  0  0  0  0  0  0  0  0  0  # atno 17343 bound_to 10162
  156.9652  130.5470  149.5287 LP  0  0  0  0  0  0  0  0  0  0  0  0  # atno 17370 bound_to 10713
  156.0398  130.5481  150.8742 LP  0  0  0  0  0  0  0  0  0  0  0  0  # atno 17371 bound_to 10713
  140.6822  134.4755  157.5589 LP  0  0  0  0  0  0  0  0  0  0  0  0  # atno 17394 bound_to 11000
  139.9060  134.8448  156.1705 LP  0  0  0  0  0  0  0  0  0  0  0  0  # atno 17395 bound_to 11000

$$$$
