AV-unprocessed.smi:3273|AV-procd|sdf|12520|dock5
  -GOLD-   2272018433D 1   1.00000     0.00000
 Structure written by MMmdl.
 41 42  0  0  0  0  0  0  0  0  1 V2000
  153.3577  138.7886  160.3959 C   0  0  0  0  0  0  0  0  0  0  0  0
  152.9477  139.7472  159.2624 C   0  0  0  0  0  0  0  0  0  0  0  0
  153.2375  141.1981  159.6976 C   0  0  0  0  0  0  0  0  0  0  0  0
  151.4736  139.5459  158.8097 C   0  0  2  0  0  0  0  0  0  0  0  0
  151.0905  138.0535  158.6812 C   0  0  0  0  0  0  0  0  0  0  0  0
  149.7956  137.7759  159.2941 N   0  0  0  0  0  0  0  0  0  0  0  0
  149.1737  136.5891  159.2648 C   0  0  0  0  0  0  0  0  0  0  0  0
  149.6457  135.5939  158.7140 O   0  0  0  0  0  0  0  0  0  0  0  0
  147.8099  136.5278  159.9587 C   0  0  0  0  0  0  0  0  0  0  0  0
  147.8324  135.7392  161.2578 C   0  0  0  0  0  0  0  0  0  0  0  0
  146.5478  135.3019  161.9246 C   0  0  0  0  0  0  0  0  0  0  0  0
  147.3964  136.3756  162.5591 C   0  0  0  0  0  0  0  0  0  0  0  0
  151.1483  140.2986  157.5449 C   0  0  0  0  0  0  0  0  0  0  0  0
  150.3494  141.3936  157.3603 C   0  0  0  0  0  0  0  0  0  0  0  0
  150.4424  141.6637  155.9679 C   0  0  0  0  0  0  0  0  0  0  0  0
  151.2353  140.8139  155.3395 N   0  0  0  0  0  0  0  0  0  0  0  0
  151.6725  139.9763  156.3038 N   0  0  0  0  0  0  0  0  0  0  0  0
  152.5845  138.9069  155.9453 C   0  0  0  0  0  0  0  0  0  0  0  0
  152.7029  138.8940  161.2614 H   0  0  0  0  0  0  0  0  0  0  0  0
  154.3769  138.9884  160.7275 H   0  0  0  0  0  0  0  0  0  0  0  0
  153.3324  137.7467  160.0791 H   0  0  0  0  0  0  0  0  0  0  0  0
  153.5930  139.5405  158.4075 H   0  0  0  0  0  0  0  0  0  0  0  0
  152.5812  141.5032  160.5131 H   0  0  0  0  0  0  0  0  0  0  0  0
  153.1058  141.9075  158.8806 H   0  0  0  0  0  0  0  0  0  0  0  0
  154.2659  141.3068  160.0433 H   0  0  0  0  0  0  0  0  0  0  0  0
  150.8557  139.9497  159.6118 H   0  0  0  0  0  0  0  0  0  0  0  0
  151.0568  137.7767  157.6257 H   0  0  0  0  0  0  0  0  0  0  0  0
  151.8318  137.4125  159.1574 H   0  0  0  0  0  0  0  0  0  0  0  0
  149.3367  138.5429  159.7640 H   0  0  0  0  0  0  0  0  0  0  0  0
  147.4666  137.5430  160.1634 H   0  0  0  0  0  0  0  0  0  0  0  0
  147.0836  136.0769  159.2820 H   0  0  0  0  0  0  0  0  0  0  0  0
  148.6660  135.0427  161.3308 H   0  0  0  0  0  0  0  0  0  0  0  0
  145.6073  135.6095  161.4718 H   0  0  0  0  0  0  0  0  0  0  0  0
  146.5372  134.3232  162.4001 H   0  0  0  0  0  0  0  0  0  0  0  0
  147.9548  136.1141  163.4556 H   0  0  0  0  0  0  0  0  0  0  0  0
  147.0214  137.3968  162.5246 H   0  0  0  0  0  0  0  0  0  0  0  0
  149.7831  141.9234  158.1119 H   0  0  0  0  0  0  0  0  0  0  0  0
  149.9634  142.4478  155.4005 H   0  0  0  0  0  0  0  0  0  0  0  0
  153.5130  139.0134  156.5067 H   0  0  0  0  0  0  0  0  0  0  0  0
  152.8132  138.9353  154.8791 H   0  0  0  0  0  0  0  0  0  0  0  0
  152.1306  137.9443  156.1815 H   0  0  0  0  0  0  0  0  0  0  0  0
  1  2  1  0  0  0  0
  1 19  1  0  0  0  0
  1 20  1  0  0  0  0
  1 21  1  0  0  0  0
  2  3  1  0  0  0  0
  2  4  1  0  0  0  0
  2 22  1  0  0  0  0
  3 23  1  0  0  0  0
  3 24  1  0  0  0  0
  3 25  1  0  0  0  0
  4  5  1  0  0  0  0
  4 13  1  0  0  0  0
  4 26  1  0  0  0  0
  5  6  1  0  0  0  0
  5 27  1  0  0  0  0
  5 28  1  0  0  0  0
  6  7  1  0  0  0  0
  6 29  1  0  0  0  0
  7  8  2  0  0  0  0
  7  9  1  0  0  0  0
  9 10  1  0  0  0  0
  9 30  1  0  0  0  0
  9 31  1  0  0  0  0
 10 12  1  0  0  0  0
 10 11  1  0  0  0  0
 10 32  1  0  0  0  0
 11 12  1  0  0  0  0
 11 33  1  0  0  0  0
 11 34  1  0  0  0  0
 12 35  1  0  0  0  0
 12 36  1  0  0  0  0
 13 17  1  0  0  0  0
 13 14  2  0  0  0  0
 14 15  1  0  0  0  0
 14 37  1  0  0  0  0
 15 16  2  0  0  0  0
 15 38  1  0  0  0  0
 16 17  1  0  0  0  0
 17 18  1  0  0  0  0
 18 39  1  0  0  0  0
 18 40  1  0  0  0  0
 18 41  1  0  0  0  0
M  END
> <s_m_source_file>
AV-unprocessed.smi

> <i_m_source_file_index>
3273

> <i_lp_mmshare_version>
43012

> <i_f3d_flags>
0

> <s_epik_input>
W0NIM11uMW5bY0hdW2NIXWMxW0NASF0oW0NIXShbQ0gzXSlbQ0gzXSlbQ0gyXVtOSF1DKD1PKVtDSDJdW0NIXTJbQ0gyXVtDSDJdMg==

> <s_epik_cmdline>
J2VwaWtfcHl0aG9uJywgJy1waCcsICc3LjAnLCAnLXRuJywgJzgnLCAnLW1hJywgJzIwMCcsICctbWV0YWxfYmluZGluZycsICctaW1hZScsICc8aW5maWxlLm1hZT4nLCAnLW9tYWUnLCAnPG91dGZpbGUubWFlPic=

> <r_lp_tautomer_probability>
1

> <r_epik_Ionization_Penalty>
0.00116261

> <r_epik_Ionization_Penalty_Charging>
0

> <r_epik_Ionization_Penalty_Neutral>
0.00116261

> <r_epik_State_Penalty>
-0

> <r_epik_Charging_Adjusted_Penalty>
0

> <i_epik_Tot_Q>
0

> <i_epik_Tot_abs_Q>
0

> <r_epik_Metal_State_Penalty>
-0

> <b_epik_Metal_Only>
0

> <s_lp_Force_Field>
OPLS_2005

> <r_lp_Energy>
13.9008

> <b_lp_Chiralities_Consistent>
1

> <s_lp_Variant>
AV-unprocessed.smi:3273-1

> <Gold.Version>
5.8.1

> <Gold.Id.Protein>
6NUR|6NUR_protein|mol2

> <Gold.PLP.Fitness>
42.2120

> <Gold.PLP.PLP>
-35.7949

> <Gold.PLP.part.hbond>
-2.0000

> <Gold.PLP.part.metal>
0.0000

> <Gold.PLP.part.buried>
-4.5724

> <Gold.PLP.part.nonpolar>
-29.7668

> <Gold.PLP.part.repulsive>
0.9905

> <Gold.PLP.ligand.clash>
0.0000

> <Gold.PLP.ligand.torsion>
1.3765

> <Gold.PLP.Chemscore.Hbond>
1.8160

> <Gold.PLP.Chemscore.CHOScore>
1.0000

> <Gold.PLP.Chemscore.Metal>
0.0000

> <Gold.Chemscore.Hbonds>
donor molecule, donor type, donor heavy atom, donor atom, acceptor molecule, acceptor atom, score
      P1  H  6896  6907       L1     8  1.00
      P1  H  7989  7998       L1    16  0.75
      L1  C    15    38       P1  8028  1.00

> <Gold.PLP.Chemscore.Internal.Correction>
0.7220

> <Gold.Rescore>
     Score         DG    S(hbond)    S(metal)    S(lipo)     H(rot)  DE(clash)    DE(int)     intcor
     15.81     -17.35       1.93        0.00      82.41       1.64       0.37       1.16       ----

> <Gold.Chemscore.Fitness>
15.8128

> <Gold.Chemscore.DG>
-17.3498

> <Gold.Chemscore.ZeroCoef>
-5.4800

> <Gold.Chemscore.Hbond>
1.9262

> <Gold.Chemscore.Metal>
0.0000

> <Gold.Chemscore.Lipo>
82.4150

> <Gold.Chemscore.Internal_Hbond>
0.0000

> <Gold.Chemscore.DEClash>
0.3732

> <Gold.Chemscore.DEInternal>
1.1638

> <Gold.Chemscore.Rot>
1.6430

> <Gold.Chemscore.Internal.Correction>
   9.000000E+99

> <Gold.Chemscore.Hbonds>
donor molecule, donor type, donor heavy atom, donor atom, acceptor molecule, acceptor atom, score
      P1  H  6896  6907       L1     8  0.81
      P1  H  7989  7998       L1    16  0.73

> <Gold.Chemscore.Hbond.Weighted>
-6.4334

> <Gold.Chemscore.Metal.Weighted>
-0.0000

> <Gold.Chemscore.Lipo.Weighted>
-9.6426

> <Gold.Chemscore.Internal_Hbond.Weighted>
0.0000

> <Gold.Chemscore.DEClash.Weighted>
0.3732

> <Gold.Chemscore.DEInternal.Weighted>
1.1638

> <Gold.Chemscore.Rot.Weighted>
4.2062

> <Gold.Chemscore.Internal.Correction.Weighted>
   9.000000E+99

> <Gold.Protein.RotatedTorsions>
[ 6907 6896 6895 6894 ] final  -50.75 input  -60.11 | X-H torsion
[ 7974 7965 7964 7962 ] final   76.88 input  175.53 | X-H torsion
[ 8008 7997 7996 7995 ] final   22.15 input   59.86 | X-H torsion
[ 10167 10162 10161 10158 ] final -149.81 input  -65.29 | X-H torsion
[ 10718 10713 10712 10709 ] final  146.93 input   66.30 | X-H torsion
[ 10763 10752 10751 10750 ] final  105.04 input  -60.55 | X-H torsion
[ 11005 11000 10999 10996 ] final  -15.30 input  -57.11 | X-H torsion

> <Gold.Protein.ActiveResidues>
 VAL166  LYS551  ARG553  GLY616  TRP617  ASP618  TYR619  PRO620  LYS621  CYS622 
 ASP623  PHE694  ASN695  SER759  ASP760  ASP761  ALA762  ILE779  LEU786  VAL792 
 PHE793  MET794  SER795  GLU796  ALA797  LYS798  CYS799  TRP800  GLU811  SER814 

> <Gold.Protein.RotatedAtoms>
  150.8677  134.8044  159.7131 H   0  0  0  0  0  0  0  0  0  0  0  0  # atno 6907 bound_to 6896
  152.4693  134.4997  159.9730 H   0  0  0  0  0  0  0  0  0  0  0  0  # atno 6908 bound_to 6896
  151.5090  133.3450  159.2917 H   0  0  0  0  0  0  0  0  0  0  0  0  # atno 6909 bound_to 6896
  145.6972  139.2571  143.1726 H   0  0  0  0  0  0  0  0  0  0  0  0  # atno 7974 bound_to 7965
  154.9613  140.3078  155.5029 H   0  0  0  0  0  0  0  0  0  0  0  0  # atno 8008 bound_to 7997
  156.2977  140.2301  156.4637 H   0  0  0  0  0  0  0  0  0  0  0  0  # atno 8009 bound_to 7997
  154.7962  140.0437  157.1227 H   0  0  0  0  0  0  0  0  0  0  0  0  # atno 8010 bound_to 7997
  139.7410  143.8663  152.2562 H   0  0  0  0  0  0  0  0  0  0  0  0  # atno 10167 bound_to 10162
  157.3272  131.0914  151.1192 H   0  0  0  0  0  0  0  0  0  0  0  0  # atno 10718 bound_to 10713
  153.3740  135.3923  155.1809 H   0  0  0  0  0  0  0  0  0  0  0  0  # atno 10763 bound_to 10752
  154.8698  135.3709  154.4941 H   0  0  0  0  0  0  0  0  0  0  0  0  # atno 10764 bound_to 10752
  153.5412  135.7084  153.5696 H   0  0  0  0  0  0  0  0  0  0  0  0  # atno 10765 bound_to 10752
  140.7952  133.8256  155.9417 H   0  0  0  0  0  0  0  0  0  0  0  0  # atno 11005 bound_to 11000
  146.0830  140.7743  142.9632 LP  0  0  0  0  0  0  0  0  0  0  0  0  # atno 17320 bound_to 7965
  144.6979  140.3518  143.7180 LP  0  0  0  0  0  0  0  0  0  0  0  0  # atno 17321 bound_to 7965
  139.8613  144.7115  150.9096 LP  0  0  0  0  0  0  0  0  0  0  0  0  # atno 17342 bound_to 10162
  140.7786  143.3815  151.1468 LP  0  0  0  0  0  0  0  0  0  0  0  0  # atno 17343 bound_to 10162
  157.2454  130.6589  149.5908 LP  0  0  0  0  0  0  0  0  0  0  0  0  # atno 17370 bound_to 10713
  155.9692  130.4555  150.5890 LP  0  0  0  0  0  0  0  0  0  0  0  0  # atno 17371 bound_to 10713
  140.9349  134.1974  157.4838 LP  0  0  0  0  0  0  0  0  0  0  0  0  # atno 17394 bound_to 11000
  139.8727  134.9848  156.5256 LP  0  0  0  0  0  0  0  0  0  0  0  0  # atno 17395 bound_to 11000

$$$$
