AV-unprocessed.smi:2083|AV-procd|sdf|8496|dock4
  -GOLD-   2272011203D 1   1.00000     0.00000
 Structure written by MMmdl.
 45 46  0  0  0  0  0  0  0  0  2 V2000
  150.2319  142.4555  156.6963 C   0  0  0  0  0  0  0  0  0  0  0  0
  149.7478  141.3986  155.7640 C   0  0  0  0  0  0  0  0  0  0  0  0
  149.5461  140.0545  155.9059 C   0  0  0  0  0  0  0  0  0  0  0  0
  149.0791  139.6642  154.6230 C   0  0  0  0  0  0  0  0  0  0  0  0
  148.7470  138.3130  154.3498 N   0  0  0  0  0  0  0  0  0  0  0  0
  148.0675  137.4633  155.1384 C   0  0  0  0  0  0  0  0  0  0  0  0
  147.6024  137.7384  156.2448 O   0  0  0  0  0  0  0  0  0  0  0  0
  147.9510  136.2539  154.5712 N   0  0  0  0  0  0  0  0  0  0  0  0
  147.2581  135.1166  155.1708 C   0  0  0  0  0  0  0  0  0  0  0  0
  147.2029  133.8728  154.2379 C   0  0  2  0  0  0  0  0  0  0  0  0
  148.5640  133.1403  154.2486 C   0  0  0  0  0  0  0  0  0  0  0  0
  146.7978  134.1781  152.8251 N   0  3  2  0  0  0  0  0  0  0  0  0
  145.7037  135.1804  152.6633 C   0  0  0  0  0  0  0  0  0  0  0  0
  145.4490  135.5114  151.1833 C   0  0  0  0  0  0  0  0  0  0  0  0
  145.1467  134.2493  150.3713 C   0  0  0  0  0  0  0  0  0  0  0  0
  146.2808  133.2305  150.5521 C   0  0  2  0  0  0  0  0  0  0  0  0
  146.0083  131.9433  149.7609 C   0  0  0  0  0  0  0  0  0  0  0  0
  146.4922  132.9395  152.0508 C   0  0  0  0  0  0  0  0  0  0  0  0
  148.9991  140.6785  153.7753 N   0  0  0  0  0  0  0  0  0  0  0  0
  149.4283  141.7952  154.5022 O   0  0  0  0  0  0  0  0  0  0  0  0
  150.3012  142.0744  157.7152 H   0  0  0  0  0  0  0  0  0  0  0  0
  149.5541  143.3091  156.7003 H   0  0  0  0  0  0  0  0  0  0  0  0
  151.2196  142.8081  156.3997 H   0  0  0  0  0  0  0  0  0  0  0  0
  149.7092  139.4509  156.7865 H   0  0  0  0  0  0  0  0  0  0  0  0
  149.0610  137.9574  153.4590 H   0  0  0  0  0  0  0  0  0  0  0  0
  148.3618  136.1114  153.6598 H   0  0  0  0  0  0  0  0  0  0  0  0
  147.7665  134.8905  156.1091 H   0  0  0  0  0  0  0  0  0  0  0  0
  146.2484  135.4390  155.4277 H   0  0  0  0  0  0  0  0  0  0  0  0
  146.4498  133.1988  154.6495 H   0  0  0  0  0  0  0  0  0  0  0  0
  148.8595  132.8496  155.2566 H   0  0  0  0  0  0  0  0  0  0  0  0
  149.3532  133.7760  153.8463 H   0  0  0  0  0  0  0  0  0  0  0  0
  148.5529  132.2223  153.6638 H   0  0  0  0  0  0  0  0  0  0  0  0
  144.7913  134.8070  153.1314 H   0  0  0  0  0  0  0  0  0  0  0  0
  145.9611  136.1196  153.1513 H   0  0  0  0  0  0  0  0  0  0  0  0
  144.6204  136.2153  151.0976 H   0  0  0  0  0  0  0  0  0  0  0  0
  146.3231  136.0129  150.7662 H   0  0  0  0  0  0  0  0  0  0  0  0
  144.1985  133.8191  150.6974 H   0  0  0  0  0  0  0  0  0  0  0  0
  145.0289  134.5048  149.3175 H   0  0  0  0  0  0  0  0  0  0  0  0
  147.1996  133.6687  150.1589 H   0  0  0  0  0  0  0  0  0  0  0  0
  145.1008  131.4483  150.1079 H   0  0  0  0  0  0  0  0  0  0  0  0
  146.8325  131.2370  149.8628 H   0  0  0  0  0  0  0  0  0  0  0  0
  145.8864  132.1544  148.6980 H   0  0  0  0  0  0  0  0  0  0  0  0
  147.2994  132.2161  152.1499 H   0  0  0  0  0  0  0  0  0  0  0  0
  145.6020  132.4652  152.4679 H   0  0  0  0  0  0  0  0  0  0  0  0
  147.6090  134.5971  152.3935 H   0  0  0  0  0  0  0  0  0  0  0  0
  1  2  1  0  0  0  0
  1 21  1  0  0  0  0
  1 22  1  0  0  0  0
  1 23  1  0  0  0  0
  2 20  1  0  0  0  0
  2  3  2  0  0  0  0
  3  4  1  0  0  0  0
  3 24  1  0  0  0  0
  4  5  1  0  0  0  0
  4 19  2  0  0  0  0
  5  6  1  0  0  0  0
  5 25  1  0  0  0  0
  6  7  2  0  0  0  0
  6  8  1  0  0  0  0
  8  9  1  0  0  0  0
  8 26  1  0  0  0  0
  9 10  1  0  0  0  0
  9 27  1  0  0  0  0
  9 28  1  0  0  0  0
 10 11  1  0  0  0  0
 10 12  1  0  0  0  0
 10 29  1  0  0  0  0
 11 30  1  0  0  0  0
 11 31  1  0  0  0  0
 11 32  1  0  0  0  0
 12 18  1  0  0  0  0
 12 13  1  0  0  0  0
 12 45  1  0  0  0  0
 13 14  1  0  0  0  0
 13 33  1  0  0  0  0
 13 34  1  0  0  0  0
 14 15  1  0  0  0  0
 14 35  1  0  0  0  0
 14 36  1  0  0  0  0
 15 16  1  0  0  0  0
 15 37  1  0  0  0  0
 15 38  1  0  0  0  0
 16 17  1  0  0  0  0
 16 18  1  0  0  0  0
 16 39  1  0  0  0  0
 17 40  1  0  0  0  0
 17 41  1  0  0  0  0
 17 42  1  0  0  0  0
 18 43  1  0  0  0  0
 18 44  1  0  0  0  0
 19 20  1  0  0  0  0
M  CHG  1  12   1
M  END
> <s_m_source_file>
AV-unprocessed.smi

> <i_m_source_file_index>
2083

> <i_lp_mmshare_version>
43012

> <i_f3d_flags>
0

> <s_epik_input>
W0NIM11jMVtjSF1jKG5vMSlbTkhdQyg9TylbTkhdW0NIMl1bQ0BIXShbQ0gzXSlOMltDSDJdW0NIMl1bQ0gyXVtDQEBIXShbQ0gzXSlbQ0gyXTI=

> <s_epik_cmdline>
J2VwaWtfcHl0aG9uJywgJy1waCcsICc3LjAnLCAnLXRuJywgJzgnLCAnLW1hJywgJzIwMCcsICctbWV0YWxfYmluZGluZycsICctaW1hZScsICc8aW5maWxlLm1hZT4nLCAnLW9tYWUnLCAnPG91dGZpbGUubWFlPic=

> <r_epik_Ionization_Penalty>
0.00216453

> <r_epik_Ionization_Penalty_Charging>
0.00212879

> <r_epik_Ionization_Penalty_Neutral>
3.57418e-05

> <r_epik_State_Penalty>
0.00146033

> <r_epik_Charging_Adjusted_Penalty>
0.00358912

> <i_epik_Tot_Q>
1

> <i_epik_Tot_abs_Q>
1

> <r_epik_Metal_State_Penalty>
0.0215827

> <b_epik_Metal_Only>
0

> <s_lp_Force_Field>
OPLS_2005

> <r_lp_Energy>
18.748

> <b_lp_Chiralities_Consistent>
1

> <s_lp_Variant>
AV-unprocessed.smi:2083-7

> <Gold.Version>
5.8.1

> <Gold.Id.Protein>
6NUR|6NUR_protein|mol2

> <Gold.PLP.Fitness>
42.4738

> <Gold.PLP.PLP>
-33.0096

> <Gold.PLP.part.hbond>
-5.7794

> <Gold.PLP.part.metal>
0.0000

> <Gold.PLP.part.buried>
-3.3985

> <Gold.PLP.part.nonpolar>
-26.8645

> <Gold.PLP.part.repulsive>
2.8066

> <Gold.PLP.ligand.clash>
0.0000

> <Gold.PLP.ligand.torsion>
0.6711

> <Gold.PLP.Chemscore.Hbond>
3.5814

> <Gold.PLP.Chemscore.CHOScore>
0.0000

> <Gold.PLP.Chemscore.Metal>
0.0000

> <Gold.Chemscore.Hbonds>
donor molecule, donor type, donor heavy atom, donor atom, acceptor molecule, acceptor atom, score
      L1  H     5    25       P1  7948  0.24
      L1  H     8    26       P1  7948  1.00
      L1  H    12    45       P1  7948  1.46

> <Gold.PLP.Chemscore.Internal.Correction>
0.0623

> <Gold.Rescore>
     Score         DG    S(hbond)    S(metal)    S(lipo)     H(rot)  DE(clash)    DE(int)     intcor
     12.48     -16.78       2.28        0.00      65.30       1.55       2.58       1.72       ----

> <Gold.Chemscore.Fitness>
12.4756

> <Gold.Chemscore.DG>
-16.7823

> <Gold.Chemscore.ZeroCoef>
-5.4800

> <Gold.Chemscore.Hbond>
2.2825

> <Gold.Chemscore.Metal>
0.0000

> <Gold.Chemscore.Lipo>
65.2983

> <Gold.Chemscore.Internal_Hbond>
0.0000

> <Gold.Chemscore.DEClash>
2.5836

> <Gold.Chemscore.DEInternal>
1.7231

> <Gold.Chemscore.Rot>
1.5474

> <Gold.Chemscore.Internal.Correction>
   9.000000E+99

> <Gold.Chemscore.Hbonds>
donor molecule, donor type, donor heavy atom, donor atom, acceptor molecule, acceptor atom, score
      L1  H     5    25       P1  7948  0.23
      L1  H     8    26       P1  7948  1.00
      L1  H    12    45       P1  7948  0.56

> <Gold.Chemscore.Hbond.Weighted>
-7.6236

> <Gold.Chemscore.Metal.Weighted>
-0.0000

> <Gold.Chemscore.Lipo.Weighted>
-7.6399

> <Gold.Chemscore.Internal_Hbond.Weighted>
0.0000

> <Gold.Chemscore.DEClash.Weighted>
2.5836

> <Gold.Chemscore.DEInternal.Weighted>
1.7231

> <Gold.Chemscore.Rot.Weighted>
3.9612

> <Gold.Chemscore.Internal.Correction.Weighted>
   9.000000E+99

> <Gold.Protein.RotatedTorsions>
[ 6907 6896 6895 6894 ] final   75.51 input  -60.11 | X-H torsion
[ 7974 7965 7964 7962 ] final -141.43 input  175.53 | X-H torsion
[ 8008 7997 7996 7995 ] final -120.99 input   59.86 | X-H torsion
[ 10167 10162 10161 10158 ] final -155.87 input  -65.29 | X-H torsion
[ 10718 10713 10712 10709 ] final  -63.37 input   66.30 | X-H torsion
[ 10763 10752 10751 10750 ] final  102.34 input  -60.55 | X-H torsion
[ 11005 11000 10999 10996 ] final   51.06 input  -57.11 | X-H torsion

> <Gold.Protein.ActiveResidues>
 VAL166  LYS551  ARG553  GLY616  TRP617  ASP618  TYR619  PRO620  LYS621  CYS622 
 ASP623  PHE694  ASN695  SER759  ASP760  ASP761  ALA762  ILE779  LEU786  VAL792 
 PHE793  MET794  SER795  GLU796  ALA797  LYS798  CYS799  TRP800  GLU811  SER814 

> <Gold.Protein.RotatedAtoms>
  152.5029  134.4110  159.9448 H   0  0  0  0  0  0  0  0  0  0  0  0  # atno 6907 bound_to 6896
  151.4078  133.3731  159.2748 H   0  0  0  0  0  0  0  0  0  0  0  0  # atno 6908 bound_to 6896
  150.9314  134.8750  159.7613 H   0  0  0  0  0  0  0  0  0  0  0  0  # atno 6909 bound_to 6896
  144.8520  140.6081  143.5384 H   0  0  0  0  0  0  0  0  0  0  0  0  # atno 7974 bound_to 7965
  155.1408  140.0402  157.2798 H   0  0  0  0  0  0  0  0  0  0  0  0  # atno 8008 bound_to 7997
  154.6474  140.2561  155.7225 H   0  0  0  0  0  0  0  0  0  0  0  0  # atno 8009 bound_to 7997
  156.2561  140.2843  156.0894 H   0  0  0  0  0  0  0  0  0  0  0  0  # atno 8010 bound_to 7997
  139.6896  143.9443  152.2378 H   0  0  0  0  0  0  0  0  0  0  0  0  # atno 10167 bound_to 10162
  156.0795  130.4220  150.1267 H   0  0  0  0  0  0  0  0  0  0  0  0  # atno 10718 bound_to 10713
  153.3383  135.4014  155.1551 H   0  0  0  0  0  0  0  0  0  0  0  0  # atno 10763 bound_to 10752
  154.8638  135.3627  154.5379 H   0  0  0  0  0  0  0  0  0  0  0  0  # atno 10764 bound_to 10752
  153.5823  135.7076  153.5518 H   0  0  0  0  0  0  0  0  0  0  0  0  # atno 10765 bound_to 10752
  140.0964  134.5139  155.8803 H   0  0  0  0  0  0  0  0  0  0  0  0  # atno 11005 bound_to 11000
  145.4480  139.1527  143.3934 LP  0  0  0  0  0  0  0  0  0  0  0  0  # atno 17320 bound_to 7965
  146.2793  140.4605  142.8783 LP  0  0  0  0  0  0  0  0  0  0  0  0  # atno 17321 bound_to 7965
  139.9256  144.6773  150.8416 LP  0  0  0  0  0  0  0  0  0  0  0  0  # atno 17342 bound_to 10162
  140.7678  143.3344  151.2340 LP  0  0  0  0  0  0  0  0  0  0  0  0  # atno 17343 bound_to 10162
  156.9301  130.9711  151.3534 LP  0  0  0  0  0  0  0  0  0  0  0  0  # atno 17370 bound_to 10713
  157.5906  130.8441  149.8654 LP  0  0  0  0  0  0  0  0  0  0  0  0  # atno 17371 bound_to 10713
  141.2093  133.6683  156.6431 LP  0  0  0  0  0  0  0  0  0  0  0  0  # atno 17394 bound_to 11000
  140.3280  134.7952  157.4304 LP  0  0  0  0  0  0  0  0  0  0  0  0  # atno 17395 bound_to 11000

$$$$
