AV-unprocessed.smi:2091|AV-procd|sdf|8539|dock9
  -GOLD-   2272011263D 1   1.00000     0.00000
 Structure written by MMmdl.
 36 37  0  0  0  0  0  0  0  0  1 V2000
  152.5712  139.9795  156.8758 O   0  0  0  0  0  0  0  0  0  0  0  0
  152.0208  139.4622  157.8488 C   0  0  0  0  0  0  0  0  0  0  0  0
  151.9445  137.9352  157.9848 C   0  0  0  0  0  0  0  0  0  0  0  0
  153.0584  137.3776  158.7653 N   0  0  0  0  0  0  0  0  0  0  0  0
  153.1660  137.6434  160.1229 C   0  0  0  0  0  0  0  0  0  0  0  0
  154.1586  137.1522  160.9020 C   0  0  0  0  0  0  0  0  0  0  0  0
  155.1910  136.2945  160.3301 C   0  0  0  0  0  0  0  0  0  0  0  0
  156.1299  135.8034  160.9526 O   0  0  0  0  0  0  0  0  0  0  0  0
  155.0466  136.0485  158.9623 N   0  0  0  0  0  0  0  0  0  0  0  0
  154.0254  136.5500  158.1539 C   0  0  0  0  0  0  0  0  0  0  0  0
  153.9892  136.2678  156.9568 O   0  0  0  0  0  0  0  0  0  0  0  0
  151.4444  140.1736  158.8309 N   0  0  0  0  0  0  0  0  0  0  0  0
  151.4220  141.6352  158.9205 C   0  0  1  0  0  0  0  0  0  0  0  0
  152.8866  142.1208  159.0136 C   0  0  0  0  0  0  0  0  0  0  0  0
  153.0384  143.5197  159.6367 C   0  0  0  0  0  0  0  0  0  0  0  0
  152.4171  144.6652  158.8228 C   0  0  0  0  0  0  0  0  0  0  0  0
  150.8929  144.5472  158.6524 C   0  0  0  0  0  0  0  0  0  0  0  0
  150.5301  143.5716  157.6328 N   0  0  0  0  0  0  0  0  0  0  0  0
  150.7611  142.2503  157.6641 C   0  0  0  0  0  0  0  0  0  0  0  0
  150.4553  141.5435  156.7038 O   0  0  0  0  0  0  0  0  0  0  0  0
  155.7361  135.4567  158.5224 H   0  0  0  0  0  0  0  0  0  0  0  0
  150.9921  137.6469  158.4349 H   0  0  0  0  0  0  0  0  0  0  0  0
  151.9303  137.5069  156.9818 H   0  0  0  0  0  0  0  0  0  0  0  0
  152.4205  138.2706  160.5907 H   0  0  0  0  0  0  0  0  0  0  0  0
  154.1882  137.3941  161.9545 H   0  0  0  0  0  0  0  0  0  0  0  0
  151.0176  139.6665  159.5924 H   0  0  0  0  0  0  0  0  0  0  0  0
  150.8711  141.9284  159.8161 H   0  0  0  0  0  0  0  0  0  0  0  0
  153.4504  141.4300  159.6428 H   0  0  0  0  0  0  0  0  0  0  0  0
  153.3733  142.0870  158.0370 H   0  0  0  0  0  0  0  0  0  0  0  0
  152.6117  143.5162  160.6404 H   0  0  0  0  0  0  0  0  0  0  0  0
  154.1009  143.7268  159.7682 H   0  0  0  0  0  0  0  0  0  0  0  0
  152.6349  145.6017  159.3371 H   0  0  0  0  0  0  0  0  0  0  0  0
  152.9006  144.7415  157.8476 H   0  0  0  0  0  0  0  0  0  0  0  0
  150.4051  144.3122  159.5994 H   0  0  0  0  0  0  0  0  0  0  0  0
  150.4923  145.5092  158.3322 H   0  0  0  0  0  0  0  0  0  0  0  0
  150.0879  143.9391  156.8028 H   0  0  0  0  0  0  0  0  0  0  0  0
  1  2  2  0  0  0  0
  2  3  1  0  0  0  0
  2 12  1  0  0  0  0
  3  4  1  0  0  0  0
  3 22  1  0  0  0  0
  3 23  1  0  0  0  0
  4 10  1  0  0  0  0
  4  5  1  0  0  0  0
  5  6  2  0  0  0  0
  5 24  1  0  0  0  0
  6  7  1  0  0  0  0
  6 25  1  0  0  0  0
  7  8  2  0  0  0  0
  7  9  1  0  0  0  0
  9 21  1  0  0  0  0
  9 10  1  0  0  0  0
 10 11  2  0  0  0  0
 12 13  1  0  0  0  0
 12 26  1  0  0  0  0
 13 19  1  0  0  0  0
 13 14  1  0  0  0  0
 13 27  1  0  0  0  0
 14 15  1  0  0  0  0
 14 28  1  0  0  0  0
 14 29  1  0  0  0  0
 15 16  1  0  0  0  0
 15 30  1  0  0  0  0
 15 31  1  0  0  0  0
 16 17  1  0  0  0  0
 16 32  1  0  0  0  0
 16 33  1  0  0  0  0
 17 18  1  0  0  0  0
 17 34  1  0  0  0  0
 17 35  1  0  0  0  0
 18 19  1  0  0  0  0
 18 36  1  0  0  0  0
 19 20  2  0  0  0  0
M  END
> <s_m_source_file>
AV-unprocessed.smi

> <i_m_source_file_index>
2091

> <i_lp_mmshare_version>
43012

> <i_f3d_flags>
0

> <s_epik_input>
Tz1jMVtuSF1jKD1PKVtjSF1bY0hdbjFbQ0gyXUMoPU8pW05IXVtDQEBIXTJbQ0gyXVtDSDJdW0NIMl1bQ0gyXVtOSF1DMj1P

> <s_epik_cmdline>
J2VwaWtfcHl0aG9uJywgJy1waCcsICc3LjAnLCAnLXRuJywgJzgnLCAnLW1hJywgJzIwMCcsICctbWV0YWxfYmluZGluZycsICctaW1hZScsICc8aW5maWxlLm1hZT4nLCAnLW9tYWUnLCAnPG91dGZpbGUubWFlPic=

> <r_lp_tautomer_probability>
0.999537

> <r_epik_Ionization_Penalty>
0.00356328

> <r_epik_Ionization_Penalty_Charging>
0.00356323

> <r_epik_Ionization_Penalty_Neutral>
5.33217e-08

> <r_epik_State_Penalty>
0.00253125

> <r_epik_Charging_Adjusted_Penalty>
0.00609448

> <i_epik_Tot_Q>
0

> <i_epik_Tot_abs_Q>
0

> <r_epik_Metal_State_Penalty>
0.368636

> <b_epik_Metal_Only>
0

> <s_lp_Force_Field>
OPLS_2005

> <r_lp_Energy>
10.1396

> <b_lp_Chiralities_Consistent>
1

> <s_lp_Variant>
AV-unprocessed.smi:2091-2

> <Gold.Version>
5.8.1

> <Gold.Id.Protein>
6NUR|6NUR_protein|mol2

> <Gold.PLP.Fitness>
41.1934

> <Gold.PLP.PLP>
-33.1048

> <Gold.PLP.part.hbond>
-3.0000

> <Gold.PLP.part.metal>
0.0000

> <Gold.PLP.part.buried>
-5.1869

> <Gold.PLP.part.nonpolar>
-25.5357

> <Gold.PLP.part.repulsive>
0.3069

> <Gold.PLP.ligand.clash>
0.0000

> <Gold.PLP.ligand.torsion>
0.4206

> <Gold.PLP.Chemscore.Hbond>
2.9760

> <Gold.PLP.Chemscore.CHOScore>
0.0000

> <Gold.PLP.Chemscore.Metal>
0.0000

> <Gold.Chemscore.Hbonds>
donor molecule, donor type, donor heavy atom, donor atom, acceptor molecule, acceptor atom, score
      L1  H    18    36       P1  8028  1.00
      P1  H  7997  8008       L1     1  1.00
      P1  H 10752 10763       L1    11  1.00

> <Gold.PLP.Chemscore.Internal.Correction>
0.0018

> <Gold.Rescore>
     Score         DG    S(hbond)    S(metal)    S(lipo)     H(rot)  DE(clash)    DE(int)     intcor
     16.44     -19.06       2.97        0.00      72.46       1.88       0.01       2.61       ----

> <Gold.Chemscore.Fitness>
16.4450

> <Gold.Chemscore.DG>
-19.0594

> <Gold.Chemscore.ZeroCoef>
-5.4800

> <Gold.Chemscore.Hbond>
2.9716

> <Gold.Chemscore.Metal>
0.0000

> <Gold.Chemscore.Lipo>
72.4644

> <Gold.Chemscore.Internal_Hbond>
0.0000

> <Gold.Chemscore.DEClash>
0.0060

> <Gold.Chemscore.DEInternal>
2.6084

> <Gold.Chemscore.Rot>
1.8844

> <Gold.Chemscore.Internal.Correction>
   9.000000E+99

> <Gold.Chemscore.Hbonds>
donor molecule, donor type, donor heavy atom, donor atom, acceptor molecule, acceptor atom, score
      L1  H    18    36       P1  8028  0.99
      P1  H  7997  8008       L1     1  0.99
      P1  H 10752 10763       L1    11  0.99

> <Gold.Chemscore.Hbond.Weighted>
-9.9253

> <Gold.Chemscore.Metal.Weighted>
-0.0000

> <Gold.Chemscore.Lipo.Weighted>
-8.4783

> <Gold.Chemscore.Internal_Hbond.Weighted>
0.0000

> <Gold.Chemscore.DEClash.Weighted>
0.0060

> <Gold.Chemscore.DEInternal.Weighted>
2.6084

> <Gold.Chemscore.Rot.Weighted>
4.8242

> <Gold.Chemscore.Internal.Correction.Weighted>
   9.000000E+99

> <Gold.Protein.RotatedTorsions>
[ 6907 6896 6895 6894 ] final  -51.46 input  -60.11 | X-H torsion
[ 7974 7965 7964 7962 ] final -134.61 input  175.53 | X-H torsion
[ 8008 7997 7996 7995 ] final  -58.51 input   59.86 | X-H torsion
[ 10167 10162 10161 10158 ] final  171.91 input  -65.29 | X-H torsion
[ 10718 10713 10712 10709 ] final   51.45 input   66.30 | X-H torsion
[ 10763 10752 10751 10750 ] final  144.06 input  -60.55 | X-H torsion
[ 11005 11000 10999 10996 ] final -121.32 input  -57.11 | X-H torsion

> <Gold.Protein.ActiveResidues>
 VAL166  LYS551  ARG553  GLY616  TRP617  ASP618  TYR619  PRO620  LYS621  CYS622 
 ASP623  PHE694  ASN695  SER759  ASP760  ASP761  ALA762  ILE779  LEU786  VAL792 
 PHE793  MET794  SER795  GLU796  ALA797  LYS798  CYS799  TRP800  GLU811  SER814 

> <Gold.Protein.RotatedAtoms>
  150.8609  134.7960  159.7081 H   0  0  0  0  0  0  0  0  0  0  0  0  # atno 6907 bound_to 6896
  152.4646  134.5102  159.9761 H   0  0  0  0  0  0  0  0  0  0  0  0  # atno 6908 bound_to 6896
  151.5206  133.3429  159.2936 H   0  0  0  0  0  0  0  0  0  0  0  0  # atno 6909 bound_to 6896
  144.9087  140.6867  143.5039 H   0  0  0  0  0  0  0  0  0  0  0  0  # atno 7974 bound_to 7965
  154.4312  140.1082  156.5968 H   0  0  0  0  0  0  0  0  0  0  0  0  # atno 8008 bound_to 7997
  155.5954  140.3492  155.4559 H   0  0  0  0  0  0  0  0  0  0  0  0  # atno 8009 bound_to 7997
  156.0215  140.1240  157.0342 H   0  0  0  0  0  0  0  0  0  0  0  0  # atno 8010 bound_to 7997
  139.5060  144.3433  151.9996 H   0  0  0  0  0  0  0  0  0  0  0  0  # atno 10167 bound_to 10162
  157.4982  130.8420  149.8284 H   0  0  0  0  0  0  0  0  0  0  0  0  # atno 10718 bound_to 10713
  153.9826  135.2940  155.3419 H   0  0  0  0  0  0  0  0  0  0  0  0  # atno 10763 bound_to 10752
  154.7260  135.5088  153.8890 H   0  0  0  0  0  0  0  0  0  0  0  0  # atno 10764 bound_to 10752
  153.0847  135.6690  154.0088 H   0  0  0  0  0  0  0  0  0  0  0  0  # atno 10765 bound_to 10752
  141.0079  134.0308  157.3453 H   0  0  0  0  0  0  0  0  0  0  0  0  # atno 11005 bound_to 11000
  145.3491  139.1711  143.4444 LP  0  0  0  0  0  0  0  0  0  0  0  0  # atno 17320 bound_to 7965
  146.3147  140.3541  142.8659 LP  0  0  0  0  0  0  0  0  0  0  0  0  # atno 17321 bound_to 7965
  140.2871  144.3795  150.6100 LP  0  0  0  0  0  0  0  0  0  0  0  0  # atno 17342 bound_to 10162
  140.5975  143.2167  151.7137 LP  0  0  0  0  0  0  0  0  0  0  0  0  # atno 17343 bound_to 10162
  156.0213  130.3794  150.1954 LP  0  0  0  0  0  0  0  0  0  0  0  0  # atno 17370 bound_to 10713
  157.0144  130.9960  151.3357 LP  0  0  0  0  0  0  0  0  0  0  0  0  # atno 17371 bound_to 10713
  139.9073  135.0182  156.7543 LP  0  0  0  0  0  0  0  0  0  0  0  0  # atno 17394 bound_to 11000
  140.6782  133.9498  155.7895 LP  0  0  0  0  0  0  0  0  0  0  0  0  # atno 17395 bound_to 11000

$$$$
