AV-unprocessed.smi:3045|AV-procd|sdf|11610|dock8
  -GOLD-   2272016593D 1   1.00000     0.00000
 Structure written by MMmdl.
 35 36  0  0  0  0  0  0  0  0  1 V2000
  145.4819  130.7678  151.9891 C   0  0  0  0  0  0  0  0  0  0  0  0
  145.3343  132.0375  151.2909 N   0  0  0  0  0  0  0  0  0  0  0  0
  146.2853  133.1183  151.4885 C   0  0  0  0  0  0  0  0  0  0  0  0
  145.7023  134.3265  150.7220 C   0  0  2  0  0  0  0  0  0  0  0  0
  145.1939  135.4336  151.6577 C   0  0  0  0  0  0  0  0  0  0  0  0
  144.0057  135.4752  151.9790 O   0  0  0  0  0  0  0  0  0  0  0  0
  146.1018  136.3339  152.0674 N   0  0  0  0  0  0  0  0  0  0  0  0
  145.8207  137.5086  152.8892 C   0  0  0  0  0  0  0  0  0  0  0  0
  146.4439  138.7914  152.3044 C   0  0  0  0  0  0  0  0  0  0  0  0
  147.2874  139.5689  153.3002 C   0  0  0  0  0  0  0  0  0  0  0  0
  147.0677  140.9445  153.5223 C   0  0  0  0  0  0  0  0  0  0  0  0
  147.8571  141.6118  154.4781 C   0  0  0  0  0  0  0  0  0  0  0  0
  148.8375  140.8742  155.1710 C   0  0  0  0  0  0  0  0  0  0  0  0
  149.0610  139.5589  154.9628 N   0  0  0  0  0  0  0  0  0  0  0  0
  148.2985  138.9261  154.0455 C   0  0  0  0  0  0  0  0  0  0  0  0
  144.5513  133.7476  149.8740 C   0  0  0  0  0  0  0  0  0  0  0  0
  144.3914  132.3279  150.3902 C   0  0  0  0  0  0  0  0  0  0  0  0
  143.4949  131.5763  150.0102 O   0  0  0  0  0  0  0  0  0  0  0  0
  145.7936  129.9871  151.2943 H   0  0  0  0  0  0  0  0  0  0  0  0
  144.5381  130.4659  152.4448 H   0  0  0  0  0  0  0  0  0  0  0  0
  146.2301  130.8379  152.7792 H   0  0  0  0  0  0  0  0  0  0  0  0
  146.4295  133.3139  152.5527 H   0  0  0  0  0  0  0  0  0  0  0  0
  147.2519  132.8276  151.0749 H   0  0  0  0  0  0  0  0  0  0  0  0
  146.4697  134.7418  150.0663 H   0  0  0  0  0  0  0  0  0  0  0  0
  147.0549  136.2173  151.7551 H   0  0  0  0  0  0  0  0  0  0  0  0
  144.7449  137.6392  153.0187 H   0  0  0  0  0  0  0  0  0  0  0  0
  146.2240  137.3298  153.8861 H   0  0  0  0  0  0  0  0  0  0  0  0
  147.0667  138.5368  151.4462 H   0  0  0  0  0  0  0  0  0  0  0  0
  145.6547  139.4405  151.9229 H   0  0  0  0  0  0  0  0  0  0  0  0
  146.3015  141.4781  152.9794 H   0  0  0  0  0  0  0  0  0  0  0  0
  147.7126  142.6631  154.6788 H   0  0  0  0  0  0  0  0  0  0  0  0
  149.4596  141.3540  155.9120 H   0  0  0  0  0  0  0  0  0  0  0  0
  148.4936  137.8724  153.9097 H   0  0  0  0  0  0  0  0  0  0  0  0
  143.6128  134.2955  149.9744 H   0  0  0  0  0  0  0  0  0  0  0  0
  144.8153  133.7238  148.8163 H   0  0  0  0  0  0  0  0  0  0  0  0
  1  2  1  0  0  0  0
  1 19  1  0  0  0  0
  1 20  1  0  0  0  0
  1 21  1  0  0  0  0
  2 17  1  0  0  0  0
  2  3  1  0  0  0  0
  3  4  1  0  0  0  0
  3 22  1  0  0  0  0
  3 23  1  0  0  0  0
  4  5  1  0  0  0  0
  4 16  1  0  0  0  0
  4 24  1  0  0  0  0
  5  6  2  0  0  0  0
  5  7  1  0  0  0  0
  7  8  1  0  0  0  0
  7 25  1  0  0  0  0
  8  9  1  0  0  0  0
  8 26  1  0  0  0  0
  8 27  1  0  0  0  0
  9 10  1  0  0  0  0
  9 28  1  0  0  0  0
  9 29  1  0  0  0  0
 10 15  1  0  0  0  0
 10 11  2  0  0  0  0
 11 12  1  0  0  0  0
 11 30  1  0  0  0  0
 12 13  2  0  0  0  0
 12 31  1  0  0  0  0
 13 14  1  0  0  0  0
 13 32  1  0  0  0  0
 14 15  2  0  0  0  0
 15 33  1  0  0  0  0
 16 17  1  0  0  0  0
 16 34  1  0  0  0  0
 16 35  1  0  0  0  0
 17 18  2  0  0  0  0
M  END
> <s_m_source_file>
AV-unprocessed.smi

> <i_m_source_file_index>
3045

> <i_lp_mmshare_version>
43012

> <i_f3d_flags>
0

> <s_epik_input>
W0NIM11OMVtDSDJdW0NASF0oW0NIMl1DMT1PKUMoPU8pW05IXVtDSDJdW0NIMl1jMltjSF1bY0hdW2NIXW5bY0hdMg==

> <s_epik_cmdline>
J2VwaWtfcHl0aG9uJywgJy1waCcsICc3LjAnLCAnLXRuJywgJzgnLCAnLW1hJywgJzIwMCcsICctbWV0YWxfYmluZGluZycsICctaW1hZScsICc8aW5maWxlLm1hZT4nLCAnLW9tYWUnLCAnPG91dGZpbGUubWFlPic=

> <r_epik_Ionization_Penalty>
0.0130932

> <r_epik_Ionization_Penalty_Charging>
0

> <r_epik_Ionization_Penalty_Neutral>
0.0130932

> <r_epik_State_Penalty>
0.0101714

> <r_epik_Charging_Adjusted_Penalty>
0.0101714

> <i_epik_Tot_Q>
0

> <i_epik_Tot_abs_Q>
0

> <r_epik_Metal_State_Penalty>
0.00995082

> <b_epik_Metal_Only>
0

> <s_lp_Force_Field>
OPLS_2005

> <r_lp_Energy>
10.4335

> <b_lp_Chiralities_Consistent>
1

> <s_lp_Variant>
AV-unprocessed.smi:3045-2

> <Gold.Version>
5.8.1

> <Gold.Id.Protein>
6NUR|6NUR_protein|mol2

> <Gold.PLP.Fitness>
40.7684

> <Gold.PLP.PLP>
-34.4107

> <Gold.PLP.part.hbond>
-2.0000

> <Gold.PLP.part.metal>
0.0000

> <Gold.PLP.part.buried>
-1.6202

> <Gold.PLP.part.nonpolar>
-31.7216

> <Gold.PLP.part.repulsive>
0.9361

> <Gold.PLP.ligand.clash>
0.0000

> <Gold.PLP.ligand.torsion>
1.1724

> <Gold.PLP.Chemscore.Hbond>
1.8960

> <Gold.PLP.Chemscore.CHOScore>
1.0000

> <Gold.PLP.Chemscore.Metal>
0.0000

> <Gold.Chemscore.Hbonds>
donor molecule, donor type, donor heavy atom, donor atom, acceptor molecule, acceptor atom, score
      L1  H     7    25       P1  7948  1.00
      P1  H 10785 10796       L1    18  0.98
      L1  C    15    33       P1  7948  0.69

> <Gold.PLP.Chemscore.Internal.Correction>
0.0144

> <Gold.Rescore>
     Score         DG    S(hbond)    S(metal)    S(lipo)     H(rot)  DE(clash)    DE(int)     intcor
     14.14     -16.08       1.88        0.00      72.52       1.62       0.78       1.16       ----

> <Gold.Chemscore.Fitness>
14.1401

> <Gold.Chemscore.DG>
-16.0797

> <Gold.Chemscore.ZeroCoef>
-5.4800

> <Gold.Chemscore.Hbond>
1.8755

> <Gold.Chemscore.Metal>
0.0000

> <Gold.Chemscore.Lipo>
72.5240

> <Gold.Chemscore.Internal_Hbond>
0.0000

> <Gold.Chemscore.DEClash>
0.7776

> <Gold.Chemscore.DEInternal>
1.1621

> <Gold.Chemscore.Rot>
1.6210

> <Gold.Chemscore.Internal.Correction>
   9.000000E+99

> <Gold.Chemscore.Hbonds>
donor molecule, donor type, donor heavy atom, donor atom, acceptor molecule, acceptor atom, score
      L1  H     7    25       P1  7948  0.99
      P1  H 10785 10796       L1    18  0.92

> <Gold.Chemscore.Hbond.Weighted>
-6.2642

> <Gold.Chemscore.Metal.Weighted>
-0.0000

> <Gold.Chemscore.Lipo.Weighted>
-8.4853

> <Gold.Chemscore.Internal_Hbond.Weighted>
0.0000

> <Gold.Chemscore.DEClash.Weighted>
0.7776

> <Gold.Chemscore.DEInternal.Weighted>
1.1621

> <Gold.Chemscore.Rot.Weighted>
4.1498

> <Gold.Chemscore.Internal.Correction.Weighted>
   9.000000E+99

> <Gold.Protein.RotatedTorsions>
[ 6907 6896 6895 6894 ] final   19.55 input  -60.11 | X-H torsion
[ 7974 7965 7964 7962 ] final   17.34 input  175.53 | X-H torsion
[ 8008 7997 7996 7995 ] final -167.82 input   59.86 | X-H torsion
[ 10167 10162 10161 10158 ] final  -66.38 input  -65.29 | X-H torsion
[ 10718 10713 10712 10709 ] final  -58.35 input   66.30 | X-H torsion
[ 10763 10752 10751 10750 ] final -115.23 input  -60.55 | X-H torsion
[ 11005 11000 10999 10996 ] final -131.78 input  -57.11 | X-H torsion

> <Gold.Protein.ActiveResidues>
 VAL166  LYS551  ARG553  GLY616  TRP617  ASP618  TYR619  PRO620  LYS621  CYS622 
 ASP623  PHE694  ASN695  SER759  ASP760  ASP761  ALA762  ILE779  LEU786  VAL792 
 PHE793  MET794  SER795  GLU796  ALA797  LYS798  CYS799  TRP800  GLU811  SER814 

> <Gold.Protein.RotatedAtoms>
  151.8826  135.0448  160.0489 H   0  0  0  0  0  0  0  0  0  0  0  0  # atno 6907 bound_to 6896
  152.2501  133.5203  159.5328 H   0  0  0  0  0  0  0  0  0  0  0  0  # atno 6908 bound_to 6896
  150.7081  134.0889  159.3967 H   0  0  0  0  0  0  0  0  0  0  0  0  # atno 6909 bound_to 6896
  146.2221  139.8616  142.8603 H   0  0  0  0  0  0  0  0  0  0  0  0  # atno 7974 bound_to 7965
  155.8830  140.1012  157.1472 H   0  0  0  0  0  0  0  0  0  0  0  0  # atno 8008 bound_to 7997
  154.4007  140.1325  156.4283 H   0  0  0  0  0  0  0  0  0  0  0  0  # atno 8009 bound_to 7997
  155.7622  140.3463  155.5206 H   0  0  0  0  0  0  0  0  0  0  0  0  # atno 8010 bound_to 7997
  140.5661  143.2315  151.6631 H   0  0  0  0  0  0  0  0  0  0  0  0  # atno 10167 bound_to 10162
  156.1142  130.4172  150.0565 H   0  0  0  0  0  0  0  0  0  0  0  0  # atno 10718 bound_to 10713
  154.8473  135.4389  154.1630 H   0  0  0  0  0  0  0  0  0  0  0  0  # atno 10763 bound_to 10752
  153.2762  135.6949  153.7437 H   0  0  0  0  0  0  0  0  0  0  0  0  # atno 10764 bound_to 10752
  153.6658  135.3427  155.3115 H   0  0  0  0  0  0  0  0  0  0  0  0  # atno 10765 bound_to 10752
  140.9228  134.1421  157.4300 H   0  0  0  0  0  0  0  0  0  0  0  0  # atno 11005 bound_to 11000
  145.2698  141.0105  143.3778 LP  0  0  0  0  0  0  0  0  0  0  0  0  # atno 17320 bound_to 7965
  144.9232  139.4386  143.6531 LP  0  0  0  0  0  0  0  0  0  0  0  0  # atno 17321 bound_to 7965
  139.5094  144.3579  152.0590 LP  0  0  0  0  0  0  0  0  0  0  0  0  # atno 17342 bound_to 10162
  140.2711  144.3963  150.6151 LP  0  0  0  0  0  0  0  0  0  0  0  0  # atno 17343 bound_to 10162
  156.8520  130.9462  151.3625 LP  0  0  0  0  0  0  0  0  0  0  0  0  # atno 17370 bound_to 10713
  157.6325  130.8740  149.9299 LP  0  0  0  0  0  0  0  0  0  0  0  0  # atno 17371 bound_to 10713
  139.8779  134.9977  156.5864 LP  0  0  0  0  0  0  0  0  0  0  0  0  # atno 17394 bound_to 11000
  140.7965  133.8540  155.8690 LP  0  0  0  0  0  0  0  0  0  0  0  0  # atno 17395 bound_to 11000

$$$$
