AV-unprocessed.smi:155|AV-procd|sdf|1270|dock10
  -GOLD-   2262018533D 1   1.00000     0.00000
 Structure written by MMmdl.
 63 66  0  0  0  0  0  0  0  0  2 V2000
  143.6933  132.6541  150.5221 C   0  0  0  0  0  0  0  0  0  0  0  0
  144.6137  132.3438  151.6079 N   0  0  0  0  0  0  0  0  0  0  0  0
  145.1481  131.0051  151.3802 C   0  0  0  0  0  0  0  0  0  0  0  0
  145.6750  133.3508  151.6395 C   0  0  0  0  0  0  0  0  0  0  0  0
  145.5095  134.3359  152.8154 C   0  0  0  0  0  0  0  0  0  0  0  0
  146.2514  135.6024  152.5804 N   0  3  1  0  0  0  0  0  0  0  0  0
  145.7398  136.3359  151.3957 C   0  0  0  0  0  0  0  0  0  0  0  0
  146.6469  137.4989  150.9594 C   0  0  0  0  0  0  0  0  0  0  0  0
  146.5500  138.7269  151.8777 C   0  0  0  0  0  0  0  0  0  0  0  0
  147.3730  138.6257  153.0848 N   0  0  0  0  0  0  0  0  0  0  0  0
  147.7180  139.7736  153.7273 C   0  0  0  0  0  0  0  0  0  0  0  0
  146.8508  140.8210  153.7084 N   0  0  0  0  0  0  0  0  0  0  0  0
  147.1532  141.9641  154.3299 C   0  0  0  0  0  0  0  0  0  0  0  0
  148.2517  142.2716  155.0204 N   0  0  0  0  0  0  0  0  0  0  0  0
  149.1304  141.2294  155.0428 C   0  0  0  0  0  0  0  0  0  0  0  0
  148.9498  139.9600  154.4220 C   0  0  0  0  0  0  0  0  0  0  0  0
  150.0754  139.1708  154.6336 N   0  0  0  0  0  0  0  0  0  0  0  0
  150.8666  139.9244  155.3467 C   0  0  0  0  0  0  0  0  0  0  0  0
  150.3703  141.1705  155.6550 N   0  0  0  0  0  0  0  0  0  0  0  0
  151.0390  142.2038  156.4297 C   0  0  0  0  0  0  0  0  0  0  0  0
  150.4909  142.4042  157.8654 C   0  0  1  0  0  0  0  0  0  0  0  0
  151.0058  141.4321  158.7523 O   0  0  0  0  0  0  0  0  0  0  0  0
  150.6667  143.7989  158.5113 C   0  0  2  0  0  0  0  0  0  0  0  0
  152.1014  144.3241  158.5014 C   0  0  0  0  0  0  0  0  0  0  0  0
  152.0275  145.4194  159.5417 C   0  0  0  0  0  0  0  0  0  0  0  0
  151.0634  144.8311  160.5709 C   0  0  0  0  0  0  0  0  0  0  0  0
  150.3014  143.8384  159.8868 O   0  0  0  0  0  0  0  0  0  0  0  0
  147.5869  137.3513  153.7723 C   0  0  0  0  0  0  0  0  0  0  0  0
  146.3436  136.4488  153.7983 C   0  0  0  0  0  0  0  0  0  0  0  0
  143.2422  133.6363  150.6684 H   0  0  0  0  0  0  0  0  0  0  0  0
  142.8835  131.9243  150.4835 H   0  0  0  0  0  0  0  0  0  0  0  0
  144.2014  132.6522  149.5563 H   0  0  0  0  0  0  0  0  0  0  0  0
  145.7978  130.6868  152.1942 H   0  0  0  0  0  0  0  0  0  0  0  0
  145.7157  130.9558  150.4497 H   0  0  0  0  0  0  0  0  0  0  0  0
  144.3372  130.2784  151.3186 H   0  0  0  0  0  0  0  0  0  0  0  0
  146.6457  132.8558  151.6986 H   0  0  0  0  0  0  0  0  0  0  0  0
  145.6764  133.9064  150.7014 H   0  0  0  0  0  0  0  0  0  0  0  0
  144.4518  134.5283  152.9915 H   0  0  0  0  0  0  0  0  0  0  0  0
  145.8710  133.8780  153.7374 H   0  0  0  0  0  0  0  0  0  0  0  0
  145.6794  135.6390  150.5586 H   0  0  0  0  0  0  0  0  0  0  0  0
  144.7228  136.6858  151.5804 H   0  0  0  0  0  0  0  0  0  0  0  0
  147.6814  137.1732  150.8424 H   0  0  0  0  0  0  0  0  0  0  0  0
  146.3216  137.8088  149.9658 H   0  0  0  0  0  0  0  0  0  0  0  0
  146.8876  139.5945  151.3086 H   0  0  0  0  0  0  0  0  0  0  0  0
  145.5122  138.9209  152.1515 H   0  0  0  0  0  0  0  0  0  0  0  0
  146.4077  142.7429  154.2661 H   0  0  0  0  0  0  0  0  0  0  0  0
  151.8370  139.5862  155.6797 H   0  0  0  0  0  0  0  0  0  0  0  0
  152.1032  141.9708  156.4632 H   0  0  0  0  0  0  0  0  0  0  0  0
  150.9601  143.1395  155.8749 H   0  0  0  0  0  0  0  0  0  0  0  0
  149.4192  142.2063  157.8244 H   0  0  0  0  0  0  0  0  0  0  0  0
  150.4492  140.6691  158.7193 H   0  0  0  0  0  0  0  0  0  0  0  0
  150.0432  144.5241  157.9844 H   0  0  0  0  0  0  0  0  0  0  0  0
  152.8052  143.5567  158.8239 H   0  0  0  0  0  0  0  0  0  0  0  0
  152.4148  144.6873  157.5221 H   0  0  0  0  0  0  0  0  0  0  0  0
  152.9995  145.6755  159.9644 H   0  0  0  0  0  0  0  0  0  0  0  0
  151.5993  146.3209  159.1010 H   0  0  0  0  0  0  0  0  0  0  0  0
  151.6086  144.3502  161.3836 H   0  0  0  0  0  0  0  0  0  0  0  0
  150.4158  145.5942  161.0035 H   0  0  0  0  0  0  0  0  0  0  0  0
  148.4396  136.8319  153.3334 H   0  0  0  0  0  0  0  0  0  0  0  0
  147.8517  137.5452  154.8121 H   0  0  0  0  0  0  0  0  0  0  0  0
  145.4269  137.0185  153.9596 H   0  0  0  0  0  0  0  0  0  0  0  0
  146.4436  135.7999  154.6681 H   0  0  0  0  0  0  0  0  0  0  0  0
  147.1928  135.3181  152.3488 H   0  0  0  0  0  0  0  0  0  0  0  0
  1  2  1  0  0  0  0
  1 30  1  0  0  0  0
  1 31  1  0  0  0  0
  1 32  1  0  0  0  0
  2  3  1  0  0  0  0
  2  4  1  0  0  0  0
  3 33  1  0  0  0  0
  3 34  1  0  0  0  0
  3 35  1  0  0  0  0
  4  5  1  0  0  0  0
  4 36  1  0  0  0  0
  4 37  1  0  0  0  0
  5  6  1  0  0  0  0
  5 38  1  0  0  0  0
  5 39  1  0  0  0  0
  6 29  1  0  0  0  0
  6  7  1  0  0  0  0
  6 63  1  0  0  0  0
  7  8  1  0  0  0  0
  7 40  1  0  0  0  0
  7 41  1  0  0  0  0
  8  9  1  0  0  0  0
  8 42  1  0  0  0  0
  8 43  1  0  0  0  0
  9 10  1  0  0  0  0
  9 44  1  0  0  0  0
  9 45  1  0  0  0  0
 10 11  1  0  0  0  0
 10 28  1  0  0  0  0
 11 16  1  0  0  0  0
 11 12  2  0  0  0  0
 12 13  1  0  0  0  0
 13 14  2  0  0  0  0
 13 46  1  0  0  0  0
 14 15  1  0  0  0  0
 15 19  1  0  0  0  0
 15 16  2  0  0  0  0
 16 17  1  0  0  0  0
 17 18  2  0  0  0  0
 18 19  1  0  0  0  0
 18 47  1  0  0  0  0
 19 20  1  0  0  0  0
 20 21  1  0  0  0  0
 20 48  1  0  0  0  0
 20 49  1  0  0  0  0
 21 22  1  0  0  0  0
 21 23  1  0  0  0  0
 21 50  1  0  0  0  0
 22 51  1  0  0  0  0
 23 27  1  0  0  0  0
 23 24  1  0  0  0  0
 23 52  1  0  0  0  0
 24 25  1  0  0  0  0
 24 53  1  0  0  0  0
 24 54  1  0  0  0  0
 25 26  1  0  0  0  0
 25 55  1  0  0  0  0
 25 56  1  0  0  0  0
 26 27  1  0  0  0  0
 26 57  1  0  0  0  0
 26 58  1  0  0  0  0
 28 29  1  0  0  0  0
 28 59  1  0  0  0  0
 28 60  1  0  0  0  0
 29 61  1  0  0  0  0
 29 62  1  0  0  0  0
M  CHG  1   6   1
M  END
> <s_m_source_file>
AV-unprocessed.smi

> <i_m_source_file_index>
155

> <i_lp_mmshare_version>
43012

> <i_f3d_flags>
0

> <s_epik_input>
W0NIM11OKFtDSDNdKVtDSDJdW0NIMl1OMVtDSDJdW0NIMl1bQ0gyXU4oW0NIMl1bQ0gyXTEpYyhuW2NIXW4yKWMoYzIzKW5bY0hdbjNbQ0gyXVtDQEhdKFtPSF0pW0NAQEhdNFtDSDJdW0NIMl1bQ0gyXU80

> <s_epik_cmdline>
J2VwaWtfcHl0aG9uJywgJy1waCcsICc3LjAnLCAnLXRuJywgJzgnLCAnLW1hJywgJzIwMCcsICctbWV0YWxfYmluZGluZycsICctaW1hZScsICc8aW5maWxlLm1hZT4nLCAnLW9tYWUnLCAnPG91dGZpbGUubWFlPic=

> <r_epik_Ionization_Penalty>
0.0619615

> <r_epik_Ionization_Penalty_Charging>
0.0161638

> <r_epik_Ionization_Penalty_Neutral>
0.0457976

> <r_epik_State_Penalty>
0.403408

> <r_epik_Charging_Adjusted_Penalty>
0.419572

> <i_epik_Tot_Q>
1

> <i_epik_Tot_abs_Q>
1

> <r_epik_Metal_State_Penalty>
0.404222

> <b_epik_Metal_Only>
0

> <s_lp_Force_Field>
OPLS_2005

> <r_lp_Energy>
53.2961

> <b_lp_Chiralities_Consistent>
1

> <s_lp_Variant>
AV-unprocessed.smi:155-4

> <Gold.Version>
5.8.1

> <Gold.Id.Protein>
6NUR|6NUR_protein|mol2

> <Gold.PLP.Fitness>
48.5135

> <Gold.PLP.PLP>
-47.1375

> <Gold.PLP.part.hbond>
-1.6883

> <Gold.PLP.part.metal>
0.0000

> <Gold.PLP.part.buried>
2.7686

> <Gold.PLP.part.nonpolar>
-52.3372

> <Gold.PLP.part.repulsive>
3.8661

> <Gold.PLP.ligand.clash>
0.0000

> <Gold.PLP.ligand.torsion>
1.9595

> <Gold.PLP.Chemscore.Hbond>
1.6960

> <Gold.PLP.Chemscore.CHOScore>
0.0000

> <Gold.PLP.Chemscore.Metal>
0.0000

> <Gold.Chemscore.Hbonds>
donor molecule, donor type, donor heavy atom, donor atom, acceptor molecule, acceptor atom, score
      L1  H     6    63       P1  7948  1.54

> <Gold.PLP.Chemscore.Internal.Correction>
0.2071

> <Gold.Rescore>
     Score         DG    S(hbond)    S(metal)    S(lipo)     H(rot)  DE(clash)    DE(int)     intcor
     10.21     -16.33       0.91        0.00     124.42       2.63       4.39       1.73       ----

> <Gold.Chemscore.Fitness>
10.2147

> <Gold.Chemscore.DG>
-16.3348

> <Gold.Chemscore.ZeroCoef>
-5.4800

> <Gold.Chemscore.Hbond>
0.9091

> <Gold.Chemscore.Metal>
0.0000

> <Gold.Chemscore.Lipo>
124.4201

> <Gold.Chemscore.Internal_Hbond>
0.0000

> <Gold.Chemscore.DEClash>
4.3910

> <Gold.Chemscore.DEInternal>
1.7291

> <Gold.Chemscore.Rot>
2.6324

> <Gold.Chemscore.Internal.Correction>
   9.000000E+99

> <Gold.Chemscore.Hbonds>
donor molecule, donor type, donor heavy atom, donor atom, acceptor molecule, acceptor atom, score
      L1  H     6    63       P1  7948  0.72

> <Gold.Chemscore.Hbond.Weighted>
-3.0365

> <Gold.Chemscore.Metal.Weighted>
-0.0000

> <Gold.Chemscore.Lipo.Weighted>
-14.5572

> <Gold.Chemscore.Internal_Hbond.Weighted>
0.0000

> <Gold.Chemscore.DEClash.Weighted>
4.3910

> <Gold.Chemscore.DEInternal.Weighted>
1.7291

> <Gold.Chemscore.Rot.Weighted>
6.7389

> <Gold.Chemscore.Internal.Correction.Weighted>
   9.000000E+99

> <Gold.Protein.RotatedTorsions>
[ 6907 6896 6895 6894 ] final  102.38 input  -60.11 | X-H torsion
[ 7974 7965 7964 7962 ] final   55.16 input  175.53 | X-H torsion
[ 8008 7997 7996 7995 ] final  143.55 input   59.86 | X-H torsion
[ 10167 10162 10161 10158 ] final   -5.93 input  -65.29 | X-H torsion
[ 10718 10713 10712 10709 ] final  127.17 input   66.30 | X-H torsion
[ 10763 10752 10751 10750 ] final  -71.02 input  -60.55 | X-H torsion
[ 11005 11000 10999 10996 ] final   92.34 input  -57.11 | X-H torsion

> <Gold.Protein.ActiveResidues>
 VAL166  LYS551  ARG553  GLY616  TRP617  ASP618  TYR619  PRO620  LYS621  CYS622 
 ASP623  PHE694  ASN695  SER759  ASP760  ASP761  ALA762  ILE779  LEU786  VAL792 
 PHE793  MET794  SER795  GLU796  ALA797  LYS798  CYS799  TRP800  GLU811  SER814 

> <Gold.Protein.RotatedAtoms>
  152.5325  133.9985  159.7883 H   0  0  0  0  0  0  0  0  0  0  0  0  # atno 6907 bound_to 6896
  151.0208  133.5871  159.2678 H   0  0  0  0  0  0  0  0  0  0  0  0  # atno 6908 bound_to 6896
  151.2911  135.0749  159.9258 H   0  0  0  0  0  0  0  0  0  0  0  0  # atno 6909 bound_to 6896
  145.9533  139.3992  143.0293 H   0  0  0  0  0  0  0  0  0  0  0  0  # atno 7974 bound_to 7965
  156.2927  140.2259  156.4909 H   0  0  0  0  0  0  0  0  0  0  0  0  # atno 8008 bound_to 7997
  154.7772  140.0462  157.1119 H   0  0  0  0  0  0  0  0  0  0  0  0  # atno 8009 bound_to 7997
  154.9803  140.3077  155.4953 H   0  0  0  0  0  0  0  0  0  0  0  0  # atno 8010 bound_to 7997
  140.6980  143.6251  150.8575 H   0  0  0  0  0  0  0  0  0  0  0  0  # atno 10167 bound_to 10162
  157.5356  131.1097  150.8940 H   0  0  0  0  0  0  0  0  0  0  0  0  # atno 10718 bound_to 10713
  154.4259  135.5975  153.6038 H   0  0  0  0  0  0  0  0  0  0  0  0  # atno 10763 bound_to 10752
  152.9796  135.5963  154.3898 H   0  0  0  0  0  0  0  0  0  0  0  0  # atno 10764 bound_to 10752
  154.3730  135.2841  155.2234 H   0  0  0  0  0  0  0  0  0  0  0  0  # atno 10765 bound_to 10752
  139.8825  134.8727  156.3559 H   0  0  0  0  0  0  0  0  0  0  0  0  # atno 11005 bound_to 11000
  145.8141  140.9711  143.0933 LP  0  0  0  0  0  0  0  0  0  0  0  0  # atno 17320 bound_to 7965
  144.6800  139.9958  143.7484 LP  0  0  0  0  0  0  0  0  0  0  0  0  # atno 17321 bound_to 7965
  139.9971  143.5784  152.2889 LP  0  0  0  0  0  0  0  0  0  0  0  0  # atno 17342 bound_to 10162
  139.6460  144.7658  151.2243 LP  0  0  0  0  0  0  0  0  0  0  0  0  # atno 17343 bound_to 10162
  156.9508  130.5419  149.5282 LP  0  0  0  0  0  0  0  0  0  0  0  0  # atno 17370 bound_to 10713
  156.0456  130.5533  150.8873 LP  0  0  0  0  0  0  0  0  0  0  0  0  # atno 17371 bound_to 10713
  140.9563  133.7418  156.0339 LP  0  0  0  0  0  0  0  0  0  0  0  0  # atno 17394 bound_to 11000
  140.8045  134.3471  157.5430 LP  0  0  0  0  0  0  0  0  0  0  0  0  # atno 17395 bound_to 11000

$$$$
