AV-unprocessed.smi:261|AV-procd|sdf|1997|dock4
  -GOLD-   2262021193D 1   1.00000     0.00000
 Structure written by MMmdl.
 51 54  0  0  0  0  0  0  0  0  1 V2000
  152.6000  142.2871  159.4441 C   0  0  0  0  0  0  0  0  0  0  0  0
  151.5226  142.5556  158.5615 O   0  0  0  0  0  0  0  0  0  0  0  0
  151.4725  141.6804  157.4439 C   0  0  1  0  0  0  0  0  0  0  0  0
  151.2656  140.2121  157.8274 C   0  0  0  0  0  0  0  0  0  0  0  0
  150.6183  139.5787  156.5837 C   0  0  2  0  0  0  0  0  0  0  0  0
  151.6785  139.0213  155.6163 C   0  0  0  0  0  0  0  0  0  0  0  0
  151.2298  138.4901  154.4766 N   0  0  0  0  0  0  0  0  0  0  0  0
  152.8770  139.0571  155.8915 O   0  0  0  0  0  0  0  0  0  0  0  0
  149.8668  140.6888  155.9976 N   0  0  0  0  0  0  0  0  0  0  0  0
  148.8319  140.5637  155.1207 C   0  0  0  0  0  0  0  0  0  0  0  0
  148.2524  141.7045  154.6602 N   0  0  0  0  0  0  0  0  0  0  0  0
  147.2352  141.6570  153.7970 C   0  0  0  0  0  0  0  0  0  0  0  0
  146.6442  140.5875  153.2655 N   0  0  0  0  0  0  0  0  0  0  0  0
  147.2134  139.4346  153.7179 C   0  0  0  0  0  0  0  0  0  0  0  0
  148.2975  139.3287  154.6389 C   0  0  0  0  0  0  0  0  0  0  0  0
  148.5825  137.9842  154.8562 N   0  0  0  0  0  0  0  0  0  0  0  0
  147.7278  137.3402  154.1116 C   0  0  0  0  0  0  0  0  0  0  0  0
  146.8788  138.1350  153.3779 N   0  0  0  0  0  0  0  0  0  0  0  0
  145.8311  137.6861  152.4762 C   0  0  0  0  0  0  0  0  0  0  0  0
  144.8020  136.7405  153.1379 C   0  0  1  0  0  0  0  0  0  0  0  0
  143.7550  137.5724  153.5956 O   0  0  0  0  0  0  0  0  0  0  0  0
  144.1688  135.6865  152.2001 C   0  0  1  0  0  0  0  0  0  0  0  0
  145.1426  134.8450  151.3719 C   0  0  0  0  0  0  0  0  0  0  0  0
  144.3624  133.5757  151.0756 C   0  0  0  0  0  0  0  0  0  0  0  0
  143.2537  133.5744  152.1289 C   0  0  0  0  0  0  0  0  0  0  0  0
  143.5507  134.6727  152.9801 O   0  0  0  0  0  0  0  0  0  0  0  0
  150.2436  141.9722  156.5822 C   0  0  0  0  0  0  0  0  0  0  0  0
  152.3694  141.7845  156.8303 H   0  0  0  0  0  0  0  0  0  0  0  0
  149.9486  138.7807  156.9054 H   0  0  0  0  0  0  0  0  0  0  0  0
  152.6001  143.0201  160.2506 H   0  0  0  0  0  0  0  0  0  0  0  0
  153.5595  142.3550  158.9297 H   0  0  0  0  0  0  0  0  0  0  0  0
  152.5129  141.2979  159.8945 H   0  0  0  0  0  0  0  0  0  0  0  0
  152.1920  139.7230  158.1324 H   0  0  0  0  0  0  0  0  0  0  0  0
  150.5724  140.1469  158.6674 H   0  0  0  0  0  0  0  0  0  0  0  0
  151.8814  138.1016  153.8104 H   0  0  0  0  0  0  0  0  0  0  0  0
  150.2378  138.4708  154.2898 H   0  0  0  0  0  0  0  0  0  0  0  0
  146.8400  142.6130  153.4868 H   0  0  0  0  0  0  0  0  0  0  0  0
  147.6986  136.2609  154.0727 H   0  0  0  0  0  0  0  0  0  0  0  0
  145.3291  138.5817  152.1069 H   0  0  0  0  0  0  0  0  0  0  0  0
  146.2822  137.2061  151.6069 H   0  0  0  0  0  0  0  0  0  0  0  0
  145.2483  136.2515  154.0045 H   0  0  0  0  0  0  0  0  0  0  0  0
  143.7875  138.3869  153.1176 H   0  0  0  0  0  0  0  0  0  0  0  0
  143.4292  136.1453  151.5405 H   0  0  0  0  0  0  0  0  0  0  0  0
  145.4702  135.3480  150.4627 H   0  0  0  0  0  0  0  0  0  0  0  0
  146.0250  134.5965  151.9630 H   0  0  0  0  0  0  0  0  0  0  0  0
  143.9339  133.6013  150.0730 H   0  0  0  0  0  0  0  0  0  0  0  0
  144.9993  132.6937  151.1479 H   0  0  0  0  0  0  0  0  0  0  0  0
  142.2799  133.7305  151.6632 H   0  0  0  0  0  0  0  0  0  0  0  0
  143.2160  132.6440  152.6956 H   0  0  0  0  0  0  0  0  0  0  0  0
  149.4179  142.3353  157.1960 H   0  0  0  0  0  0  0  0  0  0  0  0
  150.4649  142.7241  155.8238 H   0  0  0  0  0  0  0  0  0  0  0  0
  1  2  1  0  0  0  0
  1 30  1  0  0  0  0
  1 31  1  0  0  0  0
  1 32  1  0  0  0  0
  2  3  1  0  0  0  0
  3 28  1  0  0  0  0
  3 27  1  0  0  0  0
  3  4  1  0  0  0  0
  4  5  1  0  0  0  0
  4 33  1  0  0  0  0
  4 34  1  0  0  0  0
  5 29  1  0  0  0  0
  5  6  1  0  0  0  0
  5  9  1  0  0  0  0
  6  7  1  0  0  0  0
  6  8  2  0  0  0  0
  7 35  1  0  0  0  0
  7 36  1  0  0  0  0
  9 10  1  0  0  0  0
  9 27  1  0  0  0  0
 10 15  1  0  0  0  0
 10 11  2  0  0  0  0
 11 12  1  0  0  0  0
 12 13  2  0  0  0  0
 12 37  1  0  0  0  0
 13 14  1  0  0  0  0
 14 18  1  0  0  0  0
 14 15  2  0  0  0  0
 15 16  1  0  0  0  0
 16 17  2  0  0  0  0
 17 18  1  0  0  0  0
 17 38  1  0  0  0  0
 18 19  1  0  0  0  0
 19 20  1  0  0  0  0
 19 39  1  0  0  0  0
 19 40  1  0  0  0  0
 20 21  1  0  0  0  0
 20 22  1  0  0  0  0
 20 41  1  0  0  0  0
 21 42  1  0  0  0  0
 22 26  1  0  0  0  0
 22 23  1  0  0  0  0
 22 43  1  0  0  0  0
 23 24  1  0  0  0  0
 23 44  1  0  0  0  0
 23 45  1  0  0  0  0
 24 25  1  0  0  0  0
 24 46  1  0  0  0  0
 24 47  1  0  0  0  0
 25 26  1  0  0  0  0
 25 48  1  0  0  0  0
 25 49  1  0  0  0  0
 27 50  1  0  0  0  0
 27 51  1  0  0  0  0
M  END
> <s_m_source_file>
AV-unprocessed.smi

> <i_m_source_file_index>
261

> <i_lp_mmshare_version>
43012

> <i_f3d_flags>
0

> <s_epik_input>
W0NIM11PW0NASF0xW0NIMl1bQ0BASF0oQyg9TylbTkgyXSlOKFtDSDJdMSljKG5bY0hdbjIpYyhjMjMpbltjSF1uM1tDSDJdW0NASF0oW09IXSlbQ0BASF00W0NIMl1bQ0gyXVtDSDJdTzQ=

> <s_epik_cmdline>
J2VwaWtfcHl0aG9uJywgJy1waCcsICc3LjAnLCAnLXRuJywgJzgnLCAnLW1hJywgJzIwMCcsICctbWV0YWxfYmluZGluZycsICctaW1hZScsICc8aW5maWxlLm1hZT4nLCAnLW9tYWUnLCAnPG91dGZpbGUubWFlPic=

> <r_lp_tautomer_probability>
1

> <r_epik_Ionization_Penalty>
0.000713824

> <r_epik_Ionization_Penalty_Charging>
0

> <r_epik_Ionization_Penalty_Neutral>
0.000713824

> <r_epik_State_Penalty>
0.000402132

> <r_epik_Charging_Adjusted_Penalty>
0.000402132

> <i_epik_Tot_Q>
0

> <i_epik_Tot_abs_Q>
0

> <r_epik_Metal_State_Penalty>
-0

> <b_epik_Metal_Only>
0

> <s_lp_Force_Field>
OPLS_2005

> <r_lp_Energy>
45.931

> <b_lp_Chiralities_Consistent>
1

> <s_lp_Variant>
AV-unprocessed.smi:261-15

> <Gold.Version>
5.8.1

> <Gold.Id.Protein>
6NUR|6NUR_protein|mol2

> <Gold.PLP.Fitness>
44.5800

> <Gold.PLP.PLP>
-38.2864

> <Gold.PLP.part.hbond>
-2.0000

> <Gold.PLP.part.metal>
0.0000

> <Gold.PLP.part.buried>
-4.2697

> <Gold.PLP.part.nonpolar>
-34.8478

> <Gold.PLP.part.repulsive>
2.3087

> <Gold.PLP.ligand.clash>
0.0000

> <Gold.PLP.ligand.torsion>
0.6514

> <Gold.PLP.Chemscore.Hbond>
2.0000

> <Gold.PLP.Chemscore.CHOScore>
0.4759

> <Gold.PLP.Chemscore.Metal>
0.0000

> <Gold.Chemscore.Hbonds>
donor molecule, donor type, donor heavy atom, donor atom, acceptor molecule, acceptor atom, score
      L1  H    21    42       P1 10175  0.68
      P1  H  7997  8008       L1     8  1.00
      L1  C    17    38       P1  7948  0.23

> <Gold.PLP.Chemscore.Internal.Correction>
0.1687

> <Gold.Rescore>
     Score         DG    S(hbond)    S(metal)    S(lipo)     H(rot)  DE(clash)    DE(int)     intcor
      8.58     -11.73       1.95        0.00      67.34       3.18       1.33       1.81       ----

> <Gold.Chemscore.Fitness>
8.5816

> <Gold.Chemscore.DG>
-11.7258

> <Gold.Chemscore.ZeroCoef>
-5.4800

> <Gold.Chemscore.Hbond>
1.9507

> <Gold.Chemscore.Metal>
0.0000

> <Gold.Chemscore.Lipo>
67.3422

> <Gold.Chemscore.Internal_Hbond>
0.0000

> <Gold.Chemscore.DEClash>
1.3329

> <Gold.Chemscore.DEInternal>
1.8113

> <Gold.Chemscore.Rot>
3.1831

> <Gold.Chemscore.Internal.Correction>
   9.000000E+99

> <Gold.Chemscore.Hbonds>
donor molecule, donor type, donor heavy atom, donor atom, acceptor molecule, acceptor atom, score
      L1  H    21    42       P1 10175  0.69
      P1  H  7997  8008       L1     8  1.00

> <Gold.Chemscore.Hbond.Weighted>
-6.5154

> <Gold.Chemscore.Metal.Weighted>
-0.0000

> <Gold.Chemscore.Lipo.Weighted>
-7.8790

> <Gold.Chemscore.Internal_Hbond.Weighted>
0.0000

> <Gold.Chemscore.DEClash.Weighted>
1.3329

> <Gold.Chemscore.DEInternal.Weighted>
1.8113

> <Gold.Chemscore.Rot.Weighted>
8.1486

> <Gold.Chemscore.Internal.Correction.Weighted>
   9.000000E+99

> <Gold.Protein.RotatedTorsions>
[ 6907 6896 6895 6894 ] final   12.42 input  -60.11 | X-H torsion
[ 7974 7965 7964 7962 ] final  116.83 input  175.53 | X-H torsion
[ 8008 7997 7996 7995 ] final  -34.71 input   59.86 | X-H torsion
[ 10167 10162 10161 10158 ] final  138.82 input  -65.29 | X-H torsion
[ 10718 10713 10712 10709 ] final  178.00 input   66.30 | X-H torsion
[ 10763 10752 10751 10750 ] final -153.71 input  -60.55 | X-H torsion
[ 11005 11000 10999 10996 ] final -148.05 input  -57.11 | X-H torsion

> <Gold.Protein.ActiveResidues>
 VAL166  LYS551  ARG553  GLY616  TRP617  ASP618  TYR619  PRO620  LYS621  CYS622 
 ASP623  PHE694  ASN695  SER759  ASP760  ASP761  ALA762  ILE779  LEU786  VAL792 
 PHE793  MET794  SER795  GLU796  ALA797  LYS798  CYS799  TRP800  GLU811  SER814 

> <Gold.Protein.RotatedAtoms>
  151.7701  135.0788  160.0358 H   0  0  0  0  0  0  0  0  0  0  0  0  # atno 6907 bound_to 6896
  152.3294  133.5937  159.5808 H   0  0  0  0  0  0  0  0  0  0  0  0  # atno 6908 bound_to 6896
  150.7414  133.9806  159.3617 H   0  0  0  0  0  0  0  0  0  0  0  0  # atno 6909 bound_to 6896
  145.1748  139.3082  143.4449 H   0  0  0  0  0  0  0  0  0  0  0  0  # atno 7974 bound_to 7965
  154.4114  140.1677  156.2093 H   0  0  0  0  0  0  0  0  0  0  0  0  # atno 8008 bound_to 7997
  155.9457  140.3404  155.6342 H   0  0  0  0  0  0  0  0  0  0  0  0  # atno 8009 bound_to 7997
  155.6933  140.0736  157.2430 H   0  0  0  0  0  0  0  0  0  0  0  0  # atno 8010 bound_to 7997
  139.5098  144.6331  151.5767 H   0  0  0  0  0  0  0  0  0  0  0  0  # atno 10167 bound_to 10162
  156.8970  130.9866  151.3041 H   0  0  0  0  0  0  0  0  0  0  0  0  # atno 10718 bound_to 10713
  154.7909  135.3206  154.7779 H   0  0  0  0  0  0  0  0  0  0  0  0  # atno 10763 bound_to 10752
  153.8469  135.6866  153.4801 H   0  0  0  0  0  0  0  0  0  0  0  0  # atno 10764 bound_to 10752
  153.1579  135.4673  154.9670 H   0  0  0  0  0  0  0  0  0  0  0  0  # atno 10765 bound_to 10752
  140.7652  134.3252  157.5090 H   0  0  0  0  0  0  0  0  0  0  0  0  # atno 11005 bound_to 11000
  146.3463  140.1906  142.8589 LP  0  0  0  0  0  0  0  0  0  0  0  0  # atno 17320 bound_to 7965
  145.0196  140.8783  143.5174 LP  0  0  0  0  0  0  0  0  0  0  0  0  # atno 17321 bound_to 7965
  140.6070  143.9506  150.6426 LP  0  0  0  0  0  0  0  0  0  0  0  0  # atno 17342 bound_to 10162
  140.2736  143.3438  152.1215 LP  0  0  0  0  0  0  0  0  0  0  0  0  # atno 17343 bound_to 10162
  157.6049  130.8540  149.8860 LP  0  0  0  0  0  0  0  0  0  0  0  0  # atno 17370 bound_to 10713
  156.0600  130.3701  150.1003 LP  0  0  0  0  0  0  0  0  0  0  0  0  # atno 17371 bound_to 10713
  139.8764  134.9227  156.3306 LP  0  0  0  0  0  0  0  0  0  0  0  0  # atno 17394 bound_to 11000
  140.9625  133.7379  156.0421 LP  0  0  0  0  0  0  0  0  0  0  0  0  # atno 17395 bound_to 11000

$$$$
