AV-unprocessed.smi:753|AV-procd|sdf|3606|dock8
  -GOLD-   22720 1 03D 1   1.00000     0.00000
 Structure written by MMmdl.
 44 46  0  0  0  0  0  0  0  0  2 V2000
  143.2982  145.5871  155.7257 C   0  0  0  0  0  0  0  0  0  0  0  0
  144.2894  144.6313  155.0963 C   0  0  0  0  0  0  0  0  0  0  0  0
  144.6953  144.7435  153.7492 C   0  0  0  0  0  0  0  0  0  0  0  0
  145.6219  143.8159  153.2298 C   0  0  0  0  0  0  0  0  0  0  0  0
  146.1249  142.7965  154.0676 C   0  0  0  0  0  0  0  0  0  0  0  0
  147.1182  141.7829  153.5359 C   0  0  0  0  0  0  0  0  0  0  0  0
  147.9143  141.1076  154.6640 C   0  0  0  0  0  0  0  0  0  0  0  0
  148.7431  142.0696  155.3788 N   0  0  0  0  0  0  0  0  0  0  0  0
  149.7965  141.7536  156.1506 C   0  0  0  0  0  0  0  0  0  0  0  0
  150.1656  140.5978  156.3507 O   0  0  0  0  0  0  0  0  0  0  0  0
  150.4311  142.8068  156.6949 N   0  0  0  0  0  0  0  0  0  0  0  0
  151.6023  142.7988  157.5749 C   0  0  1  0  0  0  0  0  0  0  0  0
  152.2104  144.2104  157.7293 C   0  0  0  0  0  0  0  0  0  0  0  0
  152.1723  144.4376  159.2521 C   0  0  2  0  0  0  0  0  0  0  0  0
  153.1896  143.5056  159.9390 C   0  0  0  0  0  0  0  0  0  0  0  0
  152.5288  142.1194  159.8051 C   0  0  0  0  0  0  0  0  0  0  0  0
  151.2344  142.4385  159.0346 C   0  0  1  0  0  0  0  0  0  0  0  0
  150.8482  143.7890  159.6303 C   0  0  0  0  0  0  0  0  0  0  0  0
  145.6824  142.7328  155.4062 C   0  0  0  0  0  0  0  0  0  0  0  0
  144.7925  143.6396  155.8654 N   0  3  0  0  0  0  0  0  0  0  0  0
  143.0051  146.3684  155.0239 H   0  0  0  0  0  0  0  0  0  0  0  0
  143.7353  146.0646  156.6033 H   0  0  0  0  0  0  0  0  0  0  0  0
  142.3998  145.0526  156.0352 H   0  0  0  0  0  0  0  0  0  0  0  0
  144.3037  145.5284  153.1186 H   0  0  0  0  0  0  0  0  0  0  0  0
  145.9401  143.8870  152.1997 H   0  0  0  0  0  0  0  0  0  0  0  0
  146.5802  141.0353  152.9512 H   0  0  0  0  0  0  0  0  0  0  0  0
  147.7986  142.2817  152.8445 H   0  0  0  0  0  0  0  0  0  0  0  0
  147.2320  140.6498  155.3805 H   0  0  0  0  0  0  0  0  0  0  0  0
  148.5347  140.3024  154.2668 H   0  0  0  0  0  0  0  0  0  0  0  0
  148.5081  143.0461  155.2736 H   0  0  0  0  0  0  0  0  0  0  0  0
  150.0478  143.7174  156.4866 H   0  0  0  0  0  0  0  0  0  0  0  0
  152.3511  142.1127  157.1748 H   0  0  0  0  0  0  0  0  0  0  0  0
  153.2233  144.2704  157.3296 H   0  0  0  0  0  0  0  0  0  0  0  0
  151.6102  144.9653  157.2185 H   0  0  0  0  0  0  0  0  0  0  0  0
  152.2723  145.4843  159.5405 H   0  0  0  0  0  0  0  0  0  0  0  0
  154.1721  143.5470  159.4673 H   0  0  0  0  0  0  0  0  0  0  0  0
  153.3112  143.7706  160.9900 H   0  0  0  0  0  0  0  0  0  0  0  0
  153.1620  141.4027  159.2809 H   0  0  0  0  0  0  0  0  0  0  0  0
  152.3017  141.7080  160.7895 H   0  0  0  0  0  0  0  0  0  0  0  0
  150.4761  141.6609  159.1314 H   0  0  0  0  0  0  0  0  0  0  0  0
  150.6745  143.7547  160.7075 H   0  0  0  0  0  0  0  0  0  0  0  0
  149.9862  144.2482  159.1436 H   0  0  0  0  0  0  0  0  0  0  0  0
  146.0078  141.9882  156.1180 H   0  0  0  0  0  0  0  0  0  0  0  0
  144.4861  143.5725  156.8363 H   0  0  0  0  0  0  0  0  0  0  0  0
  1  2  1  0  0  0  0
  1 21  1  0  0  0  0
  1 22  1  0  0  0  0
  1 23  1  0  0  0  0
  2 20  1  0  0  0  0
  2  3  2  0  0  0  0
  3  4  1  0  0  0  0
  3 24  1  0  0  0  0
  4  5  2  0  0  0  0
  4 25  1  0  0  0  0
  5  6  1  0  0  0  0
  5 19  1  0  0  0  0
  6  7  1  0  0  0  0
  6 26  1  0  0  0  0
  6 27  1  0  0  0  0
  7  8  1  0  0  0  0
  7 28  1  0  0  0  0
  7 29  1  0  0  0  0
  8  9  1  0  0  0  0
  8 30  1  0  0  0  0
  9 10  2  0  0  0  0
  9 11  1  0  0  0  0
 11 12  1  0  0  0  0
 11 31  1  0  0  0  0
 12 17  1  0  0  0  0
 12 13  1  0  0  0  0
 12 32  1  0  0  0  0
 13 14  1  0  0  0  0
 13 33  1  0  0  0  0
 13 34  1  0  0  0  0
 14 18  1  0  0  0  0
 14 15  1  0  0  0  0
 14 35  1  0  0  0  0
 15 16  1  0  0  0  0
 15 36  1  0  0  0  0
 15 37  1  0  0  0  0
 16 17  1  0  0  0  0
 16 38  1  0  0  0  0
 16 39  1  0  0  0  0
 17 18  1  0  0  0  0
 17 40  1  0  0  0  0
 18 41  1  0  0  0  0
 18 42  1  0  0  0  0
 19 20  2  0  0  0  0
 19 43  1  0  0  0  0
 20 44  1  0  0  0  0
M  CHG  1  20   1
M  END
> <s_m_source_file>
AV-unprocessed.smi

> <i_m_source_file_index>
753

> <i_lp_mmshare_version>
43012

> <i_f3d_flags>
0

> <s_epik_input>
W0NIM11jMVtjSF1bY0hdYyhbY0hdbjEpW0NIMl1bQ0gyXVtOSF1DKD1PKVtOSF1bQ0BIXShbQ0gyXVtDQEBIXTIzKVtDQEBIXShbQ0gyXTMpW0NIMl1bQ0gyXTI=

> <s_epik_cmdline>
J2VwaWtfcHl0aG9uJywgJy1waCcsICc3LjAnLCAnLXRuJywgJzgnLCAnLW1hJywgJzIwMCcsICctbWV0YWxfYmluZGluZycsICctaW1hZScsICc8aW5maWxlLm1hZT4nLCAnLW9tYWUnLCAnPG91dGZpbGUubWFlPic=

> <r_epik_Ionization_Penalty>
1.41708

> <r_epik_Ionization_Penalty_Charging>
1.41702

> <r_epik_Ionization_Penalty_Neutral>
5.73163e-05

> <r_epik_State_Penalty>
1.50048

> <r_epik_Charging_Adjusted_Penalty>
2.9175

> <i_epik_Tot_Q>
1

> <i_epik_Tot_abs_Q>
1

> <r_epik_Metal_State_Penalty>
1.55295

> <b_epik_Metal_Only>
0

> <s_lp_Force_Field>
OPLS_2005

> <r_lp_Energy>
57.1024

> <b_lp_Chiralities_Consistent>
1

> <s_lp_Variant>
AV-unprocessed.smi:753-8

> <Gold.Version>
5.8.1

> <Gold.Id.Protein>
6NUR|6NUR_protein|mol2

> <Gold.PLP.Fitness>
49.5589

> <Gold.PLP.PLP>
-44.8196

> <Gold.PLP.part.hbond>
-2.0000

> <Gold.PLP.part.metal>
0.0000

> <Gold.PLP.part.buried>
-7.7823

> <Gold.PLP.part.nonpolar>
-35.0912

> <Gold.PLP.part.repulsive>
0.2279

> <Gold.PLP.ligand.clash>
0.0000

> <Gold.PLP.ligand.torsion>
0.6317

> <Gold.PLP.Chemscore.Hbond>
1.9920

> <Gold.PLP.Chemscore.CHOScore>
0.0000

> <Gold.PLP.Chemscore.Metal>
0.0000

> <Gold.Chemscore.Hbonds>
donor molecule, donor type, donor heavy atom, donor atom, acceptor molecule, acceptor atom, score
      L1  H     8    30       P1  8028  0.99
      L1  H    11    31       P1  8028  1.00

> <Gold.PLP.Chemscore.Internal.Correction>
0.0267

> <Gold.Rescore>
     Score         DG    S(hbond)    S(metal)    S(lipo)     H(rot)  DE(clash)    DE(int)     intcor
     22.27     -23.11       1.93        0.00     128.44       1.50       0.26       0.57       ----

> <Gold.Chemscore.Fitness>
22.2735

> <Gold.Chemscore.DG>
-23.1113

> <Gold.Chemscore.ZeroCoef>
-5.4800

> <Gold.Chemscore.Hbond>
1.9313

> <Gold.Chemscore.Metal>
0.0000

> <Gold.Chemscore.Lipo>
128.4409

> <Gold.Chemscore.Internal_Hbond>
0.0000

> <Gold.Chemscore.DEClash>
0.2631

> <Gold.Chemscore.DEInternal>
0.5747

> <Gold.Chemscore.Rot>
1.5027

> <Gold.Chemscore.Internal.Correction>
   9.000000E+99

> <Gold.Chemscore.Hbonds>
donor molecule, donor type, donor heavy atom, donor atom, acceptor molecule, acceptor atom, score
      L1  H     8    30       P1  8028  0.93
      L1  H    11    31       P1  8028  0.96

> <Gold.Chemscore.Hbond.Weighted>
-6.4506

> <Gold.Chemscore.Metal.Weighted>
-0.0000

> <Gold.Chemscore.Lipo.Weighted>
-15.0276

> <Gold.Chemscore.Internal_Hbond.Weighted>
0.0000

> <Gold.Chemscore.DEClash.Weighted>
0.2631

> <Gold.Chemscore.DEInternal.Weighted>
0.5747

> <Gold.Chemscore.Rot.Weighted>
3.8468

> <Gold.Chemscore.Internal.Correction.Weighted>
   9.000000E+99

> <Gold.Protein.RotatedTorsions>
[ 6907 6896 6895 6894 ] final   -0.68 input  -60.11 | X-H torsion
[ 7974 7965 7964 7962 ] final  -19.83 input  175.53 | X-H torsion
[ 8008 7997 7996 7995 ] final   63.61 input   59.86 | X-H torsion
[ 10167 10162 10161 10158 ] final  -41.88 input  -65.29 | X-H torsion
[ 10718 10713 10712 10709 ] final  -26.23 input   66.30 | X-H torsion
[ 10763 10752 10751 10750 ] final  160.27 input  -60.55 | X-H torsion
[ 11005 11000 10999 10996 ] final  165.45 input  -57.11 | X-H torsion

> <Gold.Protein.ActiveResidues>
 VAL166  LYS551  ARG553  GLY616  TRP617  ASP618  TYR619  PRO620  LYS621  CYS622 
 ASP623  PHE694  ASN695  SER759  ASP760  ASP761  ALA762  ILE779  LEU786  VAL792 
 PHE793  MET794  SER795  GLU796  ALA797  LYS798  CYS799  TRP800  GLU811  SER814 

> <Gold.Protein.RotatedAtoms>
  151.5584  135.1066  159.9966 H   0  0  0  0  0  0  0  0  0  0  0  0  # atno 6907 bound_to 6896
  152.4458  133.7530  159.6715 H   0  0  0  0  0  0  0  0  0  0  0  0  # atno 6908 bound_to 6896
  150.8374  133.7924  159.3098 H   0  0  0  0  0  0  0  0  0  0  0  0  # atno 6909 bound_to 6896
  146.1821  140.4116  142.8490 H   0  0  0  0  0  0  0  0  0  0  0  0  # atno 7974 bound_to 7965
  155.6330  140.3496  155.4689 H   0  0  0  0  0  0  0  0  0  0  0  0  # atno 8008 bound_to 7997
  155.9988  140.1209  157.0591 H   0  0  0  0  0  0  0  0  0  0  0  0  # atno 8009 bound_to 7997
  154.4242  140.1104  156.5654 H   0  0  0  0  0  0  0  0  0  0  0  0  # atno 8010 bound_to 7997
  140.6988  143.3069  151.3130 H   0  0  0  0  0  0  0  0  0  0  0  0  # atno 10167 bound_to 10162
  156.4539  130.4490  149.6972 H   0  0  0  0  0  0  0  0  0  0  0  0  # atno 10718 bound_to 10713
  154.2448  135.2773  155.2840 H   0  0  0  0  0  0  0  0  0  0  0  0  # atno 10763 bound_to 10752
  154.5515  135.5674  153.6929 H   0  0  0  0  0  0  0  0  0  0  0  0  # atno 10764 bound_to 10752
  152.9992  135.6275  154.2593 H   0  0  0  0  0  0  0  0  0  0  0  0  # atno 10765 bound_to 10752
  140.2563  134.7937  157.3548 H   0  0  0  0  0  0  0  0  0  0  0  0  # atno 11005 bound_to 11000
  144.8333  140.6741  143.6277 LP  0  0  0  0  0  0  0  0  0  0  0  0  # atno 17320 bound_to 7965
  145.4047  139.1591  143.4158 LP  0  0  0  0  0  0  0  0  0  0  0  0  # atno 17321 bound_to 7965
  139.6478  144.0419  152.2603 LP  0  0  0  0  0  0  0  0  0  0  0  0  # atno 17342 bound_to 10162
  139.9945  144.6337  150.7784 LP  0  0  0  0  0  0  0  0  0  0  0  0  # atno 17343 bound_to 10162
  156.3787  130.7568  151.2558 LP  0  0  0  0  0  0  0  0  0  0  0  0  # atno 17370 bound_to 10713
  157.7501  131.0302  150.4126 LP  0  0  0  0  0  0  0  0  0  0  0  0  # atno 17371 bound_to 10713
  140.1508  134.4852  155.7962 LP  0  0  0  0  0  0  0  0  0  0  0  0  # atno 17394 bound_to 11000
  141.2196  133.6862  156.7376 LP  0  0  0  0  0  0  0  0  0  0  0  0  # atno 17395 bound_to 11000

$$$$
