AV-unprocessed.smi:236|AV-procd|sdf|1810|dock7
  -GOLD-   2262020393D 1   1.00000     0.00000
 Structure written by MMmdl.
 58 62  0  0  0  0  0  0  0  0  1 V2000
  143.5073  132.3657  149.5812 C   0  0  0  0  0  0  0  0  0  0  0  0
  144.3162  132.6646  150.8538 C   0  0  1  0  0  0  0  0  0  0  0  0
  145.3592  131.7013  150.9695 O   0  0  0  0  0  0  0  0  0  0  0  0
  146.4443  132.2945  151.6595 C   0  0  0  0  0  0  0  0  0  0  0  0
  146.4879  133.6864  151.0507 C   0  0  0  0  0  0  0  0  0  0  0  0
  145.0077  134.0547  150.9321 C   0  0  1  0  0  0  0  0  0  0  0  0
  144.8338  134.8187  149.7501 O   0  0  0  0  0  0  0  0  0  0  0  0
  144.4680  134.8767  152.1324 C   0  0  0  0  0  0  0  0  0  0  0  0
  145.2825  136.0306  152.4846 N   0  0  0  0  0  0  0  0  0  0  0  0
  145.5541  137.1240  151.6927 C   0  0  0  0  0  0  0  0  0  0  0  0
  146.3155  138.0323  152.2394 N   0  0  0  0  0  0  0  0  0  0  0  0
  146.5735  137.5371  153.5120 C   0  0  0  0  0  0  0  0  0  0  0  0
  147.3230  138.0017  154.6299 C   0  0  0  0  0  0  0  0  0  0  0  0
  148.0205  139.1560  154.6674 N   0  0  0  0  0  0  0  0  0  0  0  0
  147.2685  140.3009  154.1726 C   0  0  0  0  0  0  0  0  0  0  0  0
  148.1855  141.5318  154.0952 C   0  0  0  0  0  0  0  0  0  0  0  0
  148.7764  141.7625  155.3707 O   0  0  0  0  0  0  0  0  0  0  0  0
  149.5871  140.6705  155.8022 C   0  0  1  0  0  0  0  0  0  0  0  0
  150.2322  141.0534  157.1401 C   0  0  0  0  0  0  0  0  0  0  0  0
  150.9048  142.2926  156.9895 O   0  0  0  0  0  0  0  0  0  0  0  0
  151.6450  142.6563  158.1414 C   0  0  0  0  0  0  0  0  0  0  0  0
  151.8976  144.1487  158.1137 C   0  0  0  0  0  0  0  0  0  0  0  0
  152.1310  144.9175  159.3949 C   0  0  0  0  0  0  0  0  0  0  0  0
  150.8485  145.1091  158.6267 C   0  0  0  0  0  0  0  0  0  0  0  0
  148.6918  139.4229  155.9335 C   0  0  0  0  0  0  0  0  0  0  0  0
  147.3592  137.2248  155.7399 N   0  0  0  0  0  0  0  0  0  0  0  0
  146.6960  136.0646  155.7649 C   0  0  0  0  0  0  0  0  0  0  0  0
  145.9566  135.5043  154.8050 N   0  0  0  0  0  0  0  0  0  0  0  0
  145.9260  136.2815  153.6841 C   0  0  0  0  0  0  0  0  0  0  0  0
  142.6885  133.0749  149.4590 H   0  0  0  0  0  0  0  0  0  0  0  0
  143.0741  131.3662  149.6243 H   0  0  0  0  0  0  0  0  0  0  0  0
  144.1342  132.4137  148.6903 H   0  0  0  0  0  0  0  0  0  0  0  0
  143.6626  132.5288  151.7167 H   0  0  0  0  0  0  0  0  0  0  0  0
  146.2305  132.3365  152.7288 H   0  0  0  0  0  0  0  0  0  0  0  0
  147.3697  131.7382  151.5098 H   0  0  0  0  0  0  0  0  0  0  0  0
  147.0877  134.3843  151.6321 H   0  0  0  0  0  0  0  0  0  0  0  0
  146.9453  133.6151  150.0623 H   0  0  0  0  0  0  0  0  0  0  0  0
  145.5172  134.5858  149.1407 H   0  0  0  0  0  0  0  0  0  0  0  0
  143.4586  135.2301  151.9175 H   0  0  0  0  0  0  0  0  0  0  0  0
  144.3830  134.2410  153.0146 H   0  0  0  0  0  0  0  0  0  0  0  0
  145.1718  137.2247  150.6872 H   0  0  0  0  0  0  0  0  0  0  0  0
  146.8550  140.0796  153.1879 H   0  0  0  0  0  0  0  0  0  0  0  0
  146.4291  140.5063  154.8380 H   0  0  0  0  0  0  0  0  0  0  0  0
  148.9626  141.3927  153.3419 H   0  0  0  0  0  0  0  0  0  0  0  0
  147.6119  142.4113  153.8033 H   0  0  0  0  0  0  0  0  0  0  0  0
  150.3719  140.4784  155.0680 H   0  0  0  0  0  0  0  0  0  0  0  0
  149.4767  141.1108  157.9254 H   0  0  0  0  0  0  0  0  0  0  0  0
  150.9562  140.2918  157.4348 H   0  0  0  0  0  0  0  0  0  0  0  0
  151.0845  142.4089  159.0440 H   0  0  0  0  0  0  0  0  0  0  0  0
  152.5946  142.1197  158.1767 H   0  0  0  0  0  0  0  0  0  0  0  0
  152.4526  144.4848  157.2398 H   0  0  0  0  0  0  0  0  0  0  0  0
  152.0773  144.3693  160.3335 H   0  0  0  0  0  0  0  0  0  0  0  0
  152.8596  145.7253  159.3684 H   0  0  0  0  0  0  0  0  0  0  0  0
  150.7203  146.0463  158.0891 H   0  0  0  0  0  0  0  0  0  0  0  0
  149.9401  144.6886  159.0538 H   0  0  0  0  0  0  0  0  0  0  0  0
  147.9555  139.5820  156.7218 H   0  0  0  0  0  0  0  0  0  0  0  0
  149.2916  138.5582  156.2204 H   0  0  0  0  0  0  0  0  0  0  0  0
  146.7698  135.5043  156.6854 H   0  0  0  0  0  0  0  0  0  0  0  0
  1  2  1  0  0  0  0
  1 30  1  0  0  0  0
  1 31  1  0  0  0  0
  1 32  1  0  0  0  0
  2  6  1  0  0  0  0
  2  3  1  0  0  0  0
  2 33  1  0  0  0  0
  3  4  1  0  0  0  0
  4  5  1  0  0  0  0
  4 34  1  0  0  0  0
  4 35  1  0  0  0  0
  5  6  1  0  0  0  0
  5 36  1  0  0  0  0
  5 37  1  0  0  0  0
  6  7  1  0  0  0  0
  6  8  1  0  0  0  0
  7 38  1  0  0  0  0
  8  9  1  0  0  0  0
  8 39  1  0  0  0  0
  8 40  1  0  0  0  0
  9 29  1  0  0  0  0
  9 10  1  0  0  0  0
 10 11  2  0  0  0  0
 10 41  1  0  0  0  0
 11 12  1  0  0  0  0
 12 29  2  0  0  0  0
 12 13  1  0  0  0  0
 13 14  1  0  0  0  0
 13 26  2  0  0  0  0
 14 25  1  0  0  0  0
 14 15  1  0  0  0  0
 15 16  1  0  0  0  0
 15 42  1  0  0  0  0
 15 43  1  0  0  0  0
 16 17  1  0  0  0  0
 16 44  1  0  0  0  0
 16 45  1  0  0  0  0
 17 18  1  0  0  0  0
 18 19  1  0  0  0  0
 18 25  1  0  0  0  0
 18 46  1  0  0  0  0
 19 20  1  0  0  0  0
 19 47  1  0  0  0  0
 19 48  1  0  0  0  0
 20 21  1  0  0  0  0
 21 22  1  0  0  0  0
 21 49  1  0  0  0  0
 21 50  1  0  0  0  0
 22 24  1  0  0  0  0
 22 23  1  0  0  0  0
 22 51  1  0  0  0  0
 23 24  1  0  0  0  0
 23 52  1  0  0  0  0
 23 53  1  0  0  0  0
 24 54  1  0  0  0  0
 24 55  1  0  0  0  0
 25 56  1  0  0  0  0
 25 57  1  0  0  0  0
 26 27  1  0  0  0  0
 27 28  2  0  0  0  0
 27 58  1  0  0  0  0
 28 29  1  0  0  0  0
M  END
> <s_m_source_file>
AV-unprocessed.smi

> <i_m_source_file_index>
236

> <i_lp_mmshare_version>
43012

> <i_f3d_flags>
0

> <s_epik_input>
W0NIMl0xW0NIMl1PW0NAQEhdKFtDSDNdKVtDQEBdMShbT0hdKVtDSDJdbihbY0hdbjIpYyhjMjMpbltjSF1uYzNONFtDSDJdW0NIMl1PW0NASF0oW0NIMl00KVtDSDJdT1tDSDJdW0NIXTVbQ0gyXVtDSDJdNQ==

> <s_epik_cmdline>
J2VwaWtfcHl0aG9uJywgJy1waCcsICc3LjAnLCAnLXRuJywgJzgnLCAnLW1hJywgJzIwMCcsICctbWV0YWxfYmluZGluZycsICctaW1hZScsICc8aW5maWxlLm1hZT4nLCAnLW9tYWUnLCAnPG91dGZpbGUubWFlPic=

> <r_lp_tautomer_probability>
1

> <r_epik_Ionization_Penalty>
7.21838e-05

> <r_epik_Ionization_Penalty_Charging>
0

> <r_epik_Ionization_Penalty_Neutral>
7.21838e-05

> <r_epik_State_Penalty>
-0

> <r_epik_Charging_Adjusted_Penalty>
0

> <i_epik_Tot_Q>
0

> <i_epik_Tot_abs_Q>
0

> <r_epik_Metal_State_Penalty>
-0

> <b_epik_Metal_Only>
0

> <s_lp_Force_Field>
OPLS_2005

> <r_lp_Energy>
50.1764

> <b_lp_Chiralities_Consistent>
1

> <s_lp_Variant>
AV-unprocessed.smi:236-2

> <Gold.Version>
5.8.1

> <Gold.Id.Protein>
6NUR|6NUR_protein|mol2

> <Gold.PLP.Fitness>
47.4018

> <Gold.PLP.PLP>
-41.8260

> <Gold.PLP.part.hbond>
-0.8670

> <Gold.PLP.part.metal>
0.0000

> <Gold.PLP.part.buried>
-5.7100

> <Gold.PLP.part.nonpolar>
-38.3190

> <Gold.PLP.part.repulsive>
2.0162

> <Gold.PLP.ligand.clash>
0.0000

> <Gold.PLP.ligand.torsion>
0.6629

> <Gold.PLP.Chemscore.Hbond>
1.0000

> <Gold.PLP.Chemscore.CHOScore>
1.0000

> <Gold.PLP.Chemscore.Metal>
0.0000

> <Gold.Chemscore.Hbonds>
donor molecule, donor type, donor heavy atom, donor atom, acceptor molecule, acceptor atom, score
      L1  H     7    38       P1  7921  0.93
      L1  C    10    41       P1 10171  1.00

> <Gold.PLP.Chemscore.Internal.Correction>
0.9017

> <Gold.Rescore>
     Score         DG    S(hbond)    S(metal)    S(lipo)     H(rot)  DE(clash)    DE(int)     intcor
     13.59     -14.79       0.92        0.00     116.04       2.87       0.43       0.77       ----

> <Gold.Chemscore.Fitness>
13.5858

> <Gold.Chemscore.DG>
-14.7920

> <Gold.Chemscore.ZeroCoef>
-5.4800

> <Gold.Chemscore.Hbond>
0.9195

> <Gold.Chemscore.Metal>
0.0000

> <Gold.Chemscore.Lipo>
116.0396

> <Gold.Chemscore.Internal_Hbond>
0.0000

> <Gold.Chemscore.DEClash>
0.4319

> <Gold.Chemscore.DEInternal>
0.7742

> <Gold.Chemscore.Rot>
2.8655

> <Gold.Chemscore.Internal.Correction>
   9.000000E+99

> <Gold.Chemscore.Hbonds>
donor molecule, donor type, donor heavy atom, donor atom, acceptor molecule, acceptor atom, score
      L1  H     7    38       P1  7921  0.88

> <Gold.Chemscore.Hbond.Weighted>
-3.0711

> <Gold.Chemscore.Metal.Weighted>
-0.0000

> <Gold.Chemscore.Lipo.Weighted>
-13.5766

> <Gold.Chemscore.Internal_Hbond.Weighted>
0.0000

> <Gold.Chemscore.DEClash.Weighted>
0.4319

> <Gold.Chemscore.DEInternal.Weighted>
0.7742

> <Gold.Chemscore.Rot.Weighted>
7.3358

> <Gold.Chemscore.Internal.Correction.Weighted>
   9.000000E+99

> <Gold.Protein.RotatedTorsions>
[ 6907 6896 6895 6894 ] final   10.30 input  -60.11 | X-H torsion
[ 7974 7965 7964 7962 ] final   89.45 input  175.53 | X-H torsion
[ 8008 7997 7996 7995 ] final -179.29 input   59.86 | X-H torsion
[ 10167 10162 10161 10158 ] final  -51.35 input  -65.29 | X-H torsion
[ 10718 10713 10712 10709 ] final  -78.89 input   66.30 | X-H torsion
[ 10763 10752 10751 10750 ] final  -65.05 input  -60.55 | X-H torsion
[ 11005 11000 10999 10996 ] final -103.37 input  -57.11 | X-H torsion

> <Gold.Protein.ActiveResidues>
 VAL166  LYS551  ARG553  GLY616  TRP617  ASP618  TYR619  PRO620  LYS621  CYS622 
 ASP623  PHE694  ASN695  SER759  ASP760  ASP761  ALA762  ILE779  LEU786  VAL792 
 PHE793  MET794  SER795  GLU796  ALA797  LYS798  CYS799  TRP800  GLU811  SER814 

> <Gold.Protein.RotatedAtoms>
  151.7360  135.0864  160.0307 H   0  0  0  0  0  0  0  0  0  0  0  0  # atno 6907 bound_to 6896
  152.3510  133.6176  159.5953 H   0  0  0  0  0  0  0  0  0  0  0  0  # atno 6908 bound_to 6896
  150.7540  133.9490  159.3521 H   0  0  0  0  0  0  0  0  0  0  0  0  # atno 6909 bound_to 6896
  145.5321  139.2284  143.2613 H   0  0  0  0  0  0  0  0  0  0  0  0  # atno 7974 bound_to 7965
  156.0288  140.1277  157.0280 H   0  0  0  0  0  0  0  0  0  0  0  0  # atno 8008 bound_to 7997
  154.4341  140.1054  156.6140 H   0  0  0  0  0  0  0  0  0  0  0  0  # atno 8009 bound_to 7997
  155.5837  140.3468  155.4549 H   0  0  0  0  0  0  0  0  0  0  0  0  # atno 8010 bound_to 7997
  140.6592  143.2623  151.4491 H   0  0  0  0  0  0  0  0  0  0  0  0  # atno 10167 bound_to 10162
  156.0106  130.4530  150.3565 H   0  0  0  0  0  0  0  0  0  0  0  0  # atno 10718 bound_to 10713
  154.3392  135.6160  153.5588 H   0  0  0  0  0  0  0  0  0  0  0  0  # atno 10763 bound_to 10752
  152.9805  135.5765  154.4872 H   0  0  0  0  0  0  0  0  0  0  0  0  # atno 10764 bound_to 10752
  154.4573  135.2855  155.1715 H   0  0  0  0  0  0  0  0  0  0  0  0  # atno 10765 bound_to 10752
  141.1149  133.8635  157.1477 H   0  0  0  0  0  0  0  0  0  0  0  0  # atno 11005 bound_to 11000
  146.2037  140.6138  142.9091 LP  0  0  0  0  0  0  0  0  0  0  0  0  # atno 17320 bound_to 7965
  144.7620  140.5444  143.6729 LP  0  0  0  0  0  0  0  0  0  0  0  0  # atno 17321 bound_to 7965
  139.5822  144.1684  152.1983 LP  0  0  0  0  0  0  0  0  0  0  0  0  # atno 17342 bound_to 10162
  140.1013  144.5537  150.6987 LP  0  0  0  0  0  0  0  0  0  0  0  0  # atno 17343 bound_to 10162
  157.1655  131.0355  151.2820 LP  0  0  0  0  0  0  0  0  0  0  0  0  # atno 17370 bound_to 10713
  157.4274  130.7471  149.6962 LP  0  0  0  0  0  0  0  0  0  0  0  0  # atno 17371 bound_to 10713
  140.0064  135.0006  157.0302 LP  0  0  0  0  0  0  0  0  0  0  0  0  # atno 17394 bound_to 11000
  140.4675  134.1421  155.7199 LP  0  0  0  0  0  0  0  0  0  0  0  0  # atno 17395 bound_to 11000

$$$$
