AV-unprocessed.smi:20|AV-procd|sdf|117|dock8
  -GOLD-   2262015283D 1   1.00000     0.00000
 Structure written by MMmdl.
 57 61  0  0  0  0  0  0  0  0  1 V2000
  152.6591  145.4421  157.0917 O   0  0  0  0  0  0  0  0  0  0  0  0
  152.2428  144.4994  157.7608 C   0  0  0  0  0  0  0  0  0  0  0  0
  153.0568  143.8052  158.8394 C   0  0  0  0  0  0  0  0  0  0  0  0
  151.9990  142.9821  159.6139 C   0  0  2  0  0  0  0  0  0  0  0  0
  151.4663  143.7534  160.8514 C   0  0  0  0  0  0  0  0  0  0  0  0
  152.5021  143.8132  161.9878 C   0  0  0  0  0  0  0  0  0  0  0  0
  153.0174  142.4109  162.3407 C   0  0  0  0  0  0  0  0  0  0  0  0
  153.5066  141.7241  161.1474 N   0  0  0  0  0  0  0  0  0  0  0  0
  154.3055  140.6563  161.3995 C   0  0  0  0  0  0  0  0  0  0  0  0
  155.3734  140.7880  162.2317 N   0  0  0  0  0  0  0  0  0  0  0  0
  156.1694  139.7438  162.4796 C   0  0  0  0  0  0  0  0  0  0  0  0
  156.0814  138.4975  162.0116 N   0  0  0  0  0  0  0  0  0  0  0  0
  155.0098  138.3579  161.1803 C   0  0  0  0  0  0  0  0  0  0  0  0
  154.0795  139.3744  160.8233 C   0  0  0  0  0  0  0  0  0  0  0  0
  153.1155  138.8527  159.9677 N   0  0  0  0  0  0  0  0  0  0  0  0
  153.4614  137.6026  159.8209 C   0  0  0  0  0  0  0  0  0  0  0  0
  154.5911  137.2228  160.5101 N   0  0  0  0  0  0  0  0  0  0  0  0
  155.1978  135.9038  160.5371 C   0  0  0  0  0  0  0  0  0  0  0  0
  156.3916  135.7794  161.5210 C   0  0  2  0  0  0  0  0  0  0  0  0
  157.4296  134.7266  161.0544 C   0  0  0  0  0  0  0  0  0  0  0  0
  157.9747  135.0446  159.7905 O   0  0  0  0  0  0  0  0  0  0  0  0
  155.8853  135.4624  162.9527 C   0  0  1  0  0  0  0  0  0  0  0  0
  154.9365  136.5043  163.5430 C   0  0  0  0  0  0  0  0  0  0  0  0
  153.9681  135.7034  164.4191 C   0  0  0  0  0  0  0  0  0  0  0  0
  154.3899  134.3513  164.3219 O   0  0  0  0  0  0  0  0  0  0  0  0
  155.0424  134.1907  163.0751 C   0  0  0  0  0  0  0  0  0  0  0  0
  152.5312  141.6019  160.0622 C   0  0  0  0  0  0  0  0  0  0  0  0
  150.8656  142.8258  158.5722 C   0  0  0  0  0  0  0  0  0  0  0  0
  151.0404  143.9386  157.6594 N   0  0  0  0  0  0  0  0  0  0  0  0
  153.7942  143.1631  158.3561 H   0  0  0  0  0  0  0  0  0  0  0  0
  153.5908  144.5265  159.4571 H   0  0  0  0  0  0  0  0  0  0  0  0
  151.1579  144.7628  160.5760 H   0  0  0  0  0  0  0  0  0  0  0  0
  150.5721  143.2564  161.2306 H   0  0  0  0  0  0  0  0  0  0  0  0
  153.3411  144.4481  161.7035 H   0  0  0  0  0  0  0  0  0  0  0  0
  152.0584  144.2760  162.8695 H   0  0  0  0  0  0  0  0  0  0  0  0
  153.7910  142.4918  163.1036 H   0  0  0  0  0  0  0  0  0  0  0  0
  152.2109  141.8197  162.7765 H   0  0  0  0  0  0  0  0  0  0  0  0
  156.9956  139.9343  163.1486 H   0  0  0  0  0  0  0  0  0  0  0  0
  152.9014  136.9201  159.1985 H   0  0  0  0  0  0  0  0  0  0  0  0
  154.4082  135.1996  160.7975 H   0  0  0  0  0  0  0  0  0  0  0  0
  155.5165  135.6472  159.5261 H   0  0  0  0  0  0  0  0  0  0  0  0
  156.8932  136.7472  161.5687 H   0  0  0  0  0  0  0  0  0  0  0  0
  158.2718  134.6680  161.7425 H   0  0  0  0  0  0  0  0  0  0  0  0
  156.9843  133.7320  161.0213 H   0  0  0  0  0  0  0  0  0  0  0  0
  158.7328  134.4996  159.6438 H   0  0  0  0  0  0  0  0  0  0  0  0
  156.7408  135.3621  163.6229 H   0  0  0  0  0  0  0  0  0  0  0  0
  155.4754  137.2563  164.1202 H   0  0  0  0  0  0  0  0  0  0  0  0
  154.3795  137.0221  162.7609 H   0  0  0  0  0  0  0  0  0  0  0  0
  153.9804  136.0319  165.4587 H   0  0  0  0  0  0  0  0  0  0  0  0
  152.9472  135.7942  164.0463 H   0  0  0  0  0  0  0  0  0  0  0  0
  154.3001  134.1257  162.2774 H   0  0  0  0  0  0  0  0  0  0  0  0
  155.6408  133.2794  163.0681 H   0  0  0  0  0  0  0  0  0  0  0  0
  151.7023  140.9812  160.4059 H   0  0  0  0  0  0  0  0  0  0  0  0
  152.9794  141.0872  159.2107 H   0  0  0  0  0  0  0  0  0  0  0  0
  150.9686  141.8999  158.0042 H   0  0  0  0  0  0  0  0  0  0  0  0
  149.8701  142.8326  159.0171 H   0  0  0  0  0  0  0  0  0  0  0  0
  150.3260  144.2326  157.0091 H   0  0  0  0  0  0  0  0  0  0  0  0
  1  2  2  0  0  0  0
  2 29  1  0  0  0  0
  2  3  1  0  0  0  0
  3  4  1  0  0  0  0
  3 30  1  0  0  0  0
  3 31  1  0  0  0  0
  4 27  1  0  0  0  0
  4  5  1  0  0  0  0
  4 28  1  0  0  0  0
  5  6  1  0  0  0  0
  5 32  1  0  0  0  0
  5 33  1  0  0  0  0
  6  7  1  0  0  0  0
  6 34  1  0  0  0  0
  6 35  1  0  0  0  0
  7  8  1  0  0  0  0
  7 36  1  0  0  0  0
  7 37  1  0  0  0  0
  8  9  1  0  0  0  0
  8 27  1  0  0  0  0
  9 14  1  0  0  0  0
  9 10  2  0  0  0  0
 10 11  1  0  0  0  0
 11 12  2  0  0  0  0
 11 38  1  0  0  0  0
 12 13  1  0  0  0  0
 13 17  1  0  0  0  0
 13 14  2  0  0  0  0
 14 15  1  0  0  0  0
 15 16  2  0  0  0  0
 16 17  1  0  0  0  0
 16 39  1  0  0  0  0
 17 18  1  0  0  0  0
 18 19  1  0  0  0  0
 18 40  1  0  0  0  0
 18 41  1  0  0  0  0
 19 20  1  0  0  0  0
 19 22  1  0  0  0  0
 19 42  1  0  0  0  0
 20 21  1  0  0  0  0
 20 43  1  0  0  0  0
 20 44  1  0  0  0  0
 21 45  1  0  0  0  0
 22 26  1  0  0  0  0
 22 23  1  0  0  0  0
 22 46  1  0  0  0  0
 23 24  1  0  0  0  0
 23 47  1  0  0  0  0
 23 48  1  0  0  0  0
 24 25  1  0  0  0  0
 24 49  1  0  0  0  0
 24 50  1  0  0  0  0
 25 26  1  0  0  0  0
 26 51  1  0  0  0  0
 26 52  1  0  0  0  0
 27 53  1  0  0  0  0
 27 54  1  0  0  0  0
 28 29  1  0  0  0  0
 28 55  1  0  0  0  0
 28 56  1  0  0  0  0
 29 57  1  0  0  0  0
M  END
> <s_m_source_file>
AV-unprocessed.smi

> <i_m_source_file_index>
20

> <i_lp_mmshare_version>
43012

> <i_f3d_flags>
0

> <s_epik_input>
W0NIMl0xW05IXUMoPU8pW0NIMl1bQ0BAXTEyW0NIMl1bQ0gyXVtDSDJdTihbQ0gyXTIpYyhuW2NIXW4zKWMoYzM0KW5bY0hdbjRbQ0gyXVtDQEhdKFtDSDJdW09IXSlbQ0BASF01W0NIMl1bQ0gyXU9bQ0gyXTU=

> <s_epik_cmdline>
J2VwaWtfcHl0aG9uJywgJy1waCcsICc3LjAnLCAnLXRuJywgJzgnLCAnLW1hJywgJzIwMCcsICctbWV0YWxfYmluZGluZycsICctaW1hZScsICc8aW5maWxlLm1hZT4nLCAnLW9tYWUnLCAnPG91dGZpbGUubWFlPic=

> <r_lp_tautomer_probability>
1

> <r_epik_Ionization_Penalty>
0.0019697

> <r_epik_Ionization_Penalty_Charging>
0

> <r_epik_Ionization_Penalty_Neutral>
0.0019697

> <r_epik_State_Penalty>
0.00113613

> <r_epik_Charging_Adjusted_Penalty>
0.00113613

> <i_epik_Tot_Q>
0

> <i_epik_Tot_abs_Q>
0

> <r_epik_Metal_State_Penalty>
-0

> <b_epik_Metal_Only>
0

> <s_lp_Force_Field>
OPLS_2005

> <r_lp_Energy>
58.6133

> <b_lp_Chiralities_Consistent>
1

> <s_lp_Variant>
AV-unprocessed.smi:20-5

> <Gold.Version>
5.8.1

> <Gold.Id.Protein>
6NUR|6NUR_protein|mol2

> <Gold.PLP.Fitness>
45.6966

> <Gold.PLP.PLP>
-43.3894

> <Gold.PLP.part.hbond>
-2.0000

> <Gold.PLP.part.metal>
0.0000

> <Gold.PLP.part.buried>
-0.3400

> <Gold.PLP.part.nonpolar>
-41.4602

> <Gold.PLP.part.repulsive>
0.1863

> <Gold.PLP.ligand.clash>
0.0000

> <Gold.PLP.ligand.torsion>
0.5536

> <Gold.PLP.Chemscore.Hbond>
1.0000

> <Gold.PLP.Chemscore.CHOScore>
0.0000

> <Gold.PLP.Chemscore.Metal>
0.0000

> <Gold.Chemscore.Hbonds>
donor molecule, donor type, donor heavy atom, donor atom, acceptor molecule, acceptor atom, score
      L1  H    29    57       P1  8028  1.00

> <Gold.PLP.Chemscore.Internal.Correction>
0.4143

> <Gold.Rescore>
     Score         DG    S(hbond)    S(metal)    S(lipo)     H(rot)  DE(clash)    DE(int)     intcor
      8.38     -14.84       0.97        0.00     112.41       2.74       2.99       3.47       ----

> <Gold.Chemscore.Fitness>
8.3825

> <Gold.Chemscore.DG>
-14.8440

> <Gold.Chemscore.ZeroCoef>
-5.4800

> <Gold.Chemscore.Hbond>
0.9670

> <Gold.Chemscore.Metal>
0.0000

> <Gold.Chemscore.Lipo>
112.4138

> <Gold.Chemscore.Internal_Hbond>
0.0000

> <Gold.Chemscore.DEClash>
2.9912

> <Gold.Chemscore.DEInternal>
3.4703

> <Gold.Chemscore.Rot>
2.7415

> <Gold.Chemscore.Internal.Correction>
   9.000000E+99

> <Gold.Chemscore.Hbonds>
donor molecule, donor type, donor heavy atom, donor atom, acceptor molecule, acceptor atom, score
      L1  H    29    57       P1  8028  0.88

> <Gold.Chemscore.Hbond.Weighted>
-3.2298

> <Gold.Chemscore.Metal.Weighted>
-0.0000

> <Gold.Chemscore.Lipo.Weighted>
-13.1524

> <Gold.Chemscore.Internal_Hbond.Weighted>
0.0000

> <Gold.Chemscore.DEClash.Weighted>
2.9912

> <Gold.Chemscore.DEInternal.Weighted>
3.4703

> <Gold.Chemscore.Rot.Weighted>
7.0182

> <Gold.Chemscore.Internal.Correction.Weighted>
   9.000000E+99

> <Gold.Protein.RotatedTorsions>
[ 6907 6896 6895 6894 ] final  134.03 input  -60.11 | X-H torsion
[ 7974 7965 7964 7962 ] final  -68.40 input  175.53 | X-H torsion
[ 8008 7997 7996 7995 ] final   61.37 input   59.86 | X-H torsion
[ 10167 10162 10161 10158 ] final   53.16 input  -65.29 | X-H torsion
[ 10718 10713 10712 10709 ] final   43.29 input   66.30 | X-H torsion
[ 10763 10752 10751 10750 ] final   33.39 input  -60.55 | X-H torsion
[ 11005 11000 10999 10996 ] final  125.06 input  -57.11 | X-H torsion

> <Gold.Protein.ActiveResidues>
 VAL166  LYS551  ARG553  GLY616  TRP617  ASP618  TYR619  PRO620  LYS621  CYS622 
 ASP623  PHE694  ASN695  SER759  ASP760  ASP761  ALA762  ILE779  LEU786  VAL792 
 PHE793  MET794  SER795  GLU796  ALA797  LYS798  CYS799  TRP800  GLU811  SER814 

> <Gold.Protein.RotatedAtoms>
  152.3156  133.5799  159.5709 H   0  0  0  0  0  0  0  0  0  0  0  0  # atno 6907 bound_to 6896
  150.7345  134.0087  159.3671 H   0  0  0  0  0  0  0  0  0  0  0  0  # atno 6908 bound_to 6896
  151.7976  135.0718  160.0447 H   0  0  0  0  0  0  0  0  0  0  0  0  # atno 6909 bound_to 6896
  145.7170  140.9054  143.0650 H   0  0  0  0  0  0  0  0  0  0  0  0  # atno 7974 bound_to 7965
  155.5972  140.3493  155.4583 H   0  0  0  0  0  0  0  0  0  0  0  0  # atno 8008 bound_to 7997
  156.0256  140.1263  157.0336 H   0  0  0  0  0  0  0  0  0  0  0  0  # atno 8009 bound_to 7997
  154.4332  140.1053  156.6012 H   0  0  0  0  0  0  0  0  0  0  0  0  # atno 8010 bound_to 7997
  140.2437  144.3556  150.6371 H   0  0  0  0  0  0  0  0  0  0  0  0  # atno 10167 bound_to 10162
  157.4143  130.7932  149.7458 H   0  0  0  0  0  0  0  0  0  0  0  0  # atno 10718 bound_to 10713
  153.0214  135.6388  154.1504 H   0  0  0  0  0  0  0  0  0  0  0  0  # atno 10763 bound_to 10752
  154.1238  135.2845  155.3203 H   0  0  0  0  0  0  0  0  0  0  0  0  # atno 10764 bound_to 10752
  154.6244  135.5514  153.7673 H   0  0  0  0  0  0  0  0  0  0  0  0  # atno 10765 bound_to 10752
  139.9388  134.9637  156.8503 H   0  0  0  0  0  0  0  0  0  0  0  0  # atno 11005 bound_to 11000
  144.6927  139.9151  143.7465 LP  0  0  0  0  0  0  0  0  0  0  0  0  # atno 17320 bound_to 7965
  146.0661  139.3651  143.0552 LP  0  0  0  0  0  0  0  0  0  0  0  0  # atno 17321 bound_to 7965
  140.6094  143.2169  151.6916 LP  0  0  0  0  0  0  0  0  0  0  0  0  # atno 17342 bound_to 10162
  139.5069  144.3666  152.0511 LP  0  0  0  0  0  0  0  0  0  0  0  0  # atno 17343 bound_to 10162
  155.9860  130.3978  150.3233 LP  0  0  0  0  0  0  0  0  0  0  0  0  # atno 17370 bound_to 10713
  157.1374  131.0287  151.2942 LP  0  0  0  0  0  0  0  0  0  0  0  0  # atno 17371 bound_to 10713
  140.6004  134.0177  155.7535 LP  0  0  0  0  0  0  0  0  0  0  0  0  # atno 17394 bound_to 11000
  141.1014  133.9762  157.3072 LP  0  0  0  0  0  0  0  0  0  0  0  0  # atno 17395 bound_to 11000

$$$$
