AV-unprocessed.smi:704|AV-procd|sdf|3443|dock6
  -GOLD-   22720 0433D 1   1.00000     0.00000
 Structure written by MMmdl.
 38 39  0  0  0  0  0  0  0  0  1 V2000
  151.7412  138.2555  154.4751 C   0  0  0  0  0  0  0  0  0  0  0  0
  150.3842  138.2580  154.0454 O   0  0  0  0  0  0  0  0  0  0  0  0
  149.6356  139.4046  154.2317 C   0  0  0  0  0  0  0  0  0  0  0  0
  150.2243  140.4691  154.8331 N   0  0  0  0  0  0  0  0  0  0  0  0
  149.4967  141.5910  155.0104 C   0  0  0  0  0  0  0  0  0  0  0  0
  148.1577  141.7143  154.5965 C   0  0  0  0  0  0  0  0  0  0  0  0
  147.5444  140.6115  153.9742 C   0  0  0  0  0  0  0  0  0  0  0  0
  148.2905  139.4217  153.7946 C   0  0  0  0  0  0  0  0  0  0  0  0
  147.7714  138.2607  153.1593 N   0  0  0  0  0  0  0  0  0  0  0  0
  146.4932  137.8545  153.0848 C   0  0  0  0  0  0  0  0  0  0  0  0
  145.5317  138.4302  153.5946 O   0  0  0  0  0  0  0  0  0  0  0  0
  146.3894  136.7059  152.4022 N   0  0  0  0  0  0  0  0  0  0  0  0
  145.1408  135.9773  152.1714 C   0  0  1  0  0  0  0  0  0  0  0  0
  145.0097  135.5508  150.6969 C   0  0  0  0  0  0  0  0  0  0  0  0
  144.4699  134.1151  150.6947 C   0  0  0  0  0  0  0  0  0  0  0  0
  144.0619  133.8178  152.1403 C   0  0  0  0  0  0  0  0  0  0  0  0
  144.9726  134.6877  153.0196 C   0  0  1  0  0  0  0  0  0  0  0  0
  146.2851  133.9474  153.3580 C   0  0  0  0  0  0  0  0  0  0  0  0
  147.4148  134.4698  152.8741 N   0  0  0  0  0  0  0  0  0  0  0  0
  146.2822  132.9213  154.0360 O   0  0  0  0  0  0  0  0  0  0  0  0
  152.1857  137.2837  154.2606 H   0  0  0  0  0  0  0  0  0  0  0  0
  151.8196  138.4244  155.5501 H   0  0  0  0  0  0  0  0  0  0  0  0
  152.3280  139.0103  153.9498 H   0  0  0  0  0  0  0  0  0  0  0  0
  149.9991  142.4177  155.4904 H   0  0  0  0  0  0  0  0  0  0  0  0
  147.6150  142.6354  154.7482 H   0  0  0  0  0  0  0  0  0  0  0  0
  146.5243  140.7035  153.6346 H   0  0  0  0  0  0  0  0  0  0  0  0
  148.4626  137.6300  152.7798 H   0  0  0  0  0  0  0  0  0  0  0  0
  147.2318  136.2950  152.0271 H   0  0  0  0  0  0  0  0  0  0  0  0
  144.3038  136.6410  152.3980 H   0  0  0  0  0  0  0  0  0  0  0  0
  144.3355  136.2239  150.1660 H   0  0  0  0  0  0  0  0  0  0  0  0
  145.9685  135.5837  150.1772 H   0  0  0  0  0  0  0  0  0  0  0  0
  143.6368  133.9885  150.0028 H   0  0  0  0  0  0  0  0  0  0  0  0
  145.2569  133.4273  150.3825 H   0  0  0  0  0  0  0  0  0  0  0  0
  143.0241  134.1164  152.2941 H   0  0  0  0  0  0  0  0  0  0  0  0
  144.1248  132.7534  152.3718 H   0  0  0  0  0  0  0  0  0  0  0  0
  144.4655  134.9272  153.9560 H   0  0  0  0  0  0  0  0  0  0  0  0
  148.3005  134.0262  153.0700 H   0  0  0  0  0  0  0  0  0  0  0  0
  147.3792  135.3107  152.3163 H   0  0  0  0  0  0  0  0  0  0  0  0
  1  2  1  0  0  0  0
  1 21  1  0  0  0  0
  1 22  1  0  0  0  0
  1 23  1  0  0  0  0
  2  3  1  0  0  0  0
  3  8  1  0  0  0  0
  3  4  2  0  0  0  0
  4  5  1  0  0  0  0
  5  6  2  0  0  0  0
  5 24  1  0  0  0  0
  6  7  1  0  0  0  0
  6 25  1  0  0  0  0
  7  8  2  0  0  0  0
  7 26  1  0  0  0  0
  8  9  1  0  0  0  0
  9 10  1  0  0  0  0
  9 27  1  0  0  0  0
 10 11  2  0  0  0  0
 10 12  1  0  0  0  0
 12 13  1  0  0  0  0
 12 28  1  0  0  0  0
 13 17  1  0  0  0  0
 13 14  1  0  0  0  0
 13 29  1  0  0  0  0
 14 15  1  0  0  0  0
 14 30  1  0  0  0  0
 14 31  1  0  0  0  0
 15 16  1  0  0  0  0
 15 32  1  0  0  0  0
 15 33  1  0  0  0  0
 16 17  1  0  0  0  0
 16 34  1  0  0  0  0
 16 35  1  0  0  0  0
 17 18  1  0  0  0  0
 17 36  1  0  0  0  0
 18 19  1  0  0  0  0
 18 20  2  0  0  0  0
 19 37  1  0  0  0  0
 19 38  1  0  0  0  0
M  END
> <s_m_source_file>
AV-unprocessed.smi

> <i_m_source_file_index>
704

> <i_lp_mmshare_version>
43012

> <i_f3d_flags>
0

> <s_epik_input>
W0NIM11PYzFuW2NIXVtjSF1bY0hdYzFbTkhdQyg9TylbTkhdW0NAQEhdMltDSDJdW0NIMl1bQ0gyXVtDQEhdMkMoPU8pW05IMl0=

> <s_epik_cmdline>
J2VwaWtfcHl0aG9uJywgJy1waCcsICc3LjAnLCAnLXRuJywgJzgnLCAnLW1hJywgJzIwMCcsICctbWV0YWxfYmluZGluZycsICctaW1hZScsICc8aW5maWxlLm1hZT4nLCAnLW9tYWUnLCAnPG91dGZpbGUubWFlPic=

> <r_lp_tautomer_probability>
1

> <r_epik_Ionization_Penalty>
9.09123e-05

> <r_epik_Ionization_Penalty_Charging>
0

> <r_epik_Ionization_Penalty_Neutral>
9.09123e-05

> <r_epik_State_Penalty>
-0

> <r_epik_Charging_Adjusted_Penalty>
0

> <i_epik_Tot_Q>
0

> <i_epik_Tot_abs_Q>
0

> <r_epik_Metal_State_Penalty>
-0

> <b_epik_Metal_Only>
0

> <s_lp_Force_Field>
OPLS_2005

> <r_lp_Energy>
16.4561

> <b_lp_Chiralities_Consistent>
1

> <s_lp_Variant>
AV-unprocessed.smi:704-2

> <Gold.Version>
5.8.1

> <Gold.Id.Protein>
6NUR|6NUR_protein|mol2

> <Gold.PLP.Fitness>
42.3169

> <Gold.PLP.PLP>
-30.4524

> <Gold.PLP.part.hbond>
-4.2390

> <Gold.PLP.part.metal>
0.0000

> <Gold.PLP.part.buried>
-2.6890

> <Gold.PLP.part.nonpolar>
-24.7397

> <Gold.PLP.part.repulsive>
1.3768

> <Gold.PLP.ligand.clash>
0.0000

> <Gold.PLP.ligand.torsion>
0.3355

> <Gold.PLP.Chemscore.Hbond>
3.3920

> <Gold.PLP.Chemscore.CHOScore>
0.7789

> <Gold.PLP.Chemscore.Metal>
0.0000

> <Gold.Chemscore.Hbonds>
donor molecule, donor type, donor heavy atom, donor atom, acceptor molecule, acceptor atom, score
      L1  H     9    27       P1  7948  1.00
      L1  H    12    28       P1  7948  1.00
      L1  H    19    38       P1  7948  0.42
      P1  H  7989  7998       L1     4  0.98
      L1  C     5    24       P1  8028  0.76

> <Gold.PLP.Chemscore.Internal.Correction>
0.0228

> <Gold.Rescore>
     Score         DG    S(hbond)    S(metal)    S(lipo)     H(rot)  DE(clash)    DE(int)     intcor
     12.76     -16.20       2.59        0.00      58.61       1.86       0.10       3.34       ----

> <Gold.Chemscore.Fitness>
12.7565

> <Gold.Chemscore.DG>
-16.2031

> <Gold.Chemscore.ZeroCoef>
-5.4800

> <Gold.Chemscore.Hbond>
2.5868

> <Gold.Chemscore.Metal>
0.0000

> <Gold.Chemscore.Lipo>
58.6063

> <Gold.Chemscore.Internal_Hbond>
0.0000

> <Gold.Chemscore.DEClash>
0.1046

> <Gold.Chemscore.DEInternal>
3.3420

> <Gold.Chemscore.Rot>
1.8648

> <Gold.Chemscore.Internal.Correction>
   9.000000E+99

> <Gold.Chemscore.Hbonds>
donor molecule, donor type, donor heavy atom, donor atom, acceptor molecule, acceptor atom, score
      L1  H     9    27       P1  7948  0.98
      L1  H    12    28       P1  7948  0.97
      L1  H    19    38       P1  7948  0.42
      P1  H  7989  7998       L1     4  0.14

> <Gold.Chemscore.Hbond.Weighted>
-8.6401

> <Gold.Chemscore.Metal.Weighted>
-0.0000

> <Gold.Chemscore.Lipo.Weighted>
-6.8569

> <Gold.Chemscore.Internal_Hbond.Weighted>
0.0000

> <Gold.Chemscore.DEClash.Weighted>
0.1046

> <Gold.Chemscore.DEInternal.Weighted>
3.3420

> <Gold.Chemscore.Rot.Weighted>
4.7739

> <Gold.Chemscore.Internal.Correction.Weighted>
   9.000000E+99

> <Gold.Protein.RotatedTorsions>
[ 6907 6896 6895 6894 ] final -115.65 input  -60.11 | X-H torsion
[ 7974 7965 7964 7962 ] final   84.71 input  175.53 | X-H torsion
[ 8008 7997 7996 7995 ] final   61.09 input   59.86 | X-H torsion
[ 10167 10162 10161 10158 ] final  135.30 input  -65.29 | X-H torsion
[ 10718 10713 10712 10709 ] final    1.96 input   66.30 | X-H torsion
[ 10763 10752 10751 10750 ] final -145.05 input  -60.55 | X-H torsion
[ 11005 11000 10999 10996 ] final  -43.63 input  -57.11 | X-H torsion

> <Gold.Protein.ActiveResidues>
 VAL166  LYS551  ARG553  GLY616  TRP617  ASP618  TYR619  PRO620  LYS621  CYS622 
 ASP623  PHE694  ASN695  SER759  ASP760  ASP761  ALA762  ILE779  LEU786  VAL792 
 PHE793  MET794  SER795  GLU796  ALA797  LYS798  CYS799  TRP800  GLU811  SER814 

> <Gold.Protein.RotatedAtoms>
  150.7994  133.8628  159.3236 H   0  0  0  0  0  0  0  0  0  0  0  0  # atno 6907 bound_to 6896
  151.6444  135.1007  160.0157 H   0  0  0  0  0  0  0  0  0  0  0  0  # atno 6908 bound_to 6896
  152.4080  133.6879  159.6408 H   0  0  0  0  0  0  0  0  0  0  0  0  # atno 6909 bound_to 6896
  145.5951  139.2344  143.2277 H   0  0  0  0  0  0  0  0  0  0  0  0  # atno 7974 bound_to 7965
  155.5928  140.3493  155.4571 H   0  0  0  0  0  0  0  0  0  0  0  0  # atno 8008 bound_to 7997
  156.0288  140.1270  157.0305 H   0  0  0  0  0  0  0  0  0  0  0  0  # atno 8009 bound_to 7997
  154.4344  140.1047  156.6056 H   0  0  0  0  0  0  0  0  0  0  0  0  # atno 8010 bound_to 7997
  139.5222  144.6524  151.5263 H   0  0  0  0  0  0  0  0  0  0  0  0  # atno 10167 bound_to 10162
  156.8559  130.5570  149.5666 H   0  0  0  0  0  0  0  0  0  0  0  0  # atno 10718 bound_to 10713
  154.8401  135.3423  154.6443 H   0  0  0  0  0  0  0  0  0  0  0  0  # atno 10763 bound_to 10752
  153.7055  135.6967  153.5056 H   0  0  0  0  0  0  0  0  0  0  0  0  # atno 10764 bound_to 10752
  153.2491  135.4359  155.0732 H   0  0  0  0  0  0  0  0  0  0  0  0  # atno 10765 bound_to 10752
  141.0397  133.6785  156.2760 H   0  0  0  0  0  0  0  0  0  0  0  0  # atno 11005 bound_to 11000
  146.1618  140.6777  142.9274 LP  0  0  0  0  0  0  0  0  0  0  0  0  # atno 17320 bound_to 7965
  144.7334  140.4738  143.6921 LP  0  0  0  0  0  0  0  0  0  0  0  0  # atno 17321 bound_to 7965
  140.6334  143.9031  150.6626 LP  0  0  0  0  0  0  0  0  0  0  0  0  # atno 17342 bound_to 10162
  140.2342  143.3712  152.1540 LP  0  0  0  0  0  0  0  0  0  0  0  0  # atno 17343 bound_to 10162
  156.0803  130.5815  150.9550 LP  0  0  0  0  0  0  0  0  0  0  0  0  # atno 17370 bound_to 10713
  157.6277  131.0924  150.8501 LP  0  0  0  0  0  0  0  0  0  0  0  0  # atno 17371 bound_to 10713
  140.6258  134.5315  157.5553 LP  0  0  0  0  0  0  0  0  0  0  0  0  # atno 17394 bound_to 11000
  139.9266  134.8044  156.1050 LP  0  0  0  0  0  0  0  0  0  0  0  0  # atno 17395 bound_to 11000

$$$$
