AV-unprocessed.smi:102|AV-procd|sdf|955|dock10
  -GOLD-   2262017493D 1   1.00000     0.00000
 Structure written by MMmdl.
 44 45  0  0  0  0  0  0  0  0  1 V2000
  144.1314  132.7521  157.9329 C   0  0  0  0  0  0  0  0  0  0  0  0
  144.0979  134.1810  157.4073 C   0  0  0  0  0  0  0  0  0  0  0  0
  143.0659  134.8513  157.4286 O   0  0  0  0  0  0  0  0  0  0  0  0
  145.2899  134.5817  156.9456 O   0  0  0  0  0  0  0  0  0  0  0  0
  145.6179  135.9629  156.9317 C   0  0  0  0  0  0  0  0  0  0  0  0
  146.5161  136.3120  158.1296 C   0  0  2  0  0  0  0  0  0  0  0  0
  147.3871  137.3866  157.8232 O   0  0  0  0  0  0  0  0  0  0  0  0
  148.4249  137.3893  158.7500 C   0  0  2  0  0  0  0  0  0  0  0  0
  149.6584  137.9372  158.0711 N   0  0  0  0  0  0  0  0  0  0  0  0
  149.5679  138.5054  156.8080 C   0  0  0  0  0  0  0  0  0  0  0  0
  150.6428  138.9759  156.1322 C   0  0  0  0  0  0  0  0  0  0  0  0
  150.4753  139.5181  154.9140 F   0  0  0  0  0  0  0  0  0  0  0  0
  151.9808  138.8936  156.7108 C   0  0  0  0  0  0  0  0  0  0  0  0
  153.0135  139.2962  156.1793 O   0  0  0  0  0  0  0  0  0  0  0  0
  152.0280  138.2915  157.9714 N   0  0  0  0  0  0  0  0  0  0  0  0
  150.9295  137.7963  158.6758 C   0  0  0  0  0  0  0  0  0  0  0  0
  151.0964  137.2605  159.7703 O   0  0  0  0  0  0  0  0  0  0  0  0
  148.6182  135.9481  159.2624 C   0  0  1  0  0  0  0  0  0  0  0  0
  148.6244  135.9287  160.6841 O   0  0  0  0  0  0  0  0  0  0  0  0
  147.6011  136.4692  161.3691 C   0  0  0  0  0  0  0  0  0  0  0  0
  147.6496  136.1272  162.8521 C   0  0  0  0  0  0  0  0  0  0  0  0
  146.7073  137.1739  160.9001 O   0  0  0  0  0  0  0  0  0  0  0  0
  147.4086  135.1994  158.7064 C   0  0  2  0  0  0  0  0  0  0  0  0
  147.8746  134.2564  157.7468 O   0  0  0  0  0  0  0  0  0  0  0  0
  148.7172  133.2694  158.0987 C   0  0  0  0  0  0  0  0  0  0  0  0
  149.1366  132.4169  156.9088 C   0  0  0  0  0  0  0  0  0  0  0  0
  149.1255  133.0315  159.2352 O   0  0  0  0  0  0  0  0  0  0  0  0
  152.9351  138.1987  158.4048 H   0  0  0  0  0  0  0  0  0  0  0  0
  145.0864  132.5447  158.4166 H   0  0  0  0  0  0  0  0  0  0  0  0
  143.9969  132.0460  157.1136 H   0  0  0  0  0  0  0  0  0  0  0  0
  143.3353  132.5952  158.6610 H   0  0  0  0  0  0  0  0  0  0  0  0
  146.1343  136.1929  155.9992 H   0  0  0  0  0  0  0  0  0  0  0  0
  144.7132  136.5721  156.9616 H   0  0  0  0  0  0  0  0  0  0  0  0
  145.8739  136.6603  158.9397 H   0  0  0  0  0  0  0  0  0  0  0  0
  148.1715  138.0869  159.5502 H   0  0  0  0  0  0  0  0  0  0  0  0
  148.6012  138.5858  156.3319 H   0  0  0  0  0  0  0  0  0  0  0  0
  149.5531  135.5399  158.8757 H   0  0  0  0  0  0  0  0  0  0  0  0
  147.7766  135.0536  162.9912 H   0  0  0  0  0  0  0  0  0  0  0  0
  146.7268  136.4323  163.3458 H   0  0  0  0  0  0  0  0  0  0  0  0
  148.4835  136.6409  163.3308 H   0  0  0  0  0  0  0  0  0  0  0  0
  146.8798  134.6875  159.5119 H   0  0  0  0  0  0  0  0  0  0  0  0
  148.3064  132.2967  156.2126 H   0  0  0  0  0  0  0  0  0  0  0  0
  149.4533  131.4279  157.2405 H   0  0  0  0  0  0  0  0  0  0  0  0
  149.9660  132.8886  156.3819 H   0  0  0  0  0  0  0  0  0  0  0  0
  1  2  1  0  0  0  0
  1 29  1  0  0  0  0
  1 30  1  0  0  0  0
  1 31  1  0  0  0  0
  2  3  2  0  0  0  0
  2  4  1  0  0  0  0
  4  5  1  0  0  0  0
  5  6  1  0  0  0  0
  5 32  1  0  0  0  0
  5 33  1  0  0  0  0
  6 23  1  0  0  0  0
  6  7  1  0  0  0  0
  6 34  1  0  0  0  0
  7  8  1  0  0  0  0
  8  9  1  0  0  0  0
  8 18  1  0  0  0  0
  8 35  1  0  0  0  0
  9 16  1  0  0  0  0
  9 10  1  0  0  0  0
 10 11  2  0  0  0  0
 10 36  1  0  0  0  0
 11 12  1  0  0  0  0
 11 13  1  0  0  0  0
 13 14  2  0  0  0  0
 13 15  1  0  0  0  0
 15 28  1  0  0  0  0
 15 16  1  0  0  0  0
 16 17  2  0  0  0  0
 18 19  1  0  0  0  0
 18 23  1  0  0  0  0
 18 37  1  0  0  0  0
 19 20  1  0  0  0  0
 20 21  1  0  0  0  0
 20 22  2  0  0  0  0
 21 38  1  0  0  0  0
 21 39  1  0  0  0  0
 21 40  1  0  0  0  0
 23 24  1  0  0  0  0
 23 41  1  0  0  0  0
 24 25  1  0  0  0  0
 25 26  1  0  0  0  0
 25 27  2  0  0  0  0
 26 42  1  0  0  0  0
 26 43  1  0  0  0  0
 26 44  1  0  0  0  0
M  END
> <s_m_source_file>
AV-unprocessed.smi

> <i_m_source_file_index>
102

> <i_lp_mmshare_version>
43012

> <i_f3d_flags>
0

> <s_epik_input>
W0NIM11DKD1PKU9bQ0gyXVtDQEBIXTFPW0NASF0oW0NAQEhdKE9DKD1PKVtDSDNdKVtDQEhdMU9DKD1PKVtDSDNdKW4yW2NIXWMoRiljKD1PKVtuSF1jMj1P

> <s_epik_cmdline>
J2VwaWtfcHl0aG9uJywgJy1waCcsICc3LjAnLCAnLXRuJywgJzgnLCAnLW1hJywgJzIwMCcsICctbWV0YWxfYmluZGluZycsICctaW1hZScsICc8aW5maWxlLm1hZT4nLCAnLW9tYWUnLCAnPG91dGZpbGUubWFlPic=

> <r_lp_tautomer_probability>
0.999537

> <r_epik_Ionization_Penalty>
0.058267

> <r_epik_Ionization_Penalty_Charging>
0.058267

> <r_epik_Ionization_Penalty_Neutral>
6.57791e-16

> <r_epik_State_Penalty>
0.0503774

> <r_epik_Charging_Adjusted_Penalty>
0.108644

> <i_epik_Tot_Q>
0

> <i_epik_Tot_abs_Q>
0

> <r_epik_Metal_State_Penalty>
2.6644

> <b_epik_Metal_Only>
0

> <s_epik_Chemistry_Notes>
This compound has an ester and may undergo hydrolysis at high or low pH. This compound contains an acetal/aminal-like group ( X-CH(R)-Y where X, Y are N, S, or O) that may be acid/base labile, releasing an aldehyde.

> <s_lp_Force_Field>
OPLS_2005

> <r_lp_Energy>
7.073

> <b_lp_Chiralities_Consistent>
1

> <s_lp_Variant>
AV-unprocessed.smi:102-11

> <Gold.Version>
5.8.1

> <Gold.Id.Protein>
6NUR|6NUR_protein|mol2

> <Gold.PLP.Fitness>
36.0140

> <Gold.PLP.PLP>
-25.9448

> <Gold.PLP.part.hbond>
-5.0000

> <Gold.PLP.part.metal>
0.0000

> <Gold.PLP.part.buried>
-3.7143

> <Gold.PLP.part.nonpolar>
-17.5260

> <Gold.PLP.part.repulsive>
0.1166

> <Gold.PLP.ligand.clash>
0.0000

> <Gold.PLP.ligand.torsion>
1.4028

> <Gold.PLP.Chemscore.Hbond>
4.2664

> <Gold.PLP.Chemscore.CHOScore>
0.0000

> <Gold.PLP.Chemscore.Metal>
0.0000

> <Gold.Chemscore.Hbonds>
donor molecule, donor type, donor heavy atom, donor atom, acceptor molecule, acceptor atom, score
      P1  H  6896  6908       L1    27  0.83
      P1  H  6896  6909       L1    17  0.70
      P1  H  6934  6947       L1    22  1.00
      P1  H  7997  8008       L1    14  1.00
      P1  H 11000 11005       L1     3  0.44

> <Gold.PLP.Chemscore.Internal.Correction>
0.0755

> <Gold.Rescore>
     Score         DG    S(hbond)    S(metal)    S(lipo)     H(rot)  DE(clash)    DE(int)     intcor
      4.12     -13.63       4.58        0.00      27.44       4.05       0.29       9.22       ----

> <Gold.Chemscore.Fitness>
4.1193

> <Gold.Chemscore.DG>
-13.6300

> <Gold.Chemscore.ZeroCoef>
-5.4800

> <Gold.Chemscore.Hbond>
4.5847

> <Gold.Chemscore.Metal>
0.0000

> <Gold.Chemscore.Lipo>
27.4397

> <Gold.Chemscore.Internal_Hbond>
0.0000

> <Gold.Chemscore.DEClash>
0.2900

> <Gold.Chemscore.DEInternal>
9.2207

> <Gold.Chemscore.Rot>
4.0520

> <Gold.Chemscore.Internal.Correction>
   9.000000E+99

> <Gold.Chemscore.Hbonds>
donor molecule, donor type, donor heavy atom, donor atom, acceptor molecule, acceptor atom, score
      P1  H  6896  6908       L1    27  0.42
      P1  H  6896  6909       L1    17  0.70
      P1  H  6934  6947       L1    22  0.82
      P1  H  7997  8008       L1    14  0.97
      P1  H 11000 11005       L1     3  0.44

> <Gold.Chemscore.Hbond.Weighted>
-15.3127

> <Gold.Chemscore.Metal.Weighted>
-0.0000

> <Gold.Chemscore.Lipo.Weighted>
-3.2104

> <Gold.Chemscore.Internal_Hbond.Weighted>
0.0000

> <Gold.Chemscore.DEClash.Weighted>
0.2900

> <Gold.Chemscore.DEInternal.Weighted>
9.2207

> <Gold.Chemscore.Rot.Weighted>
10.3732

> <Gold.Chemscore.Internal.Correction.Weighted>
   9.000000E+99

> <Gold.Protein.RotatedTorsions>
[ 6907 6896 6895 6894 ] final  119.96 input  -60.11 | X-H torsion
[ 7974 7965 7964 7962 ] final   49.93 input  175.53 | X-H torsion
[ 8008 7997 7996 7995 ] final  -41.50 input   59.86 | X-H torsion
[ 10167 10162 10161 10158 ] final   -5.35 input  -65.29 | X-H torsion
[ 10718 10713 10712 10709 ] final  124.35 input   66.30 | X-H torsion
[ 10763 10752 10751 10750 ] final   43.88 input  -60.55 | X-H torsion
[ 11005 11000 10999 10996 ] final -123.86 input  -57.11 | X-H torsion

> <Gold.Protein.ActiveResidues>
 VAL166  LYS551  ARG553  GLY616  TRP617  ASP618  TYR619  PRO620  LYS621  CYS622 
 ASP623  PHE694  ASN695  SER759  ASP760  ASP761  ALA762  ILE779  LEU786  VAL792 
 PHE793  MET794  SER795  GLU796  ALA797  LYS798  CYS799  TRP800  GLU811  SER814 

> <Gold.Protein.RotatedAtoms>
  152.4434  133.7490  159.6683 H   0  0  0  0  0  0  0  0  0  0  0  0  # atno 6907 bound_to 6896
  150.8329  133.8051  159.3097 H   0  0  0  0  0  0  0  0  0  0  0  0  # atno 6908 bound_to 6896
  151.5700  135.1065  160.0044 H   0  0  0  0  0  0  0  0  0  0  0  0  # atno 6909 bound_to 6896
  146.0061  139.4492  142.9985 H   0  0  0  0  0  0  0  0  0  0  0  0  # atno 7974 bound_to 7965
  154.4004  140.1498  156.3200 H   0  0  0  0  0  0  0  0  0  0  0  0  # atno 8008 bound_to 7997
  155.8538  140.3456  155.5689 H   0  0  0  0  0  0  0  0  0  0  0  0  # atno 8009 bound_to 7997
  155.7955  140.0863  157.1976 H   0  0  0  0  0  0  0  0  0  0  0  0  # atno 8010 bound_to 7997
  140.6960  143.6318  150.8516 H   0  0  0  0  0  0  0  0  0  0  0  0  # atno 10167 bound_to 10162
  157.5592  131.1090  150.8568 H   0  0  0  0  0  0  0  0  0  0  0  0  # atno 10718 bound_to 10713
  152.9852  135.6088  154.3183 H   0  0  0  0  0  0  0  0  0  0  0  0  # atno 10763 bound_to 10752
  154.2894  135.2775  155.2663 H   0  0  0  0  0  0  0  0  0  0  0  0  # atno 10764 bound_to 10752
  154.4965  135.5878  153.6555 H   0  0  0  0  0  0  0  0  0  0  0  0  # atno 10765 bound_to 10752
  140.9886  134.0571  157.3681 H   0  0  0  0  0  0  0  0  0  0  0  0  # atno 11005 bound_to 11000
  145.7413  141.0007  143.1299 LP  0  0  0  0  0  0  0  0  0  0  0  0  # atno 17320 bound_to 7965
  144.6936  139.9103  143.7463 LP  0  0  0  0  0  0  0  0  0  0  0  0  # atno 17321 bound_to 7965
  140.0036  143.5718  152.2866 LP  0  0  0  0  0  0  0  0  0  0  0  0  # atno 17342 bound_to 10162
  139.6416  144.7655  151.2327 LP  0  0  0  0  0  0  0  0  0  0  0  0  # atno 17343 bound_to 10162
  156.9070  130.5267  149.5281 LP  0  0  0  0  0  0  0  0  0  0  0  0  # atno 17370 bound_to 10713
  156.0647  130.5692  150.9264 LP  0  0  0  0  0  0  0  0  0  0  0  0  # atno 17371 bound_to 10713
  139.8982  135.0153  156.7136 LP  0  0  0  0  0  0  0  0  0  0  0  0  # atno 17394 bound_to 11000
  140.7075  133.9252  155.8063 LP  0  0  0  0  0  0  0  0  0  0  0  0  # atno 17395 bound_to 11000

$$$$
