AV-unprocessed.smi:2883|AV-procd|sdf|11081|dock3
  -GOLD-   2272015553D 1   1.00000     0.00000
 Structure written by MMmdl.
 39 41  0  0  0  0  0  0  0  0  1 V2000
  152.0376  145.6578  159.3561 C   0  0  0  0  0  0  0  0  0  0  0  0
  151.4647  144.3696  159.9747 C   0  0  0  0  0  0  0  0  0  0  0  0
  152.2403  144.0251  161.2684 C   0  0  0  0  0  0  0  0  0  0  0  0
  149.9988  144.6110  160.4056 C   0  0  0  0  0  0  0  0  0  0  0  0
  151.5624  143.2237  158.9534 C   0  0  0  0  0  0  0  0  0  0  0  0
  152.3525  142.1877  159.2655 N   0  0  0  0  0  0  0  0  0  0  0  0
  152.3427  141.1236  158.4350 C   0  0  0  0  0  0  0  0  0  0  0  0
  151.5130  141.0774  157.2981 C   0  0  0  0  0  0  0  0  0  0  0  0
  150.6888  142.1984  157.0775 C   0  0  0  0  0  0  0  0  0  0  0  0
  149.8284  142.2144  155.9713 N   0  0  0  0  0  0  0  0  0  0  0  0
  149.1647  140.9941  155.5220 C   0  0  2  0  0  0  0  0  0  0  0  0
  149.2005  140.8159  154.0023 C   0  0  0  0  0  0  0  0  0  0  0  0
  147.7151  140.6085  153.6743 C   0  0  2  0  0  0  0  0  0  0  0  0
  146.9319  141.9250  153.7541 C   0  0  0  0  0  0  0  0  0  0  0  0
  146.8780  142.1624  155.2621 C   0  0  0  0  0  0  0  0  0  0  0  0
  147.6493  140.9467  155.8041 C   0  0  1  0  0  0  0  0  0  0  0  0
  147.2623  139.9670  154.8552 O   0  0  0  0  0  0  0  0  0  0  0  0
  150.7090  143.2553  157.9218 N   0  0  0  0  0  0  0  0  0  0  0  0
  151.9839  146.4932  160.0549 H   0  0  0  0  0  0  0  0  0  0  0  0
  151.4884  145.9438  158.4585 H   0  0  0  0  0  0  0  0  0  0  0  0
  153.0835  145.5306  159.0748 H   0  0  0  0  0  0  0  0  0  0  0  0
  153.3088  143.9046  161.0854 H   0  0  0  0  0  0  0  0  0  0  0  0
  151.8758  143.0993  161.7156 H   0  0  0  0  0  0  0  0  0  0  0  0
  152.1366  144.8126  162.0156 H   0  0  0  0  0  0  0  0  0  0  0  0
  149.9320  145.3919  161.1639 H   0  0  0  0  0  0  0  0  0  0  0  0
  149.5538  143.7081  160.8256 H   0  0  0  0  0  0  0  0  0  0  0  0
  149.3742  144.9303  159.5705 H   0  0  0  0  0  0  0  0  0  0  0  0
  152.9966  140.3005  158.6827 H   0  0  0  0  0  0  0  0  0  0  0  0
  151.5083  140.2227  156.6377 H   0  0  0  0  0  0  0  0  0  0  0  0
  149.4938  143.1000  155.6207 H   0  0  0  0  0  0  0  0  0  0  0  0
  149.6474  140.1309  155.9830 H   0  0  0  0  0  0  0  0  0  0  0  0
  149.6205  141.6692  153.4680 H   0  0  0  0  0  0  0  0  0  0  0  0
  149.7842  139.9331  153.7399 H   0  0  0  0  0  0  0  0  0  0  0  0
  147.5381  140.0441  152.7584 H   0  0  0  0  0  0  0  0  0  0  0  0
  147.4236  142.7349  153.2145 H   0  0  0  0  0  0  0  0  0  0  0  0
  145.9264  141.8047  153.3496 H   0  0  0  0  0  0  0  0  0  0  0  0
  147.3156  143.1153  155.5602 H   0  0  0  0  0  0  0  0  0  0  0  0
  145.8447  142.1452  155.6105 H   0  0  0  0  0  0  0  0  0  0  0  0
  147.3971  140.6893  156.8332 H   0  0  0  0  0  0  0  0  0  0  0  0
  1  2  1  0  0  0  0
  1 19  1  0  0  0  0
  1 20  1  0  0  0  0
  1 21  1  0  0  0  0
  2  3  1  0  0  0  0
  2  4  1  0  0  0  0
  2  5  1  0  0  0  0
  3 22  1  0  0  0  0
  3 23  1  0  0  0  0
  3 24  1  0  0  0  0
  4 25  1  0  0  0  0
  4 26  1  0  0  0  0
  4 27  1  0  0  0  0
  5 18  1  0  0  0  0
  5  6  2  0  0  0  0
  6  7  1  0  0  0  0
  7  8  2  0  0  0  0
  7 28  1  0  0  0  0
  8  9  1  0  0  0  0
  8 29  1  0  0  0  0
  9 10  1  0  0  0  0
  9 18  2  0  0  0  0
 10 11  1  0  0  0  0
 10 30  1  0  0  0  0
 11 16  1  0  0  0  0
 11 12  1  0  0  0  0
 11 31  1  0  0  0  0
 12 13  1  0  0  0  0
 12 32  1  0  0  0  0
 12 33  1  0  0  0  0
 13 17  1  0  0  0  0
 13 14  1  0  0  0  0
 13 34  1  0  0  0  0
 14 15  1  0  0  0  0
 14 35  1  0  0  0  0
 14 36  1  0  0  0  0
 15 16  1  0  0  0  0
 15 37  1  0  0  0  0
 15 38  1  0  0  0  0
 16 17  1  0  0  0  0
 16 39  1  0  0  0  0
M  END
> <s_m_source_file>
AV-unprocessed.smi

> <i_m_source_file_index>
2883

> <i_lp_mmshare_version>
43012

> <i_f3d_flags>
0

> <s_epik_input>
W0NIM11DKFtDSDNdKShbQ0gzXSljMW5bY0hdW2NIXWMobjEpW05IXVtDQEhdKFtDSDJdW0NAQEhdMjMpW0NAQEhdKE8zKVtDSDJdW0NIMl0y

> <s_epik_cmdline>
J2VwaWtfcHl0aG9uJywgJy1waCcsICc3LjAnLCAnLXRuJywgJzgnLCAnLW1hJywgJzIwMCcsICctbWV0YWxfYmluZGluZycsICctaW1hZScsICc8aW5maWxlLm1hZT4nLCAnLW9tYWUnLCAnPG91dGZpbGUubWFlPic=

> <r_lp_tautomer_probability>
1

> <r_epik_Ionization_Penalty>
0.453006

> <r_epik_Ionization_Penalty_Charging>
0

> <r_epik_Ionization_Penalty_Neutral>
0.453006

> <r_epik_State_Penalty>
0.455155

> <r_epik_Charging_Adjusted_Penalty>
0.455155

> <i_epik_Tot_Q>
0

> <i_epik_Tot_abs_Q>
0

> <r_epik_Metal_State_Penalty>
0.255592

> <b_epik_Metal_Only>
0

> <s_lp_Force_Field>
OPLS_2005

> <r_lp_Energy>
33.5757

> <b_lp_Chiralities_Consistent>
1

> <s_lp_Variant>
AV-unprocessed.smi:2883-7

> <Gold.Version>
5.8.1

> <Gold.Id.Protein>
6NUR|6NUR_protein|mol2

> <Gold.PLP.Fitness>
38.1240

> <Gold.PLP.PLP>
-36.3355

> <Gold.PLP.part.hbond>
-1.0000

> <Gold.PLP.part.metal>
0.0000

> <Gold.PLP.part.buried>
-4.7760

> <Gold.PLP.part.nonpolar>
-30.1324

> <Gold.PLP.part.repulsive>
0.3212

> <Gold.PLP.ligand.clash>
0.0000

> <Gold.PLP.ligand.torsion>
0.6778

> <Gold.PLP.Chemscore.Hbond>
1.0000

> <Gold.PLP.Chemscore.CHOScore>
0.0000

> <Gold.PLP.Chemscore.Metal>
0.0000

> <Gold.Chemscore.Hbonds>
donor molecule, donor type, donor heavy atom, donor atom, acceptor molecule, acceptor atom, score
      L1  H    10    30       P1  8028  1.00

> <Gold.PLP.Chemscore.Internal.Correction>
0.1441

> <Gold.Rescore>
     Score         DG    S(hbond)    S(metal)    S(lipo)     H(rot)  DE(clash)    DE(int)     intcor
     16.33     -16.74       1.00        0.00      92.97       1.15       0.01       0.40       ----

> <Gold.Chemscore.Fitness>
16.3324

> <Gold.Chemscore.DG>
-16.7444

> <Gold.Chemscore.ZeroCoef>
-5.4800

> <Gold.Chemscore.Hbond>
0.9960

> <Gold.Chemscore.Metal>
0.0000

> <Gold.Chemscore.Lipo>
92.9653

> <Gold.Chemscore.Internal_Hbond>
0.0000

> <Gold.Chemscore.DEClash>
0.0098

> <Gold.Chemscore.DEInternal>
0.4022

> <Gold.Chemscore.Rot>
1.1482

> <Gold.Chemscore.Internal.Correction>
   9.000000E+99

> <Gold.Chemscore.Hbonds>
donor molecule, donor type, donor heavy atom, donor atom, acceptor molecule, acceptor atom, score
      L1  H    10    30       P1  8028  0.99

> <Gold.Chemscore.Hbond.Weighted>
-3.3267

> <Gold.Chemscore.Metal.Weighted>
-0.0000

> <Gold.Chemscore.Lipo.Weighted>
-10.8769

> <Gold.Chemscore.Internal_Hbond.Weighted>
0.0000

> <Gold.Chemscore.DEClash.Weighted>
0.0098

> <Gold.Chemscore.DEInternal.Weighted>
0.4022

> <Gold.Chemscore.Rot.Weighted>
2.9393

> <Gold.Chemscore.Internal.Correction.Weighted>
   9.000000E+99

> <Gold.Protein.RotatedTorsions>
[ 6907 6896 6895 6894 ] final -138.58 input  -60.11 | X-H torsion
[ 7974 7965 7964 7962 ] final   76.75 input  175.53 | X-H torsion
[ 8008 7997 7996 7995 ] final   40.25 input   59.86 | X-H torsion
[ 10167 10162 10161 10158 ] final -119.24 input  -65.29 | X-H torsion
[ 10718 10713 10712 10709 ] final  145.66 input   66.30 | X-H torsion
[ 10763 10752 10751 10750 ] final   37.20 input  -60.55 | X-H torsion
[ 11005 11000 10999 10996 ] final   11.83 input  -57.11 | X-H torsion

> <Gold.Protein.ActiveResidues>
 VAL166  LYS551  ARG553  GLY616  TRP617  ASP618  TYR619  PRO620  LYS621  CYS622 
 ASP623  PHE694  ASN695  SER759  ASP760  ASP761  ALA762  ILE779  LEU786  VAL792 
 PHE793  MET794  SER795  GLU796  ALA797  LYS798  CYS799  TRP800  GLU811  SER814 

> <Gold.Protein.RotatedAtoms>
  151.0369  133.5740  159.2654 H   0  0  0  0  0  0  0  0  0  0  0  0  # atno 6907 bound_to 6896
  151.2801  135.0710  159.9176 H   0  0  0  0  0  0  0  0  0  0  0  0  # atno 6908 bound_to 6896
  152.5356  134.0085  159.7981 H   0  0  0  0  0  0  0  0  0  0  0  0  # atno 6909 bound_to 6896
  145.6988  139.2576  143.1717 H   0  0  0  0  0  0  0  0  0  0  0  0  # atno 7974 bound_to 7965
  155.2500  140.3352  155.4283 H   0  0  0  0  0  0  0  0  0  0  0  0  # atno 8008 bound_to 7997
  156.2220  140.1813  156.7499 H   0  0  0  0  0  0  0  0  0  0  0  0  # atno 8009 bound_to 7997
  154.5839  140.0649  156.9129 H   0  0  0  0  0  0  0  0  0  0  0  0  # atno 8010 bound_to 7997
  140.0488  143.5081  152.2093 H   0  0  0  0  0  0  0  0  0  0  0  0  # atno 10167 bound_to 10162
  157.3426  131.0938  151.1069 H   0  0  0  0  0  0  0  0  0  0  0  0  # atno 10718 bound_to 10713
  153.0047  135.6284  154.2107 H   0  0  0  0  0  0  0  0  0  0  0  0  # atno 10763 bound_to 10752
  154.1850  135.2811  155.3042 H   0  0  0  0  0  0  0  0  0  0  0  0  # atno 10764 bound_to 10752
  154.5804  135.5649  153.7240 H   0  0  0  0  0  0  0  0  0  0  0  0  # atno 10765 bound_to 10752
  140.4988  134.0767  155.7788 H   0  0  0  0  0  0  0  0  0  0  0  0  # atno 11005 bound_to 11000
  146.0816  140.7757  142.9639 LP  0  0  0  0  0  0  0  0  0  0  0  0  # atno 17320 bound_to 7965
  144.6974  140.3498  143.7184 LP  0  0  0  0  0  0  0  0  0  0  0  0  # atno 17321 bound_to 7965
  139.5966  144.7569  151.3270 LP  0  0  0  0  0  0  0  0  0  0  0  0  # atno 17342 bound_to 10162
  140.7226  143.7092  150.7783 LP  0  0  0  0  0  0  0  0  0  0  0  0  # atno 17343 bound_to 10162
  157.2275  130.6510  149.5836 LP  0  0  0  0  0  0  0  0  0  0  0  0  # atno 17370 bound_to 10713
  155.9710  130.4609  150.6090 LP  0  0  0  0  0  0  0  0  0  0  0  0  # atno 17371 bound_to 10713
  141.1446  133.9077  157.2245 LP  0  0  0  0  0  0  0  0  0  0  0  0  # atno 17394 bound_to 11000
  139.9725  135.0124  156.9549 LP  0  0  0  0  0  0  0  0  0  0  0  0  # atno 17395 bound_to 11000

$$$$
