AV-unprocessed.smi:1518|AV-procd|sdf|6126|dock5
  -GOLD-   22720 6263D 1   1.00000     0.00000
 Structure written by MMmdl.
 46 48  0  0  0  0  0  0  0  0  2 V2000
  152.8987  143.2466  162.6480 C   0  0  0  0  0  0  0  0  0  0  0  0
  153.2236  142.2106  161.5730 C   0  0  0  0  0  0  0  0  0  0  0  0
  153.9979  141.2956  161.8516 O   0  0  0  0  0  0  0  0  0  0  0  0
  152.5809  142.3653  160.2361 C   0  0  0  0  0  0  0  0  0  0  0  0
  152.2341  143.6581  159.7830 C   0  0  0  0  0  0  0  0  0  0  0  0
  151.6249  143.8340  158.5277 C   0  0  0  0  0  0  0  0  0  0  0  0
  151.3581  142.7202  157.7120 C   0  0  0  0  0  0  0  0  0  0  0  0
  151.6957  141.4206  158.1375 C   0  0  0  0  0  0  0  0  0  0  0  0
  151.4012  140.3884  157.2727 O   0  0  0  0  0  0  0  0  0  0  0  0
  151.4027  140.6527  155.8759 C   0  0  0  0  0  0  0  0  0  0  0  0
  150.1750  139.9808  155.2448 C   0  0  2  0  0  0  0  0  0  0  0  0
  150.2171  140.1862  153.8468 O   0  0  0  0  0  0  0  0  0  0  0  0
  148.8500  140.5186  155.8220 C   0  0  0  0  0  0  0  0  0  0  0  0
  147.6768  140.1100  155.0333 N   0  0  0  0  0  0  0  0  0  0  0  0
  146.7290  140.8745  154.4183 C   0  0  0  0  0  0  0  0  0  0  0  0
  146.6566  142.3659  154.3950 C   0  0  0  0  0  0  0  0  0  0  0  0
  147.9044  142.9583  154.1110 O   0  0  0  0  0  0  0  0  0  0  0  0
  145.8554  140.0236  153.8103 N   0  3  0  0  0  0  0  0  0  0  0  0
  146.2446  138.7034  154.0396 C   0  0  0  0  0  0  0  0  0  0  0  0
  145.6747  137.5023  153.6286 C   0  0  0  0  0  0  0  0  0  0  0  0
  146.3259  136.3202  154.0371 C   0  0  0  0  0  0  0  0  0  0  0  0
  147.4958  136.3612  154.8231 C   0  0  0  0  0  0  0  0  0  0  0  0
  148.0646  137.5849  155.2334 C   0  0  0  0  0  0  0  0  0  0  0  0
  147.4152  138.7500  154.8248 C   0  0  0  0  0  0  0  0  0  0  0  0
  152.3072  141.2509  159.4060 C   0  0  0  0  0  0  0  0  0  0  0  0
  151.8288  143.2592  162.8571 H   0  0  0  0  0  0  0  0  0  0  0  0
  153.2058  144.2415  162.3251 H   0  0  0  0  0  0  0  0  0  0  0  0
  153.4239  143.0126  163.5742 H   0  0  0  0  0  0  0  0  0  0  0  0
  152.4305  144.5284  160.3929 H   0  0  0  0  0  0  0  0  0  0  0  0
  151.3619  144.8255  158.1898 H   0  0  0  0  0  0  0  0  0  0  0  0
  150.8904  142.8651  156.7491 H   0  0  0  0  0  0  0  0  0  0  0  0
  151.3807  141.7268  155.6828 H   0  0  0  0  0  0  0  0  0  0  0  0
  152.3137  140.2458  155.4331 H   0  0  0  0  0  0  0  0  0  0  0  0
  150.2371  138.9054  155.4143 H   0  0  0  0  0  0  0  0  0  0  0  0
  149.3311  140.2186  153.5206 H   0  0  0  0  0  0  0  0  0  0  0  0
  148.7021  140.1360  156.8326 H   0  0  0  0  0  0  0  0  0  0  0  0
  148.8676  141.6046  155.9132 H   0  0  0  0  0  0  0  0  0  0  0  0
  145.9329  142.6829  153.6438 H   0  0  0  0  0  0  0  0  0  0  0  0
  146.2989  142.7314  155.3575 H   0  0  0  0  0  0  0  0  0  0  0  0
  148.0358  143.6820  154.7048 H   0  0  0  0  0  0  0  0  0  0  0  0
  144.7781  137.4685  153.0272 H   0  0  0  0  0  0  0  0  0  0  0  0
  145.9195  135.3634  153.7426 H   0  0  0  0  0  0  0  0  0  0  0  0
  147.9668  135.4347  155.1184 H   0  0  0  0  0  0  0  0  0  0  0  0
  148.9589  137.6015  155.8378 H   0  0  0  0  0  0  0  0  0  0  0  0
  152.5679  140.2619  159.7469 H   0  0  0  0  0  0  0  0  0  0  0  0
  145.0534  140.3280  153.2736 H   0  0  0  0  0  0  0  0  0  0  0  0
  1  2  1  0  0  0  0
  1 26  1  0  0  0  0
  1 27  1  0  0  0  0
  1 28  1  0  0  0  0
  2  3  2  0  0  0  0
  2  4  1  0  0  0  0
  4 25  1  0  0  0  0
  4  5  2  0  0  0  0
  5  6  1  0  0  0  0
  5 29  1  0  0  0  0
  6  7  2  0  0  0  0
  6 30  1  0  0  0  0
  7  8  1  0  0  0  0
  7 31  1  0  0  0  0
  8  9  1  0  0  0  0
  8 25  2  0  0  0  0
  9 10  1  0  0  0  0
 10 11  1  0  0  0  0
 10 32  1  0  0  0  0
 10 33  1  0  0  0  0
 11 12  1  0  0  0  0
 11 13  1  0  0  0  0
 11 34  1  0  0  0  0
 12 35  1  0  0  0  0
 13 14  1  0  0  0  0
 13 36  1  0  0  0  0
 13 37  1  0  0  0  0
 14 24  1  0  0  0  0
 14 15  1  0  0  0  0
 15 16  1  0  0  0  0
 15 18  2  0  0  0  0
 16 17  1  0  0  0  0
 16 38  1  0  0  0  0
 16 39  1  0  0  0  0
 17 40  1  0  0  0  0
 18 19  1  0  0  0  0
 18 46  1  0  0  0  0
 19 24  2  0  0  0  0
 19 20  1  0  0  0  0
 20 21  2  0  0  0  0
 20 41  1  0  0  0  0
 21 22  1  0  0  0  0
 21 42  1  0  0  0  0
 22 23  2  0  0  0  0
 22 43  1  0  0  0  0
 23 24  1  0  0  0  0
 23 44  1  0  0  0  0
 25 45  1  0  0  0  0
M  CHG  1  18   1
M  END
> <s_m_source_file>
AV-unprocessed.smi

> <i_m_source_file_index>
1518

> <i_lp_mmshare_version>
43012

> <i_f3d_flags>
0

> <s_epik_input>
W0NIM11DKD1PKWMxW2NIXVtjSF1bY0hdYyhbY0hdMSlPW0NIMl1bQ0BIXShbT0hdKVtDSDJdbihjKG4yKVtDSDJdW09IXSljKGMyMylbY0hdW2NIXVtjSF1bY0hdMw==

> <s_epik_cmdline>
J2VwaWtfcHl0aG9uJywgJy1waCcsICc3LjAnLCAnLXRuJywgJzgnLCAnLW1hJywgJzIwMCcsICctbWV0YWxfYmluZGluZycsICctaW1hZScsICc8aW5maWxlLm1hZT4nLCAnLW9tYWUnLCAnPG91dGZpbGUubWFlPic=

> <r_lp_tautomer_probability>
0.99995

> <r_epik_Ionization_Penalty>
1.40416

> <r_epik_Ionization_Penalty_Charging>
1.4033

> <r_epik_Ionization_Penalty_Neutral>
0.000858184

> <r_epik_State_Penalty>
1.48564

> <r_epik_Charging_Adjusted_Penalty>
2.88894

> <i_epik_Tot_Q>
1

> <i_epik_Tot_abs_Q>
1

> <r_epik_Metal_State_Penalty>
5.52809

> <b_epik_Metal_Only>
0

> <s_lp_Force_Field>
OPLS_2005

> <r_lp_Energy>
23.9778

> <b_lp_Chiralities_Consistent>
1

> <s_lp_Variant>
AV-unprocessed.smi:1518-3

> <Gold.Version>
5.8.1

> <Gold.Id.Protein>
6NUR|6NUR_protein|mol2

> <Gold.PLP.Fitness>
56.2085

> <Gold.PLP.PLP>
-46.8321

> <Gold.PLP.part.hbond>
-5.9660

> <Gold.PLP.part.metal>
0.0000

> <Gold.PLP.part.buried>
-5.1719

> <Gold.PLP.part.nonpolar>
-34.1633

> <Gold.PLP.part.repulsive>
0.0000

> <Gold.PLP.ligand.clash>
0.0000

> <Gold.PLP.ligand.torsion>
1.2973

> <Gold.PLP.Chemscore.Hbond>
3.9358

> <Gold.PLP.Chemscore.CHOScore>
0.0000

> <Gold.PLP.Chemscore.Metal>
0.0000

> <Gold.Chemscore.Hbonds>
donor molecule, donor type, donor heavy atom, donor atom, acceptor molecule, acceptor atom, score
      L1  H    12    35       P1  7957  0.01
      L1  H    17    40       P1  8028  1.00
      L1  H    18    46       P1 10175  2.00
      P1  H  7989  7998       L1    12  0.85

> <Gold.PLP.Chemscore.Internal.Correction>
0.1636

> <Gold.Rescore>
     Score         DG    S(hbond)    S(metal)    S(lipo)     H(rot)  DE(clash)    DE(int)     intcor
     17.56     -19.12       2.88        0.00     107.32       3.34       0.23       1.34       ----

> <Gold.Chemscore.Fitness>
17.5551

> <Gold.Chemscore.DG>
-19.1243

> <Gold.Chemscore.ZeroCoef>
-5.4800

> <Gold.Chemscore.Hbond>
2.8848

> <Gold.Chemscore.Metal>
0.0000

> <Gold.Chemscore.Lipo>
107.3184

> <Gold.Chemscore.Internal_Hbond>
0.0000

> <Gold.Chemscore.DEClash>
0.2283

> <Gold.Chemscore.DEInternal>
1.3409

> <Gold.Chemscore.Rot>
3.3387

> <Gold.Chemscore.Internal.Correction>
   9.000000E+99

> <Gold.Chemscore.Hbonds>
donor molecule, donor type, donor heavy atom, donor atom, acceptor molecule, acceptor atom, score
      L1  H    12    35       P1  7957  0.01
      L1  H    17    40       P1  8028  0.68
      L1  H    18    46       P1 10175  0.98
      P1  H  7989  7998       L1    12  0.57

> <Gold.Chemscore.Hbond.Weighted>
-9.6351

> <Gold.Chemscore.Metal.Weighted>
-0.0000

> <Gold.Chemscore.Lipo.Weighted>
-12.5563

> <Gold.Chemscore.Internal_Hbond.Weighted>
0.0000

> <Gold.Chemscore.DEClash.Weighted>
0.2283

> <Gold.Chemscore.DEInternal.Weighted>
1.3409

> <Gold.Chemscore.Rot.Weighted>
8.5471

> <Gold.Chemscore.Internal.Correction.Weighted>
   9.000000E+99

> <Gold.Protein.RotatedTorsions>
[ 6907 6896 6895 6894 ] final   84.54 input  -60.11 | X-H torsion
[ 7974 7965 7964 7962 ] final  -36.92 input  175.53 | X-H torsion
[ 8008 7997 7996 7995 ] final  154.19 input   59.86 | X-H torsion
[ 10167 10162 10161 10158 ] final -137.35 input  -65.29 | X-H torsion
[ 10718 10713 10712 10709 ] final  -81.76 input   66.30 | X-H torsion
[ 10763 10752 10751 10750 ] final  -41.85 input  -60.55 | X-H torsion
[ 11005 11000 10999 10996 ] final -112.90 input  -57.11 | X-H torsion

> <Gold.Protein.ActiveResidues>
 VAL166  LYS551  ARG553  GLY616  TRP617  ASP618  TYR619  PRO620  LYS621  CYS622 
 ASP623  PHE694  ASN695  SER759  ASP760  ASP761  ALA762  ILE779  LEU786  VAL792 
 PHE793  MET794  SER795  GLU796  ALA797  LYS798  CYS799  TRP800  GLU811  SER814 

> <Gold.Protein.RotatedAtoms>
  152.5354  134.2725  159.8976 H   0  0  0  0  0  0  0  0  0  0  0  0  # atno 6907 bound_to 6896
  151.2681  133.4262  159.2627 H   0  0  0  0  0  0  0  0  0  0  0  0  # atno 6908 bound_to 6896
  151.0392  134.9610  159.8209 H   0  0  0  0  0  0  0  0  0  0  0  0  # atno 6909 bound_to 6896
  146.0619  140.6336  142.8993 H   0  0  0  0  0  0  0  0  0  0  0  0  # atno 7974 bound_to 7965
  156.2543  140.1973  156.6608 H   0  0  0  0  0  0  0  0  0  0  0  0  # atno 8008 bound_to 7997
  154.6466  140.0577  156.9932 H   0  0  0  0  0  0  0  0  0  0  0  0  # atno 8009 bound_to 7997
  155.1482  140.3249  155.4439 H   0  0  0  0  0  0  0  0  0  0  0  0  # atno 8010 bound_to 7997
  139.8587  143.7105  152.2652 H   0  0  0  0  0  0  0  0  0  0  0  0  # atno 10167 bound_to 10162
  156.0044  130.4613  150.4002 H   0  0  0  0  0  0  0  0  0  0  0  0  # atno 10718 bound_to 10713
  153.9694  135.6730  153.4746 H   0  0  0  0  0  0  0  0  0  0  0  0  # atno 10763 bound_to 10752
  153.0800  135.4928  154.8480 H   0  0  0  0  0  0  0  0  0  0  0  0  # atno 10764 bound_to 10752
  154.7228  135.3121  154.8981 H   0  0  0  0  0  0  0  0  0  0  0  0  # atno 10765 bound_to 10752
  141.0647  133.9478  157.2600 H   0  0  0  0  0  0  0  0  0  0  0  0  # atno 11005 bound_to 11000
  144.7180  140.4277  143.7029 LP  0  0  0  0  0  0  0  0  0  0  0  0  # atno 17320 bound_to 7965
  145.6544  139.1570  143.2843 LP  0  0  0  0  0  0  0  0  0  0  0  0  # atno 17321 bound_to 7965
  139.7395  144.7563  151.0675 LP  0  0  0  0  0  0  0  0  0  0  0  0  # atno 17342 bound_to 10162
  140.7778  143.4990  150.9796 LP  0  0  0  0  0  0  0  0  0  0  0  0  # atno 17343 bound_to 10162
  157.2071  131.0451  151.2619 LP  0  0  0  0  0  0  0  0  0  0  0  0  # atno 17370 bound_to 10713
  157.3923  130.7288  149.6706 LP  0  0  0  0  0  0  0  0  0  0  0  0  # atno 17371 bound_to 10713
  139.9465  135.0183  156.8868 LP  0  0  0  0  0  0  0  0  0  0  0  0  # atno 17394 bound_to 11000
  140.5797  134.0364  155.7459 LP  0  0  0  0  0  0  0  0  0  0  0  0  # atno 17395 bound_to 11000

$$$$
