AV-unprocessed.smi:10|AV-procd|sdf|54|dock8
  -GOLD-   2262015173D 1   1.00000     0.00000
 Structure written by MMmdl.
 34 36  0  0  0  0  0  0  0  0  1 V2000
  152.0773  144.4929  160.5957 C   0  0  0  0  0  0  0  0  0  0  0  0
  152.4322  143.2398  159.9621 N   0  0  0  0  0  0  0  0  0  0  0  0
  153.4695  142.4362  160.2631 C   0  0  0  0  0  0  0  0  0  0  0  0
  153.5670  141.3362  159.5184 N   0  0  0  0  0  0  0  0  0  0  0  0
  152.4803  141.4613  158.6602 C   0  0  0  0  0  0  0  0  0  0  0  0
  152.0046  140.5775  157.5713 C   0  0  0  0  0  0  0  0  0  0  0  0
  152.5713  139.5231  157.2825 O   0  0  0  0  0  0  0  0  0  0  0  0
  150.8910  141.0565  156.9405 N   0  0  0  0  0  0  0  0  0  0  0  0
  150.2807  140.3192  155.8232 C   0  0  0  0  0  0  0  0  0  0  0  0
  149.5639  141.2550  154.8256 C   0  0  1  0  0  0  0  0  0  0  0  0
  149.8139  140.7846  153.5153 O   0  0  0  0  0  0  0  0  0  0  0  0
  148.0499  141.2839  155.0581 C   0  0  0  0  0  0  0  0  0  0  0  0
  147.1311  142.1774  154.2092 C   0  0  0  0  0  0  0  0  0  0  0  0
  146.2349  142.3408  155.4415 C   0  0  0  0  0  0  0  0  0  0  0  0
  147.4441  141.9564  156.3010 C   0  0  0  0  0  0  0  0  0  0  0  0
  150.2539  142.2758  157.3215 C   0  0  0  0  0  0  0  0  0  0  0  0
  150.6493  143.0750  158.2781 N   0  0  0  0  0  0  0  0  0  0  0  0
  151.7784  142.6069  158.9121 C   0  0  0  0  0  0  0  0  0  0  0  0
  152.7517  144.7006  161.4270 H   0  0  0  0  0  0  0  0  0  0  0  0
  151.0557  144.4376  160.9725 H   0  0  0  0  0  0  0  0  0  0  0  0
  152.1481  145.3032  159.8698 H   0  0  0  0  0  0  0  0  0  0  0  0
  154.1740  142.6638  161.0497 H   0  0  0  0  0  0  0  0  0  0  0  0
  151.0047  139.6872  155.3043 H   0  0  0  0  0  0  0  0  0  0  0  0
  149.5583  139.6126  156.2364 H   0  0  0  0  0  0  0  0  0  0  0  0
  149.9551  142.2700  154.9055 H   0  0  0  0  0  0  0  0  0  0  0  0
  149.1742  140.1201  153.3092 H   0  0  0  0  0  0  0  0  0  0  0  0
  147.6568  140.2656  155.0119 H   0  0  0  0  0  0  0  0  0  0  0  0
  147.6005  143.1142  153.9053 H   0  0  0  0  0  0  0  0  0  0  0  0
  146.6599  141.6732  153.3648 H   0  0  0  0  0  0  0  0  0  0  0  0
  145.8620  143.3525  155.6038 H   0  0  0  0  0  0  0  0  0  0  0  0
  145.4336  141.6013  155.4829 H   0  0  0  0  0  0  0  0  0  0  0  0
  147.2208  141.2759  157.1230 H   0  0  0  0  0  0  0  0  0  0  0  0
  148.0043  142.8275  156.6440 H   0  0  0  0  0  0  0  0  0  0  0  0
  149.3653  142.5079  156.7319 H   0  0  0  0  0  0  0  0  0  0  0  0
  1  2  1  0  0  0  0
  1 19  1  0  0  0  0
  1 20  1  0  0  0  0
  1 21  1  0  0  0  0
  2 18  1  0  0  0  0
  2  3  1  0  0  0  0
  3  4  2  0  0  0  0
  3 22  1  0  0  0  0
  4  5  1  0  0  0  0
  5 18  2  0  0  0  0
  5  6  1  0  0  0  0
  6  7  2  0  0  0  0
  6  8  1  0  0  0  0
  8  9  1  0  0  0  0
  8 16  1  0  0  0  0
  9 10  1  0  0  0  0
  9 23  1  0  0  0  0
  9 24  1  0  0  0  0
 10 11  1  0  0  0  0
 10 12  1  0  0  0  0
 10 25  1  0  0  0  0
 11 26  1  0  0  0  0
 12 15  1  0  0  0  0
 12 13  1  0  0  0  0
 12 27  1  0  0  0  0
 13 14  1  0  0  0  0
 13 28  1  0  0  0  0
 13 29  1  0  0  0  0
 14 15  1  0  0  0  0
 14 30  1  0  0  0  0
 14 31  1  0  0  0  0
 15 32  1  0  0  0  0
 15 33  1  0  0  0  0
 16 17  2  0  0  0  0
 16 34  1  0  0  0  0
 17 18  1  0  0  0  0
M  END
> <s_m_source_file>
AV-unprocessed.smi

> <i_m_source_file_index>
10

> <i_lp_mmshare_version>
43012

> <i_f3d_flags>
0

> <s_epik_input>
bjFbY0hdbihbQ0gzXSljKGMxMiluW2NIXW4oYzI9TylbQ0gyXVtDQEhdKFtPSF0pW0NIXTNbQ0gyXVtDSDJdW0NIMl0z

> <s_epik_cmdline>
J2VwaWtfcHl0aG9uJywgJy1waCcsICc3LjAnLCAnLXRuJywgJzgnLCAnLW1hJywgJzIwMCcsICctbWV0YWxfYmluZGluZycsICctaW1hZScsICc8aW5maWxlLm1hZT4nLCAnLW9tYWUnLCAnPG91dGZpbGUubWFlPic=

> <r_lp_tautomer_probability>
1

> <r_epik_Ionization_Penalty>
0.0003743

> <r_epik_Ionization_Penalty_Charging>
2.98177e-12

> <r_epik_Ionization_Penalty_Neutral>
0.000374299

> <r_epik_State_Penalty>
0.000224514

> <r_epik_Charging_Adjusted_Penalty>
0.000224514

> <i_epik_Tot_Q>
0

> <i_epik_Tot_abs_Q>
0

> <r_epik_Metal_State_Penalty>
-0

> <b_epik_Metal_Only>
0

> <s_lp_Force_Field>
OPLS_2005

> <r_lp_Energy>
33.6231

> <b_lp_Chiralities_Consistent>
1

> <s_lp_Variant>
AV-unprocessed.smi:10-2

> <Gold.Version>
5.8.1

> <Gold.Id.Protein>
6NUR|6NUR_protein|mol2

> <Gold.PLP.Fitness>
46.5305

> <Gold.PLP.PLP>
-38.6706

> <Gold.PLP.part.hbond>
-3.4412

> <Gold.PLP.part.metal>
0.0000

> <Gold.PLP.part.buried>
-2.8739

> <Gold.PLP.part.nonpolar>
-30.8868

> <Gold.PLP.part.repulsive>
0.1243

> <Gold.PLP.ligand.clash>
0.0000

> <Gold.PLP.ligand.torsion>
0.9835

> <Gold.PLP.Chemscore.Hbond>
2.3520

> <Gold.PLP.Chemscore.CHOScore>
0.8974

> <Gold.PLP.Chemscore.Metal>
0.0000

> <Gold.Chemscore.Hbonds>
donor molecule, donor type, donor heavy atom, donor atom, acceptor molecule, acceptor atom, score
      P1  H  7989  7998       L1    11  0.37
      P1  H  7997  8010       L1     7  1.00
      P1  H  8011  8017       L1    11  1.00
      L1  C    16    34       P1  8028  0.90

> <Gold.PLP.Chemscore.Internal.Correction>
0.0787

> <Gold.Rescore>
     Score         DG    S(hbond)    S(metal)    S(lipo)     H(rot)  DE(clash)    DE(int)     intcor
     11.42     -12.55       2.06        0.00      51.67       2.28       0.08       1.05       ----

> <Gold.Chemscore.Fitness>
11.4166

> <Gold.Chemscore.DG>
-12.5471

> <Gold.Chemscore.ZeroCoef>
-5.4800

> <Gold.Chemscore.Hbond>
2.0555

> <Gold.Chemscore.Metal>
0.0000

> <Gold.Chemscore.Lipo>
51.6659

> <Gold.Chemscore.Internal_Hbond>
0.0000

> <Gold.Chemscore.DEClash>
0.0799

> <Gold.Chemscore.DEInternal>
1.0505

> <Gold.Chemscore.Rot>
2.2824

> <Gold.Chemscore.Internal.Correction>
   9.000000E+99

> <Gold.Chemscore.Hbonds>
donor molecule, donor type, donor heavy atom, donor atom, acceptor molecule, acceptor atom, score
      L1  H    11    26       P1  7957  0.01
      P1  H  7989  7998       L1    11  0.11
      P1  H  7997  8010       L1     7  0.48
      P1  H  8011  8017       L1    11  0.48

> <Gold.Chemscore.Hbond.Weighted>
-6.8652

> <Gold.Chemscore.Metal.Weighted>
-0.0000

> <Gold.Chemscore.Lipo.Weighted>
-6.0449

> <Gold.Chemscore.Internal_Hbond.Weighted>
0.0000

> <Gold.Chemscore.DEClash.Weighted>
0.0799

> <Gold.Chemscore.DEInternal.Weighted>
1.0505

> <Gold.Chemscore.Rot.Weighted>
5.8431

> <Gold.Chemscore.Internal.Correction.Weighted>
   9.000000E+99

> <Gold.Protein.RotatedTorsions>
[ 6907 6896 6895 6894 ] final    9.22 input  -60.11 | X-H torsion
[ 7974 7965 7964 7962 ] final   27.22 input  175.53 | X-H torsion
[ 8008 7997 7996 7995 ] final   53.85 input   59.86 | X-H torsion
[ 10167 10162 10161 10158 ] final  175.01 input  -65.29 | X-H torsion
[ 10718 10713 10712 10709 ] final  -55.49 input   66.30 | X-H torsion
[ 10763 10752 10751 10750 ] final  112.38 input  -60.55 | X-H torsion
[ 11005 11000 10999 10996 ] final -154.20 input  -57.11 | X-H torsion

> <Gold.Protein.ActiveResidues>
 VAL166  LYS551  ARG553  GLY616  TRP617  ASP618  TYR619  PRO620  LYS621  CYS622 
 ASP623  PHE694  ASN695  SER759  ASP760  ASP761  ALA762  ILE779  LEU786  VAL792 
 PHE793  MET794  SER795  GLU796  ALA797  LYS798  CYS799  TRP800  GLU811  SER814 

> <Gold.Protein.RotatedAtoms>
  151.7186  135.0899  160.0279 H   0  0  0  0  0  0  0  0  0  0  0  0  # atno 6907 bound_to 6896
  152.3616  133.6300  159.6028 H   0  0  0  0  0  0  0  0  0  0  0  0  # atno 6908 bound_to 6896
  150.7608  133.9330  159.3474 H   0  0  0  0  0  0  0  0  0  0  0  0  # atno 6909 bound_to 6896
  146.1796  139.7220  142.8910 H   0  0  0  0  0  0  0  0  0  0  0  0  # atno 7974 bound_to 7965
  155.4751  140.3466  155.4331 H   0  0  0  0  0  0  0  0  0  0  0  0  # atno 8008 bound_to 7997
  156.1075  140.1452  156.9412 H   0  0  0  0  0  0  0  0  0  0  0  0  # atno 8009 bound_to 7997
  154.4734  140.0893  156.7180 H   0  0  0  0  0  0  0  0  0  0  0  0  # atno 8010 bound_to 7997
  139.5162  144.3081  152.0317 H   0  0  0  0  0  0  0  0  0  0  0  0  # atno 10167 bound_to 10162
  156.1365  130.4156  150.0177 H   0  0  0  0  0  0  0  0  0  0  0  0  # atno 10718 bound_to 10713
  153.4771  135.3688  155.2422 H   0  0  0  0  0  0  0  0  0  0  0  0  # atno 10763 bound_to 10752
  154.8756  135.3945  154.3744 H   0  0  0  0  0  0  0  0  0  0  0  0  # atno 10764 bound_to 10752
  153.4341  135.7083  153.6276 H   0  0  0  0  0  0  0  0  0  0  0  0  # atno 10765 bound_to 10752
  140.6999  134.3948  157.5211 H   0  0  0  0  0  0  0  0  0  0  0  0  # atno 11005 bound_to 11000
  145.4115  141.0397  143.3014 LP  0  0  0  0  0  0  0  0  0  0  0  0  # atno 17320 bound_to 7965
  144.8292  139.5657  143.6951 LP  0  0  0  0  0  0  0  0  0  0  0  0  # atno 17321 bound_to 7965
  140.2527  144.4152  150.6216 LP  0  0  0  0  0  0  0  0  0  0  0  0  # atno 17342 bound_to 10162
  140.6213  143.2176  151.6687 LP  0  0  0  0  0  0  0  0  0  0  0  0  # atno 17343 bound_to 10162
  156.8075  130.9313  151.3645 LP  0  0  0  0  0  0  0  0  0  0  0  0  # atno 17370 bound_to 10713
  157.6536  130.8906  149.9684 LP  0  0  0  0  0  0  0  0  0  0  0  0  # atno 17371 bound_to 10713
  139.8899  134.8817  156.2394 LP  0  0  0  0  0  0  0  0  0  0  0  0  # atno 17394 bound_to 11000
  141.0172  133.7062  156.1208 LP  0  0  0  0  0  0  0  0  0  0  0  0  # atno 17395 bound_to 11000

$$$$
