AV-unprocessed.smi:2973|AV-procd|sdf|11349|dock2
  -GOLD-   2272016263D 1   1.00000     0.00000
 Structure written by MMmdl.
 49 51  0  0  0  0  0  0  0  0  3 V2000
  148.1586  133.8127  158.6621 C   0  0  0  0  0  0  0  0  0  0  0  0
  148.1275  134.3779  160.0999 C   0  0  2  0  0  0  0  0  0  0  0  0
  146.8817  133.8486  160.8449 C   0  0  0  0  0  0  0  0  0  0  0  0
  146.8419  134.3202  162.3058 C   0  0  0  0  0  0  0  0  0  0  0  0
  146.9007  135.8500  162.3975 C   0  0  0  0  0  0  0  0  0  0  0  0
  148.1417  136.3988  161.6724 C   0  0  0  0  0  0  0  0  0  0  0  0
  148.2500  135.9364  160.1943 C   0  0  1  0  0  0  0  0  0  0  0  0
  149.5315  136.3737  159.6672 N   0  5  0  0  0  0  0  0  0  0  0  0
  149.3210  137.2249  158.6371 C   0  0  0  0  0  0  0  0  0  0  0  0
  150.1809  137.7746  157.9490 O   0  0  0  0  0  0  0  0  0  0  0  0
  148.0049  137.4124  158.4265 N   0  0  0  0  0  0  0  0  0  0  0  0
  147.4371  138.2475  157.3600 C   0  0  0  0  0  0  0  0  0  0  0  0
  147.3740  139.7340  157.7369 C   0  0  0  0  0  0  0  0  0  0  0  0
  146.2947  140.2908  157.9444 O   0  0  0  0  0  0  0  0  0  0  0  0
  148.5531  140.3655  157.8377 N   0  0  0  0  0  0  0  0  0  0  0  0
  148.7195  141.7742  158.1735 C   0  0  0  0  0  0  0  0  0  0  0  0
  150.0233  142.3455  157.5899 C   0  0  0  0  0  0  0  0  0  0  0  0
  150.7116  143.2965  158.5487 C   0  0  0  0  0  0  0  0  0  0  0  0
  151.9504  142.9872  159.1510 C   0  0  0  0  0  0  0  0  0  0  0  0
  152.5428  143.9206  160.0270 C   0  0  0  0  0  0  0  0  0  0  0  0
  151.8853  145.1419  160.2816 C   0  0  0  0  0  0  0  0  0  0  0  0
  150.6504  145.3998  159.6522 C   0  0  0  0  0  0  0  0  0  0  0  0
  150.1153  144.4806  158.8187 N   0  3  0  0  0  0  0  0  0  0  0  0
  147.2792  136.6942  159.2906 C   0  0  0  0  0  0  0  0  0  0  0  0
  146.0509  136.6296  159.3551 O   0  0  0  0  0  0  0  0  0  0  0  0
  147.2958  134.1354  158.0791 H   0  0  0  0  0  0  0  0  0  0  0  0
  148.1519  132.7227  158.6746 H   0  0  0  0  0  0  0  0  0  0  0  0
  149.0565  134.1211  158.1265 H   0  0  0  0  0  0  0  0  0  0  0  0
  148.9968  133.9595  160.6107 H   0  0  0  0  0  0  0  0  0  0  0  0
  145.9718  134.1639  160.3337 H   0  0  0  0  0  0  0  0  0  0  0  0
  146.8757  132.7584  160.8230 H   0  0  0  0  0  0  0  0  0  0  0  0
  145.9366  133.9537  162.7902 H   0  0  0  0  0  0  0  0  0  0  0  0
  147.6819  133.8891  162.8517 H   0  0  0  0  0  0  0  0  0  0  0  0
  145.9930  136.2806  161.9752 H   0  0  0  0  0  0  0  0  0  0  0  0
  146.9220  136.1557  163.4438 H   0  0  0  0  0  0  0  0  0  0  0  0
  148.1370  137.4886  161.7318 H   0  0  0  0  0  0  0  0  0  0  0  0
  149.0306  136.0777  162.2181 H   0  0  0  0  0  0  0  0  0  0  0  0
  148.0251  138.1485  156.4463 H   0  0  0  0  0  0  0  0  0  0  0  0
  146.4372  137.8895  157.1078 H   0  0  0  0  0  0  0  0  0  0  0  0
  149.3919  139.8321  157.6600 H   0  0  0  0  0  0  0  0  0  0  0  0
  147.8591  142.3444  157.8185 H   0  0  0  0  0  0  0  0  0  0  0  0
  148.7247  141.8632  159.2601 H   0  0  0  0  0  0  0  0  0  0  0  0
  150.7091  141.5347  157.3401 H   0  0  0  0  0  0  0  0  0  0  0  0
  149.8219  142.8739  156.6570 H   0  0  0  0  0  0  0  0  0  0  0  0
  152.4428  142.0480  158.9430 H   0  0  0  0  0  0  0  0  0  0  0  0
  153.4905  143.7023  160.4975 H   0  0  0  0  0  0  0  0  0  0  0  0
  152.3223  145.8705  160.9491 H   0  0  0  0  0  0  0  0  0  0  0  0
  150.0794  146.3066  159.7886 H   0  0  0  0  0  0  0  0  0  0  0  0
  149.2210  144.6891  158.3741 H   0  0  0  0  0  0  0  0  0  0  0  0
  1  2  1  0  0  0  0
  1 26  1  0  0  0  0
  1 27  1  0  0  0  0
  1 28  1  0  0  0  0
  2  7  1  0  0  0  0
  2  3  1  0  0  0  0
  2 29  1  0  0  0  0
  3  4  1  0  0  0  0
  3 30  1  0  0  0  0
  3 31  1  0  0  0  0
  4  5  1  0  0  0  0
  4 32  1  0  0  0  0
  4 33  1  0  0  0  0
  5  6  1  0  0  0  0
  5 34  1  0  0  0  0
  5 35  1  0  0  0  0
  6  7  1  0  0  0  0
  6 36  1  0  0  0  0
  6 37  1  0  0  0  0
  7 24  1  0  0  0  0
  7  8  1  0  0  0  0
  8  9  1  0  0  0  0
  9 10  2  0  0  0  0
  9 11  1  0  0  0  0
 11 12  1  0  0  0  0
 11 24  1  0  0  0  0
 12 13  1  0  0  0  0
 12 38  1  0  0  0  0
 12 39  1  0  0  0  0
 13 14  2  0  0  0  0
 13 15  1  0  0  0  0
 15 16  1  0  0  0  0
 15 40  1  0  0  0  0
 16 17  1  0  0  0  0
 16 41  1  0  0  0  0
 16 42  1  0  0  0  0
 17 18  1  0  0  0  0
 17 43  1  0  0  0  0
 17 44  1  0  0  0  0
 18 23  1  0  0  0  0
 18 19  2  0  0  0  0
 19 20  1  0  0  0  0
 19 45  1  0  0  0  0
 20 21  2  0  0  0  0
 20 46  1  0  0  0  0
 21 22  1  0  0  0  0
 21 47  1  0  0  0  0
 22 23  2  0  0  0  0
 22 48  1  0  0  0  0
 23 49  1  0  0  0  0
 24 25  2  0  0  0  0
M  CHG  1   8  -1
M  CHG  1  23   1
M  END
> <s_m_source_file>
AV-unprocessed.smi

> <i_m_source_file_index>
2973

> <i_lp_mmshare_version>
43012

> <i_f3d_flags>
0

> <s_epik_input>
W0NIMl0xW0NIMl1bQ0gyXVtDSDJdW0NAQEhdKFtDSDNdKVtDQF0xMltOSF1DKD1PKU4oQzI9TylbQ0gyXUMoPU8pW05IXVtDSDJdW0NIMl1jM1tjSF1bY0hdW2NIXVtjSF1uMw==

> <s_epik_cmdline>
J2VwaWtfcHl0aG9uJywgJy1waCcsICc3LjAnLCAnLXRuJywgJzgnLCAnLW1hJywgJzIwMCcsICctbWV0YWxfYmluZGluZycsICctaW1hZScsICc8aW5maWxlLm1hZT4nLCAnLW9tYWUnLCAnPG91dGZpbGUubWFlPic=

> <r_lp_tautomer_probability>
1

> <r_epik_Ionization_Penalty>
7.89073

> <r_epik_Ionization_Penalty_Charging>
7.89073

> <r_epik_Ionization_Penalty_Neutral>
1.56557e-07

> <r_epik_State_Penalty>
8.01193

> <r_epik_Charging_Adjusted_Penalty>
15.9027

> <i_epik_Tot_Q>
0

> <i_epik_Tot_abs_Q>
2

> <r_epik_Metal_State_Penalty>
3.98737

> <b_epik_Metal_Only>
1

> <s_lp_Force_Field>
OPLS_2005

> <r_lp_Energy>
17.4929

> <b_lp_Chiralities_Consistent>
1

> <s_lp_Variant>
AV-unprocessed.smi:2973-13

> <Gold.Version>
5.8.1

> <Gold.Id.Protein>
6NUR|6NUR_protein|mol2

> <Gold.PLP.Fitness>
50.2589

> <Gold.PLP.PLP>
-40.1294

> <Gold.PLP.part.hbond>
-2.6927

> <Gold.PLP.part.metal>
0.0000

> <Gold.PLP.part.buried>
-4.4661

> <Gold.PLP.part.nonpolar>
-33.3920

> <Gold.PLP.part.repulsive>
0.2740

> <Gold.PLP.ligand.clash>
0.0000

> <Gold.PLP.ligand.torsion>
0.9167

> <Gold.PLP.Chemscore.Hbond>
3.9666

> <Gold.PLP.Chemscore.CHOScore>
0.0000

> <Gold.PLP.Chemscore.Metal>
0.0000

> <Gold.Chemscore.Hbonds>
donor molecule, donor type, donor heavy atom, donor atom, acceptor molecule, acceptor atom, score
      L1  H    23    49       P1  8029  1.53
      P1  H  6896  6907       L1     8  2.00

> <Gold.PLP.Chemscore.Internal.Correction>
0.0630

> <Gold.Rescore>
     Score         DG    S(hbond)    S(metal)    S(lipo)     H(rot)  DE(clash)    DE(int)     intcor
     15.74     -16.67       1.15        0.00     104.75       1.92       0.01       0.93       ----

> <Gold.Chemscore.Fitness>
15.7362

> <Gold.Chemscore.DG>
-16.6728

> <Gold.Chemscore.ZeroCoef>
-5.4800

> <Gold.Chemscore.Hbond>
1.1514

> <Gold.Chemscore.Metal>
0.0000

> <Gold.Chemscore.Lipo>
104.7514

> <Gold.Chemscore.Internal_Hbond>
0.0000

> <Gold.Chemscore.DEClash>
0.0073

> <Gold.Chemscore.DEInternal>
0.9293

> <Gold.Chemscore.Rot>
1.9175

> <Gold.Chemscore.Internal.Correction>
   9.000000E+99

> <Gold.Chemscore.Hbonds>
donor molecule, donor type, donor heavy atom, donor atom, acceptor molecule, acceptor atom, score
      L1  H    23    49       P1  8029  0.36
      P1  H  6896  6907       L1     8  0.68

> <Gold.Chemscore.Hbond.Weighted>
-3.8457

> <Gold.Chemscore.Metal.Weighted>
-0.0000

> <Gold.Chemscore.Lipo.Weighted>
-12.2559

> <Gold.Chemscore.Internal_Hbond.Weighted>
0.0000

> <Gold.Chemscore.DEClash.Weighted>
0.0073

> <Gold.Chemscore.DEInternal.Weighted>
0.9293

> <Gold.Chemscore.Rot.Weighted>
4.9087

> <Gold.Chemscore.Internal.Correction.Weighted>
   9.000000E+99

> <Gold.Protein.RotatedTorsions>
[ 6907 6896 6895 6894 ] final  -52.52 input  -60.11 | X-H torsion
[ 7974 7965 7964 7962 ] final  -83.63 input  175.53 | X-H torsion
[ 8008 7997 7996 7995 ] final    3.70 input   59.86 | X-H torsion
[ 10167 10162 10161 10158 ] final -146.15 input  -65.29 | X-H torsion
[ 10718 10713 10712 10709 ] final   57.85 input   66.30 | X-H torsion
[ 10763 10752 10751 10750 ] final   57.72 input  -60.55 | X-H torsion
[ 11005 11000 10999 10996 ] final   14.07 input  -57.11 | X-H torsion

> <Gold.Protein.ActiveResidues>
 VAL166  LYS551  ARG553  GLY616  TRP617  ASP618  TYR619  PRO620  LYS621  CYS622 
 ASP623  PHE694  ASN695  SER759  ASP760  ASP761  ALA762  ILE779  LEU786  VAL792 
 PHE793  MET794  SER795  GLU796  ALA797  LYS798  CYS799  TRP800  GLU811  SER814 

> <Gold.Protein.RotatedAtoms>
  150.8510  134.7835  159.7008 H   0  0  0  0  0  0  0  0  0  0  0  0  # atno 6907 bound_to 6896
  152.4575  134.5256  159.9805 H   0  0  0  0  0  0  0  0  0  0  0  0  # atno 6908 bound_to 6896
  151.5377  133.3400  159.2965 H   0  0  0  0  0  0  0  0  0  0  0  0  # atno 6909 bound_to 6896
  145.5175  140.9534  143.1673 H   0  0  0  0  0  0  0  0  0  0  0  0  # atno 7974 bound_to 7965
  154.7069  140.2684  155.6666 H   0  0  0  0  0  0  0  0  0  0  0  0  # atno 8008 bound_to 7997
  156.2783  140.2761  156.1622 H   0  0  0  0  0  0  0  0  0  0  0  0  # atno 8009 bound_to 7997
  155.0688  140.0372  157.2591 H   0  0  0  0  0  0  0  0  0  0  0  0  # atno 8010 bound_to 7997
  139.7740  143.8197  152.2629 H   0  0  0  0  0  0  0  0  0  0  0  0  # atno 10167 bound_to 10162
  157.5548  130.8792  149.9019 H   0  0  0  0  0  0  0  0  0  0  0  0  # atno 10718 bound_to 10713
  152.9855  135.5632  154.5436 H   0  0  0  0  0  0  0  0  0  0  0  0  # atno 10763 bound_to 10752
  154.4886  135.2792  155.1516 H   0  0  0  0  0  0  0  0  0  0  0  0  # atno 10764 bound_to 10752
  154.2995  135.6310  153.5472 H   0  0  0  0  0  0  0  0  0  0  0  0  # atno 10765 bound_to 10752
  140.4737  134.1005  155.7737 H   0  0  0  0  0  0  0  0  0  0  0  0  # atno 11005 bound_to 11000
  144.7694  139.6770  143.7201 LP  0  0  0  0  0  0  0  0  0  0  0  0  # atno 17320 bound_to 7965
  146.2127  139.5495  142.9670 LP  0  0  0  0  0  0  0  0  0  0  0  0  # atno 17321 bound_to 7965
  139.8239  144.7283  150.9536 LP  0  0  0  0  0  0  0  0  0  0  0  0  # atno 17342 bound_to 10162
  140.7815  143.4132  151.0958 LP  0  0  0  0  0  0  0  0  0  0  0  0  # atno 17343 bound_to 10162
  156.0609  130.3700  150.0984 LP  0  0  0  0  0  0  0  0  0  0  0  0  # atno 17370 bound_to 10713
  156.9154  130.9665  151.3557 LP  0  0  0  0  0  0  0  0  0  0  0  0  # atno 17371 bound_to 10713
  141.1565  133.8873  157.1964 LP  0  0  0  0  0  0  0  0  0  0  0  0  # atno 17394 bound_to 11000
  139.9869  135.0078  156.9884 LP  0  0  0  0  0  0  0  0  0  0  0  0  # atno 17395 bound_to 11000

$$$$
