AV-unprocessed.smi:3106|AV-procd|sdf|11823|dock8
  -GOLD-   2272017193D 1   1.00000     0.00000
 Structure written by MMmdl.
 29 30  0  0  0  0  0  0  0  0  1 V2000
  151.7264  145.6092  159.7988 C   0  0  0  0  0  0  0  0  0  0  0  0
  152.2814  144.2533  160.1806 C   0  0  0  0  0  0  0  0  0  0  0  0
  152.2218  143.7946  161.5101 C   0  0  0  0  0  0  0  0  0  0  0  0
  152.7497  142.5251  161.8142 C   0  0  0  0  0  0  0  0  0  0  0  0
  153.3231  141.7450  160.7849 C   0  0  0  0  0  0  0  0  0  0  0  0
  153.8267  140.4831  161.1974 N   0  0  0  0  0  0  0  0  0  0  0  0
  154.4216  139.5333  160.4505 C   0  0  0  0  0  0  0  0  0  0  0  0
  154.6424  139.6339  159.2431 O   0  0  0  0  0  0  0  0  0  0  0  0
  154.8614  138.2652  161.1957 C   0  0  2  0  0  0  0  0  0  0  0  0
  153.7042  137.3919  161.6895 C   0  0  0  0  0  0  0  0  0  0  0  0
  154.3386  136.6782  162.8617 C   0  0  0  0  0  0  0  0  0  0  0  0
  155.2177  137.7719  163.4591 C   0  0  0  0  0  0  0  0  0  0  0  0
  155.5988  138.6089  162.3701 O   0  0  0  0  0  0  0  0  0  0  0  0
  153.3742  142.1951  159.5064 N   0  0  0  0  0  0  0  0  0  0  0  0
  152.8678  143.4117  159.2154 C   0  0  0  0  0  0  0  0  0  0  0  0
  151.8306  146.3162  160.6225 H   0  0  0  0  0  0  0  0  0  0  0  0
  150.6688  145.5254  159.5482 H   0  0  0  0  0  0  0  0  0  0  0  0
  152.2542  146.0154  158.9354 H   0  0  0  0  0  0  0  0  0  0  0  0
  151.7797  144.4026  162.2858 H   0  0  0  0  0  0  0  0  0  0  0  0
  152.7125  142.1580  162.8295 H   0  0  0  0  0  0  0  0  0  0  0  0
  153.7146  140.2681  162.1773 H   0  0  0  0  0  0  0  0  0  0  0  0
  155.5148  137.6784  160.5485 H   0  0  0  0  0  0  0  0  0  0  0  0
  152.8647  138.0002  162.0315 H   0  0  0  0  0  0  0  0  0  0  0  0
  153.3400  136.7020  160.9278 H   0  0  0  0  0  0  0  0  0  0  0  0
  153.6106  136.2810  163.5696 H   0  0  0  0  0  0  0  0  0  0  0  0
  154.9561  135.8526  162.5053 H   0  0  0  0  0  0  0  0  0  0  0  0
  154.6477  138.3707  164.1706 H   0  0  0  0  0  0  0  0  0  0  0  0
  156.0886  137.3691  163.9767 H   0  0  0  0  0  0  0  0  0  0  0  0
  152.9334  143.7200  158.1823 H   0  0  0  0  0  0  0  0  0  0  0  0
  1  2  1  0  0  0  0
  1 16  1  0  0  0  0
  1 17  1  0  0  0  0
  1 18  1  0  0  0  0
  2 15  1  0  0  0  0
  2  3  2  0  0  0  0
  3  4  1  0  0  0  0
  3 19  1  0  0  0  0
  4  5  2  0  0  0  0
  4 20  1  0  0  0  0
  5  6  1  0  0  0  0
  5 14  1  0  0  0  0
  6  7  1  0  0  0  0
  6 21  1  0  0  0  0
  7  8  2  0  0  0  0
  7  9  1  0  0  0  0
  9 13  1  0  0  0  0
  9 10  1  0  0  0  0
  9 22  1  0  0  0  0
 10 11  1  0  0  0  0
 10 23  1  0  0  0  0
 10 24  1  0  0  0  0
 11 12  1  0  0  0  0
 11 25  1  0  0  0  0
 11 26  1  0  0  0  0
 12 13  1  0  0  0  0
 12 27  1  0  0  0  0
 12 28  1  0  0  0  0
 14 15  2  0  0  0  0
 15 29  1  0  0  0  0
M  END
> <s_m_source_file>
AV-unprocessed.smi

> <i_m_source_file_index>
3106

> <i_lp_mmshare_version>
43012

> <i_f3d_flags>
0

> <s_epik_input>
W0NIM11jMVtjSF1bY0hdYyhuW2NIXTEpW05IXUMoPU8pW0NAQEhdMltDSDJdW0NIMl1bQ0gyXU8y

> <s_epik_cmdline>
J2VwaWtfcHl0aG9uJywgJy1waCcsICc3LjAnLCAnLXRuJywgJzgnLCAnLW1hJywgJzIwMCcsICctbWV0YWxfYmluZGluZycsICctaW1hZScsICc8aW5maWxlLm1hZT4nLCAnLW9tYWUnLCAnPG91dGZpbGUubWFlPic=

> <r_epik_Ionization_Penalty>
0.00356606

> <r_epik_Ionization_Penalty_Charging>
0

> <r_epik_Ionization_Penalty_Neutral>
0.00356606

> <r_epik_State_Penalty>
0.00372088

> <r_epik_Charging_Adjusted_Penalty>
0.00372088

> <i_epik_Tot_Q>
0

> <i_epik_Tot_abs_Q>
0

> <r_epik_Metal_State_Penalty>
-0

> <b_epik_Metal_Only>
0

> <s_lp_Force_Field>
OPLS_2005

> <r_lp_Energy>
20.8335

> <b_lp_Chiralities_Consistent>
1

> <s_lp_Variant>
AV-unprocessed.smi:3106-1

> <Gold.Version>
5.8.1

> <Gold.Id.Protein>
6NUR|6NUR_protein|mol2

> <Gold.PLP.Fitness>
39.9979

> <Gold.PLP.PLP>
-37.3351

> <Gold.PLP.part.hbond>
-1.0000

> <Gold.PLP.part.metal>
0.0000

> <Gold.PLP.part.buried>
-4.7958

> <Gold.PLP.part.nonpolar>
-32.0598

> <Gold.PLP.part.repulsive>
0.0285

> <Gold.PLP.ligand.clash>
0.0000

> <Gold.PLP.ligand.torsion>
0.1707

> <Gold.PLP.Chemscore.Hbond>
1.0000

> <Gold.PLP.Chemscore.CHOScore>
0.0000

> <Gold.PLP.Chemscore.Metal>
0.0000

> <Gold.Chemscore.Hbonds>
donor molecule, donor type, donor heavy atom, donor atom, acceptor molecule, acceptor atom, score
      P1  H  7997  8008       L1     8  1.00

> <Gold.PLP.Chemscore.Internal.Correction>
0.0042

> <Gold.Rescore>
     Score         DG    S(hbond)    S(metal)    S(lipo)     H(rot)  DE(clash)    DE(int)     intcor
     15.73     -17.14       0.98        0.00      93.45       1.00       0.07       1.33       ----

> <Gold.Chemscore.Fitness>
15.7293

> <Gold.Chemscore.DG>
-17.1359

> <Gold.Chemscore.ZeroCoef>
-5.4800

> <Gold.Chemscore.Hbond>
0.9826

> <Gold.Chemscore.Metal>
0.0000

> <Gold.Chemscore.Lipo>
93.4536

> <Gold.Chemscore.Internal_Hbond>
0.0000

> <Gold.Chemscore.DEClash>
0.0731

> <Gold.Chemscore.DEInternal>
1.3334

> <Gold.Chemscore.Rot>
1.0000

> <Gold.Chemscore.Internal.Correction>
   9.000000E+99

> <Gold.Chemscore.Hbonds>
donor molecule, donor type, donor heavy atom, donor atom, acceptor molecule, acceptor atom, score
      P1  H  7997  8008       L1     8  0.96

> <Gold.Chemscore.Hbond.Weighted>
-3.2818

> <Gold.Chemscore.Metal.Weighted>
-0.0000

> <Gold.Chemscore.Lipo.Weighted>
-10.9341

> <Gold.Chemscore.Internal_Hbond.Weighted>
0.0000

> <Gold.Chemscore.DEClash.Weighted>
0.0731

> <Gold.Chemscore.DEInternal.Weighted>
1.3334

> <Gold.Chemscore.Rot.Weighted>
2.5600

> <Gold.Chemscore.Internal.Correction.Weighted>
   9.000000E+99

> <Gold.Protein.RotatedTorsions>
[ 6907 6896 6895 6894 ] final  -93.51 input  -60.11 | X-H torsion
[ 7974 7965 7964 7962 ] final   87.96 input  175.53 | X-H torsion
[ 8008 7997 7996 7995 ] final -117.90 input   59.86 | X-H torsion
[ 10167 10162 10161 10158 ] final  -68.59 input  -65.29 | X-H torsion
[ 10718 10713 10712 10709 ] final   62.44 input   66.30 | X-H torsion
[ 10763 10752 10751 10750 ] final -178.47 input  -60.55 | X-H torsion
[ 11005 11000 10999 10996 ] final   22.27 input  -57.11 | X-H torsion

> <Gold.Protein.ActiveResidues>
 VAL166  LYS551  ARG553  GLY616  TRP617  ASP618  TYR619  PRO620  LYS621  CYS622 
 ASP623  PHE694  ASN695  SER759  ASP760  ASP761  ALA762  ILE779  LEU786  VAL792 
 PHE793  MET794  SER795  GLU796  ALA797  LYS798  CYS799  TRP800  GLU811  SER814 

> <Gold.Protein.RotatedAtoms>
  150.6924  134.1955  159.4301 H   0  0  0  0  0  0  0  0  0  0  0  0  # atno 6907 bound_to 6896
  151.9924  134.9969  160.0571 H   0  0  0  0  0  0  0  0  0  0  0  0  # atno 6908 bound_to 6896
  152.1655  133.4574  159.4919 H   0  0  0  0  0  0  0  0  0  0  0  0  # atno 6909 bound_to 6896
  145.5520  139.2296  143.2507 H   0  0  0  0  0  0  0  0  0  0  0  0  # atno 7974 bound_to 7965
  155.0911  140.0395  157.2669 H   0  0  0  0  0  0  0  0  0  0  0  0  # atno 8008 bound_to 7997
  154.6831  140.2637  155.6863 H   0  0  0  0  0  0  0  0  0  0  0  0  # atno 8009 bound_to 7997
  156.2702  140.2774  156.1383 H   0  0  0  0  0  0  0  0  0  0  0  0  # atno 8010 bound_to 7997
  140.5496  143.2312  151.6936 H   0  0  0  0  0  0  0  0  0  0  0  0  # atno 10167 bound_to 10162
  157.5901  130.9050  149.9588 H   0  0  0  0  0  0  0  0  0  0  0  0  # atno 10718 bound_to 10713
  154.5473  135.2810  155.1041 H   0  0  0  0  0  0  0  0  0  0  0  0  # atno 10763 bound_to 10752
  154.2500  135.6341  153.5240 H   0  0  0  0  0  0  0  0  0  0  0  0  # atno 10764 bound_to 10752
  152.9994  135.5580  154.6029 H   0  0  0  0  0  0  0  0  0  0  0  0  # atno 10765 bound_to 10752
  140.3824  134.1906  155.7663 H   0  0  0  0  0  0  0  0  0  0  0  0  # atno 11005 bound_to 11000
  146.1910  140.6343  142.9145 LP  0  0  0  0  0  0  0  0  0  0  0  0  # atno 17320 bound_to 7965
  144.7525  140.5225  143.6792 LP  0  0  0  0  0  0  0  0  0  0  0  0  # atno 17321 bound_to 7965
  139.5022  144.3839  152.0348 LP  0  0  0  0  0  0  0  0  0  0  0  0  # atno 17342 bound_to 10162
  140.2955  144.3705  150.6075 LP  0  0  0  0  0  0  0  0  0  0  0  0  # atno 17343 bound_to 10162
  156.0955  130.3660  150.0315 LP  0  0  0  0  0  0  0  0  0  0  0  0  # atno 17370 bound_to 10713
  156.8439  130.9435  151.3630 LP  0  0  0  0  0  0  0  0  0  0  0  0  # atno 17371 bound_to 10713
  141.1919  133.8185  157.0862 LP  0  0  0  0  0  0  0  0  0  0  0  0  # atno 17394 bound_to 11000
  140.0468  134.9826  157.1064 LP  0  0  0  0  0  0  0  0  0  0  0  0  # atno 17395 bound_to 11000

$$$$
