AV-unprocessed.smi:3074|AV-procd|sdf|11722|dock3
  -GOLD-   2272017123D 1   1.00000     0.00000
 Structure written by MMmdl.
 20 21  0  0  0  0  0  0  0  0  3 V2000
  153.6345  141.7199  161.5479 C   0  0  0  0  0  0  0  0  0  0  0  0
  152.9849  142.9240  161.4560 C   0  0  0  0  0  0  0  0  0  0  0  0
  152.5956  143.0611  160.1475 N   0  0  0  0  0  0  0  0  0  0  0  0
  151.8286  144.1300  159.5745 C   0  0  0  0  0  0  0  0  0  0  0  0
  150.4338  143.8865  158.9969 C   0  0  0  0  0  0  0  0  0  0  0  0
  150.7271  144.9202  158.0112 N   0  3  0  0  0  0  0  0  0  0  0  0
  152.1543  144.6781  158.1850 C   0  0  0  0  0  0  0  0  0  0  0  0
  152.9404  141.9672  159.4547 C   0  0  0  0  0  0  0  0  0  0  0  0
  153.5895  141.1596  160.2998 N   0  3  0  0  0  0  0  0  0  0  0  0
  154.1027  141.2274  162.3879 H   0  0  0  0  0  0  0  0  0  0  0  0
  152.7811  143.6736  162.2072 H   0  0  0  0  0  0  0  0  0  0  0  0
  151.8113  144.9331  160.3151 H   0  0  0  0  0  0  0  0  0  0  0  0
  150.3144  142.9035  158.5370 H   0  0  0  0  0  0  0  0  0  0  0  0
  149.6081  144.1311  159.6656 H   0  0  0  0  0  0  0  0  0  0  0  0
  150.3834  144.7150  157.0835 H   0  0  0  0  0  0  0  0  0  0  0  0
  152.7618  145.5835  158.1760 H   0  0  0  0  0  0  0  0  0  0  0  0
  152.5294  143.9229  157.4912 H   0  0  0  0  0  0  0  0  0  0  0  0
  152.7396  141.7724  158.4160 H   0  0  0  0  0  0  0  0  0  0  0  0
  150.4634  145.8364  158.3455 H   0  0  0  0  0  0  0  0  0  0  0  0
  153.9779  140.2575  160.0529 H   0  0  0  0  0  0  0  0  0  0  0  0
  1  9  1  0  0  0  0
  1  2  2  0  0  0  0
  1 10  1  0  0  0  0
  2  3  1  0  0  0  0
  2 11  1  0  0  0  0
  3  4  1  0  0  0  0
  3  8  1  0  0  0  0
  4  7  1  0  0  0  0
  4  5  1  0  0  0  0
  4 12  1  0  0  0  0
  5  6  1  0  0  0  0
  5 13  1  0  0  0  0
  5 14  1  0  0  0  0
  6  7  1  0  0  0  0
  6 15  1  0  0  0  0
  6 19  1  0  0  0  0
  7 16  1  0  0  0  0
  7 17  1  0  0  0  0
  8  9  2  0  0  0  0
  8 18  1  0  0  0  0
  9 20  1  0  0  0  0
M  CHG  1   6   1
M  CHG  1   9   1
M  END
> <s_m_source_file>
AV-unprocessed.smi

> <i_m_source_file_index>
3074

> <i_lp_mmshare_version>
43012

> <i_f3d_flags>
0

> <s_epik_input>
W2NIXTFuW2NIXVtjSF1uMVtDSF0yW0NIMl1bTkhdW0NIMl0y

> <s_epik_cmdline>
J2VwaWtfcHl0aG9uJywgJy1waCcsICc3LjAnLCAnLXRuJywgJzgnLCAnLW1hJywgJzIwMCcsICctbWV0YWxfYmluZGluZycsICctaW1hZScsICc8aW5maWxlLm1hZT4nLCAnLW9tYWUnLCAnPG91dGZpbGUubWFlPic=

> <r_lp_tautomer_probability>
1

> <r_epik_Ionization_Penalty>
1.41643

> <r_epik_Ionization_Penalty_Charging>
0.0219601

> <r_epik_Ionization_Penalty_Neutral>
1.39447

> <r_epik_State_Penalty>
1.13931

> <r_epik_Charging_Adjusted_Penalty>
1.16127

> <i_epik_Tot_Q>
2

> <i_epik_Tot_abs_Q>
2

> <r_epik_Metal_State_Penalty>
5.12948

> <b_epik_Metal_Only>
0

> <s_lp_Force_Field>
OPLS_2005

> <r_lp_Energy>
25.5014

> <b_lp_Chiralities_Consistent>
1

> <s_lp_Variant>
AV-unprocessed.smi:3074-2

> <Gold.Version>
5.8.1

> <Gold.Id.Protein>
6NUR|6NUR_protein|mol2

> <Gold.PLP.Fitness>
34.2282

> <Gold.PLP.PLP>
-28.4656

> <Gold.PLP.part.hbond>
-1.8987

> <Gold.PLP.part.metal>
0.0000

> <Gold.PLP.part.buried>
-3.3711

> <Gold.PLP.part.nonpolar>
-23.2046

> <Gold.PLP.part.repulsive>
0.2089

> <Gold.PLP.ligand.clash>
0.0000

> <Gold.PLP.ligand.torsion>
0.2557

> <Gold.PLP.Chemscore.Hbond>
2.0000

> <Gold.PLP.Chemscore.CHOScore>
0.0000

> <Gold.PLP.Chemscore.Metal>
0.0000

> <Gold.Chemscore.Hbonds>
donor molecule, donor type, donor heavy atom, donor atom, acceptor molecule, acceptor atom, score
      L1  H     6    15       P1  8028  2.00

> <Gold.PLP.Chemscore.Internal.Correction>
0.2740

> <Gold.Rescore>
     Score         DG    S(hbond)    S(metal)    S(lipo)     H(rot)  DE(clash)    DE(int)     intcor
     12.12     -12.28       0.95        0.00      52.93       1.00       0.02       0.14       ----

> <Gold.Chemscore.Fitness>
12.1224

> <Gold.Chemscore.DG>
-12.2843

> <Gold.Chemscore.ZeroCoef>
-5.4800

> <Gold.Chemscore.Hbond>
0.9494

> <Gold.Chemscore.Metal>
0.0000

> <Gold.Chemscore.Lipo>
52.9337

> <Gold.Chemscore.Internal_Hbond>
0.0000

> <Gold.Chemscore.DEClash>
0.0249

> <Gold.Chemscore.DEInternal>
0.1370

> <Gold.Chemscore.Rot>
1.0000

> <Gold.Chemscore.Internal.Correction>
   9.000000E+99

> <Gold.Chemscore.Hbonds>
donor molecule, donor type, donor heavy atom, donor atom, acceptor molecule, acceptor atom, score
      L1  H     6    15       P1  8028  0.49

> <Gold.Chemscore.Hbond.Weighted>
-3.1711

> <Gold.Chemscore.Metal.Weighted>
-0.0000

> <Gold.Chemscore.Lipo.Weighted>
-6.1932

> <Gold.Chemscore.Internal_Hbond.Weighted>
0.0000

> <Gold.Chemscore.DEClash.Weighted>
0.0249

> <Gold.Chemscore.DEInternal.Weighted>
0.1370

> <Gold.Chemscore.Rot.Weighted>
2.5600

> <Gold.Chemscore.Internal.Correction.Weighted>
   9.000000E+99

> <Gold.Protein.RotatedTorsions>
[ 6907 6896 6895 6894 ] final  174.03 input  -60.11 | X-H torsion
[ 7974 7965 7964 7962 ] final  106.54 input  175.53 | X-H torsion
[ 8008 7997 7996 7995 ] final  -61.15 input   59.86 | X-H torsion
[ 10167 10162 10161 10158 ] final -129.83 input  -65.29 | X-H torsion
[ 10718 10713 10712 10709 ] final  132.30 input   66.30 | X-H torsion
[ 10763 10752 10751 10750 ] final  -82.03 input  -60.55 | X-H torsion
[ 11005 11000 10999 10996 ] final   15.27 input  -57.11 | X-H torsion

> <Gold.Protein.ActiveResidues>
 VAL166  LYS551  ARG553  GLY616  TRP617  ASP618  TYR619  PRO620  LYS621  CYS622 
 ASP623  PHE694  ASN695  SER759  ASP760  ASP761  ALA762  ILE779  LEU786  VAL792 
 PHE793  MET794  SER795  GLU796  ALA797  LYS798  CYS799  TRP800  GLU811  SER814 

> <Gold.Protein.RotatedAtoms>
  151.7589  133.3332  159.3411 H   0  0  0  0  0  0  0  0  0  0  0  0  # atno 6907 bound_to 6896
  150.7506  134.6124  159.6102 H   0  0  0  0  0  0  0  0  0  0  0  0  # atno 6908 bound_to 6896
  152.3419  134.7125  160.0313 H   0  0  0  0  0  0  0  0  0  0  0  0  # atno 6909 bound_to 6896
  145.3052  139.2557  143.3792 H   0  0  0  0  0  0  0  0  0  0  0  0  # atno 7974 bound_to 7965
  154.4433  140.1024  156.6385 H   0  0  0  0  0  0  0  0  0  0  0  0  # atno 8008 bound_to 7997
  155.5527  140.3486  155.4454 H   0  0  0  0  0  0  0  0  0  0  0  0  # atno 8009 bound_to 7997
  156.0517  140.1305  157.0031 H   0  0  0  0  0  0  0  0  0  0  0  0  # atno 8010 bound_to 7997
  139.9357  143.6221  152.2518 H   0  0  0  0  0  0  0  0  0  0  0  0  # atno 10167 bound_to 10162
  157.4884  131.1089  150.9589 H   0  0  0  0  0  0  0  0  0  0  0  0  # atno 10718 bound_to 10713
  154.5708  135.5605  153.7093 H   0  0  0  0  0  0  0  0  0  0  0  0  # atno 10763 bound_to 10752
  153.0048  135.6296  154.2116 H   0  0  0  0  0  0  0  0  0  0  0  0  # atno 10764 bound_to 10752
  154.2056  135.2876  155.2956 H   0  0  0  0  0  0  0  0  0  0  0  0  # atno 10765 bound_to 10752
  140.4601  134.1136  155.7715 H   0  0  0  0  0  0  0  0  0  0  0  0  # atno 11005 bound_to 11000
  146.3137  140.3576  142.8662 LP  0  0  0  0  0  0  0  0  0  0  0  0  # atno 17320 bound_to 7965
  144.9060  140.7700  143.5837 LP  0  0  0  0  0  0  0  0  0  0  0  0  # atno 17321 bound_to 7965
  139.6746  144.7659  151.1720 LP  0  0  0  0  0  0  0  0  0  0  0  0  # atno 17342 bound_to 10162
  140.7625  143.5814  150.8890 LP  0  0  0  0  0  0  0  0  0  0  0  0  # atno 17343 bound_to 10162
  157.0299  130.5707  149.5342 LP  0  0  0  0  0  0  0  0  0  0  0  0  # atno 17370 bound_to 10713
  156.0159  130.5253  150.8134 LP  0  0  0  0  0  0  0  0  0  0  0  0  # atno 17371 bound_to 10713
  141.1625  133.8766  157.1808 LP  0  0  0  0  0  0  0  0  0  0  0  0  # atno 17394 bound_to 11000
  139.9950  135.0050  157.0063 LP  0  0  0  0  0  0  0  0  0  0  0  0  # atno 17395 bound_to 11000

$$$$
