AV-unprocessed.smi:956|AV-procd|sdf|4263|dock4
  -GOLD-   22720 2173D 1   1.00000     0.00000
 Structure written by MMmdl.
 42 43  0  0  0  0  0  0  0  0  1 V2000
  149.3738  134.4703  154.8756 C   0  0  0  0  0  0  0  0  0  0  0  0
  149.0632  136.0961  155.7138 S   0  0  2  0  0  0  0  0  0  0  0  0
  147.7567  136.6532  155.1456 O   0  0  0  0  0  0  0  0  0  0  0  0
  150.3717  137.0044  154.8170 C   0  0  0  0  0  0  0  0  0  0  0  0
  151.6026  136.5261  154.6113 N   0  0  0  0  0  0  0  0  0  0  0  0
  152.2612  137.5226  153.9166 N   0  0  0  0  0  0  0  0  0  0  0  0
  151.3548  138.4911  153.7728 C   0  0  0  0  0  0  0  0  0  0  0  0
  150.1528  138.2342  154.3141 N   0  0  0  0  0  0  0  0  0  0  0  0
  148.9752  139.0864  154.3536 C   0  0  0  0  0  0  0  0  0  0  0  0
  149.3526  140.4751  154.8649 C   0  0  0  0  0  0  0  0  0  0  0  0
  149.0027  141.4743  154.2383 O   0  0  0  0  0  0  0  0  0  0  0  0
  150.1119  140.5144  155.9712 N   0  0  0  0  0  0  0  0  0  0  0  0
  150.8151  141.6912  156.4710 C   0  0  0  0  0  0  0  0  0  0  0  0
  151.6760  141.3442  157.7026 C   0  0  0  0  0  0  0  0  0  0  0  0
  152.0989  142.5462  158.5793 C   0  0  0  0  0  0  0  0  0  0  0  0
  152.4409  142.0979  160.0140 C   0  0  0  0  0  0  0  0  0  0  0  0
  152.9215  143.2802  160.8705 C   0  0  0  0  0  0  0  0  0  0  0  0
  151.8756  144.4049  160.8984 C   0  0  0  0  0  0  0  0  0  0  0  0
  151.5027  144.8518  159.4766 C   0  0  0  0  0  0  0  0  0  0  0  0
  151.0353  143.6636  158.6200 C   0  0  0  0  0  0  0  0  0  0  0  0
  150.3629  134.4387  154.4221 H   0  0  0  0  0  0  0  0  0  0  0  0
  148.6325  134.3018  154.0947 H   0  0  0  0  0  0  0  0  0  0  0  0
  149.3046  133.6585  155.5990 H   0  0  0  0  0  0  0  0  0  0  0  0
  151.5782  139.4204  153.2694 H   0  0  0  0  0  0  0  0  0  0  0  0
  148.5600  139.1574  153.3474 H   0  0  0  0  0  0  0  0  0  0  0  0
  148.2082  138.6408  154.9870 H   0  0  0  0  0  0  0  0  0  0  0  0
  150.3221  139.6386  156.4273 H   0  0  0  0  0  0  0  0  0  0  0  0
  151.4310  142.1525  155.6981 H   0  0  0  0  0  0  0  0  0  0  0  0
  150.0714  142.4393  156.7462 H   0  0  0  0  0  0  0  0  0  0  0  0
  151.1448  140.6152  158.3155 H   0  0  0  0  0  0  0  0  0  0  0  0
  152.5745  140.8349  157.3519 H   0  0  0  0  0  0  0  0  0  0  0  0
  153.0110  142.9717  158.1618 H   0  0  0  0  0  0  0  0  0  0  0  0
  151.5649  141.6425  160.4778 H   0  0  0  0  0  0  0  0  0  0  0  0
  153.2136  141.3288  159.9947 H   0  0  0  0  0  0  0  0  0  0  0  0
  153.1318  142.9429  161.8858 H   0  0  0  0  0  0  0  0  0  0  0  0
  153.8616  143.6632  160.4705 H   0  0  0  0  0  0  0  0  0  0  0  0
  150.9813  144.0580  161.4178 H   0  0  0  0  0  0  0  0  0  0  0  0
  152.2560  145.2531  161.4680 H   0  0  0  0  0  0  0  0  0  0  0  0
  150.7201  145.6099  159.5189 H   0  0  0  0  0  0  0  0  0  0  0  0
  152.3650  145.3244  159.0044 H   0  0  0  0  0  0  0  0  0  0  0  0
  150.8149  144.0198  157.6144 H   0  0  0  0  0  0  0  0  0  0  0  0
  150.0999  143.2693  159.0190 H   0  0  0  0  0  0  0  0  0  0  0  0
  1  2  1  0  0  0  0
  1 21  1  0  0  0  0
  1 22  1  0  0  0  0
  1 23  1  0  0  0  0
  2  3  2  0  0  0  0
  2  4  1  0  0  0  0
  4  8  1  0  0  0  0
  4  5  2  0  0  0  0
  5  6  1  0  0  0  0
  6  7  2  0  0  0  0
  7  8  1  0  0  0  0
  7 24  1  0  0  0  0
  8  9  1  0  0  0  0
  9 10  1  0  0  0  0
  9 25  1  0  0  0  0
  9 26  1  0  0  0  0
 10 11  2  0  0  0  0
 10 12  1  0  0  0  0
 12 13  1  0  0  0  0
 12 27  1  0  0  0  0
 13 14  1  0  0  0  0
 13 28  1  0  0  0  0
 13 29  1  0  0  0  0
 14 15  1  0  0  0  0
 14 30  1  0  0  0  0
 14 31  1  0  0  0  0
 15 20  1  0  0  0  0
 15 16  1  0  0  0  0
 15 32  1  0  0  0  0
 16 17  1  0  0  0  0
 16 33  1  0  0  0  0
 16 34  1  0  0  0  0
 17 18  1  0  0  0  0
 17 35  1  0  0  0  0
 17 36  1  0  0  0  0
 18 19  1  0  0  0  0
 18 37  1  0  0  0  0
 18 38  1  0  0  0  0
 19 20  1  0  0  0  0
 19 39  1  0  0  0  0
 19 40  1  0  0  0  0
 20 41  1  0  0  0  0
 20 42  1  0  0  0  0
M  END
> <s_m_source_file>
AV-unprocessed.smi

> <i_m_source_file_index>
956

> <i_lp_mmshare_version>
43012

> <i_f3d_flags>
0

> <s_epik_input>
W0NIM11bU0BdKD1PKWMxbm5bY0hdbjFbQ0gyXUMoPU8pW05IXVtDSDJdW0NIMl1bQ0hdMltDSDJdW0NIMl1bQ0gyXVtDSDJdW0NIMl0y

> <s_epik_cmdline>
J2VwaWtfcHl0aG9uJywgJy1waCcsICc3LjAnLCAnLXRuJywgJzgnLCAnLW1hJywgJzIwMCcsICctbWV0YWxfYmluZGluZycsICctaW1hZScsICc8aW5maWxlLm1hZT4nLCAnLW9tYWUnLCAnPG91dGZpbGUubWFlPic=

> <r_lp_tautomer_probability>
1

> <r_epik_Ionization_Penalty>
7.32521e-08

> <r_epik_Ionization_Penalty_Charging>
0

> <r_epik_Ionization_Penalty_Neutral>
7.32521e-08

> <r_epik_State_Penalty>
-0

> <r_epik_Charging_Adjusted_Penalty>
0

> <i_epik_Tot_Q>
0

> <i_epik_Tot_abs_Q>
0

> <r_epik_Metal_State_Penalty>
-0

> <b_epik_Metal_Only>
0

> <s_lp_Force_Field>
OPLS_2005

> <r_lp_Energy>
8.17766

> <b_lp_Chiralities_Consistent>
1

> <s_lp_Variant>
AV-unprocessed.smi:956-1

> <Gold.Version>
5.8.1

> <Gold.Id.Protein>
6NUR|6NUR_protein|mol2

> <Gold.PLP.Fitness>
44.2753

> <Gold.PLP.PLP>
-39.8803

> <Gold.PLP.part.hbond>
-3.5258

> <Gold.PLP.part.metal>
0.0000

> <Gold.PLP.part.buried>
-5.9443

> <Gold.PLP.part.nonpolar>
-32.2496

> <Gold.PLP.part.repulsive>
0.8895

> <Gold.PLP.ligand.clash>
0.0000

> <Gold.PLP.ligand.torsion>
1.0775

> <Gold.PLP.Chemscore.Hbond>
1.7950

> <Gold.PLP.Chemscore.CHOScore>
0.0000

> <Gold.PLP.Chemscore.Metal>
0.0000

> <Gold.Chemscore.Hbonds>
donor molecule, donor type, donor heavy atom, donor atom, acceptor molecule, acceptor atom, score
      P1  H  8011  8017       L1    11  0.26
      P1  H 10752 10763       L1     5  0.10
      L1  C     7    24       P1  7957  0.01

> <Gold.PLP.Chemscore.Internal.Correction>
1.1651

> <Gold.Rescore>
     Score         DG    S(hbond)    S(metal)    S(lipo)     H(rot)  DE(clash)    DE(int)     intcor
     14.92     -15.91       1.78        0.00      87.52       2.26       0.08       0.90       ----

> <Gold.Chemscore.Fitness>
14.9244

> <Gold.Chemscore.DG>
-15.9059

> <Gold.Chemscore.ZeroCoef>
-5.4800

> <Gold.Chemscore.Hbond>
1.7846

> <Gold.Chemscore.Metal>
0.0000

> <Gold.Chemscore.Lipo>
87.5154

> <Gold.Chemscore.Internal_Hbond>
0.0000

> <Gold.Chemscore.DEClash>
0.0833

> <Gold.Chemscore.DEInternal>
0.8983

> <Gold.Chemscore.Rot>
2.2554

> <Gold.Chemscore.Internal.Correction>
   9.000000E+99

> <Gold.Chemscore.Hbonds>
donor molecule, donor type, donor heavy atom, donor atom, acceptor molecule, acceptor atom, score
      P1  H  8011  8017       L1    11  0.26

> <Gold.Chemscore.Hbond.Weighted>
-5.9605

> <Gold.Chemscore.Metal.Weighted>
-0.0000

> <Gold.Chemscore.Lipo.Weighted>
-10.2393

> <Gold.Chemscore.Internal_Hbond.Weighted>
0.0000

> <Gold.Chemscore.DEClash.Weighted>
0.0833

> <Gold.Chemscore.DEInternal.Weighted>
0.8983

> <Gold.Chemscore.Rot.Weighted>
5.7738

> <Gold.Chemscore.Internal.Correction.Weighted>
   9.000000E+99

> <Gold.Protein.RotatedTorsions>
[ 6907 6896 6895 6894 ] final  170.12 input  -60.11 | X-H torsion
[ 7974 7965 7964 7962 ] final  109.31 input  175.53 | X-H torsion
[ 8008 7997 7996 7995 ] final  137.49 input   59.86 | X-H torsion
[ 10167 10162 10161 10158 ] final -107.18 input  -65.29 | X-H torsion
[ 10718 10713 10712 10709 ] final  104.60 input   66.30 | X-H torsion
[ 10763 10752 10751 10750 ] final   36.45 input  -60.55 | X-H torsion
[ 11005 11000 10999 10996 ] final   24.22 input  -57.11 | X-H torsion

> <Gold.Protein.ActiveResidues>
 VAL166  LYS551  ARG553  GLY616  TRP617  ASP618  TYR619  PRO620  LYS621  CYS622 
 ASP623  PHE694  ASN695  SER759  ASP760  ASP761  ALA762  ILE779  LEU786  VAL792 
 PHE793  MET794  SER795  GLU796  ALA797  LYS798  CYS799  TRP800  GLU811  SER814 

> <Gold.Protein.RotatedAtoms>
  151.8212  133.3395  159.3584 H   0  0  0  0  0  0  0  0  0  0  0  0  # atno 6907 bound_to 6896
  150.7294  134.5572  159.5833 H   0  0  0  0  0  0  0  0  0  0  0  0  # atno 6908 bound_to 6896
  152.3004  134.7618  160.0410 H   0  0  0  0  0  0  0  0  0  0  0  0  # atno 6909 bound_to 6896
  145.2694  139.2672  143.3974 H   0  0  0  0  0  0  0  0  0  0  0  0  # atno 7974 bound_to 7965
  156.3002  140.2418  156.3919 H   0  0  0  0  0  0  0  0  0  0  0  0  # atno 8008 bound_to 7997
  154.8606  140.0420  157.1683 H   0  0  0  0  0  0  0  0  0  0  0  0  # atno 8009 bound_to 7997
  154.8900  140.2962  155.5380 H   0  0  0  0  0  0  0  0  0  0  0  0  # atno 8010 bound_to 7997
  140.1797  143.3976  152.1290 H   0  0  0  0  0  0  0  0  0  0  0  0  # atno 10167 bound_to 10162
  157.6734  131.0808  150.5731 H   0  0  0  0  0  0  0  0  0  0  0  0  # atno 10718 bound_to 10713
  153.0076  135.6305  154.1987 H   0  0  0  0  0  0  0  0  0  0  0  0  # atno 10763 bound_to 10752
  154.1731  135.2817  155.3077 H   0  0  0  0  0  0  0  0  0  0  0  0  # atno 10764 bound_to 10752
  154.5893  135.5622  153.7323 H   0  0  0  0  0  0  0  0  0  0  0  0  # atno 10765 bound_to 10752
  140.3611  134.2124  155.7672 H   0  0  0  0  0  0  0  0  0  0  0  0  # atno 11005 bound_to 11000
  146.3251  140.3132  142.8628 LP  0  0  0  0  0  0  0  0  0  0  0  0  # atno 17320 bound_to 7965
  144.9348  140.8015  143.5667 LP  0  0  0  0  0  0  0  0  0  0  0  0  # atno 17321 bound_to 7965
  139.5301  144.7149  151.5086 LP  0  0  0  0  0  0  0  0  0  0  0  0  # atno 17342 bound_to 10162
  140.6527  143.8662  150.6803 LP  0  0  0  0  0  0  0  0  0  0  0  0  # atno 17343 bound_to 10162
  156.6032  130.4360  149.5889 LP  0  0  0  0  0  0  0  0  0  0  0  0  # atno 17370 bound_to 10713
  156.2490  130.6896  151.1627 LP  0  0  0  0  0  0  0  0  0  0  0  0  # atno 17371 bound_to 10713
  141.1984  133.8037  157.0586 LP  0  0  0  0  0  0  0  0  0  0  0  0  # atno 17394 bound_to 11000
  140.0626  134.9746  157.1330 LP  0  0  0  0  0  0  0  0  0  0  0  0  # atno 17395 bound_to 11000

$$$$
