AV-unprocessed.smi:407|AV-procd|sdf|2502|dock2
  -GOLD-   2262022453D 1   1.00000     0.00000
 Structure written by MMmdl.
 45 47  0  0  0  0  0  0  0  0  1 V2000
  143.7257  145.1125  153.9268 C   0  0  0  0  0  0  0  0  0  0  0  0
  144.0194  144.2348  155.1423 C   0  0  0  0  0  0  0  0  0  0  0  0
  143.2751  144.3101  156.1194 O   0  0  0  0  0  0  0  0  0  0  0  0
  145.2022  143.3301  155.0776 C   0  0  0  0  0  0  0  0  0  0  0  0
  145.8627  143.0516  153.8587 C   0  0  0  0  0  0  0  0  0  0  0  0
  146.9790  142.1937  153.8319 C   0  0  0  0  0  0  0  0  0  0  0  0
  147.4633  141.5971  155.0125 C   0  0  0  0  0  0  0  0  0  0  0  0
  148.5633  140.7752  154.8936 O   0  0  0  0  0  0  0  0  0  0  0  0
  149.0620  140.1425  156.0652 C   0  0  0  0  0  0  0  0  0  0  0  0
  150.5871  140.3312  156.1192 C   0  0  1  0  0  0  0  0  0  0  0  0
  151.0976  139.9837  154.8470 O   0  0  0  0  0  0  0  0  0  0  0  0
  150.9771  141.7980  156.3973 C   0  0  0  0  0  0  0  0  0  0  0  0
  151.6294  141.9462  157.6977 N   0  0  0  0  0  0  0  0  0  0  0  0
  152.4451  141.0459  158.2965 C   0  0  0  0  0  0  0  0  0  0  0  0
  152.7645  139.9476  157.8414 O   0  0  0  0  0  0  0  0  0  0  0  0
  152.8541  141.5695  159.4755 N   0  0  0  0  0  0  0  0  0  0  0  0
  153.7507  140.9515  160.4449 C   0  0  0  0  0  0  0  0  0  0  0  0
  152.2974  142.8454  159.6296 C   0  0  0  0  0  0  0  0  0  0  0  0
  152.4277  143.7897  160.6623 C   0  0  0  0  0  0  0  0  0  0  0  0
  151.7275  145.0098  160.5133 C   0  0  0  0  0  0  0  0  0  0  0  0
  150.9330  145.2564  159.3635 C   0  0  0  0  0  0  0  0  0  0  0  0
  150.8209  144.2879  158.3384 C   0  0  0  0  0  0  0  0  0  0  0  0
  151.5252  143.0835  158.5120 C   0  0  0  0  0  0  0  0  0  0  0  0
  146.8008  141.8724  156.2336 C   0  0  0  0  0  0  0  0  0  0  0  0
  145.6836  142.7292  156.2624 C   0  0  0  0  0  0  0  0  0  0  0  0
  144.5654  145.7776  153.7240 H   0  0  0  0  0  0  0  0  0  0  0  0
  142.8413  145.7250  154.1033 H   0  0  0  0  0  0  0  0  0  0  0  0
  143.5433  144.4975  153.0454 H   0  0  0  0  0  0  0  0  0  0  0  0
  145.5311  143.4865  152.9277 H   0  0  0  0  0  0  0  0  0  0  0  0
  147.4718  141.9931  152.8917 H   0  0  0  0  0  0  0  0  0  0  0  0
  148.5895  140.5329  156.9686 H   0  0  0  0  0  0  0  0  0  0  0  0
  148.8300  139.0782  156.0007 H   0  0  0  0  0  0  0  0  0  0  0  0
  151.0077  139.6760  156.8834 H   0  0  0  0  0  0  0  0  0  0  0  0
  151.4627  139.1137  154.8970 H   0  0  0  0  0  0  0  0  0  0  0  0
  151.5994  142.2017  155.5975 H   0  0  0  0  0  0  0  0  0  0  0  0
  150.0815  142.4213  156.4097 H   0  0  0  0  0  0  0  0  0  0  0  0
  153.3520  141.0572  161.4545 H   0  0  0  0  0  0  0  0  0  0  0  0
  154.7283  141.4329  160.4107 H   0  0  0  0  0  0  0  0  0  0  0  0
  153.8888  139.8867  160.2513 H   0  0  0  0  0  0  0  0  0  0  0  0
  153.0365  143.5953  161.5329 H   0  0  0  0  0  0  0  0  0  0  0  0
  151.7995  145.7635  161.2837 H   0  0  0  0  0  0  0  0  0  0  0  0
  150.4086  146.1958  159.2687 H   0  0  0  0  0  0  0  0  0  0  0  0
  150.2204  144.4729  157.4601 H   0  0  0  0  0  0  0  0  0  0  0  0
  147.1291  141.4378  157.1654 H   0  0  0  0  0  0  0  0  0  0  0  0
  145.2013  142.9200  157.2103 H   0  0  0  0  0  0  0  0  0  0  0  0
  1  2  1  0  0  0  0
  1 26  1  0  0  0  0
  1 27  1  0  0  0  0
  1 28  1  0  0  0  0
  2  3  2  0  0  0  0
  2  4  1  0  0  0  0
  4 25  1  0  0  0  0
  4  5  2  0  0  0  0
  5  6  1  0  0  0  0
  5 29  1  0  0  0  0
  6  7  2  0  0  0  0
  6 30  1  0  0  0  0
  7  8  1  0  0  0  0
  7 24  1  0  0  0  0
  8  9  1  0  0  0  0
  9 10  1  0  0  0  0
  9 31  1  0  0  0  0
  9 32  1  0  0  0  0
 10 11  1  0  0  0  0
 10 12  1  0  0  0  0
 10 33  1  0  0  0  0
 11 34  1  0  0  0  0
 12 13  1  0  0  0  0
 12 35  1  0  0  0  0
 12 36  1  0  0  0  0
 13 23  1  0  0  0  0
 13 14  1  0  0  0  0
 14 15  2  0  0  0  0
 14 16  1  0  0  0  0
 16 17  1  0  0  0  0
 16 18  1  0  0  0  0
 17 37  1  0  0  0  0
 17 38  1  0  0  0  0
 17 39  1  0  0  0  0
 18 23  2  0  0  0  0
 18 19  1  0  0  0  0
 19 20  2  0  0  0  0
 19 40  1  0  0  0  0
 20 21  1  0  0  0  0
 20 41  1  0  0  0  0
 21 22  2  0  0  0  0
 21 42  1  0  0  0  0
 22 23  1  0  0  0  0
 22 43  1  0  0  0  0
 24 25  2  0  0  0  0
 24 44  1  0  0  0  0
 25 45  1  0  0  0  0
M  END
> <s_m_source_file>
AV-unprocessed.smi

> <i_m_source_file_index>
407

> <i_lp_mmshare_version>
43012

> <i_f3d_flags>
0

> <s_epik_input>
W0NIM11DKD1PKWMxW2NIXVtjSF1jKFtjSF1bY0hdMSlPW0NIMl1bQ0BIXShbT0hdKVtDSDJdbihjKD1PKW4yW0NIM10pYyhjMjMpW2NIXVtjSF1bY0hdW2NIXTM=

> <s_epik_cmdline>
J2VwaWtfcHl0aG9uJywgJy1waCcsICc3LjAnLCAnLXRuJywgJzgnLCAnLW1hJywgJzIwMCcsICctbWV0YWxfYmluZGluZycsICctaW1hZScsICc8aW5maWxlLm1hZT4nLCAnLW9tYWUnLCAnPG91dGZpbGUubWFlPic=

> <r_lp_tautomer_probability>
1

> <r_epik_Ionization_Penalty>
2.40123e-06

> <r_epik_Ionization_Penalty_Charging>
1.9356e-09

> <r_epik_Ionization_Penalty_Neutral>
2.3993e-06

> <r_epik_State_Penalty>
-0

> <r_epik_Charging_Adjusted_Penalty>
1.9356e-09

> <i_epik_Tot_Q>
0

> <i_epik_Tot_abs_Q>
0

> <r_epik_Metal_State_Penalty>
-0

> <b_epik_Metal_Only>
0

> <s_lp_Force_Field>
OPLS_2005

> <r_lp_Energy>
53.7359

> <b_lp_Chiralities_Consistent>
1

> <s_lp_Variant>
AV-unprocessed.smi:407-2

> <Gold.Version>
5.8.1

> <Gold.Id.Protein>
6NUR|6NUR_protein|mol2

> <Gold.PLP.Fitness>
59.9472

> <Gold.PLP.PLP>
-56.7977

> <Gold.PLP.part.hbond>
-2.0000

> <Gold.PLP.part.metal>
0.0000

> <Gold.PLP.part.buried>
-10.3938

> <Gold.PLP.part.nonpolar>
-44.8012

> <Gold.PLP.part.repulsive>
0.1437

> <Gold.PLP.ligand.clash>
0.0000

> <Gold.PLP.ligand.torsion>
1.5659

> <Gold.PLP.Chemscore.Hbond>
2.0000

> <Gold.PLP.Chemscore.CHOScore>
0.0000

> <Gold.PLP.Chemscore.Metal>
0.0000

> <Gold.Chemscore.Hbonds>
donor molecule, donor type, donor heavy atom, donor atom, acceptor molecule, acceptor atom, score
      P1  H  7989  7998       L1    11  1.00
      P1  H  7997  8010       L1    15  0.99

> <Gold.PLP.Chemscore.Internal.Correction>
0.2813

> <Gold.Rescore>
     Score         DG    S(hbond)    S(metal)    S(lipo)     H(rot)  DE(clash)    DE(int)     intcor
     17.84     -20.72       1.86        0.00     127.39       2.30       0.18       2.71       ----

> <Gold.Chemscore.Fitness>
17.8354

> <Gold.Chemscore.DG>
-20.7249

> <Gold.Chemscore.ZeroCoef>
-5.4800

> <Gold.Chemscore.Hbond>
1.8636

> <Gold.Chemscore.Metal>
0.0000

> <Gold.Chemscore.Lipo>
127.3877

> <Gold.Chemscore.Internal_Hbond>
0.0000

> <Gold.Chemscore.DEClash>
0.1812

> <Gold.Chemscore.DEInternal>
2.7083

> <Gold.Chemscore.Rot>
2.2984

> <Gold.Chemscore.Internal.Correction>
   9.000000E+99

> <Gold.Chemscore.Hbonds>
donor molecule, donor type, donor heavy atom, donor atom, acceptor molecule, acceptor atom, score
      P1  H  7989  7998       L1    11  0.85
      P1  H  7997  8010       L1    15  0.71

> <Gold.Chemscore.Hbond.Weighted>
-6.2244

> <Gold.Chemscore.Metal.Weighted>
-0.0000

> <Gold.Chemscore.Lipo.Weighted>
-14.9044

> <Gold.Chemscore.Internal_Hbond.Weighted>
0.0000

> <Gold.Chemscore.DEClash.Weighted>
0.1812

> <Gold.Chemscore.DEInternal.Weighted>
2.7083

> <Gold.Chemscore.Rot.Weighted>
5.8839

> <Gold.Chemscore.Internal.Correction.Weighted>
   9.000000E+99

> <Gold.Protein.RotatedTorsions>
[ 6907 6896 6895 6894 ] final    5.78 input  -60.11 | X-H torsion
[ 7974 7965 7964 7962 ] final  -90.94 input  175.53 | X-H torsion
[ 8008 7997 7996 7995 ] final   60.18 input   59.86 | X-H torsion
[ 10167 10162 10161 10158 ] final   26.24 input  -65.29 | X-H torsion
[ 10718 10713 10712 10709 ] final  119.49 input   66.30 | X-H torsion
[ 10763 10752 10751 10750 ] final  -82.39 input  -60.55 | X-H torsion
[ 11005 11000 10999 10996 ] final  -54.39 input  -57.11 | X-H torsion

> <Gold.Protein.ActiveResidues>
 VAL166  LYS551  ARG553  GLY616  TRP617  ASP618  TYR619  PRO620  LYS621  CYS622 
 ASP623  PHE694  ASN695  SER759  ASP760  ASP761  ALA762  ILE779  LEU786  VAL792 
 PHE793  MET794  SER795  GLU796  ALA797  LYS798  CYS799  TRP800  GLU811  SER814 

> <Gold.Protein.RotatedAtoms>
  151.6631  135.0986  160.0183 H   0  0  0  0  0  0  0  0  0  0  0  0  # atno 6907 bound_to 6896
  152.3935  133.6709  159.6265 H   0  0  0  0  0  0  0  0  0  0  0  0  # atno 6908 bound_to 6896
  150.7846  133.8830  159.3332 H   0  0  0  0  0  0  0  0  0  0  0  0  # atno 6909 bound_to 6896
  145.4197  140.9550  143.2188 H   0  0  0  0  0  0  0  0  0  0  0  0  # atno 7974 bound_to 7965
  155.5781  140.3491  155.4533 H   0  0  0  0  0  0  0  0  0  0  0  0  # atno 8008 bound_to 7997
  156.0394  140.1292  157.0197 H   0  0  0  0  0  0  0  0  0  0  0  0  # atno 8009 bound_to 7997
  154.4385  140.1027  156.6200 H   0  0  0  0  0  0  0  0  0  0  0  0  # atno 8010 bound_to 7997
  140.5039  144.0270  150.6344 H   0  0  0  0  0  0  0  0  0  0  0  0  # atno 10167 bound_to 10162
  157.5958  131.1058  150.7904 H   0  0  0  0  0  0  0  0  0  0  0  0  # atno 10718 bound_to 10713
  154.5752  135.5593  153.7133 H   0  0  0  0  0  0  0  0  0  0  0  0  # atno 10763 bound_to 10752
  153.0062  135.6306  154.2059 H   0  0  0  0  0  0  0  0  0  0  0  0  # atno 10764 bound_to 10752
  154.1999  135.2878  155.2974 H   0  0  0  0  0  0  0  0  0  0  0  0  # atno 10765 bound_to 10752
  141.1023  133.6616  156.4313 H   0  0  0  0  0  0  0  0  0  0  0  0  # atno 11005 bound_to 11000
  144.8253  139.5720  143.6968 LP  0  0  0  0  0  0  0  0  0  0  0  0  # atno 17320 bound_to 7965
  146.2663  139.6527  142.9327 LP  0  0  0  0  0  0  0  0  0  0  0  0  # atno 17321 bound_to 7965
  140.3574  143.2928  152.0421 LP  0  0  0  0  0  0  0  0  0  0  0  0  # atno 17342 bound_to 10162
  139.4879  144.6329  151.7034 LP  0  0  0  0  0  0  0  0  0  0  0  0  # atno 17343 bound_to 10162
  156.8315  130.5017  149.5331 LP  0  0  0  0  0  0  0  0  0  0  0  0  # atno 17370 bound_to 10713
  156.1020  130.5976  150.9909 LP  0  0  0  0  0  0  0  0  0  0  0  0  # atno 17371 bound_to 10713
  140.4990  134.6503  157.5241 LP  0  0  0  0  0  0  0  0  0  0  0  0  # atno 17394 bound_to 11000
  139.9879  134.7031  155.9740 LP  0  0  0  0  0  0  0  0  0  0  0  0  # atno 17395 bound_to 11000

$$$$
