AV-unprocessed.smi:1712|AV-procd|sdf|6904|dock7
  -GOLD-   22720 8113D 1   1.00000     0.00000
 Structure written by MMmdl.
 38 39  0  0  0  0  0  0  0  0  2 V2000
  150.9666  134.4869  156.2944 C   0  0  0  0  0  0  0  0  0  0  0  0
  150.3769  134.7329  154.8832 C   0  0  1  0  0  0  0  0  0  0  0  0
  149.1380  133.8306  154.6383 C   0  0  0  0  0  0  0  0  0  0  0  0
  148.4283  134.1519  153.4020 N   0  0  0  0  0  0  0  0  0  0  0  0
  147.3131  133.5468  152.9673 C   0  0  0  0  0  0  0  0  0  0  0  0
  146.7629  132.6223  153.5658 O   0  0  0  0  0  0  0  0  0  0  0  0
  146.8931  134.0729  151.8054 N   0  0  0  0  0  0  0  0  0  0  0  0
  145.7579  133.6884  151.0482 C   0  0  0  0  0  0  0  0  0  0  0  0
  145.7368  132.6265  150.1036 C   0  0  0  0  0  0  0  0  0  0  0  0
  144.5406  132.4979  149.5474 N   0  0  0  0  0  0  0  0  0  0  0  0
  143.7985  133.4683  150.1272 N   0  0  0  0  0  0  0  0  0  0  0  0
  144.4977  134.2174  151.0475 C   0  0  0  0  0  0  0  0  0  0  0  0
  150.0258  136.1700  154.6298 N   0  3  0  0  0  0  0  0  0  0  0  0
  148.9137  136.7167  155.4567 C   0  0  0  0  0  0  0  0  0  0  0  0
  148.6179  138.1821  155.0932 C   0  0  0  0  0  0  0  0  0  0  0  0
  149.7929  138.9652  155.2401 O   0  0  0  0  0  0  0  0  0  0  0  0
  150.8232  138.5217  154.3705 C   0  0  0  0  0  0  0  0  0  0  0  0
  151.2043  137.0753  154.7242 C   0  0  0  0  0  0  0  0  0  0  0  0
  142.8271  133.6057  149.8866 H   0  0  0  0  0  0  0  0  0  0  0  0
  151.2146  133.4382  156.4526 H   0  0  0  0  0  0  0  0  0  0  0  0
  150.2645  134.7787  157.0761 H   0  0  0  0  0  0  0  0  0  0  0  0
  151.9003  135.0264  156.4515 H   0  0  0  0  0  0  0  0  0  0  0  0
  151.1533  134.4522  154.1695 H   0  0  0  0  0  0  0  0  0  0  0  0
  149.4346  132.7803  154.6578 H   0  0  0  0  0  0  0  0  0  0  0  0
  148.4033  133.9451  155.4326 H   0  0  0  0  0  0  0  0  0  0  0  0
  148.8088  134.9005  152.8412 H   0  0  0  0  0  0  0  0  0  0  0  0
  147.4424  134.8269  151.4196 H   0  0  0  0  0  0  0  0  0  0  0  0
  146.5328  131.9587  149.8091 H   0  0  0  0  0  0  0  0  0  0  0  0
  144.0447  135.0307  151.5951 H   0  0  0  0  0  0  0  0  0  0  0  0
  147.9953  136.1536  155.2944 H   0  0  0  0  0  0  0  0  0  0  0  0
  149.1682  136.6363  156.5147 H   0  0  0  0  0  0  0  0  0  0  0  0
  148.2392  138.2609  154.0727 H   0  0  0  0  0  0  0  0  0  0  0  0
  147.8445  138.5816  155.7495 H   0  0  0  0  0  0  0  0  0  0  0  0
  150.5033  138.5998  153.3300 H   0  0  0  0  0  0  0  0  0  0  0  0
  151.6877  139.1756  154.4871 H   0  0  0  0  0  0  0  0  0  0  0  0
  151.6117  137.0395  155.7359 H   0  0  0  0  0  0  0  0  0  0  0  0
  152.0005  136.7610  154.0527 H   0  0  0  0  0  0  0  0  0  0  0  0
  149.6997  136.2133  153.6747 H   0  0  0  0  0  0  0  0  0  0  0  0
  1  2  1  0  0  0  0
  1 20  1  0  0  0  0
  1 21  1  0  0  0  0
  1 22  1  0  0  0  0
  2  3  1  0  0  0  0
  2 13  1  0  0  0  0
  2 23  1  0  0  0  0
  3  4  1  0  0  0  0
  3 24  1  0  0  0  0
  3 25  1  0  0  0  0
  4  5  1  0  0  0  0
  4 26  1  0  0  0  0
  5  6  2  0  0  0  0
  5  7  1  0  0  0  0
  7  8  1  0  0  0  0
  7 27  1  0  0  0  0
  8 12  2  0  0  0  0
  8  9  1  0  0  0  0
  9 10  2  0  0  0  0
  9 28  1  0  0  0  0
 10 11  1  0  0  0  0
 11 19  1  0  0  0  0
 11 12  1  0  0  0  0
 12 29  1  0  0  0  0
 13 18  1  0  0  0  0
 13 14  1  0  0  0  0
 13 38  1  0  0  0  0
 14 15  1  0  0  0  0
 14 30  1  0  0  0  0
 14 31  1  0  0  0  0
 15 16  1  0  0  0  0
 15 32  1  0  0  0  0
 15 33  1  0  0  0  0
 16 17  1  0  0  0  0
 17 18  1  0  0  0  0
 17 34  1  0  0  0  0
 17 35  1  0  0  0  0
 18 36  1  0  0  0  0
 18 37  1  0  0  0  0
M  CHG  1  13   1
M  END
> <s_m_source_file>
AV-unprocessed.smi

> <i_m_source_file_index>
1712

> <i_lp_mmshare_version>
43012

> <i_f3d_flags>
0

> <s_epik_input>
W0NIMl0xW0NIMl1PW0NIMl1bQ0gyXU4xW0NASF0oW0NIM10pW0NIMl1bTkhdQyg9TylbTkhdYzJbY0hdbltuSF1bY0hdMg==

> <s_epik_cmdline>
J2VwaWtfcHl0aG9uJywgJy1waCcsICc3LjAnLCAnLXRuJywgJzgnLCAnLW1hJywgJzIwMCcsICctbWV0YWxfYmluZGluZycsICctaW1hZScsICc8aW5maWxlLm1hZT4nLCAnLW9tYWUnLCAnPG91dGZpbGUubWFlPic=

> <r_lp_tautomer_probability>
0.5

> <r_epik_Ionization_Penalty>
0.646007

> <r_epik_Ionization_Penalty_Charging>
0.645968

> <r_epik_Ionization_Penalty_Neutral>
3.91929e-05

> <r_epik_State_Penalty>
0.664063

> <r_epik_Charging_Adjusted_Penalty>
1.31003

> <i_epik_Tot_Q>
1

> <i_epik_Tot_abs_Q>
1

> <r_epik_Metal_State_Penalty>
0.664064

> <b_epik_Metal_Only>
0

> <s_lp_Force_Field>
OPLS_2005

> <r_lp_Energy>
23.8856

> <b_lp_Chiralities_Consistent>
1

> <s_lp_Variant>
AV-unprocessed.smi:1712-4

> <Gold.Version>
5.8.1

> <Gold.Id.Protein>
6NUR|6NUR_protein|mol2

> <Gold.PLP.Fitness>
41.4420

> <Gold.PLP.PLP>
-26.3826

> <Gold.PLP.part.hbond>
-3.9916

> <Gold.PLP.part.metal>
0.0000

> <Gold.PLP.part.buried>
-5.3336

> <Gold.PLP.part.nonpolar>
-18.1733

> <Gold.PLP.part.repulsive>
0.4779

> <Gold.PLP.ligand.clash>
0.0000

> <Gold.PLP.ligand.torsion>
0.8295

> <Gold.PLP.Chemscore.Hbond>
4.8307

> <Gold.PLP.Chemscore.CHOScore>
0.7243

> <Gold.PLP.Chemscore.Metal>
0.0000

> <Gold.Chemscore.Hbonds>
donor molecule, donor type, donor heavy atom, donor atom, acceptor molecule, acceptor atom, score
      L1  H     4    26       P1  7948  0.85
      L1  H     7    27       P1  7948  0.84
      L1  H    11    19       P1 10186  1.00
      L1  H    13    38       P1  7948  2.00
      L1  C     9    28       P1 10747  0.56

> <Gold.PLP.Chemscore.Internal.Correction>
0.0534

> <Gold.Rescore>
     Score         DG    S(hbond)    S(metal)    S(lipo)     H(rot)  DE(clash)    DE(int)     intcor
     18.01     -19.02       3.49        0.00      52.92       1.68       0.01       1.00       ----

> <Gold.Chemscore.Fitness>
18.0103

> <Gold.Chemscore.DG>
-19.0203

> <Gold.Chemscore.ZeroCoef>
-5.4800

> <Gold.Chemscore.Hbond>
3.4858

> <Gold.Chemscore.Metal>
0.0000

> <Gold.Chemscore.Lipo>
52.9166

> <Gold.Chemscore.Internal_Hbond>
0.0000

> <Gold.Chemscore.DEClash>
0.0149

> <Gold.Chemscore.DEInternal>
0.9951

> <Gold.Chemscore.Rot>
1.6771

> <Gold.Chemscore.Internal.Correction>
   9.000000E+99

> <Gold.Chemscore.Hbonds>
donor molecule, donor type, donor heavy atom, donor atom, acceptor molecule, acceptor atom, score
      L1  H     4    26       P1  7948  0.14
      L1  H     7    27       P1  7948  0.31
      L1  H    11    19       P1 10186  0.94
      L1  H    13    38       P1  7948  0.35

> <Gold.Chemscore.Hbond.Weighted>
-11.6425

> <Gold.Chemscore.Metal.Weighted>
-0.0000

> <Gold.Chemscore.Lipo.Weighted>
-6.1912

> <Gold.Chemscore.Internal_Hbond.Weighted>
0.0000

> <Gold.Chemscore.DEClash.Weighted>
0.0149

> <Gold.Chemscore.DEInternal.Weighted>
0.9951

> <Gold.Chemscore.Rot.Weighted>
4.2935

> <Gold.Chemscore.Internal.Correction.Weighted>
   9.000000E+99

> <Gold.Protein.RotatedTorsions>
[ 6907 6896 6895 6894 ] final  101.36 input  -60.11 | X-H torsion
[ 7974 7965 7964 7962 ] final  -45.72 input  175.53 | X-H torsion
[ 8008 7997 7996 7995 ] final   91.21 input   59.86 | X-H torsion
[ 10167 10162 10161 10158 ] final  -70.79 input  -65.29 | X-H torsion
[ 10718 10713 10712 10709 ] final -131.46 input   66.30 | X-H torsion
[ 10763 10752 10751 10750 ] final   -1.95 input  -60.55 | X-H torsion
[ 11005 11000 10999 10996 ] final   -4.17 input  -57.11 | X-H torsion

> <Gold.Protein.ActiveResidues>
 VAL166  LYS551  ARG553  GLY616  TRP617  ASP618  TYR619  PRO620  LYS621  CYS622 
 ASP623  PHE694  ASN695  SER759  ASP760  ASP761  ALA762  ILE779  LEU786  VAL792 
 PHE793  MET794  SER795  GLU796  ALA797  LYS798  CYS799  TRP800  GLU811  SER814 

> <Gold.Protein.RotatedAtoms>
  152.5351  134.0138  159.7950 H   0  0  0  0  0  0  0  0  0  0  0  0  # atno 6907 bound_to 6896
  151.0336  133.5761  159.2665 H   0  0  0  0  0  0  0  0  0  0  0  0  # atno 6908 bound_to 6896
  151.2756  135.0705  159.9204 H   0  0  0  0  0  0  0  0  0  0  0  0  # atno 6909 bound_to 6896
  145.9792  140.7302  142.9372 H   0  0  0  0  0  0  0  0  0  0  0  0  # atno 7974 bound_to 7965
  156.0211  140.3340  155.7040 H   0  0  0  0  0  0  0  0  0  0  0  0  # atno 8008 bound_to 7997
  155.6021  140.0656  157.2748 H   0  0  0  0  0  0  0  0  0  0  0  0  # atno 8009 bound_to 7997
  154.4316  140.1808  156.1171 H   0  0  0  0  0  0  0  0  0  0  0  0  # atno 8010 bound_to 7997
  140.5325  143.2320  151.7237 H   0  0  0  0  0  0  0  0  0  0  0  0  # atno 10167 bound_to 10162
  156.2247  130.7000  151.0794 H   0  0  0  0  0  0  0  0  0  0  0  0  # atno 10718 bound_to 10713
  153.3516  135.6986  153.6784 H   0  0  0  0  0  0  0  0  0  0  0  0  # atno 10763 bound_to 10752
  153.5508  135.3554  155.2759 H   0  0  0  0  0  0  0  0  0  0  0  0  # atno 10764 bound_to 10752
  154.8654  135.4226  154.2753 H   0  0  0  0  0  0  0  0  0  0  0  0  # atno 10765 bound_to 10752
  140.6774  133.9184  155.8533 H   0  0  0  0  0  0  0  0  0  0  0  0  # atno 11005 bound_to 11000
  144.6857  140.2879  143.7282 LP  0  0  0  0  0  0  0  0  0  0  0  0  # atno 17320 bound_to 7965
  145.7795  139.1886  143.2166 LP  0  0  0  0  0  0  0  0  0  0  0  0  # atno 17321 bound_to 7965
  139.4959  144.4093  152.0098 LP  0  0  0  0  0  0  0  0  0  0  0  0  # atno 17342 bound_to 10162
  140.3196  144.3443  150.6013 LP  0  0  0  0  0  0  0  0  0  0  0  0  # atno 17343 bound_to 10162
  157.7104  131.0736  150.6519 LP  0  0  0  0  0  0  0  0  0  0  0  0  # atno 17370 bound_to 10713
  156.6583  130.4505  149.5696 LP  0  0  0  0  0  0  0  0  0  0  0  0  # atno 17371 bound_to 10713
  141.0345  134.0709  157.3976 LP  0  0  0  0  0  0  0  0  0  0  0  0  # atno 17394 bound_to 11000
  139.8962  135.0145  156.7042 LP  0  0  0  0  0  0  0  0  0  0  0  0  # atno 17395 bound_to 11000

$$$$
