AV-unprocessed.smi:964|AV-procd|sdf|4278|dock2
  -GOLD-   22720 2183D 1   1.00000     0.00000
 Structure written by MMmdl.
 20 20  0  0  0  0  0  0  0  0  2 V2000
  147.9188  132.9399  152.8945 C   0  0  0  0  0  0  0  0  0  0  0  0
  146.9280  132.7028  151.8056 C   0  0  0  0  0  0  0  0  0  0  0  0
  145.6402  133.0276  151.8529 N   0  0  0  0  0  0  0  0  0  0  0  0
  145.2347  132.5845  150.6249 C   0  0  0  0  0  0  0  0  0  0  0  0
  143.8357  132.7496  150.1313 C   0  0  0  0  0  0  0  0  0  0  0  0
  143.7012  132.3726  148.6496 C   0  0  0  0  0  0  0  0  0  0  0  0
  143.5063  133.5639  147.8065 N   0  3  0  0  0  0  0  0  0  0  0  0
  146.1800  132.0490  149.8540 N   0  0  0  0  0  0  0  0  0  0  0  0
  147.2676  132.1285  150.6499 N   0  0  0  0  0  0  0  0  0  0  0  0
  148.1810  131.7980  150.3720 H   0  0  0  0  0  0  0  0  0  0  0  0
  147.4417  133.4260  153.7461 H   0  0  0  0  0  0  0  0  0  0  0  0
  148.7248  133.5799  152.5351 H   0  0  0  0  0  0  0  0  0  0  0  0
  148.3437  131.9926  153.2272 H   0  0  0  0  0  0  0  0  0  0  0  0
  143.1684  132.1361  150.7389 H   0  0  0  0  0  0  0  0  0  0  0  0
  143.5290  133.7851  150.2843 H   0  0  0  0  0  0  0  0  0  0  0  0
  144.5942  131.8467  148.3101 H   0  0  0  0  0  0  0  0  0  0  0  0
  142.8559  131.6992  148.5050 H   0  0  0  0  0  0  0  0  0  0  0  0
  143.1420  133.2835  146.9070 H   0  0  0  0  0  0  0  0  0  0  0  0
  144.3908  134.0345  147.6784 H   0  0  0  0  0  0  0  0  0  0  0  0
  142.8523  134.1907  148.2533 H   0  0  0  0  0  0  0  0  0  0  0  0
  1  2  1  0  0  0  0
  1 11  1  0  0  0  0
  1 12  1  0  0  0  0
  1 13  1  0  0  0  0
  2  9  1  0  0  0  0
  2  3  2  0  0  0  0
  3  4  1  0  0  0  0
  4  5  1  0  0  0  0
  4  8  2  0  0  0  0
  5  6  1  0  0  0  0
  5 14  1  0  0  0  0
  5 15  1  0  0  0  0
  6  7  1  0  0  0  0
  6 16  1  0  0  0  0
  6 17  1  0  0  0  0
  7 18  1  0  0  0  0
  7 19  1  0  0  0  0
  7 20  1  0  0  0  0
  8  9  1  0  0  0  0
  9 10  1  0  0  0  0
M  CHG  1   7   1
M  END
> <s_m_source_file>
AV-unprocessed.smi

> <i_m_source_file_index>
964

> <i_lp_mmshare_version>
43012

> <i_f3d_flags>
0

> <s_epik_input>
W0NIM11jMW5jKG5bbkhdMSlbQ0gyXVtDSDJdW05IMl0=

> <s_epik_cmdline>
J2VwaWtfcHl0aG9uJywgJy1waCcsICc3LjAnLCAnLXRuJywgJzgnLCAnLW1hJywgJzIwMCcsICctbWV0YWxfYmluZGluZycsICctaW1hZScsICc8aW5maWxlLm1hZT4nLCAnLW9tYWUnLCAnPG91dGZpbGUubWFlPic=

> <r_epik_Ionization_Penalty>
0.0060057

> <r_epik_Ionization_Penalty_Charging>
0.00364136

> <r_epik_Ionization_Penalty_Neutral>
0.00236434

> <r_epik_State_Penalty>
0.456751

> <r_epik_Charging_Adjusted_Penalty>
0.460392

> <i_epik_Tot_Q>
1

> <i_epik_Tot_abs_Q>
1

> <r_epik_Metal_State_Penalty>
0.65723

> <b_epik_Metal_Only>
0

> <s_lp_Force_Field>
OPLS_2005

> <r_lp_Energy>
-1.07655

> <b_lp_Chiralities_Consistent>
1

> <s_lp_Variant>
AV-unprocessed.smi:964-2

> <Gold.Version>
5.8.1

> <Gold.Id.Protein>
6NUR|6NUR_protein|mol2

> <Gold.PLP.Fitness>
33.2994

> <Gold.PLP.PLP>
-20.1176

> <Gold.PLP.part.hbond>
-3.5413

> <Gold.PLP.part.metal>
0.0000

> <Gold.PLP.part.buried>
-4.7834

> <Gold.PLP.part.nonpolar>
-13.6563

> <Gold.PLP.part.repulsive>
0.5793

> <Gold.PLP.ligand.clash>
0.0000

> <Gold.PLP.ligand.torsion>
0.3961

> <Gold.PLP.Chemscore.Hbond>
4.6560

> <Gold.PLP.Chemscore.CHOScore>
0.0000

> <Gold.PLP.Chemscore.Metal>
0.0000

> <Gold.Chemscore.Hbonds>
donor molecule, donor type, donor heavy atom, donor atom, acceptor molecule, acceptor atom, score
      L1  H     7    18       P1 10195  1.00
      L1  H     7    19       P1  7921  1.00
      L1  H     7    20       P1 10186  0.90
      L1  H     9    10       P1 10747  0.24

> <Gold.PLP.Chemscore.Internal.Correction>
0.0059

> <Gold.Rescore>
     Score         DG    S(hbond)    S(metal)    S(lipo)     H(rot)  DE(clash)    DE(int)     intcor
     15.93     -16.33       3.37        0.00      29.63       1.51       0.08       0.32       ----

> <Gold.Chemscore.Fitness>
15.9251

> <Gold.Chemscore.DG>
-16.3271

> <Gold.Chemscore.ZeroCoef>
-5.4800

> <Gold.Chemscore.Hbond>
3.3656

> <Gold.Chemscore.Metal>
0.0000

> <Gold.Chemscore.Lipo>
29.6340

> <Gold.Chemscore.Internal_Hbond>
0.0000

> <Gold.Chemscore.DEClash>
0.0796

> <Gold.Chemscore.DEInternal>
0.3224

> <Gold.Chemscore.Rot>
1.5082

> <Gold.Chemscore.Internal.Correction>
   9.000000E+99

> <Gold.Chemscore.Hbonds>
donor molecule, donor type, donor heavy atom, donor atom, acceptor molecule, acceptor atom, score
      L1  H     7    18       P1 10195  0.97
      L1  H     7    19       P1  7921  1.00
      L1  H     7    20       P1 10186  0.44
      L1  H     9    10       P1 10747  0.24

> <Gold.Chemscore.Hbond.Weighted>
-11.2411

> <Gold.Chemscore.Metal.Weighted>
-0.0000

> <Gold.Chemscore.Lipo.Weighted>
-3.4672

> <Gold.Chemscore.Internal_Hbond.Weighted>
0.0000

> <Gold.Chemscore.DEClash.Weighted>
0.0796

> <Gold.Chemscore.DEInternal.Weighted>
0.3224

> <Gold.Chemscore.Rot.Weighted>
3.8611

> <Gold.Chemscore.Internal.Correction.Weighted>
   9.000000E+99

> <Gold.Protein.RotatedTorsions>
[ 6907 6896 6895 6894 ] final  -21.38 input  -60.11 | X-H torsion
[ 7974 7965 7964 7962 ] final  -75.59 input  175.53 | X-H torsion
[ 8008 7997 7996 7995 ] final  111.56 input   59.86 | X-H torsion
[ 10167 10162 10161 10158 ] final   82.43 input  -65.29 | X-H torsion
[ 10718 10713 10712 10709 ] final  -14.22 input   66.30 | X-H torsion
[ 10763 10752 10751 10750 ] final  -92.58 input  -60.55 | X-H torsion
[ 11005 11000 10999 10996 ] final   -5.13 input  -57.11 | X-H torsion

> <Gold.Protein.ActiveResidues>
 VAL166  LYS551  ARG553  GLY616  TRP617  ASP618  TYR619  PRO620  LYS621  CYS622 
 ASP623  PHE694  ASN695  SER759  ASP760  ASP761  ALA762  ILE779  LEU786  VAL792 
 PHE793  MET794  SER795  GLU796  ALA797  LYS798  CYS799  TRP800  GLU811  SER814 

> <Gold.Protein.RotatedAtoms>
  151.2341  135.0565  159.8999 H   0  0  0  0  0  0  0  0  0  0  0  0  # atno 6907 bound_to 6896
  152.5401  134.0505  159.8118 H   0  0  0  0  0  0  0  0  0  0  0  0  # atno 6908 bound_to 6896
  151.0689  133.5434  159.2660 H   0  0  0  0  0  0  0  0  0  0  0  0  # atno 6909 bound_to 6896
  145.6240  140.9355  143.1122 H   0  0  0  0  0  0  0  0  0  0  0  0  # atno 7974 bound_to 7965
  156.2132  140.3017  155.9780 H   0  0  0  0  0  0  0  0  0  0  0  0  # atno 8008 bound_to 7997
  155.2671  140.0432  157.3020 H   0  0  0  0  0  0  0  0  0  0  0  0  # atno 8009 bound_to 7997
  154.5730  140.2353  155.8172 H   0  0  0  0  0  0  0  0  0  0  0  0  # atno 8010 bound_to 7997
  139.9289  144.6165  150.8364 H   0  0  0  0  0  0  0  0  0  0  0  0  # atno 10167 bound_to 10162
  156.6190  130.4870  149.6172 H   0  0  0  0  0  0  0  0  0  0  0  0  # atno 10718 bound_to 10713
  154.6875  135.5226  153.8346 H   0  0  0  0  0  0  0  0  0  0  0  0  # atno 10763 bound_to 10752
  153.0608  135.6567  154.0477 H   0  0  0  0  0  0  0  0  0  0  0  0  # atno 10764 bound_to 10752
  154.0356  135.2981  155.3342 H   0  0  0  0  0  0  0  0  0  0  0  0  # atno 10765 bound_to 10752
  140.6878  133.9098  155.8597 H   0  0  0  0  0  0  0  0  0  0  0  0  # atno 11005 bound_to 11000
  144.7220  139.8000  143.7378 LP  0  0  0  0  0  0  0  0  0  0  0  0  # atno 17320 bound_to 7965
  146.1409  139.4465  143.0110 LP  0  0  0  0  0  0  0  0  0  0  0  0  # atno 17321 bound_to 7965
  140.7642  143.3244  151.2549 LP  0  0  0  0  0  0  0  0  0  0  0  0  # atno 17342 bound_to 10162
  139.6799  143.9873  152.2802 LP  0  0  0  0  0  0  0  0  0  0  0  0  # atno 17343 bound_to 10162
  156.2327  130.6804  151.1479 LP  0  0  0  0  0  0  0  0  0  0  0  0  # atno 17370 bound_to 10713
  157.7233  131.0667  150.6043 LP  0  0  0  0  0  0  0  0  0  0  0  0  # atno 17371 bound_to 10713
  141.0266  134.0815  157.4061 LP  0  0  0  0  0  0  0  0  0  0  0  0  # atno 17394 bound_to 11000
  139.8932  135.0129  156.6888 LP  0  0  0  0  0  0  0  0  0  0  0  0  # atno 17395 bound_to 11000

$$$$
