AV-unprocessed.smi:2079|AV-procd|sdf|8481|dock4
  -GOLD-   2272011183D 1   1.00000     0.00000
 Structure written by MMmdl.
 41 42  0  0  0  0  0  0  0  0  3 V2000
  150.8410  141.1576  156.0329 C   0  0  0  0  0  0  0  0  0  0  0  0
  151.3274  139.7982  155.6629 C   0  0  0  0  0  0  0  0  0  0  0  0
  150.6893  138.6676  155.2379 C   0  0  0  0  0  0  0  0  0  0  0  0
  151.7529  137.7403  155.0650 C   0  0  0  0  0  0  0  0  0  0  0  0
  151.6307  136.4648  154.6669 N   0  5  0  0  0  0  0  0  0  0  0  0
  150.6788  135.6712  155.2075 C   0  0  0  0  0  0  0  0  0  0  0  0
  150.4878  135.4690  156.4090 O   0  0  0  0  0  0  0  0  0  0  0  0
  149.9009  135.0685  154.2971 N   0  0  0  0  0  0  0  0  0  0  0  0
  148.8026  134.1552  154.5869 C   0  0  0  0  0  0  0  0  0  0  0  0
  147.4382  134.8508  154.4196 C   0  0  0  0  0  0  0  0  0  0  0  0
  146.9158  134.7954  153.0278 N   0  3  2  0  0  0  0  0  0  0  0  0
  145.6283  135.5281  152.8871 C   0  0  0  0  0  0  0  0  0  0  0  0
  145.2130  135.6553  151.4126 C   0  0  0  0  0  0  0  0  0  0  0  0
  145.1362  134.2807  150.7396 C   0  0  0  0  0  0  0  0  0  0  0  0
  146.4686  133.5395  150.9154 C   0  0  0  0  0  0  0  0  0  0  0  0
  146.8888  133.4373  152.3973 C   0  0  2  0  0  0  0  0  0  0  0  0
  146.0380  132.4100  153.1746 C   0  0  0  0  0  0  0  0  0  0  0  0
  152.9302  138.2579  155.3722 N   0  0  0  0  0  0  0  0  0  0  0  0
  152.6667  139.5794  155.7515 O   0  0  0  0  0  0  0  0  0  0  0  0
  150.4281  141.1569  157.0416 H   0  0  0  0  0  0  0  0  0  0  0  0
  150.0611  141.4884  155.3471 H   0  0  0  0  0  0  0  0  0  0  0  0
  151.6510  141.8865  155.9991 H   0  0  0  0  0  0  0  0  0  0  0  0
  149.6318  138.5258  155.0743 H   0  0  0  0  0  0  0  0  0  0  0  0
  150.0892  135.2659  153.3248 H   0  0  0  0  0  0  0  0  0  0  0  0
  148.8690  133.2721  153.9493 H   0  0  0  0  0  0  0  0  0  0  0  0
  148.9429  133.8153  155.6120 H   0  0  0  0  0  0  0  0  0  0  0  0
  146.7087  134.4412  155.1185 H   0  0  0  0  0  0  0  0  0  0  0  0
  147.5538  135.9005  154.6929 H   0  0  0  0  0  0  0  0  0  0  0  0
  144.8479  135.0286  153.4620 H   0  0  0  0  0  0  0  0  0  0  0  0
  145.7292  136.5286  153.3092 H   0  0  0  0  0  0  0  0  0  0  0  0
  144.2494  136.1605  151.3386 H   0  0  0  0  0  0  0  0  0  0  0  0
  145.9320  136.2820  150.8832 H   0  0  0  0  0  0  0  0  0  0  0  0
  144.3211  133.6989  151.1713 H   0  0  0  0  0  0  0  0  0  0  0  0
  144.9072  134.3947  149.6797 H   0  0  0  0  0  0  0  0  0  0  0  0
  146.4057  132.5464  150.4695 H   0  0  0  0  0  0  0  0  0  0  0  0
  147.2436  134.0694  150.3598 H   0  0  0  0  0  0  0  0  0  0  0  0
  147.9095  133.0567  152.3842 H   0  0  0  0  0  0  0  0  0  0  0  0
  146.0362  131.4474  152.6625 H   0  0  0  0  0  0  0  0  0  0  0  0
  144.9994  132.7232  153.2771 H   0  0  0  0  0  0  0  0  0  0  0  0
  146.4327  132.2305  154.1743 H   0  0  0  0  0  0  0  0  0  0  0  0
  147.5782  135.3274  152.4816 H   0  0  0  0  0  0  0  0  0  0  0  0
  1  2  1  0  0  0  0
  1 20  1  0  0  0  0
  1 21  1  0  0  0  0
  1 22  1  0  0  0  0
  2 19  1  0  0  0  0
  2  3  2  0  0  0  0
  3  4  1  0  0  0  0
  3 23  1  0  0  0  0
  4  5  1  0  0  0  0
  4 18  2  0  0  0  0
  5  6  1  0  0  0  0
  6  7  2  0  0  0  0
  6  8  1  0  0  0  0
  8  9  1  0  0  0  0
  8 24  1  0  0  0  0
  9 10  1  0  0  0  0
  9 25  1  0  0  0  0
  9 26  1  0  0  0  0
 10 11  1  0  0  0  0
 10 27  1  0  0  0  0
 10 28  1  0  0  0  0
 11 16  1  0  0  0  0
 11 12  1  0  0  0  0
 11 41  1  0  0  0  0
 12 13  1  0  0  0  0
 12 29  1  0  0  0  0
 12 30  1  0  0  0  0
 13 14  1  0  0  0  0
 13 31  1  0  0  0  0
 13 32  1  0  0  0  0
 14 15  1  0  0  0  0
 14 33  1  0  0  0  0
 14 34  1  0  0  0  0
 15 16  1  0  0  0  0
 15 35  1  0  0  0  0
 15 36  1  0  0  0  0
 16 17  1  0  0  0  0
 16 37  1  0  0  0  0
 17 38  1  0  0  0  0
 17 39  1  0  0  0  0
 17 40  1  0  0  0  0
 18 19  1  0  0  0  0
M  CHG  1   5  -1
M  CHG  1  11   1
M  END
> <s_m_source_file>
AV-unprocessed.smi

> <i_m_source_file_index>
2079

> <i_lp_mmshare_version>
43012

> <i_f3d_flags>
0

> <s_epik_input>
W0NIM11jMVtjSF1jKG5vMSlbTkhdQyg9TylbTkhdW0NIMl1bQ0gyXU4yW0NIMl1bQ0gyXVtDSDJdW0NIMl1bQ0BIXTJbQ0gzXQ==

> <s_epik_cmdline>
J2VwaWtfcHl0aG9uJywgJy1waCcsICc3LjAnLCAnLXRuJywgJzgnLCAnLW1hJywgJzIwMCcsICctbWV0YWxfYmluZGluZycsICctaW1hZScsICc8aW5maWxlLm1hZT4nLCAnLW9tYWUnLCAnPG91dGZpbGUubWFlPic=

> <r_epik_Ionization_Penalty>
6.22371

> <r_epik_Ionization_Penalty_Charging>
6.22362

> <r_epik_Ionization_Penalty_Neutral>
9.40454e-05

> <r_epik_State_Penalty>
6.22363

> <r_epik_Charging_Adjusted_Penalty>
12.4472

> <i_epik_Tot_Q>
0

> <i_epik_Tot_abs_Q>
2

> <r_epik_Metal_State_Penalty>
2.16675

> <b_epik_Metal_Only>
1

> <s_lp_Force_Field>
OPLS_2005

> <r_lp_Energy>
7.26358

> <b_lp_Chiralities_Consistent>
1

> <s_lp_Variant>
AV-unprocessed.smi:2079-7

> <Gold.Version>
5.8.1

> <Gold.Id.Protein>
6NUR|6NUR_protein|mol2

> <Gold.PLP.Fitness>
44.8718

> <Gold.PLP.PLP>
-31.9971

> <Gold.PLP.part.hbond>
-4.3257

> <Gold.PLP.part.metal>
0.0000

> <Gold.PLP.part.buried>
-4.1999

> <Gold.PLP.part.nonpolar>
-22.8562

> <Gold.PLP.part.repulsive>
0.2148

> <Gold.PLP.ligand.clash>
0.0000

> <Gold.PLP.ligand.torsion>
1.1593

> <Gold.PLP.Chemscore.Hbond>
5.0312

> <Gold.PLP.Chemscore.CHOScore>
0.0000

> <Gold.PLP.Chemscore.Metal>
0.0000

> <Gold.Chemscore.Hbonds>
donor molecule, donor type, donor heavy atom, donor atom, acceptor molecule, acceptor atom, score
      L1  H    11    41       P1  7948  2.00
      P1  H  7997  8008       L1    19  1.00
      P1  H 10752 10764       L1     5  2.00

> <Gold.PLP.Chemscore.Internal.Correction>
0.0996

> <Gold.Rescore>
     Score         DG    S(hbond)    S(metal)    S(lipo)     H(rot)  DE(clash)    DE(int)     intcor
     15.94     -17.18       2.70        0.00      56.77       1.54       0.00       1.23       ----

> <Gold.Chemscore.Fitness>
15.9419

> <Gold.Chemscore.DG>
-17.1788

> <Gold.Chemscore.ZeroCoef>
-5.4800

> <Gold.Chemscore.Hbond>
2.6951

> <Gold.Chemscore.Metal>
0.0000

> <Gold.Chemscore.Lipo>
56.7670

> <Gold.Chemscore.Internal_Hbond>
0.0000

> <Gold.Chemscore.DEClash>
0.0048

> <Gold.Chemscore.DEInternal>
1.2321

> <Gold.Chemscore.Rot>
1.5409

> <Gold.Chemscore.Internal.Correction>
   9.000000E+99

> <Gold.Chemscore.Hbonds>
donor molecule, donor type, donor heavy atom, donor atom, acceptor molecule, acceptor atom, score
      L1  H    11    41       P1  7948  1.00
      P1  H  7997  8008       L1    19  0.30
      P1  H 10752 10764       L1     5  0.74

> <Gold.Chemscore.Hbond.Weighted>
-9.0017

> <Gold.Chemscore.Metal.Weighted>
-0.0000

> <Gold.Chemscore.Lipo.Weighted>
-6.6417

> <Gold.Chemscore.Internal_Hbond.Weighted>
0.0000

> <Gold.Chemscore.DEClash.Weighted>
0.0048

> <Gold.Chemscore.DEInternal.Weighted>
1.2321

> <Gold.Chemscore.Rot.Weighted>
3.9446

> <Gold.Chemscore.Internal.Correction.Weighted>
   9.000000E+99

> <Gold.Protein.RotatedTorsions>
[ 6907 6896 6895 6894 ] final  142.90 input  -60.11 | X-H torsion
[ 7974 7965 7964 7962 ] final -123.72 input  175.53 | X-H torsion
[ 8008 7997 7996 7995 ] final  -42.80 input   59.86 | X-H torsion
[ 10167 10162 10161 10158 ] final -118.36 input  -65.29 | X-H torsion
[ 10718 10713 10712 10709 ] final   43.98 input   66.30 | X-H torsion
[ 10763 10752 10751 10750 ] final  -73.59 input  -60.55 | X-H torsion
[ 11005 11000 10999 10996 ] final  127.54 input  -57.11 | X-H torsion

> <Gold.Protein.ActiveResidues>
 VAL166  LYS551  ARG553  GLY616  TRP617  ASP618  TYR619  PRO620  LYS621  CYS622 
 ASP623  PHE694  ASN695  SER759  ASP760  ASP761  ALA762  ILE779  LEU786  VAL792 
 PHE793  MET794  SER795  GLU796  ALA797  LYS798  CYS799  TRP800  GLU811  SER814 

> <Gold.Protein.RotatedAtoms>
  152.2130  133.4926  159.5120 H   0  0  0  0  0  0  0  0  0  0  0  0  # atno 6907 bound_to 6896
  150.6994  134.1442  159.4125 H   0  0  0  0  0  0  0  0  0  0  0  0  # atno 6908 bound_to 6896
  151.9361  135.0234  160.0583 H   0  0  0  0  0  0  0  0  0  0  0  0  # atno 6909 bound_to 6896
  145.0157  140.7944  143.4411 H   0  0  0  0  0  0  0  0  0  0  0  0  # atno 7974 bound_to 7965
  154.3998  140.1464  156.3414 H   0  0  0  0  0  0  0  0  0  0  0  0  # atno 8008 bound_to 7997
  155.8352  140.3464  155.5576 H   0  0  0  0  0  0  0  0  0  0  0  0  # atno 8009 bound_to 7997
  155.8145  140.0889  157.1875 H   0  0  0  0  0  0  0  0  0  0  0  0  # atno 8010 bound_to 7997
  140.0583  143.4992  152.2045 H   0  0  0  0  0  0  0  0  0  0  0  0  # atno 10167 bound_to 10162
  157.4219  130.7974  149.7523 H   0  0  0  0  0  0  0  0  0  0  0  0  # atno 10718 bound_to 10713
  154.4616  135.5892  153.6259 H   0  0  0  0  0  0  0  0  0  0  0  0  # atno 10763 bound_to 10752
  152.9824  135.6045  154.3479 H   0  0  0  0  0  0  0  0  0  0  0  0  # atno 10764 bound_to 10752
  154.3351  135.2842  155.2430 H   0  0  0  0  0  0  0  0  0  0  0  0  # atno 10765 bound_to 10752
  139.9513  134.9621  156.8870 H   0  0  0  0  0  0  0  0  0  0  0  0  # atno 11005 bound_to 11000
  145.1963  139.2275  143.5216 LP  0  0  0  0  0  0  0  0  0  0  0  0  # atno 17320 bound_to 7965
  146.3477  140.1770  142.8589 LP  0  0  0  0  0  0  0  0  0  0  0  0  # atno 17321 bound_to 7965
  139.5909  144.7550  151.3402 LP  0  0  0  0  0  0  0  0  0  0  0  0  # atno 17342 bound_to 10162
  140.7184  143.7203  150.7700 LP  0  0  0  0  0  0  0  0  0  0  0  0  # atno 17343 bound_to 10162
  155.9883  130.3960  150.3123 LP  0  0  0  0  0  0  0  0  0  0  0  0  # atno 17370 bound_to 10713
  157.1272  131.0262  151.2984 LP  0  0  0  0  0  0  0  0  0  0  0  0  # atno 17371 bound_to 10713
  140.5713  134.0441  155.7431 LP  0  0  0  0  0  0  0  0  0  0  0  0  # atno 17394 bound_to 11000
  141.1176  133.9514  157.2792 LP  0  0  0  0  0  0  0  0  0  0  0  0  # atno 17395 bound_to 11000

$$$$
