AV-unprocessed.smi:1403|AV-procd|sdf|5700|dock6
  -GOLD-   22720 5333D 1   1.00000     0.00000
 Structure written by MMmdl.
 36 37  0  0  0  0  0  0  0  0  1 V2000
  151.0985  140.1012  158.4553 C   0  0  0  0  0  0  0  0  0  0  0  0
  151.3818  141.4978  157.8814 C   0  0  1  0  0  0  0  0  0  0  0  0
  150.4023  141.7771  156.8343 N   0  0  0  0  0  0  0  0  0  0  0  0
  150.3740  141.2138  155.6167 C   0  0  0  0  0  0  0  0  0  0  0  0
  151.1696  140.3462  155.2535 O   0  0  0  0  0  0  0  0  0  0  0  0
  149.2633  141.7023  154.6759 C   0  0  0  0  0  0  0  0  0  0  0  0
  148.2844  140.6545  154.3503 N   0  0  0  0  0  0  0  0  0  0  0  0
  148.6382  139.3152  154.4322 C   0  0  0  0  0  0  0  0  0  0  0  0
  147.7923  138.3009  154.1335 C   0  0  0  0  0  0  0  0  0  0  0  0
  146.4282  138.5805  153.6980 C   0  0  0  0  0  0  0  0  0  0  0  0
  145.5888  137.7316  153.4066 O   0  0  0  0  0  0  0  0  0  0  0  0
  146.1108  139.9396  153.6262 N   0  0  0  0  0  0  0  0  0  0  0  0
  146.9780  140.9898  153.9314 C   0  0  0  0  0  0  0  0  0  0  0  0
  146.5971  142.1555  153.8306 O   0  0  0  0  0  0  0  0  0  0  0  0
  151.3183  142.6004  158.9586 C   0  0  1  0  0  0  0  0  0  0  0  0
  152.3349  142.4511  160.0922 C   0  0  0  0  0  0  0  0  0  0  0  0
  152.5352  143.8744  160.5911 C   0  0  0  0  0  0  0  0  0  0  0  0
  151.9064  144.7454  159.5010 C   0  0  0  0  0  0  0  0  0  0  0  0
  151.6764  143.8617  158.4143 O   0  0  0  0  0  0  0  0  0  0  0  0
  145.1778  140.1821  153.3260 H   0  0  0  0  0  0  0  0  0  0  0  0
  151.8364  139.8235  159.2082 H   0  0  0  0  0  0  0  0  0  0  0  0
  151.1341  139.3427  157.6729 H   0  0  0  0  0  0  0  0  0  0  0  0
  150.1134  140.0547  158.9206 H   0  0  0  0  0  0  0  0  0  0  0  0
  152.3857  141.4809  157.4530 H   0  0  0  0  0  0  0  0  0  0  0  0
  149.7050  142.4761  157.0440 H   0  0  0  0  0  0  0  0  0  0  0  0
  148.7684  142.5519  155.1487 H   0  0  0  0  0  0  0  0  0  0  0  0
  149.7032  142.0991  153.7585 H   0  0  0  0  0  0  0  0  0  0  0  0
  149.6403  139.0608  154.7463 H   0  0  0  0  0  0  0  0  0  0  0  0
  148.1274  137.2770  154.2160 H   0  0  0  0  0  0  0  0  0  0  0  0
  150.3104  142.6705  159.3729 H   0  0  0  0  0  0  0  0  0  0  0  0
  151.9924  141.7745  160.8757 H   0  0  0  0  0  0  0  0  0  0  0  0
  153.2793  142.0659  159.7050 H   0  0  0  0  0  0  0  0  0  0  0  0
  152.0406  144.0386  161.5489 H   0  0  0  0  0  0  0  0  0  0  0  0
  153.5958  144.0940  160.7179 H   0  0  0  0  0  0  0  0  0  0  0  0
  150.9526  145.1540  159.8377 H   0  0  0  0  0  0  0  0  0  0  0  0
  152.5476  145.5757  159.2045 H   0  0  0  0  0  0  0  0  0  0  0  0
  1  2  1  0  0  0  0
  1 21  1  0  0  0  0
  1 22  1  0  0  0  0
  1 23  1  0  0  0  0
  2  3  1  0  0  0  0
  2 15  1  0  0  0  0
  2 24  1  0  0  0  0
  3  4  1  0  0  0  0
  3 25  1  0  0  0  0
  4  5  2  0  0  0  0
  4  6  1  0  0  0  0
  6  7  1  0  0  0  0
  6 26  1  0  0  0  0
  6 27  1  0  0  0  0
  7 13  1  0  0  0  0
  7  8  1  0  0  0  0
  8  9  2  0  0  0  0
  8 28  1  0  0  0  0
  9 10  1  0  0  0  0
  9 29  1  0  0  0  0
 10 11  2  0  0  0  0
 10 12  1  0  0  0  0
 12 20  1  0  0  0  0
 12 13  1  0  0  0  0
 13 14  2  0  0  0  0
 15 19  1  0  0  0  0
 15 16  1  0  0  0  0
 15 30  1  0  0  0  0
 16 17  1  0  0  0  0
 16 31  1  0  0  0  0
 16 32  1  0  0  0  0
 17 18  1  0  0  0  0
 17 33  1  0  0  0  0
 17 34  1  0  0  0  0
 18 19  1  0  0  0  0
 18 35  1  0  0  0  0
 18 36  1  0  0  0  0
M  END
> <s_m_source_file>
AV-unprocessed.smi

> <i_m_source_file_index>
1403

> <i_lp_mmshare_version>
43012

> <i_f3d_flags>
0

> <s_epik_input>
TzFbQ0gyXVtDSDJdW0NIMl1bQ0BIXTFbQ0BIXShbQ0gzXSlbTkhdQyg9TylbQ0gyXW4yW2NIXVtjSF1jKD1PKVtuSF1jMj1P

> <s_epik_cmdline>
J2VwaWtfcHl0aG9uJywgJy1waCcsICc3LjAnLCAnLXRuJywgJzgnLCAnLW1hJywgJzIwMCcsICctbWV0YWxfYmluZGluZycsICctaW1hZScsICc8aW5maWxlLm1hZT4nLCAnLW9tYWUnLCAnPG91dGZpbGUubWFlPic=

> <r_lp_tautomer_probability>
0.999537

> <r_epik_Ionization_Penalty>
0.00331407

> <r_epik_Ionization_Penalty_Charging>
0.00331405

> <r_epik_Ionization_Penalty_Neutral>
2.30132e-08

> <r_epik_State_Penalty>
0.00234266

> <r_epik_Charging_Adjusted_Penalty>
0.00565671

> <i_epik_Tot_Q>
0

> <i_epik_Tot_abs_Q>
0

> <r_epik_Metal_State_Penalty>
0.365604

> <b_epik_Metal_Only>
0

> <s_lp_Force_Field>
OPLS_2005

> <r_lp_Energy>
17.8488

> <b_lp_Chiralities_Consistent>
1

> <s_lp_Variant>
AV-unprocessed.smi:1403-4

> <Gold.Version>
5.8.1

> <Gold.Id.Protein>
6NUR|6NUR_protein|mol2

> <Gold.PLP.Fitness>
39.0736

> <Gold.PLP.PLP>
-34.1277

> <Gold.PLP.part.hbond>
-2.0000

> <Gold.PLP.part.metal>
0.0000

> <Gold.PLP.part.buried>
-4.3940

> <Gold.PLP.part.nonpolar>
-27.6856

> <Gold.PLP.part.repulsive>
0.5283

> <Gold.PLP.ligand.clash>
0.0000

> <Gold.PLP.ligand.torsion>
0.5394

> <Gold.PLP.Chemscore.Hbond>
2.0000

> <Gold.PLP.Chemscore.CHOScore>
0.0000

> <Gold.PLP.Chemscore.Metal>
0.0000

> <Gold.Chemscore.Hbonds>
donor molecule, donor type, donor heavy atom, donor atom, acceptor molecule, acceptor atom, score
      L1  H    12    20       P1 10175  1.00
      P1  H  7989  7998       L1     5  1.00

> <Gold.PLP.Chemscore.Internal.Correction>
0.0247

> <Gold.Rescore>
     Score         DG    S(hbond)    S(metal)    S(lipo)     H(rot)  DE(clash)    DE(int)     intcor
     13.16     -15.00       1.84        0.00      73.31       2.04       0.04       1.80       ----

> <Gold.Chemscore.Fitness>
13.1557

> <Gold.Chemscore.DG>
-14.9986

> <Gold.Chemscore.ZeroCoef>
-5.4800

> <Gold.Chemscore.Hbond>
1.8449

> <Gold.Chemscore.Metal>
0.0000

> <Gold.Chemscore.Lipo>
73.3139

> <Gold.Chemscore.Internal_Hbond>
0.0000

> <Gold.Chemscore.DEClash>
0.0421

> <Gold.Chemscore.DEInternal>
1.8008

> <Gold.Chemscore.Rot>
2.0395

> <Gold.Chemscore.Internal.Correction>
   9.000000E+99

> <Gold.Chemscore.Hbonds>
donor molecule, donor type, donor heavy atom, donor atom, acceptor molecule, acceptor atom, score
      L1  H    12    20       P1 10175  1.00
      P1  H  7989  7998       L1     5  0.43

> <Gold.Chemscore.Hbond.Weighted>
-6.1620

> <Gold.Chemscore.Metal.Weighted>
-0.0000

> <Gold.Chemscore.Lipo.Weighted>
-8.5777

> <Gold.Chemscore.Internal_Hbond.Weighted>
0.0000

> <Gold.Chemscore.DEClash.Weighted>
0.0421

> <Gold.Chemscore.DEInternal.Weighted>
1.8008

> <Gold.Chemscore.Rot.Weighted>
5.2211

> <Gold.Chemscore.Internal.Correction.Weighted>
   9.000000E+99

> <Gold.Protein.RotatedTorsions>
[ 6907 6896 6895 6894 ] final   13.83 input  -60.11 | X-H torsion
[ 7974 7965 7964 7962 ] final  -62.72 input  175.53 | X-H torsion
[ 8008 7997 7996 7995 ] final  -87.07 input   59.86 | X-H torsion
[ 10167 10162 10161 10158 ] final  -78.89 input  -65.29 | X-H torsion
[ 10718 10713 10712 10709 ] final  108.37 input   66.30 | X-H torsion
[ 10763 10752 10751 10750 ] final    0.49 input  -60.55 | X-H torsion
[ 11005 11000 10999 10996 ] final -143.58 input  -57.11 | X-H torsion

> <Gold.Protein.ActiveResidues>
 VAL166  LYS551  ARG553  GLY616  TRP617  ASP618  TYR619  PRO620  LYS621  CYS622 
 ASP623  PHE694  ASN695  SER759  ASP760  ASP761  ALA762  ILE779  LEU786  VAL792 
 PHE793  MET794  SER795  GLU796  ALA797  LYS798  CYS799  TRP800  GLU811  SER814 

> <Gold.Protein.RotatedAtoms>
  151.7925  135.0731  160.0388 H   0  0  0  0  0  0  0  0  0  0  0  0  # atno 6907 bound_to 6896
  152.3146  133.5784  159.5712 H   0  0  0  0  0  0  0  0  0  0  0  0  # atno 6908 bound_to 6896
  150.7337  134.0017  159.3682 H   0  0  0  0  0  0  0  0  0  0  0  0  # atno 6909 bound_to 6896
  145.7879  140.8726  143.0296 H   0  0  0  0  0  0  0  0  0  0  0  0  # atno 7974 bound_to 7965
  154.6590  140.0570  157.0041 H   0  0  0  0  0  0  0  0  0  0  0  0  # atno 8008 bound_to 7997
  155.1257  140.3251  155.4468 H   0  0  0  0  0  0  0  0  0  0  0  0  # atno 8009 bound_to 7997
  156.2610  140.1990  156.6377 H   0  0  0  0  0  0  0  0  0  0  0  0  # atno 8010 bound_to 7997
  140.4642  143.2445  151.8304 H   0  0  0  0  0  0  0  0  0  0  0  0  # atno 10167 bound_to 10162
  157.6589  131.0892  150.6296 H   0  0  0  0  0  0  0  0  0  0  0  0  # atno 10718 bound_to 10713
  153.3200  135.6968  153.7039 H   0  0  0  0  0  0  0  0  0  0  0  0  # atno 10763 bound_to 10752
  153.5883  135.3484  155.2902 H   0  0  0  0  0  0  0  0  0  0  0  0  # atno 10764 bound_to 10752
  154.8595  135.4311  154.2361 H   0  0  0  0  0  0  0  0  0  0  0  0  # atno 10765 bound_to 10752
  140.8110  134.2744  157.4940 H   0  0  0  0  0  0  0  0  0  0  0  0  # atno 11005 bound_to 11000
  144.6786  140.0082  143.7484 LP  0  0  0  0  0  0  0  0  0  0  0  0  # atno 17320 bound_to 7965
  146.0007  139.3089  143.0929 LP  0  0  0  0  0  0  0  0  0  0  0  0  # atno 17321 bound_to 7965
  139.4810  144.4971  151.9109 LP  0  0  0  0  0  0  0  0  0  0  0  0  # atno 17342 bound_to 10162
  140.4057  144.2435  150.5891 LP  0  0  0  0  0  0  0  0  0  0  0  0  # atno 17343 bound_to 10162
  156.6600  130.4509  149.5691 LP  0  0  0  0  0  0  0  0  0  0  0  0  # atno 17370 bound_to 10713
  156.2074  130.6658  151.1233 LP  0  0  0  0  0  0  0  0  0  0  0  0  # atno 17371 bound_to 10713
  139.8714  134.9483  156.3993 LP  0  0  0  0  0  0  0  0  0  0  0  0  # atno 17394 bound_to 11000
  140.9197  133.7653  155.9892 LP  0  0  0  0  0  0  0  0  0  0  0  0  # atno 17395 bound_to 11000

$$$$
