AV-unprocessed.smi:658|AV-procd|sdf|3233|dock2
  -GOLD-   22720 0173D 1   1.00000     0.00000
 Structure written by MMmdl.
 38 38  0  0  0  0  0  0  0  0  2 V2000
  144.1411  135.9368  152.6073 C   0  0  0  0  0  0  0  0  0  0  0  0
  145.6004  135.7731  152.1513 C   0  0  1  0  0  0  0  0  0  0  0  0
  146.4679  136.6100  153.0125 N   0  3  0  0  0  0  0  0  0  0  0  0
  146.0078  138.0015  153.1887 C   0  0  0  0  0  0  0  0  0  0  0  0
  146.8968  138.7510  154.1876 C   0  0  0  0  0  0  0  0  0  0  0  0
  148.0227  139.5324  153.4966 C   0  0  0  0  0  0  0  0  0  0  0  0
  148.9484  140.5889  154.6917 S   0  0  0  0  0  0  0  0  0  0  0  0
  148.5954  142.1726  154.1226 N   0  0  0  0  0  0  0  0  0  0  0  0
  148.3434  140.4556  156.0256 O   0  0  0  0  0  0  0  0  0  0  0  0
  150.3881  140.3678  154.4911 O   0  0  0  0  0  0  0  0  0  0  0  0
  146.0855  134.3009  152.1777 C   0  0  1  0  0  0  0  0  0  0  0  0
  145.9145  133.6254  153.5515 C   0  0  0  0  0  0  0  0  0  0  0  0
  145.4070  133.5183  151.1498 N   0  0  0  0  0  0  0  0  0  0  0  0
  145.9517  132.6802  150.1964 C   0  0  0  0  0  0  0  0  0  0  0  0
  144.9171  132.1307  149.4955 C   0  0  0  0  0  0  0  0  0  0  0  0
  143.7605  132.6907  150.1051 C   0  0  0  0  0  0  0  0  0  0  0  0
  144.0564  133.5115  151.1000 N   0  0  0  0  0  0  0  0  0  0  0  0
  143.4489  135.4309  151.9349 H   0  0  0  0  0  0  0  0  0  0  0  0
  143.8534  136.9886  152.6253 H   0  0  0  0  0  0  0  0  0  0  0  0
  143.9898  135.5345  153.6097 H   0  0  0  0  0  0  0  0  0  0  0  0
  145.6673  136.1317  151.1224 H   0  0  0  0  0  0  0  0  0  0  0  0
  146.5507  136.1710  153.9183 H   0  0  0  0  0  0  0  0  0  0  0  0
  146.0298  138.5096  152.2234 H   0  0  0  0  0  0  0  0  0  0  0  0
  144.9725  137.9976  153.5320 H   0  0  0  0  0  0  0  0  0  0  0  0
  146.2861  139.4381  154.7746 H   0  0  0  0  0  0  0  0  0  0  0  0
  147.3286  138.0385  154.8917 H   0  0  0  0  0  0  0  0  0  0  0  0
  148.7366  138.8376  153.0532 H   0  0  0  0  0  0  0  0  0  0  0  0
  147.6453  140.1685  152.6955 H   0  0  0  0  0  0  0  0  0  0  0  0
  148.9169  142.9063  154.7539 H   0  0  0  0  0  0  0  0  0  0  0  0
  147.6358  142.2764  153.7927 H   0  0  0  0  0  0  0  0  0  0  0  0
  147.1527  134.2897  151.9468 H   0  0  0  0  0  0  0  0  0  0  0  0
  146.5508  134.0853  154.3072 H   0  0  0  0  0  0  0  0  0  0  0  0
  146.1894  132.5710  153.5050 H   0  0  0  0  0  0  0  0  0  0  0  0
  144.8842  133.6844  153.9034 H   0  0  0  0  0  0  0  0  0  0  0  0
  147.0183  132.5418  150.0983 H   0  0  0  0  0  0  0  0  0  0  0  0
  144.9770  131.4315  148.6745 H   0  0  0  0  0  0  0  0  0  0  0  0
  142.7221  132.5214  149.8604 H   0  0  0  0  0  0  0  0  0  0  0  0
  147.3844  136.6400  152.5872 H   0  0  0  0  0  0  0  0  0  0  0  0
  1  2  1  0  0  0  0
  1 18  1  0  0  0  0
  1 19  1  0  0  0  0
  1 20  1  0  0  0  0
  2  3  1  0  0  0  0
  2 11  1  0  0  0  0
  2 21  1  0  0  0  0
  3  4  1  0  0  0  0
  3 22  1  0  0  0  0
  3 38  1  0  0  0  0
  4  5  1  0  0  0  0
  4 23  1  0  0  0  0
  4 24  1  0  0  0  0
  5  6  1  0  0  0  0
  5 25  1  0  0  0  0
  5 26  1  0  0  0  0
  6  7  1  0  0  0  0
  6 27  1  0  0  0  0
  6 28  1  0  0  0  0
  7  8  1  0  0  0  0
  7  9  2  0  0  0  0
  7 10  2  0  0  0  0
  8 29  1  0  0  0  0
  8 30  1  0  0  0  0
 11 12  1  0  0  0  0
 11 13  1  0  0  0  0
 11 31  1  0  0  0  0
 12 32  1  0  0  0  0
 12 33  1  0  0  0  0
 12 34  1  0  0  0  0
 13 17  1  0  0  0  0
 13 14  1  0  0  0  0
 14 15  2  0  0  0  0
 14 35  1  0  0  0  0
 15 16  1  0  0  0  0
 15 36  1  0  0  0  0
 16 17  2  0  0  0  0
 16 37  1  0  0  0  0
M  CHG  1   3   1
M  END
> <s_m_source_file>
AV-unprocessed.smi

> <i_m_source_file_index>
658

> <i_lp_mmshare_version>
43012

> <i_f3d_flags>
0

> <s_epik_input>
bjFbY0hdW2NIXVtjSF1uMVtDQEBIXShbQ0gzXSlbQ0BIXShbQ0gzXSlbTkhdW0NIMl1bQ0gyXVtDSDJdUyg9TykoPU8pW05IMl0=

> <s_epik_cmdline>
J2VwaWtfcHl0aG9uJywgJy1waCcsICc3LjAnLCAnLXRuJywgJzgnLCAnLW1hJywgJzIwMCcsICctbWV0YWxfYmluZGluZycsICctaW1hZScsICc8aW5maWxlLm1hZT4nLCAnLW9tYWUnLCAnPG91dGZpbGUubWFlPic=

> <r_lp_tautomer_probability>
1

> <r_epik_Ionization_Penalty>
0.00535781

> <r_epik_Ionization_Penalty_Charging>
0.00511015

> <r_epik_Ionization_Penalty_Neutral>
0.000247661

> <r_epik_State_Penalty>
-0

> <r_epik_Charging_Adjusted_Penalty>
0.00511015

> <i_epik_Tot_Q>
1

> <i_epik_Tot_abs_Q>
1

> <r_epik_Metal_State_Penalty>
0.149106

> <b_epik_Metal_Only>
0

> <s_lp_Force_Field>
OPLS_2005

> <r_lp_Energy>
6.97458

> <b_lp_Chiralities_Consistent>
1

> <s_lp_Variant>
AV-unprocessed.smi:658-4

> <Gold.Version>
5.8.1

> <Gold.Id.Protein>
6NUR|6NUR_protein|mol2

> <Gold.PLP.Fitness>
45.1653

> <Gold.PLP.PLP>
-27.9919

> <Gold.PLP.part.hbond>
-4.0000

> <Gold.PLP.part.metal>
0.0000

> <Gold.PLP.part.buried>
-4.5236

> <Gold.PLP.part.nonpolar>
-21.0860

> <Gold.PLP.part.repulsive>
0.3096

> <Gold.PLP.ligand.clash>
0.0000

> <Gold.PLP.ligand.torsion>
0.6590

> <Gold.PLP.Chemscore.Hbond>
4.2548

> <Gold.PLP.Chemscore.CHOScore>
1.8010

> <Gold.PLP.Chemscore.Metal>
0.0000

> <Gold.Chemscore.Hbonds>
donor molecule, donor type, donor heavy atom, donor atom, acceptor molecule, acceptor atom, score
      L1  H     3    38       P1  7948  2.00
      L1  H     8    29       P1  8028  1.00
      P1  H  7989  7998       L1    10  1.00
      P1  H  8011  8017       L1     8  0.22
      L1  C    14    35       P1 10747  0.88
      L1  C    16    37       P1 10186  0.79
      L1  C    16    37       P1 10952  0.09

> <Gold.PLP.Chemscore.Internal.Correction>
0.3241

> <Gold.Rescore>
     Score         DG    S(hbond)    S(metal)    S(lipo)     H(rot)  DE(clash)    DE(int)     intcor
     13.34     -14.12       2.95        0.00      58.07       3.13       0.06       0.72       ----

> <Gold.Chemscore.Fitness>
13.3447

> <Gold.Chemscore.DG>
-14.1226

> <Gold.Chemscore.ZeroCoef>
-5.4800

> <Gold.Chemscore.Hbond>
2.9534

> <Gold.Chemscore.Metal>
0.0000

> <Gold.Chemscore.Lipo>
58.0708

> <Gold.Chemscore.Internal_Hbond>
0.0000

> <Gold.Chemscore.DEClash>
0.0566

> <Gold.Chemscore.DEInternal>
0.7213

> <Gold.Chemscore.Rot>
3.1312

> <Gold.Chemscore.Internal.Correction>
   9.000000E+99

> <Gold.Chemscore.Hbonds>
donor molecule, donor type, donor heavy atom, donor atom, acceptor molecule, acceptor atom, score
      L1  H     3    38       P1  7948  1.00
      L1  H     8    29       P1  8028  0.93
      P1  H  7989  7998       L1    10  0.96
      P1  H  8011  8017       L1     8  0.02

> <Gold.Chemscore.Hbond.Weighted>
-9.8642

> <Gold.Chemscore.Metal.Weighted>
-0.0000

> <Gold.Chemscore.Lipo.Weighted>
-6.7943

> <Gold.Chemscore.Internal_Hbond.Weighted>
0.0000

> <Gold.Chemscore.DEClash.Weighted>
0.0566

> <Gold.Chemscore.DEInternal.Weighted>
0.7213

> <Gold.Chemscore.Rot.Weighted>
8.0160

> <Gold.Chemscore.Internal.Correction.Weighted>
   9.000000E+99

> <Gold.Protein.RotatedTorsions>
[ 6907 6896 6895 6894 ] final -120.81 input  -60.11 | X-H torsion
[ 7974 7965 7964 7962 ] final -131.64 input  175.53 | X-H torsion
[ 8008 7997 7996 7995 ] final  170.48 input   59.86 | X-H torsion
[ 10167 10162 10161 10158 ] final  162.00 input  -65.29 | X-H torsion
[ 10718 10713 10712 10709 ] final   70.10 input   66.30 | X-H torsion
[ 10763 10752 10751 10750 ] final -178.75 input  -60.55 | X-H torsion
[ 11005 11000 10999 10996 ] final  114.67 input  -57.11 | X-H torsion

> <Gold.Protein.ActiveResidues>
 VAL166  LYS551  ARG553  GLY616  TRP617  ASP618  TYR619  PRO620  LYS621  CYS622 
 ASP623  PHE694  ASN695  SER759  ASP760  ASP761  ALA762  ILE779  LEU786  VAL792 
 PHE793  MET794  SER795  GLU796  ALA797  LYS798  CYS799  TRP800  GLU811  SER814 

> <Gold.Protein.RotatedAtoms>
  150.8427  133.7911  159.3054 H   0  0  0  0  0  0  0  0  0  0  0  0  # atno 6907 bound_to 6896
  151.5607  135.1064  159.9981 H   0  0  0  0  0  0  0  0  0  0  0  0  # atno 6908 bound_to 6896
  152.4487  133.7544  159.6768 H   0  0  0  0  0  0  0  0  0  0  0  0  # atno 6909 bound_to 6896
  144.9360  140.7184  143.4876 H   0  0  0  0  0  0  0  0  0  0  0  0  # atno 7974 bound_to 7965
  156.1361  140.1537  156.8992 H   0  0  0  0  0  0  0  0  0  0  0  0  # atno 8008 bound_to 7997
  154.4948  140.0841  156.7712 H   0  0  0  0  0  0  0  0  0  0  0  0  # atno 8009 bound_to 7997
  155.4166  140.3421  155.4270 H   0  0  0  0  0  0  0  0  0  0  0  0  # atno 8010 bound_to 7997
  139.4855  144.4481  151.8865 H   0  0  0  0  0  0  0  0  0  0  0  0  # atno 10167 bound_to 10162
  157.6382  130.9460  150.0604 H   0  0  0  0  0  0  0  0  0  0  0  0  # atno 10718 bound_to 10713
  154.5437  135.2808  155.1072 H   0  0  0  0  0  0  0  0  0  0  0  0  # atno 10763 bound_to 10752
  154.2544  135.6333  153.5255 H   0  0  0  0  0  0  0  0  0  0  0  0  # atno 10764 bound_to 10752
  152.9985  135.5590  154.5984 H   0  0  0  0  0  0  0  0  0  0  0  0  # atno 10765 bound_to 10752
  139.8987  134.9571  156.6928 H   0  0  0  0  0  0  0  0  0  0  0  0  # atno 11005 bound_to 11000
  145.3065  139.1832  143.4661 LP  0  0  0  0  0  0  0  0  0  0  0  0  # atno 17320 bound_to 7965
  146.3267  140.3064  142.8624 LP  0  0  0  0  0  0  0  0  0  0  0  0  # atno 17321 bound_to 7965
  140.3936  144.2583  150.5898 LP  0  0  0  0  0  0  0  0  0  0  0  0  # atno 17342 bound_to 10162
  140.5123  143.2287  151.8517 LP  0  0  0  0  0  0  0  0  0  0  0  0  # atno 17343 bound_to 10162
  156.1638  130.3644  149.9261 LP  0  0  0  0  0  0  0  0  0  0  0  0  # atno 17370 bound_to 10713
  156.7253  130.9022  151.3621 LP  0  0  0  0  0  0  0  0  0  0  0  0  # atno 17371 bound_to 10713
  140.7212  133.9139  155.8148 LP  0  0  0  0  0  0  0  0  0  0  0  0  # atno 17394 bound_to 11000
  141.0226  134.0868  157.4104 LP  0  0  0  0  0  0  0  0  0  0  0  0  # atno 17395 bound_to 11000

$$$$
