AV-unprocessed.smi:3240|AV-procd|sdf|12384|dock5
  -GOLD-   2272018253D 1   1.00000     0.00000
 Structure written by MMmdl.
 43 44  0  0  0  0  0  0  0  0  1 V2000
  150.6666  142.1468  158.8053 C   0  0  0  0  0  0  0  0  0  0  0  0
  150.4747  141.4613  157.4833 C   0  0  0  0  0  0  0  0  0  0  0  0
  151.3781  140.5883  156.8131 C   0  0  0  0  0  0  0  0  0  0  0  0
  150.9077  140.1497  155.6571 N   0  0  0  0  0  0  0  0  0  0  0  0
  149.6939  140.7302  155.5446 N   0  0  0  0  0  0  0  0  0  0  0  0
  148.8718  140.4739  154.3745 C   0  0  0  0  0  0  0  0  0  0  0  0
  148.5936  138.9727  154.1501 C   0  0  1  0  0  0  0  0  0  0  0  0
  147.6845  138.3693  155.2413 C   0  0  0  0  0  0  0  0  0  0  0  0
  148.0325  138.7861  152.8083 N   0  0  0  0  0  0  0  0  0  0  0  0
  146.5860  138.9943  152.6902 C   0  0  0  0  0  0  0  0  0  0  0  0
  145.8327  137.7049  152.2918 C   0  0  0  0  0  0  0  0  0  0  0  0
  144.4509  138.0151  152.3081 O   0  0  0  0  0  0  0  0  0  0  0  0
  146.2403  137.1814  150.8907 C   0  0  0  0  0  0  0  0  0  0  0  0
  145.6004  135.8237  150.5471 C   0  0  0  0  0  0  0  0  0  0  0  0
  145.8958  134.7732  151.6262 C   0  0  0  0  0  0  0  0  0  0  0  0
  145.4361  135.2621  153.0061 C   0  0  0  0  0  0  0  0  0  0  0  0
  146.0789  136.6146  153.3620 C   0  0  0  0  0  0  0  0  0  0  0  0
  149.4054  141.5228  156.6351 C   0  0  0  0  0  0  0  0  0  0  0  0
  151.2522  141.5381  159.4942 H   0  0  0  0  0  0  0  0  0  0  0  0
  149.7153  142.3584  159.2940 H   0  0  0  0  0  0  0  0  0  0  0  0
  151.1886  143.0970  158.6916 H   0  0  0  0  0  0  0  0  0  0  0  0
  152.3569  140.2614  157.1321 H   0  0  0  0  0  0  0  0  0  0  0  0
  147.9332  141.0225  154.4737 H   0  0  0  0  0  0  0  0  0  0  0  0
  149.3855  140.8939  153.5086 H   0  0  0  0  0  0  0  0  0  0  0  0
  149.5532  138.4563  154.1978 H   0  0  0  0  0  0  0  0  0  0  0  0
  148.1002  138.5213  156.2373 H   0  0  0  0  0  0  0  0  0  0  0  0
  147.5627  137.2933  155.1243 H   0  0  0  0  0  0  0  0  0  0  0  0
  146.6934  138.8237  155.2249 H   0  0  0  0  0  0  0  0  0  0  0  0
  148.2687  137.8594  152.4680 H   0  0  0  0  0  0  0  0  0  0  0  0
  146.1979  139.3496  153.6457 H   0  0  0  0  0  0  0  0  0  0  0  0
  146.3677  139.7742  151.9610 H   0  0  0  0  0  0  0  0  0  0  0  0
  144.2005  138.2990  151.4419 H   0  0  0  0  0  0  0  0  0  0  0  0
  145.9767  137.9028  150.1165 H   0  0  0  0  0  0  0  0  0  0  0  0
  147.3254  137.0768  150.8502 H   0  0  0  0  0  0  0  0  0  0  0  0
  144.5217  135.9417  150.4377 H   0  0  0  0  0  0  0  0  0  0  0  0
  145.9691  135.4751  149.5822 H   0  0  0  0  0  0  0  0  0  0  0  0
  145.3978  133.8351  151.3789 H   0  0  0  0  0  0  0  0  0  0  0  0
  146.9654  134.5607  151.6492 H   0  0  0  0  0  0  0  0  0  0  0  0
  144.3493  135.3533  153.0191 H   0  0  0  0  0  0  0  0  0  0  0  0
  145.6904  134.5216  153.7645 H   0  0  0  0  0  0  0  0  0  0  0  0
  147.1528  136.4651  153.4817 H   0  0  0  0  0  0  0  0  0  0  0  0
  145.7130  136.9488  154.3338 H   0  0  0  0  0  0  0  0  0  0  0  0
  148.4730  142.0619  156.7144 H   0  0  0  0  0  0  0  0  0  0  0  0
  1  2  1  0  0  0  0
  1 19  1  0  0  0  0
  1 20  1  0  0  0  0
  1 21  1  0  0  0  0
  2 18  2  0  0  0  0
  2  3  1  0  0  0  0
  3  4  2  0  0  0  0
  3 22  1  0  0  0  0
  4  5  1  0  0  0  0
  5  6  1  0  0  0  0
  5 18  1  0  0  0  0
  6  7  1  0  0  0  0
  6 23  1  0  0  0  0
  6 24  1  0  0  0  0
  7  8  1  0  0  0  0
  7  9  1  0  0  0  0
  7 25  1  0  0  0  0
  8 26  1  0  0  0  0
  8 27  1  0  0  0  0
  8 28  1  0  0  0  0
  9 10  1  0  0  0  0
  9 29  1  0  0  0  0
 10 11  1  0  0  0  0
 10 30  1  0  0  0  0
 10 31  1  0  0  0  0
 11 17  1  0  0  0  0
 11 12  1  0  0  0  0
 11 13  1  0  0  0  0
 12 32  1  0  0  0  0
 13 14  1  0  0  0  0
 13 33  1  0  0  0  0
 13 34  1  0  0  0  0
 14 15  1  0  0  0  0
 14 35  1  0  0  0  0
 14 36  1  0  0  0  0
 15 16  1  0  0  0  0
 15 37  1  0  0  0  0
 15 38  1  0  0  0  0
 16 17  1  0  0  0  0
 16 39  1  0  0  0  0
 16 40  1  0  0  0  0
 17 41  1  0  0  0  0
 17 42  1  0  0  0  0
 18 43  1  0  0  0  0
M  END
> <s_m_source_file>
AV-unprocessed.smi

> <i_m_source_file_index>
3240

> <i_lp_mmshare_version>
43012

> <i_f3d_flags>
0

> <s_epik_input>
W0NIM11jMVtjSF1ubihbY0hdMSlbQ0gyXVtDQEhdKFtDSDNdKVtOSF1bQ0gyXUMyKFtPSF0pW0NIMl1bQ0gyXVtDSDJdW0NIMl1bQ0gyXTI=

> <s_epik_cmdline>
J2VwaWtfcHl0aG9uJywgJy1waCcsICc3LjAnLCAnLXRuJywgJzgnLCAnLW1hJywgJzIwMCcsICctbWV0YWxfYmluZGluZycsICctaW1hZScsICc8aW5maWxlLm1hZT4nLCAnLW9tYWUnLCAnPG91dGZpbGUubWFlPic=

> <r_lp_tautomer_probability>
1

> <r_epik_Ionization_Penalty>
2.35969

> <r_epik_Ionization_Penalty_Charging>
0

> <r_epik_Ionization_Penalty_Neutral>
2.35969

> <r_epik_State_Penalty>
2.51455

> <r_epik_Charging_Adjusted_Penalty>
2.51455

> <i_epik_Tot_Q>
0

> <i_epik_Tot_abs_Q>
0

> <r_epik_Metal_State_Penalty>
2.51446

> <b_epik_Metal_Only>
0

> <s_lp_Force_Field>
OPLS_2005

> <r_lp_Energy>
22.6589

> <b_lp_Chiralities_Consistent>
1

> <s_lp_Variant>
AV-unprocessed.smi:3240-4

> <Gold.Version>
5.8.1

> <Gold.Id.Protein>
6NUR|6NUR_protein|mol2

> <Gold.PLP.Fitness>
40.9781

> <Gold.PLP.PLP>
-31.7211

> <Gold.PLP.part.hbond>
-4.9130

> <Gold.PLP.part.metal>
0.0000

> <Gold.PLP.part.buried>
1.9305

> <Gold.PLP.part.nonpolar>
-28.5467

> <Gold.PLP.part.repulsive>
0.0332

> <Gold.PLP.ligand.clash>
0.0000

> <Gold.PLP.ligand.torsion>
0.6582

> <Gold.PLP.Chemscore.Hbond>
2.8500

> <Gold.PLP.Chemscore.CHOScore>
0.6531

> <Gold.PLP.Chemscore.Metal>
0.0000

> <Gold.Chemscore.Hbonds>
donor molecule, donor type, donor heavy atom, donor atom, acceptor molecule, acceptor atom, score
      L1  H     9    29       P1  7948  1.00
      L1  H    12    32       P1 10171  1.00
      P1  H  7989  7998       L1     4  0.08
      L1  C    18    43       P1  8028  0.07

> <Gold.PLP.Chemscore.Internal.Correction>
0.0640

> <Gold.Rescore>
     Score         DG    S(hbond)    S(metal)    S(lipo)     H(rot)  DE(clash)    DE(int)     intcor
     15.85     -18.14       2.49        0.00      81.73       2.04       1.69       0.60       ----

> <Gold.Chemscore.Fitness>
15.8473

> <Gold.Chemscore.DG>
-18.1361

> <Gold.Chemscore.ZeroCoef>
-5.4800

> <Gold.Chemscore.Hbond>
2.4936

> <Gold.Chemscore.Metal>
0.0000

> <Gold.Chemscore.Lipo>
81.7252

> <Gold.Chemscore.Internal_Hbond>
0.0000

> <Gold.Chemscore.DEClash>
1.6933

> <Gold.Chemscore.DEInternal>
0.5955

> <Gold.Chemscore.Rot>
2.0447

> <Gold.Chemscore.Internal.Correction>
   9.000000E+99

> <Gold.Chemscore.Hbonds>
donor molecule, donor type, donor heavy atom, donor atom, acceptor molecule, acceptor atom, score
      L1  H     9    29       P1  7948  1.00
      L1  H    12    32       P1 10171  1.00
      P1  H  7989  7998       L1     4  0.01

> <Gold.Chemscore.Hbond.Weighted>
-8.3287

> <Gold.Chemscore.Metal.Weighted>
-0.0000

> <Gold.Chemscore.Lipo.Weighted>
-9.5618

> <Gold.Chemscore.Internal_Hbond.Weighted>
0.0000

> <Gold.Chemscore.DEClash.Weighted>
1.6933

> <Gold.Chemscore.DEInternal.Weighted>
0.5955

> <Gold.Chemscore.Rot.Weighted>
5.2344

> <Gold.Chemscore.Internal.Correction.Weighted>
   9.000000E+99

> <Gold.Protein.RotatedTorsions>
[ 6907 6896 6895 6894 ] final  -52.63 input  -60.11 | X-H torsion
[ 7974 7965 7964 7962 ] final  -93.04 input  175.53 | X-H torsion
[ 8008 7997 7996 7995 ] final -162.00 input   59.86 | X-H torsion
[ 10167 10162 10161 10158 ] final -146.87 input  -65.29 | X-H torsion
[ 10718 10713 10712 10709 ] final  177.84 input   66.30 | X-H torsion
[ 10763 10752 10751 10750 ] final  -82.51 input  -60.55 | X-H torsion
[ 11005 11000 10999 10996 ] final -174.43 input  -57.11 | X-H torsion

> <Gold.Protein.ActiveResidues>
 VAL166  LYS551  ARG553  GLY616  TRP617  ASP618  TYR619  PRO620  LYS621  CYS622 
 ASP623  PHE694  ASN695  SER759  ASP760  ASP761  ALA762  ILE779  LEU786  VAL792 
 PHE793  MET794  SER795  GLU796  ALA797  LYS798  CYS799  TRP800  GLU811  SER814 

> <Gold.Protein.RotatedAtoms>
  150.8501  134.7822  159.7001 H   0  0  0  0  0  0  0  0  0  0  0  0  # atno 6907 bound_to 6896
  152.4568  134.5271  159.9810 H   0  0  0  0  0  0  0  0  0  0  0  0  # atno 6908 bound_to 6896
  151.5394  133.3397  159.2968 H   0  0  0  0  0  0  0  0  0  0  0  0  # atno 6909 bound_to 6896
  145.3918  140.9529  143.2336 H   0  0  0  0  0  0  0  0  0  0  0  0  # atno 7974 bound_to 7965
  155.8004  140.0891  157.1960 H   0  0  0  0  0  0  0  0  0  0  0  0  # atno 8008 bound_to 7997
  154.3982  140.1473  156.3327 H   0  0  0  0  0  0  0  0  0  0  0  0  # atno 8009 bound_to 7997
  155.8468  140.3436  155.5670 H   0  0  0  0  0  0  0  0  0  0  0  0  # atno 8010 bound_to 7997
  139.7674  143.8288  152.2618 H   0  0  0  0  0  0  0  0  0  0  0  0  # atno 10167 bound_to 10162
  156.8994  130.9874  151.3038 H   0  0  0  0  0  0  0  0  0  0  0  0  # atno 10718 bound_to 10713
  154.5766  135.5589  153.7145 H   0  0  0  0  0  0  0  0  0  0  0  0  # atno 10763 bound_to 10752
  153.0066  135.6310  154.2041 H   0  0  0  0  0  0  0  0  0  0  0  0  # atno 10764 bound_to 10752
  154.1981  135.2879  155.2979 H   0  0  0  0  0  0  0  0  0  0  0  0  # atno 10765 bound_to 10752
  140.4746  134.6133  157.4895 H   0  0  0  0  0  0  0  0  0  0  0  0  # atno 11005 bound_to 11000
  144.8435  139.5434  143.6889 LP  0  0  0  0  0  0  0  0  0  0  0  0  # atno 17320 bound_to 7965
  146.2794  139.6837  142.9240 LP  0  0  0  0  0  0  0  0  0  0  0  0  # atno 17321 bound_to 7965
  139.8312  144.7253  150.9448 LP  0  0  0  0  0  0  0  0  0  0  0  0  # atno 17342 bound_to 10162
  140.7812  143.4068  151.1057 LP  0  0  0  0  0  0  0  0  0  0  0  0  # atno 17343 bound_to 10162
  157.6035  130.8530  149.8839 LP  0  0  0  0  0  0  0  0  0  0  0  0  # atno 17370 bound_to 10713
  156.0589  130.3703  150.1027 LP  0  0  0  0  0  0  0  0  0  0  0  0  # atno 17371 bound_to 10713
  139.9864  134.7055  155.9767 LP  0  0  0  0  0  0  0  0  0  0  0  0  # atno 17394 bound_to 11000
  141.1560  133.6543  156.4165 LP  0  0  0  0  0  0  0  0  0  0  0  0  # atno 17395 bound_to 11000

$$$$
