AV-unprocessed.smi:1988|AV-procd|sdf|8059|dock6
  -GOLD-   2272010263D 1   1.00000     0.00000
 Structure written by MMmdl.
 37 38  0  0  0  0  0  0  0  0  1 V2000
  148.1619  132.5529  153.7457 C   0  0  0  0  0  0  0  0  0  0  0  0
  149.2992  131.7628  154.3270 C   0  0  0  0  0  0  0  0  0  0  0  0
  149.6655  130.6288  153.7539 N   0  0  0  0  0  0  0  0  0  0  0  0
  150.7332  130.1428  154.5145 O   0  0  0  0  0  0  0  0  0  0  0  0
  150.9711  131.0137  155.5276 C   0  0  0  0  0  0  0  0  0  0  0  0
  152.0840  130.6651  156.4570 C   0  0  0  0  0  0  0  0  0  0  0  0
  150.0969  132.0648  155.4684 C   0  0  0  0  0  0  0  0  0  0  0  0
  149.9930  133.2601  156.3815 C   0  0  0  0  0  0  0  0  0  0  0  0
  149.8069  132.7998  157.8279 C   0  0  0  0  0  0  0  0  0  0  0  0
  150.6705  132.1108  158.3697 O   0  0  0  0  0  0  0  0  0  0  0  0
  148.6727  133.1806  158.4367 N   0  0  0  0  0  0  0  0  0  0  0  0
  148.2985  132.8667  159.8119 C   0  0  0  0  0  0  0  0  0  0  0  0
  147.3775  133.9403  160.4238 C   0  0  1  0  0  0  0  0  0  0  0  0
  147.0468  133.7090  161.9140 C   0  0  0  0  0  0  0  0  0  0  0  0
  146.3848  134.9719  162.4741 C   0  0  0  0  0  0  0  0  0  0  0  0
  147.1561  136.3721  161.5822 S   0  0  0  0  0  0  0  0  0  0  0  0
  146.0982  137.1879  160.9667 O   0  0  0  0  0  0  0  0  0  0  0  0
  148.1894  136.9861  162.4298 O   0  0  0  0  0  0  0  0  0  0  0  0
  147.9706  135.3524  160.2954 C   0  0  0  0  0  0  0  0  0  0  0  0
  147.5288  132.9653  154.5311 H   0  0  0  0  0  0  0  0  0  0  0  0
  147.5299  131.9379  153.1039 H   0  0  0  0  0  0  0  0  0  0  0  0
  148.5335  133.3850  153.1476 H   0  0  0  0  0  0  0  0  0  0  0  0
  151.9732  131.1788  157.4119 H   0  0  0  0  0  0  0  0  0  0  0  0
  153.0454  130.9495  156.0294 H   0  0  0  0  0  0  0  0  0  0  0  0
  152.1044  129.5929  156.6533 H   0  0  0  0  0  0  0  0  0  0  0  0
  150.8823  133.8886  156.3226 H   0  0  0  0  0  0  0  0  0  0  0  0
  149.1550  133.8988  156.0996 H   0  0  0  0  0  0  0  0  0  0  0  0
  148.0245  133.7473  157.9093 H   0  0  0  0  0  0  0  0  0  0  0  0
  147.8343  131.8810  159.8760 H   0  0  0  0  0  0  0  0  0  0  0  0
  149.2189  132.8050  160.3929 H   0  0  0  0  0  0  0  0  0  0  0  0
  146.4330  133.9362  159.8774 H   0  0  0  0  0  0  0  0  0  0  0  0
  146.4095  132.8368  162.0612 H   0  0  0  0  0  0  0  0  0  0  0  0
  147.9721  133.5230  162.4610 H   0  0  0  0  0  0  0  0  0  0  0  0
  145.3168  134.9794  162.2547 H   0  0  0  0  0  0  0  0  0  0  0  0
  146.5222  135.0855  163.5495 H   0  0  0  0  0  0  0  0  0  0  0  0
  149.0406  135.3492  160.5052 H   0  0  0  0  0  0  0  0  0  0  0  0
  147.8130  135.7926  159.3107 H   0  0  0  0  0  0  0  0  0  0  0  0
  1  2  1  0  0  0  0
  1 20  1  0  0  0  0
  1 21  1  0  0  0  0
  1 22  1  0  0  0  0
  2  7  1  0  0  0  0
  2  3  2  0  0  0  0
  3  4  1  0  0  0  0
  4  5  1  0  0  0  0
  5  6  1  0  0  0  0
  5  7  2  0  0  0  0
  6 23  1  0  0  0  0
  6 24  1  0  0  0  0
  6 25  1  0  0  0  0
  7  8  1  0  0  0  0
  8  9  1  0  0  0  0
  8 26  1  0  0  0  0
  8 27  1  0  0  0  0
  9 10  2  0  0  0  0
  9 11  1  0  0  0  0
 11 12  1  0  0  0  0
 11 28  1  0  0  0  0
 12 13  1  0  0  0  0
 12 29  1  0  0  0  0
 12 30  1  0  0  0  0
 13 19  1  0  0  0  0
 13 14  1  0  0  0  0
 13 31  1  0  0  0  0
 14 15  1  0  0  0  0
 14 32  1  0  0  0  0
 14 33  1  0  0  0  0
 15 16  1  0  0  0  0
 15 34  1  0  0  0  0
 15 35  1  0  0  0  0
 16 17  2  0  0  0  0
 16 18  2  0  0  0  0
 16 19  1  0  0  0  0
 19 36  1  0  0  0  0
 19 37  1  0  0  0  0
M  END
> <s_m_source_file>
AV-unprocessed.smi

> <i_m_source_file_index>
1988

> <i_lp_mmshare_version>
43012

> <i_f3d_flags>
0

> <s_epik_input>
W0NIM11jMW5vYyhbQ0gzXSljMVtDSDJdQyg9TylbTkhdW0NIMl1bQ0BASF0oW0NIMl0yKVtDSDJdW0NIMl1TMig9Tyk9Tw==

> <s_epik_cmdline>
J2VwaWtfcHl0aG9uJywgJy1waCcsICc3LjAnLCAnLXRuJywgJzgnLCAnLW1hJywgJzIwMCcsICctbWV0YWxfYmluZGluZycsICctaW1hZScsICc8aW5maWxlLm1hZT4nLCAnLW9tYWUnLCAnPG91dGZpbGUubWFlPic=

> <r_lp_tautomer_probability>
1

> <r_epik_Ionization_Penalty>
2.7503e-08

> <r_epik_Ionization_Penalty_Charging>
0

> <r_epik_Ionization_Penalty_Neutral>
2.7503e-08

> <r_epik_State_Penalty>
-0

> <r_epik_Charging_Adjusted_Penalty>
0

> <i_epik_Tot_Q>
0

> <i_epik_Tot_abs_Q>
0

> <r_epik_Metal_State_Penalty>
-0

> <b_epik_Metal_Only>
0

> <s_lp_Force_Field>
OPLS_2005

> <r_lp_Energy>
-1.59396

> <b_lp_Chiralities_Consistent>
1

> <s_lp_Variant>
AV-unprocessed.smi:1988-2

> <Gold.Version>
5.8.1

> <Gold.Id.Protein>
6NUR|6NUR_protein|mol2

> <Gold.PLP.Fitness>
37.2638

> <Gold.PLP.PLP>
-28.6944

> <Gold.PLP.part.hbond>
-3.0000

> <Gold.PLP.part.metal>
0.0000

> <Gold.PLP.part.buried>
-2.6952

> <Gold.PLP.part.nonpolar>
-24.0356

> <Gold.PLP.part.repulsive>
0.2767

> <Gold.PLP.ligand.clash>
0.0000

> <Gold.PLP.ligand.torsion>
0.2217

> <Gold.PLP.Chemscore.Hbond>
3.0000

> <Gold.PLP.Chemscore.CHOScore>
0.0000

> <Gold.PLP.Chemscore.Metal>
0.0000

> <Gold.Chemscore.Hbonds>
donor molecule, donor type, donor heavy atom, donor atom, acceptor molecule, acceptor atom, score
      P1  H  6896  6908       L1    10  0.80
      P1  H  6931  6943       L1    18  1.00
      P1  H  6934  6947       L1    17  0.70

> <Gold.PLP.Chemscore.Internal.Correction>
0.0128

> <Gold.Rescore>
     Score         DG    S(hbond)    S(metal)    S(lipo)     H(rot)  DE(clash)    DE(int)     intcor
     13.03     -14.60       1.90        0.00      60.75       1.70       0.00       1.57       ----

> <Gold.Chemscore.Fitness>
13.0315

> <Gold.Chemscore.DG>
-14.6021

> <Gold.Chemscore.ZeroCoef>
-5.4800

> <Gold.Chemscore.Hbond>
1.9030

> <Gold.Chemscore.Metal>
0.0000

> <Gold.Chemscore.Lipo>
60.7467

> <Gold.Chemscore.Internal_Hbond>
0.0000

> <Gold.Chemscore.DEClash>
0.0000

> <Gold.Chemscore.DEInternal>
1.5705

> <Gold.Chemscore.Rot>
1.6958

> <Gold.Chemscore.Internal.Correction>
   9.000000E+99

> <Gold.Chemscore.Hbonds>
donor molecule, donor type, donor heavy atom, donor atom, acceptor molecule, acceptor atom, score
      P1  H  6896  6908       L1    10  0.12
      P1  H  6931  6943       L1    18  0.95
      P1  H  6934  6947       L1    17  0.14

> <Gold.Chemscore.Hbond.Weighted>
-6.3560

> <Gold.Chemscore.Metal.Weighted>
-0.0000

> <Gold.Chemscore.Lipo.Weighted>
-7.1074

> <Gold.Chemscore.Internal_Hbond.Weighted>
0.0000

> <Gold.Chemscore.DEClash.Weighted>
0.0000

> <Gold.Chemscore.DEInternal.Weighted>
1.5705

> <Gold.Chemscore.Rot.Weighted>
4.3413

> <Gold.Chemscore.Internal.Correction.Weighted>
   9.000000E+99

> <Gold.Protein.RotatedTorsions>
[ 6907 6896 6895 6894 ] final   76.59 input  -60.11 | X-H torsion
[ 7974 7965 7964 7962 ] final  107.62 input  175.53 | X-H torsion
[ 8008 7997 7996 7995 ] final  170.61 input   59.86 | X-H torsion
[ 10167 10162 10161 10158 ] final -156.40 input  -65.29 | X-H torsion
[ 10718 10713 10712 10709 ] final -163.87 input   66.30 | X-H torsion
[ 10763 10752 10751 10750 ] final  154.22 input  -60.55 | X-H torsion
[ 11005 11000 10999 10996 ] final   95.70 input  -57.11 | X-H torsion

> <Gold.Protein.ActiveResidues>
 VAL166  LYS551  ARG553  GLY616  TRP617  ASP618  TYR619  PRO620  LYS621  CYS622 
 ASP623  PHE694  ASN695  SER759  ASP760  ASP761  ALA762  ILE779  LEU786  VAL792 
 PHE793  MET794  SER795  GLU796  ALA797  LYS798  CYS799  TRP800  GLU811  SER814 

> <Gold.Protein.RotatedAtoms>
  152.5080  134.3946  159.9395 H   0  0  0  0  0  0  0  0  0  0  0  0  # atno 6907 bound_to 6896
  151.3907  133.3783  159.2728 H   0  0  0  0  0  0  0  0  0  0  0  0  # atno 6908 bound_to 6896
  150.9435  134.8862  159.7686 H   0  0  0  0  0  0  0  0  0  0  0  0  # atno 6909 bound_to 6896
  145.2913  139.2599  143.3863 H   0  0  0  0  0  0  0  0  0  0  0  0  # atno 7974 bound_to 7965
  156.1349  140.1533  156.9009 H   0  0  0  0  0  0  0  0  0  0  0  0  # atno 8008 bound_to 7997
  154.4939  140.0843  156.7694 H   0  0  0  0  0  0  0  0  0  0  0  0  # atno 8009 bound_to 7997
  155.4187  140.3422  155.4272 H   0  0  0  0  0  0  0  0  0  0  0  0  # atno 8010 bound_to 7997
  139.6853  143.9511  152.2358 H   0  0  0  0  0  0  0  0  0  0  0  0  # atno 10167 bound_to 10162
  156.6309  130.8929  151.2977 H   0  0  0  0  0  0  0  0  0  0  0  0  # atno 10718 bound_to 10713
  154.1488  135.2816  155.3141 H   0  0  0  0  0  0  0  0  0  0  0  0  # atno 10763 bound_to 10752
  154.6233  135.5460  153.7602 H   0  0  0  0  0  0  0  0  0  0  0  0  # atno 10764 bound_to 10752
  153.0227  135.6444  154.1633 H   0  0  0  0  0  0  0  0  0  0  0  0  # atno 10765 bound_to 10752
  139.8787  134.8912  156.4050 H   0  0  0  0  0  0  0  0  0  0  0  0  # atno 11005 bound_to 11000
  146.3184  140.3405  142.8647 LP  0  0  0  0  0  0  0  0  0  0  0  0  # atno 17320 bound_to 7965
  144.9170  140.7824  143.5772 LP  0  0  0  0  0  0  0  0  0  0  0  0  # atno 17321 bound_to 7965
  139.9312  144.6740  150.8361 LP  0  0  0  0  0  0  0  0  0  0  0  0  # atno 17342 bound_to 10162
  140.7666  143.3307  151.2416 LP  0  0  0  0  0  0  0  0  0  0  0  0  # atno 17343 bound_to 10162
  157.7200  130.9546  150.1402 LP  0  0  0  0  0  0  0  0  0  0  0  0  # atno 17370 bound_to 10713
  156.2236  130.3676  149.8527 LP  0  0  0  0  0  0  0  0  0  0  0  0  # atno 17371 bound_to 10713
  140.9241  133.7625  155.9942 LP  0  0  0  0  0  0  0  0  0  0  0  0  # atno 17394 bound_to 11000
  140.8406  134.3071  157.5315 LP  0  0  0  0  0  0  0  0  0  0  0  0  # atno 17395 bound_to 11000

$$$$
