AV-unprocessed.smi:242|AV-procd|sdf|1847|dock2
  -GOLD-   2262020463D 1   1.00000     0.00000
 Structure written by MMmdl.
 58 61  0  0  0  0  0  0  0  0  2 V2000
  153.0929  143.0620  160.6925 C   0  0  0  0  0  0  0  0  0  0  0  0
  152.0655  143.5431  159.6491 C   0  0  0  0  0  0  0  0  0  0  0  0
  151.2603  144.7191  160.2360 C   0  0  0  0  0  0  0  0  0  0  0  0
  151.1772  142.4273  159.2163 N   0  3  1  0  0  0  0  0  0  0  0  0
  149.9452  142.8262  158.4966 C   0  0  0  0  0  0  0  0  0  0  0  0
  149.5859  141.6344  157.6143 C   0  0  0  0  0  0  0  0  0  0  0  0
  150.9600  141.1649  157.1458 C   0  0  2  0  0  0  0  0  0  0  0  0
  150.9838  139.7977  156.6159 N   0  0  0  0  0  0  0  0  0  0  0  0
  151.9830  139.4927  155.5988 C   0  0  0  0  0  0  0  0  0  0  0  0
  150.9030  138.7967  157.5246 C   0  0  0  0  0  0  0  0  0  0  0  0
  151.9162  138.5904  158.4074 N   0  0  0  0  0  0  0  0  0  0  0  0
  151.8316  137.6006  159.3019 C   0  0  0  0  0  0  0  0  0  0  0  0
  150.8445  136.7201  159.4817 N   0  0  0  0  0  0  0  0  0  0  0  0
  149.8322  136.9193  158.5894 C   0  0  0  0  0  0  0  0  0  0  0  0
  149.7832  137.9257  157.5850 C   0  0  0  0  0  0  0  0  0  0  0  0
  148.5961  137.8317  156.8705 N   0  0  0  0  0  0  0  0  0  0  0  0
  147.9752  136.8252  157.4232 C   0  0  0  0  0  0  0  0  0  0  0  0
  148.6479  136.2153  158.4589 N   0  0  0  0  0  0  0  0  0  0  0  0
  148.1877  135.0839  159.2496 C   0  0  0  0  0  0  0  0  0  0  0  0
  147.5452  135.4759  160.6036 C   0  0  0  0  0  0  0  0  0  0  0  0
  146.4112  136.2798  160.3290 O   0  0  0  0  0  0  0  0  0  0  0  0
  147.0764  134.2146  161.3566 C   0  0  0  0  0  0  0  0  0  0  0  0
  146.5892  134.5344  162.7809 C   0  0  0  0  0  0  0  0  0  0  0  0
  147.6078  135.2179  163.5007 O   0  0  0  0  0  0  0  0  0  0  0  0
  147.9364  136.4764  162.9253 C   0  0  0  0  0  0  0  0  0  0  0  0
  148.5043  136.2797  161.5083 C   0  0  0  0  0  0  0  0  0  0  0  0
  151.8298  141.3709  158.4007 C   0  0  0  0  0  0  0  0  0  0  0  0
  153.7256  143.8859  161.0245 H   0  0  0  0  0  0  0  0  0  0  0  0
  153.7586  142.2943  160.2995 H   0  0  0  0  0  0  0  0  0  0  0  0
  152.5986  142.6522  161.5738 H   0  0  0  0  0  0  0  0  0  0  0  0
  152.6054  143.9057  158.7730 H   0  0  0  0  0  0  0  0  0  0  0  0
  151.9250  145.5063  160.5934 H   0  0  0  0  0  0  0  0  0  0  0  0
  150.6474  144.3989  161.0793 H   0  0  0  0  0  0  0  0  0  0  0  0
  150.6018  145.1767  159.4978 H   0  0  0  0  0  0  0  0  0  0  0  0
  149.1415  143.0892  159.1853 H   0  0  0  0  0  0  0  0  0  0  0  0
  150.1487  143.6924  157.8643 H   0  0  0  0  0  0  0  0  0  0  0  0
  149.0965  140.8610  158.2088 H   0  0  0  0  0  0  0  0  0  0  0  0
  148.9228  141.9063  156.7923 H   0  0  0  0  0  0  0  0  0  0  0  0
  151.3001  141.8500  156.3672 H   0  0  0  0  0  0  0  0  0  0  0  0
  151.9230  138.4520  155.2764 H   0  0  0  0  0  0  0  0  0  0  0  0
  152.9878  139.6744  155.9822 H   0  0  0  0  0  0  0  0  0  0  0  0
  151.8357  140.1150  154.7163 H   0  0  0  0  0  0  0  0  0  0  0  0
  152.6746  137.4993  159.9695 H   0  0  0  0  0  0  0  0  0  0  0  0
  147.0032  136.4951  157.0864 H   0  0  0  0  0  0  0  0  0  0  0  0
  147.4822  134.5095  158.6474 H   0  0  0  0  0  0  0  0  0  0  0  0
  149.0423  134.4279  159.4199 H   0  0  0  0  0  0  0  0  0  0  0  0
  145.6804  135.9511  160.8299 H   0  0  0  0  0  0  0  0  0  0  0  0
  146.2902  133.7053  160.7979 H   0  0  0  0  0  0  0  0  0  0  0  0
  147.9051  133.5089  161.4283 H   0  0  0  0  0  0  0  0  0  0  0  0
  145.6773  135.1329  162.7603 H   0  0  0  0  0  0  0  0  0  0  0  0
  146.3476  133.6111  163.3074 H   0  0  0  0  0  0  0  0  0  0  0  0
  147.0577  137.1227  162.9106 H   0  0  0  0  0  0  0  0  0  0  0  0
  148.6767  136.9673  163.5570 H   0  0  0  0  0  0  0  0  0  0  0  0
  149.4536  135.7479  161.5859 H   0  0  0  0  0  0  0  0  0  0  0  0
  148.7318  137.2519  161.0696 H   0  0  0  0  0  0  0  0  0  0  0  0
  152.8497  141.6273  158.1129 H   0  0  0  0  0  0  0  0  0  0  0  0
  151.8730  140.4642  159.0058 H   0  0  0  0  0  0  0  0  0  0  0  0
  150.8646  141.9655  160.0585 H   0  0  0  0  0  0  0  0  0  0  0  0
  1  2  1  0  0  0  0
  1 28  1  0  0  0  0
  1 29  1  0  0  0  0
  1 30  1  0  0  0  0
  2  3  1  0  0  0  0
  2  4  1  0  0  0  0
  2 31  1  0  0  0  0
  3 32  1  0  0  0  0
  3 33  1  0  0  0  0
  3 34  1  0  0  0  0
  4 27  1  0  0  0  0
  4  5  1  0  0  0  0
  4 58  1  0  0  0  0
  5  6  1  0  0  0  0
  5 35  1  0  0  0  0
  5 36  1  0  0  0  0
  6  7  1  0  0  0  0
  6 37  1  0  0  0  0
  6 38  1  0  0  0  0
  7  8  1  0  0  0  0
  7 27  1  0  0  0  0
  7 39  1  0  0  0  0
  8  9  1  0  0  0  0
  8 10  1  0  0  0  0
  9 40  1  0  0  0  0
  9 41  1  0  0  0  0
  9 42  1  0  0  0  0
 10 15  1  0  0  0  0
 10 11  2  0  0  0  0
 11 12  1  0  0  0  0
 12 13  2  0  0  0  0
 12 43  1  0  0  0  0
 13 14  1  0  0  0  0
 14 18  1  0  0  0  0
 14 15  2  0  0  0  0
 15 16  1  0  0  0  0
 16 17  2  0  0  0  0
 17 18  1  0  0  0  0
 17 44  1  0  0  0  0
 18 19  1  0  0  0  0
 19 20  1  0  0  0  0
 19 45  1  0  0  0  0
 19 46  1  0  0  0  0
 20 26  1  0  0  0  0
 20 21  1  0  0  0  0
 20 22  1  0  0  0  0
 21 47  1  0  0  0  0
 22 23  1  0  0  0  0
 22 48  1  0  0  0  0
 22 49  1  0  0  0  0
 23 24  1  0  0  0  0
 23 50  1  0  0  0  0
 23 51  1  0  0  0  0
 24 25  1  0  0  0  0
 25 26  1  0  0  0  0
 25 52  1  0  0  0  0
 25 53  1  0  0  0  0
 26 54  1  0  0  0  0
 26 55  1  0  0  0  0
 27 56  1  0  0  0  0
 27 57  1  0  0  0  0
M  CHG  1   4   1
M  END
> <s_m_source_file>
AV-unprocessed.smi

> <i_m_source_file_index>
242

> <i_lp_mmshare_version>
43012

> <i_f3d_flags>
0

> <s_epik_input>
W0NIM11bQ0hdKFtDSDNdKU4xW0NIMl1bQ0gyXVtDQEhdKFtDSDJdMSlOKFtDSDNdKWMobltjSF1uMiljKGMyMyluW2NIXW4zW0NIMl1DNChbT0hdKVtDSDJdW0NIMl1PW0NIMl1bQ0gyXTQ=

> <s_epik_cmdline>
J2VwaWtfcHl0aG9uJywgJy1waCcsICc3LjAnLCAnLXRuJywgJzgnLCAnLW1hJywgJzIwMCcsICctbWV0YWxfYmluZGluZycsICctaW1hZScsICc8aW5maWxlLm1hZT4nLCAnLW9tYWUnLCAnPG91dGZpbGUubWFlPic=

> <r_lp_tautomer_probability>
1

> <r_epik_Ionization_Penalty>
0.000825961

> <r_epik_Ionization_Penalty_Charging>
0.00034898

> <r_epik_Ionization_Penalty_Neutral>
0.000476981

> <r_epik_State_Penalty>
-0

> <r_epik_Charging_Adjusted_Penalty>
0.00034898

> <i_epik_Tot_Q>
1

> <i_epik_Tot_abs_Q>
1

> <r_epik_Metal_State_Penalty>
-0

> <b_epik_Metal_Only>
0

> <s_lp_Force_Field>
OPLS_2005

> <r_lp_Energy>
48.0366

> <b_lp_Chiralities_Consistent>
1

> <s_lp_Variant>
AV-unprocessed.smi:242-4

> <Gold.Version>
5.8.1

> <Gold.Id.Protein>
6NUR|6NUR_protein|mol2

> <Gold.PLP.Fitness>
44.4301

> <Gold.PLP.PLP>
-43.1820

> <Gold.PLP.part.hbond>
-1.0000

> <Gold.PLP.part.metal>
0.0000

> <Gold.PLP.part.buried>
-6.6632

> <Gold.PLP.part.nonpolar>
-35.6071

> <Gold.PLP.part.repulsive>
0.1351

> <Gold.PLP.ligand.clash>
0.0000

> <Gold.PLP.ligand.torsion>
1.1473

> <Gold.PLP.Chemscore.Hbond>
1.0000

> <Gold.PLP.Chemscore.CHOScore>
0.0000

> <Gold.PLP.Chemscore.Metal>
0.0000

> <Gold.Chemscore.Hbonds>
donor molecule, donor type, donor heavy atom, donor atom, acceptor molecule, acceptor atom, score
      P1  H  6896  6907       L1    13  1.00

> <Gold.PLP.Chemscore.Internal.Correction>
0.5428

> <Gold.Rescore>
     Score         DG    S(hbond)    S(metal)    S(lipo)     H(rot)  DE(clash)    DE(int)     intcor
     12.84     -15.23       0.93        0.00     111.37       2.50       0.06       2.34       ----

> <Gold.Chemscore.Fitness>
12.8357

> <Gold.Chemscore.DG>
-15.2336

> <Gold.Chemscore.ZeroCoef>
-5.4800

> <Gold.Chemscore.Hbond>
0.9346

> <Gold.Chemscore.Metal>
0.0000

> <Gold.Chemscore.Lipo>
111.3747

> <Gold.Chemscore.Internal_Hbond>
0.0000

> <Gold.Chemscore.DEClash>
0.0572

> <Gold.Chemscore.DEInternal>
2.3406

> <Gold.Chemscore.Rot>
2.4996

> <Gold.Chemscore.Internal.Correction>
   9.000000E+99

> <Gold.Chemscore.Hbonds>
donor molecule, donor type, donor heavy atom, donor atom, acceptor molecule, acceptor atom, score
      P1  H  6896  6907       L1    13  0.62

> <Gold.Chemscore.Hbond.Weighted>
-3.1217

> <Gold.Chemscore.Metal.Weighted>
-0.0000

> <Gold.Chemscore.Lipo.Weighted>
-13.0308

> <Gold.Chemscore.Internal_Hbond.Weighted>
0.0000

> <Gold.Chemscore.DEClash.Weighted>
0.0572

> <Gold.Chemscore.DEInternal.Weighted>
2.3406

> <Gold.Chemscore.Rot.Weighted>
6.3990

> <Gold.Chemscore.Internal.Correction.Weighted>
   9.000000E+99

> <Gold.Protein.RotatedTorsions>
[ 6907 6896 6895 6894 ] final  -39.97 input  -60.11 | X-H torsion
[ 7974 7965 7964 7962 ] final -155.14 input  175.53 | X-H torsion
[ 8008 7997 7996 7995 ] final  155.73 input   59.86 | X-H torsion
[ 10167 10162 10161 10158 ] final   18.15 input  -65.29 | X-H torsion
[ 10718 10713 10712 10709 ] final -172.13 input   66.30 | X-H torsion
[ 10763 10752 10751 10750 ] final -110.73 input  -60.55 | X-H torsion
[ 11005 11000 10999 10996 ] final  116.73 input  -57.11 | X-H torsion

> <Gold.Protein.ActiveResidues>
 VAL166  LYS551  ARG553  GLY616  TRP617  ASP618  TYR619  PRO620  LYS621  CYS622 
 ASP623  PHE694  ASN695  SER759  ASP760  ASP761  ALA762  ILE779  LEU786  VAL792 
 PHE793  MET794  SER795  GLU796  ALA797  LYS798  CYS799  TRP800  GLU811  SER814 

> <Gold.Protein.RotatedAtoms>
  150.9840  134.9189  159.7860 H   0  0  0  0  0  0  0  0  0  0  0  0  # atno 6907 bound_to 6896
  152.5230  134.3372  159.9214 H   0  0  0  0  0  0  0  0  0  0  0  0  # atno 6908 bound_to 6896
  151.3378  133.3933  159.2703 H   0  0  0  0  0  0  0  0  0  0  0  0  # atno 6909 bound_to 6896
  144.7654  140.4290  143.5945 H   0  0  0  0  0  0  0  0  0  0  0  0  # atno 7974 bound_to 7965
  156.2462  140.1931  156.6846 H   0  0  0  0  0  0  0  0  0  0  0  0  # atno 8008 bound_to 7997
  154.6297  140.0597  156.9743 H   0  0  0  0  0  0  0  0  0  0  0  0  # atno 8009 bound_to 7997
  155.1731  140.3270  155.4391 H   0  0  0  0  0  0  0  0  0  0  0  0  # atno 8010 bound_to 7997
  140.5674  143.9225  150.6687 H   0  0  0  0  0  0  0  0  0  0  0  0  # atno 10167 bound_to 10162
  156.7510  130.9378  151.3114 H   0  0  0  0  0  0  0  0  0  0  0  0  # atno 10718 bound_to 10713
  154.8264  135.4553  154.0931 H   0  0  0  0  0  0  0  0  0  0  0  0  # atno 10763 bound_to 10752
  153.2242  135.6897  153.7971 H   0  0  0  0  0  0  0  0  0  0  0  0  # atno 10764 bound_to 10752
  153.7377  135.3317  155.3275 H   0  0  0  0  0  0  0  0  0  0  0  0  # atno 10765 bound_to 10752
  139.9051  134.9601  156.7243 H   0  0  0  0  0  0  0  0  0  0  0  0  # atno 11005 bound_to 11000
  145.6485  139.1561  143.2875 LP  0  0  0  0  0  0  0  0  0  0  0  0  # atno 17320 bound_to 7965
  146.1757  140.6576  142.9212 LP  0  0  0  0  0  0  0  0  0  0  0  0  # atno 17321 bound_to 7965
  140.2691  143.3468  152.1254 LP  0  0  0  0  0  0  0  0  0  0  0  0  # atno 17342 bound_to 10162
  139.5100  144.6876  151.5845 LP  0  0  0  0  0  0  0  0  0  0  0  0  # atno 17343 bound_to 10162
  157.6777  130.9110  150.0190 LP  0  0  0  0  0  0  0  0  0  0  0  0  # atno 17370 bound_to 10713
  156.1401  130.3642  149.9595 LP  0  0  0  0  0  0  0  0  0  0  0  0  # atno 17371 bound_to 10713
  140.6976  133.9335  155.8004 LP  0  0  0  0  0  0  0  0  0  0  0  0  # atno 17394 bound_to 11000
  141.0395  134.0641  157.3918 LP  0  0  0  0  0  0  0  0  0  0  0  0  # atno 17395 bound_to 11000

$$$$
