AV-unprocessed.smi:2928|AV-procd|sdf|11238|dock4
  -GOLD-   2272016133D 1   1.00000     0.00000
 Structure written by MMmdl.
 56 59  0  0  0  0  0  0  0  0  3 V2000
  150.9660  142.2478  156.5662 C   0  0  0  0  0  0  0  0  0  0  0  0
  149.5307  142.0131  156.2797 N   0  3  2  0  0  0  0  0  0  0  0  0
  148.8084  141.2345  157.3136 C   0  0  1  0  0  0  0  0  0  0  0  0
  147.2869  141.4302  157.1220 C   0  0  0  0  0  0  0  0  0  0  0  0
  146.7926  141.1253  155.6951 C   0  0  0  0  0  0  0  0  0  0  0  0
  147.7466  141.6646  154.6116 C   0  0  0  0  0  0  0  0  0  0  0  0
  149.2452  141.4601  154.9345 C   0  0  2  0  0  0  0  0  0  0  0  0
  149.7562  140.0033  154.7993 C   0  0  0  0  0  0  0  0  0  0  0  0
  149.4094  139.0523  155.9717 C   0  0  2  0  0  0  0  0  0  0  0  0
  148.2616  138.2056  155.6530 N   0  0  0  0  0  0  0  0  0  0  0  0
  147.8416  137.1513  156.3675 C   0  0  0  0  0  0  0  0  0  0  0  0
  148.3949  136.7619  157.3955 O   0  0  0  0  0  0  0  0  0  0  0  0
  146.7386  136.6076  155.8273 N   0  0  0  0  0  0  0  0  0  0  0  0
  145.9522  135.5322  156.3297 C   0  0  0  0  0  0  0  0  0  0  0  0
  145.8137  135.2669  157.7161 C   0  0  0  0  0  0  0  0  0  0  0  0
  145.0335  134.1740  158.1432 C   0  0  0  0  0  0  0  0  0  0  0  0
  144.4134  133.3567  157.1802 C   0  0  0  0  0  0  0  0  0  0  0  0
  144.5782  133.6261  155.8682 N   0  3  0  0  0  0  0  0  0  0  0  0
  145.3168  134.6643  155.4054 C   0  0  0  0  0  0  0  0  0  0  0  0
  145.4242  134.8586  154.0175 N   0  0  0  0  0  0  0  0  0  0  0  0
  146.1079  133.8019  153.2911 C   0  0  0  0  0  0  0  0  0  0  0  0
  145.7634  134.0317  151.8172 C   0  0  0  0  0  0  0  0  0  0  0  0
  144.4839  134.8773  151.8376 C   0  0  0  0  0  0  0  0  0  0  0  0
  144.1671  135.0767  153.3219 C   0  0  0  0  0  0  0  0  0  0  0  0
  149.2818  139.7597  157.3484 C   0  0  0  0  0  0  0  0  0  0  0  0
  151.5399  141.3217  156.5896 H   0  0  0  0  0  0  0  0  0  0  0  0
  151.0843  142.7424  157.5305 H   0  0  0  0  0  0  0  0  0  0  0  0
  151.4038  142.8968  155.8074 H   0  0  0  0  0  0  0  0  0  0  0  0
  149.0500  141.6710  158.2840 H   0  0  0  0  0  0  0  0  0  0  0  0
  146.7313  140.8336  157.8462 H   0  0  0  0  0  0  0  0  0  0  0  0
  147.0474  142.4701  157.3485 H   0  0  0  0  0  0  0  0  0  0  0  0
  146.6396  140.0590  155.5694 H   0  0  0  0  0  0  0  0  0  0  0  0
  145.8018  141.5586  155.5542 H   0  0  0  0  0  0  0  0  0  0  0  0
  147.5010  141.2260  153.6439 H   0  0  0  0  0  0  0  0  0  0  0  0
  147.5666  142.7354  154.5063 H   0  0  0  0  0  0  0  0  0  0  0  0
  149.7954  142.0605  154.2082 H   0  0  0  0  0  0  0  0  0  0  0  0
  149.4346  139.5775  153.8477 H   0  0  0  0  0  0  0  0  0  0  0  0
  150.8434  140.0453  154.7248 H   0  0  0  0  0  0  0  0  0  0  0  0
  150.2486  138.3581  156.0508 H   0  0  0  0  0  0  0  0  0  0  0  0
  147.7413  138.4482  154.8226 H   0  0  0  0  0  0  0  0  0  0  0  0
  146.3563  137.0851  155.0243 H   0  0  0  0  0  0  0  0  0  0  0  0
  146.3036  135.8750  158.4610 H   0  0  0  0  0  0  0  0  0  0  0  0
  144.9177  133.9632  159.1964 H   0  0  0  0  0  0  0  0  0  0  0  0
  143.8006  132.4988  157.4166 H   0  0  0  0  0  0  0  0  0  0  0  0
  147.1841  133.8401  153.4628 H   0  0  0  0  0  0  0  0  0  0  0  0
  145.7498  132.8224  153.6110 H   0  0  0  0  0  0  0  0  0  0  0  0
  146.5638  134.5818  151.3211 H   0  0  0  0  0  0  0  0  0  0  0  0
  145.6296  133.0889  151.2858 H   0  0  0  0  0  0  0  0  0  0  0  0
  144.6668  135.8390  151.3563 H   0  0  0  0  0  0  0  0  0  0  0  0
  143.6588  134.3950  151.3125 H   0  0  0  0  0  0  0  0  0  0  0  0
  143.4189  134.3519  153.6460 H   0  0  0  0  0  0  0  0  0  0  0  0
  143.7760  136.0754  153.5188 H   0  0  0  0  0  0  0  0  0  0  0  0
  150.2692  139.7449  157.8112 H   0  0  0  0  0  0  0  0  0  0  0  0
  148.6553  139.1854  158.0316 H   0  0  0  0  0  0  0  0  0  0  0  0
  149.1135  142.9330  156.2903 H   0  0  0  0  0  0  0  0  0  0  0  0
  144.1226  133.0155  155.1898 H   0  0  0  0  0  0  0  0  0  0  0  0
  1  2  1  0  0  0  0
  1 26  1  0  0  0  0
  1 27  1  0  0  0  0
  1 28  1  0  0  0  0
  2  7  1  0  0  0  0
  2  3  1  0  0  0  0
  2 55  1  0  0  0  0
  3 25  1  0  0  0  0
  3  4  1  0  0  0  0
  3 29  1  0  0  0  0
  4  5  1  0  0  0  0
  4 30  1  0  0  0  0
  4 31  1  0  0  0  0
  5  6  1  0  0  0  0
  5 32  1  0  0  0  0
  5 33  1  0  0  0  0
  6  7  1  0  0  0  0
  6 34  1  0  0  0  0
  6 35  1  0  0  0  0
  7  8  1  0  0  0  0
  7 36  1  0  0  0  0
  8  9  1  0  0  0  0
  8 37  1  0  0  0  0
  8 38  1  0  0  0  0
  9 10  1  0  0  0  0
  9 25  1  0  0  0  0
  9 39  1  0  0  0  0
 10 11  1  0  0  0  0
 10 40  1  0  0  0  0
 11 12  2  0  0  0  0
 11 13  1  0  0  0  0
 13 14  1  0  0  0  0
 13 41  1  0  0  0  0
 14 19  1  0  0  0  0
 14 15  2  0  0  0  0
 15 16  1  0  0  0  0
 15 42  1  0  0  0  0
 16 17  2  0  0  0  0
 16 43  1  0  0  0  0
 17 18  1  0  0  0  0
 17 44  1  0  0  0  0
 18 19  2  0  0  0  0
 18 56  1  0  0  0  0
 19 20  1  0  0  0  0
 20 24  1  0  0  0  0
 20 21  1  0  0  0  0
 21 22  1  0  0  0  0
 21 45  1  0  0  0  0
 21 46  1  0  0  0  0
 22 23  1  0  0  0  0
 22 47  1  0  0  0  0
 22 48  1  0  0  0  0
 23 24  1  0  0  0  0
 23 49  1  0  0  0  0
 23 50  1  0  0  0  0
 24 51  1  0  0  0  0
 24 52  1  0  0  0  0
 25 53  1  0  0  0  0
 25 54  1  0  0  0  0
M  CHG  1   2   1
M  CHG  1  18   1
M  END
> <s_m_source_file>
AV-unprocessed.smi

> <i_m_source_file_index>
2928

> <i_lp_mmshare_version>
43012

> <i_f3d_flags>
0

> <s_epik_input>
W0NIMl0xW0NIMl1bQ0gyXVtDQEhdKE4oW0NIM10pW0NIXTEyKVtDSDJdW0NASF0oW0NIMl0yKVtOSF1DKD1PKVtOSF1jM1tjSF1bY0hdW2NIXW5jM040W0NIMl1bQ0gyXVtDSDJdW0NIMl00

> <s_epik_cmdline>
J2VwaWtfcHl0aG9uJywgJy1waCcsICc3LjAnLCAnLXRuJywgJzgnLCAnLW1hJywgJzIwMCcsICctbWV0YWxfYmluZGluZycsICctaW1hZScsICc8aW5maWxlLm1hZT4nLCAnLW9tYWUnLCAnPG91dGZpbGUubWFlPic=

> <r_lp_tautomer_probability>
0.999994

> <r_epik_Ionization_Penalty>
1.2404

> <r_epik_Ionization_Penalty_Charging>
1.24038

> <r_epik_Ionization_Penalty_Neutral>
1.86539e-05

> <r_epik_State_Penalty>
1.30821

> <r_epik_Charging_Adjusted_Penalty>
2.54859

> <i_epik_Tot_Q>
2

> <i_epik_Tot_abs_Q>
2

> <r_epik_Metal_State_Penalty>
1.3782

> <b_epik_Metal_Only>
0

> <s_lp_Force_Field>
OPLS_2005

> <r_lp_Energy>
76.0972

> <b_lp_Chiralities_Consistent>
1

> <s_lp_Variant>
AV-unprocessed.smi:2928-8

> <Gold.Version>
5.8.1

> <Gold.Id.Protein>
6NUR|6NUR_protein|mol2

> <Gold.PLP.Fitness>
36.1259

> <Gold.PLP.PLP>
-24.6033

> <Gold.PLP.part.hbond>
-2.0000

> <Gold.PLP.part.metal>
0.0000

> <Gold.PLP.part.buried>
-4.8184

> <Gold.PLP.part.nonpolar>
-17.9334

> <Gold.PLP.part.repulsive>
0.1741

> <Gold.PLP.ligand.clash>
0.0000

> <Gold.PLP.ligand.torsion>
0.2768

> <Gold.PLP.Chemscore.Hbond>
4.0000

> <Gold.PLP.Chemscore.CHOScore>
0.0000

> <Gold.PLP.Chemscore.Metal>
0.0000

> <Gold.Chemscore.Hbonds>
donor molecule, donor type, donor heavy atom, donor atom, acceptor molecule, acceptor atom, score
      L1  H     2    55       P1  8028  2.00
      L1  H    18    56       P1 10957  1.92

> <Gold.PLP.Chemscore.Internal.Correction>
0.0762

> <Gold.Rescore>
     Score         DG    S(hbond)    S(metal)    S(lipo)     H(rot)  DE(clash)    DE(int)     intcor
     15.06     -16.34       1.97        0.00      62.55       1.19       0.04       1.24       ----

> <Gold.Chemscore.Fitness>
15.0611

> <Gold.Chemscore.DG>
-16.3448

> <Gold.Chemscore.ZeroCoef>
-5.4800

> <Gold.Chemscore.Hbond>
1.9724

> <Gold.Chemscore.Metal>
0.0000

> <Gold.Chemscore.Lipo>
62.5464

> <Gold.Chemscore.Internal_Hbond>
0.0000

> <Gold.Chemscore.DEClash>
0.0425

> <Gold.Chemscore.DEInternal>
1.2412

> <Gold.Chemscore.Rot>
1.1879

> <Gold.Chemscore.Internal.Correction>
   9.000000E+99

> <Gold.Chemscore.Hbonds>
donor molecule, donor type, donor heavy atom, donor atom, acceptor molecule, acceptor atom, score
      L1  H     2    55       P1  8028  0.97
      L1  H    18    56       P1 10957  0.91

> <Gold.Chemscore.Hbond.Weighted>
-6.5880

> <Gold.Chemscore.Metal.Weighted>
-0.0000

> <Gold.Chemscore.Lipo.Weighted>
-7.3179

> <Gold.Chemscore.Internal_Hbond.Weighted>
0.0000

> <Gold.Chemscore.DEClash.Weighted>
0.0425

> <Gold.Chemscore.DEInternal.Weighted>
1.2412

> <Gold.Chemscore.Rot.Weighted>
3.0410

> <Gold.Chemscore.Internal.Correction.Weighted>
   9.000000E+99

> <Gold.Protein.RotatedTorsions>
[ 6907 6896 6895 6894 ] final  -82.66 input  -60.11 | X-H torsion
[ 7974 7965 7964 7962 ] final  -32.01 input  175.53 | X-H torsion
[ 8008 7997 7996 7995 ] final  134.94 input   59.86 | X-H torsion
[ 10167 10162 10161 10158 ] final  -15.04 input  -65.29 | X-H torsion
[ 10718 10713 10712 10709 ] final   86.25 input   66.30 | X-H torsion
[ 10763 10752 10751 10750 ] final  -42.99 input  -60.55 | X-H torsion
[ 11005 11000 10999 10996 ] final -164.65 input  -57.11 | X-H torsion

> <Gold.Protein.ActiveResidues>
 VAL166  LYS551  ARG553  GLY616  TRP617  ASP618  TYR619  PRO620  LYS621  CYS622 
 ASP623  PHE694  ASN695  SER759  ASP760  ASP761  ALA762  ILE779  LEU786  VAL792 
 PHE793  MET794  SER795  GLU796  ALA797  LYS798  CYS799  TRP800  GLU811  SER814 

> <Gold.Protein.RotatedAtoms>
  150.6894  134.3631  159.4958 H   0  0  0  0  0  0  0  0  0  0  0  0  # atno 6907 bound_to 6896
  152.1457  134.9025  160.0560 H   0  0  0  0  0  0  0  0  0  0  0  0  # atno 6908 bound_to 6896
  152.0142  133.3838  159.4269 H   0  0  0  0  0  0  0  0  0  0  0  0  # atno 6909 bound_to 6896
  146.1023  140.5739  142.8815 H   0  0  0  0  0  0  0  0  0  0  0  0  # atno 7974 bound_to 7965
  156.3001  140.2483  156.3499 H   0  0  0  0  0  0  0  0  0  0  0  0  # atno 8008 bound_to 7997
  154.8975  140.0407  157.1893 H   0  0  0  0  0  0  0  0  0  0  0  0  # atno 8009 bound_to 7997
  154.8534  140.2909  155.5588 H   0  0  0  0  0  0  0  0  0  0  0  0  # atno 8010 bound_to 7997
  140.7212  143.5259  150.9577 H   0  0  0  0  0  0  0  0  0  0  0  0  # atno 10167 bound_to 10162
  157.6926  131.0208  150.2944 H   0  0  0  0  0  0  0  0  0  0  0  0  # atno 10718 bound_to 10713
  153.9881  135.6708  153.4753 H   0  0  0  0  0  0  0  0  0  0  0  0  # atno 10763 bound_to 10752
  153.0717  135.4970  154.8316 H   0  0  0  0  0  0  0  0  0  0  0  0  # atno 10764 bound_to 10752
  154.7125  135.3100  154.9137 H   0  0  0  0  0  0  0  0  0  0  0  0  # atno 10765 bound_to 10752
  140.5845  134.5108  157.5183 H   0  0  0  0  0  0  0  0  0  0  0  0  # atno 11005 bound_to 11000
  144.7443  140.5025  143.6847 LP  0  0  0  0  0  0  0  0  0  0  0  0  # atno 17320 bound_to 7965
  145.5830  139.1490  143.3225 LP  0  0  0  0  0  0  0  0  0  0  0  0  # atno 17321 bound_to 7965
  139.8978  143.6873  152.3136 LP  0  0  0  0  0  0  0  0  0  0  0  0  # atno 17342 bound_to 10162
  139.7212  144.7602  151.0952 LP  0  0  0  0  0  0  0  0  0  0  0  0  # atno 17343 bound_to 10162
  156.3470  130.3824  149.7361 LP  0  0  0  0  0  0  0  0  0  0  0  0  # atno 17370 bound_to 10713
  156.4851  130.8059  151.3072 LP  0  0  0  0  0  0  0  0  0  0  0  0  # atno 17371 bound_to 10713
  139.9302  134.7978  156.0953 LP  0  0  0  0  0  0  0  0  0  0  0  0  # atno 17394 bound_to 11000
  141.0975  133.6690  156.2678 LP  0  0  0  0  0  0  0  0  0  0  0  0  # atno 17395 bound_to 11000

$$$$
