AV-unprocessed.smi:1610|AV-procd|sdf|6472|dock8
  -GOLD-   22720 7133D 1   1.00000     0.00000
 Structure written by MMmdl.
 43 44  0  0  0  0  0  0  0  0  2 V2000
  143.6627  146.4609  155.6410 C   0  0  0  0  0  0  0  0  0  0  0  0
  143.7432  144.9060  154.6671 S   0  0  0  0  0  0  0  0  0  0  0  0
  142.4356  144.2542  154.8443 O   0  0  0  0  0  0  0  0  0  0  0  0
  144.1155  145.3090  153.3016 O   0  0  0  0  0  0  0  0  0  0  0  0
  144.9385  144.1347  155.4443 N   0  5  0  0  0  0  0  0  0  0  0  0
  145.2841  142.7669  155.0838 C   0  0  0  0  0  0  0  0  0  0  0  0
  146.0518  142.0951  156.2557 C   0  0  0  0  0  0  0  0  0  0  0  0
  146.7119  140.7407  155.8748 C   0  0  0  0  0  0  0  0  0  0  0  0
  147.6171  140.9233  154.7212 N   0  0  0  0  0  0  0  0  0  0  0  0
  148.9665  141.0490  154.7622 C   0  0  0  0  0  0  0  0  0  0  0  0
  149.6640  141.1296  153.7500 O   0  0  0  0  0  0  0  0  0  0  0  0
  149.4817  141.1390  156.0011 N   0  0  0  0  0  0  0  0  0  0  0  0
  150.8437  141.5593  156.3248 C   0  0  0  0  0  0  0  0  0  0  0  0
  151.1786  141.3076  157.8099 C   0  0  0  0  0  0  0  0  0  0  0  0
  151.4439  142.5691  158.6211 C   0  0  0  0  0  0  0  0  0  0  0  0
  152.1610  142.5233  159.8358 C   0  0  0  0  0  0  0  0  0  0  0  0
  152.4167  143.7265  160.5211 C   0  0  0  0  0  0  0  0  0  0  0  0
  151.9303  144.9288  159.9710 C   0  0  0  0  0  0  0  0  0  0  0  0
  151.2213  144.9837  158.8234 N   0  0  0  0  0  0  0  0  0  0  0  0
  150.9907  143.8266  158.1669 C   0  0  0  0  0  0  0  0  0  0  0  0
  146.8289  141.3416  153.5490 C   0  0  0  0  0  0  0  0  0  0  0  0
  146.1802  142.7310  153.8122 C   0  0  0  0  0  0  0  0  0  0  0  0
  142.8776  147.0992  155.2373 H   0  0  0  0  0  0  0  0  0  0  0  0
  144.6199  146.9779  155.5787 H   0  0  0  0  0  0  0  0  0  0  0  0
  143.4419  146.2266  156.6820 H   0  0  0  0  0  0  0  0  0  0  0  0
  144.3959  142.1649  154.8886 H   0  0  0  0  0  0  0  0  0  0  0  0
  146.8361  142.7650  156.6067 H   0  0  0  0  0  0  0  0  0  0  0  0
  145.3784  141.9501  157.1010 H   0  0  0  0  0  0  0  0  0  0  0  0
  147.2137  140.3203  156.7462 H   0  0  0  0  0  0  0  0  0  0  0  0
  145.9500  140.0023  155.6163 H   0  0  0  0  0  0  0  0  0  0  0  0
  148.8422  141.0475  156.7770 H   0  0  0  0  0  0  0  0  0  0  0  0
  151.5451  141.0203  155.6877 H   0  0  0  0  0  0  0  0  0  0  0  0
  150.9878  142.6172  156.1012 H   0  0  0  0  0  0  0  0  0  0  0  0
  150.3497  140.7678  158.2693 H   0  0  0  0  0  0  0  0  0  0  0  0
  152.0459  140.6515  157.8872 H   0  0  0  0  0  0  0  0  0  0  0  0
  152.5290  141.5862  160.2263 H   0  0  0  0  0  0  0  0  0  0  0  0
  152.9792  143.7296  161.4426 H   0  0  0  0  0  0  0  0  0  0  0  0
  152.1129  145.8705  160.4671 H   0  0  0  0  0  0  0  0  0  0  0  0
  150.4359  143.9116  157.2444 H   0  0  0  0  0  0  0  0  0  0  0  0
  147.4356  141.3901  152.6438 H   0  0  0  0  0  0  0  0  0  0  0  0
  146.0657  140.5898  153.3365 H   0  0  0  0  0  0  0  0  0  0  0  0
  145.5973  143.0245  152.9391 H   0  0  0  0  0  0  0  0  0  0  0  0
  146.9771  143.4709  153.9066 H   0  0  0  0  0  0  0  0  0  0  0  0
  1  2  1  0  0  0  0
  1 23  1  0  0  0  0
  1 24  1  0  0  0  0
  1 25  1  0  0  0  0
  2  3  2  0  0  0  0
  2  4  2  0  0  0  0
  2  5  1  0  0  0  0
  5  6  1  0  0  0  0
  6 22  1  0  0  0  0
  6  7  1  0  0  0  0
  6 26  1  0  0  0  0
  7  8  1  0  0  0  0
  7 27  1  0  0  0  0
  7 28  1  0  0  0  0
  8  9  1  0  0  0  0
  8 29  1  0  0  0  0
  8 30  1  0  0  0  0
  9 10  1  0  0  0  0
  9 21  1  0  0  0  0
 10 11  2  0  0  0  0
 10 12  1  0  0  0  0
 12 13  1  0  0  0  0
 12 31  1  0  0  0  0
 13 14  1  0  0  0  0
 13 32  1  0  0  0  0
 13 33  1  0  0  0  0
 14 15  1  0  0  0  0
 14 34  1  0  0  0  0
 14 35  1  0  0  0  0
 15 20  1  0  0  0  0
 15 16  2  0  0  0  0
 16 17  1  0  0  0  0
 16 36  1  0  0  0  0
 17 18  2  0  0  0  0
 17 37  1  0  0  0  0
 18 19  1  0  0  0  0
 18 38  1  0  0  0  0
 19 20  2  0  0  0  0
 20 39  1  0  0  0  0
 21 22  1  0  0  0  0
 21 40  1  0  0  0  0
 21 41  1  0  0  0  0
 22 42  1  0  0  0  0
 22 43  1  0  0  0  0
M  CHG  1   5  -1
M  END
> <s_m_source_file>
AV-unprocessed.smi

> <i_m_source_file_index>
1610

> <i_lp_mmshare_version>
43012

> <i_f3d_flags>
0

> <s_epik_input>
W0NIM11TKD1PKSg9TylbTkhdW0NIXTFbQ0gyXVtDSDJdTihbQ0gyXVtDSDJdMSlDKD1PKVtOSF1bQ0gyXVtDSDJdYzJbY0hdW2NIXVtjSF1uW2NIXTI=

> <s_epik_cmdline>
J2VwaWtfcHl0aG9uJywgJy1waCcsICc3LjAnLCAnLXRuJywgJzgnLCAnLW1hJywgJzIwMCcsICctbWV0YWxfYmluZGluZycsICctaW1hZScsICc8aW5maWxlLm1hZT4nLCAnLW9tYWUnLCAnPG91dGZpbGUubWFlPic=

> <r_epik_Ionization_Penalty>
6.72257

> <r_epik_Ionization_Penalty_Charging>
6.70803

> <r_epik_Ionization_Penalty_Neutral>
0.0145361

> <r_epik_State_Penalty>
6.71933

> <r_epik_Charging_Adjusted_Penalty>
13.4274

> <i_epik_Tot_Q>
-1

> <i_epik_Tot_abs_Q>
1

> <r_epik_Metal_State_Penalty>
2.65475

> <b_epik_Metal_Only>
1

> <s_lp_Force_Field>
OPLS_2005

> <r_lp_Energy>
25.1746

> <b_lp_Chiralities_Consistent>
1

> <s_lp_Variant>
AV-unprocessed.smi:1610-3

> <Gold.Version>
5.8.1

> <Gold.Id.Protein>
6NUR|6NUR_protein|mol2

> <Gold.PLP.Fitness>
46.0310

> <Gold.PLP.PLP>
-41.7385

> <Gold.PLP.part.hbond>
-3.0000

> <Gold.PLP.part.metal>
0.0000

> <Gold.PLP.part.buried>
-6.7831

> <Gold.PLP.part.nonpolar>
-34.7873

> <Gold.PLP.part.repulsive>
2.8706

> <Gold.PLP.ligand.clash>
0.0000

> <Gold.PLP.ligand.torsion>
1.7565

> <Gold.PLP.Chemscore.Hbond>
1.2480

> <Gold.PLP.Chemscore.CHOScore>
1.0000

> <Gold.PLP.Chemscore.Metal>
0.0000

> <Gold.Chemscore.Hbonds>
donor molecule, donor type, donor heavy atom, donor atom, acceptor molecule, acceptor atom, score
      P1  H  7989  7998       L1    11  0.30
      P1  H  8011  8017       L1    11  0.91
      L1  C    20    39       P1  8028  1.00

> <Gold.PLP.Chemscore.Internal.Correction>
1.0616

> <Gold.Rescore>
     Score         DG    S(hbond)    S(metal)    S(lipo)     H(rot)  DE(clash)    DE(int)     intcor
     13.71     -16.83       1.21        0.00      99.33       1.68       1.37       1.75       ----

> <Gold.Chemscore.Fitness>
13.7053

> <Gold.Chemscore.DG>
-16.8263

> <Gold.Chemscore.ZeroCoef>
-5.4800

> <Gold.Chemscore.Hbond>
1.2064

> <Gold.Chemscore.Metal>
0.0000

> <Gold.Chemscore.Lipo>
99.3254

> <Gold.Chemscore.Internal_Hbond>
0.0000

> <Gold.Chemscore.DEClash>
1.3695

> <Gold.Chemscore.DEInternal>
1.7514

> <Gold.Chemscore.Rot>
1.6813

> <Gold.Chemscore.Internal.Correction>
   9.000000E+99

> <Gold.Chemscore.Hbonds>
donor molecule, donor type, donor heavy atom, donor atom, acceptor molecule, acceptor atom, score
      P1  H  7989  7998       L1    11  0.30
      P1  H  8011  8017       L1    11  0.88

> <Gold.Chemscore.Hbond.Weighted>
-4.0295

> <Gold.Chemscore.Metal.Weighted>
-0.0000

> <Gold.Chemscore.Lipo.Weighted>
-11.6211

> <Gold.Chemscore.Internal_Hbond.Weighted>
0.0000

> <Gold.Chemscore.DEClash.Weighted>
1.3695

> <Gold.Chemscore.DEInternal.Weighted>
1.7514

> <Gold.Chemscore.Rot.Weighted>
4.3042

> <Gold.Chemscore.Internal.Correction.Weighted>
   9.000000E+99

> <Gold.Protein.RotatedTorsions>
[ 6907 6896 6895 6894 ] final -163.72 input  -60.11 | X-H torsion
[ 7974 7965 7964 7962 ] final  -47.11 input  175.53 | X-H torsion
[ 8008 7997 7996 7995 ] final  127.18 input   59.86 | X-H torsion
[ 10167 10162 10161 10158 ] final  -95.88 input  -65.29 | X-H torsion
[ 10718 10713 10712 10709 ] final -104.59 input   66.30 | X-H torsion
[ 10763 10752 10751 10750 ] final -105.00 input  -60.55 | X-H torsion
[ 11005 11000 10999 10996 ] final -109.98 input  -57.11 | X-H torsion

> <Gold.Protein.ActiveResidues>
 VAL166  LYS551  ARG553  GLY616  TRP617  ASP618  TYR619  PRO620  LYS621  CYS622 
 ASP623  PHE694  ASN695  SER759  ASP760  ASP761  ALA762  ILE779  LEU786  VAL792 
 PHE793  MET794  SER795  GLU796  ALA797  LYS798  CYS799  TRP800  GLU811  SER814 

> <Gold.Protein.RotatedAtoms>
  151.4005  133.3759  159.2731 H   0  0  0  0  0  0  0  0  0  0  0  0  # atno 6907 bound_to 6896
  150.9437  134.8845  159.7639 H   0  0  0  0  0  0  0  0  0  0  0  0  # atno 6908 bound_to 6896
  152.5082  134.3957  159.9451 H   0  0  0  0  0  0  0  0  0  0  0  0  # atno 6909 bound_to 6896
  145.9650  140.7441  142.9439 H   0  0  0  0  0  0  0  0  0  0  0  0  # atno 7974 bound_to 7965
  156.2884  140.2675  156.2232 H   0  0  0  0  0  0  0  0  0  0  0  0  # atno 8008 bound_to 7997
  155.0147  140.0387  157.2431 H   0  0  0  0  0  0  0  0  0  0  0  0  # atno 8009 bound_to 7997
  154.7487  140.2739  155.6316 H   0  0  0  0  0  0  0  0  0  0  0  0  # atno 8010 bound_to 7997
  140.2996  143.3170  152.0262 H   0  0  0  0  0  0  0  0  0  0  0  0  # atno 10167 bound_to 10162
  156.0311  130.5522  150.7418 H   0  0  0  0  0  0  0  0  0  0  0  0  # atno 10718 bound_to 10713
  154.7916  135.4765  154.0067 H   0  0  0  0  0  0  0  0  0  0  0  0  # atno 10763 bound_to 10752
  153.1640  135.6813  153.8708 H   0  0  0  0  0  0  0  0  0  0  0  0  # atno 10764 bound_to 10752
  153.8313  135.3191  155.3397 H   0  0  0  0  0  0  0  0  0  0  0  0  # atno 10765 bound_to 10752
  141.0817  133.9208  157.2273 H   0  0  0  0  0  0  0  0  0  0  0  0  # atno 11005 bound_to 11000
  144.6823  140.2653  143.7313 LP  0  0  0  0  0  0  0  0  0  0  0  0  # atno 17320 bound_to 7965
  145.7987  139.1955  143.2060 LP  0  0  0  0  0  0  0  0  0  0  0  0  # atno 17321 bound_to 7965
  139.4918  144.6465  151.6766 LP  0  0  0  0  0  0  0  0  0  0  0  0  # atno 17342 bound_to 10162
  140.5662  144.0185  150.6194 LP  0  0  0  0  0  0  0  0  0  0  0  0  # atno 17343 bound_to 10162
  157.4985  131.0916  151.0342 LP  0  0  0  0  0  0  0  0  0  0  0  0  # atno 17370 bound_to 10713
  157.0730  130.5872  149.5406 LP  0  0  0  0  0  0  0  0  0  0  0  0  # atno 17371 bound_to 10713
  139.9632  135.0149  156.9317 LP  0  0  0  0  0  0  0  0  0  0  0  0  # atno 17394 bound_to 11000
  140.5453  134.0680  155.7353 LP  0  0  0  0  0  0  0  0  0  0  0  0  # atno 17395 bound_to 11000

$$$$
