AV-unprocessed.smi:1356|AV-procd|sdf|5545|dock1
  -GOLD-   22720 5133D 1   1.00000     0.00000
 Structure written by MMmdl.
 42 43  0  0  0  0  0  0  0  0  2 V2000
  147.2930  132.2894  155.2462 C   0  0  0  0  0  0  0  0  0  0  0  0
  148.3456  132.2837  154.1514 C   0  0  1  0  0  0  0  0  0  0  0  0
  148.3546  133.3501  153.0825 C   0  0  0  0  0  0  0  0  0  0  0  0
  149.5032  133.2706  154.0691 C   0  0  1  0  0  0  0  0  0  0  0  0
  149.6342  134.3627  155.0850 C   0  0  0  0  0  0  0  0  0  0  0  0
  149.7415  134.1591  156.2951 O   0  0  0  0  0  0  0  0  0  0  0  0
  149.6166  135.5951  154.5576 N   0  0  0  0  0  0  0  0  0  0  0  0
  149.7314  136.8225  155.3331 C   0  0  0  0  0  0  0  0  0  0  0  0
  150.6310  137.8398  154.6134 C   0  0  0  0  0  0  0  0  0  0  0  0
  150.3693  139.2661  155.0996 C   0  0  0  0  0  0  0  0  0  0  0  0
  150.3217  140.1948  154.2935 O   0  0  0  0  0  0  0  0  0  0  0  0
  150.2202  139.4304  156.4228 N   0  0  0  0  0  0  0  0  0  0  0  0
  150.0328  140.7127  157.0963 C   0  0  0  0  0  0  0  0  0  0  0  0
  151.0982  141.7622  156.7135 C   0  0  0  0  0  0  0  0  0  0  0  0
  151.3973  142.7621  157.8175 C   0  0  0  0  0  0  0  0  0  0  0  0
  152.1925  142.4297  158.9364 C   0  0  0  0  0  0  0  0  0  0  0  0
  152.4198  143.4002  159.9340 C   0  0  0  0  0  0  0  0  0  0  0  0
  151.8506  144.6826  159.7906 C   0  0  0  0  0  0  0  0  0  0  0  0
  151.0671  144.9616  158.6520 C   0  0  0  0  0  0  0  0  0  0  0  0
  150.8710  144.0041  157.7188 N   0  3  0  0  0  0  0  0  0  0  0  0
  146.8838  133.2865  155.4062 H   0  0  0  0  0  0  0  0  0  0  0  0
  147.7229  131.9309  156.1816 H   0  0  0  0  0  0  0  0  0  0  0  0
  146.4700  131.6303  154.9701 H   0  0  0  0  0  0  0  0  0  0  0  0
  148.6017  131.2753  153.8322 H   0  0  0  0  0  0  0  0  0  0  0  0
  148.5623  133.0436  152.0594 H   0  0  0  0  0  0  0  0  0  0  0  0
  147.6399  134.1658  153.1771 H   0  0  0  0  0  0  0  0  0  0  0  0
  150.4408  132.8594  153.6976 H   0  0  0  0  0  0  0  0  0  0  0  0
  149.5259  135.6866  153.5559 H   0  0  0  0  0  0  0  0  0  0  0  0
  148.7358  137.2439  155.4857 H   0  0  0  0  0  0  0  0  0  0  0  0
  150.1361  136.5852  156.3186 H   0  0  0  0  0  0  0  0  0  0  0  0
  151.6810  137.6019  154.7884 H   0  0  0  0  0  0  0  0  0  0  0  0
  150.4721  137.7808  153.5354 H   0  0  0  0  0  0  0  0  0  0  0  0
  150.2614  138.6090  157.0089 H   0  0  0  0  0  0  0  0  0  0  0  0
  149.0309  141.0977  156.9007 H   0  0  0  0  0  0  0  0  0  0  0  0
  150.0841  140.5217  158.1685 H   0  0  0  0  0  0  0  0  0  0  0  0
  152.0264  141.2596  156.4385 H   0  0  0  0  0  0  0  0  0  0  0  0
  150.7776  142.3018  155.8215 H   0  0  0  0  0  0  0  0  0  0  0  0
  152.6174  141.4409  159.0342 H   0  0  0  0  0  0  0  0  0  0  0  0
  153.0219  143.1630  160.7990 H   0  0  0  0  0  0  0  0  0  0  0  0
  152.0124  145.4408  160.5429 H   0  0  0  0  0  0  0  0  0  0  0  0
  150.5941  145.9139  158.4616 H   0  0  0  0  0  0  0  0  0  0  0  0
  150.2994  144.2280  156.9038 H   0  0  0  0  0  0  0  0  0  0  0  0
  1  2  1  0  0  0  0
  1 21  1  0  0  0  0
  1 22  1  0  0  0  0
  1 23  1  0  0  0  0
  2  4  1  0  0  0  0
  2  3  1  0  0  0  0
  2 24  1  0  0  0  0
  3  4  1  0  0  0  0
  3 25  1  0  0  0  0
  3 26  1  0  0  0  0
  4  5  1  0  0  0  0
  4 27  1  0  0  0  0
  5  6  2  0  0  0  0
  5  7  1  0  0  0  0
  7  8  1  0  0  0  0
  7 28  1  0  0  0  0
  8  9  1  0  0  0  0
  8 29  1  0  0  0  0
  8 30  1  0  0  0  0
  9 10  1  0  0  0  0
  9 31  1  0  0  0  0
  9 32  1  0  0  0  0
 10 11  2  0  0  0  0
 10 12  1  0  0  0  0
 12 13  1  0  0  0  0
 12 33  1  0  0  0  0
 13 14  1  0  0  0  0
 13 34  1  0  0  0  0
 13 35  1  0  0  0  0
 14 15  1  0  0  0  0
 14 36  1  0  0  0  0
 14 37  1  0  0  0  0
 15 20  1  0  0  0  0
 15 16  2  0  0  0  0
 16 17  1  0  0  0  0
 16 38  1  0  0  0  0
 17 18  2  0  0  0  0
 17 39  1  0  0  0  0
 18 19  1  0  0  0  0
 18 40  1  0  0  0  0
 19 20  2  0  0  0  0
 19 41  1  0  0  0  0
 20 42  1  0  0  0  0
M  CHG  1  20   1
M  END
> <s_m_source_file>
AV-unprocessed.smi

> <i_m_source_file_index>
1356

> <i_lp_mmshare_version>
43012

> <i_f3d_flags>
0

> <s_epik_input>
W0NIM11bQ0BASF0xW0NIMl1bQ0BIXTFDKD1PKVtOSF1bQ0gyXVtDSDJdQyg9TylbTkhdW0NIMl1bQ0gyXWMyW2NIXVtjSF1bY0hdW2NIXW4y

> <s_epik_cmdline>
J2VwaWtfcHl0aG9uJywgJy1waCcsICc3LjAnLCAnLXRuJywgJzgnLCAnLW1hJywgJzIwMCcsICctbWV0YWxfYmluZGluZycsICctaW1hZScsICc8aW5maWxlLm1hZT4nLCAnLW9tYWUnLCAnPG91dGZpbGUubWFlPic=

> <r_epik_Ionization_Penalty>
1.86966

> <r_epik_Ionization_Penalty_Charging>
1.86966

> <r_epik_Ionization_Penalty_Neutral>
5.0403e-08

> <r_epik_State_Penalty>
1.98858

> <r_epik_Charging_Adjusted_Penalty>
3.85824

> <i_epik_Tot_Q>
1

> <i_epik_Tot_abs_Q>
1

> <r_epik_Metal_State_Penalty>
2.01347

> <b_epik_Metal_Only>
0

> <s_lp_Force_Field>
OPLS_2005

> <r_lp_Energy>
15.5699

> <b_lp_Chiralities_Consistent>
1

> <s_lp_Variant>
AV-unprocessed.smi:1356-6

> <Gold.Version>
5.8.1

> <Gold.Id.Protein>
6NUR|6NUR_protein|mol2

> <Gold.PLP.Fitness>
51.7455

> <Gold.PLP.PLP>
-41.2914

> <Gold.PLP.part.hbond>
-3.0000

> <Gold.PLP.part.metal>
0.0000

> <Gold.PLP.part.buried>
-6.8713

> <Gold.PLP.part.nonpolar>
-32.2797

> <Gold.PLP.part.repulsive>
0.2131

> <Gold.PLP.ligand.clash>
0.0000

> <Gold.PLP.ligand.torsion>
0.9830

> <Gold.PLP.Chemscore.Hbond>
4.0000

> <Gold.PLP.Chemscore.CHOScore>
0.0000

> <Gold.PLP.Chemscore.Metal>
0.0000

> <Gold.Chemscore.Hbonds>
donor molecule, donor type, donor heavy atom, donor atom, acceptor molecule, acceptor atom, score
      L1  H     7    28       P1  7948  0.95
      L1  H    20    42       P1  8028  2.00
      P1  H  7989  7998       L1    11  1.00

> <Gold.PLP.Chemscore.Internal.Correction>
0.4201

> <Gold.Rescore>
     Score         DG    S(hbond)    S(metal)    S(lipo)     H(rot)  DE(clash)    DE(int)     intcor
     17.72     -20.13       2.73        0.00      98.02       2.31       0.33       2.09       ----

> <Gold.Chemscore.Fitness>
17.7164

> <Gold.Chemscore.DG>
-20.1343

> <Gold.Chemscore.ZeroCoef>
-5.4800

> <Gold.Chemscore.Hbond>
2.7274

> <Gold.Chemscore.Metal>
0.0000

> <Gold.Chemscore.Lipo>
98.0237

> <Gold.Chemscore.Internal_Hbond>
0.0000

> <Gold.Chemscore.DEClash>
0.3277

> <Gold.Chemscore.DEInternal>
2.0902

> <Gold.Chemscore.Rot>
2.3140

> <Gold.Chemscore.Internal.Correction>
   9.000000E+99

> <Gold.Chemscore.Hbonds>
donor molecule, donor type, donor heavy atom, donor atom, acceptor molecule, acceptor atom, score
      L1  H     7    28       P1  7948  0.22
      L1  H    20    42       P1  8028  0.95
      P1  H  7989  7998       L1    11  0.97

> <Gold.Chemscore.Hbond.Weighted>
-9.1094

> <Gold.Chemscore.Metal.Weighted>
-0.0000

> <Gold.Chemscore.Lipo.Weighted>
-11.4688

> <Gold.Chemscore.Internal_Hbond.Weighted>
0.0000

> <Gold.Chemscore.DEClash.Weighted>
0.3277

> <Gold.Chemscore.DEInternal.Weighted>
2.0902

> <Gold.Chemscore.Rot.Weighted>
5.9238

> <Gold.Chemscore.Internal.Correction.Weighted>
   9.000000E+99

> <Gold.Protein.RotatedTorsions>
[ 6907 6896 6895 6894 ] final  132.97 input  -60.11 | X-H torsion
[ 7974 7965 7964 7962 ] final   -9.61 input  175.53 | X-H torsion
[ 8008 7997 7996 7995 ] final   94.77 input   59.86 | X-H torsion
[ 10167 10162 10161 10158 ] final  169.44 input  -65.29 | X-H torsion
[ 10718 10713 10712 10709 ] final  166.01 input   66.30 | X-H torsion
[ 10763 10752 10751 10750 ] final   12.30 input  -60.55 | X-H torsion
[ 11005 11000 10999 10996 ] final -177.30 input  -57.11 | X-H torsion

> <Gold.Protein.ActiveResidues>
 VAL166  LYS551  ARG553  GLY616  TRP617  ASP618  TYR619  PRO620  LYS621  CYS622 
 ASP623  PHE694  ASN695  SER759  ASP760  ASP761  ALA762  ILE779  LEU786  VAL792 
 PHE793  MET794  SER795  GLU796  ALA797  LYS798  CYS799  TRP800  GLU811  SER814 

> <Gold.Protein.RotatedAtoms>
  152.3268  133.5914  159.5782 H   0  0  0  0  0  0  0  0  0  0  0  0  # atno 6907 bound_to 6896
  150.7401  133.9928  159.3621 H   0  0  0  0  0  0  0  0  0  0  0  0  # atno 6908 bound_to 6896
  151.7807  135.0763  160.0424 H   0  0  0  0  0  0  0  0  0  0  0  0  # atno 6909 bound_to 6896
  146.2246  140.2641  142.8353 H   0  0  0  0  0  0  0  0  0  0  0  0  # atno 7974 bound_to 7965
  156.0616  140.3295  155.7468 H   0  0  0  0  0  0  0  0  0  0  0  0  # atno 8008 bound_to 7997
  155.5446  140.0605  157.2880 H   0  0  0  0  0  0  0  0  0  0  0  0  # atno 8009 bound_to 7997
  154.4484  140.1905  156.0614 H   0  0  0  0  0  0  0  0  0  0  0  0  # atno 8010 bound_to 7997
  139.4992  144.3705  151.9729 H   0  0  0  0  0  0  0  0  0  0  0  0  # atno 10167 bound_to 10162
  157.0720  131.0369  151.2608 H   0  0  0  0  0  0  0  0  0  0  0  0  # atno 10718 bound_to 10713
  153.1837  135.6832  153.8444 H   0  0  0  0  0  0  0  0  0  0  0  0  # atno 10763 bound_to 10752
  153.7767  135.3188  155.3361 H   0  0  0  0  0  0  0  0  0  0  0  0  # atno 10764 bound_to 10752
  154.8075  135.4739  154.0527 H   0  0  0  0  0  0  0  0  0  0  0  0  # atno 10765 bound_to 10752
  140.4425  134.6418  157.4764 H   0  0  0  0  0  0  0  0  0  0  0  0  # atno 11005 bound_to 11000
  144.9317  140.7982  143.5685 LP  0  0  0  0  0  0  0  0  0  0  0  0  # atno 17320 bound_to 7965
  145.2585  139.2002  143.4904 LP  0  0  0  0  0  0  0  0  0  0  0  0  # atno 17321 bound_to 7965
  140.3141  144.3504  150.6026 LP  0  0  0  0  0  0  0  0  0  0  0  0  # atno 17342 bound_to 10162
  140.5775  143.2175  151.7488 LP  0  0  0  0  0  0  0  0  0  0  0  0  # atno 17343 bound_to 10162
  157.4870  130.7799  149.7470 LP  0  0  0  0  0  0  0  0  0  0  0  0  # atno 17370 bound_to 10713
  155.9948  130.3916  150.2846 LP  0  0  0  0  0  0  0  0  0  0  0  0  # atno 17371 bound_to 10713
  140.0060  134.6763  155.9454 LP  0  0  0  0  0  0  0  0  0  0  0  0  # atno 17394 bound_to 11000
  141.1699  133.6537  156.4615 LP  0  0  0  0  0  0  0  0  0  0  0  0  # atno 17395 bound_to 11000

$$$$
