AV-unprocessed.smi:2124|AV-procd|sdf|8660|dock3
  -GOLD-   2272011413D 1   1.00000     0.00000
 Structure written by MMmdl.
 47 49  0  0  0  0  0  0  0  0  1 V2000
  148.5410  140.0791  154.1469 C   0  0  0  0  0  0  0  0  0  0  0  0
  149.6575  139.6367  155.0678 C   0  0  0  0  0  0  0  0  0  0  0  0
  149.2116  139.0379  156.2344 N   0  0  0  0  0  0  0  0  0  0  0  0
  150.1600  138.6142  157.1485 C   0  0  0  0  0  0  0  0  0  0  0  0
  149.5873  137.9807  158.4043 C   0  0  0  0  0  0  0  0  0  0  0  0
  151.4865  138.7670  156.9055 C   0  0  0  0  0  0  0  0  0  0  0  0
  152.5674  138.3126  157.8859 C   0  0  0  0  0  0  0  0  0  0  0  0
  153.3577  139.4195  158.5891 C   0  0  0  0  0  0  0  0  0  0  0  0
  154.5753  139.3208  158.7444 O   0  0  0  0  0  0  0  0  0  0  0  0
  152.6396  140.4760  159.0008 N   0  0  0  0  0  0  0  0  0  0  0  0
  153.1629  141.6643  159.6735 C   0  0  2  0  0  0  0  0  0  0  0  0
  153.8000  141.2258  161.0028 C   0  0  0  0  0  0  0  0  0  0  0  0
  152.0330  142.7046  159.8771 C   0  0  1  0  0  0  0  0  0  0  0  0
  152.4640  143.9267  160.7253 C   0  0  0  0  0  0  0  0  0  0  0  0
  152.0970  145.1263  159.8340 C   0  0  2  0  0  0  0  0  0  0  0  0
  150.5657  145.2563  159.7485 C   0  0  0  0  0  0  0  0  0  0  0  0
  150.1763  144.0646  158.8545 C   0  0  0  0  0  0  0  0  0  0  0  0
  151.5329  143.3891  158.5774 C   0  0  1  0  0  0  0  0  0  0  0  0
  152.4518  144.5992  158.4501 C   0  0  0  0  0  0  0  0  0  0  0  0
  151.9034  139.3939  155.6290 C   0  0  0  0  0  0  0  0  0  0  0  0
  153.0908  139.5354  155.3391 O   0  0  0  0  0  0  0  0  0  0  0  0
  150.9011  139.8239  154.7441 N   0  0  0  0  0  0  0  0  0  0  0  0
  148.2352  138.9019  156.4535 H   0  0  0  0  0  0  0  0  0  0  0  0
  148.9295  140.6808  153.3241 H   0  0  0  0  0  0  0  0  0  0  0  0
  147.8110  140.6795  154.6910 H   0  0  0  0  0  0  0  0  0  0  0  0
  148.0324  139.2113  153.7262 H   0  0  0  0  0  0  0  0  0  0  0  0
  149.8649  138.5604  159.2847 H   0  0  0  0  0  0  0  0  0  0  0  0
  149.9655  136.9651  158.5253 H   0  0  0  0  0  0  0  0  0  0  0  0
  148.4983  137.9297  158.3678 H   0  0  0  0  0  0  0  0  0  0  0  0
  153.2821  137.6863  157.3519 H   0  0  0  0  0  0  0  0  0  0  0  0
  152.1356  137.6563  158.6426 H   0  0  0  0  0  0  0  0  0  0  0  0
  151.6457  140.4625  158.8225 H   0  0  0  0  0  0  0  0  0  0  0  0
  153.9481  142.1195  159.0680 H   0  0  0  0  0  0  0  0  0  0  0  0
  154.2452  142.0670  161.5337 H   0  0  0  0  0  0  0  0  0  0  0  0
  154.5919  140.4950  160.8345 H   0  0  0  0  0  0  0  0  0  0  0  0
  153.0635  140.7696  161.6651 H   0  0  0  0  0  0  0  0  0  0  0  0
  151.1955  142.1987  160.3607 H   0  0  0  0  0  0  0  0  0  0  0  0
  151.9621  143.9582  161.6930 H   0  0  0  0  0  0  0  0  0  0  0  0
  153.5384  143.9265  160.9127 H   0  0  0  0  0  0  0  0  0  0  0  0
  152.5995  146.0514  160.1180 H   0  0  0  0  0  0  0  0  0  0  0  0
  150.0929  145.2131  160.7302 H   0  0  0  0  0  0  0  0  0  0  0  0
  150.2800  146.1983  159.2787 H   0  0  0  0  0  0  0  0  0  0  0  0
  149.4646  143.3941  159.3376 H   0  0  0  0  0  0  0  0  0  0  0  0
  149.7240  144.4160  157.9261 H   0  0  0  0  0  0  0  0  0  0  0  0
  151.5068  142.7439  157.6996 H   0  0  0  0  0  0  0  0  0  0  0  0
  152.1664  145.2759  157.6430 H   0  0  0  0  0  0  0  0  0  0  0  0
  153.5056  144.3378  158.3405 H   0  0  0  0  0  0  0  0  0  0  0  0
  1 24  1  0  0  0  0
  1 25  1  0  0  0  0
  1 26  1  0  0  0  0
  1  2  1  0  0  0  0
  2  3  1  0  0  0  0
  2 22  2  0  0  0  0
  3  4  1  0  0  0  0
  3 23  1  0  0  0  0
  4  6  2  0  0  0  0
  4  5  1  0  0  0  0
  5 27  1  0  0  0  0
  5 28  1  0  0  0  0
  5 29  1  0  0  0  0
  6 20  1  0  0  0  0
  6  7  1  0  0  0  0
  7  8  1  0  0  0  0
  7 30  1  0  0  0  0
  7 31  1  0  0  0  0
  8  9  2  0  0  0  0
  8 10  1  0  0  0  0
 10 11  1  0  0  0  0
 10 32  1  0  0  0  0
 11 12  1  0  0  0  0
 11 13  1  0  0  0  0
 11 33  1  0  0  0  0
 12 34  1  0  0  0  0
 12 35  1  0  0  0  0
 12 36  1  0  0  0  0
 13 18  1  0  0  0  0
 13 14  1  0  0  0  0
 13 37  1  0  0  0  0
 14 15  1  0  0  0  0
 14 38  1  0  0  0  0
 14 39  1  0  0  0  0
 15 19  1  0  0  0  0
 15 16  1  0  0  0  0
 15 40  1  0  0  0  0
 16 17  1  0  0  0  0
 16 41  1  0  0  0  0
 16 42  1  0  0  0  0
 17 18  1  0  0  0  0
 17 43  1  0  0  0  0
 17 44  1  0  0  0  0
 18 19  1  0  0  0  0
 18 45  1  0  0  0  0
 19 46  1  0  0  0  0
 19 47  1  0  0  0  0
 20 21  2  0  0  0  0
 20 22  1  0  0  0  0
M  END
> <s_m_source_file>
AV-unprocessed.smi

> <i_m_source_file_index>
2124

> <i_lp_mmshare_version>
43012

> <i_f3d_flags>
0

> <s_epik_input>
W0NIM11jMW5jKFtDSDNdKWMoYyg9TylbbkhdMSlbQ0gyXUMoPU8pW05IXVtDQEhdKFtDSDNdKVtDQEhdKFtDSDJdW0NASF0yMylbQ0BIXShbQ0gyXTMpW0NIMl1bQ0gyXTI=

> <s_epik_cmdline>
J2VwaWtfcHl0aG9uJywgJy1waCcsICc3LjAnLCAnLXRuJywgJzgnLCAnLW1hJywgJzIwMCcsICctbWV0YWxfYmluZGluZycsICctaW1hZScsICc8aW5maWxlLm1hZT4nLCAnLW9tYWUnLCAnPG91dGZpbGUubWFlPic=

> <r_lp_tautomer_probability>
0.156392

> <r_epik_Ionization_Penalty>
0.0139374

> <r_epik_Ionization_Penalty_Charging>
0.0138122

> <r_epik_Ionization_Penalty_Neutral>
0.000125146

> <r_epik_State_Penalty>
1.15342

> <r_epik_Charging_Adjusted_Penalty>
1.16723

> <i_epik_Tot_Q>
0

> <i_epik_Tot_abs_Q>
0

> <r_epik_Metal_State_Penalty>
1.3173

> <b_epik_Metal_Only>
0

> <s_lp_Force_Field>
OPLS_2005

> <r_lp_Energy>
56.0933

> <b_lp_Chiralities_Consistent>
1

> <s_lp_Variant>
AV-unprocessed.smi:2124-11

> <Gold.Version>
5.8.1

> <Gold.Id.Protein>
6NUR|6NUR_protein|mol2

> <Gold.PLP.Fitness>
53.2827

> <Gold.PLP.PLP>
-45.1581

> <Gold.PLP.part.hbond>
-3.0000

> <Gold.PLP.part.metal>
0.0000

> <Gold.PLP.part.buried>
-4.7603

> <Gold.PLP.part.nonpolar>
-37.6247

> <Gold.PLP.part.repulsive>
0.1874

> <Gold.PLP.ligand.clash>
0.0000

> <Gold.PLP.ligand.torsion>
0.4453

> <Gold.PLP.Chemscore.Hbond>
3.0000

> <Gold.PLP.Chemscore.CHOScore>
0.0000

> <Gold.PLP.Chemscore.Metal>
0.0000

> <Gold.Chemscore.Hbonds>
donor molecule, donor type, donor heavy atom, donor atom, acceptor molecule, acceptor atom, score
      P1  H  7989  7998       L1    22  1.00
      P1  H  7997  8008       L1    21  1.00
      P1  H  7997  8010       L1     9  1.00

> <Gold.PLP.Chemscore.Internal.Correction>
0.0152

> <Gold.Rescore>
     Score         DG    S(hbond)    S(metal)    S(lipo)     H(rot)  DE(clash)    DE(int)     intcor
     22.98     -23.53       2.40        0.00     121.92       1.65       0.23       0.33       ----

> <Gold.Chemscore.Fitness>
22.9766

> <Gold.Chemscore.DG>
-23.5315

> <Gold.Chemscore.ZeroCoef>
-5.4800

> <Gold.Chemscore.Hbond>
2.4010

> <Gold.Chemscore.Metal>
0.0000

> <Gold.Chemscore.Lipo>
121.9205

> <Gold.Chemscore.Internal_Hbond>
0.0000

> <Gold.Chemscore.DEClash>
0.2282

> <Gold.Chemscore.DEInternal>
0.3267

> <Gold.Chemscore.Rot>
1.6534

> <Gold.Chemscore.Internal.Correction>
   9.000000E+99

> <Gold.Chemscore.Hbonds>
donor molecule, donor type, donor heavy atom, donor atom, acceptor molecule, acceptor atom, score
      P1  H  7989  7998       L1    22  0.70
      P1  H  7997  8008       L1    21  0.99
      P1  H  7997  8010       L1     9  0.63

> <Gold.Chemscore.Hbond.Weighted>
-8.0194

> <Gold.Chemscore.Metal.Weighted>
-0.0000

> <Gold.Chemscore.Lipo.Weighted>
-14.2647

> <Gold.Chemscore.Internal_Hbond.Weighted>
0.0000

> <Gold.Chemscore.DEClash.Weighted>
0.2282

> <Gold.Chemscore.DEInternal.Weighted>
0.3267

> <Gold.Chemscore.Rot.Weighted>
4.2326

> <Gold.Chemscore.Internal.Correction.Weighted>
   9.000000E+99

> <Gold.Protein.RotatedTorsions>
[ 6907 6896 6895 6894 ] final  -14.00 input  -60.11 | X-H torsion
[ 7974 7965 7964 7962 ] final  -82.03 input  175.53 | X-H torsion
[ 8008 7997 7996 7995 ] final  -14.63 input   59.86 | X-H torsion
[ 10167 10162 10161 10158 ] final -166.95 input  -65.29 | X-H torsion
[ 10718 10713 10712 10709 ] final   42.93 input   66.30 | X-H torsion
[ 10763 10752 10751 10750 ] final   98.16 input  -60.55 | X-H torsion
[ 11005 11000 10999 10996 ] final   76.10 input  -57.11 | X-H torsion

> <Gold.Protein.ActiveResidues>
 VAL166  LYS551  ARG553  GLY616  TRP617  ASP618  TYR619  PRO620  LYS621  CYS622 
 ASP623  PHE694  ASN695  SER759  ASP760  ASP761  ALA762  ILE779  LEU786  VAL792 
 PHE793  MET794  SER795  GLU796  ALA797  LYS798  CYS799  TRP800  GLU811  SER814 

> <Gold.Protein.RotatedAtoms>
  151.3462  135.0874  159.9387 H   0  0  0  0  0  0  0  0  0  0  0  0  # atno 6907 bound_to 6896
  152.5199  133.9398  159.7631 H   0  0  0  0  0  0  0  0  0  0  0  0  # atno 6908 bound_to 6896
  150.9764  133.6237  159.2759 H   0  0  0  0  0  0  0  0  0  0  0  0  # atno 6909 bound_to 6896
  145.5388  140.9512  143.1562 H   0  0  0  0  0  0  0  0  0  0  0  0  # atno 7974 bound_to 7965
  154.5195  140.2218  155.9003 H   0  0  0  0  0  0  0  0  0  0  0  0  # atno 8008 bound_to 7997
  156.1646  140.3135  155.8831 H   0  0  0  0  0  0  0  0  0  0  0  0  # atno 8009 bound_to 7997
  155.3683  140.0465  157.3036 H   0  0  0  0  0  0  0  0  0  0  0  0  # atno 8010 bound_to 7997
  139.6081  144.0870  152.1814 H   0  0  0  0  0  0  0  0  0  0  0  0  # atno 10167 bound_to 10162
  157.4103  130.7910  149.7424 H   0  0  0  0  0  0  0  0  0  0  0  0  # atno 10718 bound_to 10713
  153.2857  135.4158  155.1120 H   0  0  0  0  0  0  0  0  0  0  0  0  # atno 10763 bound_to 10752
  154.8504  135.3506  154.6051 H   0  0  0  0  0  0  0  0  0  0  0  0  # atno 10764 bound_to 10752
  153.6472  135.7054  153.5279 H   0  0  0  0  0  0  0  0  0  0  0  0  # atno 10765 bound_to 10752
  139.9313  134.7573  156.1353 H   0  0  0  0  0  0  0  0  0  0  0  0  # atno 11005 bound_to 11000
  144.7588  139.7009  143.7243 LP  0  0  0  0  0  0  0  0  0  0  0  0  # atno 17320 bound_to 7965
  146.1995  139.5281  142.9752 LP  0  0  0  0  0  0  0  0  0  0  0  0  # atno 17321 bound_to 7965
  140.0483  144.5953  150.7356 LP  0  0  0  0  0  0  0  0  0  0  0  0  # atno 17342 bound_to 10162
  140.7300  143.2678  151.3987 LP  0  0  0  0  0  0  0  0  0  0  0  0  # atno 17343 bound_to 10162
  155.9848  130.3988  150.3291 LP  0  0  0  0  0  0  0  0  0  0  0  0  # atno 17370 bound_to 10713
  157.1428  131.0301  151.2920 LP  0  0  0  0  0  0  0  0  0  0  0  0  # atno 17371 bound_to 10713
  141.0904  133.6717  156.2527 LP  0  0  0  0  0  0  0  0  0  0  0  0  # atno 17394 bound_to 11000
  140.6193  134.5378  157.5545 LP  0  0  0  0  0  0  0  0  0  0  0  0  # atno 17395 bound_to 11000

$$$$
