AV-unprocessed.smi:988|AV-procd|sdf|4324|dock3
  -GOLD-   22720 2223D 1   1.00000     0.00000
 Structure written by MMmdl.
 28 28  0  0  0  0  0  0  0  0  1 V2000
  152.2474  143.2540  159.8442 C   0  0  0  0  0  0  0  0  0  0  0  0
  152.6073  143.9307  158.6532 O   0  0  0  0  0  0  0  0  0  0  0  0
  151.5766  143.9072  157.6789 C   0  0  0  0  0  0  0  0  0  0  0  0
  151.1982  142.4529  157.3620 C   0  0  0  0  0  0  0  0  0  0  0  0
  150.1416  142.3960  156.3590 N   0  0  0  0  0  0  0  0  0  0  0  0
  150.0484  141.4789  155.3836 C   0  0  0  0  0  0  0  0  0  0  0  0
  150.8107  140.5189  155.2744 O   0  0  0  0  0  0  0  0  0  0  0  0
  148.9350  141.6904  154.3579 C   0  0  0  0  0  0  0  0  0  0  0  0
  148.0496  140.5397  154.3162 N   0  0  0  0  0  0  0  0  0  0  0  0
  148.2245  139.3493  153.6405 C   0  0  0  0  0  0  0  0  0  0  0  0
  147.1242  138.5788  153.8853 C   0  0  0  0  0  0  0  0  0  0  0  0
  146.8774  137.2839  153.3917 N   0  0  0  0  0  0  0  0  0  0  0  0
  146.3220  139.3924  154.7341 C   0  0  0  0  0  0  0  0  0  0  0  0
  146.8782  140.5656  154.9903 N   0  0  0  0  0  0  0  0  0  0  0  0
  153.0752  143.2941  160.5520 H   0  0  0  0  0  0  0  0  0  0  0  0
  152.0197  142.2052  159.6497 H   0  0  0  0  0  0  0  0  0  0  0  0
  151.3807  143.7203  160.3145 H   0  0  0  0  0  0  0  0  0  0  0  0
  150.7044  144.4398  158.0608 H   0  0  0  0  0  0  0  0  0  0  0  0
  151.8974  144.4183  156.7693 H   0  0  0  0  0  0  0  0  0  0  0  0
  152.0759  141.8837  157.0515 H   0  0  0  0  0  0  0  0  0  0  0  0
  150.8221  141.9713  158.2649 H   0  0  0  0  0  0  0  0  0  0  0  0
  149.4672  143.1476  156.3651 H   0  0  0  0  0  0  0  0  0  0  0  0
  148.3490  142.5730  154.6175 H   0  0  0  0  0  0  0  0  0  0  0  0
  149.3624  141.8650  153.3691 H   0  0  0  0  0  0  0  0  0  0  0  0
  149.1057  139.1572  153.0457 H   0  0  0  0  0  0  0  0  0  0  0  0
  147.5338  136.8086  152.7887 H   0  0  0  0  0  0  0  0  0  0  0  0
  146.0339  136.7770  153.6192 H   0  0  0  0  0  0  0  0  0  0  0  0
  145.3588  139.1679  155.1682 H   0  0  0  0  0  0  0  0  0  0  0  0
  1  2  1  0  0  0  0
  1 15  1  0  0  0  0
  1 16  1  0  0  0  0
  1 17  1  0  0  0  0
  2  3  1  0  0  0  0
  3  4  1  0  0  0  0
  3 18  1  0  0  0  0
  3 19  1  0  0  0  0
  4  5  1  0  0  0  0
  4 20  1  0  0  0  0
  4 21  1  0  0  0  0
  5  6  1  0  0  0  0
  5 22  1  0  0  0  0
  6  7  2  0  0  0  0
  6  8  1  0  0  0  0
  8  9  1  0  0  0  0
  8 23  1  0  0  0  0
  8 24  1  0  0  0  0
  9 14  1  0  0  0  0
  9 10  1  0  0  0  0
 10 11  2  0  0  0  0
 10 25  1  0  0  0  0
 11 12  1  0  0  0  0
 11 13  1  0  0  0  0
 12 26  1  0  0  0  0
 12 27  1  0  0  0  0
 13 14  2  0  0  0  0
 13 28  1  0  0  0  0
M  END
> <s_m_source_file>
AV-unprocessed.smi

> <i_m_source_file_index>
988

> <i_lp_mmshare_version>
43012

> <i_f3d_flags>
0

> <s_epik_input>
W0NIM11PW0NIMl1bQ0gyXVtOSF1DKD1PKVtDSDJdbjFbY0hdYyhbTkgyXSlbY0hdbjE=

> <s_epik_cmdline>
J2VwaWtfcHl0aG9uJywgJy1waCcsICc3LjAnLCAnLXRuJywgJzgnLCAnLW1hJywgJzIwMCcsICctbWV0YWxfYmluZGluZycsICctaW1hZScsICc8aW5maWxlLm1hZT4nLCAnLW9tYWUnLCAnPG91dGZpbGUubWFlPic=

> <r_lp_tautomer_probability>
1

> <r_epik_Ionization_Penalty>
0.00010261

> <r_epik_Ionization_Penalty_Charging>
0

> <r_epik_Ionization_Penalty_Neutral>
0.00010261

> <r_epik_State_Penalty>
-0

> <r_epik_Charging_Adjusted_Penalty>
0

> <i_epik_Tot_Q>
0

> <i_epik_Tot_abs_Q>
0

> <r_epik_Metal_State_Penalty>
-0

> <b_epik_Metal_Only>
0

> <s_lp_Force_Field>
OPLS_2005

> <r_lp_Energy>
5.59493

> <b_lp_Chiralities_Consistent>
1

> <s_lp_Variant>
AV-unprocessed.smi:988-1

> <Gold.Version>
5.8.1

> <Gold.Id.Protein>
6NUR|6NUR_protein|mol2

> <Gold.PLP.Fitness>
35.5035

> <Gold.PLP.PLP>
-24.6398

> <Gold.PLP.part.hbond>
-3.0000

> <Gold.PLP.part.metal>
0.0000

> <Gold.PLP.part.buried>
-1.7472

> <Gold.PLP.part.nonpolar>
-19.5360

> <Gold.PLP.part.repulsive>
0.2030

> <Gold.PLP.ligand.clash>
0.0000

> <Gold.PLP.ligand.torsion>
0.4756

> <Gold.PLP.Chemscore.Hbond>
2.9360

> <Gold.PLP.Chemscore.CHOScore>
0.9982

> <Gold.PLP.Chemscore.Metal>
0.0000

> <Gold.Chemscore.Hbonds>
donor molecule, donor type, donor heavy atom, donor atom, acceptor molecule, acceptor atom, score
      L1  H     5    22       P1  8028  0.98
      L1  H    12    26       P1  7948  1.00
      P1  H  7989  7998       L1     7  0.98
      L1  C    10    25       P1  7957  0.95

> <Gold.PLP.Chemscore.Internal.Correction>
0.0122

> <Gold.Rescore>
     Score         DG    S(hbond)    S(metal)    S(lipo)     H(rot)  DE(clash)    DE(int)     intcor
     13.81     -14.22       2.53        0.00      53.08       2.31       0.05       0.36       ----

> <Gold.Chemscore.Fitness>
13.8086

> <Gold.Chemscore.DG>
-14.2167

> <Gold.Chemscore.ZeroCoef>
-5.4800

> <Gold.Chemscore.Hbond>
2.5291

> <Gold.Chemscore.Metal>
0.0000

> <Gold.Chemscore.Lipo>
53.0832

> <Gold.Chemscore.Internal_Hbond>
0.0000

> <Gold.Chemscore.DEClash>
0.0468

> <Gold.Chemscore.DEInternal>
0.3613

> <Gold.Chemscore.Rot>
2.3129

> <Gold.Chemscore.Internal.Correction>
   9.000000E+99

> <Gold.Chemscore.Hbonds>
donor molecule, donor type, donor heavy atom, donor atom, acceptor molecule, acceptor atom, score
      L1  H     5    22       P1  8028  0.93
      L1  H    12    26       P1  7948  1.00
      P1  H  7989  7998       L1     7  0.27

> <Gold.Chemscore.Hbond.Weighted>
-8.4471

> <Gold.Chemscore.Metal.Weighted>
-0.0000

> <Gold.Chemscore.Lipo.Weighted>
-6.2107

> <Gold.Chemscore.Internal_Hbond.Weighted>
0.0000

> <Gold.Chemscore.DEClash.Weighted>
0.0468

> <Gold.Chemscore.DEInternal.Weighted>
0.3613

> <Gold.Chemscore.Rot.Weighted>
5.9211

> <Gold.Chemscore.Internal.Correction.Weighted>
   9.000000E+99

> <Gold.Protein.RotatedTorsions>
[ 6907 6896 6895 6894 ] final  -26.60 input  -60.11 | X-H torsion
[ 7974 7965 7964 7962 ] final   66.71 input  175.53 | X-H torsion
[ 8008 7997 7996 7995 ] final   89.34 input   59.86 | X-H torsion
[ 10167 10162 10161 10158 ] final -112.83 input  -65.29 | X-H torsion
[ 10718 10713 10712 10709 ] final   22.50 input   66.30 | X-H torsion
[ 10763 10752 10751 10750 ] final  -90.92 input  -60.55 | X-H torsion
[ 11005 11000 10999 10996 ] final   97.56 input  -57.11 | X-H torsion

> <Gold.Protein.ActiveResidues>
 VAL166  LYS551  ARG553  GLY616  TRP617  ASP618  TYR619  PRO620  LYS621  CYS622 
 ASP623  PHE694  ASN695  SER759  ASP760  ASP761  ALA762  ILE779  LEU786  VAL792 
 PHE793  MET794  SER795  GLU796  ALA797  LYS798  CYS799  TRP800  GLU811  SER814 

> <Gold.Protein.RotatedAtoms>
  151.1587  135.0263  159.8700 H   0  0  0  0  0  0  0  0  0  0  0  0  # atno 6907 bound_to 6896
  152.5452  134.1304  159.8447 H   0  0  0  0  0  0  0  0  0  0  0  0  # atno 6908 bound_to 6896
  151.1397  133.4933  159.2630 H   0  0  0  0  0  0  0  0  0  0  0  0  # atno 6909 bound_to 6896
  145.8233  139.3097  143.1030 H   0  0  0  0  0  0  0  0  0  0  0  0  # atno 7974 bound_to 7965
  155.9988  140.3362  155.6825 H   0  0  0  0  0  0  0  0  0  0  0  0  # atno 8008 bound_to 7997
  155.6319  140.0686  157.2664 H   0  0  0  0  0  0  0  0  0  0  0  0  # atno 8009 bound_to 7997
  154.4242  140.1758  156.1469 H   0  0  0  0  0  0  0  0  0  0  0  0  # atno 8010 bound_to 7997
  140.1185  143.4464  152.1706 H   0  0  0  0  0  0  0  0  0  0  0  0  # atno 10167 bound_to 10162
  157.1532  130.6684  149.6019 H   0  0  0  0  0  0  0  0  0  0  0  0  # atno 10718 bound_to 10713
  154.6707  135.5287  153.8135 H   0  0  0  0  0  0  0  0  0  0  0  0  # atno 10763 bound_to 10752
  153.0500  135.6528  154.0728 H   0  0  0  0  0  0  0  0  0  0  0  0  # atno 10764 bound_to 10752
  154.0627  135.2960  155.3302 H   0  0  0  0  0  0  0  0  0  0  0  0  # atno 10765 bound_to 10752
  139.8775  134.9007  156.4326 H   0  0  0  0  0  0  0  0  0  0  0  0  # atno 11005 bound_to 11000
  145.9651  140.8805  143.0191 LP  0  0  0  0  0  0  0  0  0  0  0  0  # atno 17320 bound_to 7965
  144.6746  140.1866  143.7400 LP  0  0  0  0  0  0  0  0  0  0  0  0  # atno 17321 bound_to 7965
  139.5581  144.7387  151.4234 LP  0  0  0  0  0  0  0  0  0  0  0  0  # atno 17342 bound_to 10162
  140.6886  143.7916  150.7221 LP  0  0  0  0  0  0  0  0  0  0  0  0  # atno 17343 bound_to 10162
  155.9767  130.4737  150.6543 LP  0  0  0  0  0  0  0  0  0  0  0  0  # atno 17370 bound_to 10713
  157.4201  131.0835  151.1139 LP  0  0  0  0  0  0  0  0  0  0  0  0  # atno 17371 bound_to 10713
  140.9056  133.7748  155.9731 LP  0  0  0  0  0  0  0  0  0  0  0  0  # atno 17394 bound_to 11000
  140.8603  134.2849  157.5237 LP  0  0  0  0  0  0  0  0  0  0  0  0  # atno 17395 bound_to 11000

$$$$
