AV-unprocessed.smi:1062|AV-procd|sdf|4661|dock2
  -GOLD-   22720 3173D 1   1.00000     0.00000
 Structure written by MMmdl.
 38 40  0  0  0  0  0  0  0  0  1 V2000
  154.0582  141.6939  160.8339 C   0  0  0  0  0  0  0  0  0  0  0  0
  152.8308  142.6153  160.7396 C   0  0  0  0  0  0  0  0  0  0  0  0
  152.5021  142.9604  159.3474 N   0  0  0  0  0  0  0  0  0  0  0  0
  151.9657  142.0310  158.5163 C   0  0  0  0  0  0  0  0  0  0  0  0
  151.9358  140.8340  158.8120 O   0  0  0  0  0  0  0  0  0  0  0  0
  151.3600  142.4827  157.1716 C   0  0  0  0  0  0  0  0  0  0  0  0
  151.0244  141.3124  156.2900 C   0  0  0  0  0  0  0  0  0  0  0  0
  151.8305  140.2380  156.0027 C   0  0  0  0  0  0  0  0  0  0  0  0
  151.0488  139.1005  154.9395 S   0  0  0  0  0  0  0  0  0  0  0  0
  149.6286  140.1502  154.9162 C   0  0  0  0  0  0  0  0  0  0  0  0
  148.4137  139.9160  154.2062 N   0  0  0  0  0  0  0  0  0  0  0  0
  148.0586  138.5895  153.7117 C   0  0  0  0  0  0  0  0  0  0  0  0
  146.7118  138.8020  153.0276 C   0  0  0  0  0  0  0  0  0  0  0  0
  146.4884  140.2141  153.2299 N   0  0  0  0  0  0  0  0  0  0  0  0
  147.4682  140.8260  153.8987 C   0  0  0  0  0  0  0  0  0  0  0  0
  147.4699  142.0252  154.1703 O   0  0  0  0  0  0  0  0  0  0  0  0
  149.7773  141.2522  155.6587 N   0  0  0  0  0  0  0  0  0  0  0  0
  152.5801  144.3663  159.0502 C   0  0  0  0  0  0  0  0  0  0  0  0
  151.9637  145.3824  159.9947 C   0  0  0  0  0  0  0  0  0  0  0  0
  151.3240  145.1203  158.6579 C   0  0  0  0  0  0  0  0  0  0  0  0
  154.2537  141.4177  161.8701 H   0  0  0  0  0  0  0  0  0  0  0  0
  154.9571  142.1753  160.4484 H   0  0  0  0  0  0  0  0  0  0  0  0
  153.9029  140.7735  160.2703 H   0  0  0  0  0  0  0  0  0  0  0  0
  151.9891  142.1213  161.2251 H   0  0  0  0  0  0  0  0  0  0  0  0
  153.0025  143.5242  161.3185 H   0  0  0  0  0  0  0  0  0  0  0  0
  150.4587  143.0730  157.3376 H   0  0  0  0  0  0  0  0  0  0  0  0
  152.0750  143.1358  156.6711 H   0  0  0  0  0  0  0  0  0  0  0  0
  152.8321  140.0445  156.3568 H   0  0  0  0  0  0  0  0  0  0  0  0
  148.8100  138.2262  153.0091 H   0  0  0  0  0  0  0  0  0  0  0  0
  147.9794  137.8789  154.5357 H   0  0  0  0  0  0  0  0  0  0  0  0
  146.7505  138.5681  151.9632 H   0  0  0  0  0  0  0  0  0  0  0  0
  145.9181  138.2162  153.4927 H   0  0  0  0  0  0  0  0  0  0  0  0
  145.6629  140.6852  152.8887 H   0  0  0  0  0  0  0  0  0  0  0  0
  153.4930  144.6809  158.5476 H   0  0  0  0  0  0  0  0  0  0  0  0
  151.4291  145.0220  160.8714 H   0  0  0  0  0  0  0  0  0  0  0  0
  152.4881  146.3266  160.1256 H   0  0  0  0  0  0  0  0  0  0  0  0
  151.4193  145.8908  157.8955 H   0  0  0  0  0  0  0  0  0  0  0  0
  150.3762  144.5852  158.6620 H   0  0  0  0  0  0  0  0  0  0  0  0
  1  2  1  0  0  0  0
  1 21  1  0  0  0  0
  1 22  1  0  0  0  0
  1 23  1  0  0  0  0
  2  3  1  0  0  0  0
  2 24  1  0  0  0  0
  2 25  1  0  0  0  0
  3  4  1  0  0  0  0
  3 18  1  0  0  0  0
  4  5  2  0  0  0  0
  4  6  1  0  0  0  0
  6  7  1  0  0  0  0
  6 26  1  0  0  0  0
  6 27  1  0  0  0  0
  7 17  1  0  0  0  0
  7  8  2  0  0  0  0
  8  9  1  0  0  0  0
  8 28  1  0  0  0  0
  9 10  1  0  0  0  0
 10 11  1  0  0  0  0
 10 17  2  0  0  0  0
 11 15  1  0  0  0  0
 11 12  1  0  0  0  0
 12 13  1  0  0  0  0
 12 29  1  0  0  0  0
 12 30  1  0  0  0  0
 13 14  1  0  0  0  0
 13 31  1  0  0  0  0
 13 32  1  0  0  0  0
 14 15  1  0  0  0  0
 14 33  1  0  0  0  0
 15 16  2  0  0  0  0
 18 20  1  0  0  0  0
 18 19  1  0  0  0  0
 18 34  1  0  0  0  0
 19 20  1  0  0  0  0
 19 35  1  0  0  0  0
 19 36  1  0  0  0  0
 20 37  1  0  0  0  0
 20 38  1  0  0  0  0
M  END
> <s_m_source_file>
AV-unprocessed.smi

> <i_m_source_file_index>
1062

> <i_lp_mmshare_version>
43012

> <i_f3d_flags>
0

> <s_epik_input>
W0NIMl0xW0NIMl1bQ0hdMU4oW0NIMl1bQ0gzXSlDKD1PKVtDSDJdYzJbY0hdc2MobjIpTjNbQ0gyXVtDSDJdW05IXUMzPU8=

> <s_epik_cmdline>
J2VwaWtfcHl0aG9uJywgJy1waCcsICc3LjAnLCAnLXRuJywgJzgnLCAnLW1hJywgJzIwMCcsICctbWV0YWxfYmluZGluZycsICctaW1hZScsICc8aW5maWxlLm1hZT4nLCAnLW9tYWUnLCAnPG91dGZpbGUubWFlPic=

> <r_lp_tautomer_probability>
1

> <r_epik_Ionization_Penalty>
0.000125669

> <r_epik_Ionization_Penalty_Charging>
0

> <r_epik_Ionization_Penalty_Neutral>
0.000125669

> <r_epik_State_Penalty>
-0

> <r_epik_Charging_Adjusted_Penalty>
0

> <i_epik_Tot_Q>
0

> <i_epik_Tot_abs_Q>
0

> <r_epik_Metal_State_Penalty>
-0

> <b_epik_Metal_Only>
0

> <s_lp_Force_Field>
OPLS_2005

> <r_lp_Energy>
60.5217

> <b_lp_Chiralities_Consistent>
1

> <s_lp_Variant>
AV-unprocessed.smi:1062-1

> <Gold.Version>
5.8.1

> <Gold.Id.Protein>
6NUR|6NUR_protein|mol2

> <Gold.PLP.Fitness>
51.1585

> <Gold.PLP.PLP>
-49.6111

> <Gold.PLP.part.hbond>
-1.0000

> <Gold.PLP.part.metal>
0.0000

> <Gold.PLP.part.buried>
-4.6530

> <Gold.PLP.part.nonpolar>
-44.6575

> <Gold.PLP.part.repulsive>
0.2694

> <Gold.PLP.ligand.clash>
0.0000

> <Gold.PLP.ligand.torsion>
0.5911

> <Gold.PLP.Chemscore.Hbond>
0.7840

> <Gold.PLP.Chemscore.CHOScore>
0.0000

> <Gold.PLP.Chemscore.Metal>
0.0000

> <Gold.Chemscore.Hbonds>
donor molecule, donor type, donor heavy atom, donor atom, acceptor molecule, acceptor atom, score
      L1  H    14    33       P1 10175  0.91

> <Gold.PLP.Chemscore.Internal.Correction>
0.3776

> <Gold.Rescore>
     Score         DG    S(hbond)    S(metal)    S(lipo)     H(rot)  DE(clash)    DE(int)     intcor
     12.55     -16.47       0.95        0.00     102.77       1.65       0.10       3.82       ----

> <Gold.Chemscore.Fitness>
12.5513

> <Gold.Chemscore.DG>
-16.4703

> <Gold.Chemscore.ZeroCoef>
-5.4800

> <Gold.Chemscore.Hbond>
0.9533

> <Gold.Chemscore.Metal>
0.0000

> <Gold.Chemscore.Lipo>
102.7722

> <Gold.Chemscore.Internal_Hbond>
0.0000

> <Gold.Chemscore.DEClash>
0.0972

> <Gold.Chemscore.DEInternal>
3.8218

> <Gold.Chemscore.Rot>
1.6477

> <Gold.Chemscore.Internal.Correction>
   9.000000E+99

> <Gold.Chemscore.Hbonds>
donor molecule, donor type, donor heavy atom, donor atom, acceptor molecule, acceptor atom, score
      L1  H    14    33       P1 10175  0.51

> <Gold.Chemscore.Hbond.Weighted>
-3.1841

> <Gold.Chemscore.Metal.Weighted>
-0.0000

> <Gold.Chemscore.Lipo.Weighted>
-12.0243

> <Gold.Chemscore.Internal_Hbond.Weighted>
0.0000

> <Gold.Chemscore.DEClash.Weighted>
0.0972

> <Gold.Chemscore.DEInternal.Weighted>
3.8218

> <Gold.Chemscore.Rot.Weighted>
4.2181

> <Gold.Chemscore.Internal.Correction.Weighted>
   9.000000E+99

> <Gold.Protein.RotatedTorsions>
[ 6907 6896 6895 6894 ] final -152.16 input  -60.11 | X-H torsion
[ 7974 7965 7964 7962 ] final -127.22 input  175.53 | X-H torsion
[ 8008 7997 7996 7995 ] final  -17.68 input   59.86 | X-H torsion
[ 10167 10162 10161 10158 ] final -173.37 input  -65.29 | X-H torsion
[ 10718 10713 10712 10709 ] final  -73.04 input   66.30 | X-H torsion
[ 10763 10752 10751 10750 ] final -159.05 input  -60.55 | X-H torsion
[ 11005 11000 10999 10996 ] final   57.73 input  -57.11 | X-H torsion

> <Gold.Protein.ActiveResidues>
 VAL166  LYS551  ARG553  GLY616  TRP617  ASP618  TYR619  PRO620  LYS621  CYS622 
 ASP623  PHE694  ASN695  SER759  ASP760  ASP761  ALA762  ILE779  LEU786  VAL792 
 PHE793  MET794  SER795  GLU796  ALA797  LYS798  CYS799  TRP800  GLU811  SER814 

> <Gold.Protein.RotatedAtoms>
  151.2237  133.4488  159.2601 H   0  0  0  0  0  0  0  0  0  0  0  0  # atno 6907 bound_to 6896
  151.0861  134.9888  159.8390 H   0  0  0  0  0  0  0  0  0  0  0  0  # atno 6908 bound_to 6896
  152.5429  134.2173  159.8826 H   0  0  0  0  0  0  0  0  0  0  0  0  # atno 6909 bound_to 6896
  144.9792  140.7624  143.4622 H   0  0  0  0  0  0  0  0  0  0  0  0  # atno 7974 bound_to 7965
  154.4961  140.2136  155.9444 H   0  0  0  0  0  0  0  0  0  0  0  0  # atno 8008 bound_to 7997
  156.1372  140.3186  155.8407 H   0  0  0  0  0  0  0  0  0  0  0  0  # atno 8009 bound_to 7997
  155.4188  140.0495  157.3018 H   0  0  0  0  0  0  0  0  0  0  0  0  # atno 8010 bound_to 7997
  139.5692  144.1682  152.1359 H   0  0  0  0  0  0  0  0  0  0  0  0  # atno 10167 bound_to 10162
  156.0296  130.4385  150.2683 H   0  0  0  0  0  0  0  0  0  0  0  0  # atno 10718 bound_to 10713
  154.7507  135.3091  154.8563 H   0  0  0  0  0  0  0  0  0  0  0  0  # atno 10763 bound_to 10752
  153.9351  135.6781  153.4749 H   0  0  0  0  0  0  0  0  0  0  0  0  # atno 10764 bound_to 10752
  153.1103  135.4869  154.8951 H   0  0  0  0  0  0  0  0  0  0  0  0  # atno 10765 bound_to 10752
  140.0430  134.5846  155.9358 H   0  0  0  0  0  0  0  0  0  0  0  0  # atno 11005 bound_to 11000
  145.2445  139.2058  143.4975 LP  0  0  0  0  0  0  0  0  0  0  0  0  # atno 17320 bound_to 7965
  146.3403  140.2346  142.8594 LP  0  0  0  0  0  0  0  0  0  0  0  0  # atno 17321 bound_to 7965
  140.1211  144.5372  150.6862 LP  0  0  0  0  0  0  0  0  0  0  0  0  # atno 17342 bound_to 10162
  140.6976  143.2414  151.4955 LP  0  0  0  0  0  0  0  0  0  0  0  0  # atno 17343 bound_to 10162
  157.0785  131.0137  151.3165 LP  0  0  0  0  0  0  0  0  0  0  0  0  # atno 17370 bound_to 10713
  157.4945  130.7842  149.7541 LP  0  0  0  0  0  0  0  0  0  0  0  0  # atno 17371 bound_to 10713
  141.1893  133.6565  156.5360 LP  0  0  0  0  0  0  0  0  0  0  0  0  # atno 17394 bound_to 11000
  140.4038  134.7333  157.4796 LP  0  0  0  0  0  0  0  0  0  0  0  0  # atno 17395 bound_to 11000

$$$$
