AV-unprocessed.smi:620|AV-procd|sdf|3087|dock3
  -GOLD-   22720 0 13D 1   1.00000     0.00000
 Structure written by MMmdl.
 33 35  0  0  0  0  0  0  0  0  1 V2000
  147.1733  139.4845  152.9199 C   0  0  0  0  0  0  0  0  0  0  0  0
  148.1801  140.1246  153.8134 C   0  0  0  0  0  0  0  0  0  0  0  0
  149.4661  139.7521  153.8435 N   0  0  0  0  0  0  0  0  0  0  0  0
  150.2114  140.4970  154.7480 N   0  0  0  0  0  0  0  0  0  0  0  0
  149.4656  141.4096  155.3770 C   0  0  0  0  0  0  0  0  0  0  0  0
  150.0988  142.2487  156.3275 N   0  0  0  0  0  0  0  0  0  0  0  0
  151.2059  141.9961  157.0440 C   0  0  0  0  0  0  0  0  0  0  0  0
  151.8836  140.9715  156.9677 O   0  0  0  0  0  0  0  0  0  0  0  0
  151.4918  143.0150  157.8675 N   0  0  0  0  0  0  0  0  0  0  0  0
  152.6185  143.0710  158.7933 C   0  0  0  0  0  0  0  0  0  0  0  0
  152.6589  141.8778  159.7349 C   0  0  0  0  0  0  0  0  0  0  0  0
  152.7230  142.0580  161.2335 C   0  0  0  0  0  0  0  0  0  0  0  0
  153.9172  141.5104  160.4867 C   0  0  0  0  0  0  0  0  0  0  0  0
  152.6228  144.3670  159.5836 C   0  0  0  0  0  0  0  0  0  0  0  0
  151.4463  144.7573  160.4457 C   0  0  0  0  0  0  0  0  0  0  0  0
  151.7532  145.5365  159.1863 C   0  0  0  0  0  0  0  0  0  0  0  0
  147.7651  141.4361  154.9093 S   0  0  0  0  0  0  0  0  0  0  0  0
  147.6275  138.6803  152.3398 H   0  0  0  0  0  0  0  0  0  0  0  0
  146.7654  140.2240  152.2308 H   0  0  0  0  0  0  0  0  0  0  0  0
  146.3577  139.0703  153.5129 H   0  0  0  0  0  0  0  0  0  0  0  0
  149.6521  143.1400  156.4846 H   0  0  0  0  0  0  0  0  0  0  0  0
  150.8789  143.8170  157.8571 H   0  0  0  0  0  0  0  0  0  0  0  0
  153.5389  143.0574  158.2056 H   0  0  0  0  0  0  0  0  0  0  0  0
  152.0515  141.0406  159.3949 H   0  0  0  0  0  0  0  0  0  0  0  0
  152.8039  143.0699  161.6250 H   0  0  0  0  0  0  0  0  0  0  0  0
  152.1507  141.3652  161.8468 H   0  0  0  0  0  0  0  0  0  0  0  0
  154.1425  140.4520  160.5994 H   0  0  0  0  0  0  0  0  0  0  0  0
  154.7823  142.1625  160.3855 H   0  0  0  0  0  0  0  0  0  0  0  0
  153.6022  144.6267  159.9816 H   0  0  0  0  0  0  0  0  0  0  0  0
  150.5727  144.1083  160.4351 H   0  0  0  0  0  0  0  0  0  0  0  0
  151.6595  145.2368  161.3990 H   0  0  0  0  0  0  0  0  0  0  0  0
  152.1720  146.5342  159.3007 H   0  0  0  0  0  0  0  0  0  0  0  0
  151.0762  145.4086  158.3441 H   0  0  0  0  0  0  0  0  0  0  0  0
  1  2  1  0  0  0  0
  1 18  1  0  0  0  0
  1 19  1  0  0  0  0
  1 20  1  0  0  0  0
  2 17  1  0  0  0  0
  2  3  2  0  0  0  0
  3  4  1  0  0  0  0
  4  5  2  0  0  0  0
  5  6  1  0  0  0  0
  5 17  1  0  0  0  0
  6  7  1  0  0  0  0
  6 21  1  0  0  0  0
  7  8  2  0  0  0  0
  7  9  1  0  0  0  0
  9 10  1  0  0  0  0
  9 22  1  0  0  0  0
 10 11  1  0  0  0  0
 10 14  1  0  0  0  0
 10 23  1  0  0  0  0
 11 13  1  0  0  0  0
 11 12  1  0  0  0  0
 11 24  1  0  0  0  0
 12 13  1  0  0  0  0
 12 25  1  0  0  0  0
 12 26  1  0  0  0  0
 13 27  1  0  0  0  0
 13 28  1  0  0  0  0
 14 16  1  0  0  0  0
 14 15  1  0  0  0  0
 14 29  1  0  0  0  0
 15 16  1  0  0  0  0
 15 30  1  0  0  0  0
 15 31  1  0  0  0  0
 16 32  1  0  0  0  0
 16 33  1  0  0  0  0
M  END
> <s_m_source_file>
AV-unprocessed.smi

> <i_m_source_file_index>
620

> <i_lp_mmshare_version>
43012

> <i_f3d_flags>
0

> <s_epik_input>
W0NIM11jMW5uYyhzMSlbTkhdQyg9TylbTkhdW0NIXShbQ0hdMltDSDJdW0NIMl0yKVtDSF0zW0NIMl1bQ0gyXTM=

> <s_epik_cmdline>
J2VwaWtfcHl0aG9uJywgJy1waCcsICc3LjAnLCAnLXRuJywgJzgnLCAnLW1hJywgJzIwMCcsICctbWV0YWxfYmluZGluZycsICctaW1hZScsICc8aW5maWxlLm1hZT4nLCAnLW9tYWUnLCAnPG91dGZpbGUubWFlPic=

> <r_lp_tautomer_probability>
1

> <r_epik_Ionization_Penalty>
0.000349386

> <r_epik_Ionization_Penalty_Charging>
0

> <r_epik_Ionization_Penalty_Neutral>
0.000349386

> <r_epik_State_Penalty>
-0

> <r_epik_Charging_Adjusted_Penalty>
0

> <i_epik_Tot_Q>
0

> <i_epik_Tot_abs_Q>
0

> <r_epik_Metal_State_Penalty>
0.178889

> <b_epik_Metal_Only>
0

> <s_lp_Force_Field>
OPLS_2005

> <r_lp_Energy>
21.1743

> <b_lp_Chiralities_Consistent>
1

> <s_lp_Variant>
AV-unprocessed.smi:620-1

> <Gold.Version>
5.8.1

> <Gold.Id.Protein>
6NUR|6NUR_protein|mol2

> <Gold.PLP.Fitness>
42.0888

> <Gold.PLP.PLP>
-37.7539

> <Gold.PLP.part.hbond>
-2.0000

> <Gold.PLP.part.metal>
0.0000

> <Gold.PLP.part.buried>
-3.4442

> <Gold.PLP.part.nonpolar>
-32.4854

> <Gold.PLP.part.repulsive>
2.0820

> <Gold.PLP.ligand.clash>
0.0000

> <Gold.PLP.ligand.torsion>
1.6460

> <Gold.PLP.Chemscore.Hbond>
1.8346

> <Gold.PLP.Chemscore.CHOScore>
0.0000

> <Gold.PLP.Chemscore.Metal>
0.0000

> <Gold.Chemscore.Hbonds>
donor molecule, donor type, donor heavy atom, donor atom, acceptor molecule, acceptor atom, score
      L1  H     6    21       P1  8028  0.93
      P1  H  7989  7998       L1     4  0.67

> <Gold.PLP.Chemscore.Internal.Correction>
2.1232

> <Gold.Rescore>
     Score         DG    S(hbond)    S(metal)    S(lipo)     H(rot)  DE(clash)    DE(int)     intcor
     12.84     -16.96       0.96        0.00     102.28       1.44       0.15       3.96       ----

> <Gold.Chemscore.Fitness>
12.8420

> <Gold.Chemscore.DG>
-16.9557

> <Gold.Chemscore.ZeroCoef>
-5.4800

> <Gold.Chemscore.Hbond>
0.9566

> <Gold.Chemscore.Metal>
0.0000

> <Gold.Chemscore.Lipo>
102.2826

> <Gold.Chemscore.Internal_Hbond>
0.0000

> <Gold.Chemscore.DEClash>
0.1524

> <Gold.Chemscore.DEInternal>
3.9613

> <Gold.Chemscore.Rot>
1.4400

> <Gold.Chemscore.Internal.Correction>
   9.000000E+99

> <Gold.Chemscore.Hbonds>
donor molecule, donor type, donor heavy atom, donor atom, acceptor molecule, acceptor atom, score
      L1  H     6    21       P1  8028  0.89
      P1  H  7989  7998       L1     4  0.07

> <Gold.Chemscore.Hbond.Weighted>
-3.1950

> <Gold.Chemscore.Metal.Weighted>
-0.0000

> <Gold.Chemscore.Lipo.Weighted>
-11.9671

> <Gold.Chemscore.Internal_Hbond.Weighted>
0.0000

> <Gold.Chemscore.DEClash.Weighted>
0.1524

> <Gold.Chemscore.DEInternal.Weighted>
3.9613

> <Gold.Chemscore.Rot.Weighted>
3.6864

> <Gold.Chemscore.Internal.Correction.Weighted>
   9.000000E+99

> <Gold.Protein.RotatedTorsions>
[ 6907 6896 6895 6894 ] final   95.36 input  -60.11 | X-H torsion
[ 7974 7965 7964 7962 ] final -131.46 input  175.53 | X-H torsion
[ 8008 7997 7996 7995 ] final   10.12 input   59.86 | X-H torsion
[ 10167 10162 10161 10158 ] final -114.47 input  -65.29 | X-H torsion
[ 10718 10713 10712 10709 ] final  130.01 input   66.30 | X-H torsion
[ 10763 10752 10751 10750 ] final   38.08 input  -60.55 | X-H torsion
[ 11005 11000 10999 10996 ] final  -44.72 input  -57.11 | X-H torsion

> <Gold.Protein.ActiveResidues>
 VAL166  LYS551  ARG553  GLY616  TRP617  ASP618  TYR619  PRO620  LYS621  CYS622 
 ASP623  PHE694  ASN695  SER759  ASP760  ASP761  ALA762  ILE779  LEU786  VAL792 
 PHE793  MET794  SER795  GLU796  ALA797  LYS798  CYS799  TRP800  GLU811  SER814 

> <Gold.Protein.RotatedAtoms>
  152.5444  134.1052  159.8334 H   0  0  0  0  0  0  0  0  0  0  0  0  # atno 6907 bound_to 6896
  151.1125  133.5155  159.2612 H   0  0  0  0  0  0  0  0  0  0  0  0  # atno 6908 bound_to 6896
  151.1868  135.0394  159.8870 H   0  0  0  0  0  0  0  0  0  0  0  0  # atno 6909 bound_to 6896
  144.9377  140.7203  143.4866 H   0  0  0  0  0  0  0  0  0  0  0  0  # atno 7974 bound_to 7965
  154.7891  140.2832  155.6005 H   0  0  0  0  0  0  0  0  0  0  0  0  # atno 8008 bound_to 7997
  156.2962  140.2608  156.2663 H   0  0  0  0  0  0  0  0  0  0  0  0  # atno 8009 bound_to 7997
  154.9691  140.0376  157.2216 H   0  0  0  0  0  0  0  0  0  0  0  0  # atno 8010 bound_to 7997
  140.1006  143.4616  152.1814 H   0  0  0  0  0  0  0  0  0  0  0  0  # atno 10167 bound_to 10162
  157.5101  131.1096  150.9305 H   0  0  0  0  0  0  0  0  0  0  0  0  # atno 10718 bound_to 10713
  153.0014  135.6259  154.2248 H   0  0  0  0  0  0  0  0  0  0  0  0  # atno 10763 bound_to 10752
  154.1991  135.2805  155.2998 H   0  0  0  0  0  0  0  0  0  0  0  0  # atno 10764 bound_to 10752
  154.5698  135.5680  153.7144 H   0  0  0  0  0  0  0  0  0  0  0  0  # atno 10765 bound_to 10752
  141.0468  133.6758  156.2911 H   0  0  0  0  0  0  0  0  0  0  0  0  # atno 11005 bound_to 11000
  145.3040  139.1841  143.4674 LP  0  0  0  0  0  0  0  0  0  0  0  0  # atno 17320 bound_to 7965
  146.3273  140.3035  142.8622 LP  0  0  0  0  0  0  0  0  0  0  0  0  # atno 17321 bound_to 7965
  139.5673  144.7443  151.3987 LP  0  0  0  0  0  0  0  0  0  0  0  0  # atno 17342 bound_to 10162
  140.6980  143.7702  150.7357 LP  0  0  0  0  0  0  0  0  0  0  0  0  # atno 17343 bound_to 10162
  156.9948  130.5577  149.5306 LP  0  0  0  0  0  0  0  0  0  0  0  0  # atno 17370 bound_to 10713
  156.0284  130.5376  150.8468 LP  0  0  0  0  0  0  0  0  0  0  0  0  # atno 17371 bound_to 10713
  140.6130  134.5439  157.5536 LP  0  0  0  0  0  0  0  0  0  0  0  0  # atno 17394 bound_to 11000
  139.9318  134.7948  156.0909 LP  0  0  0  0  0  0  0  0  0  0  0  0  # atno 17395 bound_to 11000

$$$$
