AV-unprocessed.smi:1965|AV-procd|sdf|7943|dock3
  -GOLD-   2272010113D 1   1.00000     0.00000
 Structure written by MMmdl.
 36 38  0  0  0  0  0  0  0  0  3 V2000
  148.9517  141.4719  153.8460 O   0  0  0  0  0  0  0  0  0  0  0  0
  149.3956  140.3450  154.0615 C   0  0  0  0  0  0  0  0  0  0  0  0
  150.6271  140.1092  154.5846 N   0  5  0  0  0  0  0  0  0  0  0  0
  151.0071  140.5905  155.7830 C   0  0  0  0  0  0  0  0  0  0  0  0
  152.0049  140.0616  156.5006 N   0  0  0  0  0  0  0  0  0  0  0  0
  152.2212  140.7137  157.7159 C   0  0  0  0  0  0  0  0  0  0  0  0
  151.3681  141.7638  157.9285 C   0  0  0  0  0  0  0  0  0  0  0  0
  150.2656  141.9707  156.5976 S   0  0  0  0  0  0  0  0  0  0  0  0
  148.6319  139.2776  153.7659 N   0  0  0  0  0  0  0  0  0  0  0  0
  147.2828  139.2995  153.2118 C   0  0  1  0  0  0  0  0  0  0  0  0
  147.2486  139.4159  151.6724 C   0  0  0  0  0  0  0  0  0  0  0  0
  146.2415  138.3554  151.2160 C   0  0  0  0  0  0  0  0  0  0  0  0
  146.3657  137.3129  152.2420 N   0  3  2  0  0  0  0  0  0  0  0  0
  145.3502  136.2403  152.2759 C   0  0  0  0  0  0  0  0  0  0  0  0
  145.7729  135.1924  153.3281 C   0  0  0  0  0  0  0  0  0  0  0  0
  146.0647  135.8312  154.7047 C   0  0  0  0  0  0  0  0  0  0  0  0
  147.0438  137.0175  154.5833 C   0  0  0  0  0  0  0  0  0  0  0  0
  146.5042  138.0068  153.5333 C   0  0  1  0  0  0  0  0  0  0  0  0
  153.0059  140.3623  158.3691 H   0  0  0  0  0  0  0  0  0  0  0  0
  151.3242  142.4281  158.7784 H   0  0  0  0  0  0  0  0  0  0  0  0
  149.0288  138.3684  153.9532 H   0  0  0  0  0  0  0  0  0  0  0  0
  146.7465  140.1405  153.6553 H   0  0  0  0  0  0  0  0  0  0  0  0
  146.9777  140.4168  151.3354 H   0  0  0  0  0  0  0  0  0  0  0  0
  148.2291  139.1846  151.2527 H   0  0  0  0  0  0  0  0  0  0  0  0
  145.2284  138.7609  151.2232 H   0  0  0  0  0  0  0  0  0  0  0  0
  146.4557  137.9739  150.2172 H   0  0  0  0  0  0  0  0  0  0  0  0
  144.3711  136.6582  152.5153 H   0  0  0  0  0  0  0  0  0  0  0  0
  145.2733  135.7759  151.2922 H   0  0  0  0  0  0  0  0  0  0  0  0
  145.0008  134.4288  153.4267 H   0  0  0  0  0  0  0  0  0  0  0  0
  146.6693  134.6781  152.9790 H   0  0  0  0  0  0  0  0  0  0  0  0
  145.1294  136.1791  155.1451 H   0  0  0  0  0  0  0  0  0  0  0  0
  146.4662  135.0826  155.3882 H   0  0  0  0  0  0  0  0  0  0  0  0
  147.1578  137.5104  155.5496 H   0  0  0  0  0  0  0  0  0  0  0  0
  148.0310  136.6530  154.2951 H   0  0  0  0  0  0  0  0  0  0  0  0
  145.5048  138.3181  153.8455 H   0  0  0  0  0  0  0  0  0  0  0  0
  147.2555  136.8672  152.0687 H   0  0  0  0  0  0  0  0  0  0  0  0
  1  2  2  0  0  0  0
  2  3  1  0  0  0  0
  2  9  1  0  0  0  0
  3  4  1  0  0  0  0
  4  8  1  0  0  0  0
  4  5  2  0  0  0  0
  5  6  1  0  0  0  0
  6  7  2  0  0  0  0
  6 19  1  0  0  0  0
  7  8  1  0  0  0  0
  7 20  1  0  0  0  0
  9 10  1  0  0  0  0
  9 21  1  0  0  0  0
 10 18  1  0  0  0  0
 10 11  1  0  0  0  0
 10 22  1  0  0  0  0
 11 12  1  0  0  0  0
 11 23  1  0  0  0  0
 11 24  1  0  0  0  0
 12 13  1  0  0  0  0
 12 25  1  0  0  0  0
 12 26  1  0  0  0  0
 13 18  1  0  0  0  0
 13 14  1  0  0  0  0
 13 36  1  0  0  0  0
 14 15  1  0  0  0  0
 14 27  1  0  0  0  0
 14 28  1  0  0  0  0
 15 16  1  0  0  0  0
 15 29  1  0  0  0  0
 15 30  1  0  0  0  0
 16 17  1  0  0  0  0
 16 31  1  0  0  0  0
 16 32  1  0  0  0  0
 17 18  1  0  0  0  0
 17 33  1  0  0  0  0
 17 34  1  0  0  0  0
 18 35  1  0  0  0  0
M  CHG  1   3  -1
M  CHG  1  13   1
M  END
> <s_m_source_file>
AV-unprocessed.smi

> <i_m_source_file_index>
1965

> <i_lp_mmshare_version>
43012

> <i_f3d_flags>
0

> <s_epik_input>
czFbY0hdW2NIXW5jMVtOSF1DKD1PKVtOSF1bQ0BIXShbQ0gyXVtDSDJdMilbQ0BASF0oTjIzKVtDSDJdW0NIMl1bQ0gyXVtDSDJdMw==

> <s_epik_cmdline>
J2VwaWtfcHl0aG9uJywgJy1waCcsICc3LjAnLCAnLXRuJywgJzgnLCAnLW1hJywgJzIwMCcsICctbWV0YWxfYmluZGluZycsICctaW1hZScsICc8aW5maWxlLm1hZT4nLCAnLW9tYWUnLCAnPG91dGZpbGUubWFlPic=

> <r_lp_tautomer_probability>
1

> <r_epik_Ionization_Penalty>
7.4116

> <r_epik_Ionization_Penalty_Charging>
6.13869

> <r_epik_Ionization_Penalty_Neutral>
1.27291

> <r_epik_State_Penalty>
6.13761

> <r_epik_Charging_Adjusted_Penalty>
12.2763

> <i_epik_Tot_Q>
0

> <i_epik_Tot_abs_Q>
2

> <r_epik_Metal_State_Penalty>
2.08142

> <b_epik_Metal_Only>
1

> <s_lp_Force_Field>
OPLS_2005

> <r_lp_Energy>
32.5812

> <b_lp_Chiralities_Consistent>
1

> <s_lp_Variant>
AV-unprocessed.smi:1965-12

> <Gold.Version>
5.8.1

> <Gold.Id.Protein>
6NUR|6NUR_protein|mol2

> <Gold.PLP.Fitness>
33.9364

> <Gold.PLP.PLP>
-24.7190

> <Gold.PLP.part.hbond>
-4.2506

> <Gold.PLP.part.metal>
0.0000

> <Gold.PLP.part.buried>
5.5855

> <Gold.PLP.part.nonpolar>
-25.8121

> <Gold.PLP.part.repulsive>
0.3727

> <Gold.PLP.ligand.clash>
0.0000

> <Gold.PLP.ligand.torsion>
0.9870

> <Gold.PLP.Chemscore.Hbond>
3.7296

> <Gold.PLP.Chemscore.CHOScore>
0.0000

> <Gold.PLP.Chemscore.Metal>
0.0000

> <Gold.Chemscore.Hbonds>
donor molecule, donor type, donor heavy atom, donor atom, acceptor molecule, acceptor atom, score
      L1  H    13    36       P1  7948  2.00
      P1  H  7989  7998       L1     3  1.00
      P1  H  8011  8017       L1     1  0.74

> <Gold.PLP.Chemscore.Internal.Correction>
0.0027

> <Gold.Rescore>
     Score         DG    S(hbond)    S(metal)    S(lipo)     H(rot)  DE(clash)    DE(int)     intcor
     11.75     -16.21       1.83        0.00      61.30       1.00       3.45       1.01       ----

> <Gold.Chemscore.Fitness>
11.7521

> <Gold.Chemscore.DG>
-16.2107

> <Gold.Chemscore.ZeroCoef>
-5.4800

> <Gold.Chemscore.Hbond>
1.8320

> <Gold.Chemscore.Metal>
0.0000

> <Gold.Chemscore.Lipo>
61.2985

> <Gold.Chemscore.Internal_Hbond>
0.0000

> <Gold.Chemscore.DEClash>
3.4477

> <Gold.Chemscore.DEInternal>
1.0110

> <Gold.Chemscore.Rot>
1.0000

> <Gold.Chemscore.Internal.Correction>
   9.000000E+99

> <Gold.Chemscore.Hbonds>
donor molecule, donor type, donor heavy atom, donor atom, acceptor molecule, acceptor atom, score
      L1  H    13    36       P1  7948  1.00
      P1  H  7989  7998       L1     3  0.17
      P1  H  8011  8017       L1     1  0.66

> <Gold.Chemscore.Hbond.Weighted>
-6.1188

> <Gold.Chemscore.Metal.Weighted>
-0.0000

> <Gold.Chemscore.Lipo.Weighted>
-7.1719

> <Gold.Chemscore.Internal_Hbond.Weighted>
0.0000

> <Gold.Chemscore.DEClash.Weighted>
3.4477

> <Gold.Chemscore.DEInternal.Weighted>
1.0110

> <Gold.Chemscore.Rot.Weighted>
2.5600

> <Gold.Chemscore.Internal.Correction.Weighted>
   9.000000E+99

> <Gold.Protein.RotatedTorsions>
[ 6907 6896 6895 6894 ] final  162.28 input  -60.11 | X-H torsion
[ 7974 7965 7964 7962 ] final  113.47 input  175.53 | X-H torsion
[ 8008 7997 7996 7995 ] final   60.80 input   59.86 | X-H torsion
[ 10167 10162 10161 10158 ] final  178.24 input  -65.29 | X-H torsion
[ 10718 10713 10712 10709 ] final  -59.56 input   66.30 | X-H torsion
[ 10763 10752 10751 10750 ] final  -24.91 input  -60.55 | X-H torsion
[ 11005 11000 10999 10996 ] final  103.08 input  -57.11 | X-H torsion

> <Gold.Protein.ActiveResidues>
 VAL166  LYS551  ARG553  GLY616  TRP617  ASP618  TYR619  PRO620  LYS621  CYS622 
 ASP623  PHE694  ASN695  SER759  ASP760  ASP761  ALA762  ILE779  LEU786  VAL792 
 PHE793  MET794  SER795  GLU796  ALA797  LYS798  CYS799  TRP800  GLU811  SER814 

> <Gold.Protein.RotatedAtoms>
  151.9428  133.3643  159.3971 H   0  0  0  0  0  0  0  0  0  0  0  0  # atno 6907 bound_to 6896
  150.6995  134.4421  159.5306 H   0  0  0  0  0  0  0  0  0  0  0  0  # atno 6908 bound_to 6896
  152.2081  134.8527  160.0551 H   0  0  0  0  0  0  0  0  0  0  0  0  # atno 6909 bound_to 6896
  145.2165  139.2882  143.4241 H   0  0  0  0  0  0  0  0  0  0  0  0  # atno 7974 bound_to 7965
  155.5881  140.3492  155.4559 H   0  0  0  0  0  0  0  0  0  0  0  0  # atno 8008 bound_to 7997
  156.0322  140.1277  157.0270 H   0  0  0  0  0  0  0  0  0  0  0  0  # atno 8009 bound_to 7997
  154.4357  140.1041  156.6102 H   0  0  0  0  0  0  0  0  0  0  0  0  # atno 8010 bound_to 7997
  139.5286  144.2703  152.0633 H   0  0  0  0  0  0  0  0  0  0  0  0  # atno 10167 bound_to 10162
  156.1053  130.4181  150.0732 H   0  0  0  0  0  0  0  0  0  0  0  0  # atno 10718 bound_to 10713
  153.6914  135.6961  153.5089 H   0  0  0  0  0  0  0  0  0  0  0  0  # atno 10763 bound_to 10752
  153.2410  135.4306  155.0697 H   0  0  0  0  0  0  0  0  0  0  0  0  # atno 10764 bound_to 10752
  154.8371  135.3508  154.6455 H   0  0  0  0  0  0  0  0  0  0  0  0  # atno 10765 bound_to 10752
  139.8781  134.9249  156.5155 H   0  0  0  0  0  0  0  0  0  0  0  0  # atno 11005 bound_to 11000
  146.3386  140.2457  142.8597 LP  0  0  0  0  0  0  0  0  0  0  0  0  # atno 17320 bound_to 7965
  144.9806  140.8455  143.5399 LP  0  0  0  0  0  0  0  0  0  0  0  0  # atno 17321 bound_to 7965
  140.2163  144.4511  150.6362 LP  0  0  0  0  0  0  0  0  0  0  0  0  # atno 17342 bound_to 10162
  140.6448  143.2211  151.6211 LP  0  0  0  0  0  0  0  0  0  0  0  0  # atno 17343 bound_to 10162
  156.8709  130.9524  151.3609 LP  0  0  0  0  0  0  0  0  0  0  0  0  # atno 17370 bound_to 10713
  157.6229  130.8669  149.9139 LP  0  0  0  0  0  0  0  0  0  0  0  0  # atno 17371 bound_to 10713
  140.8489  133.8147  155.9149 LP  0  0  0  0  0  0  0  0  0  0  0  0  # atno 17394 bound_to 11000
  140.9164  134.2196  157.4954 LP  0  0  0  0  0  0  0  0  0  0  0  0  # atno 17395 bound_to 11000

$$$$
