AV-unprocessed.smi:1222|AV-procd|sdf|5123|dock9
  -GOLD-   22720 4183D 1   1.00000     0.00000
 Structure written by MMmdl.
 36 38  0  0  0  0  0  0  0  0  3 V2000
  150.4583  133.7165  157.3219 O   0  0  0  0  0  0  0  0  0  0  0  0
  150.9814  134.5273  156.5540 C   0  0  0  0  0  0  0  0  0  0  0  0
  152.1162  135.2274  156.7770 N   0  5  0  0  0  0  0  0  0  0  0  0
  152.0591  136.4226  157.3869 C   0  0  0  0  0  0  0  0  0  0  0  0
  151.3231  136.6479  158.4813 N   0  0  0  0  0  0  0  0  0  0  0  0
  151.4150  137.9592  158.9514 C   0  0  0  0  0  0  0  0  0  0  0  0
  152.2464  138.7487  158.2020 C   0  0  0  0  0  0  0  0  0  0  0  0
  152.9445  137.8627  156.8764 S   0  0  0  0  0  0  0  0  0  0  0  0
  150.4181  134.7811  155.3642 N   0  0  0  0  0  0  0  0  0  0  0  0
  149.1941  134.1758  154.8483 C   0  0  2  0  0  0  0  0  0  0  0  0
  149.4554  133.4705  153.5037 C   0  0  0  0  0  0  0  0  0  0  0  0
  148.1504  132.9293  152.8985 C   0  0  0  0  0  0  0  0  0  0  0  0
  147.1493  134.0127  152.7386 N   0  3  1  0  0  0  0  0  0  0  0  0
  145.9266  133.5456  152.0499 C   0  0  0  0  0  0  0  0  0  0  0  0
  146.1518  133.1561  150.6074 C   0  0  0  0  0  0  0  0  0  0  0  0
  145.4663  134.4627  150.9406 C   0  0  0  0  0  0  0  0  0  0  0  0
  146.8450  134.6739  154.0316 C   0  0  0  0  0  0  0  0  0  0  0  0
  148.1184  135.2587  154.6639 C   0  0  0  0  0  0  0  0  0  0  0  0
  150.8524  138.2446  159.8279 H   0  0  0  0  0  0  0  0  0  0  0  0
  152.4906  139.7900  158.3477 H   0  0  0  0  0  0  0  0  0  0  0  0
  150.8818  135.4540  154.7715 H   0  0  0  0  0  0  0  0  0  0  0  0
  148.8243  133.4454  155.5706 H   0  0  0  0  0  0  0  0  0  0  0  0
  149.9185  134.1673  152.8030 H   0  0  0  0  0  0  0  0  0  0  0  0
  150.1630  132.6515  153.6366 H   0  0  0  0  0  0  0  0  0  0  0  0
  148.3601  132.4779  151.9282 H   0  0  0  0  0  0  0  0  0  0  0  0
  147.7400  132.1421  153.5328 H   0  0  0  0  0  0  0  0  0  0  0  0
  145.2023  133.0093  152.6605 H   0  0  0  0  0  0  0  0  0  0  0  0
  147.1644  133.2073  150.2109 H   0  0  0  0  0  0  0  0  0  0  0  0
  145.5334  132.3585  150.2005 H   0  0  0  0  0  0  0  0  0  0  0  0
  144.3964  134.5261  150.7519 H   0  0  0  0  0  0  0  0  0  0  0  0
  146.0242  135.3810  150.7657 H   0  0  0  0  0  0  0  0  0  0  0  0
  146.1190  135.4719  153.8730 H   0  0  0  0  0  0  0  0  0  0  0  0
  146.3832  133.9553  154.7109 H   0  0  0  0  0  0  0  0  0  0  0  0
  147.8776  135.7145  155.6252 H   0  0  0  0  0  0  0  0  0  0  0  0
  148.5021  136.0595  154.0295 H   0  0  0  0  0  0  0  0  0  0  0  0
  147.5700  134.7126  152.1441 H   0  0  0  0  0  0  0  0  0  0  0  0
  1  2  2  0  0  0  0
  2  3  1  0  0  0  0
  2  9  1  0  0  0  0
  3  4  1  0  0  0  0
  4  8  1  0  0  0  0
  4  5  2  0  0  0  0
  5  6  1  0  0  0  0
  6  7  2  0  0  0  0
  6 19  1  0  0  0  0
  7  8  1  0  0  0  0
  7 20  1  0  0  0  0
  9 10  1  0  0  0  0
  9 21  1  0  0  0  0
 10 18  1  0  0  0  0
 10 11  1  0  0  0  0
 10 22  1  0  0  0  0
 11 12  1  0  0  0  0
 11 23  1  0  0  0  0
 11 24  1  0  0  0  0
 12 13  1  0  0  0  0
 12 25  1  0  0  0  0
 12 26  1  0  0  0  0
 13 14  1  0  0  0  0
 13 17  1  0  0  0  0
 13 36  1  0  0  0  0
 14 16  1  0  0  0  0
 14 15  1  0  0  0  0
 14 27  1  0  0  0  0
 15 16  1  0  0  0  0
 15 28  1  0  0  0  0
 15 29  1  0  0  0  0
 16 30  1  0  0  0  0
 16 31  1  0  0  0  0
 17 18  1  0  0  0  0
 17 32  1  0  0  0  0
 17 33  1  0  0  0  0
 18 34  1  0  0  0  0
 18 35  1  0  0  0  0
M  CHG  1   3  -1
M  CHG  1  13   1
M  END
> <s_m_source_file>
AV-unprocessed.smi

> <i_m_source_file_index>
1222

> <i_lp_mmshare_version>
43012

> <i_f3d_flags>
0

> <s_epik_input>
czFbY0hdW2NIXW5jMVtOSF1DKD1PKVtOSF1bQ0hdMltDSDJdW0NIMl1OKFtDSDJdW0NIMl0yKVtDSF0zW0NIMl1bQ0gyXTM=

> <s_epik_cmdline>
J2VwaWtfcHl0aG9uJywgJy1waCcsICc3LjAnLCAnLXRuJywgJzgnLCAnLW1hJywgJzIwMCcsICctbWV0YWxfYmluZGluZycsICctaW1hZScsICc8aW5maWxlLm1hZT4nLCAnLW9tYWUnLCAnPG91dGZpbGUubWFlPic=

> <r_lp_tautomer_probability>
0.999

> <r_epik_Ionization_Penalty>
6.4609

> <r_epik_Ionization_Penalty_Charging>
5.58663

> <r_epik_Ionization_Penalty_Neutral>
0.874262

> <r_epik_State_Penalty>
5.57752

> <r_epik_Charging_Adjusted_Penalty>
11.1642

> <i_epik_Tot_Q>
0

> <i_epik_Tot_abs_Q>
2

> <r_epik_Metal_State_Penalty>
1.58738

> <b_epik_Metal_Only>
1

> <s_lp_Force_Field>
OPLS_2005

> <r_lp_Energy>
15.8934

> <b_lp_Chiralities_Consistent>
1

> <s_lp_Variant>
AV-unprocessed.smi:1222-4

> <Gold.Version>
5.8.1

> <Gold.Id.Protein>
6NUR|6NUR_protein|mol2

> <Gold.PLP.Fitness>
40.0661

> <Gold.PLP.PLP>
-25.7040

> <Gold.PLP.part.hbond>
-4.0000

> <Gold.PLP.part.metal>
0.0000

> <Gold.PLP.part.buried>
-2.7523

> <Gold.PLP.part.nonpolar>
-18.3254

> <Gold.PLP.part.repulsive>
0.0914

> <Gold.PLP.ligand.clash>
0.0000

> <Gold.PLP.ligand.torsion>
1.8036

> <Gold.PLP.Chemscore.Hbond>
5.5680

> <Gold.PLP.Chemscore.CHOScore>
0.0000

> <Gold.PLP.Chemscore.Metal>
0.0000

> <Gold.Chemscore.Hbonds>
donor molecule, donor type, donor heavy atom, donor atom, acceptor molecule, acceptor atom, score
      L1  H    13    36       P1  7948  2.00
      P1  H  6896  6907       L1     5  0.68
      P1  H  6896  6909       L1     1  0.83
      P1  H 10752 10764       L1     3  2.00

> <Gold.PLP.Chemscore.Internal.Correction>
1.2653

> <Gold.Rescore>
     Score         DG    S(hbond)    S(metal)    S(lipo)     H(rot)  DE(clash)    DE(int)     intcor
     16.79     -19.10       3.09        0.00      55.54       1.25       0.12       2.19       ----

> <Gold.Chemscore.Fitness>
16.7852

> <Gold.Chemscore.DG>
-19.0997

> <Gold.Chemscore.ZeroCoef>
-5.4800

> <Gold.Chemscore.Hbond>
3.0880

> <Gold.Chemscore.Metal>
0.0000

> <Gold.Chemscore.Lipo>
55.5403

> <Gold.Chemscore.Internal_Hbond>
0.0000

> <Gold.Chemscore.DEClash>
0.1224

> <Gold.Chemscore.DEInternal>
2.1921

> <Gold.Chemscore.Rot>
1.2470

> <Gold.Chemscore.Internal.Correction>
   9.000000E+99

> <Gold.Chemscore.Hbonds>
donor molecule, donor type, donor heavy atom, donor atom, acceptor molecule, acceptor atom, score
      L1  H    13    36       P1  7948  0.66
      P1  H  6896  6907       L1     5  0.55
      P1  H  6896  6909       L1     1  0.81
      P1  H 10752 10764       L1     3  0.59

> <Gold.Chemscore.Hbond.Weighted>
-10.3138

> <Gold.Chemscore.Metal.Weighted>
-0.0000

> <Gold.Chemscore.Lipo.Weighted>
-6.4982

> <Gold.Chemscore.Internal_Hbond.Weighted>
0.0000

> <Gold.Chemscore.DEClash.Weighted>
0.1224

> <Gold.Chemscore.DEInternal.Weighted>
2.1921

> <Gold.Chemscore.Rot.Weighted>
3.1924

> <Gold.Chemscore.Internal.Correction.Weighted>
   9.000000E+99

> <Gold.Protein.RotatedTorsions>
[ 6907 6896 6895 6894 ] final  -12.51 input  -60.11 | X-H torsion
[ 7974 7965 7964 7962 ] final   87.36 input  175.53 | X-H torsion
[ 8008 7997 7996 7995 ] final -122.92 input   59.86 | X-H torsion
[ 10167 10162 10161 10158 ] final  -58.23 input  -65.29 | X-H torsion
[ 10718 10713 10712 10709 ] final   93.28 input   66.30 | X-H torsion
[ 10763 10752 10751 10750 ] final   -8.72 input  -60.55 | X-H torsion
[ 11005 11000 10999 10996 ] final   61.54 input  -57.11 | X-H torsion

> <Gold.Protein.ActiveResidues>
 VAL166  LYS551  ARG553  GLY616  TRP617  ASP618  TYR619  PRO620  LYS621  CYS622 
 ASP623  PHE694  ASN695  SER759  ASP760  ASP761  ALA762  ILE779  LEU786  VAL792 
 PHE793  MET794  SER795  GLU796  ALA797  LYS798  CYS799  TRP800  GLU811  SER814 

> <Gold.Protein.RotatedAtoms>
  151.3694  135.0919  159.9460 H   0  0  0  0  0  0  0  0  0  0  0  0  # atno 6907 bound_to 6896
  152.5140  133.9179  159.7530 H   0  0  0  0  0  0  0  0  0  0  0  0  # atno 6908 bound_to 6896
  150.9590  133.6411  159.2787 H   0  0  0  0  0  0  0  0  0  0  0  0  # atno 6909 bound_to 6896
  145.5600  139.2303  143.2465 H   0  0  0  0  0  0  0  0  0  0  0  0  # atno 7974 bound_to 7965
  155.1721  140.0408  157.2865 H   0  0  0  0  0  0  0  0  0  0  0  0  # atno 8008 bound_to 7997
  154.6262  140.2513  155.7461 H   0  0  0  0  0  0  0  0  0  0  0  0  # atno 8009 bound_to 7997
  156.2460  140.2884  156.0593 H   0  0  0  0  0  0  0  0  0  0  0  0  # atno 8010 bound_to 7997
  140.6210  143.2419  151.5481 H   0  0  0  0  0  0  0  0  0  0  0  0  # atno 10167 bound_to 10162
  157.6955  131.0473  150.4010 H   0  0  0  0  0  0  0  0  0  0  0  0  # atno 10718 bound_to 10713
  153.4445  135.7014  153.6148 H   0  0  0  0  0  0  0  0  0  0  0  0  # atno 10763 bound_to 10752
  153.4509  135.3758  155.2283 H   0  0  0  0  0  0  0  0  0  0  0  0  # atno 10764 bound_to 10752
  154.8728  135.3996  154.3848 H   0  0  0  0  0  0  0  0  0  0  0  0  # atno 10765 bound_to 10752
  140.0154  134.6232  155.9717 H   0  0  0  0  0  0  0  0  0  0  0  0  # atno 11005 bound_to 11000
  146.1858  140.6425  142.9168 LP  0  0  0  0  0  0  0  0  0  0  0  0  # atno 17320 bound_to 7965
  144.7487  140.5136  143.6817 LP  0  0  0  0  0  0  0  0  0  0  0  0  # atno 17321 bound_to 7965
  139.5438  144.2575  152.1403 LP  0  0  0  0  0  0  0  0  0  0  0  0  # atno 17342 bound_to 10162
  140.1795  144.4858  150.6536 LP  0  0  0  0  0  0  0  0  0  0  0  0  # atno 17343 bound_to 10162
  156.4403  130.3990  149.6701 LP  0  0  0  0  0  0  0  0  0  0  0  0  # atno 17370 bound_to 10713
  156.3887  130.7616  151.2615 LP  0  0  0  0  0  0  0  0  0  0  0  0  # atno 17371 bound_to 10713
  141.1739  133.6539  156.4756 LP  0  0  0  0  0  0  0  0  0  0  0  0  # atno 17394 bound_to 11000
  140.4480  134.6955  157.5025 LP  0  0  0  0  0  0  0  0  0  0  0  0  # atno 17395 bound_to 11000

$$$$
