AV-unprocessed.smi:2772|AV-procd|sdf|10670|dock7
  -GOLD-   2272015113D 1   1.00000     0.00000
 Structure written by MMmdl.
 54 56  0  0  0  0  0  0  0  0  2 V2000
  152.8913  143.2646  160.3518 C   0  0  0  0  0  0  0  0  0  0  0  0
  152.0960  142.5950  159.2508 C   0  0  0  0  0  0  0  0  0  0  0  0
  151.8754  141.2027  159.2625 C   0  0  0  0  0  0  0  0  0  0  0  0
  151.1249  140.6305  158.2172 C   0  0  0  0  0  0  0  0  0  0  0  0
  150.6133  141.4735  157.2011 C   0  0  0  0  0  0  0  0  0  0  0  0
  149.8563  141.0209  156.0862 N   0  0  0  0  0  0  0  0  0  0  0  0
  148.9125  140.0648  156.0425 C   0  0  0  0  0  0  0  0  0  0  0  0
  148.5162  139.4070  157.0043 O   0  0  0  0  0  0  0  0  0  0  0  0
  148.4258  139.9204  154.8015 N   0  0  0  0  0  0  0  0  0  0  0  0
  147.3877  138.9697  154.4130 C   0  0  2  0  0  0  0  0  0  0  0  0
  147.8032  137.5475  154.8087 C   0  0  0  0  0  0  0  0  0  0  0  0
  146.7685  136.5066  154.3461 C   0  0  0  0  0  0  0  0  0  0  0  0
  146.5246  136.5780  152.8751 N   0  3  1  0  0  0  0  0  0  0  0  0
  145.6034  135.5272  152.3302 C   0  0  0  0  0  0  0  0  0  0  0  0
  146.1113  134.0771  152.5214 C   0  0  0  0  0  0  0  0  0  0  0  0
  145.1801  133.0498  151.8545 C   0  0  0  0  0  0  0  0  0  0  0  0
  145.0692  133.3255  150.4245 N   0  0  0  0  0  0  0  0  0  0  0  0
  144.2364  132.3071  149.8001 C   0  0  0  0  0  0  0  0  0  0  0  0
  144.4599  134.6376  150.2235 C   0  0  0  0  0  0  0  0  0  0  0  0
  145.3597  135.7347  150.8173 C   0  0  0  0  0  0  0  0  0  0  0  0
  146.1052  137.9539  152.4807 C   0  0  0  0  0  0  0  0  0  0  0  0
  147.1391  139.0115  152.8974 C   0  0  0  0  0  0  0  0  0  0  0  0
  150.9057  142.8514  157.2829 C   0  0  0  0  0  0  0  0  0  0  0  0
  151.6242  143.4078  158.2812 N   0  0  0  0  0  0  0  0  0  0  0  0
  153.4535  142.5321  160.9316 H   0  0  0  0  0  0  0  0  0  0  0  0
  152.2226  143.7966  161.0289 H   0  0  0  0  0  0  0  0  0  0  0  0
  153.5998  143.9807  159.9344 H   0  0  0  0  0  0  0  0  0  0  0  0
  152.2740  140.5827  160.0517 H   0  0  0  0  0  0  0  0  0  0  0  0
  150.9708  139.5630  158.2128 H   0  0  0  0  0  0  0  0  0  0  0  0
  150.0192  141.5227  155.2255 H   0  0  0  0  0  0  0  0  0  0  0  0
  148.8054  140.5062  154.0719 H   0  0  0  0  0  0  0  0  0  0  0  0
  146.4623  139.2173  154.9373 H   0  0  0  0  0  0  0  0  0  0  0  0
  148.7741  137.3093  154.3711 H   0  0  0  0  0  0  0  0  0  0  0  0
  147.9287  137.4828  155.8902 H   0  0  0  0  0  0  0  0  0  0  0  0
  147.1612  135.5310  154.6289 H   0  0  0  0  0  0  0  0  0  0  0  0
  145.8270  136.6446  154.8800 H   0  0  0  0  0  0  0  0  0  0  0  0
  144.6505  135.6094  152.8560 H   0  0  0  0  0  0  0  0  0  0  0  0
  147.1174  133.9727  152.1118 H   0  0  0  0  0  0  0  0  0  0  0  0
  146.1701  133.8247  153.5802 H   0  0  0  0  0  0  0  0  0  0  0  0
  145.5835  132.0469  152.0005 H   0  0  0  0  0  0  0  0  0  0  0  0
  144.1944  133.0698  152.3226 H   0  0  0  0  0  0  0  0  0  0  0  0
  144.1483  132.4898  148.7284 H   0  0  0  0  0  0  0  0  0  0  0  0
  143.2330  132.2935  150.2282 H   0  0  0  0  0  0  0  0  0  0  0  0
  144.6771  131.3183  149.9316 H   0  0  0  0  0  0  0  0  0  0  0  0
  144.3274  134.8168  149.1559 H   0  0  0  0  0  0  0  0  0  0  0  0
  143.4686  134.6706  150.6791 H   0  0  0  0  0  0  0  0  0  0  0  0
  144.8870  136.6946  150.6180 H   0  0  0  0  0  0  0  0  0  0  0  0
  146.3133  135.7475  150.2869 H   0  0  0  0  0  0  0  0  0  0  0  0
  145.9674  138.0282  151.4040 H   0  0  0  0  0  0  0  0  0  0  0  0
  145.1391  138.1822  152.9338 H   0  0  0  0  0  0  0  0  0  0  0  0
  146.7870  140.0000  152.5997 H   0  0  0  0  0  0  0  0  0  0  0  0
  148.0729  138.8414  152.3594 H   0  0  0  0  0  0  0  0  0  0  0  0
  150.5481  143.5329  156.5248 H   0  0  0  0  0  0  0  0  0  0  0  0
  147.4214  136.4108  152.4418 H   0  0  0  0  0  0  0  0  0  0  0  0
  1  2  1  0  0  0  0
  1 25  1  0  0  0  0
  1 26  1  0  0  0  0
  1 27  1  0  0  0  0
  2 24  1  0  0  0  0
  2  3  2  0  0  0  0
  3  4  1  0  0  0  0
  3 28  1  0  0  0  0
  4  5  2  0  0  0  0
  4 29  1  0  0  0  0
  5  6  1  0  0  0  0
  5 23  1  0  0  0  0
  6  7  1  0  0  0  0
  6 30  1  0  0  0  0
  7  8  2  0  0  0  0
  7  9  1  0  0  0  0
  9 10  1  0  0  0  0
  9 31  1  0  0  0  0
 10 22  1  0  0  0  0
 10 11  1  0  0  0  0
 10 32  1  0  0  0  0
 11 12  1  0  0  0  0
 11 33  1  0  0  0  0
 11 34  1  0  0  0  0
 12 13  1  0  0  0  0
 12 35  1  0  0  0  0
 12 36  1  0  0  0  0
 13 14  1  0  0  0  0
 13 21  1  0  0  0  0
 13 54  1  0  0  0  0
 14 20  1  0  0  0  0
 14 15  1  0  0  0  0
 14 37  1  0  0  0  0
 15 16  1  0  0  0  0
 15 38  1  0  0  0  0
 15 39  1  0  0  0  0
 16 17  1  0  0  0  0
 16 40  1  0  0  0  0
 16 41  1  0  0  0  0
 17 18  1  0  0  0  0
 17 19  1  0  0  0  0
 18 42  1  0  0  0  0
 18 43  1  0  0  0  0
 18 44  1  0  0  0  0
 19 20  1  0  0  0  0
 19 45  1  0  0  0  0
 19 46  1  0  0  0  0
 20 47  1  0  0  0  0
 20 48  1  0  0  0  0
 21 22  1  0  0  0  0
 21 49  1  0  0  0  0
 21 50  1  0  0  0  0
 22 51  1  0  0  0  0
 22 52  1  0  0  0  0
 23 24  2  0  0  0  0
 23 53  1  0  0  0  0
M  CHG  1  13   1
M  END
> <s_m_source_file>
AV-unprocessed.smi

> <i_m_source_file_index>
2772

> <i_lp_mmshare_version>
43012

> <i_f3d_flags>
0

> <s_epik_input>
W0NIM11jMVtjSF1bY0hdYyhbY0hdbjEpW05IXUMoPU8pW05IXVtDSF0yW0NIMl1bQ0gyXU4oW0NIMl1bQ0gyXTIpW0NIXTNbQ0gyXVtDSDJdTihbQ0gzXSlbQ0gyXVtDSDJdMw==

> <s_epik_cmdline>
J2VwaWtfcHl0aG9uJywgJy1waCcsICc3LjAnLCAnLXRuJywgJzgnLCAnLW1hJywgJzIwMCcsICctbWV0YWxfYmluZGluZycsICctaW1hZScsICc8aW5maWxlLm1hZT4nLCAnLW9tYWUnLCAnPG91dGZpbGUubWFlPic=

> <r_epik_Ionization_Penalty>
1.38854

> <r_epik_Ionization_Penalty_Charging>
0.00081195

> <r_epik_Ionization_Penalty_Neutral>
1.38772

> <r_epik_State_Penalty>
1.56122

> <r_epik_Charging_Adjusted_Penalty>
1.56203

> <i_epik_Tot_Q>
1

> <i_epik_Tot_abs_Q>
1

> <r_epik_Metal_State_Penalty>
1.5614

> <b_epik_Metal_Only>
0

> <s_lp_Force_Field>
OPLS_2005

> <r_lp_Energy>
35.3566

> <b_lp_Chiralities_Consistent>
1

> <s_lp_Variant>
AV-unprocessed.smi:2772-7

> <Gold.Version>
5.8.1

> <Gold.Id.Protein>
6NUR|6NUR_protein|mol2

> <Gold.PLP.Fitness>
46.2556

> <Gold.PLP.PLP>
-37.9322

> <Gold.PLP.part.hbond>
-1.0000

> <Gold.PLP.part.metal>
0.0000

> <Gold.PLP.part.buried>
-5.0979

> <Gold.PLP.part.nonpolar>
-32.5470

> <Gold.PLP.part.repulsive>
0.3320

> <Gold.PLP.ligand.clash>
0.0000

> <Gold.PLP.ligand.torsion>
0.3541

> <Gold.PLP.Chemscore.Hbond>
2.0000

> <Gold.PLP.Chemscore.CHOScore>
1.0000

> <Gold.PLP.Chemscore.Metal>
0.0000

> <Gold.Chemscore.Hbonds>
donor molecule, donor type, donor heavy atom, donor atom, acceptor molecule, acceptor atom, score
      L1  H    13    54       P1  7948  2.00
      L1  C    23    53       P1  8028  1.00

> <Gold.PLP.Chemscore.Internal.Correction>
0.0316

> <Gold.Rescore>
     Score         DG    S(hbond)    S(metal)    S(lipo)     H(rot)  DE(clash)    DE(int)     intcor
     18.48     -18.86       1.00        0.00     111.90       1.19       0.06       0.33       ----

> <Gold.Chemscore.Fitness>
18.4759

> <Gold.Chemscore.DG>
-18.8585

> <Gold.Chemscore.ZeroCoef>
-5.4800

> <Gold.Chemscore.Hbond>
0.9986

> <Gold.Chemscore.Metal>
0.0000

> <Gold.Chemscore.Lipo>
111.8992

> <Gold.Chemscore.Internal_Hbond>
0.0000

> <Gold.Chemscore.DEClash>
0.0567

> <Gold.Chemscore.DEInternal>
0.3259

> <Gold.Chemscore.Rot>
1.1910

> <Gold.Chemscore.Internal.Correction>
   9.000000E+99

> <Gold.Chemscore.Hbonds>
donor molecule, donor type, donor heavy atom, donor atom, acceptor molecule, acceptor atom, score
      L1  H    13    54       P1  7948  1.00

> <Gold.Chemscore.Hbond.Weighted>
-3.3352

> <Gold.Chemscore.Metal.Weighted>
-0.0000

> <Gold.Chemscore.Lipo.Weighted>
-13.0922

> <Gold.Chemscore.Internal_Hbond.Weighted>
0.0000

> <Gold.Chemscore.DEClash.Weighted>
0.0567

> <Gold.Chemscore.DEInternal.Weighted>
0.3259

> <Gold.Chemscore.Rot.Weighted>
3.0489

> <Gold.Chemscore.Internal.Correction.Weighted>
   9.000000E+99

> <Gold.Protein.RotatedTorsions>
[ 6907 6896 6895 6894 ] final  159.04 input  -60.11 | X-H torsion
[ 7974 7965 7964 7962 ] final   79.74 input  175.53 | X-H torsion
[ 8008 7997 7996 7995 ] final  -66.37 input   59.86 | X-H torsion
[ 10167 10162 10161 10158 ] final -157.53 input  -65.29 | X-H torsion
[ 10718 10713 10712 10709 ] final   74.66 input   66.30 | X-H torsion
[ 10763 10752 10751 10750 ] final  -40.89 input  -60.55 | X-H torsion
[ 11005 11000 10999 10996 ] final -164.67 input  -57.11 | X-H torsion

> <Gold.Protein.ActiveResidues>
 VAL166  LYS551  ARG553  GLY616  TRP617  ASP618  TYR619  PRO620  LYS621  CYS622 
 ASP623  PHE694  ASN695  SER759  ASP760  ASP761  ALA762  ILE779  LEU786  VAL792 
 PHE793  MET794  SER795  GLU796  ALA797  LYS798  CYS799  TRP800  GLU811  SER814 

> <Gold.Protein.RotatedAtoms>
  151.9915  133.3793  159.4146 H   0  0  0  0  0  0  0  0  0  0  0  0  # atno 6907 bound_to 6896
  150.6921  134.3931  159.5094 H   0  0  0  0  0  0  0  0  0  0  0  0  # atno 6908 bound_to 6896
  152.1665  134.8869  160.0588 H   0  0  0  0  0  0  0  0  0  0  0  0  # atno 6909 bound_to 6896
  145.6602  139.2469  143.1927 H   0  0  0  0  0  0  0  0  0  0  0  0  # atno 7974 bound_to 7965
  154.4730  140.0914  156.7192 H   0  0  0  0  0  0  0  0  0  0  0  0  # atno 8008 bound_to 7997
  155.4673  140.3463  155.4302 H   0  0  0  0  0  0  0  0  0  0  0  0  # atno 8009 bound_to 7997
  156.1070  140.1437  156.9379 H   0  0  0  0  0  0  0  0  0  0  0  0  # atno 8010 bound_to 7997
  139.6763  143.9657  152.2312 H   0  0  0  0  0  0  0  0  0  0  0  0  # atno 10167 bound_to 10162
  157.6602  130.9688  150.1243 H   0  0  0  0  0  0  0  0  0  0  0  0  # atno 10718 bound_to 10713
  153.9535  135.6748  153.4744 H   0  0  0  0  0  0  0  0  0  0  0  0  # atno 10763 bound_to 10752
  153.0873  135.4892  154.8618 H   0  0  0  0  0  0  0  0  0  0  0  0  # atno 10764 bound_to 10752
  154.7312  135.3138  154.8847 H   0  0  0  0  0  0  0  0  0  0  0  0  # atno 10765 bound_to 10752
  140.5843  134.5109  157.5183 H   0  0  0  0  0  0  0  0  0  0  0  0  # atno 11005 bound_to 11000
  146.1131  140.7403  142.9493 LP  0  0  0  0  0  0  0  0  0  0  0  0  # atno 17320 bound_to 7965
  144.7091  140.3971  143.7094 LP  0  0  0  0  0  0  0  0  0  0  0  0  # atno 17321 bound_to 7965
  139.9435  144.6666  150.8242 LP  0  0  0  0  0  0  0  0  0  0  0  0  # atno 17342 bound_to 10162
  140.7636  143.3229  151.2582 LP  0  0  0  0  0  0  0  0  0  0  0  0  # atno 17343 bound_to 10162
  156.2106  130.3666  149.8675 LP  0  0  0  0  0  0  0  0  0  0  0  0  # atno 17370 bound_to 10713
  156.6555  130.8761  151.3538 LP  0  0  0  0  0  0  0  0  0  0  0  0  # atno 17371 bound_to 10713
  139.9303  134.7977  156.0951 LP  0  0  0  0  0  0  0  0  0  0  0  0  # atno 17394 bound_to 11000
  141.0976  133.6689  156.2680 LP  0  0  0  0  0  0  0  0  0  0  0  0  # atno 17395 bound_to 11000

$$$$
