AV-unprocessed.smi:246|AV-procd|sdf|1881|dock3
  -GOLD-   2262020523D 1   1.00000     0.00000
 Structure written by MMmdl.
 57 60  0  0  0  0  0  0  0  0  1 V2000
  153.5736  141.8696  160.8020 C   0  0  0  0  0  0  0  0  0  0  0  0
  152.2113  142.5109  160.5049 C   0  0  0  0  0  0  0  0  0  0  0  0
  151.6682  142.0454  159.2775 O   0  0  0  0  0  0  0  0  0  0  0  0
  151.7591  140.6401  159.0934 C   0  0  0  0  0  0  0  0  0  0  0  0
  150.9749  140.2558  157.8355 C   0  0  0  0  0  0  0  0  0  0  0  0
  151.6194  140.8152  156.7012 O   0  0  0  0  0  0  0  0  0  0  0  0
  151.0933  140.3564  155.4650 C   0  0  2  0  0  0  0  0  0  0  0  0
  149.5657  140.4235  155.4672 C   0  0  0  0  0  0  0  0  0  0  0  0
  149.1449  139.3626  154.4442 C   0  0  0  0  0  0  0  0  0  0  0  0
  150.2671  138.4392  154.3538 N   0  0  0  0  0  0  0  0  0  0  0  0
  150.1183  137.1468  153.9644 C   0  0  0  0  0  0  0  0  0  0  0  0
  151.1220  136.5628  153.2572 N   0  0  0  0  0  0  0  0  0  0  0  0
  151.0179  135.2953  152.8487 C   0  0  0  0  0  0  0  0  0  0  0  0
  150.0077  134.4433  153.0258 N   0  0  0  0  0  0  0  0  0  0  0  0
  148.9895  135.0226  153.7236 C   0  0  0  0  0  0  0  0  0  0  0  0
  148.9615  136.3548  154.2291 C   0  0  0  0  0  0  0  0  0  0  0  0
  147.7528  136.5793  154.8802 N   0  0  0  0  0  0  0  0  0  0  0  0
  147.1105  135.4491  154.7719 C   0  0  0  0  0  0  0  0  0  0  0  0
  147.7713  134.4655  154.0725 N   0  0  0  0  0  0  0  0  0  0  0  0
  147.2902  133.1217  153.8000 C   0  0  0  0  0  0  0  0  0  0  0  0
  145.8963  133.0835  153.1323 C   0  0  2  0  0  0  0  0  0  0  0  0
  145.0934  132.2736  153.9663 O   0  0  0  0  0  0  0  0  0  0  0  0
  145.8516  132.4573  151.7195 C   0  0  2  0  0  0  0  0  0  0  0  0
  146.4763  133.2843  150.5920 C   0  0  0  0  0  0  0  0  0  0  0  0
  145.7384  132.8273  149.3442 C   0  0  0  0  0  0  0  0  0  0  0  0
  144.5102  132.0989  149.8902 C   0  0  0  0  0  0  0  0  0  0  0  0
  144.5023  132.3929  151.2794 O   0  0  0  0  0  0  0  0  0  0  0  0
  151.3588  138.8693  155.2147 C   0  0  0  0  0  0  0  0  0  0  0  0
  151.4706  140.9528  154.6319 H   0  0  0  0  0  0  0  0  0  0  0  0
  154.0192  142.3092  161.6944 H   0  0  0  0  0  0  0  0  0  0  0  0
  154.2660  142.0246  159.9743 H   0  0  0  0  0  0  0  0  0  0  0  0
  153.4896  140.7970  160.9740 H   0  0  0  0  0  0  0  0  0  0  0  0
  151.5132  142.3526  161.3284 H   0  0  0  0  0  0  0  0  0  0  0  0
  152.3438  143.5891  160.4152 H   0  0  0  0  0  0  0  0  0  0  0  0
  152.7936  140.3072  159.0080 H   0  0  0  0  0  0  0  0  0  0  0  0
  151.3234  140.1384  159.9587 H   0  0  0  0  0  0  0  0  0  0  0  0
  150.9576  139.1698  157.7343 H   0  0  0  0  0  0  0  0  0  0  0  0
  149.9409  140.5936  157.9176 H   0  0  0  0  0  0  0  0  0  0  0  0
  149.1880  140.1436  156.4517 H   0  0  0  0  0  0  0  0  0  0  0  0
  149.1823  141.4168  155.2324 H   0  0  0  0  0  0  0  0  0  0  0  0
  148.2257  138.8648  154.7553 H   0  0  0  0  0  0  0  0  0  0  0  0
  148.9795  139.8142  153.4655 H   0  0  0  0  0  0  0  0  0  0  0  0
  151.8639  134.9105  152.2986 H   0  0  0  0  0  0  0  0  0  0  0  0
  146.1261  135.3051  155.1932 H   0  0  0  0  0  0  0  0  0  0  0  0
  148.0195  132.5938  153.1842 H   0  0  0  0  0  0  0  0  0  0  0  0
  147.2595  132.5972  154.7563 H   0  0  0  0  0  0  0  0  0  0  0  0
  145.4637  134.0845  153.1128 H   0  0  0  0  0  0  0  0  0  0  0  0
  145.3769  131.3770  153.8704 H   0  0  0  0  0  0  0  0  0  0  0  0
  146.2853  131.4549  151.7233 H   0  0  0  0  0  0  0  0  0  0  0  0
  146.2878  134.3466  150.7522 H   0  0  0  0  0  0  0  0  0  0  0  0
  147.5529  133.1381  150.5088 H   0  0  0  0  0  0  0  0  0  0  0  0
  145.4615  133.6791  148.7217 H   0  0  0  0  0  0  0  0  0  0  0  0
  146.3485  132.1532  148.7421 H   0  0  0  0  0  0  0  0  0  0  0  0
  143.5840  132.4222  149.4144 H   0  0  0  0  0  0  0  0  0  0  0  0
  144.6082  131.0213  149.7506 H   0  0  0  0  0  0  0  0  0  0  0  0
  152.3311  138.7041  154.7490 H   0  0  0  0  0  0  0  0  0  0  0  0
  151.3224  138.3091  156.1503 H   0  0  0  0  0  0  0  0  0  0  0  0
  1  2  1  0  0  0  0
  1 30  1  0  0  0  0
  1 31  1  0  0  0  0
  1 32  1  0  0  0  0
  2  3  1  0  0  0  0
  2 33  1  0  0  0  0
  2 34  1  0  0  0  0
  3  4  1  0  0  0  0
  4  5  1  0  0  0  0
  4 35  1  0  0  0  0
  4 36  1  0  0  0  0
  5  6  1  0  0  0  0
  5 37  1  0  0  0  0
  5 38  1  0  0  0  0
  6  7  1  0  0  0  0
  7 29  1  0  0  0  0
  7 28  1  0  0  0  0
  7  8  1  0  0  0  0
  8  9  1  0  0  0  0
  8 39  1  0  0  0  0
  8 40  1  0  0  0  0
  9 10  1  0  0  0  0
  9 41  1  0  0  0  0
  9 42  1  0  0  0  0
 10 11  1  0  0  0  0
 10 28  1  0  0  0  0
 11 16  1  0  0  0  0
 11 12  2  0  0  0  0
 12 13  1  0  0  0  0
 13 14  2  0  0  0  0
 13 43  1  0  0  0  0
 14 15  1  0  0  0  0
 15 19  1  0  0  0  0
 15 16  2  0  0  0  0
 16 17  1  0  0  0  0
 17 18  2  0  0  0  0
 18 19  1  0  0  0  0
 18 44  1  0  0  0  0
 19 20  1  0  0  0  0
 20 21  1  0  0  0  0
 20 45  1  0  0  0  0
 20 46  1  0  0  0  0
 21 22  1  0  0  0  0
 21 23  1  0  0  0  0
 21 47  1  0  0  0  0
 22 48  1  0  0  0  0
 23 27  1  0  0  0  0
 23 24  1  0  0  0  0
 23 49  1  0  0  0  0
 24 25  1  0  0  0  0
 24 50  1  0  0  0  0
 24 51  1  0  0  0  0
 25 26  1  0  0  0  0
 25 52  1  0  0  0  0
 25 53  1  0  0  0  0
 26 27  1  0  0  0  0
 26 54  1  0  0  0  0
 26 55  1  0  0  0  0
 28 56  1  0  0  0  0
 28 57  1  0  0  0  0
M  END
> <s_m_source_file>
AV-unprocessed.smi

> <i_m_source_file_index>
246

> <i_lp_mmshare_version>
43012

> <i_f3d_flags>
0

> <s_epik_input>
W0NIM11bQ0gyXU9bQ0gyXVtDSDJdT1tDQEhdMVtDSDJdW0NIMl1OKFtDSDJdMSljKG5bY0hdbjIpYyhjMjMpbltjSF1uM1tDSDJdW0NASF0oW09IXSlbQ0BASF00W0NIMl1bQ0gyXVtDSDJdTzQ=

> <s_epik_cmdline>
J2VwaWtfcHl0aG9uJywgJy1waCcsICc3LjAnLCAnLXRuJywgJzgnLCAnLW1hJywgJzIwMCcsICctbWV0YWxfYmluZGluZycsICctaW1hZScsICc8aW5maWxlLm1hZT4nLCAnLW9tYWUnLCAnPG91dGZpbGUubWFlPic=

> <r_lp_tautomer_probability>
1

> <r_epik_Ionization_Penalty>
0.0024631

> <r_epik_Ionization_Penalty_Charging>
0

> <r_epik_Ionization_Penalty_Neutral>
0.0024631

> <r_epik_State_Penalty>
0.00162428

> <r_epik_Charging_Adjusted_Penalty>
0.00162428

> <i_epik_Tot_Q>
0

> <i_epik_Tot_abs_Q>
0

> <r_epik_Metal_State_Penalty>
-0

> <b_epik_Metal_Only>
0

> <s_lp_Force_Field>
OPLS_2005

> <r_lp_Energy>
52.7106

> <b_lp_Chiralities_Consistent>
1

> <s_lp_Variant>
AV-unprocessed.smi:246-2

> <Gold.Version>
5.8.1

> <Gold.Id.Protein>
6NUR|6NUR_protein|mol2

> <Gold.PLP.Fitness>
47.2066

> <Gold.PLP.PLP>
-42.2674

> <Gold.PLP.part.hbond>
-3.0000

> <Gold.PLP.part.metal>
0.0000

> <Gold.PLP.part.buried>
-3.8664

> <Gold.PLP.part.nonpolar>
-34.3130

> <Gold.PLP.part.repulsive>
0.4103

> <Gold.PLP.ligand.clash>
0.0000

> <Gold.PLP.ligand.torsion>
1.7842

> <Gold.PLP.Chemscore.Hbond>
2.6650

> <Gold.PLP.Chemscore.CHOScore>
0.0000

> <Gold.PLP.Chemscore.Metal>
0.0000

> <Gold.PLP.Chemscore.Internal.Correction>
0.5127

> <Gold.Rescore>
     Score         DG    S(hbond)    S(metal)    S(lipo)     H(rot)  DE(clash)    DE(int)     intcor
     10.85     -13.57       1.43        0.00      96.27       3.10       0.38       2.34       ----

> <Gold.Chemscore.Fitness>
10.8545

> <Gold.Chemscore.DG>
-13.5716

> <Gold.Chemscore.ZeroCoef>
-5.4800

> <Gold.Chemscore.Hbond>
1.4284

> <Gold.Chemscore.Metal>
0.0000

> <Gold.Chemscore.Lipo>
96.2680

> <Gold.Chemscore.Internal_Hbond>
0.0000

> <Gold.Chemscore.DEClash>
0.3796

> <Gold.Chemscore.DEInternal>
2.3375

> <Gold.Chemscore.Rot>
3.1026

> <Gold.Chemscore.Internal.Correction>
   9.000000E+99

> <Gold.Chemscore.Hbond.Weighted>
-4.7709

> <Gold.Chemscore.Metal.Weighted>
-0.0000

> <Gold.Chemscore.Lipo.Weighted>
-11.2634

> <Gold.Chemscore.Internal_Hbond.Weighted>
0.0000

> <Gold.Chemscore.DEClash.Weighted>
0.3796

> <Gold.Chemscore.DEInternal.Weighted>
2.3375

> <Gold.Chemscore.Rot.Weighted>
7.9426

> <Gold.Chemscore.Internal.Correction.Weighted>
   9.000000E+99

> <Gold.Protein.RotatedTorsions>
[ 6907 6896 6895 6894 ] final  -92.11 input  -60.11 | X-H torsion
[ 7974 7965 7964 7962 ] final   84.40 input  175.53 | X-H torsion
[ 8008 7997 7996 7995 ] final  -83.32 input   59.86 | X-H torsion
[ 10167 10162 10161 10158 ] final  157.04 input  -65.29 | X-H torsion
[ 10718 10713 10712 10709 ] final  -48.68 input   66.30 | X-H torsion
[ 10763 10752 10751 10750 ] final   67.03 input  -60.55 | X-H torsion
[ 11005 11000 10999 10996 ] final  152.81 input  -57.11 | X-H torsion

> <Gold.Protein.ActiveResidues>
 VAL166  LYS551  ARG553  GLY616  TRP617  ASP618  TYR619  PRO620  LYS621  CYS622 
 ASP623  PHE694  ASN695  SER759  ASP760  ASP761  ALA762  ILE779  LEU786  VAL792 
 PHE793  MET794  SER795  GLU796  ALA797  LYS798  CYS799  TRP800  GLU811  SER814 

> <Gold.Protein.RotatedAtoms>
  150.6901  134.2173  159.4382 H   0  0  0  0  0  0  0  0  0  0  0  0  # atno 6907 bound_to 6896
  152.0131  134.9862  160.0578 H   0  0  0  0  0  0  0  0  0  0  0  0  # atno 6908 bound_to 6896
  152.1469  133.4463  159.4831 H   0  0  0  0  0  0  0  0  0  0  0  0  # atno 6909 bound_to 6896
  145.5992  139.2350  143.2255 H   0  0  0  0  0  0  0  0  0  0  0  0  # atno 7974 bound_to 7965
  154.6178  140.0620  156.9577 H   0  0  0  0  0  0  0  0  0  0  0  0  # atno 8008 bound_to 7997
  155.1867  140.3303  155.4347 H   0  0  0  0  0  0  0  0  0  0  0  0  # atno 8009 bound_to 7997
  156.2414  140.1888  156.6960 H   0  0  0  0  0  0  0  0  0  0  0  0  # atno 8010 bound_to 7997
  139.4822  144.4954  151.8247 H   0  0  0  0  0  0  0  0  0  0  0  0  # atno 10167 bound_to 10162
  156.1965  130.4154  149.9299 H   0  0  0  0  0  0  0  0  0  0  0  0  # atno 10718 bound_to 10713
  153.0167  135.5299  154.6915 H   0  0  0  0  0  0  0  0  0  0  0  0  # atno 10763 bound_to 10752
  154.6048  135.2872  155.0498 H   0  0  0  0  0  0  0  0  0  0  0  0  # atno 10764 bound_to 10752
  154.1541  135.6558  153.5023 H   0  0  0  0  0  0  0  0  0  0  0  0  # atno 10765 bound_to 10752
  140.1342  134.8782  157.2244 H   0  0  0  0  0  0  0  0  0  0  0  0  # atno 11005 bound_to 11000
  146.1589  140.6817  142.9287 LP  0  0  0  0  0  0  0  0  0  0  0  0  # atno 17320 bound_to 7965
  144.7317  140.4691  143.6933 LP  0  0  0  0  0  0  0  0  0  0  0  0  # atno 17321 bound_to 7965
  140.4442  144.1945  150.5893 LP  0  0  0  0  0  0  0  0  0  0  0  0  # atno 17342 bound_to 10162
  140.4652  143.2433  151.9165 LP  0  0  0  0  0  0  0  0  0  0  0  0  # atno 17343 bound_to 10162
  156.7022  130.8937  151.3600 LP  0  0  0  0  0  0  0  0  0  0  0  0  # atno 17370 bound_to 10713
  157.6961  130.9283  150.0648 LP  0  0  0  0  0  0  0  0  0  0  0  0  # atno 17371 bound_to 10713
  140.2804  134.3356  155.7345 LP  0  0  0  0  0  0  0  0  0  0  0  0  # atno 17394 bound_to 11000
  141.2175  133.7475  156.9355 LP  0  0  0  0  0  0  0  0  0  0  0  0  # atno 17395 bound_to 11000

$$$$
