AV-unprocessed.smi:1639|AV-procd|sdf|6552|dock1
  -GOLD-   22720 7233D 1   1.00000     0.00000
 Structure written by MMmdl.
 38 39  0  0  0  0  0  0  0  0  2 V2000
  151.0142  145.2853  159.5677 C   0  0  0  0  0  0  0  0  0  0  0  0
  152.1746  145.0639  158.5951 C   0  0  0  0  0  0  0  0  0  0  0  0
  151.7114  144.2966  157.4964 O   0  0  0  0  0  0  0  0  0  0  0  0
  151.2322  143.0083  157.8543 C   0  0  2  0  0  0  0  0  0  0  0  0
  152.2797  142.3173  158.7437 C   0  0  0  0  0  0  0  0  0  0  0  0
  151.8728  140.8585  159.0087 C   0  0  0  0  0  0  0  0  0  0  0  0
  151.6204  140.1102  157.6883 C   0  0  0  0  0  0  0  0  0  0  0  0
  150.6449  140.8224  156.8666 N   0  0  0  0  0  0  0  0  0  0  0  0
  150.2388  140.0963  155.7390 C   0  0  0  0  0  0  0  0  0  0  0  0
  149.0176  140.4005  155.1134 C   0  0  0  0  0  0  0  0  0  0  0  0
  148.6719  139.6379  153.9809 C   0  0  0  0  0  0  0  0  0  0  0  0
  147.3869  139.8713  153.2159 C   0  0  0  0  0  0  0  0  0  0  0  0
  149.5021  138.6591  153.5417 N   0  3  0  0  0  0  0  0  0  0  0  0
  150.6518  138.4222  154.1902 C   0  0  0  0  0  0  0  0  0  0  0  0
  151.4762  137.4255  153.7259 N   0  0  0  0  0  0  0  0  0  0  0  0
  151.0372  139.1112  155.2693 N   0  0  0  0  0  0  0  0  0  0  0  0
  151.0046  142.2051  156.5623 C   0  0  0  0  0  0  0  0  0  0  0  0
  151.3339  145.8724  160.4288 H   0  0  0  0  0  0  0  0  0  0  0  0
  150.6272  144.3350  159.9364 H   0  0  0  0  0  0  0  0  0  0  0  0
  150.1941  145.8175  159.0854 H   0  0  0  0  0  0  0  0  0  0  0  0
  152.5603  146.0228  158.2456 H   0  0  0  0  0  0  0  0  0  0  0  0
  152.9873  144.5411  159.1016 H   0  0  0  0  0  0  0  0  0  0  0  0
  150.2886  143.0660  158.4017 H   0  0  0  0  0  0  0  0  0  0  0  0
  153.2533  142.3406  158.2529 H   0  0  0  0  0  0  0  0  0  0  0  0
  152.3902  142.8558  159.6855 H   0  0  0  0  0  0  0  0  0  0  0  0
  152.6483  140.3512  159.5830 H   0  0  0  0  0  0  0  0  0  0  0  0
  150.9695  140.8365  159.6197 H   0  0  0  0  0  0  0  0  0  0  0  0
  152.5560  140.0089  157.1362 H   0  0  0  0  0  0  0  0  0  0  0  0
  151.2615  139.1013  157.8963 H   0  0  0  0  0  0  0  0  0  0  0  0
  148.3760  141.1867  155.4848 H   0  0  0  0  0  0  0  0  0  0  0  0
  146.8069  140.6816  153.6586 H   0  0  0  0  0  0  0  0  0  0  0  0
  146.7726  138.9705  153.2211 H   0  0  0  0  0  0  0  0  0  0  0  0
  147.6044  140.1350  152.1805 H   0  0  0  0  0  0  0  0  0  0  0  0
  151.2166  136.8859  152.9126 H   0  0  0  0  0  0  0  0  0  0  0  0
  152.3424  137.2121  154.1988 H   0  0  0  0  0  0  0  0  0  0  0  0
  150.2145  142.6705  155.9712 H   0  0  0  0  0  0  0  0  0  0  0  0
  151.9105  142.2196  155.9543 H   0  0  0  0  0  0  0  0  0  0  0  0
  149.2424  138.1124  152.7204 H   0  0  0  0  0  0  0  0  0  0  0  0
  1  2  1  0  0  0  0
  1 18  1  0  0  0  0
  1 19  1  0  0  0  0
  1 20  1  0  0  0  0
  2  3  1  0  0  0  0
  2 21  1  0  0  0  0
  2 22  1  0  0  0  0
  3  4  1  0  0  0  0
  4 17  1  0  0  0  0
  4  5  1  0  0  0  0
  4 23  1  0  0  0  0
  5  6  1  0  0  0  0
  5 24  1  0  0  0  0
  5 25  1  0  0  0  0
  6  7  1  0  0  0  0
  6 26  1  0  0  0  0
  6 27  1  0  0  0  0
  7  8  1  0  0  0  0
  7 28  1  0  0  0  0
  7 29  1  0  0  0  0
  8  9  1  0  0  0  0
  8 17  1  0  0  0  0
  9 16  1  0  0  0  0
  9 10  2  0  0  0  0
 10 11  1  0  0  0  0
 10 30  1  0  0  0  0
 11 12  1  0  0  0  0
 11 13  2  0  0  0  0
 12 31  1  0  0  0  0
 12 32  1  0  0  0  0
 12 33  1  0  0  0  0
 13 14  1  0  0  0  0
 13 38  1  0  0  0  0
 14 15  1  0  0  0  0
 14 16  2  0  0  0  0
 15 34  1  0  0  0  0
 15 35  1  0  0  0  0
 17 36  1  0  0  0  0
 17 37  1  0  0  0  0
M  CHG  1  13   1
M  END
> <s_m_source_file>
AV-unprocessed.smi

> <i_m_source_file_index>
1639

> <i_lp_mmshare_version>
43012

> <i_f3d_flags>
0

> <s_epik_input>
W0NIM11bQ0gyXU9bQ0BASF0xW0NIMl1bQ0gyXVtDSDJdTihbQ0gyXTEpYzJbY0hdYyhbQ0gzXSluYyhuMilbTkgyXQ==

> <s_epik_cmdline>
J2VwaWtfcHl0aG9uJywgJy1waCcsICc3LjAnLCAnLXRuJywgJzgnLCAnLW1hJywgJzIwMCcsICctbWV0YWxfYmluZGluZycsICctaW1hZScsICc8aW5maWxlLm1hZT4nLCAnLW9tYWUnLCAnPG91dGZpbGUubWFlPic=

> <r_lp_tautomer_probability>
0.575011

> <r_epik_Ionization_Penalty>
2.98813

> <r_epik_Ionization_Penalty_Charging>
2.98813

> <r_epik_Ionization_Penalty_Neutral>
3.21773e-06

> <r_epik_State_Penalty>
2.17402

> <r_epik_Charging_Adjusted_Penalty>
5.16215

> <i_epik_Tot_Q>
1

> <i_epik_Tot_abs_Q>
1

> <r_epik_Metal_State_Penalty>
2.51158

> <b_epik_Metal_Only>
0

> <s_lp_Force_Field>
OPLS_2005

> <r_lp_Energy>
16.4344

> <b_lp_Chiralities_Consistent>
1

> <s_lp_Variant>
AV-unprocessed.smi:1639-5

> <Gold.Version>
5.8.1

> <Gold.Id.Protein>
6NUR|6NUR_protein|mol2

> <Gold.PLP.Fitness>
46.2831

> <Gold.PLP.PLP>
-35.0095

> <Gold.PLP.part.hbond>
-3.1724

> <Gold.PLP.part.metal>
0.0000

> <Gold.PLP.part.buried>
-5.4211

> <Gold.PLP.part.nonpolar>
-27.1232

> <Gold.PLP.part.repulsive>
0.3825

> <Gold.PLP.ligand.clash>
0.0000

> <Gold.PLP.ligand.torsion>
0.4505

> <Gold.PLP.Chemscore.Hbond>
4.0000

> <Gold.PLP.Chemscore.CHOScore>
0.0000

> <Gold.PLP.Chemscore.Metal>
0.0000

> <Gold.Chemscore.Hbonds>
donor molecule, donor type, donor heavy atom, donor atom, acceptor molecule, acceptor atom, score
      L1  H    13    38       P1  7948  1.87
      L1  H    15    34       P1  7949  2.00

> <Gold.PLP.Chemscore.Internal.Correction>
0.1745

> <Gold.Rescore>
     Score         DG    S(hbond)    S(metal)    S(lipo)     H(rot)  DE(clash)    DE(int)     intcor
     16.94     -17.52       1.80        0.00      83.51       1.46       0.06       0.52       ----

> <Gold.Chemscore.Fitness>
16.9405

> <Gold.Chemscore.DG>
-17.5196

> <Gold.Chemscore.ZeroCoef>
-5.4800

> <Gold.Chemscore.Hbond>
1.7953

> <Gold.Chemscore.Metal>
0.0000

> <Gold.Chemscore.Lipo>
83.5072

> <Gold.Chemscore.Internal_Hbond>
0.0000

> <Gold.Chemscore.DEClash>
0.0561

> <Gold.Chemscore.DEInternal>
0.5230

> <Gold.Chemscore.Rot>
1.4560

> <Gold.Chemscore.Internal.Correction>
   9.000000E+99

> <Gold.Chemscore.Hbonds>
donor molecule, donor type, donor heavy atom, donor atom, acceptor molecule, acceptor atom, score
      L1  H    13    38       P1  7948  0.79
      L1  H    15    34       P1  7949  0.60

> <Gold.Chemscore.Hbond.Weighted>
-5.9965

> <Gold.Chemscore.Metal.Weighted>
-0.0000

> <Gold.Chemscore.Lipo.Weighted>
-9.7703

> <Gold.Chemscore.Internal_Hbond.Weighted>
0.0000

> <Gold.Chemscore.DEClash.Weighted>
0.0561

> <Gold.Chemscore.DEInternal.Weighted>
0.5230

> <Gold.Chemscore.Rot.Weighted>
3.7272

> <Gold.Chemscore.Internal.Correction.Weighted>
   9.000000E+99

> <Gold.Protein.RotatedTorsions>
[ 6907 6896 6895 6894 ] final  -84.27 input  -60.11 | X-H torsion
[ 7974 7965 7964 7962 ] final -141.99 input  175.53 | X-H torsion
[ 8008 7997 7996 7995 ] final -111.60 input   59.86 | X-H torsion
[ 10167 10162 10161 10158 ] final  -82.75 input  -65.29 | X-H torsion
[ 10718 10713 10712 10709 ] final  -22.18 input   66.30 | X-H torsion
[ 10763 10752 10751 10750 ] final -167.19 input  -60.55 | X-H torsion
[ 11005 11000 10999 10996 ] final  169.05 input  -57.11 | X-H torsion

> <Gold.Protein.ActiveResidues>
 VAL166  LYS551  ARG553  GLY616  TRP617  ASP618  TYR619  PRO620  LYS621  CYS622 
 ASP623  PHE694  ASN695  SER759  ASP760  ASP761  ALA762  ILE779  LEU786  VAL792 
 PHE793  MET794  SER795  GLU796  ALA797  LYS798  CYS799  TRP800  GLU811  SER814 

> <Gold.Protein.RotatedAtoms>
  150.6878  134.3384  159.4856 H   0  0  0  0  0  0  0  0  0  0  0  0  # atno 6907 bound_to 6896
  152.1240  134.9182  160.0571 H   0  0  0  0  0  0  0  0  0  0  0  0  # atno 6908 bound_to 6896
  152.0377  133.3929  159.4360 H   0  0  0  0  0  0  0  0  0  0  0  0  # atno 6909 bound_to 6896
  144.8477  140.6012  143.5411 H   0  0  0  0  0  0  0  0  0  0  0  0  # atno 7974 bound_to 7965
  154.9924  140.0395  157.2325 H   0  0  0  0  0  0  0  0  0  0  0  0  # atno 8008 bound_to 7997
  154.7617  140.2785  155.6186 H   0  0  0  0  0  0  0  0  0  0  0  0  # atno 8009 bound_to 7997
  156.2905  140.2627  156.2397 H   0  0  0  0  0  0  0  0  0  0  0  0  # atno 8010 bound_to 7997
  140.4291  143.2555  151.8784 H   0  0  0  0  0  0  0  0  0  0  0  0  # atno 10167 bound_to 10162
  156.5081  130.4603  149.6663 H   0  0  0  0  0  0  0  0  0  0  0  0  # atno 10718 bound_to 10713
  154.6757  135.2946  154.9682 H   0  0  0  0  0  0  0  0  0  0  0  0  # atno 10763 bound_to 10752
  154.0693  135.6620  153.4826 H   0  0  0  0  0  0  0  0  0  0  0  0  # atno 10764 bound_to 10752
  153.0515  135.5171  154.7775 H   0  0  0  0  0  0  0  0  0  0  0  0  # atno 10765 bound_to 10752
  140.2937  134.7652  157.3860 H   0  0  0  0  0  0  0  0  0  0  0  0  # atno 11005 bound_to 11000
  145.4563  139.1517  143.3890 LP  0  0  0  0  0  0  0  0  0  0  0  0  # atno 17320 bound_to 7965
  146.2758  140.4692  142.8796 LP  0  0  0  0  0  0  0  0  0  0  0  0  # atno 17321 bound_to 7965
  139.4784  144.5354  151.8606 LP  0  0  0  0  0  0  0  0  0  0  0  0  # atno 17342 bound_to 10162
  140.4448  144.1937  150.5893 LP  0  0  0  0  0  0  0  0  0  0  0  0  # atno 17343 bound_to 10162
  156.3267  130.7310  151.2232 LP  0  0  0  0  0  0  0  0  0  0  0  0  # atno 17370 bound_to 10713
  157.7454  131.0441  150.4775 LP  0  0  0  0  0  0  0  0  0  0  0  0  # atno 17371 bound_to 10713
  140.1172  134.5268  155.8215 LP  0  0  0  0  0  0  0  0  0  0  0  0  # atno 17394 bound_to 11000
  141.2141  133.6744  156.6798 LP  0  0  0  0  0  0  0  0  0  0  0  0  # atno 17395 bound_to 11000

$$$$
