AV-unprocessed.smi:1168|AV-procd|sdf|4939|dock3
  -GOLD-   22720 3523D 1   1.00000     0.00000
 Structure written by MMmdl.
 32 33  0  0  0  0  0  0  0  0  1 V2000
  151.2384  141.0533  156.9013 O   0  0  0  0  0  0  0  0  0  0  0  0
  150.6968  142.1573  156.9586 C   0  0  0  0  0  0  0  0  0  0  0  0
  151.4420  143.3470  157.5671 C   0  0  0  0  0  0  0  0  0  0  0  0
  152.0788  142.9828  158.8207 N   0  0  0  0  0  0  0  0  0  0  0  0
  151.9810  143.6062  160.0467 C   0  0  0  0  0  0  0  0  0  0  0  0
  152.7534  142.9008  160.9238 C   0  0  0  0  0  0  0  0  0  0  0  0
  153.2924  141.8417  160.1371 C   0  0  0  0  0  0  0  0  0  0  0  0
  154.2207  140.7366  160.5673 C   0  0  0  0  0  0  0  0  0  0  0  0
  153.6844  139.5482  160.2897 F   0  0  0  0  0  0  0  0  0  0  0  0
  155.3829  140.8434  159.9231 F   0  0  0  0  0  0  0  0  0  0  0  0
  154.4420  140.8111  161.8796 F   0  0  0  0  0  0  0  0  0  0  0  0
  152.8788  141.8968  158.8780 N   0  0  0  0  0  0  0  0  0  0  0  0
  149.4565  142.3965  156.5051 N   0  0  0  0  0  0  0  0  0  0  0  0
  148.5853  141.4070  155.8766 C   0  0  0  0  0  0  0  0  0  0  0  0
  149.1269  141.0042  154.4910 C   0  0  0  0  0  0  0  0  0  0  0  0
  147.9477  141.1178  153.5225 C   0  0  0  0  0  0  0  0  0  0  0  0
  147.0619  142.2011  154.1289 C   0  0  0  0  0  0  0  0  0  0  0  0
  147.1698  141.9691  155.6358 C   0  0  0  0  0  0  0  0  0  0  0  0
  152.2075  143.7167  156.8833 H   0  0  0  0  0  0  0  0  0  0  0  0
  150.7402  144.1655  157.7352 H   0  0  0  0  0  0  0  0  0  0  0  0
  151.3792  144.4915  160.1899 H   0  0  0  0  0  0  0  0  0  0  0  0
  152.9101  143.1091  161.9717 H   0  0  0  0  0  0  0  0  0  0  0  0
  149.0900  143.3329  156.5962 H   0  0  0  0  0  0  0  0  0  0  0  0
  148.5225  140.5223  156.5133 H   0  0  0  0  0  0  0  0  0  0  0  0
  149.9158  141.6873  154.1712 H   0  0  0  0  0  0  0  0  0  0  0  0
  149.5540  140.0010  154.4928 H   0  0  0  0  0  0  0  0  0  0  0  0
  148.2611  141.3518  152.5047 H   0  0  0  0  0  0  0  0  0  0  0  0
  147.4026  140.1734  153.4947 H   0  0  0  0  0  0  0  0  0  0  0  0
  147.4612  143.1849  153.8788 H   0  0  0  0  0  0  0  0  0  0  0  0
  146.0337  142.1557  153.7690 H   0  0  0  0  0  0  0  0  0  0  0  0
  146.4336  141.2226  155.9367 H   0  0  0  0  0  0  0  0  0  0  0  0
  146.9553  142.8744  156.2052 H   0  0  0  0  0  0  0  0  0  0  0  0
  1  2  2  0  0  0  0
  2  3  1  0  0  0  0
  2 13  1  0  0  0  0
  3  4  1  0  0  0  0
  3 19  1  0  0  0  0
  3 20  1  0  0  0  0
  4 12  1  0  0  0  0
  4  5  1  0  0  0  0
  5  6  2  0  0  0  0
  5 21  1  0  0  0  0
  6  7  1  0  0  0  0
  6 22  1  0  0  0  0
  7  8  1  0  0  0  0
  7 12  2  0  0  0  0
  8  9  1  0  0  0  0
  8 10  1  0  0  0  0
  8 11  1  0  0  0  0
 13 14  1  0  0  0  0
 13 23  1  0  0  0  0
 14 18  1  0  0  0  0
 14 15  1  0  0  0  0
 14 24  1  0  0  0  0
 15 16  1  0  0  0  0
 15 25  1  0  0  0  0
 15 26  1  0  0  0  0
 16 17  1  0  0  0  0
 16 27  1  0  0  0  0
 16 28  1  0  0  0  0
 17 18  1  0  0  0  0
 17 29  1  0  0  0  0
 17 30  1  0  0  0  0
 18 31  1  0  0  0  0
 18 32  1  0  0  0  0
M  END
> <s_m_source_file>
AV-unprocessed.smi

> <i_m_source_file_index>
1168

> <i_lp_mmshare_version>
43012

> <i_f3d_flags>
0

> <s_epik_input>
W0NIMl0xW0NIMl1bQ0gyXVtDSDJdW0NIXTFbTkhdQyg9TylbQ0gyXW4yW2NIXVtjSF1jKG4yKUMoRikoRilG

> <s_epik_cmdline>
J2VwaWtfcHl0aG9uJywgJy1waCcsICc3LjAnLCAnLXRuJywgJzgnLCAnLW1hJywgJzIwMCcsICctbWV0YWxfYmluZGluZycsICctaW1hZScsICc8aW5maWxlLm1hZT4nLCAnLW9tYWUnLCAnPG91dGZpbGUubWFlPic=

> <r_lp_tautomer_probability>
1

> <r_epik_Ionization_Penalty>
8.05939e-08

> <r_epik_Ionization_Penalty_Charging>
0

> <r_epik_Ionization_Penalty_Neutral>
8.05939e-08

> <r_epik_State_Penalty>
-0

> <r_epik_Charging_Adjusted_Penalty>
0

> <i_epik_Tot_Q>
0

> <i_epik_Tot_abs_Q>
0

> <r_epik_Metal_State_Penalty>
-0

> <b_epik_Metal_Only>
0

> <s_lp_Force_Field>
OPLS_2005

> <r_lp_Energy>
20.3297

> <b_lp_Chiralities_Consistent>
1

> <s_lp_Variant>
AV-unprocessed.smi:1168-1

> <Gold.Version>
5.8.1

> <Gold.Id.Protein>
6NUR|6NUR_protein|mol2

> <Gold.PLP.Fitness>
44.1831

> <Gold.PLP.PLP>
-42.4032

> <Gold.PLP.part.hbond>
-1.0000

> <Gold.PLP.part.metal>
0.0000

> <Gold.PLP.part.buried>
-2.7049

> <Gold.PLP.part.nonpolar>
-39.0334

> <Gold.PLP.part.repulsive>
0.0733

> <Gold.PLP.ligand.clash>
0.0000

> <Gold.PLP.ligand.torsion>
0.3403

> <Gold.PLP.Chemscore.Hbond>
0.8160

> <Gold.PLP.Chemscore.CHOScore>
0.0000

> <Gold.PLP.Chemscore.Metal>
0.0000

> <Gold.Chemscore.Hbonds>
donor molecule, donor type, donor heavy atom, donor atom, acceptor molecule, acceptor atom, score
      L1  H    13    23       P1  8028  0.80

> <Gold.PLP.Chemscore.Internal.Correction>
0.0125

> <Gold.Rescore>
     Score         DG    S(hbond)    S(metal)    S(lipo)     H(rot)  DE(clash)    DE(int)     intcor
     12.60     -14.49       0.84        0.00      87.36       1.57       0.10       1.78       ----

> <Gold.Chemscore.Fitness>
12.6013

> <Gold.Chemscore.DG>
-14.4884

> <Gold.Chemscore.ZeroCoef>
-5.4800

> <Gold.Chemscore.Hbond>
0.8440

> <Gold.Chemscore.Metal>
0.0000

> <Gold.Chemscore.Lipo>
87.3594

> <Gold.Chemscore.Internal_Hbond>
0.0000

> <Gold.Chemscore.DEClash>
0.1039

> <Gold.Chemscore.DEInternal>
1.7833

> <Gold.Chemscore.Rot>
1.5748

> <Gold.Chemscore.Internal.Correction>
   9.000000E+99

> <Gold.Chemscore.Hbonds>
donor molecule, donor type, donor heavy atom, donor atom, acceptor molecule, acceptor atom, score
      L1  H    13    23       P1  8028  0.78

> <Gold.Chemscore.Hbond.Weighted>
-2.8189

> <Gold.Chemscore.Metal.Weighted>
-0.0000

> <Gold.Chemscore.Lipo.Weighted>
-10.2210

> <Gold.Chemscore.Internal_Hbond.Weighted>
0.0000

> <Gold.Chemscore.DEClash.Weighted>
0.1039

> <Gold.Chemscore.DEInternal.Weighted>
1.7833

> <Gold.Chemscore.Rot.Weighted>
4.0315

> <Gold.Chemscore.Internal.Correction.Weighted>
   9.000000E+99

> <Gold.Protein.RotatedTorsions>
[ 6907 6896 6895 6894 ] final  102.87 input  -60.11 | X-H torsion
[ 7974 7965 7964 7962 ] final -145.81 input  175.53 | X-H torsion
[ 8008 7997 7996 7995 ] final  129.29 input   59.86 | X-H torsion
[ 10167 10162 10161 10158 ] final  156.46 input  -65.29 | X-H torsion
[ 10718 10713 10712 10709 ] final  -27.12 input   66.30 | X-H torsion
[ 10763 10752 10751 10750 ] final   94.36 input  -60.55 | X-H torsion
[ 11005 11000 10999 10996 ] final   19.20 input  -57.11 | X-H torsion

> <Gold.Protein.ActiveResidues>
 VAL166  LYS551  ARG553  GLY616  TRP617  ASP618  TYR619  PRO620  LYS621  CYS622 
 ASP623  PHE694  ASN695  SER759  ASP760  ASP761  ALA762  ILE779  LEU786  VAL792 
 PHE793  MET794  SER795  GLU796  ALA797  LYS798  CYS799  TRP800  GLU811  SER814 

> <Gold.Protein.RotatedAtoms>
  152.5312  133.9911  159.7850 H   0  0  0  0  0  0  0  0  0  0  0  0  # atno 6907 bound_to 6896
  151.0147  133.5925  159.2685 H   0  0  0  0  0  0  0  0  0  0  0  0  # atno 6908 bound_to 6896
  151.2986  135.0769  159.9284 H   0  0  0  0  0  0  0  0  0  0  0  0  # atno 6909 bound_to 6896
  144.8202  140.5536  143.5584 H   0  0  0  0  0  0  0  0  0  0  0  0  # atno 7974 bound_to 7965
  156.2933  140.2624  156.2575 H   0  0  0  0  0  0  0  0  0  0  0  0  # atno 8008 bound_to 7997
  154.9821  140.0389  157.2301 H   0  0  0  0  0  0  0  0  0  0  0  0  # atno 8009 bound_to 7997
  154.7762  140.2787  155.6104 H   0  0  0  0  0  0  0  0  0  0  0  0  # atno 8010 bound_to 7997
  139.4821  144.5007  151.8173 H   0  0  0  0  0  0  0  0  0  0  0  0  # atno 10167 bound_to 10162
  156.4423  130.4467  149.7044 H   0  0  0  0  0  0  0  0  0  0  0  0  # atno 10718 bound_to 10713
  153.2407  135.4292  155.0695 H   0  0  0  0  0  0  0  0  0  0  0  0  # atno 10763 bound_to 10752
  154.8339  135.3402  154.6653 H   0  0  0  0  0  0  0  0  0  0  0  0  # atno 10764 bound_to 10752
  153.7077  135.7024  153.5102 H   0  0  0  0  0  0  0  0  0  0  0  0  # atno 10765 bound_to 10752
  140.4163  134.1565  155.7670 H   0  0  0  0  0  0  0  0  0  0  0  0  # atno 11005 bound_to 11000
  145.5123  139.1479  143.3598 LP  0  0  0  0  0  0  0  0  0  0  0  0  # atno 17320 bound_to 7965
  146.2507  140.5264  142.8895 LP  0  0  0  0  0  0  0  0  0  0  0  0  # atno 17321 bound_to 7965
  140.4500  144.1868  150.5897 LP  0  0  0  0  0  0  0  0  0  0  0  0  # atno 17342 bound_to 10162
  140.4595  143.2454  151.9239 LP  0  0  0  0  0  0  0  0  0  0  0  0  # atno 17343 bound_to 10162
  156.3904  130.7624  151.2624 LP  0  0  0  0  0  0  0  0  0  0  0  0  # atno 17370 bound_to 10713
  157.7506  131.0269  150.3984 LP  0  0  0  0  0  0  0  0  0  0  0  0  # atno 17371 bound_to 10713
  141.1801  133.8431  157.1286 LP  0  0  0  0  0  0  0  0  0  0  0  0  # atno 17394 bound_to 11000
  140.0231  134.9936  157.0632 LP  0  0  0  0  0  0  0  0  0  0  0  0  # atno 17395 bound_to 11000

$$$$
