AV-unprocessed.smi:1328|AV-procd|sdf|5480|dock10
  -GOLD-   22720 5 53D 1   1.00000     0.00000
 Structure written by MMmdl.
 38 39  0  0  0  0  0  0  0  0  1 V2000
  152.3889  138.2838  155.0129 C   0  0  0  0  0  0  0  0  0  0  0  0
  151.4957  139.2804  155.6947 C   0  0  0  0  0  0  0  0  0  0  0  0
  150.8890  140.2099  154.9759 N   0  0  0  0  0  0  0  0  0  0  0  0
  150.1403  140.9667  155.8820 O   0  0  0  0  0  0  0  0  0  0  0  0
  150.3285  140.4581  157.1262 C   0  0  0  0  0  0  0  0  0  0  0  0
  149.6018  141.1342  158.2400 C   0  0  0  0  0  0  0  0  0  0  0  0
  151.1820  139.3892  157.0801 C   0  0  0  0  0  0  0  0  0  0  0  0
  151.6728  138.5220  158.2111 C   0  0  0  0  0  0  0  0  0  0  0  0
  150.6315  137.4457  158.5144 C   0  0  0  0  0  0  0  0  0  0  0  0
  150.9299  136.2546  158.4297 O   0  0  0  0  0  0  0  0  0  0  0  0
  149.4089  137.8844  158.8489 N   0  0  0  0  0  0  0  0  0  0  0  0
  148.2335  137.0494  159.0703 C   0  0  1  0  0  0  0  0  0  0  0  0
  148.0929  136.0343  157.9235 C   0  0  0  0  0  0  0  0  0  0  0  0
  148.3682  136.3686  160.4453 C   0  0  2  0  0  0  0  0  0  0  0  0
  147.5340  135.1005  160.6214 C   0  0  0  0  0  0  0  0  0  0  0  0
  147.3625  135.0005  162.1288 C   0  0  0  0  0  0  0  0  0  0  0  0
  147.6811  136.4104  162.6358 C   0  0  0  0  0  0  0  0  0  0  0  0
  147.8453  137.2032  161.4681 O   0  0  0  0  0  0  0  0  0  0  0  0
  152.3252  137.3066  155.4917 H   0  0  0  0  0  0  0  0  0  0  0  0
  153.4300  138.6047  155.0501 H   0  0  0  0  0  0  0  0  0  0  0  0
  152.1172  138.1526  153.9650 H   0  0  0  0  0  0  0  0  0  0  0  0
  149.2415  140.4085  158.9688 H   0  0  0  0  0  0  0  0  0  0  0  0
  148.7399  141.6871  157.8662 H   0  0  0  0  0  0  0  0  0  0  0  0
  150.2565  141.8357  158.7569 H   0  0  0  0  0  0  0  0  0  0  0  0
  152.6202  138.0422  157.9624 H   0  0  0  0  0  0  0  0  0  0  0  0
  151.8580  139.1078  159.1124 H   0  0  0  0  0  0  0  0  0  0  0  0
  149.2656  138.8829  158.8926 H   0  0  0  0  0  0  0  0  0  0  0  0
  147.3448  137.6832  159.0879 H   0  0  0  0  0  0  0  0  0  0  0  0
  147.1989  135.4222  158.0433 H   0  0  0  0  0  0  0  0  0  0  0  0
  148.9520  135.3642  157.8792 H   0  0  0  0  0  0  0  0  0  0  0  0
  148.0128  136.5370  156.9592 H   0  0  0  0  0  0  0  0  0  0  0  0
  149.4164  136.1572  160.6672 H   0  0  0  0  0  0  0  0  0  0  0  0
  146.5576  135.2232  160.1505 H   0  0  0  0  0  0  0  0  0  0  0  0
  148.0080  134.2182  160.1907 H   0  0  0  0  0  0  0  0  0  0  0  0
  146.3506  134.6899  162.3913 H   0  0  0  0  0  0  0  0  0  0  0  0
  148.0579  134.2775  162.5566 H   0  0  0  0  0  0  0  0  0  0  0  0
  146.8922  136.8150  163.2703 H   0  0  0  0  0  0  0  0  0  0  0  0
  148.6111  136.4127  163.2059 H   0  0  0  0  0  0  0  0  0  0  0  0
  1  2  1  0  0  0  0
  1 19  1  0  0  0  0
  1 20  1  0  0  0  0
  1 21  1  0  0  0  0
  2  7  1  0  0  0  0
  2  3  2  0  0  0  0
  3  4  1  0  0  0  0
  4  5  1  0  0  0  0
  5  6  1  0  0  0  0
  5  7  2  0  0  0  0
  6 22  1  0  0  0  0
  6 23  1  0  0  0  0
  6 24  1  0  0  0  0
  7  8  1  0  0  0  0
  8  9  1  0  0  0  0
  8 25  1  0  0  0  0
  8 26  1  0  0  0  0
  9 10  2  0  0  0  0
  9 11  1  0  0  0  0
 11 12  1  0  0  0  0
 11 27  1  0  0  0  0
 12 13  1  0  0  0  0
 12 14  1  0  0  0  0
 12 28  1  0  0  0  0
 13 29  1  0  0  0  0
 13 30  1  0  0  0  0
 13 31  1  0  0  0  0
 14 18  1  0  0  0  0
 14 15  1  0  0  0  0
 14 32  1  0  0  0  0
 15 16  1  0  0  0  0
 15 33  1  0  0  0  0
 15 34  1  0  0  0  0
 16 17  1  0  0  0  0
 16 35  1  0  0  0  0
 16 36  1  0  0  0  0
 17 18  1  0  0  0  0
 17 37  1  0  0  0  0
 17 38  1  0  0  0  0
M  END
> <s_m_source_file>
AV-unprocessed.smi

> <i_m_source_file_index>
1328

> <i_lp_mmshare_version>
43012

> <i_f3d_flags>
0

> <s_epik_input>
W0NIM11jMW5vYyhbQ0gzXSljMVtDSDJdQyg9TylbTkhdW0NASF0oW0NIM10pW0NAQEhdMltDSDJdW0NIMl1bQ0gyXU8y

> <s_epik_cmdline>
J2VwaWtfcHl0aG9uJywgJy1waCcsICc3LjAnLCAnLXRuJywgJzgnLCAnLW1hJywgJzIwMCcsICctbWV0YWxfYmluZGluZycsICctaW1hZScsICc8aW5maWxlLm1hZT4nLCAnLW9tYWUnLCAnPG91dGZpbGUubWFlPic=

> <r_lp_tautomer_probability>
1

> <r_epik_Ionization_Penalty>
2.66156e-08

> <r_epik_Ionization_Penalty_Charging>
0

> <r_epik_Ionization_Penalty_Neutral>
2.66156e-08

> <r_epik_State_Penalty>
-0

> <r_epik_Charging_Adjusted_Penalty>
0

> <i_epik_Tot_Q>
0

> <i_epik_Tot_abs_Q>
0

> <r_epik_Metal_State_Penalty>
-0

> <b_epik_Metal_Only>
0

> <s_lp_Force_Field>
OPLS_2005

> <r_lp_Energy>
11.7374

> <b_lp_Chiralities_Consistent>
1

> <s_lp_Variant>
AV-unprocessed.smi:1328-2

> <Gold.Version>
5.8.1

> <Gold.Id.Protein>
6NUR|6NUR_protein|mol2

> <Gold.PLP.Fitness>
39.2935

> <Gold.PLP.PLP>
-30.8905

> <Gold.PLP.part.hbond>
-4.0000

> <Gold.PLP.part.metal>
0.0000

> <Gold.PLP.part.buried>
-5.3462

> <Gold.PLP.part.nonpolar>
-22.4896

> <Gold.PLP.part.repulsive>
0.3227

> <Gold.PLP.ligand.clash>
0.0000

> <Gold.PLP.ligand.torsion>
1.0732

> <Gold.PLP.Chemscore.Hbond>
3.5040

> <Gold.PLP.Chemscore.CHOScore>
0.0000

> <Gold.PLP.Chemscore.Metal>
0.0000

> <Gold.Chemscore.Hbonds>
donor molecule, donor type, donor heavy atom, donor atom, acceptor molecule, acceptor atom, score
      P1  H  6896  6909       L1    10  0.70
      P1  H  6931  6943       L1    18  1.00
      P1  H  6934  6947       L1    18  0.72
      P1  H  7989  7998       L1     3  1.00

> <Gold.PLP.Chemscore.Internal.Correction>
0.0375

> <Gold.Rescore>
     Score         DG    S(hbond)    S(metal)    S(lipo)     H(rot)  DE(clash)    DE(int)     intcor
     16.06     -18.28       2.66        0.00      66.56       1.52       0.06       2.15       ----

> <Gold.Chemscore.Fitness>
16.0648

> <Gold.Chemscore.DG>
-18.2760

> <Gold.Chemscore.ZeroCoef>
-5.4800

> <Gold.Chemscore.Hbond>
2.6616

> <Gold.Chemscore.Metal>
0.0000

> <Gold.Chemscore.Lipo>
66.5571

> <Gold.Chemscore.Internal_Hbond>
0.0000

> <Gold.Chemscore.DEClash>
0.0580

> <Gold.Chemscore.DEInternal>
2.1533

> <Gold.Chemscore.Rot>
1.5159

> <Gold.Chemscore.Internal.Correction>
   9.000000E+99

> <Gold.Chemscore.Hbonds>
donor molecule, donor type, donor heavy atom, donor atom, acceptor molecule, acceptor atom, score
      P1  H  6896  6909       L1    10  0.70
      P1  H  6931  6943       L1    18  0.25
      P1  H  6934  6947       L1    18  0.66
      P1  H  7989  7998       L1     3  0.98

> <Gold.Chemscore.Hbond.Weighted>
-8.8896

> <Gold.Chemscore.Metal.Weighted>
-0.0000

> <Gold.Chemscore.Lipo.Weighted>
-7.7872

> <Gold.Chemscore.Internal_Hbond.Weighted>
0.0000

> <Gold.Chemscore.DEClash.Weighted>
0.0580

> <Gold.Chemscore.DEInternal.Weighted>
2.1533

> <Gold.Chemscore.Rot.Weighted>
3.8807

> <Gold.Chemscore.Internal.Correction.Weighted>
   9.000000E+99

> <Gold.Protein.RotatedTorsions>
[ 6907 6896 6895 6894 ] final   89.39 input  -60.11 | X-H torsion
[ 7974 7965 7964 7962 ] final  107.96 input  175.53 | X-H torsion
[ 8008 7997 7996 7995 ] final -112.34 input   59.86 | X-H torsion
[ 10167 10162 10161 10158 ] final  106.34 input  -65.29 | X-H torsion
[ 10718 10713 10712 10709 ] final   96.59 input   66.30 | X-H torsion
[ 10763 10752 10751 10750 ] final  -24.48 input  -60.55 | X-H torsion
[ 11005 11000 10999 10996 ] final -124.16 input  -57.11 | X-H torsion

> <Gold.Protein.ActiveResidues>
 VAL166  LYS551  ARG553  GLY616  TRP617  ASP618  TYR619  PRO620  LYS621  CYS622 
 ASP623  PHE694  ASN695  SER759  ASP760  ASP761  ALA762  ILE779  LEU786  VAL792 
 PHE793  MET794  SER795  GLU796  ALA797  LYS798  CYS799  TRP800  GLU811  SER814 

> <Gold.Protein.RotatedAtoms>
  152.5435  134.1973  159.8697 H   0  0  0  0  0  0  0  0  0  0  0  0  # atno 6907 bound_to 6896
  151.1964  133.4629  159.2603 H   0  0  0  0  0  0  0  0  0  0  0  0  # atno 6908 bound_to 6896
  151.1032  134.9996  159.8514 H   0  0  0  0  0  0  0  0  0  0  0  0  # atno 6909 bound_to 6896
  145.2868  139.2614  143.3886 H   0  0  0  0  0  0  0  0  0  0  0  0  # atno 7974 bound_to 7965
  155.0036  140.0394  157.2370 H   0  0  0  0  0  0  0  0  0  0  0  0  # atno 8008 bound_to 7997
  154.7522  140.2769  155.6260 H   0  0  0  0  0  0  0  0  0  0  0  0  # atno 8009 bound_to 7997
  156.2887  140.2645  156.2278 H   0  0  0  0  0  0  0  0  0  0  0  0  # atno 8010 bound_to 7997
  139.7017  144.7093  151.1174 H   0  0  0  0  0  0  0  0  0  0  0  0  # atno 10167 bound_to 10162
  157.6925  131.0583  150.4515 H   0  0  0  0  0  0  0  0  0  0  0  0  # atno 10718 bound_to 10713
  153.6844  135.6965  153.5108 H   0  0  0  0  0  0  0  0  0  0  0  0  # atno 10763 bound_to 10752
  153.2460  135.4290  155.0747 H   0  0  0  0  0  0  0  0  0  0  0  0  # atno 10764 bound_to 10752
  154.8391  135.3519  154.6387 H   0  0  0  0  0  0  0  0  0  0  0  0  # atno 10765 bound_to 10752
  140.9863  134.0602  157.3707 H   0  0  0  0  0  0  0  0  0  0  0  0  # atno 11005 bound_to 11000
  146.3198  140.3349  142.8643 LP  0  0  0  0  0  0  0  0  0  0  0  0  # atno 17320 bound_to 7965
  144.9206  140.7864  143.5750 LP  0  0  0  0  0  0  0  0  0  0  0  0  # atno 17321 bound_to 7965
  140.7711  143.5414  150.9308 LP  0  0  0  0  0  0  0  0  0  0  0  0  # atno 17342 bound_to 10162
  139.9096  143.6736  152.3117 LP  0  0  0  0  0  0  0  0  0  0  0  0  # atno 17343 bound_to 10162
  156.4865  130.4085  149.6431 LP  0  0  0  0  0  0  0  0  0  0  0  0  # atno 17370 bound_to 10713
  156.3457  130.7405  151.2357 LP  0  0  0  0  0  0  0  0  0  0  0  0  # atno 17371 bound_to 10713
  139.8972  135.0149  156.7089 LP  0  0  0  0  0  0  0  0  0  0  0  0  # atno 17394 bound_to 11000
  140.7109  133.9224  155.8084 LP  0  0  0  0  0  0  0  0  0  0  0  0  # atno 17395 bound_to 11000

$$$$
