AV-unprocessed.smi:2712|AV-procd|sdf|10474|dock4
  -GOLD-   2272014513D 1   1.00000     0.00000
 Structure written by MMmdl.
 52 53  0  0  0  0  0  0  0  0  1 V2000
  146.0466  137.5972  162.5758 C   0  0  0  0  0  0  0  0  0  0  0  0
  146.8836  136.7680  161.6473 C   0  0  0  0  0  0  0  0  0  0  0  0
  147.4594  135.4934  162.0312 C   0  0  0  0  0  0  0  0  0  0  0  0
  148.2023  134.8066  161.1372 C   0  0  0  0  0  0  0  0  0  0  0  0
  148.4405  135.3119  159.7870 C   0  0  0  0  0  0  0  0  0  0  0  0
  149.1002  134.7032  158.9452 O   0  0  0  0  0  0  0  0  0  0  0  0
  147.8494  136.5190  159.5396 N   0  0  0  0  0  0  0  0  0  0  0  0
  147.9599  137.1684  158.2226 C   0  0  0  0  0  0  0  0  0  0  0  0
  148.8685  138.4103  158.1894 C   0  0  0  0  0  0  0  0  0  0  0  0
  149.1944  138.9432  159.2495 O   0  0  0  0  0  0  0  0  0  0  0  0
  149.2758  138.8609  156.9906 N   0  0  0  0  0  0  0  0  0  0  0  0
  150.1632  139.9943  156.7494 C   0  0  2  0  0  0  0  0  0  0  0  0
  151.5752  139.6539  157.2616 C   0  0  0  0  0  0  0  0  0  0  0  0
  151.7911  139.9024  158.7620 C   0  0  0  0  0  0  0  0  0  0  0  0
  152.2718  141.3315  159.0758 C   0  0  0  0  0  0  0  0  0  0  0  0
  151.2100  142.4598  158.9487 C   0  0  1  0  0  0  0  0  0  0  0  0
  151.7595  143.8790  159.3504 C   0  0  0  0  0  0  0  0  0  0  0  0
  152.5022  143.8455  160.7040 C   0  0  0  0  0  0  0  0  0  0  0  0
  150.6164  144.9153  159.4523 C   0  0  0  0  0  0  0  0  0  0  0  0
  152.7281  144.4135  158.2682 C   0  0  0  0  0  0  0  0  0  0  0  0
  150.5188  142.4458  157.5542 C   0  0  0  0  0  0  0  0  0  0  0  0
  149.5449  141.2714  157.3569 C   0  0  0  0  0  0  0  0  0  0  0  0
  147.0903  137.2271  160.4568 N   0  0  0  0  0  0  0  0  0  0  0  0
  145.8803  137.0833  163.5229 H   0  0  0  0  0  0  0  0  0  0  0  0
  145.0715  137.8098  162.1363 H   0  0  0  0  0  0  0  0  0  0  0  0
  146.5347  138.5477  162.7926 H   0  0  0  0  0  0  0  0  0  0  0  0
  147.2919  135.1051  163.0249 H   0  0  0  0  0  0  0  0  0  0  0  0
  148.6315  133.8578  161.4249 H   0  0  0  0  0  0  0  0  0  0  0  0
  148.3420  136.4548  157.4905 H   0  0  0  0  0  0  0  0  0  0  0  0
  146.9707  137.4514  157.8579 H   0  0  0  0  0  0  0  0  0  0  0  0
  148.9548  138.3611  156.1741 H   0  0  0  0  0  0  0  0  0  0  0  0
  150.2498  140.1326  155.6701 H   0  0  0  0  0  0  0  0  0  0  0  0
  151.7902  138.6081  157.0367 H   0  0  0  0  0  0  0  0  0  0  0  0
  152.3157  140.2180  156.6934 H   0  0  0  0  0  0  0  0  0  0  0  0
  150.9005  139.6494  159.3389 H   0  0  0  0  0  0  0  0  0  0  0  0
  152.5659  139.2151  159.1033 H   0  0  0  0  0  0  0  0  0  0  0  0
  152.6374  141.2972  160.1008 H   0  0  0  0  0  0  0  0  0  0  0  0
  153.1410  141.5589  158.4590 H   0  0  0  0  0  0  0  0  0  0  0  0
  150.4402  142.2256  159.6853 H   0  0  0  0  0  0  0  0  0  0  0  0
  152.8605  144.8382  160.9790 H   0  0  0  0  0  0  0  0  0  0  0  0
  153.3741  143.1919  160.6749 H   0  0  0  0  0  0  0  0  0  0  0  0
  151.8590  143.5023  161.5139 H   0  0  0  0  0  0  0  0  0  0  0  0
  149.9662  144.7287  160.3069 H   0  0  0  0  0  0  0  0  0  0  0  0
  149.9992  144.9186  158.5530 H   0  0  0  0  0  0  0  0  0  0  0  0
  151.0051  145.9257  159.5835 H   0  0  0  0  0  0  0  0  0  0  0  0
  153.0151  145.4464  158.4690 H   0  0  0  0  0  0  0  0  0  0  0  0
  152.2698  144.3947  157.2789 H   0  0  0  0  0  0  0  0  0  0  0  0
  153.6578  143.8496  158.2140 H   0  0  0  0  0  0  0  0  0  0  0  0
  149.9248  143.3472  157.4279 H   0  0  0  0  0  0  0  0  0  0  0  0
  151.2537  142.4738  156.7492 H   0  0  0  0  0  0  0  0  0  0  0  0
  148.7403  141.5963  156.6959 H   0  0  0  0  0  0  0  0  0  0  0  0
  149.0548  141.0441  158.3047 H   0  0  0  0  0  0  0  0  0  0  0  0
  1  2  1  0  0  0  0
  1 24  1  0  0  0  0
  1 25  1  0  0  0  0
  1 26  1  0  0  0  0
  2 23  2  0  0  0  0
  2  3  1  0  0  0  0
  3  4  2  0  0  0  0
  3 27  1  0  0  0  0
  4  5  1  0  0  0  0
  4 28  1  0  0  0  0
  5  6  2  0  0  0  0
  5  7  1  0  0  0  0
  7  8  1  0  0  0  0
  7 23  1  0  0  0  0
  8  9  1  0  0  0  0
  8 29  1  0  0  0  0
  8 30  1  0  0  0  0
  9 10  2  0  0  0  0
  9 11  1  0  0  0  0
 11 12  1  0  0  0  0
 11 31  1  0  0  0  0
 12 22  1  0  0  0  0
 12 13  1  0  0  0  0
 12 32  1  0  0  0  0
 13 14  1  0  0  0  0
 13 33  1  0  0  0  0
 13 34  1  0  0  0  0
 14 15  1  0  0  0  0
 14 35  1  0  0  0  0
 14 36  1  0  0  0  0
 15 16  1  0  0  0  0
 15 37  1  0  0  0  0
 15 38  1  0  0  0  0
 16 17  1  0  0  0  0
 16 21  1  0  0  0  0
 16 39  1  0  0  0  0
 17 18  1  0  0  0  0
 17 19  1  0  0  0  0
 17 20  1  0  0  0  0
 18 40  1  0  0  0  0
 18 41  1  0  0  0  0
 18 42  1  0  0  0  0
 19 43  1  0  0  0  0
 19 44  1  0  0  0  0
 19 45  1  0  0  0  0
 20 46  1  0  0  0  0
 20 47  1  0  0  0  0
 20 48  1  0  0  0  0
 21 22  1  0  0  0  0
 21 49  1  0  0  0  0
 21 50  1  0  0  0  0
 22 51  1  0  0  0  0
 22 52  1  0  0  0  0
M  END
> <s_m_source_file>
AV-unprocessed.smi

> <i_m_source_file_index>
2712

> <i_lp_mmshare_version>
43012

> <i_f3d_flags>
0

> <s_epik_input>
W0NIM11jMVtjSF1bY0hdYyg9TyluKG4xKVtDSDJdQyg9TylbTkhdW0NAQEhdMltDSDJdW0NIMl1bQ0gyXVtDQEBIXShDKFtDSDNdKShbQ0gzXSlbQ0gzXSlbQ0gyXVtDSDJdMg==

> <s_epik_cmdline>
J2VwaWtfcHl0aG9uJywgJy1waCcsICc3LjAnLCAnLXRuJywgJzgnLCAnLW1hJywgJzIwMCcsICctbWV0YWxfYmluZGluZycsICctaW1hZScsICc8aW5maWxlLm1hZT4nLCAnLW9tYWUnLCAnPG91dGZpbGUubWFlPic=

> <r_lp_tautomer_probability>
1

> <r_epik_Ionization_Penalty>
8.71758e-07

> <r_epik_Ionization_Penalty_Charging>
8.50442e-07

> <r_epik_Ionization_Penalty_Neutral>
2.13165e-08

> <r_epik_State_Penalty>
-0

> <r_epik_Charging_Adjusted_Penalty>
8.50442e-07

> <i_epik_Tot_Q>
0

> <i_epik_Tot_abs_Q>
0

> <r_epik_Metal_State_Penalty>
-0

> <b_epik_Metal_Only>
0

> <s_lp_Force_Field>
OPLS_2005

> <r_lp_Energy>
38.8827

> <b_lp_Chiralities_Consistent>
1

> <s_lp_Variant>
AV-unprocessed.smi:2712-1

> <Gold.Version>
5.8.1

> <Gold.Id.Protein>
6NUR|6NUR_protein|mol2

> <Gold.PLP.Fitness>
43.1043

> <Gold.PLP.PLP>
-38.5511

> <Gold.PLP.part.hbond>
-4.0000

> <Gold.PLP.part.metal>
0.0000

> <Gold.PLP.part.buried>
-2.3231

> <Gold.PLP.part.nonpolar>
-32.6917

> <Gold.PLP.part.repulsive>
0.0217

> <Gold.PLP.ligand.clash>
0.0000

> <Gold.PLP.ligand.torsion>
0.4674

> <Gold.PLP.Chemscore.Hbond>
1.8000

> <Gold.PLP.Chemscore.CHOScore>
0.0000

> <Gold.PLP.Chemscore.Metal>
0.0000

> <Gold.Chemscore.Hbonds>
donor molecule, donor type, donor heavy atom, donor atom, acceptor molecule, acceptor atom, score
      P1  H  6896  6908       L1     6  1.00
      P1  H  6934  6947       L1    23  0.85

> <Gold.PLP.Chemscore.Internal.Correction>
0.0880

> <Gold.Rescore>
     Score         DG    S(hbond)    S(metal)    S(lipo)     H(rot)  DE(clash)    DE(int)     intcor
     15.59     -20.73       1.30        0.00     126.24       1.52       1.97       3.17       ----

> <Gold.Chemscore.Fitness>
15.5884

> <Gold.Chemscore.DG>
-20.7276

> <Gold.Chemscore.ZeroCoef>
-5.4800

> <Gold.Chemscore.Hbond>
1.3049

> <Gold.Chemscore.Metal>
0.0000

> <Gold.Chemscore.Lipo>
126.2446

> <Gold.Chemscore.Internal_Hbond>
0.0000

> <Gold.Chemscore.DEClash>
1.9706

> <Gold.Chemscore.DEInternal>
3.1687

> <Gold.Chemscore.Rot>
1.5162

> <Gold.Chemscore.Internal.Correction>
   9.000000E+99

> <Gold.Chemscore.Hbonds>
donor molecule, donor type, donor heavy atom, donor atom, acceptor molecule, acceptor atom, score
      P1  H  6896  6908       L1     6  0.59
      P1  H  6934  6947       L1    23  0.15

> <Gold.Chemscore.Hbond.Weighted>
-4.3584

> <Gold.Chemscore.Metal.Weighted>
-0.0000

> <Gold.Chemscore.Lipo.Weighted>
-14.7706

> <Gold.Chemscore.Internal_Hbond.Weighted>
0.0000

> <Gold.Chemscore.DEClash.Weighted>
1.9706

> <Gold.Chemscore.DEInternal.Weighted>
3.1687

> <Gold.Chemscore.Rot.Weighted>
3.8814

> <Gold.Chemscore.Internal.Correction.Weighted>
   9.000000E+99

> <Gold.Protein.RotatedTorsions>
[ 6907 6896 6895 6894 ] final  170.84 input  -60.11 | X-H torsion
[ 7974 7965 7964 7962 ] final  117.20 input  175.53 | X-H torsion
[ 8008 7997 7996 7995 ] final   63.79 input   59.86 | X-H torsion
[ 10167 10162 10161 10158 ] final   51.19 input  -65.29 | X-H torsion
[ 10718 10713 10712 10709 ] final   67.03 input   66.30 | X-H torsion
[ 10763 10752 10751 10750 ] final  103.82 input  -60.55 | X-H torsion
[ 11005 11000 10999 10996 ] final  139.95 input  -57.11 | X-H torsion

> <Gold.Protein.ActiveResidues>
 VAL166  LYS551  ARG553  GLY616  TRP617  ASP618  TYR619  PRO620  LYS621  CYS622 
 ASP623  PHE694  ASN695  SER759  ASP760  ASP761  ALA762  ILE779  LEU786  VAL792 
 PHE793  MET794  SER795  GLU796  ALA797  LYS798  CYS799  TRP800  GLU811  SER814 

> <Gold.Protein.RotatedAtoms>
  151.8097  133.3380  159.3551 H   0  0  0  0  0  0  0  0  0  0  0  0  # atno 6907 bound_to 6896
  150.7330  134.5675  159.5883 H   0  0  0  0  0  0  0  0  0  0  0  0  # atno 6908 bound_to 6896
  152.3084  134.7529  160.0393 H   0  0  0  0  0  0  0  0  0  0  0  0  # atno 6909 bound_to 6896
  145.1702  139.3106  143.4471 H   0  0  0  0  0  0  0  0  0  0  0  0  # atno 7974 bound_to 7965
  155.6359  140.3496  155.4698 H   0  0  0  0  0  0  0  0  0  0  0  0  # atno 8008 bound_to 7997
  155.9966  140.1204  157.0611 H   0  0  0  0  0  0  0  0  0  0  0  0  # atno 8009 bound_to 7997
  154.4235  140.1109  156.5625 H   0  0  0  0  0  0  0  0  0  0  0  0  # atno 8010 bound_to 7997
  140.2645  144.3335  150.6308 H   0  0  0  0  0  0  0  0  0  0  0  0  # atno 10167 bound_to 10162
  157.6205  130.9299  150.0187 H   0  0  0  0  0  0  0  0  0  0  0  0  # atno 10718 bound_to 10713
  153.3577  135.3964  155.1694 H   0  0  0  0  0  0  0  0  0  0  0  0  # atno 10763 bound_to 10752
  154.8673  135.3672  154.5140 H   0  0  0  0  0  0  0  0  0  0  0  0  # atno 10764 bound_to 10752
  153.5597  135.7081  153.5613 H   0  0  0  0  0  0  0  0  0  0  0  0  # atno 10765 bound_to 10752
  140.0291  134.9360  157.0628 H   0  0  0  0  0  0  0  0  0  0  0  0  # atno 11005 bound_to 11000
  146.3469  140.1845  142.8589 LP  0  0  0  0  0  0  0  0  0  0  0  0  # atno 17320 bound_to 7965
  145.0240  140.8817  143.5149 LP  0  0  0  0  0  0  0  0  0  0  0  0  # atno 17321 bound_to 7965
  140.5939  143.2167  151.7201 LP  0  0  0  0  0  0  0  0  0  0  0  0  # atno 17342 bound_to 10162
  139.5007  144.3897  152.0292 LP  0  0  0  0  0  0  0  0  0  0  0  0  # atno 17343 bound_to 10162
  156.1348  130.3643  149.9674 LP  0  0  0  0  0  0  0  0  0  0  0  0  # atno 17370 bound_to 10713
  156.7727  130.9192  151.3644 LP  0  0  0  0  0  0  0  0  0  0  0  0  # atno 17371 bound_to 10713
  140.4255  134.1835  155.7166 LP  0  0  0  0  0  0  0  0  0  0  0  0  # atno 17394 bound_to 11000
  141.1821  133.8392  157.1222 LP  0  0  0  0  0  0  0  0  0  0  0  0  # atno 17395 bound_to 11000

$$$$
