AV-unprocessed.smi:618|AV-procd|sdf|3084|dock9
  -GOLD-   22720 0 03D 1   1.00000     0.00000
 Structure written by MMmdl.
 40 42  0  0  0  0  0  0  0  0  1 V2000
  150.0771  135.3977  156.1737 O   0  0  0  0  0  0  0  0  0  0  0  0
  149.6836  135.5309  155.0150 C   0  0  0  0  0  0  0  0  0  0  0  0
  149.3718  136.7157  154.4723 N   0  0  0  0  0  0  0  0  0  0  0  0
  149.4543  137.9990  155.1616 C   0  0  0  0  0  0  0  0  0  0  0  0
  150.6529  138.8377  154.6682 C   0  0  2  0  0  0  0  0  0  0  0  0
  151.7749  138.9578  155.7266 C   0  0  0  0  0  0  0  0  0  0  0  0
  151.3977  139.8911  156.7719 N   0  0  0  0  0  0  0  0  0  0  0  0
  152.3931  140.1744  157.7797 C   0  0  0  0  0  0  0  0  0  0  0  0
  151.8880  141.4555  158.4659 C   0  0  0  0  0  0  0  0  0  0  0  0
  150.9075  142.0767  157.4468 C   0  0  0  0  0  0  0  0  0  0  0  0
  151.0790  141.1792  156.2197 C   0  0  2  0  0  0  0  0  0  0  0  0
  149.8949  141.0755  155.2496 C   0  0  0  0  0  0  0  0  0  0  0  0
  150.2346  140.1384  154.2226 O   0  0  0  0  0  0  0  0  0  0  0  0
  149.5325  134.5336  154.1269 N   0  0  0  0  0  0  0  0  0  0  0  0
  149.7287  133.1411  154.3294 C   0  0  0  0  0  0  0  0  0  0  0  0
  150.5485  132.7333  155.4017 C   0  0  0  0  0  0  0  0  0  0  0  0
  150.7723  131.3588  155.6092 C   0  0  0  0  0  0  0  0  0  0  0  0
  150.1732  130.4417  154.7242 C   0  0  0  0  0  0  0  0  0  0  0  0
  149.3997  130.8149  153.6832 N   0  0  0  0  0  0  0  0  0  0  0  0
  149.1867  132.1348  153.4918 C   0  0  0  0  0  0  0  0  0  0  0  0
  149.0652  136.7353  153.5107 H   0  0  0  0  0  0  0  0  0  0  0  0
  148.5164  138.5313  155.0059 H   0  0  0  0  0  0  0  0  0  0  0  0
  149.5300  137.8347  156.2378 H   0  0  0  0  0  0  0  0  0  0  0  0
  151.0761  138.3321  153.7995 H   0  0  0  0  0  0  0  0  0  0  0  0
  152.0011  137.9814  156.1559 H   0  0  0  0  0  0  0  0  0  0  0  0
  152.6886  139.3039  155.2410 H   0  0  0  0  0  0  0  0  0  0  0  0
  152.5098  139.3427  158.4749 H   0  0  0  0  0  0  0  0  0  0  0  0
  153.3604  140.3629  157.3110 H   0  0  0  0  0  0  0  0  0  0  0  0
  151.3707  141.2231  159.3976 H   0  0  0  0  0  0  0  0  0  0  0  0
  152.7145  142.1271  158.6998 H   0  0  0  0  0  0  0  0  0  0  0  0
  149.8864  142.0211  157.8269 H   0  0  0  0  0  0  0  0  0  0  0  0
  151.1325  143.1209  157.2282 H   0  0  0  0  0  0  0  0  0  0  0  0
  151.9424  141.5455  155.6600 H   0  0  0  0  0  0  0  0  0  0  0  0
  148.9873  140.7614  155.7661 H   0  0  0  0  0  0  0  0  0  0  0  0
  149.6858  142.0439  154.7952 H   0  0  0  0  0  0  0  0  0  0  0  0
  149.2976  134.8077  153.1841 H   0  0  0  0  0  0  0  0  0  0  0  0
  150.9977  133.4615  156.0612 H   0  0  0  0  0  0  0  0  0  0  0  0
  151.3895  131.0151  156.4261 H   0  0  0  0  0  0  0  0  0  0  0  0
  150.3237  129.3799  154.8526 H   0  0  0  0  0  0  0  0  0  0  0  0
  148.5836  132.3744  152.6299 H   0  0  0  0  0  0  0  0  0  0  0  0
  1  2  2  0  0  0  0
  2  3  1  0  0  0  0
  2 14  1  0  0  0  0
  3  4  1  0  0  0  0
  3 21  1  0  0  0  0
  4  5  1  0  0  0  0
  4 22  1  0  0  0  0
  4 23  1  0  0  0  0
  5 13  1  0  0  0  0
  5  6  1  0  0  0  0
  5 24  1  0  0  0  0
  6  7  1  0  0  0  0
  6 25  1  0  0  0  0
  6 26  1  0  0  0  0
  7 11  1  0  0  0  0
  7  8  1  0  0  0  0
  8  9  1  0  0  0  0
  8 27  1  0  0  0  0
  8 28  1  0  0  0  0
  9 10  1  0  0  0  0
  9 29  1  0  0  0  0
  9 30  1  0  0  0  0
 10 11  1  0  0  0  0
 10 31  1  0  0  0  0
 10 32  1  0  0  0  0
 11 12  1  0  0  0  0
 11 33  1  0  0  0  0
 12 13  1  0  0  0  0
 12 34  1  0  0  0  0
 12 35  1  0  0  0  0
 14 15  1  0  0  0  0
 14 36  1  0  0  0  0
 15 20  1  0  0  0  0
 15 16  2  0  0  0  0
 16 17  1  0  0  0  0
 16 37  1  0  0  0  0
 17 18  2  0  0  0  0
 17 38  1  0  0  0  0
 18 19  1  0  0  0  0
 18 39  1  0  0  0  0
 19 20  2  0  0  0  0
 20 40  1  0  0  0  0
M  END
> <s_m_source_file>
AV-unprocessed.smi

> <i_m_source_file_index>
618

> <i_lp_mmshare_version>
43012

> <i_f3d_flags>
0

> <s_epik_input>
W2NIXTFuW2NIXVtjSF1bY0hdYzFbTkhdQyg9TylbTkhdW0NIMl1bQ0BIXShbQ0gyXTIpT1tDSDJdW0NAQEhdKE4yMylbQ0gyXVtDSDJdW0NIMl0z

> <s_epik_cmdline>
J2VwaWtfcHl0aG9uJywgJy1waCcsICc3LjAnLCAnLXRuJywgJzgnLCAnLW1hJywgJzIwMCcsICctbWV0YWxfYmluZGluZycsICctaW1hZScsICc8aW5maWxlLm1hZT4nLCAnLW9tYWUnLCAnPG91dGZpbGUubWFlPic=

> <r_epik_Ionization_Penalty>
1.07277

> <r_epik_Ionization_Penalty_Charging>
0

> <r_epik_Ionization_Penalty_Neutral>
1.07277

> <r_epik_State_Penalty>
1.13623

> <r_epik_Charging_Adjusted_Penalty>
1.13623

> <i_epik_Tot_Q>
0

> <i_epik_Tot_abs_Q>
0

> <r_epik_Metal_State_Penalty>
1.13277

> <b_epik_Metal_Only>
0

> <s_lp_Force_Field>
OPLS_2005

> <r_lp_Energy>
52.4513

> <b_lp_Chiralities_Consistent>
1

> <s_lp_Variant>
AV-unprocessed.smi:618-11

> <Gold.Version>
5.8.1

> <Gold.Id.Protein>
6NUR|6NUR_protein|mol2

> <Gold.PLP.Fitness>
41.2051

> <Gold.PLP.PLP>
-34.7439

> <Gold.PLP.part.hbond>
-3.0000

> <Gold.PLP.part.metal>
0.0000

> <Gold.PLP.part.buried>
-3.5980

> <Gold.PLP.part.nonpolar>
-28.2112

> <Gold.PLP.part.repulsive>
0.4021

> <Gold.PLP.ligand.clash>
0.0000

> <Gold.PLP.ligand.torsion>
0.8863

> <Gold.PLP.Chemscore.Hbond>
2.6500

> <Gold.PLP.Chemscore.CHOScore>
0.0920

> <Gold.PLP.Chemscore.Metal>
0.0000

> <Gold.Chemscore.Hbonds>
donor molecule, donor type, donor heavy atom, donor atom, acceptor molecule, acceptor atom, score
      L1  H     3    21       P1  7948  1.00
      L1  H    14    36       P1  7948  0.45
      P1  H  7989  7998       L1    13  1.00
      L1  C    20    40       P1 10747  0.22

> <Gold.PLP.Chemscore.Internal.Correction>
0.0077

> <Gold.Rescore>
     Score         DG    S(hbond)    S(metal)    S(lipo)     H(rot)  DE(clash)    DE(int)     intcor
     16.63     -18.87       2.36        0.00      74.29       1.25       0.02       2.22       ----

> <Gold.Chemscore.Fitness>
16.6333

> <Gold.Chemscore.DG>
-18.8678

> <Gold.Chemscore.ZeroCoef>
-5.4800

> <Gold.Chemscore.Hbond>
2.3611

> <Gold.Chemscore.Metal>
0.0000

> <Gold.Chemscore.Lipo>
74.2881

> <Gold.Chemscore.Internal_Hbond>
0.0000

> <Gold.Chemscore.DEClash>
0.0174

> <Gold.Chemscore.DEInternal>
2.2171

> <Gold.Chemscore.Rot>
1.2461

> <Gold.Chemscore.Internal.Correction>
   9.000000E+99

> <Gold.Chemscore.Hbonds>
donor molecule, donor type, donor heavy atom, donor atom, acceptor molecule, acceptor atom, score
      L1  H     3    21       P1  7948  0.98
      L1  H    14    36       P1  7948  0.02
      P1  H  7989  7998       L1    13  0.23

> <Gold.Chemscore.Hbond.Weighted>
-7.8861

> <Gold.Chemscore.Metal.Weighted>
-0.0000

> <Gold.Chemscore.Lipo.Weighted>
-8.6917

> <Gold.Chemscore.Internal_Hbond.Weighted>
0.0000

> <Gold.Chemscore.DEClash.Weighted>
0.0174

> <Gold.Chemscore.DEInternal.Weighted>
2.2171

> <Gold.Chemscore.Rot.Weighted>
3.1901

> <Gold.Chemscore.Internal.Correction.Weighted>
   9.000000E+99

> <Gold.Protein.RotatedTorsions>
[ 6907 6896 6895 6894 ] final   31.03 input  -60.11 | X-H torsion
[ 7974 7965 7964 7962 ] final  -81.48 input  175.53 | X-H torsion
[ 8008 7997 7996 7995 ] final   29.80 input   59.86 | X-H torsion
[ 10167 10162 10161 10158 ] final  140.78 input  -65.29 | X-H torsion
[ 10718 10713 10712 10709 ] final  136.13 input   66.30 | X-H torsion
[ 10763 10752 10751 10750 ] final -106.05 input  -60.55 | X-H torsion
[ 11005 11000 10999 10996 ] final  -74.87 input  -57.11 | X-H torsion

> <Gold.Protein.ActiveResidues>
 VAL166  LYS551  ARG553  GLY616  TRP617  ASP618  TYR619  PRO620  LYS621  CYS622 
 ASP623  PHE694  ASN695  SER759  ASP760  ASP761  ALA762  ILE779  LEU786  VAL792 
 PHE793  MET794  SER795  GLU796  ALA797  LYS798  CYS799  TRP800  GLU811  SER814 

> <Gold.Protein.RotatedAtoms>
  152.0545  134.9633  160.0574 H   0  0  0  0  0  0  0  0  0  0  0  0  # atno 6907 bound_to 6896
  152.1021  133.4250  159.4600 H   0  0  0  0  0  0  0  0  0  0  0  0  # atno 6908 bound_to 6896
  150.6840  134.2667  159.4615 H   0  0  0  0  0  0  0  0  0  0  0  0  # atno 6909 bound_to 6896
  145.5461  140.9503  143.1524 H   0  0  0  0  0  0  0  0  0  0  0  0  # atno 7974 bound_to 7965
  155.0802  140.3209  155.4604 H   0  0  0  0  0  0  0  0  0  0  0  0  # atno 8008 bound_to 7997
  156.2769  140.2096  156.5875 H   0  0  0  0  0  0  0  0  0  0  0  0  # atno 8009 bound_to 7997
  154.6984  140.0509  157.0421 H   0  0  0  0  0  0  0  0  0  0  0  0  # atno 8010 bound_to 7997
  139.5039  144.6213  151.6044 H   0  0  0  0  0  0  0  0  0  0  0  0  # atno 10167 bound_to 10162
  157.4498  131.1065  151.0046 H   0  0  0  0  0  0  0  0  0  0  0  0  # atno 10718 bound_to 10713
  154.7987  135.4726  154.0223 H   0  0  0  0  0  0  0  0  0  0  0  0  # atno 10763 bound_to 10752
  153.1746  135.6830  153.8568 H   0  0  0  0  0  0  0  0  0  0  0  0  # atno 10764 bound_to 10752
  153.8139  135.3213  155.3381 H   0  0  0  0  0  0  0  0  0  0  0  0  # atno 10765 bound_to 10752
  141.1640  133.6926  156.7430 H   0  0  0  0  0  0  0  0  0  0  0  0  # atno 11005 bound_to 11000
  144.7553  139.7091  143.7257 LP  0  0  0  0  0  0  0  0  0  0  0  0  # atno 17320 bound_to 7965
  146.1948  139.5209  142.9781 LP  0  0  0  0  0  0  0  0  0  0  0  0  # atno 17321 bound_to 7965
  140.5916  143.9770  150.6328 LP  0  0  0  0  0  0  0  0  0  0  0  0  # atno 17342 bound_to 10162
  140.2952  143.3297  152.1024 LP  0  0  0  0  0  0  0  0  0  0  0  0  # atno 17343 bound_to 10162
  157.0880  130.5930  149.5434 LP  0  0  0  0  0  0  0  0  0  0  0  0  # atno 17370 bound_to 10713
  155.9982  130.5056  150.7564 LP  0  0  0  0  0  0  0  0  0  0  0  0  # atno 17371 bound_to 10713
  140.2660  134.8429  157.3803 LP  0  0  0  0  0  0  0  0  0  0  0  0  # atno 17394 bound_to 11000
  140.1566  134.4782  155.7924 LP  0  0  0  0  0  0  0  0  0  0  0  0  # atno 17395 bound_to 11000

$$$$
