AV-unprocessed.smi:3161|AV-procd|sdf|12060|dock9
  -GOLD-   2272017493D 1   1.00000     0.00000
 Structure written by MMmdl.
 40 41  0  0  0  0  0  0  0  0  1 V2000
  146.3717  143.0694  153.9911 C   0  0  0  0  0  0  0  0  0  0  0  0
  147.2936  141.8845  153.9785 C   0  0  0  0  0  0  0  0  0  0  0  0
  147.0775  140.6143  153.3731 C   0  0  0  0  0  0  0  0  0  0  0  0
  148.0936  139.7845  153.5422 N   0  0  0  0  0  0  0  0  0  0  0  0
  148.9854  140.4850  154.2758 N   0  0  0  0  0  0  0  0  0  0  0  0
  150.2613  139.8886  154.6373 C   0  0  0  0  0  0  0  0  0  0  0  0
  150.4781  139.7214  156.1632 C   0  0  1  0  0  0  0  0  0  0  0  0
  151.1450  138.3710  156.4624 C   0  0  0  0  0  0  0  0  0  0  0  0
  151.2989  140.7877  156.7509 N   0  0  0  0  0  0  0  0  0  0  0  0
  150.5970  142.0204  157.1051 C   0  0  0  0  0  0  0  0  0  0  0  0
  151.5183  142.9906  157.8588 C   0  0  2  0  0  0  0  0  0  0  0  0
  152.1830  142.3434  159.0915 C   0  0  0  0  0  0  0  0  0  0  0  0
  153.0124  143.3772  159.8614 C   0  0  0  0  0  0  0  0  0  0  0  0
  152.1444  144.5971  160.1868 C   0  0  0  0  0  0  0  0  0  0  0  0
  151.4726  145.1292  158.9112 C   0  0  0  0  0  0  0  0  0  0  0  0
  150.7206  144.0916  158.2890 O   0  0  0  0  0  0  0  0  0  0  0  0
  148.5348  141.7624  154.5359 C   0  0  0  0  0  0  0  0  0  0  0  0
  145.6114  142.9992  153.2127 H   0  0  0  0  0  0  0  0  0  0  0  0
  146.9116  144.0025  153.8284 H   0  0  0  0  0  0  0  0  0  0  0  0
  145.8493  143.1611  154.9434 H   0  0  0  0  0  0  0  0  0  0  0  0
  146.2182  140.2748  152.8139 H   0  0  0  0  0  0  0  0  0  0  0  0
  150.2975  138.9135  154.1498 H   0  0  0  0  0  0  0  0  0  0  0  0
  151.0685  140.4759  154.1973 H   0  0  0  0  0  0  0  0  0  0  0  0
  149.5088  139.7042  156.6629 H   0  0  0  0  0  0  0  0  0  0  0  0
  150.5334  137.5428  156.1036 H   0  0  0  0  0  0  0  0  0  0  0  0
  151.2863  138.2292  157.5344 H   0  0  0  0  0  0  0  0  0  0  0  0
  152.1222  138.2947  155.9838 H   0  0  0  0  0  0  0  0  0  0  0  0
  151.7750  140.4274  157.5718 H   0  0  0  0  0  0  0  0  0  0  0  0
  150.2492  142.5164  156.2010 H   0  0  0  0  0  0  0  0  0  0  0  0
  149.7140  141.8022  157.7071 H   0  0  0  0  0  0  0  0  0  0  0  0
  152.2816  143.3626  157.1722 H   0  0  0  0  0  0  0  0  0  0  0  0
  151.4173  141.9281  159.7482 H   0  0  0  0  0  0  0  0  0  0  0  0
  152.8199  141.5114  158.7895 H   0  0  0  0  0  0  0  0  0  0  0  0
  153.4142  142.9398  160.7757 H   0  0  0  0  0  0  0  0  0  0  0  0
  153.8669  143.6852  159.2575 H   0  0  0  0  0  0  0  0  0  0  0  0
  151.3789  144.3198  160.9126 H   0  0  0  0  0  0  0  0  0  0  0  0
  152.7483  145.3775  160.6507 H   0  0  0  0  0  0  0  0  0  0  0  0
  150.8010  145.9518  159.1567 H   0  0  0  0  0  0  0  0  0  0  0  0
  152.2153  145.5221  158.2153 H   0  0  0  0  0  0  0  0  0  0  0  0
  149.1270  142.4700  155.0974 H   0  0  0  0  0  0  0  0  0  0  0  0
  1  2  1  0  0  0  0
  1 18  1  0  0  0  0
  1 19  1  0  0  0  0
  1 20  1  0  0  0  0
  2 17  2  0  0  0  0
  2  3  1  0  0  0  0
  3  4  2  0  0  0  0
  3 21  1  0  0  0  0
  4  5  1  0  0  0  0
  5  6  1  0  0  0  0
  5 17  1  0  0  0  0
  6  7  1  0  0  0  0
  6 22  1  0  0  0  0
  6 23  1  0  0  0  0
  7  8  1  0  0  0  0
  7  9  1  0  0  0  0
  7 24  1  0  0  0  0
  8 25  1  0  0  0  0
  8 26  1  0  0  0  0
  8 27  1  0  0  0  0
  9 10  1  0  0  0  0
  9 28  1  0  0  0  0
 10 11  1  0  0  0  0
 10 29  1  0  0  0  0
 10 30  1  0  0  0  0
 11 16  1  0  0  0  0
 11 12  1  0  0  0  0
 11 31  1  0  0  0  0
 12 13  1  0  0  0  0
 12 32  1  0  0  0  0
 12 33  1  0  0  0  0
 13 14  1  0  0  0  0
 13 34  1  0  0  0  0
 13 35  1  0  0  0  0
 14 15  1  0  0  0  0
 14 36  1  0  0  0  0
 14 37  1  0  0  0  0
 15 16  1  0  0  0  0
 15 38  1  0  0  0  0
 15 39  1  0  0  0  0
 17 40  1  0  0  0  0
M  END
> <s_m_source_file>
AV-unprocessed.smi

> <i_m_source_file_index>
3161

> <i_lp_mmshare_version>
43012

> <i_f3d_flags>
0

> <s_epik_input>
W0NIM11jMVtjSF1ubihbY0hdMSlbQ0gyXVtDQEhdKFtDSDNdKVtOSF1bQ0gyXVtDQEBIXTJbQ0gyXVtDSDJdW0NIMl1bQ0gyXU8y

> <s_epik_cmdline>
J2VwaWtfcHl0aG9uJywgJy1waCcsICc3LjAnLCAnLXRuJywgJzgnLCAnLW1hJywgJzIwMCcsICctbWV0YWxfYmluZGluZycsICctaW1hZScsICc8aW5maWxlLm1hZT4nLCAnLW9tYWUnLCAnPG91dGZpbGUubWFlPic=

> <r_lp_tautomer_probability>
1

> <r_epik_Ionization_Penalty>
2.51986

> <r_epik_Ionization_Penalty_Charging>
0

> <r_epik_Ionization_Penalty_Neutral>
2.51986

> <r_epik_State_Penalty>
2.68614

> <r_epik_Charging_Adjusted_Penalty>
2.68614

> <i_epik_Tot_Q>
0

> <i_epik_Tot_abs_Q>
0

> <r_epik_Metal_State_Penalty>
2.68606

> <b_epik_Metal_Only>
0

> <s_lp_Force_Field>
OPLS_2005

> <r_lp_Energy>
14.6841

> <b_lp_Chiralities_Consistent>
1

> <s_lp_Variant>
AV-unprocessed.smi:3161-6

> <Gold.Version>
5.8.1

> <Gold.Id.Protein>
6NUR|6NUR_protein|mol2

> <Gold.PLP.Fitness>
42.4874

> <Gold.PLP.PLP>
-38.2120

> <Gold.PLP.part.hbond>
0.0000

> <Gold.PLP.part.metal>
0.0000

> <Gold.PLP.part.buried>
-4.4462

> <Gold.PLP.part.nonpolar>
-35.7771

> <Gold.PLP.part.repulsive>
1.6970

> <Gold.PLP.ligand.clash>
0.0000

> <Gold.PLP.ligand.torsion>
0.8869

> <Gold.PLP.Chemscore.Hbond>
0.0000

> <Gold.PLP.Chemscore.CHOScore>
2.0000

> <Gold.PLP.Chemscore.Metal>
0.0000

> <Gold.Chemscore.Hbonds>
donor molecule, donor type, donor heavy atom, donor atom, acceptor molecule, acceptor atom, score
      L1  C     3    21       P1 10175  0.93
      L1  C    17    40       P1  8028  1.00

> <Gold.PLP.Chemscore.Internal.Correction>
0.0492

> <Gold.Rescore>
     Score         DG    S(hbond)    S(metal)    S(lipo)     H(rot)  DE(clash)    DE(int)     intcor
     13.35     -14.26       0.00        0.00     107.90       1.50       0.08       0.82       ----

> <Gold.Chemscore.Fitness>
13.3516

> <Gold.Chemscore.DG>
-14.2567

> <Gold.Chemscore.ZeroCoef>
-5.4800

> <Gold.Chemscore.Hbond>
0.0000

> <Gold.Chemscore.Metal>
0.0000

> <Gold.Chemscore.Lipo>
107.9013

> <Gold.Chemscore.Internal_Hbond>
0.0000

> <Gold.Chemscore.DEClash>
0.0845

> <Gold.Chemscore.DEInternal>
0.8206

> <Gold.Chemscore.Rot>
1.5030

> <Gold.Chemscore.Internal.Correction>
   9.000000E+99

> <Gold.Chemscore.Hbond.Weighted>
-0.0000

> <Gold.Chemscore.Metal.Weighted>
-0.0000

> <Gold.Chemscore.Lipo.Weighted>
-12.6244

> <Gold.Chemscore.Internal_Hbond.Weighted>
0.0000

> <Gold.Chemscore.DEClash.Weighted>
0.0845

> <Gold.Chemscore.DEInternal.Weighted>
0.8206

> <Gold.Chemscore.Rot.Weighted>
3.8477

> <Gold.Chemscore.Internal.Correction.Weighted>
   9.000000E+99

> <Gold.Protein.RotatedTorsions>
[ 6907 6896 6895 6894 ] final  -95.68 input  -60.11 | X-H torsion
[ 7974 7965 7964 7962 ] final   23.91 input  175.53 | X-H torsion
[ 8008 7997 7996 7995 ] final  -80.65 input   59.86 | X-H torsion
[ 10167 10162 10161 10158 ] final  120.11 input  -65.29 | X-H torsion
[ 10718 10713 10712 10709 ] final   81.85 input   66.30 | X-H torsion
[ 10763 10752 10751 10750 ] final  129.02 input  -60.55 | X-H torsion
[ 11005 11000 10999 10996 ] final  -55.79 input  -57.11 | X-H torsion

> <Gold.Protein.ActiveResidues>
 VAL166  LYS551  ARG553  GLY616  TRP617  ASP618  TYR619  PRO620  LYS621  CYS622 
 ASP623  PHE694  ASN695  SER759  ASP760  ASP761  ALA762  ILE779  LEU786  VAL792 
 PHE793  MET794  SER795  GLU796  ALA797  LYS798  CYS799  TRP800  GLU811  SER814 

> <Gold.Protein.RotatedAtoms>
  150.6970  134.1619  159.4179 H   0  0  0  0  0  0  0  0  0  0  0  0  # atno 6907 bound_to 6896
  151.9600  135.0126  160.0556 H   0  0  0  0  0  0  0  0  0  0  0  0  # atno 6908 bound_to 6896
  152.1935  133.4755  159.5057 H   0  0  0  0  0  0  0  0  0  0  0  0  # atno 6909 bound_to 6896
  146.1962  139.7679  142.8795 H   0  0  0  0  0  0  0  0  0  0  0  0  # atno 7974 bound_to 7965
  154.5904  140.0660  156.9230 H   0  0  0  0  0  0  0  0  0  0  0  0  # atno 8008 bound_to 7997
  155.2305  140.3337  155.4285 H   0  0  0  0  0  0  0  0  0  0  0  0  # atno 8009 bound_to 7997
  156.2252  140.1816  156.7365 H   0  0  0  0  0  0  0  0  0  0  0  0  # atno 8010 bound_to 7997
  139.6002  144.7054  151.3079 H   0  0  0  0  0  0  0  0  0  0  0  0  # atno 10167 bound_to 10162
  157.6843  131.0022  150.2288 H   0  0  0  0  0  0  0  0  0  0  0  0  # atno 10718 bound_to 10713
  153.7349  135.3233  155.3293 H   0  0  0  0  0  0  0  0  0  0  0  0  # atno 10763 bound_to 10752
  154.8314  135.4531  154.1084 H   0  0  0  0  0  0  0  0  0  0  0  0  # atno 10764 bound_to 10752
  153.2242  135.6952  153.8045 H   0  0  0  0  0  0  0  0  0  0  0  0  # atno 10765 bound_to 10752
  141.1090  133.6611  156.4522 H   0  0  0  0  0  0  0  0  0  0  0  0  # atno 11005 bound_to 11000
  145.3634  141.0330  143.3272 LP  0  0  0  0  0  0  0  0  0  0  0  0  # atno 17320 bound_to 7965
  144.8586  139.5211  143.6822 LP  0  0  0  0  0  0  0  0  0  0  0  0  # atno 17321 bound_to 7965
  140.7244  143.7045  150.7818 LP  0  0  0  0  0  0  0  0  0  0  0  0  # atno 17342 bound_to 10162
  140.0620  143.5145  152.2623 LP  0  0  0  0  0  0  0  0  0  0  0  0  # atno 17343 bound_to 10162
  156.2925  130.3747  149.7828 LP  0  0  0  0  0  0  0  0  0  0  0  0  # atno 17370 bound_to 10713
  156.5483  130.8330  151.3291 LP  0  0  0  0  0  0  0  0  0  0  0  0  # atno 17371 bound_to 10713
  140.4826  134.6650  157.5177 LP  0  0  0  0  0  0  0  0  0  0  0  0  # atno 17394 bound_to 11000
  139.9974  134.6890  155.9587 LP  0  0  0  0  0  0  0  0  0  0  0  0  # atno 17395 bound_to 11000

$$$$
