AV-unprocessed.smi:1880|AV-procd|sdf|7635|dock9
  -GOLD-   22720 9363D 1   1.00000     0.00000
 Structure written by MMmdl.
 36 38  0  0  0  0  0  0  0  0  1 V2000
  148.5893  140.9156  153.4796 O   0  0  0  0  0  0  0  0  0  0  0  0
  149.4801  140.4420  154.4707 C   0  0  2  0  0  0  0  0  0  0  0  0
  148.7540  139.3744  155.3031 C   0  0  0  0  0  0  0  0  0  0  0  0
  149.0182  138.1016  154.7378 O   0  0  0  0  0  0  0  0  0  0  0  0
  150.3569  137.6801  154.9308 C   0  0  0  0  0  0  0  0  0  0  0  0
  150.3043  136.2114  155.1787 C   0  0  0  0  0  0  0  0  0  0  0  0
  149.3417  135.2590  154.9878 C   0  0  0  0  0  0  0  0  0  0  0  0
  149.9071  134.0264  155.4167 C   0  0  0  0  0  0  0  0  0  0  0  0
  151.1727  134.3196  155.8389 C   0  0  0  0  0  0  0  0  0  0  0  0
  151.4307  135.6486  155.7008 O   0  0  0  0  0  0  0  0  0  0  0  0
  149.9488  141.6300  155.3330 C   0  0  0  0  0  0  0  0  0  0  0  0
  150.9156  141.2326  156.3414 N   0  0  0  0  0  0  0  0  0  0  0  0
  151.6890  140.1302  156.3286 C   0  0  0  0  0  0  0  0  0  0  0  0
  152.5185  139.9554  157.3533 N   0  0  0  0  0  0  0  0  0  0  0  0
  152.2541  141.0765  158.1209 C   0  0  0  0  0  0  0  0  0  0  0  0
  152.8087  141.4967  159.3509 C   0  0  0  0  0  0  0  0  0  0  0  0
  152.3791  142.6959  159.9563 C   0  0  0  0  0  0  0  0  0  0  0  0
  152.9221  143.0843  161.1344 F   0  0  0  0  0  0  0  0  0  0  0  0
  151.3890  143.4916  159.3424 C   0  0  0  0  0  0  0  0  0  0  0  0
  150.9828  144.6417  159.9305 F   0  0  0  0  0  0  0  0  0  0  0  0
  150.8217  143.0933  158.1166 C   0  0  0  0  0  0  0  0  0  0  0  0
  151.2536  141.8961  157.5161 C   0  0  0  0  0  0  0  0  0  0  0  0
  148.9555  140.7174  152.6308 H   0  0  0  0  0  0  0  0  0  0  0  0
  150.3476  139.9950  153.9828 H   0  0  0  0  0  0  0  0  0  0  0  0
  149.1357  139.3800  156.3255 H   0  0  0  0  0  0  0  0  0  0  0  0
  147.6822  139.5752  155.3560 H   0  0  0  0  0  0  0  0  0  0  0  0
  150.9630  137.8962  154.0496 H   0  0  0  0  0  0  0  0  0  0  0  0
  150.8030  138.1936  155.7838 H   0  0  0  0  0  0  0  0  0  0  0  0
  148.3539  135.4289  154.5855 H   0  0  0  0  0  0  0  0  0  0  0  0
  149.4468  133.0495  155.4155 H   0  0  0  0  0  0  0  0  0  0  0  0
  151.9832  133.7324  156.2451 H   0  0  0  0  0  0  0  0  0  0  0  0
  150.3903  142.4084  154.7094 H   0  0  0  0  0  0  0  0  0  0  0  0
  149.0976  142.0846  155.8412 H   0  0  0  0  0  0  0  0  0  0  0  0
  151.6422  139.4167  155.5187 H   0  0  0  0  0  0  0  0  0  0  0  0
  153.5677  140.8961  159.8298 H   0  0  0  0  0  0  0  0  0  0  0  0
  150.0670  143.7025  157.6419 H   0  0  0  0  0  0  0  0  0  0  0  0
  1  2  1  0  0  0  0
  1 23  1  0  0  0  0
  2  3  1  0  0  0  0
  2 11  1  0  0  0  0
  2 24  1  0  0  0  0
  3  4  1  0  0  0  0
  3 25  1  0  0  0  0
  3 26  1  0  0  0  0
  4  5  1  0  0  0  0
  5  6  1  0  0  0  0
  5 27  1  0  0  0  0
  5 28  1  0  0  0  0
  6 10  1  0  0  0  0
  6  7  2  0  0  0  0
  7  8  1  0  0  0  0
  7 29  1  0  0  0  0
  8  9  2  0  0  0  0
  8 30  1  0  0  0  0
  9 10  1  0  0  0  0
  9 31  1  0  0  0  0
 11 12  1  0  0  0  0
 11 32  1  0  0  0  0
 11 33  1  0  0  0  0
 12 22  1  0  0  0  0
 12 13  1  0  0  0  0
 13 14  2  0  0  0  0
 13 34  1  0  0  0  0
 14 15  1  0  0  0  0
 15 22  2  0  0  0  0
 15 16  1  0  0  0  0
 16 17  2  0  0  0  0
 16 35  1  0  0  0  0
 17 18  1  0  0  0  0
 17 19  1  0  0  0  0
 19 20  1  0  0  0  0
 19 21  2  0  0  0  0
 21 22  1  0  0  0  0
 21 36  1  0  0  0  0
M  END
> <s_m_source_file>
AV-unprocessed.smi

> <i_m_source_file_index>
1880

> <i_lp_mmshare_version>
43012

> <i_f3d_flags>
0

> <s_epik_input>
W2NIXTFjKEYpYyhGKVtjSF1jKGMxMiluKFtjSF1uMilbQ0gyXVtDQEhdKFtPSF0pW0NIMl1PW0NIMl1jM1tjSF1bY0hdW2NIXW8z

> <s_epik_cmdline>
J2VwaWtfcHl0aG9uJywgJy1waCcsICc3LjAnLCAnLXRuJywgJzgnLCAnLW1hJywgJzIwMCcsICctbWV0YWxfYmluZGluZycsICctaW1hZScsICc8aW5maWxlLm1hZT4nLCAnLW9tYWUnLCAnPG91dGZpbGUubWFlPic=

> <r_epik_Ionization_Penalty>
0.0152348

> <r_epik_Ionization_Penalty_Charging>
0

> <r_epik_Ionization_Penalty_Neutral>
0.0152348

> <r_epik_State_Penalty>
0.0119607

> <r_epik_Charging_Adjusted_Penalty>
0.0119607

> <i_epik_Tot_Q>
0

> <i_epik_Tot_abs_Q>
0

> <r_epik_Metal_State_Penalty>
1.20821e-05

> <b_epik_Metal_Only>
0

> <s_lp_Force_Field>
OPLS_2005

> <r_lp_Energy>
7.92035

> <b_lp_Chiralities_Consistent>
1

> <s_lp_Variant>
AV-unprocessed.smi:1880-1

> <Gold.Version>
5.8.1

> <Gold.Id.Protein>
6NUR|6NUR_protein|mol2

> <Gold.PLP.Fitness>
50.8604

> <Gold.PLP.PLP>
-44.2016

> <Gold.PLP.part.hbond>
-3.9298

> <Gold.PLP.part.metal>
0.0000

> <Gold.PLP.part.buried>
-4.4920

> <Gold.PLP.part.nonpolar>
-34.8999

> <Gold.PLP.part.repulsive>
0.2174

> <Gold.PLP.ligand.clash>
0.0000

> <Gold.PLP.ligand.torsion>
1.2031

> <Gold.PLP.Chemscore.Hbond>
3.0000

> <Gold.PLP.Chemscore.CHOScore>
0.0000

> <Gold.PLP.Chemscore.Metal>
0.0000

> <Gold.Chemscore.Hbonds>
donor molecule, donor type, donor heavy atom, donor atom, acceptor molecule, acceptor atom, score
      L1  H     1    23       P1  7957  1.00
      P1  H  7997  8009       L1    14  1.00
      P1  H 10752 10765       L1    10  1.00

> <Gold.PLP.Chemscore.Internal.Correction>
0.0650

> <Gold.Rescore>
     Score         DG    S(hbond)    S(metal)    S(lipo)     H(rot)  DE(clash)    DE(int)     intcor
     16.65     -17.85       2.56        0.00      95.04       2.85       0.13       1.08       ----

> <Gold.Chemscore.Fitness>
16.6495

> <Gold.Chemscore.DG>
-17.8530

> <Gold.Chemscore.ZeroCoef>
-5.4800

> <Gold.Chemscore.Hbond>
2.5611

> <Gold.Chemscore.Metal>
0.0000

> <Gold.Chemscore.Lipo>
95.0380

> <Gold.Chemscore.Internal_Hbond>
0.0000

> <Gold.Chemscore.DEClash>
0.1252

> <Gold.Chemscore.DEInternal>
1.0782

> <Gold.Chemscore.Rot>
2.8518

> <Gold.Chemscore.Internal.Correction>
   9.000000E+99

> <Gold.Chemscore.Hbonds>
donor molecule, donor type, donor heavy atom, donor atom, acceptor molecule, acceptor atom, score
      L1  H     1    23       P1  7957  1.00
      P1  H  7997  8009       L1    14  0.26
      P1  H 10752 10765       L1    10  0.23

> <Gold.Chemscore.Hbond.Weighted>
-8.5541

> <Gold.Chemscore.Metal.Weighted>
-0.0000

> <Gold.Chemscore.Lipo.Weighted>
-11.1194

> <Gold.Chemscore.Internal_Hbond.Weighted>
0.0000

> <Gold.Chemscore.DEClash.Weighted>
0.1252

> <Gold.Chemscore.DEInternal.Weighted>
1.0782

> <Gold.Chemscore.Rot.Weighted>
7.3005

> <Gold.Chemscore.Internal.Correction.Weighted>
   9.000000E+99

> <Gold.Protein.RotatedTorsions>
[ 6907 6896 6895 6894 ] final    2.90 input  -60.11 | X-H torsion
[ 7974 7965 7964 7962 ] final   27.76 input  175.53 | X-H torsion
[ 8008 7997 7996 7995 ] final -169.48 input   59.86 | X-H torsion
[ 10167 10162 10161 10158 ] final   71.91 input  -65.29 | X-H torsion
[ 10718 10713 10712 10709 ] final -134.82 input   66.30 | X-H torsion
[ 10763 10752 10751 10750 ] final -179.70 input  -60.55 | X-H torsion
[ 11005 11000 10999 10996 ] final -165.59 input  -57.11 | X-H torsion

> <Gold.Protein.ActiveResidues>
 VAL166  LYS551  ARG553  GLY616  TRP617  ASP618  TYR619  PRO620  LYS621  CYS622 
 ASP623  PHE694  ASN695  SER759  ASP760  ASP761  ALA762  ILE779  LEU786  VAL792 
 PHE793  MET794  SER795  GLU796  ALA797  LYS798  CYS799  TRP800  GLU811  SER814 

> <Gold.Protein.RotatedAtoms>
  151.6164  135.1036  160.0092 H   0  0  0  0  0  0  0  0  0  0  0  0  # atno 6907 bound_to 6896
  152.4181  133.7067  159.6466 H   0  0  0  0  0  0  0  0  0  0  0  0  # atno 6908 bound_to 6896
  150.8069  133.8420  159.3223 H   0  0  0  0  0  0  0  0  0  0  0  0  # atno 6909 bound_to 6896
  146.1766  139.7147  142.8930 H   0  0  0  0  0  0  0  0  0  0  0  0  # atno 7974 bound_to 7965
  155.9055  140.1048  157.1318 H   0  0  0  0  0  0  0  0  0  0  0  0  # atno 8008 bound_to 7997
  154.4032  140.1284  156.4555 H   0  0  0  0  0  0  0  0  0  0  0  0  # atno 8009 bound_to 7997
  155.7372  140.3467  155.5089 H   0  0  0  0  0  0  0  0  0  0  0  0  # atno 8010 bound_to 7997
  140.0410  144.5389  150.7434 H   0  0  0  0  0  0  0  0  0  0  0  0  # atno 10167 bound_to 10162
  156.2595  130.7201  151.1130 H   0  0  0  0  0  0  0  0  0  0  0  0  # atno 10718 bound_to 10713
  154.5318  135.2800  155.1173 H   0  0  0  0  0  0  0  0  0  0  0  0  # atno 10763 bound_to 10752
  154.2691  135.6307  153.5307 H   0  0  0  0  0  0  0  0  0  0  0  0  # atno 10764 bound_to 10752
  152.9958  135.5624  154.5833 H   0  0  0  0  0  0  0  0  0  0  0  0  # atno 10765 bound_to 10752
  140.5740  134.5209  157.5167 H   0  0  0  0  0  0  0  0  0  0  0  0  # atno 11005 bound_to 11000
  145.4193  141.0405  143.2973 LP  0  0  0  0  0  0  0  0  0  0  0  0  # atno 17320 bound_to 7965
  144.8247  139.5731  143.6971 LP  0  0  0  0  0  0  0  0  0  0  0  0  # atno 17321 bound_to 7965
  140.7260  143.2637  151.4118 LP  0  0  0  0  0  0  0  0  0  0  0  0  # atno 17342 bound_to 10162
  139.6014  144.1288  152.2202 LP  0  0  0  0  0  0  0  0  0  0  0  0  # atno 17343 bound_to 10162
  157.7245  131.0659  150.5991 LP  0  0  0  0  0  0  0  0  0  0  0  0  # atno 17370 bound_to 10713
  156.6078  130.4372  149.5871 LP  0  0  0  0  0  0  0  0  0  0  0  0  # atno 17371 bound_to 10713
  139.9348  134.7895  156.0832 LP  0  0  0  0  0  0  0  0  0  0  0  0  # atno 17394 bound_to 11000
  141.1038  133.6667  156.2816 LP  0  0  0  0  0  0  0  0  0  0  0  0  # atno 17395 bound_to 11000

$$$$
