AV-unprocessed.smi:72|AV-procd|sdf|746|dock1
  -GOLD-   2262017 83D 1   1.00000     0.00000
 Structure written by MMmdl.
 29 30  0  0  0  0  0  0  0  0  1 V2000
  145.9991  134.7249  154.1411 N   0  0  0  0  0  0  0  0  0  0  0  0
  146.1894  136.0799  154.3125 C   0  0  0  0  0  0  0  0  0  0  0  0
  145.0516  136.8895  154.1900 N   0  0  0  0  0  0  0  0  0  0  0  0
  145.2288  138.1637  154.3420 C   0  0  0  0  0  0  0  0  0  0  0  0
  146.5418  138.7153  154.6240 N   0  0  0  0  0  0  0  0  0  0  0  0
  146.7442  140.2067  154.8019 C   0  0  1  0  0  0  0  0  0  0  0  0
  147.5675  140.4216  155.9100 O   0  0  0  0  0  0  0  0  0  0  0  0
  148.5113  141.4427  155.6095 C   0  0  1  0  0  0  0  0  0  0  0  0
  149.7234  141.3672  156.5546 C   0  0  0  0  0  0  0  0  0  0  0  0
  150.5474  142.5011  156.3870 O   0  0  0  0  0  0  0  0  0  0  0  0
  148.7826  141.2714  154.1075 C   0  0  1  0  0  0  0  0  0  0  0  0
  149.7572  140.2681  153.8746 O   0  0  0  0  0  0  0  0  0  0  0  0
  147.4046  140.8829  153.5798 C   0  0  1  0  0  0  0  0  0  0  0  0
  147.4561  140.1083  152.3941 O   0  0  0  0  0  0  0  0  0  0  0  0
  147.6503  137.8335  154.7515 C   0  0  0  0  0  0  0  0  0  0  0  0
  148.7684  138.2737  155.0188 O   0  0  0  0  0  0  0  0  0  0  0  0
  147.4058  136.4668  154.5705 N   0  0  0  0  0  0  0  0  0  0  0  0
  145.7648  140.6282  155.0315 H   0  0  0  0  0  0  0  0  0  0  0  0
  148.0007  142.3955  155.7627 H   0  0  0  0  0  0  0  0  0  0  0  0
  149.1382  142.1979  153.6552 H   0  0  0  0  0  0  0  0  0  0  0  0
  146.8356  141.7900  153.3722 H   0  0  0  0  0  0  0  0  0  0  0  0
  146.7438  134.0465  154.2065 H   0  0  0  0  0  0  0  0  0  0  0  0
  145.1009  134.3110  153.9382 H   0  0  0  0  0  0  0  0  0  0  0  0
  144.4194  138.8915  154.2713 H   0  0  0  0  0  0  0  0  0  0  0  0
  149.3826  141.3424  157.5899 H   0  0  0  0  0  0  0  0  0  0  0  0
  150.3058  140.4599  156.3927 H   0  0  0  0  0  0  0  0  0  0  0  0
  150.0026  143.2357  156.1485 H   0  0  0  0  0  0  0  0  0  0  0  0
  149.5620  139.8497  153.0498 H   0  0  0  0  0  0  0  0  0  0  0  0
  148.3149  140.2104  152.0127 H   0  0  0  0  0  0  0  0  0  0  0  0
  1  2  1  0  0  0  0
  1 22  1  0  0  0  0
  1 23  1  0  0  0  0
  2 17  2  0  0  0  0
  2  3  1  0  0  0  0
  3  4  2  0  0  0  0
  4  5  1  0  0  0  0
  4 24  1  0  0  0  0
  5  6  1  0  0  0  0
  5 15  1  0  0  0  0
  6 18  1  0  0  0  0
  6 13  1  0  0  0  0
  6  7  1  0  0  0  0
  7  8  1  0  0  0  0
  8 19  1  0  0  0  0
  8  9  1  0  0  0  0
  8 11  1  0  0  0  0
  9 10  1  0  0  0  0
  9 25  1  0  0  0  0
  9 26  1  0  0  0  0
 10 27  1  0  0  0  0
 11 20  1  0  0  0  0
 11 12  1  0  0  0  0
 11 13  1  0  0  0  0
 12 28  1  0  0  0  0
 13 21  1  0  0  0  0
 13 14  1  0  0  0  0
 14 29  1  0  0  0  0
 15 16  2  0  0  0  0
 15 17  1  0  0  0  0
M  END
> <s_m_source_file>
AV-unprocessed.smi

> <i_m_source_file_index>
72

> <i_lp_mmshare_version>
43012

> <i_f3d_flags>
0

> <s_epik_input>
W05IMl1jMW5bY0hdbihjKD1PKW4xKVtDQEBIXTJPW0NASF0oW0NIMl1bT0hdKVtDQEBIXShbT0hdKVtDQEhdMltPSF0=

> <s_epik_cmdline>
J2VwaWtfcHl0aG9uJywgJy1waCcsICc3LjAnLCAnLXRuJywgJzgnLCAnLW1hJywgJzIwMCcsICctbWV0YWxfYmluZGluZycsICctaW1hZScsICc8aW5maWxlLm1hZT4nLCAnLW9tYWUnLCAnPG91dGZpbGUubWFlPic=

> <r_lp_tautomer_probability>
4.77166e-05

> <r_epik_Ionization_Penalty>
1.3546

> <r_epik_Ionization_Penalty_Charging>
1.46833e-10

> <r_epik_Ionization_Penalty_Neutral>
1.3546

> <r_epik_State_Penalty>
3.51908

> <r_epik_Charging_Adjusted_Penalty>
3.51908

> <i_epik_Tot_Q>
0

> <i_epik_Tot_abs_Q>
0

> <r_epik_Metal_State_Penalty>
3.44088

> <b_epik_Metal_Only>
1

> <s_epik_Chemistry_Notes>
This compound contains an acetal/aminal-like group ( X-CH(R)-Y where X, Y are N, S, or O) that may be acid/base labile, releasing an aldehyde.

> <s_lp_Force_Field>
OPLS_2005

> <r_lp_Energy>
35.7585

> <b_lp_Chiralities_Consistent>
1

> <s_lp_Variant>
AV-unprocessed.smi:72-84

> <Gold.Version>
5.8.1

> <Gold.Id.Protein>
6NUR|6NUR_protein|mol2

> <Gold.PLP.Fitness>
29.9489

> <Gold.PLP.PLP>
-17.1780

> <Gold.PLP.part.hbond>
-3.7487

> <Gold.PLP.part.metal>
0.0000

> <Gold.PLP.part.buried>
-3.8750

> <Gold.PLP.part.nonpolar>
-10.3245

> <Gold.PLP.part.repulsive>
0.2874

> <Gold.PLP.ligand.clash>
0.0000

> <Gold.PLP.ligand.torsion>
0.4617

> <Gold.PLP.Chemscore.Hbond>
3.5640

> <Gold.PLP.Chemscore.CHOScore>
1.0000

> <Gold.PLP.Chemscore.Metal>
0.0000

> <Gold.Chemscore.Hbonds>
donor molecule, donor type, donor heavy atom, donor atom, acceptor molecule, acceptor atom, score
      L1  H    10    27       P1  8028  1.00
      L1  H    12    28       P1  7957  0.90
      L1  H    14    29       P1  7957  1.00
      P1  H  7989  7998       L1    12  0.63
      L1  C     4    24       P1 10175  1.00

> <Gold.PLP.Chemscore.Internal.Correction>
0.0023

> <Gold.Rescore>
     Score         DG    S(hbond)    S(metal)    S(lipo)     H(rot)  DE(clash)    DE(int)     intcor
      4.88      -8.89       3.16        0.00      27.69       4.06       0.14       3.88       ----

> <Gold.Chemscore.Fitness>
4.8813

> <Gold.Chemscore.DG>
-8.8949

> <Gold.Chemscore.ZeroCoef>
-5.4800

> <Gold.Chemscore.Hbond>
3.1642

> <Gold.Chemscore.Metal>
0.0000

> <Gold.Chemscore.Lipo>
27.6924

> <Gold.Chemscore.Internal_Hbond>
0.0000

> <Gold.Chemscore.DEClash>
0.1364

> <Gold.Chemscore.DEInternal>
3.8772

> <Gold.Chemscore.Rot>
4.0600

> <Gold.Chemscore.Internal.Correction>
   9.000000E+99

> <Gold.Chemscore.Hbonds>
donor molecule, donor type, donor heavy atom, donor atom, acceptor molecule, acceptor atom, score
      L1  H    10    27       P1  8028  1.00
      L1  H    12    28       P1  7957  0.88
      L1  H    14    29       P1  7957  0.94
      P1  H  7989  7998       L1    12  0.12

> <Gold.Chemscore.Hbond.Weighted>
-10.5685

> <Gold.Chemscore.Metal.Weighted>
-0.0000

> <Gold.Chemscore.Lipo.Weighted>
-3.2400

> <Gold.Chemscore.Internal_Hbond.Weighted>
0.0000

> <Gold.Chemscore.DEClash.Weighted>
0.1364

> <Gold.Chemscore.DEInternal.Weighted>
3.8772

> <Gold.Chemscore.Rot.Weighted>
10.3936

> <Gold.Chemscore.Internal.Correction.Weighted>
   9.000000E+99

> <Gold.Protein.RotatedTorsions>
[ 6907 6896 6895 6894 ] final -151.56 input  -60.11 | X-H torsion
[ 7974 7965 7964 7962 ] final  171.34 input  175.53 | X-H torsion
[ 8008 7997 7996 7995 ] final -153.84 input   59.86 | X-H torsion
[ 10167 10162 10161 10158 ] final   92.82 input  -65.29 | X-H torsion
[ 10718 10713 10712 10709 ] final -143.34 input   66.30 | X-H torsion
[ 10763 10752 10751 10750 ] final  -48.72 input  -60.55 | X-H torsion
[ 11005 11000 10999 10996 ] final -129.76 input  -57.11 | X-H torsion

> <Gold.Protein.ActiveResidues>
 VAL166  LYS551  ARG553  GLY616  TRP617  ASP618  TYR619  PRO620  LYS621  CYS622 
 ASP623  PHE694  ASN695  SER759  ASP760  ASP761  ALA762  ILE779  LEU786  VAL792 
 PHE793  MET794  SER795  GLU796  ALA797  LYS798  CYS799  TRP800  GLU811  SER814 

> <Gold.Protein.RotatedAtoms>
  151.2148  133.4535  159.2598 H   0  0  0  0  0  0  0  0  0  0  0  0  # atno 6907 bound_to 6896
  151.0941  134.9934  159.8427 H   0  0  0  0  0  0  0  0  0  0  0  0  # atno 6908 bound_to 6896
  152.5437  134.2080  159.8791 H   0  0  0  0  0  0  0  0  0  0  0  0  # atno 6909 bound_to 6896
  144.7298  139.9335  143.6425 H   0  0  0  0  0  0  0  0  0  0  0  0  # atno 7974 bound_to 7965
  155.6771  140.0740  157.2498 H   0  0  0  0  0  0  0  0  0  0  0  0  # atno 8008 bound_to 7997
  154.4112  140.1688  156.1994 H   0  0  0  0  0  0  0  0  0  0  0  0  # atno 8009 bound_to 7997
  155.9567  140.3373  155.6457 H   0  0  0  0  0  0  0  0  0  0  0  0  # atno 8010 bound_to 7997
  139.8240  144.6718  150.9483 H   0  0  0  0  0  0  0  0  0  0  0  0  # atno 10167 bound_to 10162
  156.3567  130.7717  151.1878 H   0  0  0  0  0  0  0  0  0  0  0  0  # atno 10718 bound_to 10713
  154.0824  135.6589  153.4840 H   0  0  0  0  0  0  0  0  0  0  0  0  # atno 10763 bound_to 10752
  153.0351  135.5183  154.7460 H   0  0  0  0  0  0  0  0  0  0  0  0  # atno 10764 bound_to 10752
  154.6559  135.3008  154.9896 H   0  0  0  0  0  0  0  0  0  0  0  0  # atno 10765 bound_to 10752
  140.9404  134.1201  157.4156 H   0  0  0  0  0  0  0  0  0  0  0  0  # atno 11005 bound_to 11000
  146.0839  139.3827  143.0447 LP  0  0  0  0  0  0  0  0  0  0  0  0  # atno 17320 bound_to 7965
  145.7803  140.9859  143.1103 LP  0  0  0  0  0  0  0  0  0  0  0  0  # atno 17321 bound_to 7965
  140.7811  143.4064  151.1064 LP  0  0  0  0  0  0  0  0  0  0  0  0  # atno 17342 bound_to 10162
  139.7723  143.8477  152.3123 LP  0  0  0  0  0  0  0  0  0  0  0  0  # atno 17343 bound_to 10162
  157.7468  131.0412  150.4634 LP  0  0  0  0  0  0  0  0  0  0  0  0  # atno 17370 bound_to 10713
  156.4838  130.4079  149.6446 LP  0  0  0  0  0  0  0  0  0  0  0  0  # atno 17371 bound_to 10713
  139.8819  135.0034  156.6188 LP  0  0  0  0  0  0  0  0  0  0  0  0  # atno 17394 bound_to 11000
  140.7742  133.8713  155.8516 LP  0  0  0  0  0  0  0  0  0  0  0  0  # atno 17395 bound_to 11000

$$$$
