AV-unprocessed.smi:1922|AV-procd|sdf|7787|dock3
  -GOLD-   22720 9533D 1   1.00000     0.00000
 Structure written by MMmdl.
 34 35  0  0  0  0  0  0  0  0  2 V2000
  151.5723  140.1049  155.1594 O   0  0  0  0  0  0  0  0  0  0  0  0
  151.1203  139.8737  156.2820 C   0  0  0  0  0  0  0  0  0  0  0  0
  150.8927  138.4333  156.7666 C   0  0  0  0  0  0  0  0  0  0  0  0
  151.0663  138.2527  158.2155 N   0  0  0  0  0  0  0  0  0  0  0  0
  152.3208  138.7932  158.7318 N   0  5  0  0  0  0  0  0  0  0  0  0
  152.5844  138.7004  160.0622 C   0  0  0  0  0  0  0  0  0  0  0  0
  153.6087  139.1491  160.5716 O   0  0  0  0  0  0  0  0  0  0  0  0
  151.6081  138.0345  160.9083 C   0  0  0  0  0  0  0  0  0  0  0  0
  150.4704  137.5210  160.4001 C   0  0  0  0  0  0  0  0  0  0  0  0
  150.1433  137.6038  158.9818 C   0  0  0  0  0  0  0  0  0  0  0  0
  149.1108  137.1271  158.5092 O   0  0  0  0  0  0  0  0  0  0  0  0
  150.7880  140.8381  157.1539 N   0  0  0  0  0  0  0  0  0  0  0  0
  150.9326  142.2729  156.9313 C   0  0  0  0  0  0  0  0  0  0  0  0
  150.8652  143.0629  158.2518 C   0  0  0  0  0  0  0  0  0  0  0  0
  151.5722  144.4183  158.1893 C   0  0  0  0  0  0  0  0  0  0  0  0
  151.7953  144.8146  159.6525 C   0  0  0  0  0  0  0  0  0  0  0  0
  151.8021  143.5047  160.4558 C   0  0  0  0  0  0  0  0  0  0  0  0
  151.5356  142.3799  159.4489 C   0  0  0  0  0  0  0  0  0  0  0  0
  149.8880  138.1138  156.4838 H   0  0  0  0  0  0  0  0  0  0  0  0
  151.5731  137.7825  156.2145 H   0  0  0  0  0  0  0  0  0  0  0  0
  151.8005  137.9470  161.9673 H   0  0  0  0  0  0  0  0  0  0  0  0
  149.7747  137.0327  161.0656 H   0  0  0  0  0  0  0  0  0  0  0  0
  150.4187  140.5524  158.0491 H   0  0  0  0  0  0  0  0  0  0  0  0
  151.8570  142.4957  156.3956 H   0  0  0  0  0  0  0  0  0  0  0  0
  150.1194  142.5879  156.2771 H   0  0  0  0  0  0  0  0  0  0  0  0
  149.8183  143.2415  158.5035 H   0  0  0  0  0  0  0  0  0  0  0  0
  152.5371  144.3107  157.6913 H   0  0  0  0  0  0  0  0  0  0  0  0
  150.9982  145.1643  157.6388 H   0  0  0  0  0  0  0  0  0  0  0  0
  152.7209  145.3773  159.7776 H   0  0  0  0  0  0  0  0  0  0  0  0
  150.9786  145.4509  159.9953 H   0  0  0  0  0  0  0  0  0  0  0  0
  152.7481  143.3516  160.9760 H   0  0  0  0  0  0  0  0  0  0  0  0
  151.0159  143.5302  161.2114 H   0  0  0  0  0  0  0  0  0  0  0  0
  150.9260  141.5803  159.8714 H   0  0  0  0  0  0  0  0  0  0  0  0
  152.4846  141.9395  159.1395 H   0  0  0  0  0  0  0  0  0  0  0  0
  1  2  2  0  0  0  0
  2  3  1  0  0  0  0
  2 12  1  0  0  0  0
  3 19  1  0  0  0  0
  3 20  1  0  0  0  0
  3  4  1  0  0  0  0
  4  5  1  0  0  0  0
  4 10  1  0  0  0  0
  5  6  1  0  0  0  0
  6  7  2  0  0  0  0
  6  8  1  0  0  0  0
  8 21  1  0  0  0  0
  8  9  2  0  0  0  0
  9 22  1  0  0  0  0
  9 10  1  0  0  0  0
 10 11  2  0  0  0  0
 12 13  1  0  0  0  0
 12 23  1  0  0  0  0
 13 14  1  0  0  0  0
 13 24  1  0  0  0  0
 13 25  1  0  0  0  0
 14 18  1  0  0  0  0
 14 15  1  0  0  0  0
 14 26  1  0  0  0  0
 15 16  1  0  0  0  0
 15 27  1  0  0  0  0
 15 28  1  0  0  0  0
 16 17  1  0  0  0  0
 16 29  1  0  0  0  0
 16 30  1  0  0  0  0
 17 18  1  0  0  0  0
 17 31  1  0  0  0  0
 17 32  1  0  0  0  0
 18 33  1  0  0  0  0
 18 34  1  0  0  0  0
M  CHG  1   5  -1
M  END
> <s_m_source_file>
AV-unprocessed.smi

> <i_m_source_file_index>
1922

> <i_lp_mmshare_version>
43012

> <i_f3d_flags>
0

> <s_epik_input>
W0NIMl0xW0NIMl1bQ0gyXVtDSDJdW0NIXTFbQ0gyXVtOSF1DKD1PKVtDSDJdbjJbbkhdYyg9TylbY0hdW2NIXWMyPU8=

> <s_epik_cmdline>
J2VwaWtfcHl0aG9uJywgJy1waCcsICc3LjAnLCAnLXRuJywgJzgnLCAnLW1hJywgJzIwMCcsICctbWV0YWxfYmluZGluZycsICctaW1hZScsICc8aW5maWxlLm1hZT4nLCAnLW9tYWUnLCAnPG91dGZpbGUubWFlPic=

> <r_lp_tautomer_probability>
1

> <r_epik_Ionization_Penalty>
0.0984168

> <r_epik_Ionization_Penalty_Charging>
0.0984168

> <r_epik_Ionization_Penalty_Neutral>
1.97085e-08

> <r_epik_State_Penalty>
0.0346886

> <r_epik_Charging_Adjusted_Penalty>
0.133105

> <i_epik_Tot_Q>
-1

> <i_epik_Tot_abs_Q>
1

> <r_epik_Metal_State_Penalty>
0.0346886

> <b_epik_Metal_Only>
0

> <s_lp_Force_Field>
OPLS_2005

> <r_lp_Energy>
36.8816

> <b_lp_Chiralities_Consistent>
1

> <s_lp_Variant>
AV-unprocessed.smi:1922-1

> <Gold.Version>
5.8.1

> <Gold.Id.Protein>
6NUR|6NUR_protein|mol2

> <Gold.PLP.Fitness>
46.5059

> <Gold.PLP.PLP>
-36.1610

> <Gold.PLP.part.hbond>
-4.0000

> <Gold.PLP.part.metal>
0.0000

> <Gold.PLP.part.buried>
-4.8723

> <Gold.PLP.part.nonpolar>
-27.7501

> <Gold.PLP.part.repulsive>
0.1395

> <Gold.PLP.ligand.clash>
0.0000

> <Gold.PLP.ligand.torsion>
0.8327

> <Gold.PLP.Chemscore.Hbond>
4.0000

> <Gold.PLP.Chemscore.CHOScore>
0.0000

> <Gold.PLP.Chemscore.Metal>
0.0000

> <Gold.Chemscore.Hbonds>
donor molecule, donor type, donor heavy atom, donor atom, acceptor molecule, acceptor atom, score
      P1  H  7989  7998       L1     1  1.00

> <Gold.PLP.Chemscore.Internal.Correction>
0.0102

> <Gold.Rescore>
     Score         DG    S(hbond)    S(metal)    S(lipo)     H(rot)  DE(clash)    DE(int)     intcor
     15.58     -16.50       1.76        0.00      86.46       1.94       0.08       0.85       ----

> <Gold.Chemscore.Fitness>
15.5755

> <Gold.Chemscore.DG>
-16.5047

> <Gold.Chemscore.ZeroCoef>
-5.4800

> <Gold.Chemscore.Hbond>
1.7592

> <Gold.Chemscore.Metal>
0.0000

> <Gold.Chemscore.Lipo>
86.4590

> <Gold.Chemscore.Internal_Hbond>
0.0000

> <Gold.Chemscore.DEClash>
0.0784

> <Gold.Chemscore.DEInternal>
0.8509

> <Gold.Chemscore.Rot>
1.9401

> <Gold.Chemscore.Internal.Correction>
   9.000000E+99

> <Gold.Chemscore.Hbonds>
donor molecule, donor type, donor heavy atom, donor atom, acceptor molecule, acceptor atom, score
      P1  H  7989  7998       L1     1  0.95

> <Gold.Chemscore.Hbond.Weighted>
-5.8757

> <Gold.Chemscore.Metal.Weighted>
-0.0000

> <Gold.Chemscore.Lipo.Weighted>
-10.1157

> <Gold.Chemscore.Internal_Hbond.Weighted>
0.0000

> <Gold.Chemscore.DEClash.Weighted>
0.0784

> <Gold.Chemscore.DEInternal.Weighted>
0.8509

> <Gold.Chemscore.Rot.Weighted>
4.9666

> <Gold.Chemscore.Internal.Correction.Weighted>
   9.000000E+99

> <Gold.Protein.RotatedTorsions>
[ 6907 6896 6895 6894 ] final   90.18 input  -60.11 | X-H torsion
[ 7974 7965 7964 7962 ] final   45.43 input  175.53 | X-H torsion
[ 8008 7997 7996 7995 ] final   50.84 input   59.86 | X-H torsion
[ 10167 10162 10161 10158 ] final  175.68 input  -65.29 | X-H torsion
[ 10718 10713 10712 10709 ] final   85.85 input   66.30 | X-H torsion
[ 10763 10752 10751 10750 ] final   38.76 input  -60.55 | X-H torsion
[ 11005 11000 10999 10996 ] final   84.61 input  -57.11 | X-H torsion

> <Gold.Protein.ActiveResidues>
 VAL166  LYS551  ARG553  GLY616  TRP617  ASP618  TYR619  PRO620  LYS621  CYS622 
 ASP623  PHE694  ASN695  SER759  ASP760  ASP761  ALA762  ILE779  LEU786  VAL792 
 PHE793  MET794  SER795  GLU796  ALA797  LYS798  CYS799  TRP800  GLU811  SER814 

> <Gold.Protein.RotatedAtoms>
  152.5442  134.1851  159.8650 H   0  0  0  0  0  0  0  0  0  0  0  0  # atno 6907 bound_to 6896
  151.1851  133.4694  159.2602 H   0  0  0  0  0  0  0  0  0  0  0  0  # atno 6908 bound_to 6896
  151.1140  135.0054  159.8562 H   0  0  0  0  0  0  0  0  0  0  0  0  # atno 6909 bound_to 6896
  146.0480  139.4965  142.9736 H   0  0  0  0  0  0  0  0  0  0  0  0  # atno 7974 bound_to 7965
  155.4254  140.3448  155.4275 H   0  0  0  0  0  0  0  0  0  0  0  0  # atno 8008 bound_to 7997
  156.1368  140.1530  156.9013 H   0  0  0  0  0  0  0  0  0  0  0  0  # atno 8009 bound_to 7997
  154.4938  140.0833  156.7633 H   0  0  0  0  0  0  0  0  0  0  0  0  # atno 8010 bound_to 7997
  139.5186  144.3003  152.0384 H   0  0  0  0  0  0  0  0  0  0  0  0  # atno 10167 bound_to 10162
  157.6920  131.0191  150.2884 H   0  0  0  0  0  0  0  0  0  0  0  0  # atno 10718 bound_to 10713
  152.9990  135.6240  154.2356 H   0  0  0  0  0  0  0  0  0  0  0  0  # atno 10763 bound_to 10752
  154.2097  135.2800  155.2964 H   0  0  0  0  0  0  0  0  0  0  0  0  # atno 10764 bound_to 10752
  154.5616  135.5703  153.7071 H   0  0  0  0  0  0  0  0  0  0  0  0  # atno 10765 bound_to 10752
  139.8995  134.8229  156.2469 H   0  0  0  0  0  0  0  0  0  0  0  0  # atno 11005 bound_to 11000
  145.6772  141.0201  143.1626 LP  0  0  0  0  0  0  0  0  0  0  0  0  # atno 17320 bound_to 7965
  144.7108  139.8379  143.7415 LP  0  0  0  0  0  0  0  0  0  0  0  0  # atno 17321 bound_to 7965
  140.2451  144.4228  150.6244 LP  0  0  0  0  0  0  0  0  0  0  0  0  # atno 17342 bound_to 10162
  140.6264  143.2182  151.6588 LP  0  0  0  0  0  0  0  0  0  0  0  0  # atno 17343 bound_to 10162
  156.3419  130.3817  149.7401 LP  0  0  0  0  0  0  0  0  0  0  0  0  # atno 17370 bound_to 10713
  156.4907  130.8084  151.3093 LP  0  0  0  0  0  0  0  0  0  0  0  0  # atno 17371 bound_to 10713
  141.0249  133.7021  156.1330 LP  0  0  0  0  0  0  0  0  0  0  0  0  # atno 17394 bound_to 11000
  140.7181  134.4388  157.5577 LP  0  0  0  0  0  0  0  0  0  0  0  0  # atno 17395 bound_to 11000

$$$$
