AV-unprocessed.smi:1465|AV-procd|sdf|5952|dock6
  -GOLD-   22720 6 33D 1   1.00000     0.00000
 Structure written by MMmdl.
 54 55  0  0  0  0  0  0  0  0  2 V2000
  151.6853  144.6253  160.5675 C   0  0  0  0  0  0  0  0  0  0  0  0
  151.4043  143.2442  160.4193 O   0  0  0  0  0  0  0  0  0  0  0  0
  152.4278  142.5557  159.7212 C   0  0  0  0  0  0  0  0  0  0  0  0
  152.0939  141.0567  159.6971 C   0  0  0  0  0  0  0  0  0  0  0  0
  151.6974  140.6204  158.3518 N   0  0  0  0  0  0  0  0  0  0  0  0
  150.4819  141.1254  157.8516 C   0  0  0  0  0  0  0  0  0  0  0  0
  150.0047  140.7878  156.6377 C   0  0  0  0  0  0  0  0  0  0  0  0
  148.7255  141.3387  156.1845 C   0  0  0  0  0  0  0  0  0  0  0  0
  147.9484  141.9766  156.8960 O   0  0  0  0  0  0  0  0  0  0  0  0
  148.4558  141.0848  154.8924 N   0  0  0  0  0  0  0  0  0  0  0  0
  147.2475  141.4914  154.1761 C   0  0  2  0  0  0  0  0  0  0  0  0
  145.9984  141.1980  155.0240 C   0  0  0  0  0  0  0  0  0  0  0  0
  145.7075  139.6892  155.1237 C   0  0  0  0  0  0  0  0  0  0  0  0
  145.5823  139.0739  153.7753 N   0  3  2  0  0  0  0  0  0  0  0  0
  145.1773  137.6443  153.8142 C   0  0  0  0  0  0  0  0  0  0  0  0
  144.6035  137.1362  152.4731 C   0  0  0  0  0  0  0  0  0  0  0  0
  143.5090  136.0872  152.7189 C   0  0  0  0  0  0  0  0  0  0  0  0
  145.7000  136.5635  151.5591 C   0  0  0  0  0  0  0  0  0  0  0  0
  146.8086  139.2867  152.9641 C   0  0  0  0  0  0  0  0  0  0  0  0
  147.1235  140.7854  152.8118 C   0  0  0  0  0  0  0  0  0  0  0  0
  150.8042  139.8700  155.8391 C   0  0  0  0  0  0  0  0  0  0  0  0
  151.9636  139.3773  156.3176 C   0  0  0  0  0  0  0  0  0  0  0  0
  152.4674  139.7394  157.6458 C   0  0  0  0  0  0  0  0  0  0  0  0
  153.5158  139.2760  158.0950 O   0  0  0  0  0  0  0  0  0  0  0  0
  150.8715  145.1091  161.1077 H   0  0  0  0  0  0  0  0  0  0  0  0
  151.7835  145.1143  159.5972 H   0  0  0  0  0  0  0  0  0  0  0  0
  152.6049  144.7824  161.1335 H   0  0  0  0  0  0  0  0  0  0  0  0
  152.5094  142.9425  158.7041 H   0  0  0  0  0  0  0  0  0  0  0  0
  153.3878  142.7180  160.2141 H   0  0  0  0  0  0  0  0  0  0  0  0
  152.9594  140.4846  160.0352 H   0  0  0  0  0  0  0  0  0  0  0  0
  151.3096  140.8378  160.4239 H   0  0  0  0  0  0  0  0  0  0  0  0
  149.9669  141.7925  158.5292 H   0  0  0  0  0  0  0  0  0  0  0  0
  149.1353  140.5494  154.3721 H   0  0  0  0  0  0  0  0  0  0  0  0
  147.2993  142.5694  154.0126 H   0  0  0  0  0  0  0  0  0  0  0  0
  146.1094  141.6253  156.0215 H   0  0  0  0  0  0  0  0  0  0  0  0
  145.1372  141.6962  154.5763 H   0  0  0  0  0  0  0  0  0  0  0  0
  146.4996  139.1874  155.6817 H   0  0  0  0  0  0  0  0  0  0  0  0
  144.7895  139.5501  155.6924 H   0  0  0  0  0  0  0  0  0  0  0  0
  146.0417  137.0280  154.0663 H   0  0  0  0  0  0  0  0  0  0  0  0
  144.4576  137.4985  154.6213 H   0  0  0  0  0  0  0  0  0  0  0  0
  144.1283  137.9640  151.9480 H   0  0  0  0  0  0  0  0  0  0  0  0
  143.9056  135.2111  153.2332 H   0  0  0  0  0  0  0  0  0  0  0  0
  143.0694  135.7499  151.7795 H   0  0  0  0  0  0  0  0  0  0  0  0
  142.7023  136.4946  153.3290 H   0  0  0  0  0  0  0  0  0  0  0  0
  146.2157  135.7276  152.0332 H   0  0  0  0  0  0  0  0  0  0  0  0
  146.4465  137.3171  151.3080 H   0  0  0  0  0  0  0  0  0  0  0  0
  145.2781  136.2023  150.6206 H   0  0  0  0  0  0  0  0  0  0  0  0
  147.6490  138.7656  153.4255 H   0  0  0  0  0  0  0  0  0  0  0  0
  146.6739  138.8526  151.9727 H   0  0  0  0  0  0  0  0  0  0  0  0
  146.3251  141.2581  152.2382 H   0  0  0  0  0  0  0  0  0  0  0  0
  148.0326  140.9185  152.2244 H   0  0  0  0  0  0  0  0  0  0  0  0
  150.4920  139.5645  154.8515 H   0  0  0  0  0  0  0  0  0  0  0  0
  152.5399  138.6974  155.7075 H   0  0  0  0  0  0  0  0  0  0  0  0
  144.8410  139.5639  153.2948 H   0  0  0  0  0  0  0  0  0  0  0  0
  1  2  1  0  0  0  0
  1 25  1  0  0  0  0
  1 26  1  0  0  0  0
  1 27  1  0  0  0  0
  2  3  1  0  0  0  0
  3  4  1  0  0  0  0
  3 28  1  0  0  0  0
  3 29  1  0  0  0  0
  4  5  1  0  0  0  0
  4 30  1  0  0  0  0
  4 31  1  0  0  0  0
  5 23  1  0  0  0  0
  5  6  1  0  0  0  0
  6  7  2  0  0  0  0
  6 32  1  0  0  0  0
  7  8  1  0  0  0  0
  7 21  1  0  0  0  0
  8  9  2  0  0  0  0
  8 10  1  0  0  0  0
 10 11  1  0  0  0  0
 10 33  1  0  0  0  0
 11 20  1  0  0  0  0
 11 12  1  0  0  0  0
 11 34  1  0  0  0  0
 12 13  1  0  0  0  0
 12 35  1  0  0  0  0
 12 36  1  0  0  0  0
 13 14  1  0  0  0  0
 13 37  1  0  0  0  0
 13 38  1  0  0  0  0
 14 15  1  0  0  0  0
 14 19  1  0  0  0  0
 14 54  1  0  0  0  0
 15 16  1  0  0  0  0
 15 39  1  0  0  0  0
 15 40  1  0  0  0  0
 16 17  1  0  0  0  0
 16 18  1  0  0  0  0
 16 41  1  0  0  0  0
 17 42  1  0  0  0  0
 17 43  1  0  0  0  0
 17 44  1  0  0  0  0
 18 45  1  0  0  0  0
 18 46  1  0  0  0  0
 18 47  1  0  0  0  0
 19 20  1  0  0  0  0
 19 48  1  0  0  0  0
 19 49  1  0  0  0  0
 20 50  1  0  0  0  0
 20 51  1  0  0  0  0
 21 22  2  0  0  0  0
 21 52  1  0  0  0  0
 22 23  1  0  0  0  0
 22 53  1  0  0  0  0
 23 24  2  0  0  0  0
M  CHG  1  14   1
M  END
> <s_m_source_file>
AV-unprocessed.smi

> <i_m_source_file_index>
1465

> <i_lp_mmshare_version>
43012

> <i_f3d_flags>
0

> <s_epik_input>
W0NIM11PW0NIMl1bQ0gyXW4xW2NIXWMoW2NIXVtjSF1jMT1PKUMoPU8pW05IXVtDSF0yW0NIMl1bQ0gyXU4oW0NIMl1bQ0gyXTIpW0NIMl1bQ0hdKFtDSDNdKVtDSDNd

> <s_epik_cmdline>
J2VwaWtfcHl0aG9uJywgJy1waCcsICc3LjAnLCAnLXRuJywgJzgnLCAnLW1hJywgJzIwMCcsICctbWV0YWxfYmluZGluZycsICctaW1hZScsICc8aW5maWxlLm1hZT4nLCAnLW9tYWUnLCAnPG91dGZpbGUubWFlPic=

> <r_lp_tautomer_probability>
1

> <r_epik_Ionization_Penalty>
0.00386091

> <r_epik_Ionization_Penalty_Charging>
0.0038603

> <r_epik_Ionization_Penalty_Neutral>
6.13806e-07

> <r_epik_State_Penalty>
0.00275716

> <r_epik_Charging_Adjusted_Penalty>
0.00661746

> <i_epik_Tot_Q>
1

> <i_epik_Tot_abs_Q>
1

> <r_epik_Metal_State_Penalty>
-0

> <b_epik_Metal_Only>
0

> <s_lp_Force_Field>
OPLS_2005

> <r_lp_Energy>
34.4783

> <b_lp_Chiralities_Consistent>
1

> <s_lp_Variant>
AV-unprocessed.smi:1465-2

> <Gold.Version>
5.8.1

> <Gold.Id.Protein>
6NUR|6NUR_protein|mol2

> <Gold.PLP.Fitness>
46.0033

> <Gold.PLP.PLP>
-39.0478

> <Gold.PLP.part.hbond>
-2.0549

> <Gold.PLP.part.metal>
0.0000

> <Gold.PLP.part.buried>
-3.8404

> <Gold.PLP.part.nonpolar>
-33.4464

> <Gold.PLP.part.repulsive>
0.9810

> <Gold.PLP.ligand.clash>
0.0000

> <Gold.PLP.ligand.torsion>
1.1123

> <Gold.PLP.Chemscore.Hbond>
3.0000

> <Gold.PLP.Chemscore.CHOScore>
0.0000

> <Gold.PLP.Chemscore.Metal>
0.0000

> <Gold.Chemscore.Hbonds>
donor molecule, donor type, donor heavy atom, donor atom, acceptor molecule, acceptor atom, score
      L1  H    14    54       P1 10175  2.00
      P1  H  7997  8009       L1    24  1.00

> <Gold.PLP.Chemscore.Internal.Correction>
0.1802

> <Gold.Rescore>
     Score         DG    S(hbond)    S(metal)    S(lipo)     H(rot)  DE(clash)    DE(int)     intcor
     16.21     -18.68       1.85        0.00      98.81       1.78       0.23       2.23       ----

> <Gold.Chemscore.Fitness>
16.2135

> <Gold.Chemscore.DG>
-18.6764

> <Gold.Chemscore.ZeroCoef>
-5.4800

> <Gold.Chemscore.Hbond>
1.8516

> <Gold.Chemscore.Metal>
0.0000

> <Gold.Chemscore.Lipo>
98.8132

> <Gold.Chemscore.Internal_Hbond>
0.0000

> <Gold.Chemscore.DEClash>
0.2325

> <Gold.Chemscore.DEInternal>
2.2303

> <Gold.Chemscore.Rot>
1.7769

> <Gold.Chemscore.Internal.Correction>
   9.000000E+99

> <Gold.Chemscore.Hbonds>
donor molecule, donor type, donor heavy atom, donor atom, acceptor molecule, acceptor atom, score
      L1  H    14    54       P1 10175  1.00
      P1  H  7997  8009       L1    24  0.50

> <Gold.Chemscore.Hbond.Weighted>
-6.1842

> <Gold.Chemscore.Metal.Weighted>
-0.0000

> <Gold.Chemscore.Lipo.Weighted>
-11.5611

> <Gold.Chemscore.Internal_Hbond.Weighted>
0.0000

> <Gold.Chemscore.DEClash.Weighted>
0.2325

> <Gold.Chemscore.DEInternal.Weighted>
2.2303

> <Gold.Chemscore.Rot.Weighted>
4.5490

> <Gold.Chemscore.Internal.Correction.Weighted>
   9.000000E+99

> <Gold.Protein.RotatedTorsions>
[ 6907 6896 6895 6894 ] final -139.74 input  -60.11 | X-H torsion
[ 7974 7965 7964 7962 ] final  -67.12 input  175.53 | X-H torsion
[ 8008 7997 7996 7995 ] final  140.23 input   59.86 | X-H torsion
[ 10167 10162 10161 10158 ] final  138.36 input  -65.29 | X-H torsion
[ 10718 10713 10712 10709 ] final   55.06 input   66.30 | X-H torsion
[ 10763 10752 10751 10750 ] final   61.61 input  -60.55 | X-H torsion
[ 11005 11000 10999 10996 ] final  145.86 input  -57.11 | X-H torsion

> <Gold.Protein.ActiveResidues>
 VAL166  LYS551  ARG553  GLY616  TRP617  ASP618  TYR619  PRO620  LYS621  CYS622 
 ASP623  PHE694  ASN695  SER759  ASP760  ASP761  ALA762  ILE779  LEU786  VAL792 
 PHE793  MET794  SER795  GLU796  ALA797  LYS798  CYS799  TRP800  GLU811  SER814 

> <Gold.Protein.RotatedAtoms>
  151.0517  133.5618  159.2641 H   0  0  0  0  0  0  0  0  0  0  0  0  # atno 6907 bound_to 6896
  151.2627  135.0658  159.9114 H   0  0  0  0  0  0  0  0  0  0  0  0  # atno 6908 bound_to 6896
  152.5383  134.0260  159.8057 H   0  0  0  0  0  0  0  0  0  0  0  0  # atno 6909 bound_to 6896
  145.7331  140.8988  143.0569 H   0  0  0  0  0  0  0  0  0  0  0  0  # atno 7974 bound_to 7965
  156.2981  140.2347  156.4367 H   0  0  0  0  0  0  0  0  0  0  0  0  # atno 8008 bound_to 7997
  154.8222  140.0437  157.1439 H   0  0  0  0  0  0  0  0  0  0  0  0  # atno 8009 bound_to 7997
  154.9302  140.3015  155.5175 H   0  0  0  0  0  0  0  0  0  0  0  0  # atno 8010 bound_to 7997
  139.5113  144.6358  151.5701 H   0  0  0  0  0  0  0  0  0  0  0  0  # atno 10167 bound_to 10162
  157.5312  130.8632  149.8690 H   0  0  0  0  0  0  0  0  0  0  0  0  # atno 10718 bound_to 10713
  152.9956  135.5494  154.6061 H   0  0  0  0  0  0  0  0  0  0  0  0  # atno 10763 bound_to 10752
  154.5392  135.2818  155.1113 H   0  0  0  0  0  0  0  0  0  0  0  0  # atno 10764 bound_to 10752
  154.2397  135.6418  153.5255 H   0  0  0  0  0  0  0  0  0  0  0  0  # atno 10765 bound_to 10752
  140.0746  134.9132  157.1402 H   0  0  0  0  0  0  0  0  0  0  0  0  # atno 11005 bound_to 11000
  144.6888  139.9359  143.7473 LP  0  0  0  0  0  0  0  0  0  0  0  0  # atno 17320 bound_to 7965
  146.0518  139.3519  143.0634 LP  0  0  0  0  0  0  0  0  0  0  0  0  # atno 17321 bound_to 7965
  140.6106  143.9443  150.6450 LP  0  0  0  0  0  0  0  0  0  0  0  0  # atno 17342 bound_to 10162
  140.2684  143.3473  152.1260 LP  0  0  0  0  0  0  0  0  0  0  0  0  # atno 17343 bound_to 10162
  156.0424  130.3736  150.1402 LP  0  0  0  0  0  0  0  0  0  0  0  0  # atno 17370 bound_to 10713
  156.9587  130.9798  151.3483 LP  0  0  0  0  0  0  0  0  0  0  0  0  # atno 17371 bound_to 10713
  140.3576  134.2529  155.7191 LP  0  0  0  0  0  0  0  0  0  0  0  0  # atno 17394 bound_to 11000
  141.2025  133.7937  157.0389 LP  0  0  0  0  0  0  0  0  0  0  0  0  # atno 17395 bound_to 11000

$$$$
