AV-unprocessed.smi:1870|AV-procd|sdf|7593|dock2
  -GOLD-   22720 9303D 1   1.00000     0.00000
 Structure written by MMmdl.
 48 50  0  0  0  0  0  0  0  0  2 V2000
  147.7430  136.3049  163.3160 C   0  0  0  0  0  0  0  0  0  0  0  0
  147.9273  135.9140  161.8744 C   0  0  0  0  0  0  0  0  0  0  0  0
  148.6577  136.6972  161.1504 N   0  0  0  0  0  0  0  0  0  0  0  0
  148.8966  136.4296  159.8164 N   0  0  0  0  0  0  0  0  0  0  0  0
  149.7335  137.4320  159.1453 C   0  0  0  0  0  0  0  0  0  0  0  0
  148.9512  138.1949  158.0532 C   0  0  2  0  0  0  0  0  0  0  0  0
  149.1244  137.5222  156.8208 O   0  0  0  0  0  0  0  0  0  0  0  0
  149.4914  139.6278  157.8652 C   0  0  0  0  0  0  0  0  0  0  0  0
  150.8762  139.6652  157.3176 N   0  3  1  0  0  0  0  0  0  0  0  0
  151.0848  140.5826  156.1676 C   0  0  0  0  0  0  0  0  0  0  0  0
  150.9156  142.0562  156.5759 C   0  0  0  0  0  0  0  0  0  0  0  0
  151.6392  142.3909  157.8703 C   0  0  0  0  0  0  0  0  0  0  0  0
  151.8348  143.7401  158.2303 C   0  0  0  0  0  0  0  0  0  0  0  0
  152.4659  144.0647  159.4462 C   0  0  0  0  0  0  0  0  0  0  0  0
  152.8993  143.0408  160.3095 C   0  0  0  0  0  0  0  0  0  0  0  0
  152.7053  141.6919  159.9556 C   0  0  0  0  0  0  0  0  0  0  0  0
  152.0770  141.3591  158.7375 C   0  0  0  0  0  0  0  0  0  0  0  0
  151.9101  139.8910  158.3596 C   0  0  0  0  0  0  0  0  0  0  0  0
  148.4022  135.3540  159.1400 C   0  0  0  0  0  0  0  0  0  0  0  0
  148.6299  135.1615  157.9450 O   0  0  0  0  0  0  0  0  0  0  0  0
  147.5762  134.4703  159.9656 C   0  0  0  0  0  0  0  0  0  0  0  0
  147.0443  133.3264  159.2977 C   0  0  0  0  0  0  0  0  0  0  0  0
  146.6233  132.3875  158.7677 N   0  0  0  0  0  0  0  0  0  0  0  0
  147.3321  134.7233  161.2758 C   0  0  0  0  0  0  0  0  0  0  0  0
  146.4787  133.8371  162.1729 C   0  0  0  0  0  0  0  0  0  0  0  0
  146.7195  136.6325  163.4982 H   0  0  0  0  0  0  0  0  0  0  0  0
  148.4083  137.1200  163.6039 H   0  0  0  0  0  0  0  0  0  0  0  0
  147.9524  135.4648  163.9781 H   0  0  0  0  0  0  0  0  0  0  0  0
  150.0740  138.1398  159.9037 H   0  0  0  0  0  0  0  0  0  0  0  0
  150.6517  136.9966  158.7456 H   0  0  0  0  0  0  0  0  0  0  0  0
  147.8933  138.2175  158.3131 H   0  0  0  0  0  0  0  0  0  0  0  0
  148.9658  138.1347  156.1175 H   0  0  0  0  0  0  0  0  0  0  0  0
  148.8232  140.2064  157.2275 H   0  0  0  0  0  0  0  0  0  0  0  0
  149.4783  140.1271  158.8355 H   0  0  0  0  0  0  0  0  0  0  0  0
  152.0998  140.4280  155.7988 H   0  0  0  0  0  0  0  0  0  0  0  0
  150.4296  140.3358  155.3332 H   0  0  0  0  0  0  0  0  0  0  0  0
  151.2845  142.7018  155.7782 H   0  0  0  0  0  0  0  0  0  0  0  0
  149.8595  142.2968  156.7002 H   0  0  0  0  0  0  0  0  0  0  0  0
  151.4956  144.5311  157.5770 H   0  0  0  0  0  0  0  0  0  0  0  0
  152.6143  145.0993  159.7185 H   0  0  0  0  0  0  0  0  0  0  0  0
  153.3834  143.2902  161.2424 H   0  0  0  0  0  0  0  0  0  0  0  0
  153.0479  140.9122  160.6203 H   0  0  0  0  0  0  0  0  0  0  0  0
  151.6989  139.2929  159.2471 H   0  0  0  0  0  0  0  0  0  0  0  0
  152.8676  139.5373  157.9753 H   0  0  0  0  0  0  0  0  0  0  0  0
  145.9477  133.0714  161.6084 H   0  0  0  0  0  0  0  0  0  0  0  0
  145.7282  134.4256  162.7013 H   0  0  0  0  0  0  0  0  0  0  0  0
  147.1030  133.3326  162.9108 H   0  0  0  0  0  0  0  0  0  0  0  0
  151.0411  138.7306  156.9710 H   0  0  0  0  0  0  0  0  0  0  0  0
  1  2  1  0  0  0  0
  1 26  1  0  0  0  0
  1 27  1  0  0  0  0
  1 28  1  0  0  0  0
  2 24  1  0  0  0  0
  2  3  2  0  0  0  0
  3  4  1  0  0  0  0
  4  5  1  0  0  0  0
  4 19  1  0  0  0  0
  5  6  1  0  0  0  0
  5 29  1  0  0  0  0
  5 30  1  0  0  0  0
  6  7  1  0  0  0  0
  6  8  1  0  0  0  0
  6 31  1  0  0  0  0
  7 32  1  0  0  0  0
  8  9  1  0  0  0  0
  8 33  1  0  0  0  0
  8 34  1  0  0  0  0
  9 18  1  0  0  0  0
  9 10  1  0  0  0  0
  9 48  1  0  0  0  0
 10 11  1  0  0  0  0
 10 35  1  0  0  0  0
 10 36  1  0  0  0  0
 11 12  1  0  0  0  0
 11 37  1  0  0  0  0
 11 38  1  0  0  0  0
 12 17  2  0  0  0  0
 12 13  1  0  0  0  0
 13 14  2  0  0  0  0
 13 39  1  0  0  0  0
 14 15  1  0  0  0  0
 14 40  1  0  0  0  0
 15 16  2  0  0  0  0
 15 41  1  0  0  0  0
 16 17  1  0  0  0  0
 16 42  1  0  0  0  0
 17 18  1  0  0  0  0
 18 43  1  0  0  0  0
 18 44  1  0  0  0  0
 19 20  2  0  0  0  0
 19 21  1  0  0  0  0
 21 22  1  0  0  0  0
 21 24  2  0  0  0  0
 22 23  3  0  0  0  0
 24 25  1  0  0  0  0
 25 45  1  0  0  0  0
 25 46  1  0  0  0  0
 25 47  1  0  0  0  0
M  CHG  1   9   1
M  END
> <s_m_source_file>
AV-unprocessed.smi

> <i_m_source_file_index>
1870

> <i_lp_mmshare_version>
43012

> <i_f3d_flags>
0

> <s_epik_input>
TiNDYyhjMVtDSDNdKWMoPU8pbihuYzFbQ0gzXSlbQ0gyXVtDQEhdKFtPSF0pW0NIMl1OKFtDSDJdW0NIMl0yKVtDSDJdYyhjMjMpW2NIXVtjSF1bY0hdW2NIXTM=

> <s_epik_cmdline>
J2VwaWtfcHl0aG9uJywgJy1waCcsICc3LjAnLCAnLXRuJywgJzgnLCAnLW1hJywgJzIwMCcsICctbWV0YWxfYmluZGluZycsICctaW1hZScsICc8aW5maWxlLm1hZT4nLCAnLW9tYWUnLCAnPG91dGZpbGUubWFlPic=

> <r_epik_Ionization_Penalty>
0.0122865

> <r_epik_Ionization_Penalty_Charging>
0.0122864

> <r_epik_Ionization_Penalty_Neutral>
1.48087e-07

> <r_epik_State_Penalty>
0.00950248

> <r_epik_Charging_Adjusted_Penalty>
0.0217889

> <i_epik_Tot_Q>
1

> <i_epik_Tot_abs_Q>
1

> <r_epik_Metal_State_Penalty>
0.00950248

> <b_epik_Metal_Only>
0

> <s_lp_Force_Field>
OPLS_2005

> <r_lp_Energy>
39.8007

> <b_lp_Chiralities_Consistent>
1

> <s_lp_Variant>
AV-unprocessed.smi:1870-1

> <Gold.Version>
5.8.1

> <Gold.Id.Protein>
6NUR|6NUR_protein|mol2

> <Gold.PLP.Fitness>
50.9587

> <Gold.PLP.PLP>
-50.0321

> <Gold.PLP.part.hbond>
-1.2382

> <Gold.PLP.part.metal>
0.0000

> <Gold.PLP.part.buried>
-5.7000

> <Gold.PLP.part.nonpolar>
-43.8497

> <Gold.PLP.part.repulsive>
0.0325

> <Gold.PLP.ligand.clash>
0.0000

> <Gold.PLP.ligand.torsion>
1.0614

> <Gold.PLP.Chemscore.Hbond>
1.0000

> <Gold.PLP.Chemscore.CHOScore>
0.0000

> <Gold.PLP.Chemscore.Metal>
0.0000

> <Gold.Chemscore.Hbonds>
donor molecule, donor type, donor heavy atom, donor atom, acceptor molecule, acceptor atom, score
      P1  H  6931  6943       L1     3  1.00

> <Gold.PLP.Chemscore.Internal.Correction>
0.0494

> <Gold.Rescore>
     Score         DG    S(hbond)    S(metal)    S(lipo)     H(rot)  DE(clash)    DE(int)     intcor
     15.64     -18.08       0.83        0.00     131.38       2.16       0.01       2.44       ----

> <Gold.Chemscore.Fitness>
15.6380

> <Gold.Chemscore.DG>
-18.0837

> <Gold.Chemscore.ZeroCoef>
-5.4800

> <Gold.Chemscore.Hbond>
0.8289

> <Gold.Chemscore.Metal>
0.0000

> <Gold.Chemscore.Lipo>
131.3832

> <Gold.Chemscore.Internal_Hbond>
0.0000

> <Gold.Chemscore.DEClash>
0.0067

> <Gold.Chemscore.DEInternal>
2.4390

> <Gold.Chemscore.Rot>
2.1628

> <Gold.Chemscore.Internal.Correction>
   9.000000E+99

> <Gold.Chemscore.Hbonds>
donor molecule, donor type, donor heavy atom, donor atom, acceptor molecule, acceptor atom, score
      P1  H  6931  6943       L1     3  0.89

> <Gold.Chemscore.Hbond.Weighted>
-2.7686

> <Gold.Chemscore.Metal.Weighted>
-0.0000

> <Gold.Chemscore.Lipo.Weighted>
-15.3718

> <Gold.Chemscore.Internal_Hbond.Weighted>
0.0000

> <Gold.Chemscore.DEClash.Weighted>
0.0067

> <Gold.Chemscore.DEInternal.Weighted>
2.4390

> <Gold.Chemscore.Rot.Weighted>
5.5367

> <Gold.Chemscore.Internal.Correction.Weighted>
   9.000000E+99

> <Gold.Protein.RotatedTorsions>
[ 6907 6896 6895 6894 ] final   38.13 input  -60.11 | X-H torsion
[ 7974 7965 7964 7962 ] final   25.88 input  175.53 | X-H torsion
[ 8008 7997 7996 7995 ] final  161.72 input   59.86 | X-H torsion
[ 10167 10162 10161 10158 ] final  113.60 input  -65.29 | X-H torsion
[ 10718 10713 10712 10709 ] final  -98.69 input   66.30 | X-H torsion
[ 10763 10752 10751 10750 ] final  -29.67 input  -60.55 | X-H torsion
[ 11005 11000 10999 10996 ] final  176.92 input  -57.11 | X-H torsion

> <Gold.Protein.ActiveResidues>
 VAL166  LYS551  ARG553  GLY616  TRP617  ASP618  TYR619  PRO620  LYS621  CYS622 
 ASP623  PHE694  ASN695  SER759  ASP760  ASP761  ALA762  ILE779  LEU786  VAL792 
 PHE793  MET794  SER795  GLU796  ALA797  LYS798  CYS799  TRP800  GLU811  SER814 

> <Gold.Protein.RotatedAtoms>
  152.1523  134.8978  160.0546 H   0  0  0  0  0  0  0  0  0  0  0  0  # atno 6907 bound_to 6896
  152.0005  133.3819  159.4188 H   0  0  0  0  0  0  0  0  0  0  0  0  # atno 6908 bound_to 6896
  150.6877  134.3761  159.5057 H   0  0  0  0  0  0  0  0  0  0  0  0  # atno 6909 bound_to 6896
  146.1866  139.7404  142.8862 H   0  0  0  0  0  0  0  0  0  0  0  0  # atno 7974 bound_to 7965
  156.2083  140.1769  156.7752 H   0  0  0  0  0  0  0  0  0  0  0  0  # atno 8008 bound_to 7997
  154.5686  140.0686  156.8959 H   0  0  0  0  0  0  0  0  0  0  0  0  # atno 8009 bound_to 7997
  155.2715  140.3343  155.4267 H   0  0  0  0  0  0  0  0  0  0  0  0  # atno 8010 bound_to 7997
  139.6449  144.7126  151.2162 H   0  0  0  0  0  0  0  0  0  0  0  0  # atno 10167 bound_to 10162
  156.0114  130.5249  150.6560 H   0  0  0  0  0  0  0  0  0  0  0  0  # atno 10718 bound_to 10713
  153.7684  135.6914  153.4911 H   0  0  0  0  0  0  0  0  0  0  0  0  # atno 10763 bound_to 10752
  153.1891  135.4478  155.0125 H   0  0  0  0  0  0  0  0  0  0  0  0  # atno 10764 bound_to 10752
  154.8127  135.3385  154.7195 H   0  0  0  0  0  0  0  0  0  0  0  0  # atno 10765 bound_to 10752
  140.3784  134.6968  157.4436 H   0  0  0  0  0  0  0  0  0  0  0  0  # atno 11005 bound_to 11000
  145.3920  141.0373  143.3118 LP  0  0  0  0  0  0  0  0  0  0  0  0  # atno 17320 bound_to 7965
  144.8408  139.5474  143.6901 LP  0  0  0  0  0  0  0  0  0  0  0  0  # atno 17321 bound_to 7965
  140.7510  143.6247  150.8479 LP  0  0  0  0  0  0  0  0  0  0  0  0  # atno 17342 bound_to 10162
  139.9889  143.5869  152.2917 LP  0  0  0  0  0  0  0  0  0  0  0  0  # atno 17343 bound_to 10162
  157.4312  131.0849  151.1036 LP  0  0  0  0  0  0  0  0  0  0  0  0  # atno 17370 bound_to 10713
  157.1609  130.6225  149.5610 LP  0  0  0  0  0  0  0  0  0  0  0  0  # atno 17371 bound_to 10713
  140.0497  134.6148  155.8877 LP  0  0  0  0  0  0  0  0  0  0  0  0  # atno 17394 bound_to 11000
  141.1931  133.6578  156.5534 LP  0  0  0  0  0  0  0  0  0  0  0  0  # atno 17395 bound_to 11000

$$$$
