AV-unprocessed.smi:1000|AV-procd|sdf|4356|dock10
  -GOLD-   22720 2253D 1   1.00000     0.00000
 Structure written by MMmdl.
 40 41  0  0  0  0  0  0  0  0  1 V2000
  149.5664  141.3698  154.3143 C   0  0  0  0  0  0  0  0  0  0  0  0
  150.2439  141.1767  156.0303 S   0  0  1  0  0  0  0  0  0  0  0  0
  149.1917  140.4235  156.8469 O   0  0  0  0  0  0  0  0  0  0  0  0
  151.4654  139.8974  155.5703 C   0  0  0  0  0  0  0  0  0  0  0  0
  151.8887  139.6867  154.3205 N   0  0  0  0  0  0  0  0  0  0  0  0
  152.7933  138.6464  154.4212 N   0  0  0  0  0  0  0  0  0  0  0  0
  152.8181  138.3432  155.7206 C   0  0  0  0  0  0  0  0  0  0  0  0
  152.0141  139.0879  156.4959 N   0  0  0  0  0  0  0  0  0  0  0  0
  151.8093  139.0135  157.9314 C   0  0  0  0  0  0  0  0  0  0  0  0
  153.0365  139.5226  158.6867 C   0  0  0  0  0  0  0  0  0  0  0  0
  154.1566  139.1188  158.3765 O   0  0  0  0  0  0  0  0  0  0  0  0
  152.8091  140.4050  159.6725 N   0  0  0  0  0  0  0  0  0  0  0  0
  153.8283  141.0124  160.5240 C   0  0  0  0  0  0  0  0  0  0  0  0
  153.2937  142.2495  161.2706 C   0  0  0  0  0  0  0  0  0  0  0  0
  152.7277  143.3203  160.3511 C   0  0  0  0  0  0  0  0  0  0  0  0
  153.0511  143.3812  159.0445 C   0  0  0  0  0  0  0  0  0  0  0  0
  152.4835  144.4002  158.0729 C   0  0  0  0  0  0  0  0  0  0  0  0
  151.2489  145.1204  158.6398 C   0  0  0  0  0  0  0  0  0  0  0  0
  151.4731  145.5317  160.1002 C   0  0  0  0  0  0  0  0  0  0  0  0
  151.7573  144.3083  160.9898 C   0  0  0  0  0  0  0  0  0  0  0  0
  150.3103  141.1041  153.5631 H   0  0  0  0  0  0  0  0  0  0  0  0
  149.2663  142.4042  154.1471 H   0  0  0  0  0  0  0  0  0  0  0  0
  148.6936  140.7306  154.1799 H   0  0  0  0  0  0  0  0  0  0  0  0
  153.4405  137.5545  156.1170 H   0  0  0  0  0  0  0  0  0  0  0  0
  150.9314  139.6039  158.1972 H   0  0  0  0  0  0  0  0  0  0  0  0
  151.5951  137.9815  158.2118 H   0  0  0  0  0  0  0  0  0  0  0  0
  151.8528  140.6758  159.8507 H   0  0  0  0  0  0  0  0  0  0  0  0
  154.2485  140.2843  161.2193 H   0  0  0  0  0  0  0  0  0  0  0  0
  154.6516  141.3162  159.8773 H   0  0  0  0  0  0  0  0  0  0  0  0
  152.5096  141.9479  161.9657 H   0  0  0  0  0  0  0  0  0  0  0  0
  154.0899  142.6749  161.8832 H   0  0  0  0  0  0  0  0  0  0  0  0
  153.7524  142.6712  158.6313 H   0  0  0  0  0  0  0  0  0  0  0  0
  153.2686  145.1202  157.8401 H   0  0  0  0  0  0  0  0  0  0  0  0
  152.2233  143.9001  157.1397 H   0  0  0  0  0  0  0  0  0  0  0  0
  151.0123  145.9930  158.0301 H   0  0  0  0  0  0  0  0  0  0  0  0
  150.3830  144.4591  158.5839 H   0  0  0  0  0  0  0  0  0  0  0  0
  152.3158  146.2225  160.1512 H   0  0  0  0  0  0  0  0  0  0  0  0
  150.6066  146.0739  160.4796 H   0  0  0  0  0  0  0  0  0  0  0  0
  150.8246  143.7859  161.2015 H   0  0  0  0  0  0  0  0  0  0  0  0
  152.1543  144.6422  161.9490 H   0  0  0  0  0  0  0  0  0  0  0  0
  1  2  1  0  0  0  0
  1 21  1  0  0  0  0
  1 22  1  0  0  0  0
  1 23  1  0  0  0  0
  2  3  2  0  0  0  0
  2  4  1  0  0  0  0
  4  8  1  0  0  0  0
  4  5  2  0  0  0  0
  5  6  1  0  0  0  0
  6  7  2  0  0  0  0
  7  8  1  0  0  0  0
  7 24  1  0  0  0  0
  8  9  1  0  0  0  0
  9 10  1  0  0  0  0
  9 25  1  0  0  0  0
  9 26  1  0  0  0  0
 10 11  2  0  0  0  0
 10 12  1  0  0  0  0
 12 13  1  0  0  0  0
 12 27  1  0  0  0  0
 13 14  1  0  0  0  0
 13 28  1  0  0  0  0
 13 29  1  0  0  0  0
 14 15  1  0  0  0  0
 14 30  1  0  0  0  0
 14 31  1  0  0  0  0
 15 20  1  0  0  0  0
 15 16  2  0  0  0  0
 16 17  1  0  0  0  0
 16 32  1  0  0  0  0
 17 18  1  0  0  0  0
 17 33  1  0  0  0  0
 17 34  1  0  0  0  0
 18 19  1  0  0  0  0
 18 35  1  0  0  0  0
 18 36  1  0  0  0  0
 19 20  1  0  0  0  0
 19 37  1  0  0  0  0
 19 38  1  0  0  0  0
 20 39  1  0  0  0  0
 20 40  1  0  0  0  0
M  END
> <s_m_source_file>
AV-unprocessed.smi

> <i_m_source_file_index>
1000

> <i_lp_mmshare_version>
43012

> <i_f3d_flags>
0

> <s_epik_input>
W0NIM11bU0BdKD1PKWMxbm5bY0hdbjFbQ0gyXUMoPU8pW05IXVtDSDJdW0NIMl1DMj1bQ0hdW0NIMl1bQ0gyXVtDSDJdW0NIMl0y

> <s_epik_cmdline>
J2VwaWtfcHl0aG9uJywgJy1waCcsICc3LjAnLCAnLXRuJywgJzgnLCAnLW1hJywgJzIwMCcsICctbWV0YWxfYmluZGluZycsICctaW1hZScsICc8aW5maWxlLm1hZT4nLCAnLW9tYWUnLCAnPG91dGZpbGUubWFlPic=

> <r_lp_tautomer_probability>
1

> <r_epik_Ionization_Penalty>
9.22166e-08

> <r_epik_Ionization_Penalty_Charging>
0

> <r_epik_Ionization_Penalty_Neutral>
9.22166e-08

> <r_epik_State_Penalty>
-0

> <r_epik_Charging_Adjusted_Penalty>
0

> <i_epik_Tot_Q>
0

> <i_epik_Tot_abs_Q>
0

> <r_epik_Metal_State_Penalty>
-0

> <b_epik_Metal_Only>
0

> <s_lp_Force_Field>
OPLS_2005

> <r_lp_Energy>
7.40605

> <b_lp_Chiralities_Consistent>
1

> <s_lp_Variant>
AV-unprocessed.smi:1000-2

> <Gold.Version>
5.8.1

> <Gold.Id.Protein>
6NUR|6NUR_protein|mol2

> <Gold.PLP.Fitness>
53.7178

> <Gold.PLP.PLP>
-48.9977

> <Gold.PLP.part.hbond>
-1.9938

> <Gold.PLP.part.metal>
0.0000

> <Gold.PLP.part.buried>
-4.2224

> <Gold.PLP.part.nonpolar>
-42.5210

> <Gold.PLP.part.repulsive>
0.3315

> <Gold.PLP.ligand.clash>
0.0000

> <Gold.PLP.ligand.torsion>
1.1798

> <Gold.PLP.Chemscore.Hbond>
2.0000

> <Gold.PLP.Chemscore.CHOScore>
0.0000

> <Gold.PLP.Chemscore.Metal>
0.0000

> <Gold.Chemscore.Hbonds>
donor molecule, donor type, donor heavy atom, donor atom, acceptor molecule, acceptor atom, score
      P1  H  7989  7998       L1     5  0.72
      P1  H  7997  8010       L1    11  1.00

> <Gold.PLP.Chemscore.Internal.Correction>
1.0797

> <Gold.Rescore>
     Score         DG    S(hbond)    S(metal)    S(lipo)     H(rot)  DE(clash)    DE(int)     intcor
     17.96     -19.24       1.91        0.00     112.59       2.26       0.03       1.25       ----

> <Gold.Chemscore.Fitness>
17.9648

> <Gold.Chemscore.DG>
-19.2408

> <Gold.Chemscore.ZeroCoef>
-5.4800

> <Gold.Chemscore.Hbond>
1.9112

> <Gold.Chemscore.Metal>
0.0000

> <Gold.Chemscore.Lipo>
112.5902

> <Gold.Chemscore.Internal_Hbond>
0.0000

> <Gold.Chemscore.DEClash>
0.0300

> <Gold.Chemscore.DEInternal>
1.2460

> <Gold.Chemscore.Rot>
2.2640

> <Gold.Chemscore.Internal.Correction>
   9.000000E+99

> <Gold.Chemscore.Hbonds>
donor molecule, donor type, donor heavy atom, donor atom, acceptor molecule, acceptor atom, score
      P1  H  7989  7998       L1     5  0.55
      P1  H  7997  8010       L1    11  0.90

> <Gold.Chemscore.Hbond.Weighted>
-6.3834

> <Gold.Chemscore.Metal.Weighted>
-0.0000

> <Gold.Chemscore.Lipo.Weighted>
-13.1731

> <Gold.Chemscore.Internal_Hbond.Weighted>
0.0000

> <Gold.Chemscore.DEClash.Weighted>
0.0300

> <Gold.Chemscore.DEInternal.Weighted>
1.2460

> <Gold.Chemscore.Rot.Weighted>
5.7957

> <Gold.Chemscore.Internal.Correction.Weighted>
   9.000000E+99

> <Gold.Protein.RotatedTorsions>
[ 6907 6896 6895 6894 ] final   72.92 input  -60.11 | X-H torsion
[ 7974 7965 7964 7962 ] final  130.88 input  175.53 | X-H torsion
[ 8008 7997 7996 7995 ] final   12.33 input   59.86 | X-H torsion
[ 10167 10162 10161 10158 ] final -173.62 input  -65.29 | X-H torsion
[ 10718 10713 10712 10709 ] final  161.28 input   66.30 | X-H torsion
[ 10763 10752 10751 10750 ] final  146.86 input  -60.55 | X-H torsion
[ 11005 11000 10999 10996 ] final -112.23 input  -57.11 | X-H torsion

> <Gold.Protein.ActiveResidues>
 VAL166  LYS551  ARG553  GLY616  TRP617  ASP618  TYR619  PRO620  LYS621  CYS622 
 ASP623  PHE694  ASN695  SER759  ASP760  ASP761  ALA762  ILE779  LEU786  VAL792 
 PHE793  MET794  SER795  GLU796  ALA797  LYS798  CYS799  TRP800  GLU811  SER814 

> <Gold.Protein.RotatedAtoms>
  152.4895  134.4499  159.9570 H   0  0  0  0  0  0  0  0  0  0  0  0  # atno 6907 bound_to 6896
  151.4488  133.3617  159.2800 H   0  0  0  0  0  0  0  0  0  0  0  0  # atno 6908 bound_to 6896
  150.9036  134.8473  159.7437 H   0  0  0  0  0  0  0  0  0  0  0  0  # atno 6909 bound_to 6896
  145.0132  139.4200  143.5234 H   0  0  0  0  0  0  0  0  0  0  0  0  # atno 7974 bound_to 7965
  154.8191  140.2881  155.5799 H   0  0  0  0  0  0  0  0  0  0  0  0  # atno 8008 bound_to 7997
  156.2996  140.2553  156.3025 H   0  0  0  0  0  0  0  0  0  0  0  0  # atno 8009 bound_to 7997
  154.9359  140.0382  157.2061 H   0  0  0  0  0  0  0  0  0  0  0  0  # atno 8010 bound_to 7997
  139.5678  144.1714  152.1339 H   0  0  0  0  0  0  0  0  0  0  0  0  # atno 10167 bound_to 10162
  157.1387  131.0535  151.2337 H   0  0  0  0  0  0  0  0  0  0  0  0  # atno 10718 bound_to 10713
  154.0288  135.2899  155.3371 H   0  0  0  0  0  0  0  0  0  0  0  0  # atno 10763 bound_to 10752
  154.7001  135.5192  153.8517 H   0  0  0  0  0  0  0  0  0  0  0  0  # atno 10764 bound_to 10752
  153.0649  135.6627  154.0502 H   0  0  0  0  0  0  0  0  0  0  0  0  # atno 10765 bound_to 10752
  141.0687  133.9415  157.2527 H   0  0  0  0  0  0  0  0  0  0  0  0  # atno 11005 bound_to 11000
  146.3473  139.9588  142.8720 LP  0  0  0  0  0  0  0  0  0  0  0  0  # atno 17320 bound_to 7965
  145.1995  140.9848  143.4164 LP  0  0  0  0  0  0  0  0  0  0  0  0  # atno 17321 bound_to 7965
  140.1240  144.5348  150.6844 LP  0  0  0  0  0  0  0  0  0  0  0  0  # atno 17342 bound_to 10162
  140.6962  143.2405  151.4994 LP  0  0  0  0  0  0  0  0  0  0  0  0  # atno 17343 bound_to 10162
  157.4327  130.7499  149.7003 LP  0  0  0  0  0  0  0  0  0  0  0  0  # atno 17370 bound_to 10713
  155.9793  130.4042  150.3597 LP  0  0  0  0  0  0  0  0  0  0  0  0  # atno 17371 bound_to 10713
  139.9502  135.0177  156.8971 LP  0  0  0  0  0  0  0  0  0  0  0  0  # atno 17394 bound_to 11000
  140.5718  134.0436  155.7433 LP  0  0  0  0  0  0  0  0  0  0  0  0  # atno 17395 bound_to 11000

$$$$
