AV-unprocessed.smi:1252|AV-procd|sdf|5267|dock7
  -GOLD-   22720 4383D 1   1.00000     0.00000
 Structure written by MMmdl.
 44 45  0  0  0  0  0  0  0  0  2 V2000
  145.0834  136.1116  150.7192 C   0  0  0  0  0  0  0  0  0  0  0  0
  145.8009  134.9074  151.3622 C   0  0  1  0  0  0  0  0  0  0  0  0
  145.8824  135.0238  152.8918 C   0  0  0  0  0  0  0  0  0  0  0  0
  144.8687  134.9205  153.5834 O   0  0  0  0  0  0  0  0  0  0  0  0
  147.1026  135.2435  153.4079 N   0  0  0  0  0  0  0  0  0  0  0  0
  147.4159  135.3742  154.8304 C   0  0  0  0  0  0  0  0  0  0  0  0
  148.9446  135.4509  155.1280 C   0  0  0  0  0  0  0  0  0  0  0  0
  149.1839  135.3531  156.6558 C   0  0  0  0  0  0  0  0  0  0  0  0
  149.6826  134.2414  154.5010 C   0  0  0  0  0  0  0  0  0  0  0  0
  149.5436  136.7282  154.5961 N   0  3  0  0  0  0  0  0  0  0  0  0
  148.8025  137.9789  154.9267 C   0  0  0  0  0  0  0  0  0  0  0  0
  149.4009  139.1778  154.1726 C   0  0  0  0  0  0  0  0  0  0  0  0
  150.7764  139.3098  154.5010 O   0  0  0  0  0  0  0  0  0  0  0  0
  151.5200  138.1638  154.1122 C   0  0  0  0  0  0  0  0  0  0  0  0
  150.9970  136.9265  154.8613 C   0  0  0  0  0  0  0  0  0  0  0  0
  145.1938  133.6364  150.9873 N   0  0  0  0  0  0  0  0  0  0  0  0
  145.7328  132.4171  150.9177 C   0  0  0  0  0  0  0  0  0  0  0  0
  144.8728  131.4657  150.5826 N   0  0  0  0  0  0  0  0  0  0  0  0
  143.7379  132.2165  150.4623 C   0  0  0  0  0  0  0  0  0  0  0  0
  143.8719  133.5202  150.7050 N   0  0  0  0  0  0  0  0  0  0  0  0
  145.5931  137.0453  150.9590 H   0  0  0  0  0  0  0  0  0  0  0  0
  144.0503  136.2038  151.0569 H   0  0  0  0  0  0  0  0  0  0  0  0
  145.0670  136.0187  149.6330 H   0  0  0  0  0  0  0  0  0  0  0  0
  146.8216  134.8990  150.9757 H   0  0  0  0  0  0  0  0  0  0  0  0
  147.8786  135.3143  152.7657 H   0  0  0  0  0  0  0  0  0  0  0  0
  146.8918  136.2383  155.2397 H   0  0  0  0  0  0  0  0  0  0  0  0
  146.9773  134.5048  155.3187 H   0  0  0  0  0  0  0  0  0  0  0  0
  148.9480  134.3595  157.0386 H   0  0  0  0  0  0  0  0  0  0  0  0
  148.5610  136.0482  157.2186 H   0  0  0  0  0  0  0  0  0  0  0  0
  150.2257  135.5530  156.9093 H   0  0  0  0  0  0  0  0  0  0  0  0
  149.4377  133.3084  155.0096 H   0  0  0  0  0  0  0  0  0  0  0  0
  150.7650  134.3604  154.5620 H   0  0  0  0  0  0  0  0  0  0  0  0
  149.4193  134.0923  153.4541 H   0  0  0  0  0  0  0  0  0  0  0  0
  147.7511  137.9071  154.6556 H   0  0  0  0  0  0  0  0  0  0  0  0
  148.8466  138.1736  155.9982 H   0  0  0  0  0  0  0  0  0  0  0  0
  149.2785  139.0619  153.0944 H   0  0  0  0  0  0  0  0  0  0  0  0
  148.8826  140.0947  154.4546 H   0  0  0  0  0  0  0  0  0  0  0  0
  151.4568  138.0217  153.0322 H   0  0  0  0  0  0  0  0  0  0  0  0
  152.5710  138.3301  154.3496 H   0  0  0  0  0  0  0  0  0  0  0  0
  151.1730  137.0507  155.9301 H   0  0  0  0  0  0  0  0  0  0  0  0
  151.5857  136.0714  154.5350 H   0  0  0  0  0  0  0  0  0  0  0  0
  146.7757  132.2209  151.1193 H   0  0  0  0  0  0  0  0  0  0  0  0
  142.7832  131.7888  150.1933 H   0  0  0  0  0  0  0  0  0  0  0  0
  149.4721  136.6396  153.5925 H   0  0  0  0  0  0  0  0  0  0  0  0
  1  2  1  0  0  0  0
  1 21  1  0  0  0  0
  1 22  1  0  0  0  0
  1 23  1  0  0  0  0
  2  3  1  0  0  0  0
  2 16  1  0  0  0  0
  2 24  1  0  0  0  0
  3  4  2  0  0  0  0
  3  5  1  0  0  0  0
  5  6  1  0  0  0  0
  5 25  1  0  0  0  0
  6  7  1  0  0  0  0
  6 26  1  0  0  0  0
  6 27  1  0  0  0  0
  7  8  1  0  0  0  0
  7  9  1  0  0  0  0
  7 10  1  0  0  0  0
  8 28  1  0  0  0  0
  8 29  1  0  0  0  0
  8 30  1  0  0  0  0
  9 31  1  0  0  0  0
  9 32  1  0  0  0  0
  9 33  1  0  0  0  0
 10 15  1  0  0  0  0
 10 11  1  0  0  0  0
 10 44  1  0  0  0  0
 11 12  1  0  0  0  0
 11 34  1  0  0  0  0
 11 35  1  0  0  0  0
 12 13  1  0  0  0  0
 12 36  1  0  0  0  0
 12 37  1  0  0  0  0
 13 14  1  0  0  0  0
 14 15  1  0  0  0  0
 14 38  1  0  0  0  0
 14 39  1  0  0  0  0
 15 40  1  0  0  0  0
 15 41  1  0  0  0  0
 16 20  1  0  0  0  0
 16 17  1  0  0  0  0
 17 18  2  0  0  0  0
 17 42  1  0  0  0  0
 18 19  1  0  0  0  0
 19 20  2  0  0  0  0
 19 43  1  0  0  0  0
M  CHG  1  10   1
M  END
> <s_m_source_file>
AV-unprocessed.smi

> <i_m_source_file_index>
1252

> <i_lp_mmshare_version>
43012

> <i_f3d_flags>
0

> <s_epik_input>
bjFbY0hdbltjSF1uMVtDQEhdKFtDSDNdKUMoPU8pW05IXVtDSDJdQyhbQ0gzXSkoW0NIM10pTjJbQ0gyXVtDSDJdT1tDSDJdW0NIMl0y

> <s_epik_cmdline>
J2VwaWtfcHl0aG9uJywgJy1waCcsICc3LjAnLCAnLXRuJywgJzgnLCAnLW1hJywgJzIwMCcsICctbWV0YWxfYmluZGluZycsICctaW1hZScsICc8aW5maWxlLm1hZT4nLCAnLW9tYWUnLCAnPG91dGZpbGUubWFlPic=

> <r_lp_tautomer_probability>
1

> <r_epik_Ionization_Penalty>
0.71326

> <r_epik_Ionization_Penalty_Charging>
0.713252

> <r_epik_Ionization_Penalty_Neutral>
8.22342e-06

> <r_epik_State_Penalty>
0.737017

> <r_epik_Charging_Adjusted_Penalty>
1.45027

> <i_epik_Tot_Q>
1

> <i_epik_Tot_abs_Q>
1

> <r_epik_Metal_State_Penalty>
0.73702

> <b_epik_Metal_Only>
0

> <s_lp_Force_Field>
OPLS_2005

> <r_lp_Energy>
31.3962

> <b_lp_Chiralities_Consistent>
1

> <s_lp_Variant>
AV-unprocessed.smi:1252-4

> <Gold.Version>
5.8.1

> <Gold.Id.Protein>
6NUR|6NUR_protein|mol2

> <Gold.PLP.Fitness>
45.9159

> <Gold.PLP.PLP>
-29.7414

> <Gold.PLP.part.hbond>
-3.0000

> <Gold.PLP.part.metal>
0.0000

> <Gold.PLP.part.buried>
-4.8160

> <Gold.PLP.part.nonpolar>
-22.8976

> <Gold.PLP.part.repulsive>
0.5216

> <Gold.PLP.ligand.clash>
0.0000

> <Gold.PLP.ligand.torsion>
0.9678

> <Gold.PLP.Chemscore.Hbond>
3.9760

> <Gold.PLP.Chemscore.CHOScore>
1.9848

> <Gold.PLP.Chemscore.Metal>
0.0000

> <Gold.Chemscore.Hbonds>
donor molecule, donor type, donor heavy atom, donor atom, acceptor molecule, acceptor atom, score
      L1  H     5    25       P1  7948  1.00
      L1  H    10    44       P1  7948  2.00
      P1  H  7989  7998       L1    13  0.98
      L1  C    17    42       P1 10747  0.52
      L1  C    19    43       P1 10952  1.00

> <Gold.PLP.Chemscore.Internal.Correction>
0.2277

> <Gold.Rescore>
     Score         DG    S(hbond)    S(metal)    S(lipo)     H(rot)  DE(clash)    DE(int)     intcor
     12.08     -13.07       2.48        0.00      50.57       2.59       0.20       0.78       ----

> <Gold.Chemscore.Fitness>
12.0840

> <Gold.Chemscore.DG>
-13.0656

> <Gold.Chemscore.ZeroCoef>
-5.4800

> <Gold.Chemscore.Hbond>
2.4820

> <Gold.Chemscore.Metal>
0.0000

> <Gold.Chemscore.Lipo>
50.5704

> <Gold.Chemscore.Internal_Hbond>
0.0000

> <Gold.Chemscore.DEClash>
0.2006

> <Gold.Chemscore.DEInternal>
0.7810

> <Gold.Chemscore.Rot>
2.5864

> <Gold.Chemscore.Internal.Correction>
   9.000000E+99

> <Gold.Chemscore.Hbonds>
donor molecule, donor type, donor heavy atom, donor atom, acceptor molecule, acceptor atom, score
      L1  H     5    25       P1  7948  0.96
      L1  H    10    44       P1  7948  0.82
      P1  H  7989  7998       L1    13  0.36

> <Gold.Chemscore.Hbond.Weighted>
-8.2900

> <Gold.Chemscore.Metal.Weighted>
-0.0000

> <Gold.Chemscore.Lipo.Weighted>
-5.9167

> <Gold.Chemscore.Internal_Hbond.Weighted>
0.0000

> <Gold.Chemscore.DEClash.Weighted>
0.2006

> <Gold.Chemscore.DEInternal.Weighted>
0.7810

> <Gold.Chemscore.Rot.Weighted>
6.6211

> <Gold.Chemscore.Internal.Correction.Weighted>
   9.000000E+99

> <Gold.Protein.RotatedTorsions>
[ 6907 6896 6895 6894 ] final  -49.99 input  -60.11 | X-H torsion
[ 7974 7965 7964 7962 ] final  -62.42 input  175.53 | X-H torsion
[ 8008 7997 7996 7995 ] final  -83.39 input   59.86 | X-H torsion
[ 10167 10162 10161 10158 ] final -128.09 input  -65.29 | X-H torsion
[ 10718 10713 10712 10709 ] final   -2.81 input   66.30 | X-H torsion
[ 10763 10752 10751 10750 ] final  171.74 input  -60.55 | X-H torsion
[ 11005 11000 10999 10996 ] final  137.54 input  -57.11 | X-H torsion

> <Gold.Protein.ActiveResidues>
 VAL166  LYS551  ARG553  GLY616  TRP617  ASP618  TYR619  PRO620  LYS621  CYS622 
 ASP623  PHE694  ASN695  SER759  ASP760  ASP761  ALA762  ILE779  LEU786  VAL792 
 PHE793  MET794  SER795  GLU796  ALA797  LYS798  CYS799  TRP800  GLU811  SER814 

> <Gold.Protein.RotatedAtoms>
  150.8750  134.8131  159.7182 H   0  0  0  0  0  0  0  0  0  0  0  0  # atno 6907 bound_to 6896
  152.4740  134.4886  159.9698 H   0  0  0  0  0  0  0  0  0  0  0  0  # atno 6908 bound_to 6896
  151.4969  133.3474  159.2898 H   0  0  0  0  0  0  0  0  0  0  0  0  # atno 6909 bound_to 6896
  145.7915  140.8707  143.0278 H   0  0  0  0  0  0  0  0  0  0  0  0  # atno 7974 bound_to 7965
  154.6186  140.0619  156.9586 H   0  0  0  0  0  0  0  0  0  0  0  0  # atno 8008 bound_to 7997
  155.1854  140.3302  155.4349 H   0  0  0  0  0  0  0  0  0  0  0  0  # atno 8009 bound_to 7997
  156.2419  140.1890  156.6948 H   0  0  0  0  0  0  0  0  0  0  0  0  # atno 8010 bound_to 7997
  139.9540  143.6024  152.2466 H   0  0  0  0  0  0  0  0  0  0  0  0  # atno 10167 bound_to 10162
  156.7854  130.5344  149.5744 H   0  0  0  0  0  0  0  0  0  0  0  0  # atno 10718 bound_to 10713
  154.4162  135.2757  155.2005 H   0  0  0  0  0  0  0  0  0  0  0  0  # atno 10763 bound_to 10752
  154.3970  135.6053  153.5879 H   0  0  0  0  0  0  0  0  0  0  0  0  # atno 10764 bound_to 10752
  152.9832  135.5917  154.4451 H   0  0  0  0  0  0  0  0  0  0  0  0  # atno 10765 bound_to 10752
  140.0121  134.9434  157.0299 H   0  0  0  0  0  0  0  0  0  0  0  0  # atno 11005 bound_to 11000
  144.6781  140.0130  143.7484 LP  0  0  0  0  0  0  0  0  0  0  0  0  # atno 17320 bound_to 7965
  145.9972  139.3062  143.0949 LP  0  0  0  0  0  0  0  0  0  0  0  0  # atno 17321 bound_to 7965
  139.6606  144.7662  151.1970 LP  0  0  0  0  0  0  0  0  0  0  0  0  # atno 17342 bound_to 10162
  140.7574  143.6016  150.8694 LP  0  0  0  0  0  0  0  0  0  0  0  0  # atno 17343 bound_to 10162
  156.1192  130.6097  151.0168 LP  0  0  0  0  0  0  0  0  0  0  0  0  # atno 17370 bound_to 10713
  157.6626  131.0878  150.7802 LP  0  0  0  0  0  0  0  0  0  0  0  0  # atno 17371 bound_to 10713
  140.4536  134.1557  155.7184 LP  0  0  0  0  0  0  0  0  0  0  0  0  # atno 17394 bound_to 11000
  141.1718  133.8593  157.1547 LP  0  0  0  0  0  0  0  0  0  0  0  0  # atno 17395 bound_to 11000

$$$$
