AV-unprocessed.smi:2802|AV-procd|sdf|10806|dock5
  -GOLD-   2272015243D 1   1.00000     0.00000
 Structure written by MMmdl.
 47 48  0  0  0  0  0  0  0  0  1 V2000
  142.5320  135.9328  154.1676 C   0  0  0  0  0  0  0  0  0  0  0  0
  143.8564  135.7537  153.4114 C   0  0  1  0  0  0  0  0  0  0  0  0
  143.7152  134.7136  152.2848 C   0  0  0  0  0  0  0  0  0  0  0  0
  145.0199  134.4906  151.4855 C   0  0  0  0  0  0  0  0  0  0  0  0
  146.0365  133.6780  152.3166 C   0  0  0  0  0  0  0  0  0  0  0  0
  144.6912  133.6523  150.2332 C   0  0  0  0  0  0  0  0  0  0  0  0
  145.5987  135.8563  151.0169 C   0  0  0  0  0  0  0  0  0  0  0  0
  145.7068  136.9888  152.0867 C   0  0  2  0  0  0  0  0  0  0  0  0
  145.9840  138.3802  151.4420 C   0  0  0  0  0  0  0  0  0  0  0  0
  147.2941  138.5198  150.9289 O   0  0  0  0  0  0  0  0  0  0  0  0
  146.7242  136.7282  153.1155 N   0  0  0  0  0  0  0  0  0  0  0  0
  146.9849  137.4127  154.2443 C   0  0  0  0  0  0  0  0  0  0  0  0
  146.3810  138.4243  154.5964 O   0  0  0  0  0  0  0  0  0  0  0  0
  148.1175  136.8657  155.1151 C   0  0  0  0  0  0  0  0  0  0  0  0
  149.1842  137.9255  155.3248 C   0  0  0  0  0  0  0  0  0  0  0  0
  149.6297  138.2613  156.6204 C   0  0  0  0  0  0  0  0  0  0  0  0
  150.6414  139.2304  156.7596 C   0  0  0  0  0  0  0  0  0  0  0  0
  151.1640  139.8263  155.5945 C   0  0  0  0  0  0  0  0  0  0  0  0
  150.7429  139.5159  154.3497 N   0  0  0  0  0  0  0  0  0  0  0  0
  149.7718  138.5860  154.2243 C   0  0  0  0  0  0  0  0  0  0  0  0
  144.3516  137.0924  152.8317 C   0  0  0  0  0  0  0  0  0  0  0  0
  141.7430  136.2952  153.5077 H   0  0  0  0  0  0  0  0  0  0  0  0
  142.6391  136.6487  154.9829 H   0  0  0  0  0  0  0  0  0  0  0  0
  142.1969  134.9898  154.6006 H   0  0  0  0  0  0  0  0  0  0  0  0
  144.5845  135.3944  154.1382 H   0  0  0  0  0  0  0  0  0  0  0  0
  143.3679  133.7653  152.6974 H   0  0  0  0  0  0  0  0  0  0  0  0
  142.9294  135.0469  151.6049 H   0  0  0  0  0  0  0  0  0  0  0  0
  146.9878  133.5773  151.7930 H   0  0  0  0  0  0  0  0  0  0  0  0
  145.6678  132.6719  152.5181 H   0  0  0  0  0  0  0  0  0  0  0  0
  146.2420  134.1286  153.2835 H   0  0  0  0  0  0  0  0  0  0  0  0
  145.5840  133.4668  149.6348 H   0  0  0  0  0  0  0  0  0  0  0  0
  143.9669  134.1546  149.5907 H   0  0  0  0  0  0  0  0  0  0  0  0
  144.2686  132.6833  150.5008 H   0  0  0  0  0  0  0  0  0  0  0  0
  146.5588  135.6899  150.5283 H   0  0  0  0  0  0  0  0  0  0  0  0
  144.9477  136.2337  150.2264 H   0  0  0  0  0  0  0  0  0  0  0  0
  145.3201  138.5427  150.5924 H   0  0  0  0  0  0  0  0  0  0  0  0
  145.7794  139.1903  152.1436 H   0  0  0  0  0  0  0  0  0  0  0  0
  147.6673  139.3189  151.2675 H   0  0  0  0  0  0  0  0  0  0  0  0
  147.3050  135.9205  152.9447 H   0  0  0  0  0  0  0  0  0  0  0  0
  147.7234  136.5476  156.0814 H   0  0  0  0  0  0  0  0  0  0  0  0
  148.5503  135.9829  154.6429 H   0  0  0  0  0  0  0  0  0  0  0  0
  149.2136  137.7777  157.4920 H   0  0  0  0  0  0  0  0  0  0  0  0
  151.0109  139.5084  157.7355 H   0  0  0  0  0  0  0  0  0  0  0  0
  151.9424  140.5717  155.6647 H   0  0  0  0  0  0  0  0  0  0  0  0
  149.4640  138.3529  153.2156 H   0  0  0  0  0  0  0  0  0  0  0  0
  143.5873  137.4670  152.1486 H   0  0  0  0  0  0  0  0  0  0  0  0
  144.4245  137.8337  153.6293 H   0  0  0  0  0  0  0  0  0  0  0  0
  1  2  1  0  0  0  0
  1 22  1  0  0  0  0
  1 23  1  0  0  0  0
  1 24  1  0  0  0  0
  2 21  1  0  0  0  0
  2  3  1  0  0  0  0
  2 25  1  0  0  0  0
  3  4  1  0  0  0  0
  3 26  1  0  0  0  0
  3 27  1  0  0  0  0
  4  5  1  0  0  0  0
  4  6  1  0  0  0  0
  4  7  1  0  0  0  0
  5 28  1  0  0  0  0
  5 29  1  0  0  0  0
  5 30  1  0  0  0  0
  6 31  1  0  0  0  0
  6 32  1  0  0  0  0
  6 33  1  0  0  0  0
  7  8  1  0  0  0  0
  7 34  1  0  0  0  0
  7 35  1  0  0  0  0
  8  9  1  0  0  0  0
  8 11  1  0  0  0  0
  8 21  1  0  0  0  0
  9 10  1  0  0  0  0
  9 36  1  0  0  0  0
  9 37  1  0  0  0  0
 10 38  1  0  0  0  0
 11 12  1  0  0  0  0
 11 39  1  0  0  0  0
 12 13  2  0  0  0  0
 12 14  1  0  0  0  0
 14 15  1  0  0  0  0
 14 40  1  0  0  0  0
 14 41  1  0  0  0  0
 15 20  1  0  0  0  0
 15 16  2  0  0  0  0
 16 17  1  0  0  0  0
 16 42  1  0  0  0  0
 17 18  2  0  0  0  0
 17 43  1  0  0  0  0
 18 19  1  0  0  0  0
 18 44  1  0  0  0  0
 19 20  2  0  0  0  0
 20 45  1  0  0  0  0
 21 46  1  0  0  0  0
 21 47  1  0  0  0  0
M  END
> <s_m_source_file>
AV-unprocessed.smi

> <i_m_source_file_index>
2802

> <i_lp_mmshare_version>
43012

> <i_f3d_flags>
0

> <s_epik_input>
W0NIM11DMShbQ0gzXSlbQ0gyXVtDQEBIXShbQ0gzXSlbQ0gyXVtDQF0oW0NIMl0xKShbQ0gyXVtPSF0pW05IXUMoPU8pW0NIMl1jMltjSF1bY0hdW2NIXW5bY0hdMg==

> <s_epik_cmdline>
J2VwaWtfcHl0aG9uJywgJy1waCcsICc3LjAnLCAnLXRuJywgJzgnLCAnLW1hJywgJzIwMCcsICctbWV0YWxfYmluZGluZycsICctaW1hZScsICc8aW5maWxlLm1hZT4nLCAnLW9tYWUnLCAnPG91dGZpbGUubWFlPic=

> <r_epik_Ionization_Penalty>
0.004793

> <r_epik_Ionization_Penalty_Charging>
0

> <r_epik_Ionization_Penalty_Neutral>
0.004793

> <r_epik_State_Penalty>
0.00347421

> <r_epik_Charging_Adjusted_Penalty>
0.00347421

> <i_epik_Tot_Q>
0

> <i_epik_Tot_abs_Q>
0

> <r_epik_Metal_State_Penalty>
-0

> <b_epik_Metal_Only>
0

> <s_lp_Force_Field>
OPLS_2005

> <r_lp_Energy>
17.3779

> <b_lp_Chiralities_Consistent>
1

> <s_lp_Variant>
AV-unprocessed.smi:2802-4

> <Gold.Version>
5.8.1

> <Gold.Id.Protein>
6NUR|6NUR_protein|mol2

> <Gold.PLP.Fitness>
41.3261

> <Gold.PLP.PLP>
-28.6004

> <Gold.PLP.part.hbond>
-4.7572

> <Gold.PLP.part.metal>
0.0000

> <Gold.PLP.part.buried>
2.2083

> <Gold.PLP.part.nonpolar>
-25.9137

> <Gold.PLP.part.repulsive>
0.2326

> <Gold.PLP.ligand.clash>
0.0000

> <Gold.PLP.ligand.torsion>
0.1800

> <Gold.PLP.Chemscore.Hbond>
2.7816

> <Gold.PLP.Chemscore.CHOScore>
1.5650

> <Gold.PLP.Chemscore.Metal>
0.0000

> <Gold.Chemscore.Hbonds>
donor molecule, donor type, donor heavy atom, donor atom, acceptor molecule, acceptor atom, score
      L1  H    10    38       P1  7957  0.58
      L1  H    11    39       P1  7948  0.34
      P1  H  7954  7966       L1    10  0.90
      P1  H  7989  7998       L1    19  0.85
      L1  C    20    45       P1  7948  1.00
      L1  C    20    45       P1  7957  0.64

> <Gold.PLP.Chemscore.Internal.Correction>
0.0459

> <Gold.Rescore>
     Score         DG    S(hbond)    S(metal)    S(lipo)     H(rot)  DE(clash)    DE(int)     intcor
     14.88     -17.71       2.69        0.00      71.49       2.00       1.53       1.30       ----

> <Gold.Chemscore.Fitness>
14.8812

> <Gold.Chemscore.DG>
-17.7149

> <Gold.Chemscore.ZeroCoef>
-5.4800

> <Gold.Chemscore.Hbond>
2.6939

> <Gold.Chemscore.Metal>
0.0000

> <Gold.Chemscore.Lipo>
71.4855

> <Gold.Chemscore.Internal_Hbond>
0.0000

> <Gold.Chemscore.DEClash>
1.5319

> <Gold.Chemscore.DEInternal>
1.3017

> <Gold.Chemscore.Rot>
2.0026

> <Gold.Chemscore.Internal.Correction>
   9.000000E+99

> <Gold.Chemscore.Hbonds>
donor molecule, donor type, donor heavy atom, donor atom, acceptor molecule, acceptor atom, score
      L1  H    10    38       P1  7957  0.47
      L1  H    11    39       P1  7948  0.33
      P1  H  7954  7966       L1    10  0.68
      P1  H  7989  7998       L1    19  0.15

> <Gold.Chemscore.Hbond.Weighted>
-8.9977

> <Gold.Chemscore.Metal.Weighted>
-0.0000

> <Gold.Chemscore.Lipo.Weighted>
-8.3638

> <Gold.Chemscore.Internal_Hbond.Weighted>
0.0000

> <Gold.Chemscore.DEClash.Weighted>
1.5319

> <Gold.Chemscore.DEInternal.Weighted>
1.3017

> <Gold.Chemscore.Rot.Weighted>
5.1267

> <Gold.Chemscore.Internal.Correction.Weighted>
   9.000000E+99

> <Gold.Protein.RotatedTorsions>
[ 6907 6896 6895 6894 ] final   60.47 input  -60.11 | X-H torsion
[ 7974 7965 7964 7962 ] final  145.70 input  175.53 | X-H torsion
[ 8008 7997 7996 7995 ] final -102.75 input   59.86 | X-H torsion
[ 10167 10162 10161 10158 ] final  115.33 input  -65.29 | X-H torsion
[ 10718 10713 10712 10709 ] final  108.40 input   66.30 | X-H torsion
[ 10763 10752 10751 10750 ] final  147.80 input  -60.55 | X-H torsion
[ 11005 11000 10999 10996 ] final  -81.02 input  -57.11 | X-H torsion

> <Gold.Protein.ActiveResidues>
 VAL166  LYS551  ARG553  GLY616  TRP617  ASP618  TYR619  PRO620  LYS621  CYS622 
 ASP623  PHE694  ASN695  SER759  ASP760  ASP761  ALA762  ILE779  LEU786  VAL792 
 PHE793  MET794  SER795  GLU796  ALA797  LYS798  CYS799  TRP800  GLU811  SER814 

> <Gold.Protein.RotatedAtoms>
  152.4005  134.6293  160.0071 H   0  0  0  0  0  0  0  0  0  0  0  0  # atno 6907 bound_to 6896
  151.6500  133.3316  159.3157 H   0  0  0  0  0  0  0  0  0  0  0  0  # atno 6908 bound_to 6896
  150.7906  134.6970  159.6573 H   0  0  0  0  0  0  0  0  0  0  0  0  # atno 6909 bound_to 6896
  144.8731  139.5815  143.5878 H   0  0  0  0  0  0  0  0  0  0  0  0  # atno 7974 bound_to 7965
  154.8611  140.0426  157.1666 H   0  0  0  0  0  0  0  0  0  0  0  0  # atno 8008 bound_to 7997
  154.8839  140.2976  155.5389 H   0  0  0  0  0  0  0  0  0  0  0  0  # atno 8009 bound_to 7997
  156.2998  140.2406  156.3845 H   0  0  0  0  0  0  0  0  0  0  0  0  # atno 8010 bound_to 7997
  139.6325  144.7116  151.2403 H   0  0  0  0  0  0  0  0  0  0  0  0  # atno 10167 bound_to 10162
  157.6588  131.0893  150.6300 H   0  0  0  0  0  0  0  0  0  0  0  0  # atno 10718 bound_to 10713
  154.0443  135.2887  155.3350 H   0  0  0  0  0  0  0  0  0  0  0  0  # atno 10763 bound_to 10752
  154.6909  135.5226  153.8395 H   0  0  0  0  0  0  0  0  0  0  0  0  # atno 10764 bound_to 10752
  153.0587  135.6605  154.0645 H   0  0  0  0  0  0  0  0  0  0  0  0  # atno 10765 bound_to 10752
  141.1667  133.7177  156.8361 H   0  0  0  0  0  0  0  0  0  0  0  0  # atno 11005 bound_to 11000
  146.2944  139.7233  142.9138 LP  0  0  0  0  0  0  0  0  0  0  0  0  # atno 17320 bound_to 7965
  145.4094  141.0395  143.3026 LP  0  0  0  0  0  0  0  0  0  0  0  0  # atno 17321 bound_to 7965
  140.7447  143.6455  150.8296 LP  0  0  0  0  0  0  0  0  0  0  0  0  # atno 17342 bound_to 10162
  140.0082  143.5671  152.2849 LP  0  0  0  0  0  0  0  0  0  0  0  0  # atno 17343 bound_to 10162
  156.6604  130.4510  149.5689 LP  0  0  0  0  0  0  0  0  0  0  0  0  # atno 17370 bound_to 10713
  156.2071  130.6656  151.1230 LP  0  0  0  0  0  0  0  0  0  0  0  0  # atno 17371 bound_to 10713
  140.2017  134.8892  157.3176 LP  0  0  0  0  0  0  0  0  0  0  0  0  # atno 17394 bound_to 11000
  140.2181  134.4057  155.7579 LP  0  0  0  0  0  0  0  0  0  0  0  0  # atno 17395 bound_to 11000

$$$$
