AV-unprocessed.smi:3223|AV-procd|sdf|12308|dock3
  -GOLD-   2272018153D 1   1.00000     0.00000
 Structure written by MMmdl.
 43 43  0  0  0  0  0  0  0  0  2 V2000
  151.7993  145.7072  159.9339 C   0  0  0  0  0  0  0  0  0  0  0  0
  151.8481  144.3894  159.2162 C   0  0  0  0  0  0  0  0  0  0  0  0
  152.5411  143.2079  159.6054 C   0  0  0  0  0  0  0  0  0  0  0  0
  152.3774  142.2111  158.7505 N   0  0  0  0  0  0  0  0  0  0  0  0
  151.5776  142.7198  157.7894 N   0  0  0  0  0  0  0  0  0  0  0  0
  151.1711  141.8866  156.6728 C   0  0  0  0  0  0  0  0  0  0  0  0
  150.1707  140.7844  157.0803 C   0  0  1  0  0  0  0  0  0  0  0  0
  148.7408  141.1775  156.6861 C   0  0  0  0  0  0  0  0  0  0  0  0
  150.5133  139.4890  156.4497 N   0  3  0  0  0  0  0  0  0  0  0  0
  151.2061  139.5893  155.1484 C   0  0  0  0  0  0  0  0  0  0  0  0
  150.7650  138.4589  154.2049 C   0  0  0  0  0  0  0  0  0  0  0  0
  151.1806  137.0764  154.7135 C   0  0  0  0  0  0  0  0  0  0  0  0
  152.1301  136.9615  155.4886 O   0  0  0  0  0  0  0  0  0  0  0  0
  150.4641  136.0345  154.2625 N   0  0  0  0  0  0  0  0  0  0  0  0
  150.6864  134.6355  154.6173 C   0  0  0  0  0  0  0  0  0  0  0  0
  149.7263  133.7263  153.8347 C   0  0  0  0  0  0  0  0  0  0  0  0
  150.5231  134.4610  156.1329 C   0  0  0  0  0  0  0  0  0  0  0  0
  151.2444  144.0329  158.0438 C   0  0  0  0  0  0  0  0  0  0  0  0
  152.6974  145.8776  160.5281 H   0  0  0  0  0  0  0  0  0  0  0  0
  150.9490  145.7620  160.6138 H   0  0  0  0  0  0  0  0  0  0  0  0
  151.7110  146.5432  159.2398 H   0  0  0  0  0  0  0  0  0  0  0  0
  153.1537  143.0465  160.4802 H   0  0  0  0  0  0  0  0  0  0  0  0
  150.7224  142.5371  155.9208 H   0  0  0  0  0  0  0  0  0  0  0  0
  152.0590  141.4499  156.2121 H   0  0  0  0  0  0  0  0  0  0  0  0
  150.1874  140.6734  158.1661 H   0  0  0  0  0  0  0  0  0  0  0  0
  148.4455  142.1133  157.1617 H   0  0  0  0  0  0  0  0  0  0  0  0
  148.0246  140.4146  156.9933 H   0  0  0  0  0  0  0  0  0  0  0  0
  148.6465  141.3085  155.6074 H   0  0  0  0  0  0  0  0  0  0  0  0
  151.1206  138.9852  157.0799 H   0  0  0  0  0  0  0  0  0  0  0  0
  150.9973  140.5611  154.7003 H   0  0  0  0  0  0  0  0  0  0  0  0
  152.2833  139.5388  155.3143 H   0  0  0  0  0  0  0  0  0  0  0  0
  149.6826  138.4922  154.0693 H   0  0  0  0  0  0  0  0  0  0  0  0
  151.2090  138.6027  153.2190 H   0  0  0  0  0  0  0  0  0  0  0  0
  149.7048  136.2229  153.6240 H   0  0  0  0  0  0  0  0  0  0  0  0
  151.7110  134.3596  154.3621 H   0  0  0  0  0  0  0  0  0  0  0  0
  149.8914  132.6775  154.0828 H   0  0  0  0  0  0  0  0  0  0  0  0
  149.8672  133.8336  152.7587 H   0  0  0  0  0  0  0  0  0  0  0  0
  148.6852  133.9605  154.0596 H   0  0  0  0  0  0  0  0  0  0  0  0
  150.7145  133.4296  156.4306 H   0  0  0  0  0  0  0  0  0  0  0  0
  149.5144  134.7189  156.4575 H   0  0  0  0  0  0  0  0  0  0  0  0
  151.2223  135.0951  156.6794 H   0  0  0  0  0  0  0  0  0  0  0  0
  150.6089  144.5987  157.3783 H   0  0  0  0  0  0  0  0  0  0  0  0
  149.6627  138.9569  156.3302 H   0  0  0  0  0  0  0  0  0  0  0  0
  1  2  1  0  0  0  0
  1 19  1  0  0  0  0
  1 20  1  0  0  0  0
  1 21  1  0  0  0  0
  2 18  2  0  0  0  0
  2  3  1  0  0  0  0
  3  4  2  0  0  0  0
  3 22  1  0  0  0  0
  4  5  1  0  0  0  0
  5  6  1  0  0  0  0
  5 18  1  0  0  0  0
  6  7  1  0  0  0  0
  6 23  1  0  0  0  0
  6 24  1  0  0  0  0
  7  8  1  0  0  0  0
  7  9  1  0  0  0  0
  7 25  1  0  0  0  0
  8 26  1  0  0  0  0
  8 27  1  0  0  0  0
  8 28  1  0  0  0  0
  9 10  1  0  0  0  0
  9 29  1  0  0  0  0
  9 43  1  0  0  0  0
 10 11  1  0  0  0  0
 10 30  1  0  0  0  0
 10 31  1  0  0  0  0
 11 12  1  0  0  0  0
 11 32  1  0  0  0  0
 11 33  1  0  0  0  0
 12 13  2  0  0  0  0
 12 14  1  0  0  0  0
 14 15  1  0  0  0  0
 14 34  1  0  0  0  0
 15 16  1  0  0  0  0
 15 17  1  0  0  0  0
 15 35  1  0  0  0  0
 16 36  1  0  0  0  0
 16 37  1  0  0  0  0
 16 38  1  0  0  0  0
 17 39  1  0  0  0  0
 17 40  1  0  0  0  0
 17 41  1  0  0  0  0
 18 42  1  0  0  0  0
M  CHG  1   9   1
M  END
> <s_m_source_file>
AV-unprocessed.smi

> <i_m_source_file_index>
3223

> <i_lp_mmshare_version>
43012

> <i_f3d_flags>
0

> <s_epik_input>
W0NIM11jMVtjSF1ubihbY0hdMSlbQ0gyXVtDQEhdKFtDSDNdKVtOSF1bQ0gyXVtDSDJdQyg9TylbTkhdW0NIXShbQ0gzXSlbQ0gzXQ==

> <s_epik_cmdline>
J2VwaWtfcHl0aG9uJywgJy1waCcsICc3LjAnLCAnLXRuJywgJzgnLCAnLW1hJywgJzIwMCcsICctbWV0YWxfYmluZGluZycsICctaW1hZScsICc8aW5maWxlLm1hZT4nLCAnLW9tYWUnLCAnPG91dGZpbGUubWFlPic=

> <r_lp_tautomer_probability>
1

> <r_epik_Ionization_Penalty>
0.0057861

> <r_epik_Ionization_Penalty_Charging>
0.00577767

> <r_epik_Ionization_Penalty_Neutral>
8.4224e-06

> <r_epik_State_Penalty>
0.00424195

> <r_epik_Charging_Adjusted_Penalty>
0.0100196

> <i_epik_Tot_Q>
1

> <i_epik_Tot_abs_Q>
1

> <r_epik_Metal_State_Penalty>
-0

> <b_epik_Metal_Only>
0

> <s_lp_Force_Field>
OPLS_2005

> <r_lp_Energy>
5.87618

> <b_lp_Chiralities_Consistent>
1

> <s_lp_Variant>
AV-unprocessed.smi:3223-2

> <Gold.Version>
5.8.1

> <Gold.Id.Protein>
6NUR|6NUR_protein|mol2

> <Gold.PLP.Fitness>
45.4430

> <Gold.PLP.PLP>
-39.7144

> <Gold.PLP.part.hbond>
-2.8871

> <Gold.PLP.part.metal>
0.0000

> <Gold.PLP.part.buried>
-4.7304

> <Gold.PLP.part.nonpolar>
-32.1686

> <Gold.PLP.part.repulsive>
0.1287

> <Gold.PLP.ligand.clash>
0.0000

> <Gold.PLP.ligand.torsion>
1.7232

> <Gold.PLP.Chemscore.Hbond>
2.0000

> <Gold.PLP.Chemscore.CHOScore>
1.0000

> <Gold.PLP.Chemscore.Metal>
0.0000

> <Gold.Chemscore.Hbonds>
donor molecule, donor type, donor heavy atom, donor atom, acceptor molecule, acceptor atom, score
      L1  H    14    34       P1  7948  0.99
      P1  H 10752 10765       L1    13  0.83
      L1  C    18    42       P1  8028  1.00

> <Gold.PLP.Chemscore.Internal.Correction>
0.1750

> <Gold.Rescore>
     Score         DG    S(hbond)    S(metal)    S(lipo)     H(rot)  DE(clash)    DE(int)     intcor
     14.72     -16.71       1.63        0.00      97.38       2.19       0.12       1.87       ----

> <Gold.Chemscore.Fitness>
14.7211

> <Gold.Chemscore.DG>
-16.7106

> <Gold.Chemscore.ZeroCoef>
-5.4800

> <Gold.Chemscore.Hbond>
1.6259

> <Gold.Chemscore.Metal>
0.0000

> <Gold.Chemscore.Lipo>
97.3810

> <Gold.Chemscore.Internal_Hbond>
0.0000

> <Gold.Chemscore.DEClash>
0.1212

> <Gold.Chemscore.DEInternal>
1.8682

> <Gold.Chemscore.Rot>
2.1850

> <Gold.Chemscore.Internal.Correction>
   9.000000E+99

> <Gold.Chemscore.Hbonds>
donor molecule, donor type, donor heavy atom, donor atom, acceptor molecule, acceptor atom, score
      L1  H    14    34       P1  7948  0.33
      P1  H 10752 10765       L1    13  0.62

> <Gold.Chemscore.Hbond.Weighted>
-5.4306

> <Gold.Chemscore.Metal.Weighted>
-0.0000

> <Gold.Chemscore.Lipo.Weighted>
-11.3936

> <Gold.Chemscore.Internal_Hbond.Weighted>
0.0000

> <Gold.Chemscore.DEClash.Weighted>
0.1212

> <Gold.Chemscore.DEInternal.Weighted>
1.8682

> <Gold.Chemscore.Rot.Weighted>
5.5936

> <Gold.Chemscore.Internal.Correction.Weighted>
   9.000000E+99

> <Gold.Protein.RotatedTorsions>
[ 6907 6896 6895 6894 ] final  -23.62 input  -60.11 | X-H torsion
[ 7974 7965 7964 7962 ] final  -47.39 input  175.53 | X-H torsion
[ 8008 7997 7996 7995 ] final  166.83 input   59.86 | X-H torsion
[ 10167 10162 10161 10158 ] final  -42.82 input  -65.29 | X-H torsion
[ 10718 10713 10712 10709 ] final   82.11 input   66.30 | X-H torsion
[ 10763 10752 10751 10750 ] final -151.28 input  -60.55 | X-H torsion
[ 11005 11000 10999 10996 ] final  -29.03 input  -57.11 | X-H torsion

> <Gold.Protein.ActiveResidues>
 VAL166  LYS551  ARG553  GLY616  TRP617  ASP618  TYR619  PRO620  LYS621  CYS622 
 ASP623  PHE694  ASN695  SER759  ASP760  ASP761  ALA762  ILE779  LEU786  VAL792 
 PHE793  MET794  SER795  GLU796  ALA797  LYS798  CYS799  TRP800  GLU811  SER814 

> <Gold.Protein.RotatedAtoms>
  151.2013  135.0444  159.8873 H   0  0  0  0  0  0  0  0  0  0  0  0  # atno 6907 bound_to 6896
  152.5432  134.0846  159.8261 H   0  0  0  0  0  0  0  0  0  0  0  0  # atno 6908 bound_to 6896
  151.0987  133.5212  159.2643 H   0  0  0  0  0  0  0  0  0  0  0  0  # atno 6909 bound_to 6896
  145.9620  140.7469  142.9452 H   0  0  0  0  0  0  0  0  0  0  0  0  # atno 7974 bound_to 7965
  156.1685  140.1633  156.8488 H   0  0  0  0  0  0  0  0  0  0  0  0  # atno 8008 bound_to 7997
  154.5232  140.0773  156.8246 H   0  0  0  0  0  0  0  0  0  0  0  0  # atno 8009 bound_to 7997
  155.3561  140.3392  155.4242 H   0  0  0  0  0  0  0  0  0  0  0  0  # atno 8010 bound_to 7997
  140.6956  143.3016  151.3264 H   0  0  0  0  0  0  0  0  0  0  0  0  # atno 10167 bound_to 10162
  157.6849  131.0033  150.2326 H   0  0  0  0  0  0  0  0  0  0  0  0  # atno 10718 bound_to 10713
  154.8067  135.3264  154.7412 H   0  0  0  0  0  0  0  0  0  0  0  0  # atno 10763 bound_to 10752
  153.8069  135.6899  153.4851 H   0  0  0  0  0  0  0  0  0  0  0  0  # atno 10764 bound_to 10752
  153.1817  135.4584  154.9982 H   0  0  0  0  0  0  0  0  0  0  0  0  # atno 10765 bound_to 10752
  140.9260  133.7368  156.0869 H   0  0  0  0  0  0  0  0  0  0  0  0  # atno 11005 bound_to 11000
  144.6817  140.2607  143.7319 LP  0  0  0  0  0  0  0  0  0  0  0  0  # atno 17320 bound_to 7965
  145.8026  139.1970  143.2039 LP  0  0  0  0  0  0  0  0  0  0  0  0  # atno 17321 bound_to 7965
  139.6407  144.0545  152.2552 LP  0  0  0  0  0  0  0  0  0  0  0  0  # atno 17342 bound_to 10162
  140.0050  144.6266  150.7697 LP  0  0  0  0  0  0  0  0  0  0  0  0  # atno 17343 bound_to 10162
  156.2955  130.3751  149.7800 LP  0  0  0  0  0  0  0  0  0  0  0  0  # atno 17370 bound_to 10713
  156.5446  130.8315  151.3280 LP  0  0  0  0  0  0  0  0  0  0  0  0  # atno 17371 bound_to 10713
  140.7925  134.3601  157.5461 LP  0  0  0  0  0  0  0  0  0  0  0  0  # atno 17394 bound_to 11000
  139.8785  134.9149  156.3117 LP  0  0  0  0  0  0  0  0  0  0  0  0  # atno 17395 bound_to 11000

$$$$
