AV-unprocessed.smi:1010|AV-procd|sdf|4417|dock4
  -GOLD-   22720 2363D 1   1.00000     0.00000
 Structure written by MMmdl.
 54 56  0  0  0  0  0  0  0  0  1 V2000
  144.3239  136.0809  159.9624 C   0  0  0  0  0  0  0  0  0  0  0  0
  145.6068  136.6745  160.3421 N   0  0  0  0  0  0  0  0  0  0  0  0
  145.3411  137.6211  161.4270 C   0  0  0  0  0  0  0  0  0  0  0  0
  146.7375  135.7346  160.5881 C   0  0  0  0  0  0  0  0  0  0  0  0
  148.0587  136.5670  160.5968 C   0  0  0  0  0  0  0  0  0  0  0  0
  148.3429  137.1690  159.2984 N   0  0  0  0  0  0  0  0  0  0  0  0
  149.5642  137.2888  158.7653 C   0  0  0  0  0  0  0  0  0  0  0  0
  150.5881  136.8809  159.3135 O   0  0  0  0  0  0  0  0  0  0  0  0
  149.5125  137.9229  157.5826 N   0  0  0  0  0  0  0  0  0  0  0  0
  150.5890  138.2925  156.7278 C   0  0  0  0  0  0  0  0  0  0  0  0
  151.8528  137.6572  156.8054 C   0  0  0  0  0  0  0  0  0  0  0  0
  152.8886  138.0746  155.9523 C   0  0  0  0  0  0  0  0  0  0  0  0
  152.6237  139.1135  155.0451 C   0  0  0  0  0  0  0  0  0  0  0  0
  151.4214  139.7142  154.9439 N   0  0  0  0  0  0  0  0  0  0  0  0
  150.4071  139.3130  155.7498 C   0  0  0  0  0  0  0  0  0  0  0  0
  149.1652  139.9689  155.5842 N   0  0  0  0  0  0  0  0  0  0  0  0
  149.0201  141.3798  155.9265 C   0  0  0  0  0  0  0  0  0  0  0  0
  147.7062  141.8100  155.2807 C   0  0  0  0  0  0  0  0  0  0  0  0
  147.6928  140.9918  153.9931 C   0  0  0  0  0  0  0  0  0  0  0  0
  148.3791  139.6799  154.3886 C   0  0  0  0  0  0  0  0  0  0  0  0
  146.5707  134.9810  161.9372 C   0  0  0  0  0  0  0  0  0  0  0  0
  147.5962  133.8432  162.1094 C   0  0  0  0  0  0  0  0  0  0  0  0
  147.5269  132.9376  161.0154 O   0  0  0  0  0  0  0  0  0  0  0  0
  147.8358  133.5477  159.7688 C   0  0  0  0  0  0  0  0  0  0  0  0
  146.8066  134.6523  159.4675 C   0  0  0  0  0  0  0  0  0  0  0  0
  144.3813  135.5674  159.0040 H   0  0  0  0  0  0  0  0  0  0  0  0
  143.5676  136.8563  159.8342 H   0  0  0  0  0  0  0  0  0  0  0  0
  143.9546  135.3843  160.7145 H   0  0  0  0  0  0  0  0  0  0  0  0
  146.2193  138.2015  161.7013 H   0  0  0  0  0  0  0  0  0  0  0  0
  144.9672  137.1167  162.3182 H   0  0  0  0  0  0  0  0  0  0  0  0
  144.5851  138.3443  161.1195 H   0  0  0  0  0  0  0  0  0  0  0  0
  148.0350  137.3464  161.3582 H   0  0  0  0  0  0  0  0  0  0  0  0
  148.9131  135.9495  160.8692 H   0  0  0  0  0  0  0  0  0  0  0  0
  147.5548  137.5387  158.7869 H   0  0  0  0  0  0  0  0  0  0  0  0
  148.6076  138.2796  157.3126 H   0  0  0  0  0  0  0  0  0  0  0  0
  152.0428  136.8526  157.4992 H   0  0  0  0  0  0  0  0  0  0  0  0
  153.8628  137.6104  155.9947 H   0  0  0  0  0  0  0  0  0  0  0  0
  153.3946  139.4668  154.3767 H   0  0  0  0  0  0  0  0  0  0  0  0
  149.0084  141.5271  157.0067 H   0  0  0  0  0  0  0  0  0  0  0  0
  149.8389  141.9661  155.5075 H   0  0  0  0  0  0  0  0  0  0  0  0
  146.8663  141.5220  155.9144 H   0  0  0  0  0  0  0  0  0  0  0  0
  147.6494  142.8847  155.1066 H   0  0  0  0  0  0  0  0  0  0  0  0
  146.6893  140.8408  153.5946 H   0  0  0  0  0  0  0  0  0  0  0  0
  148.2843  141.5006  153.2307 H   0  0  0  0  0  0  0  0  0  0  0  0
  148.9937  139.2904  153.5759 H   0  0  0  0  0  0  0  0  0  0  0  0
  147.6274  138.9300  154.6353 H   0  0  0  0  0  0  0  0  0  0  0  0
  146.6631  135.6654  162.7806 H   0  0  0  0  0  0  0  0  0  0  0  0
  145.5760  134.5420  162.0081 H   0  0  0  0  0  0  0  0  0  0  0  0
  148.6103  134.2306  162.2121 H   0  0  0  0  0  0  0  0  0  0  0  0
  147.3835  133.2926  163.0259 H   0  0  0  0  0  0  0  0  0  0  0  0
  148.8587  133.9239  159.7680 H   0  0  0  0  0  0  0  0  0  0  0  0
  147.7912  132.7834  158.9928 H   0  0  0  0  0  0  0  0  0  0  0  0
  145.8573  134.1290  159.3683 H   0  0  0  0  0  0  0  0  0  0  0  0
  147.0099  135.1020  158.4952 H   0  0  0  0  0  0  0  0  0  0  0  0
  1  2  1  0  0  0  0
  1 26  1  0  0  0  0
  1 27  1  0  0  0  0
  1 28  1  0  0  0  0
  2  3  1  0  0  0  0
  2  4  1  0  0  0  0
  3 29  1  0  0  0  0
  3 30  1  0  0  0  0
  3 31  1  0  0  0  0
  4 25  1  0  0  0  0
  4  5  1  0  0  0  0
  4 21  1  0  0  0  0
  5  6  1  0  0  0  0
  5 32  1  0  0  0  0
  5 33  1  0  0  0  0
  6  7  1  0  0  0  0
  6 34  1  0  0  0  0
  7  8  2  0  0  0  0
  7  9  1  0  0  0  0
  9 10  1  0  0  0  0
  9 35  1  0  0  0  0
 10 15  1  0  0  0  0
 10 11  2  0  0  0  0
 11 12  1  0  0  0  0
 11 36  1  0  0  0  0
 12 13  2  0  0  0  0
 12 37  1  0  0  0  0
 13 14  1  0  0  0  0
 13 38  1  0  0  0  0
 14 15  2  0  0  0  0
 15 16  1  0  0  0  0
 16 20  1  0  0  0  0
 16 17  1  0  0  0  0
 17 18  1  0  0  0  0
 17 39  1  0  0  0  0
 17 40  1  0  0  0  0
 18 19  1  0  0  0  0
 18 41  1  0  0  0  0
 18 42  1  0  0  0  0
 19 20  1  0  0  0  0
 19 43  1  0  0  0  0
 19 44  1  0  0  0  0
 20 45  1  0  0  0  0
 20 46  1  0  0  0  0
 21 22  1  0  0  0  0
 21 47  1  0  0  0  0
 21 48  1  0  0  0  0
 22 23  1  0  0  0  0
 22 49  1  0  0  0  0
 22 50  1  0  0  0  0
 23 24  1  0  0  0  0
 24 25  1  0  0  0  0
 24 51  1  0  0  0  0
 24 52  1  0  0  0  0
 25 53  1  0  0  0  0
 25 54  1  0  0  0  0
M  END
> <s_m_source_file>
AV-unprocessed.smi

> <i_m_source_file_index>
1010

> <i_lp_mmshare_version>
43012

> <i_f3d_flags>
0

> <s_epik_input>
W0NIMl0xW0NIMl1PW0NIMl1bQ0gyXUMxKE4oW0NIM10pW0NIM10pW0NIMl1bTkhdQyg9TylbTkhdYzJbY0hdW2NIXVtjSF1uYzJOM1tDSDJdW0NIMl1bQ0gyXVtDSDJdMw==

> <s_epik_cmdline>
J2VwaWtfcHl0aG9uJywgJy1waCcsICc3LjAnLCAnLXRuJywgJzgnLCAnLW1hJywgJzIwMCcsICctbWV0YWxfYmluZGluZycsICctaW1hZScsICc8aW5maWxlLm1hZT4nLCAnLW9tYWUnLCAnPG91dGZpbGUubWFlPic=

> <r_lp_tautomer_probability>
1

> <r_epik_Ionization_Penalty>
2.38232

> <r_epik_Ionization_Penalty_Charging>
0

> <r_epik_Ionization_Penalty_Neutral>
2.38232

> <r_epik_State_Penalty>
2.49988

> <r_epik_Charging_Adjusted_Penalty>
2.49988

> <i_epik_Tot_Q>
0

> <i_epik_Tot_abs_Q>
0

> <r_epik_Metal_State_Penalty>
2.47138

> <b_epik_Metal_Only>
0

> <s_lp_Force_Field>
OPLS_2005

> <r_lp_Energy>
56.3274

> <b_lp_Chiralities_Consistent>
1

> <s_lp_Variant>
AV-unprocessed.smi:1010-3

> <Gold.Version>
5.8.1

> <Gold.Id.Protein>
6NUR|6NUR_protein|mol2

> <Gold.PLP.Fitness>
37.2864

> <Gold.PLP.PLP>
-32.1728

> <Gold.PLP.part.hbond>
-2.0000

> <Gold.PLP.part.metal>
0.0000

> <Gold.PLP.part.buried>
-5.7229

> <Gold.PLP.part.nonpolar>
-25.6756

> <Gold.PLP.part.repulsive>
0.3148

> <Gold.PLP.ligand.clash>
0.0000

> <Gold.PLP.ligand.torsion>
0.6454

> <Gold.PLP.Chemscore.Hbond>
2.0000

> <Gold.PLP.Chemscore.CHOScore>
0.0000

> <Gold.PLP.Chemscore.Metal>
0.0000

> <Gold.Chemscore.Hbonds>
donor molecule, donor type, donor heavy atom, donor atom, acceptor molecule, acceptor atom, score
      P1  H  6896  6907       L1     8  1.00
      P1  H  7989  7998       L1    14  1.00

> <Gold.PLP.Chemscore.Internal.Correction>
0.4045

> <Gold.Rescore>
     Score         DG    S(hbond)    S(metal)    S(lipo)     H(rot)  DE(clash)    DE(int)     intcor
     15.99     -17.97       1.87        0.00      87.05       1.54       0.16       1.83       ----

> <Gold.Chemscore.Fitness>
15.9893

> <Gold.Chemscore.DG>
-17.9731

> <Gold.Chemscore.ZeroCoef>
-5.4800

> <Gold.Chemscore.Hbond>
1.8684

> <Gold.Chemscore.Metal>
0.0000

> <Gold.Chemscore.Lipo>
87.0524

> <Gold.Chemscore.Internal_Hbond>
0.0000

> <Gold.Chemscore.DEClash>
0.1555

> <Gold.Chemscore.DEInternal>
1.8283

> <Gold.Chemscore.Rot>
1.5362

> <Gold.Chemscore.Internal.Correction>
   9.000000E+99

> <Gold.Chemscore.Hbonds>
donor molecule, donor type, donor heavy atom, donor atom, acceptor molecule, acceptor atom, score
      P1  H  6896  6907       L1     8  0.99
      P1  H  7989  7998       L1    14  0.40

> <Gold.Chemscore.Hbond.Weighted>
-6.2406

> <Gold.Chemscore.Metal.Weighted>
-0.0000

> <Gold.Chemscore.Lipo.Weighted>
-10.1851

> <Gold.Chemscore.Internal_Hbond.Weighted>
0.0000

> <Gold.Chemscore.DEClash.Weighted>
0.1555

> <Gold.Chemscore.DEInternal.Weighted>
1.8283

> <Gold.Chemscore.Rot.Weighted>
3.9326

> <Gold.Chemscore.Internal.Correction.Weighted>
   9.000000E+99

> <Gold.Protein.RotatedTorsions>
[ 6907 6896 6895 6894 ] final  -31.13 input  -60.11 | X-H torsion
[ 7974 7965 7964 7962 ] final   77.57 input  175.53 | X-H torsion
[ 8008 7997 7996 7995 ] final    7.34 input   59.86 | X-H torsion
[ 10167 10162 10161 10158 ] final  128.27 input  -65.29 | X-H torsion
[ 10718 10713 10712 10709 ] final   -1.82 input   66.30 | X-H torsion
[ 10763 10752 10751 10750 ] final  166.84 input  -60.55 | X-H torsion
[ 11005 11000 10999 10996 ] final   -1.01 input  -57.11 | X-H torsion

> <Gold.Protein.ActiveResidues>
 VAL166  LYS551  ARG553  GLY616  TRP617  ASP618  TYR619  PRO620  LYS621  CYS622 
 ASP623  PHE694  ASN695  SER759  ASP760  ASP761  ALA762  ILE779  LEU786  VAL792 
 PHE793  MET794  SER795  GLU796  ALA797  LYS798  CYS799  TRP800  GLU811  SER814 

> <Gold.Protein.RotatedAtoms>
  151.0962  134.9945  159.8426 H   0  0  0  0  0  0  0  0  0  0  0  0  # atno 6907 bound_to 6896
  152.5433  134.2005  159.8720 H   0  0  0  0  0  0  0  0  0  0  0  0  # atno 6908 bound_to 6896
  151.2045  133.4547  159.2630 H   0  0  0  0  0  0  0  0  0  0  0  0  # atno 6909 bound_to 6896
  145.6883  139.2544  143.1774 H   0  0  0  0  0  0  0  0  0  0  0  0  # atno 7974 bound_to 7965
  154.7526  140.2770  155.6280 H   0  0  0  0  0  0  0  0  0  0  0  0  # atno 8008 bound_to 7997
  156.2899  140.2675  156.2210 H   0  0  0  0  0  0  0  0  0  0  0  0  # atno 8009 bound_to 7997
  155.0118  140.0372  157.2392 H   0  0  0  0  0  0  0  0  0  0  0  0  # atno 8010 bound_to 7997
  139.5536  144.6832  151.4250 H   0  0  0  0  0  0  0  0  0  0  0  0  # atno 10167 bound_to 10162
  156.7999  130.5389  149.5723 H   0  0  0  0  0  0  0  0  0  0  0  0  # atno 10718 bound_to 10713
  154.3450  135.2753  155.2402 H   0  0  0  0  0  0  0  0  0  0  0  0  # atno 10763 bound_to 10752
  154.4656  135.5896  153.6289 H   0  0  0  0  0  0  0  0  0  0  0  0  # atno 10764 bound_to 10752
  152.9854  135.6075  154.3655 H   0  0  0  0  0  0  0  0  0  0  0  0  # atno 10765 bound_to 10752
  140.6426  133.9476  155.8334 H   0  0  0  0  0  0  0  0  0  0  0  0  # atno 11005 bound_to 11000
  146.0904  140.7662  142.9598 LP  0  0  0  0  0  0  0  0  0  0  0  0  # atno 17320 bound_to 7965
  144.7004  140.3629  143.7160 LP  0  0  0  0  0  0  0  0  0  0  0  0  # atno 17321 bound_to 7965
  140.6804  143.8095  150.7113 LP  0  0  0  0  0  0  0  0  0  0  0  0  # atno 17342 bound_to 10162
  140.1547  143.4327  152.2108 LP  0  0  0  0  0  0  0  0  0  0  0  0  # atno 17343 bound_to 10162
  156.1107  130.6038  151.0043 LP  0  0  0  0  0  0  0  0  0  0  0  0  # atno 17370 bound_to 10713
  157.6559  131.0889  150.7949 LP  0  0  0  0  0  0  0  0  0  0  0  0  # atno 17371 bound_to 10713
  141.0596  134.0366  157.3676 LP  0  0  0  0  0  0  0  0  0  0  0  0  # atno 17394 bound_to 11000
  139.9075  135.0183  156.7548 LP  0  0  0  0  0  0  0  0  0  0  0  0  # atno 17395 bound_to 11000

$$$$
