AV-unprocessed.smi:94|AV-procd|sdf|851|dock3
  -GOLD-   2262017293D 1   1.00000     0.00000
 Structure written by MMmdl.
 53 55  0  0  0  0  0  0  0  0  1 V2000
  154.5973  138.3870  159.1909 C   0  0  0  0  0  0  0  0  0  0  0  0
  153.8229  139.3986  158.5642 O   0  0  0  0  0  0  0  0  0  0  0  0
  153.4730  140.5116  159.3019 C   0  0  0  0  0  0  0  0  0  0  0  0
  153.9907  140.7818  160.5950 C   0  0  0  0  0  0  0  0  0  0  0  0
  153.6018  141.9360  161.2997 C   0  0  0  0  0  0  0  0  0  0  0  0
  152.6976  142.8449  160.7216 C   0  0  0  0  0  0  0  0  0  0  0  0
  152.2728  144.0894  161.4736 C   0  0  0  0  0  0  0  0  0  0  0  0
  152.1817  142.5880  159.4388 C   0  0  0  0  0  0  0  0  0  0  0  0
  152.5509  141.4215  158.7265 C   0  0  0  0  0  0  0  0  0  0  0  0
  151.9709  141.1521  157.3355 C   0  0  2  0  0  0  0  0  0  0  0  0
  150.7144  141.9976  157.0859 C   0  0  0  0  0  0  0  0  0  0  0  0
  151.6416  139.7424  157.1481 N   0  0  0  0  0  0  0  0  0  0  0  0
  150.5179  139.1153  157.5325 C   0  0  0  0  0  0  0  0  0  0  0  0
  149.6575  139.6400  158.2377 O   0  0  0  0  0  0  0  0  0  0  0  0
  150.2974  137.6877  157.0017 C   0  0  0  0  0  0  0  0  0  0  0  0
  149.1149  137.0129  157.5896 N   0  0  0  0  0  0  0  0  0  0  0  0
  148.1792  136.4164  156.7072 C   0  0  0  0  0  0  0  0  0  0  0  0
  148.3163  136.4890  155.4854 O   0  0  0  0  0  0  0  0  0  0  0  0
  147.0779  135.7048  157.3438 C   0  0  0  0  0  0  0  0  0  0  0  0
  146.1545  135.0901  156.5854 F   0  0  0  0  0  0  0  0  0  0  0  0
  146.9781  135.6407  158.6869 C   0  0  0  0  0  0  0  0  0  0  0  0
  147.8832  136.2436  159.5387 N   0  0  0  0  0  0  0  0  0  0  0  0
  147.7195  136.0519  161.0307 C   0  0  2  0  0  0  0  0  0  0  0  0
  146.6377  135.0308  161.4141 C   0  0  0  0  0  0  0  0  0  0  0  0
  146.0919  135.6465  162.6844 C   0  0  0  0  0  0  0  0  0  0  0  0
  146.1935  137.1382  162.3836 C   0  0  0  0  0  0  0  0  0  0  0  0
  147.3848  137.2784  161.6139 O   0  0  0  0  0  0  0  0  0  0  0  0
  148.9970  136.9284  158.9984 C   0  0  0  0  0  0  0  0  0  0  0  0
  149.8583  137.4208  159.7280 O   0  0  0  0  0  0  0  0  0  0  0  0
  154.7788  137.5823  158.4789 H   0  0  0  0  0  0  0  0  0  0  0  0
  154.0749  137.9576  160.0468 H   0  0  0  0  0  0  0  0  0  0  0  0
  155.5676  138.7679  159.5120 H   0  0  0  0  0  0  0  0  0  0  0  0
  154.6922  140.1159  161.0734 H   0  0  0  0  0  0  0  0  0  0  0  0
  154.0033  142.1212  162.2851 H   0  0  0  0  0  0  0  0  0  0  0  0
  152.0821  144.9129  160.7846 H   0  0  0  0  0  0  0  0  0  0  0  0
  153.0470  144.4061  162.1732 H   0  0  0  0  0  0  0  0  0  0  0  0
  151.3589  143.8953  162.0352 H   0  0  0  0  0  0  0  0  0  0  0  0
  151.4951  143.3017  159.0079 H   0  0  0  0  0  0  0  0  0  0  0  0
  152.7151  141.4382  156.5909 H   0  0  0  0  0  0  0  0  0  0  0  0
  150.9351  143.0626  157.1650 H   0  0  0  0  0  0  0  0  0  0  0  0
  149.9299  141.7660  157.8075 H   0  0  0  0  0  0  0  0  0  0  0  0
  150.3134  141.8191  156.0878 H   0  0  0  0  0  0  0  0  0  0  0  0
  152.2928  139.2095  156.5903 H   0  0  0  0  0  0  0  0  0  0  0  0
  150.2287  137.7380  155.9143 H   0  0  0  0  0  0  0  0  0  0  0  0
  151.2010  137.1024  157.1806 H   0  0  0  0  0  0  0  0  0  0  0  0
  146.1484  135.0903  159.1061 H   0  0  0  0  0  0  0  0  0  0  0  0
  148.7002  135.7588  161.4072 H   0  0  0  0  0  0  0  0  0  0  0  0
  145.8593  134.9622  160.6556 H   0  0  0  0  0  0  0  0  0  0  0  0
  147.0693  134.0406  161.5604 H   0  0  0  0  0  0  0  0  0  0  0  0
  145.0760  135.3254  162.9155 H   0  0  0  0  0  0  0  0  0  0  0  0
  146.7334  135.3910  163.5288 H   0  0  0  0  0  0  0  0  0  0  0  0
  145.3392  137.4692  161.7928 H   0  0  0  0  0  0  0  0  0  0  0  0
  146.2310  137.7459  163.2878 H   0  0  0  0  0  0  0  0  0  0  0  0
  1  2  1  0  0  0  0
  1 30  1  0  0  0  0
  1 31  1  0  0  0  0
  1 32  1  0  0  0  0
  2  3  1  0  0  0  0
  3  9  1  0  0  0  0
  3  4  2  0  0  0  0
  4  5  1  0  0  0  0
  4 33  1  0  0  0  0
  5  6  2  0  0  0  0
  5 34  1  0  0  0  0
  6  7  1  0  0  0  0
  6  8  1  0  0  0  0
  7 35  1  0  0  0  0
  7 36  1  0  0  0  0
  7 37  1  0  0  0  0
  8  9  2  0  0  0  0
  8 38  1  0  0  0  0
  9 10  1  0  0  0  0
 10 11  1  0  0  0  0
 10 12  1  0  0  0  0
 10 39  1  0  0  0  0
 11 40  1  0  0  0  0
 11 41  1  0  0  0  0
 11 42  1  0  0  0  0
 12 13  1  0  0  0  0
 12 43  1  0  0  0  0
 13 14  2  0  0  0  0
 13 15  1  0  0  0  0
 15 16  1  0  0  0  0
 15 44  1  0  0  0  0
 15 45  1  0  0  0  0
 16 28  1  0  0  0  0
 16 17  1  0  0  0  0
 17 18  2  0  0  0  0
 17 19  1  0  0  0  0
 19 20  1  0  0  0  0
 19 21  2  0  0  0  0
 21 22  1  0  0  0  0
 21 46  1  0  0  0  0
 22 23  1  0  0  0  0
 22 28  1  0  0  0  0
 23 27  1  0  0  0  0
 23 24  1  0  0  0  0
 23 47  1  0  0  0  0
 24 25  1  0  0  0  0
 24 48  1  0  0  0  0
 24 49  1  0  0  0  0
 25 26  1  0  0  0  0
 25 50  1  0  0  0  0
 25 51  1  0  0  0  0
 26 27  1  0  0  0  0
 26 52  1  0  0  0  0
 26 53  1  0  0  0  0
 28 29  2  0  0  0  0
M  END
> <s_m_source_file>
AV-unprocessed.smi

> <i_m_source_file_index>
94

> <i_lp_mmshare_version>
43012

> <i_f3d_flags>
0

> <s_epik_input>
W0NIM11PYzFbY0hdW2NIXWMoW0NIM10pW2NIXWMxW0NASF0oW0NIM10pW05IXUMoPU8pW0NIMl1uMmMoPU8pYyhGKVtjSF1uKGMyPU8pW0NAQEhdM1tDSDJdW0NIMl1bQ0gyXU8z

> <s_epik_cmdline>
J2VwaWtfcHl0aG9uJywgJy1waCcsICc3LjAnLCAnLXRuJywgJzgnLCAnLW1hJywgJzIwMCcsICctbWV0YWxfYmluZGluZycsICctaW1hZScsICc8aW5maWxlLm1hZT4nLCAnLW9tYWUnLCAnPG91dGZpbGUubWFlPic=

> <r_lp_tautomer_probability>
1

> <r_epik_Ionization_Penalty>
3.37009e-08

> <r_epik_Ionization_Penalty_Charging>
3.59856e-09

> <r_epik_Ionization_Penalty_Neutral>
3.01024e-08

> <r_epik_State_Penalty>
-0

> <r_epik_Charging_Adjusted_Penalty>
3.59856e-09

> <i_epik_Tot_Q>
0

> <i_epik_Tot_abs_Q>
0

> <r_epik_Metal_State_Penalty>
-0

> <b_epik_Metal_Only>
0

> <s_epik_Chemistry_Notes>
This compound contains an acetal/aminal-like group ( X-CH(R)-Y where X, Y are N, S, or O) that may be acid/base labile, releasing an aldehyde.

> <s_lp_Force_Field>
OPLS_2005

> <r_lp_Energy>
26.0468

> <b_lp_Chiralities_Consistent>
1

> <s_lp_Variant>
AV-unprocessed.smi:94-1

> <Gold.Version>
5.8.1

> <Gold.Id.Protein>
6NUR|6NUR_protein|mol2

> <Gold.PLP.Fitness>
53.1138

> <Gold.PLP.PLP>
-47.1449

> <Gold.PLP.part.hbond>
-4.0000

> <Gold.PLP.part.metal>
0.0000

> <Gold.PLP.part.buried>
-7.1810

> <Gold.PLP.part.nonpolar>
-34.9238

> <Gold.PLP.part.repulsive>
0.1413

> <Gold.PLP.ligand.clash>
0.0000

> <Gold.PLP.ligand.torsion>
1.1927

> <Gold.PLP.Chemscore.Hbond>
2.7277

> <Gold.PLP.Chemscore.CHOScore>
0.0000

> <Gold.PLP.Chemscore.Metal>
0.0000

> <Gold.Chemscore.Hbonds>
donor molecule, donor type, donor heavy atom, donor atom, acceptor molecule, acceptor atom, score
      P1  H  6931  6943       L1    27  0.86
      P1  H  6934  6947       L1    27  0.85
      P1  H  7997  8008       L1     2  1.00

> <Gold.PLP.Chemscore.Internal.Correction>
0.1712

> <Gold.Rescore>
     Score         DG    S(hbond)    S(metal)    S(lipo)     H(rot)  DE(clash)    DE(int)     intcor
     17.22     -20.01       1.88        0.00     121.66       2.34       0.09       2.71       ----

> <Gold.Chemscore.Fitness>
17.2191

> <Gold.Chemscore.DG>
-20.0132

> <Gold.Chemscore.ZeroCoef>
-5.4800

> <Gold.Chemscore.Hbond>
1.8809

> <Gold.Chemscore.Metal>
0.0000

> <Gold.Chemscore.Lipo>
121.6556

> <Gold.Chemscore.Internal_Hbond>
0.0000

> <Gold.Chemscore.DEClash>
0.0860

> <Gold.Chemscore.DEInternal>
2.7081

> <Gold.Chemscore.Rot>
2.3370

> <Gold.Chemscore.Internal.Correction>
   9.000000E+99

> <Gold.Chemscore.Hbonds>
donor molecule, donor type, donor heavy atom, donor atom, acceptor molecule, acceptor atom, score
      P1  H  6931  6943       L1    27  0.55
      P1  H  6934  6947       L1    27  0.25
      P1  H  7997  8008       L1     2  0.12

> <Gold.Chemscore.Hbond.Weighted>
-6.2821

> <Gold.Chemscore.Metal.Weighted>
-0.0000

> <Gold.Chemscore.Lipo.Weighted>
-14.2337

> <Gold.Chemscore.Internal_Hbond.Weighted>
0.0000

> <Gold.Chemscore.DEClash.Weighted>
0.0860

> <Gold.Chemscore.DEInternal.Weighted>
2.7081

> <Gold.Chemscore.Rot.Weighted>
5.9827

> <Gold.Chemscore.Internal.Correction.Weighted>
   9.000000E+99

> <Gold.Protein.RotatedTorsions>
[ 6907 6896 6895 6894 ] final -153.97 input  -60.11 | X-H torsion
[ 7974 7965 7964 7962 ] final -175.63 input  175.53 | X-H torsion
[ 8008 7997 7996 7995 ] final -117.50 input   59.86 | X-H torsion
[ 10167 10162 10161 10158 ] final   65.02 input  -65.29 | X-H torsion
[ 10718 10713 10712 10709 ] final -116.63 input   66.30 | X-H torsion
[ 10763 10752 10751 10750 ] final  157.65 input  -60.55 | X-H torsion
[ 11005 11000 10999 10996 ] final -128.79 input  -57.11 | X-H torsion

> <Gold.Protein.ActiveResidues>
 VAL166  LYS551  ARG553  GLY616  TRP617  ASP618  TYR619  PRO620  LYS621  CYS622 
 ASP623  PHE694  ASN695  SER759  ASP760  ASP761  ALA762  ILE779  LEU786  VAL792 
 PHE793  MET794  SER795  GLU796  ALA797  LYS798  CYS799  TRP800  GLU811  SER814 

> <Gold.Protein.RotatedAtoms>
  151.2506  133.4352  159.2611 H   0  0  0  0  0  0  0  0  0  0  0  0  # atno 6907 bound_to 6896
  151.0621  134.9744  159.8276 H   0  0  0  0  0  0  0  0  0  0  0  0  # atno 6908 bound_to 6896
  152.5400  134.2455  159.8931 H   0  0  0  0  0  0  0  0  0  0  0  0  # atno 6909 bound_to 6896
  144.7128  140.1291  143.6400 H   0  0  0  0  0  0  0  0  0  0  0  0  # atno 7974 bound_to 7965
  155.0847  140.0394  157.2650 H   0  0  0  0  0  0  0  0  0  0  0  0  # atno 8008 bound_to 7997
  154.6879  140.2647  155.6817 H   0  0  0  0  0  0  0  0  0  0  0  0  # atno 8009 bound_to 7997
  156.2718  140.2765  156.1446 H   0  0  0  0  0  0  0  0  0  0  0  0  # atno 8010 bound_to 7997
  140.1159  144.4776  150.6950 H   0  0  0  0  0  0  0  0  0  0  0  0  # atno 10167 bound_to 10162
  156.0977  130.6146  150.9061 H   0  0  0  0  0  0  0  0  0  0  0  0  # atno 10718 bound_to 10713
  154.2036  135.2789  155.2982 H   0  0  0  0  0  0  0  0  0  0  0  0  # atno 10763 bound_to 10752
  154.5834  135.5582  153.7211 H   0  0  0  0  0  0  0  0  0  0  0  0  # atno 10764 bound_to 10752
  153.0081  135.6350  154.2175 H   0  0  0  0  0  0  0  0  0  0  0  0  # atno 10765 bound_to 10752
  140.9486  134.1096  157.4083 H   0  0  0  0  0  0  0  0  0  0  0  0  # atno 11005 bound_to 11000
  145.9302  139.2601  143.1329 LP  0  0  0  0  0  0  0  0  0  0  0  0  # atno 17320 bound_to 7965
  145.9530  140.8894  143.0249 LP  0  0  0  0  0  0  0  0  0  0  0  0  # atno 17321 bound_to 7965
  140.6900  143.2370  151.5158 LP  0  0  0  0  0  0  0  0  0  0  0  0  # atno 17342 bound_to 10162
  139.5594  144.2193  152.1667 LP  0  0  0  0  0  0  0  0  0  0  0  0  # atno 17343 bound_to 10162
  157.6141  131.0934  150.8741 LP  0  0  0  0  0  0  0  0  0  0  0  0  # atno 17370 bound_to 10713
  156.8876  130.5201  149.5288 LP  0  0  0  0  0  0  0  0  0  0  0  0  # atno 17371 bound_to 10713
  139.8841  135.0059  156.6344 LP  0  0  0  0  0  0  0  0  0  0  0  0  # atno 17394 bound_to 11000
  140.7634  133.8798  155.8436 LP  0  0  0  0  0  0  0  0  0  0  0  0  # atno 17395 bound_to 11000

$$$$
