AV-unprocessed.smi:2234|AV-procd|sdf|9043|dock3
  -GOLD-   2272012253D 1   1.00000     0.00000
 Structure written by MMmdl.
 21 22  0  0  0  0  0  0  0  0  2 V2000
  152.1744  137.4792  154.2829 O   0  0  0  0  0  0  0  0  0  0  0  0
  152.1468  138.6199  154.7959 C   0  0  0  0  0  0  0  0  0  0  0  0
  153.1059  139.4227  154.8117 O   0  5  0  0  0  0  0  0  0  0  0  0
  150.8179  139.0788  155.4286 C   0  0  1  0  0  0  0  0  0  0  0  0
  150.9795  139.6038  156.8486 C   0  0  0  0  0  0  0  0  0  0  0  0
  151.0798  141.0757  156.6132 C   0  0  0  0  0  0  0  0  0  0  0  0
  151.6033  142.0507  157.6014 C   0  0  0  0  0  0  0  0  0  0  0  0
  152.2747  141.6148  158.7655 C   0  0  0  0  0  0  0  0  0  0  0  0
  152.7504  142.5757  159.6789 C   0  0  0  0  0  0  0  0  0  0  0  0
  152.5346  143.9379  159.3933 C   0  0  0  0  0  0  0  0  0  0  0  0
  151.8932  144.3703  158.2873 N   0  0  0  0  0  0  0  0  0  0  0  0
  151.4404  143.4436  157.4145 C   0  0  0  0  0  0  0  0  0  0  0  0
  150.6829  141.3842  155.4510 N   0  0  0  0  0  0  0  0  0  0  0  0
  150.2853  140.2159  154.7506 O   0  0  0  0  0  0  0  0  0  0  0  0
  150.1110  138.2498  155.3857 H   0  0  0  0  0  0  0  0  0  0  0  0
  150.0985  139.3893  157.4542 H   0  0  0  0  0  0  0  0  0  0  0  0
  151.8593  139.2197  157.3660 H   0  0  0  0  0  0  0  0  0  0  0  0
  152.4271  140.5654  158.9700 H   0  0  0  0  0  0  0  0  0  0  0  0
  153.2682  142.2748  160.5773 H   0  0  0  0  0  0  0  0  0  0  0  0
  152.8852  144.7007  160.0728 H   0  0  0  0  0  0  0  0  0  0  0  0
  150.9341  143.8374  156.5452 H   0  0  0  0  0  0  0  0  0  0  0  0
  1  2  2  0  0  0  0
  2  3  1  0  0  0  0
  2  4  1  0  0  0  0
  4 14  1  0  0  0  0
  4  5  1  0  0  0  0
  4 15  1  0  0  0  0
  5  6  1  0  0  0  0
  5 16  1  0  0  0  0
  5 17  1  0  0  0  0
  6  7  1  0  0  0  0
  6 13  2  0  0  0  0
  7 12  1  0  0  0  0
  7  8  2  0  0  0  0
  8  9  1  0  0  0  0
  8 18  1  0  0  0  0
  9 10  2  0  0  0  0
  9 19  1  0  0  0  0
 10 11  1  0  0  0  0
 10 20  1  0  0  0  0
 11 12  2  0  0  0  0
 12 21  1  0  0  0  0
 13 14  1  0  0  0  0
M  CHG  1   3  -1
M  END
> <s_m_source_file>
AV-unprocessed.smi

> <i_m_source_file_index>
2234

> <i_lp_mmshare_version>
43012

> <i_f3d_flags>
0

> <s_epik_input>
Tz1DKFtPSF0pW0NAQEhdMVtDSDJdQyg9Tk8xKWMyW2NIXVtjSF1bY0hdbltjSF0y

> <s_epik_cmdline>
J2VwaWtfcHl0aG9uJywgJy1waCcsICc3LjAnLCAnLXRuJywgJzgnLCAnLW1hJywgJzIwMCcsICctbWV0YWxfYmluZGluZycsICctaW1hZScsICc8aW5maWxlLm1hZT4nLCAnLW9tYWUnLCAnPG91dGZpbGUubWFlPic=

> <r_lp_tautomer_probability>
1

> <r_epik_Ionization_Penalty>
0.000239258

> <r_epik_Ionization_Penalty_Charging>
3.09051e-05

> <r_epik_Ionization_Penalty_Neutral>
0.000208353

> <r_epik_State_Penalty>
-0

> <r_epik_Charging_Adjusted_Penalty>
3.09051e-05

> <i_epik_Tot_Q>
-1

> <i_epik_Tot_abs_Q>
1

> <r_epik_Metal_State_Penalty>
-0

> <b_epik_Metal_Only>
0

> <s_epik_Chemistry_Notes>
This compound has an imine and may undergo hydrolysis.

> <s_lp_Force_Field>
OPLS_2005

> <r_lp_Energy>
18.3525

> <b_lp_Chiralities_Consistent>
1

> <s_lp_Variant>
AV-unprocessed.smi:2234-2

> <Gold.Version>
5.8.1

> <Gold.Id.Protein>
6NUR|6NUR_protein|mol2

> <Gold.PLP.Fitness>
43.6353

> <Gold.PLP.PLP>
-29.9393

> <Gold.PLP.part.hbond>
-5.0000

> <Gold.PLP.part.metal>
0.0000

> <Gold.PLP.part.buried>
-4.7933

> <Gold.PLP.part.nonpolar>
-20.9688

> <Gold.PLP.part.repulsive>
0.4179

> <Gold.PLP.ligand.clash>
0.0000

> <Gold.PLP.ligand.torsion>
0.1454

> <Gold.PLP.Chemscore.Hbond>
3.6502

> <Gold.PLP.Chemscore.CHOScore>
1.0000

> <Gold.PLP.Chemscore.Metal>
0.0000

> <Gold.Chemscore.Hbonds>
donor molecule, donor type, donor heavy atom, donor atom, acceptor molecule, acceptor atom, score
      P1  H  7989  7998       L1     3  0.01
      P1  H  7997  8008       L1     3  2.00
      P1  H 10752 10765       L1     1  1.63
      L1  C    12    21       P1  8028  1.00

> <Gold.PLP.Chemscore.Internal.Correction>
0.0362

> <Gold.Rescore>
     Score         DG    S(hbond)    S(metal)    S(lipo)     H(rot)  DE(clash)    DE(int)     intcor
     17.11     -17.22       1.81        0.00      70.47       1.00       0.02       0.09       ----

> <Gold.Chemscore.Fitness>
17.1098

> <Gold.Chemscore.DG>
-17.2172

> <Gold.Chemscore.ZeroCoef>
-5.4800

> <Gold.Chemscore.Hbond>
1.8119

> <Gold.Chemscore.Metal>
0.0000

> <Gold.Chemscore.Lipo>
70.4745

> <Gold.Chemscore.Internal_Hbond>
0.0000

> <Gold.Chemscore.DEClash>
0.0174

> <Gold.Chemscore.DEInternal>
0.0900

> <Gold.Chemscore.Rot>
1.0000

> <Gold.Chemscore.Internal.Correction>
   9.000000E+99

> <Gold.Chemscore.Hbonds>
donor molecule, donor type, donor heavy atom, donor atom, acceptor molecule, acceptor atom, score
      P1  H  7997  8008       L1     3  1.00
      P1  H 10752 10765       L1     1  0.80

> <Gold.Chemscore.Hbond.Weighted>
-6.0517

> <Gold.Chemscore.Metal.Weighted>
-0.0000

> <Gold.Chemscore.Lipo.Weighted>
-8.2455

> <Gold.Chemscore.Internal_Hbond.Weighted>
0.0000

> <Gold.Chemscore.DEClash.Weighted>
0.0174

> <Gold.Chemscore.DEInternal.Weighted>
0.0900

> <Gold.Chemscore.Rot.Weighted>
2.5600

> <Gold.Chemscore.Internal.Correction.Weighted>
   9.000000E+99

> <Gold.Protein.RotatedTorsions>
[ 6907 6896 6895 6894 ] final  -28.44 input  -60.11 | X-H torsion
[ 7974 7965 7964 7962 ] final  106.85 input  175.53 | X-H torsion
[ 8008 7997 7996 7995 ] final  -12.44 input   59.86 | X-H torsion
[ 10167 10162 10161 10158 ] final   21.21 input  -65.29 | X-H torsion
[ 10718 10713 10712 10709 ] final  164.43 input   66.30 | X-H torsion
[ 10763 10752 10751 10750 ] final  149.34 input  -60.55 | X-H torsion
[ 11005 11000 10999 10996 ] final -169.74 input  -57.11 | X-H torsion

> <Gold.Protein.ActiveResidues>
 VAL166  LYS551  ARG553  GLY616  TRP617  ASP618  TYR619  PRO620  LYS621  CYS622 
 ASP623  PHE694  ASN695  SER759  ASP760  ASP761  ALA762  ILE779  LEU786  VAL792 
 PHE793  MET794  SER795  GLU796  ALA797  LYS798  CYS799  TRP800  GLU811  SER814 

> <Gold.Protein.RotatedAtoms>
  151.1330  135.0140  159.8590 H   0  0  0  0  0  0  0  0  0  0  0  0  # atno 6907 bound_to 6896
  152.5451  134.1588  159.8559 H   0  0  0  0  0  0  0  0  0  0  0  0  # atno 6908 bound_to 6896
  151.1657  133.4771  159.2627 H   0  0  0  0  0  0  0  0  0  0  0  0  # atno 6909 bound_to 6896
  145.3012  139.2569  143.3813 H   0  0  0  0  0  0  0  0  0  0  0  0  # atno 7974 bound_to 7965
  154.5377  140.2276  155.8694 H   0  0  0  0  0  0  0  0  0  0  0  0  # atno 8008 bound_to 7997
  156.1828  140.3096  155.9144 H   0  0  0  0  0  0  0  0  0  0  0  0  # atno 8009 bound_to 7997
  155.3320  140.0446  157.3033 H   0  0  0  0  0  0  0  0  0  0  0  0  # atno 8010 bound_to 7997
  140.5444  143.9621  150.6538 H   0  0  0  0  0  0  0  0  0  0  0  0  # atno 10167 bound_to 10162
  157.0944  131.0426  151.2524 H   0  0  0  0  0  0  0  0  0  0  0  0  # atno 10718 bound_to 10713
  154.0695  135.2868  155.3310 H   0  0  0  0  0  0  0  0  0  0  0  0  # atno 10763 bound_to 10752
  154.6756  135.5283  153.8198 H   0  0  0  0  0  0  0  0  0  0  0  0  # atno 10764 bound_to 10752
  153.0491  135.6568  154.0878 H   0  0  0  0  0  0  0  0  0  0  0  0  # atno 10765 bound_to 10752
  140.5273  134.5650  157.5065 H   0  0  0  0  0  0  0  0  0  0  0  0  # atno 11005 bound_to 11000
  146.3151  140.3527  142.8657 LP  0  0  0  0  0  0  0  0  0  0  0  0  # atno 17320 bound_to 7965
  144.9092  140.7736  143.5818 LP  0  0  0  0  0  0  0  0  0  0  0  0  # atno 17321 bound_to 7965
  140.3030  143.3248  152.0953 LP  0  0  0  0  0  0  0  0  0  0  0  0  # atno 17342 bound_to 10162
  139.5001  144.6685  151.6300 LP  0  0  0  0  0  0  0  0  0  0  0  0  # atno 17343 bound_to 10162
  157.4694  130.7700  149.7309 LP  0  0  0  0  0  0  0  0  0  0  0  0  # atno 17370 bound_to 10713
  155.9889  130.3955  150.3095 LP  0  0  0  0  0  0  0  0  0  0  0  0  # atno 17371 bound_to 10713
  139.9573  134.7513  156.0314 LP  0  0  0  0  0  0  0  0  0  0  0  0  # atno 17394 bound_to 11000
  141.1301  133.6589  156.3441 LP  0  0  0  0  0  0  0  0  0  0  0  0  # atno 17395 bound_to 11000

$$$$
