AV-unprocessed.smi:2083|AV-procd|sdf|8508|dock4
  -GOLD-   2272011223D 1   1.00000     0.00000
 Structure written by MMmdl.
 44 45  0  0  0  0  0  0  0  0  3 V2000
  154.5057  136.7688  163.0694 C   0  0  0  0  0  0  0  0  0  0  0  0
  154.0326  136.8111  161.6570 C   0  0  0  0  0  0  0  0  0  0  0  0
  153.4637  137.7926  160.8955 C   0  0  0  0  0  0  0  0  0  0  0  0
  153.2668  137.1537  159.6423 C   0  0  0  0  0  0  0  0  0  0  0  0
  152.6869  137.8579  158.5540 N   0  0  0  0  0  0  0  0  0  0  0  0
  152.4880  137.4399  157.2903 C   0  0  0  0  0  0  0  0  0  0  0  0
  152.8006  136.2906  156.9567 O   0  0  0  0  0  0  0  0  0  0  0  0
  151.9348  138.4077  156.5087 N   0  5  0  0  0  0  0  0  0  0  0  0
  152.0924  139.8455  156.7278 C   0  0  0  0  0  0  0  0  0  0  0  0
  151.0720  140.3479  157.7828 C   0  0  2  0  0  0  0  0  0  0  0  0
  149.5960  140.3115  157.3114 C   0  0  0  0  0  0  0  0  0  0  0  0
  151.4814  141.6869  158.3111 N   0  3  2  0  0  0  0  0  0  0  0  0
  151.2556  142.7952  157.3454 C   0  0  0  0  0  0  0  0  0  0  0  0
  151.4116  144.1616  158.0323 C   0  0  0  0  0  0  0  0  0  0  0  0
  152.7810  144.2885  158.7158 C   0  0  0  0  0  0  0  0  0  0  0  0
  153.0464  143.1044  159.6648 C   0  0  1  0  0  0  0  0  0  0  0  0
  152.2247  143.1810  160.9636 C   0  0  0  0  0  0  0  0  0  0  0  0
  152.8410  141.7673  158.9250 C   0  0  0  0  0  0  0  0  0  0  0  0
  153.6799  135.8948  159.6404 N   0  0  0  0  0  0  0  0  0  0  0  0
  154.1721  135.6689  160.9313 O   0  0  0  0  0  0  0  0  0  0  0  0
  154.2453  137.6877  163.5951 H   0  0  0  0  0  0  0  0  0  0  0  0
  155.5885  136.6511  163.1101 H   0  0  0  0  0  0  0  0  0  0  0  0
  154.0531  135.9338  163.6040 H   0  0  0  0  0  0  0  0  0  0  0  0
  153.2278  138.8046  161.1888 H   0  0  0  0  0  0  0  0  0  0  0  0
  152.3970  138.8038  158.7525 H   0  0  0  0  0  0  0  0  0  0  0  0
  153.0950  140.0896  157.0835 H   0  0  0  0  0  0  0  0  0  0  0  0
  151.9652  140.4124  155.8051 H   0  0  0  0  0  0  0  0  0  0  0  0
  151.1480  139.6476  158.6165 H   0  0  0  0  0  0  0  0  0  0  0  0
  149.2705  139.2970  157.0749 H   0  0  0  0  0  0  0  0  0  0  0  0
  149.4198  140.9218  156.4239 H   0  0  0  0  0  0  0  0  0  0  0  0
  148.9304  140.6737  158.0950 H   0  0  0  0  0  0  0  0  0  0  0  0
  151.9550  142.7048  156.5130 H   0  0  0  0  0  0  0  0  0  0  0  0
  150.2512  142.7310  156.9255 H   0  0  0  0  0  0  0  0  0  0  0  0
  151.2872  144.9604  157.3005 H   0  0  0  0  0  0  0  0  0  0  0  0
  150.6161  144.2955  158.7661 H   0  0  0  0  0  0  0  0  0  0  0  0
  153.5579  144.3156  157.9506 H   0  0  0  0  0  0  0  0  0  0  0  0
  152.8501  145.2347  159.2537 H   0  0  0  0  0  0  0  0  0  0  0  0
  154.0948  143.1563  159.9617 H   0  0  0  0  0  0  0  0  0  0  0  0
  151.1533  143.1138  160.7742 H   0  0  0  0  0  0  0  0  0  0  0  0
  152.4106  144.1176  161.4898 H   0  0  0  0  0  0  0  0  0  0  0  0
  152.4886  142.3679  161.6404 H   0  0  0  0  0  0  0  0  0  0  0  0
  153.0039  140.9419  159.6190 H   0  0  0  0  0  0  0  0  0  0  0  0
  153.5981  141.6712  158.1453 H   0  0  0  0  0  0  0  0  0  0  0  0
  150.8302  141.8616  159.0635 H   0  0  0  0  0  0  0  0  0  0  0  0
  1  2  1  0  0  0  0
  1 21  1  0  0  0  0
  1 22  1  0  0  0  0
  1 23  1  0  0  0  0
  2 20  1  0  0  0  0
  2  3  2  0  0  0  0
  3  4  1  0  0  0  0
  3 24  1  0  0  0  0
  4  5  1  0  0  0  0
  4 19  2  0  0  0  0
  5  6  1  0  0  0  0
  5 25  1  0  0  0  0
  6  7  2  0  0  0  0
  6  8  1  0  0  0  0
  8  9  1  0  0  0  0
  9 10  1  0  0  0  0
  9 26  1  0  0  0  0
  9 27  1  0  0  0  0
 10 11  1  0  0  0  0
 10 12  1  0  0  0  0
 10 28  1  0  0  0  0
 11 29  1  0  0  0  0
 11 30  1  0  0  0  0
 11 31  1  0  0  0  0
 12 18  1  0  0  0  0
 12 13  1  0  0  0  0
 12 44  1  0  0  0  0
 13 14  1  0  0  0  0
 13 32  1  0  0  0  0
 13 33  1  0  0  0  0
 14 15  1  0  0  0  0
 14 34  1  0  0  0  0
 14 35  1  0  0  0  0
 15 16  1  0  0  0  0
 15 36  1  0  0  0  0
 15 37  1  0  0  0  0
 16 17  1  0  0  0  0
 16 18  1  0  0  0  0
 16 38  1  0  0  0  0
 17 39  1  0  0  0  0
 17 40  1  0  0  0  0
 17 41  1  0  0  0  0
 18 42  1  0  0  0  0
 18 43  1  0  0  0  0
 19 20  1  0  0  0  0
M  CHG  1   8  -1
M  CHG  1  12   1
M  END
> <s_m_source_file>
AV-unprocessed.smi

> <i_m_source_file_index>
2083

> <i_lp_mmshare_version>
43012

> <i_f3d_flags>
0

> <s_epik_input>
W0NIM11jMVtjSF1jKG5vMSlbTkhdQyg9TylbTkhdW0NIMl1bQ0BIXShbQ0gzXSlOMltDSDJdW0NIMl1bQ0gyXVtDQEBIXShbQ0gzXSlbQ0gyXTI=

> <s_epik_cmdline>
J2VwaWtfcHl0aG9uJywgJy1waCcsICc3LjAnLCAnLXRuJywgJzgnLCAnLW1hJywgJzIwMCcsICctbWV0YWxfYmluZGluZycsICctaW1hZScsICc8aW5maWxlLm1hZT4nLCAnLW9tYWUnLCAnPG91dGZpbGUubWFlPic=

> <r_epik_Ionization_Penalty>
6.76934

> <r_epik_Ionization_Penalty_Charging>
6.76934

> <r_epik_Ionization_Penalty_Neutral>
5.77849e-06

> <r_epik_State_Penalty>
6.79457

> <r_epik_Charging_Adjusted_Penalty>
13.5639

> <i_epik_Tot_Q>
0

> <i_epik_Tot_abs_Q>
2

> <r_epik_Metal_State_Penalty>
2.72837

> <b_epik_Metal_Only>
1

> <s_lp_Force_Field>
OPLS_2005

> <r_lp_Energy>
20.5905

> <b_lp_Chiralities_Consistent>
1

> <s_lp_Variant>
AV-unprocessed.smi:2083-19

> <Gold.Version>
5.8.1

> <Gold.Id.Protein>
6NUR|6NUR_protein|mol2

> <Gold.PLP.Fitness>
41.4254

> <Gold.PLP.PLP>
-37.1085

> <Gold.PLP.part.hbond>
-2.0417

> <Gold.PLP.part.metal>
0.0000

> <Gold.PLP.part.buried>
-4.0638

> <Gold.PLP.part.nonpolar>
-30.3852

> <Gold.PLP.part.repulsive>
0.1672

> <Gold.PLP.ligand.clash>
0.0000

> <Gold.PLP.ligand.torsion>
0.4763

> <Gold.PLP.Chemscore.Hbond>
1.7000

> <Gold.PLP.Chemscore.CHOScore>
0.0000

> <Gold.PLP.Chemscore.Metal>
0.0000

> <Gold.Chemscore.Hbonds>
donor molecule, donor type, donor heavy atom, donor atom, acceptor molecule, acceptor atom, score
      P1  H  6896  6909       L1    19  0.50
      P1  H 10752 10765       L1     7  1.00

> <Gold.PLP.Chemscore.Internal.Correction>
0.1694

> <Gold.Rescore>
     Score         DG    S(hbond)    S(metal)    S(lipo)     H(rot)  DE(clash)    DE(int)     intcor
     15.90     -17.94       1.37        0.00     100.62       1.52       0.28       1.77       ----

> <Gold.Chemscore.Fitness>
15.8956

> <Gold.Chemscore.DG>
-17.9429

> <Gold.Chemscore.ZeroCoef>
-5.4800

> <Gold.Chemscore.Hbond>
1.3710

> <Gold.Chemscore.Metal>
0.0000

> <Gold.Chemscore.Lipo>
100.6190

> <Gold.Chemscore.Internal_Hbond>
0.0000

> <Gold.Chemscore.DEClash>
0.2809

> <Gold.Chemscore.DEInternal>
1.7664

> <Gold.Chemscore.Rot>
1.5190

> <Gold.Chemscore.Internal.Correction>
   9.000000E+99

> <Gold.Chemscore.Hbonds>
donor molecule, donor type, donor heavy atom, donor atom, acceptor molecule, acceptor atom, score
      P1  H  6896  6909       L1    19  0.01
      P1  H 10752 10765       L1     7  0.97

> <Gold.Chemscore.Hbond.Weighted>
-4.5792

> <Gold.Chemscore.Metal.Weighted>
-0.0000

> <Gold.Chemscore.Lipo.Weighted>
-11.7724

> <Gold.Chemscore.Internal_Hbond.Weighted>
0.0000

> <Gold.Chemscore.DEClash.Weighted>
0.2809

> <Gold.Chemscore.DEInternal.Weighted>
1.7664

> <Gold.Chemscore.Rot.Weighted>
3.8886

> <Gold.Chemscore.Internal.Correction.Weighted>
   9.000000E+99

> <Gold.Protein.RotatedTorsions>
[ 6907 6896 6895 6894 ] final  157.44 input  -60.11 | X-H torsion
[ 7974 7965 7964 7962 ] final -105.26 input  175.53 | X-H torsion
[ 8008 7997 7996 7995 ] final  -88.13 input   59.86 | X-H torsion
[ 10167 10162 10161 10158 ] final   52.11 input  -65.29 | X-H torsion
[ 10718 10713 10712 10709 ] final  -93.16 input   66.30 | X-H torsion
[ 10763 10752 10751 10750 ] final -123.21 input  -60.55 | X-H torsion
[ 11005 11000 10999 10996 ] final   80.15 input  -57.11 | X-H torsion

> <Gold.Protein.ActiveResidues>
 VAL166  LYS551  ARG553  GLY616  TRP617  ASP618  TYR619  PRO620  LYS621  CYS622 
 ASP623  PHE694  ASN695  SER759  ASP760  ASP761  ALA762  ILE779  LEU786  VAL792 
 PHE793  MET794  SER795  GLU796  ALA797  LYS798  CYS799  TRP800  GLU811  SER814 

> <Gold.Protein.RotatedAtoms>
  152.0151  133.3876  159.4235 H   0  0  0  0  0  0  0  0  0  0  0  0  # atno 6907 bound_to 6896
  150.6895  134.3687  159.4992 H   0  0  0  0  0  0  0  0  0  0  0  0  # atno 6908 bound_to 6896
  152.1453  134.9030  160.0602 H   0  0  0  0  0  0  0  0  0  0  0  0  # atno 6909 bound_to 6896
  145.2327  140.9176  143.3195 H   0  0  0  0  0  0  0  0  0  0  0  0  # atno 7974 bound_to 7965
  154.6712  140.0557  157.0167 H   0  0  0  0  0  0  0  0  0  0  0  0  # atno 8008 bound_to 7997
  155.1086  140.3236  155.4509 H   0  0  0  0  0  0  0  0  0  0  0  0  # atno 8009 bound_to 7997
  156.2658  140.2018  156.6211 H   0  0  0  0  0  0  0  0  0  0  0  0  # atno 8010 bound_to 7997
  140.2549  144.3438  150.6336 H   0  0  0  0  0  0  0  0  0  0  0  0  # atno 10167 bound_to 10162
  156.0010  130.5016  150.5735 H   0  0  0  0  0  0  0  0  0  0  0  0  # atno 10718 bound_to 10713
  154.8704  135.4106  154.2907 H   0  0  0  0  0  0  0  0  0  0  0  0  # atno 10763 bound_to 10752
  153.3783  135.7010  153.6590 H   0  0  0  0  0  0  0  0  0  0  0  0  # atno 10764 bound_to 10752
  153.5423  135.3645  155.2695 H   0  0  0  0  0  0  0  0  0  0  0  0  # atno 10765 bound_to 10752
  139.9145  134.7898  156.1871 H   0  0  0  0  0  0  0  0  0  0  0  0  # atno 11005 bound_to 11000
  144.9661  139.3928  143.6332 LP  0  0  0  0  0  0  0  0  0  0  0  0  # atno 17320 bound_to 7965
  146.3349  139.8737  142.8835 LP  0  0  0  0  0  0  0  0  0  0  0  0  # atno 17321 bound_to 7965
  140.6012  143.2167  151.7069 LP  0  0  0  0  0  0  0  0  0  0  0  0  # atno 17342 bound_to 10162
  139.5035  144.3790  152.0395 LP  0  0  0  0  0  0  0  0  0  0  0  0  # atno 17343 bound_to 10162
  157.3626  131.0752  151.1624 LP  0  0  0  0  0  0  0  0  0  0  0  0  # atno 17370 bound_to 10713
  157.2404  130.6566  149.5887 LP  0  0  0  0  0  0  0  0  0  0  0  0  # atno 17371 bound_to 10713
  141.0606  133.6843  156.1946 LP  0  0  0  0  0  0  0  0  0  0  0  0  # atno 17394 bound_to 11000
  140.6666  134.4911  157.5585 LP  0  0  0  0  0  0  0  0  0  0  0  0  # atno 17395 bound_to 11000

$$$$
