AV-unprocessed.smi:283|AV-procd|sdf|2155|dock10
  -GOLD-   2262021503D 1   1.00000     0.00000
 Structure written by MMmdl.
 48 51  0  0  0  0  0  0  0  0  1 V2000
  150.0634  141.3840  157.1050 C   0  0  0  0  0  0  0  0  0  0  0  0
  151.5576  141.5147  157.4283 C   0  0  2  0  0  0  0  0  0  0  0  0
  152.1430  140.1860  157.6004 N   0  0  0  0  0  0  0  0  0  0  0  0
  152.0113  139.2393  156.6448 C   0  0  0  0  0  0  0  0  0  0  0  0
  152.8879  139.3180  155.6156 N   0  0  0  0  0  0  0  0  0  0  0  0
  152.8151  138.4474  154.6052 C   0  0  0  0  0  0  0  0  0  0  0  0
  151.9531  137.4447  154.4291 N   0  0  0  0  0  0  0  0  0  0  0  0
  151.0719  137.3519  155.4666 C   0  0  0  0  0  0  0  0  0  0  0  0
  151.0451  138.1910  156.6165 C   0  0  0  0  0  0  0  0  0  0  0  0
  150.0408  137.7592  157.4738 N   0  0  0  0  0  0  0  0  0  0  0  0
  149.4980  136.7476  156.8554 C   0  0  0  0  0  0  0  0  0  0  0  0
  150.0276  136.4619  155.6154 N   0  0  0  0  0  0  0  0  0  0  0  0
  149.6379  135.3769  154.6552 C   0  0  1  0  0  0  0  0  0  0  0  0
  150.4483  134.2657  154.9116 O   0  0  0  0  0  0  0  0  0  0  0  0
  149.7387  133.2691  155.6449 C   0  0  1  0  0  0  0  0  0  0  0  0
  149.8979  133.4936  157.1624 C   0  0  0  0  0  0  0  0  0  0  0  0
  151.1553  133.0240  157.5990 O   0  0  0  0  0  0  0  0  0  0  0  0
  148.3017  133.4292  155.1428 C   0  0  2  0  0  0  0  0  0  0  0  0
  148.1408  132.6438  153.9739 O   0  0  0  0  0  0  0  0  0  0  0  0
  148.1784  134.9302  154.8822 C   0  0  2  0  0  0  0  0  0  0  0  0
  147.3303  135.2139  153.7852 O   0  0  0  0  0  0  0  0  0  0  0  0
  151.7650  142.4685  158.6095 C   0  0  0  0  0  0  0  0  0  0  0  0
  151.2921  143.7995  158.5331 C   0  0  0  0  0  0  0  0  0  0  0  0
  151.4596  144.6852  159.6137 C   0  0  0  0  0  0  0  0  0  0  0  0
  152.1119  144.2527  160.7821 C   0  0  0  0  0  0  0  0  0  0  0  0
  152.6025  142.9367  160.8635 C   0  0  0  0  0  0  0  0  0  0  0  0
  152.4382  142.0458  159.7840 C   0  0  0  0  0  0  0  0  0  0  0  0
  153.0755  140.4456  159.9365 Cl  0  0  0  0  0  0  0  0  0  0  0  0
  149.8409  135.7969  153.6693 H   0  0  0  0  0  0  0  0  0  0  0  0
  150.1491  132.2896  155.3930 H   0  0  0  0  0  0  0  0  0  0  0  0
  147.5676  133.0867  155.8732 H   0  0  0  0  0  0  0  0  0  0  0  0
  147.7801  135.4109  155.7767 H   0  0  0  0  0  0  0  0  0  0  0  0
  149.6240  142.3569  156.8827 H   0  0  0  0  0  0  0  0  0  0  0  0
  149.5120  140.9539  157.9416 H   0  0  0  0  0  0  0  0  0  0  0  0
  149.9025  140.7458  156.2357 H   0  0  0  0  0  0  0  0  0  0  0  0
  152.0340  141.9354  156.5447 H   0  0  0  0  0  0  0  0  0  0  0  0
  152.8666  140.1340  158.3025 H   0  0  0  0  0  0  0  0  0  0  0  0
  153.5461  138.5786  153.8212 H   0  0  0  0  0  0  0  0  0  0  0  0
  148.6813  136.1910  157.2911 H   0  0  0  0  0  0  0  0  0  0  0  0
  149.8383  134.5577  157.3918 H   0  0  0  0  0  0  0  0  0  0  0  0
  149.1125  132.9950  157.7307 H   0  0  0  0  0  0  0  0  0  0  0  0
  151.8084  133.2805  156.9657 H   0  0  0  0  0  0  0  0  0  0  0  0
  147.2156  132.5386  153.8120 H   0  0  0  0  0  0  0  0  0  0  0  0
  147.8594  135.2472  153.0027 H   0  0  0  0  0  0  0  0  0  0  0  0
  150.7891  144.1487  157.6432 H   0  0  0  0  0  0  0  0  0  0  0  0
  151.0869  145.6966  159.5457 H   0  0  0  0  0  0  0  0  0  0  0  0
  152.2406  144.9309  161.6129 H   0  0  0  0  0  0  0  0  0  0  0  0
  153.1096  142.6100  161.7595 H   0  0  0  0  0  0  0  0  0  0  0  0
  1  2  1  0  0  0  0
  1 33  1  0  0  0  0
  1 34  1  0  0  0  0
  1 35  1  0  0  0  0
  2  3  1  0  0  0  0
  2 22  1  0  0  0  0
  2 36  1  0  0  0  0
  3  4  1  0  0  0  0
  3 37  1  0  0  0  0
  4  9  1  0  0  0  0
  4  5  2  0  0  0  0
  5  6  1  0  0  0  0
  6  7  2  0  0  0  0
  6 38  1  0  0  0  0
  7  8  1  0  0  0  0
  8 12  1  0  0  0  0
  8  9  2  0  0  0  0
  9 10  1  0  0  0  0
 10 11  2  0  0  0  0
 11 12  1  0  0  0  0
 11 39  1  0  0  0  0
 12 13  1  0  0  0  0
 13 29  1  0  0  0  0
 13 20  1  0  0  0  0
 13 14  1  0  0  0  0
 14 15  1  0  0  0  0
 15 30  1  0  0  0  0
 15 16  1  0  0  0  0
 15 18  1  0  0  0  0
 16 17  1  0  0  0  0
 16 40  1  0  0  0  0
 16 41  1  0  0  0  0
 17 42  1  0  0  0  0
 18 31  1  0  0  0  0
 18 19  1  0  0  0  0
 18 20  1  0  0  0  0
 19 43  1  0  0  0  0
 20 32  1  0  0  0  0
 20 21  1  0  0  0  0
 21 44  1  0  0  0  0
 22 27  1  0  0  0  0
 22 23  2  0  0  0  0
 23 24  1  0  0  0  0
 23 45  1  0  0  0  0
 24 25  2  0  0  0  0
 24 46  1  0  0  0  0
 25 26  1  0  0  0  0
 25 47  1  0  0  0  0
 26 27  2  0  0  0  0
 26 48  1  0  0  0  0
 27 28  1  0  0  0  0
M  END
> <s_m_source_file>
AV-unprocessed.smi

> <i_m_source_file_index>
283

> <i_lp_mmshare_version>
43012

> <i_f3d_flags>
0

> <s_epik_input>
Q2xjMVtjSF1bY0hdW2NIXVtjSF1jMVtDQEhdKFtDSDNdKVtOSF1jKG5bY0hdbjIpYyhjMjMpbltjSF1uM1tDQEBIXTRPW0NASF0oW0NIMl1bT0hdKVtDQEBIXShbT0hdKVtDQEhdNFtPSF0=

> <s_epik_cmdline>
J2VwaWtfcHl0aG9uJywgJy1waCcsICc3LjAnLCAnLXRuJywgJzgnLCAnLW1hJywgJzIwMCcsICctbWV0YWxfYmluZGluZycsICctaW1hZScsICc8aW5maWxlLm1hZT4nLCAnLW9tYWUnLCAnPG91dGZpbGUubWFlPic=

> <r_lp_tautomer_probability>
1

> <r_epik_Ionization_Penalty>
0.000266407

> <r_epik_Ionization_Penalty_Charging>
0

> <r_epik_Ionization_Penalty_Neutral>
0.000266407

> <r_epik_State_Penalty>
-0

> <r_epik_Charging_Adjusted_Penalty>
0

> <i_epik_Tot_Q>
0

> <i_epik_Tot_abs_Q>
0

> <r_epik_Metal_State_Penalty>
-0

> <b_epik_Metal_Only>
0

> <s_epik_Chemistry_Notes>
This compound contains an acetal/aminal-like group ( X-CH(R)-Y where X, Y are N, S, or O) that may be acid/base labile, releasing an aldehyde.

> <s_lp_Force_Field>
OPLS_2005

> <r_lp_Energy>
45.281

> <b_lp_Chiralities_Consistent>
1

> <s_lp_Variant>
AV-unprocessed.smi:283-31

> <Gold.Version>
5.8.1

> <Gold.Id.Protein>
6NUR|6NUR_protein|mol2

> <Gold.PLP.Fitness>
51.3835

> <Gold.PLP.PLP>
-42.6410

> <Gold.PLP.part.hbond>
-4.0000

> <Gold.PLP.part.metal>
0.0000

> <Gold.PLP.part.buried>
-5.7313

> <Gold.PLP.part.nonpolar>
-34.2864

> <Gold.PLP.part.repulsive>
0.3529

> <Gold.PLP.ligand.clash>
0.0000

> <Gold.PLP.ligand.torsion>
1.5618

> <Gold.PLP.Chemscore.Hbond>
3.9200

> <Gold.PLP.Chemscore.CHOScore>
0.0000

> <Gold.PLP.Chemscore.Metal>
0.0000

> <Gold.Chemscore.Hbonds>
donor molecule, donor type, donor heavy atom, donor atom, acceptor molecule, acceptor atom, score
      L1  H    21    44       P1  7948  1.00
      P1  H  6896  6907       L1    17  0.96
      P1  H  7997  8010       L1     5  1.00
      P1  H 10752 10765       L1     7  0.92

> <Gold.PLP.Chemscore.Internal.Correction>
0.1060

> <Gold.Rescore>
     Score         DG    S(hbond)    S(metal)    S(lipo)     H(rot)  DE(clash)    DE(int)     intcor
     14.79     -18.28       3.18        0.00     108.26       4.10       0.29       3.21       ----

> <Gold.Chemscore.Fitness>
14.7907

> <Gold.Chemscore.DG>
-18.2841

> <Gold.Chemscore.ZeroCoef>
-5.4800

> <Gold.Chemscore.Hbond>
3.1813

> <Gold.Chemscore.Metal>
0.0000

> <Gold.Chemscore.Lipo>
108.2605

> <Gold.Chemscore.Internal_Hbond>
0.0000

> <Gold.Chemscore.DEClash>
0.2851

> <Gold.Chemscore.DEInternal>
3.2083

> <Gold.Chemscore.Rot>
4.0968

> <Gold.Chemscore.Internal.Correction>
   9.000000E+99

> <Gold.Chemscore.Hbonds>
donor molecule, donor type, donor heavy atom, donor atom, acceptor molecule, acceptor atom, score
      L1  H    21    44       P1  7948  0.94
      P1  H  6896  6907       L1    17  0.46
      P1  H  7997  8010       L1     5  0.90
      P1  H 10752 10765       L1     7  0.40

> <Gold.Chemscore.Hbond.Weighted>
-10.6256

> <Gold.Chemscore.Metal.Weighted>
-0.0000

> <Gold.Chemscore.Lipo.Weighted>
-12.6665

> <Gold.Chemscore.Internal_Hbond.Weighted>
0.0000

> <Gold.Chemscore.DEClash.Weighted>
0.2851

> <Gold.Chemscore.DEInternal.Weighted>
3.2083

> <Gold.Chemscore.Rot.Weighted>
10.4879

> <Gold.Chemscore.Internal.Correction.Weighted>
   9.000000E+99

> <Gold.Protein.RotatedTorsions>
[ 6907 6896 6895 6894 ] final -153.07 input  -60.11 | X-H torsion
[ 7974 7965 7964 7962 ] final   44.26 input  175.53 | X-H torsion
[ 8008 7997 7996 7995 ] final  100.32 input   59.86 | X-H torsion
[ 10167 10162 10161 10158 ] final -173.21 input  -65.29 | X-H torsion
[ 10718 10713 10712 10709 ] final   -8.10 input   66.30 | X-H torsion
[ 10763 10752 10751 10750 ] final  162.87 input  -60.55 | X-H torsion
[ 11005 11000 10999 10996 ] final  135.98 input  -57.11 | X-H torsion

> <Gold.Protein.ActiveResidues>
 VAL166  LYS551  ARG553  GLY616  TRP617  ASP618  TYR619  PRO620  LYS621  CYS622 
 ASP623  PHE694  ASN695  SER759  ASP760  ASP761  ALA762  ILE779  LEU786  VAL792 
 PHE793  MET794  SER795  GLU796  ALA797  LYS798  CYS799  TRP800  GLU811  SER814 

> <Gold.Protein.RotatedAtoms>
  151.2372  133.4419  159.2605 H   0  0  0  0  0  0  0  0  0  0  0  0  # atno 6907 bound_to 6896
  151.0739  134.9816  159.8332 H   0  0  0  0  0  0  0  0  0  0  0  0  # atno 6908 bound_to 6896
  152.5416  134.2315  159.8880 H   0  0  0  0  0  0  0  0  0  0  0  0  # atno 6909 bound_to 6896
  146.0584  139.5095  142.9674 H   0  0  0  0  0  0  0  0  0  0  0  0  # atno 7974 bound_to 7965
  156.1191  140.3215  155.8182 H   0  0  0  0  0  0  0  0  0  0  0  0  # atno 8008 bound_to 7997
  155.4536  140.0534  157.3015 H   0  0  0  0  0  0  0  0  0  0  0  0  # atno 8009 bound_to 7997
  154.4814  140.2055  155.9768 H   0  0  0  0  0  0  0  0  0  0  0  0  # atno 8010 bound_to 7997
  139.5701  144.1662  152.1371 H   0  0  0  0  0  0  0  0  0  0  0  0  # atno 10167 bound_to 10162
  156.7076  130.5112  149.5900 H   0  0  0  0  0  0  0  0  0  0  0  0  # atno 10718 bound_to 10713
  154.2851  135.2762  155.2680 H   0  0  0  0  0  0  0  0  0  0  0  0  # atno 10763 bound_to 10752
  154.5184  135.5763  153.6664 H   0  0  0  0  0  0  0  0  0  0  0  0  # atno 10764 bound_to 10752
  152.9923  135.6198  154.3012 H   0  0  0  0  0  0  0  0  0  0  0  0  # atno 10765 bound_to 10752
  140.0015  134.9476  157.0083 H   0  0  0  0  0  0  0  0  0  0  0  0  # atno 11005 bound_to 11000
  145.6603  141.0242  143.1713 LP  0  0  0  0  0  0  0  0  0  0  0  0  # atno 17320 bound_to 7965
  144.7161  139.8192  143.7398 LP  0  0  0  0  0  0  0  0  0  0  0  0  # atno 17321 bound_to 7965
  140.1193  144.5388  150.6873 LP  0  0  0  0  0  0  0  0  0  0  0  0  # atno 17342 bound_to 10162
  140.6985  143.2419  151.4931 LP  0  0  0  0  0  0  0  0  0  0  0  0  # atno 17343 bound_to 10162
  156.1684  130.6421  151.0807 LP  0  0  0  0  0  0  0  0  0  0  0  0  # atno 17370 bound_to 10713
  157.6949  131.0797  150.6999 LP  0  0  0  0  0  0  0  0  0  0  0  0  # atno 17371 bound_to 10713
  140.4719  134.1378  155.7204 LP  0  0  0  0  0  0  0  0  0  0  0  0  # atno 17394 bound_to 11000
  141.1645  133.8729  157.1753 LP  0  0  0  0  0  0  0  0  0  0  0  0  # atno 17395 bound_to 11000

$$$$
