AV-unprocessed.smi:2247|AV-procd|sdf|9093|dock5
  -GOLD-   2272012293D 1   1.00000     0.00000
 Structure written by MMmdl.
 33 34  0  0  0  0  0  0  0  0  2 V2000
  152.9332  141.4094  160.7044 C   0  0  0  0  0  0  0  0  0  0  0  0
  152.5448  142.0152  159.3432 C   0  0  0  0  0  0  0  0  0  0  0  0
  151.5323  143.1613  159.4996 C   0  0  0  0  0  0  0  0  0  0  0  0
  152.0359  141.0125  158.3964 N   0  0  0  0  0  0  0  0  0  0  0  0
  150.7504  141.1452  157.7301 C   0  0  0  0  0  0  0  0  0  0  0  0
  150.7486  140.0511  156.6582 C   0  0  0  0  0  0  0  0  0  0  0  0
  151.8761  139.0726  157.0241 C   0  0  2  0  0  0  0  0  0  0  0  0
  151.3104  137.8745  157.6416 N   0  0  0  0  0  0  0  0  0  0  0  0
  150.3853  137.8473  158.6121 C   0  0  0  0  0  0  0  0  0  0  0  0
  149.9365  138.9030  159.0646 O   0  0  0  0  0  0  0  0  0  0  0  0
  150.0403  136.5984  158.9986 N   0  5  0  0  0  0  0  0  0  0  0  0
  148.7979  136.3580  159.4474 C   0  0  0  0  0  0  0  0  0  0  0  0
  147.9882  137.2359  160.0420 N   0  0  0  0  0  0  0  0  0  0  0  0
  146.8187  136.5449  160.3195 C   0  0  0  0  0  0  0  0  0  0  0  0
  146.9711  135.2628  159.8670 C   0  0  0  0  0  0  0  0  0  0  0  0
  148.2139  135.1336  159.3116 O   0  0  0  0  0  0  0  0  0  0  0  0
  152.6632  139.8775  158.0567 C   0  0  0  0  0  0  0  0  0  0  0  0
  153.7583  139.5112  158.4830 O   0  0  0  0  0  0  0  0  0  0  0  0
  153.3894  142.1636  161.3461 H   0  0  0  0  0  0  0  0  0  0  0  0
  153.6575  140.6029  160.5855 H   0  0  0  0  0  0  0  0  0  0  0  0
  152.0682  141.0120  161.2359 H   0  0  0  0  0  0  0  0  0  0  0  0
  153.4584  142.4366  158.9201 H   0  0  0  0  0  0  0  0  0  0  0  0
  151.9151  143.9338  160.1670 H   0  0  0  0  0  0  0  0  0  0  0  0
  150.5891  142.8017  159.9120 H   0  0  0  0  0  0  0  0  0  0  0  0
  151.3175  143.6348  158.5408 H   0  0  0  0  0  0  0  0  0  0  0  0
  149.9474  140.9769  158.4489 H   0  0  0  0  0  0  0  0  0  0  0  0
  150.6210  142.1356  157.2919 H   0  0  0  0  0  0  0  0  0  0  0  0
  149.7739  139.5695  156.5675 H   0  0  0  0  0  0  0  0  0  0  0  0
  150.9691  140.5002  155.6888 H   0  0  0  0  0  0  0  0  0  0  0  0
  152.4900  138.8318  156.1545 H   0  0  0  0  0  0  0  0  0  0  0  0
  151.6441  136.9860  157.2984 H   0  0  0  0  0  0  0  0  0  0  0  0
  145.9795  137.0152  160.8098 H   0  0  0  0  0  0  0  0  0  0  0  0
  146.3409  134.3861  159.8613 H   0  0  0  0  0  0  0  0  0  0  0  0
  1  2  1  0  0  0  0
  1 19  1  0  0  0  0
  1 20  1  0  0  0  0
  1 21  1  0  0  0  0
  2  3  1  0  0  0  0
  2  4  1  0  0  0  0
  2 22  1  0  0  0  0
  3 23  1  0  0  0  0
  3 24  1  0  0  0  0
  3 25  1  0  0  0  0
  4 17  1  0  0  0  0
  4  5  1  0  0  0  0
  5  6  1  0  0  0  0
  5 26  1  0  0  0  0
  5 27  1  0  0  0  0
  6  7  1  0  0  0  0
  6 28  1  0  0  0  0
  6 29  1  0  0  0  0
  7  8  1  0  0  0  0
  7 17  1  0  0  0  0
  7 30  1  0  0  0  0
  8  9  1  0  0  0  0
  8 31  1  0  0  0  0
  9 10  2  0  0  0  0
  9 11  1  0  0  0  0
 11 12  1  0  0  0  0
 12 16  1  0  0  0  0
 12 13  2  0  0  0  0
 13 14  1  0  0  0  0
 14 15  2  0  0  0  0
 14 32  1  0  0  0  0
 15 16  1  0  0  0  0
 15 33  1  0  0  0  0
 17 18  2  0  0  0  0
M  CHG  1  11  -1
M  END
> <s_m_source_file>
AV-unprocessed.smi

> <i_m_source_file_index>
2247

> <i_lp_mmshare_version>
43012

> <i_f3d_flags>
0

> <s_epik_input>
W0NIM11bQ0hdKFtDSDNdKU4xW0NIMl1bQ0gyXVtDQEhdKEMxPU8pW05IXUMoPU8pW05IXWMybltjSF1bY0hdbzI=

> <s_epik_cmdline>
J2VwaWtfcHl0aG9uJywgJy1waCcsICc3LjAnLCAnLXRuJywgJzgnLCAnLW1hJywgJzIwMCcsICctbWV0YWxfYmluZGluZycsICctaW1hZScsICc8aW5maWxlLm1hZT4nLCAnLW9tYWUnLCAnPG91dGZpbGUubWFlPic=

> <r_lp_tautomer_probability>
0.785861

> <r_epik_Ionization_Penalty>
8.37364

> <r_epik_Ionization_Penalty_Charging>
6.20178

> <r_epik_Ionization_Penalty_Neutral>
2.17186

> <r_epik_State_Penalty>
6.22234

> <r_epik_Charging_Adjusted_Penalty>
12.4241

> <i_epik_Tot_Q>
-1

> <i_epik_Tot_abs_Q>
1

> <r_epik_Metal_State_Penalty>
2.14252

> <b_epik_Metal_Only>
1

> <s_lp_Force_Field>
OPLS_2005

> <r_lp_Energy>
16.3016

> <b_lp_Chiralities_Consistent>
1

> <s_lp_Variant>
AV-unprocessed.smi:2247-8

> <Gold.Version>
5.8.1

> <Gold.Id.Protein>
6NUR|6NUR_protein|mol2

> <Gold.PLP.Fitness>
36.4196

> <Gold.PLP.PLP>
-26.4175

> <Gold.PLP.part.hbond>
-5.7334

> <Gold.PLP.part.metal>
0.0000

> <Gold.PLP.part.buried>
0.1769

> <Gold.PLP.part.nonpolar>
-20.9811

> <Gold.PLP.part.repulsive>
0.0531

> <Gold.PLP.ligand.clash>
0.6055

> <Gold.PLP.ligand.torsion>
0.4869

> <Gold.PLP.Chemscore.Hbond>
3.8342

> <Gold.PLP.Chemscore.CHOScore>
0.0000

> <Gold.PLP.Chemscore.Metal>
0.0000

> <Gold.Chemscore.Hbonds>
donor molecule, donor type, donor heavy atom, donor atom, acceptor molecule, acceptor atom, score
      P1  H  6896  6907       L1    11  1.76
      P1  H  6931  6943       L1    13  0.12
      P1  H  6934  6947       L1    13  0.32
      P1  H  7997  8010       L1    18  1.00

> <Gold.PLP.Chemscore.Internal.Correction>
0.0786

> <Gold.Rescore>
     Score         DG    S(hbond)    S(metal)    S(lipo)     H(rot)  DE(clash)    DE(int)     intcor
     11.32     -16.76       2.47        0.00      54.75       1.32       0.06       5.38       ----

> <Gold.Chemscore.Fitness>
11.3206

> <Gold.Chemscore.DG>
-16.7566

> <Gold.Chemscore.ZeroCoef>
-5.4800

> <Gold.Chemscore.Hbond>
2.4717

> <Gold.Chemscore.Metal>
0.0000

> <Gold.Chemscore.Lipo>
54.7455

> <Gold.Chemscore.Internal_Hbond>
0.0000

> <Gold.Chemscore.DEClash>
0.0589

> <Gold.Chemscore.DEInternal>
5.3771

> <Gold.Chemscore.Rot>
1.3219

> <Gold.Chemscore.Internal.Correction>
   9.000000E+99

> <Gold.Chemscore.Hbonds>
donor molecule, donor type, donor heavy atom, donor atom, acceptor molecule, acceptor atom, score
      P1  H  6896  6907       L1    11  0.37
      P1  H  6931  6943       L1    13  0.09
      P1  H  6934  6947       L1    13  0.02
      P1  H  7997  8010       L1    18  0.62

> <Gold.Chemscore.Hbond.Weighted>
-8.2556

> <Gold.Chemscore.Metal.Weighted>
-0.0000

> <Gold.Chemscore.Lipo.Weighted>
-6.4052

> <Gold.Chemscore.Internal_Hbond.Weighted>
0.0000

> <Gold.Chemscore.DEClash.Weighted>
0.0589

> <Gold.Chemscore.DEInternal.Weighted>
5.3771

> <Gold.Chemscore.Rot.Weighted>
3.3842

> <Gold.Chemscore.Internal.Correction.Weighted>
   9.000000E+99

> <Gold.Protein.RotatedTorsions>
[ 6907 6896 6895 6894 ] final  -21.29 input  -60.11 | X-H torsion
[ 7974 7965 7964 7962 ] final   28.66 input  175.53 | X-H torsion
[ 8008 7997 7996 7995 ] final    4.63 input   59.86 | X-H torsion
[ 10167 10162 10161 10158 ] final  -79.76 input  -65.29 | X-H torsion
[ 10718 10713 10712 10709 ] final -128.82 input   66.30 | X-H torsion
[ 10763 10752 10751 10750 ] final -145.10 input  -60.55 | X-H torsion
[ 11005 11000 10999 10996 ] final  -93.51 input  -57.11 | X-H torsion

> <Gold.Protein.ActiveResidues>
 VAL166  LYS551  ARG553  GLY616  TRP617  ASP618  TYR619  PRO620  LYS621  CYS622 
 ASP623  PHE694  ASN695  SER759  ASP760  ASP761  ALA762  ILE779  LEU786  VAL792 
 PHE793  MET794  SER795  GLU796  ALA797  LYS798  CYS799  TRP800  GLU811  SER814 

> <Gold.Protein.RotatedAtoms>
  151.2355  135.0570  159.9004 H   0  0  0  0  0  0  0  0  0  0  0  0  # atno 6907 bound_to 6896
  152.5399  134.0490  159.8112 H   0  0  0  0  0  0  0  0  0  0  0  0  # atno 6908 bound_to 6896
  151.0676  133.5443  159.2661 H   0  0  0  0  0  0  0  0  0  0  0  0  # atno 6909 bound_to 6896
  146.1716  139.7027  142.8963 H   0  0  0  0  0  0  0  0  0  0  0  0  # atno 7974 bound_to 7965
  154.7183  140.2706  155.6565 H   0  0  0  0  0  0  0  0  0  0  0  0  # atno 8008 bound_to 7997
  156.2816  140.2739  156.1772 H   0  0  0  0  0  0  0  0  0  0  0  0  # atno 8009 bound_to 7997
  155.0541  140.0371  157.2544 H   0  0  0  0  0  0  0  0  0  0  0  0  # atno 8010 bound_to 7997
  140.4564  143.2467  151.8413 H   0  0  0  0  0  0  0  0  0  0  0  0  # atno 10167 bound_to 10162
  156.1988  130.6843  151.0514 H   0  0  0  0  0  0  0  0  0  0  0  0  # atno 10718 bound_to 10713
  154.8398  135.3422  154.6451 H   0  0  0  0  0  0  0  0  0  0  0  0  # atno 10763 bound_to 10752
  153.7063  135.6966  153.5054 H   0  0  0  0  0  0  0  0  0  0  0  0  # atno 10764 bound_to 10752
  153.2485  135.4361  155.0726 H   0  0  0  0  0  0  0  0  0  0  0  0  # atno 10765 bound_to 10752
  141.1495  133.7892  157.0169 H   0  0  0  0  0  0  0  0  0  0  0  0  # atno 11005 bound_to 11000
  145.4324  141.0416  143.2903 LP  0  0  0  0  0  0  0  0  0  0  0  0  # atno 17320 bound_to 7965
  144.8172  139.5855  143.7003 LP  0  0  0  0  0  0  0  0  0  0  0  0  # atno 17321 bound_to 7965
  139.4801  144.5060  151.8997 LP  0  0  0  0  0  0  0  0  0  0  0  0  # atno 17342 bound_to 10162
  140.4146  144.2324  150.5888 LP  0  0  0  0  0  0  0  0  0  0  0  0  # atno 17343 bound_to 10162
  157.6973  131.0789  150.6929 LP  0  0  0  0  0  0  0  0  0  0  0  0  # atno 17370 bound_to 10713
  156.6986  130.4616  149.5579 LP  0  0  0  0  0  0  0  0  0  0  0  0  # atno 17371 bound_to 10713
  140.0841  134.9631  157.1671 LP  0  0  0  0  0  0  0  0  0  0  0  0  # atno 17394 bound_to 11000
  140.3536  134.2571  155.7195 LP  0  0  0  0  0  0  0  0  0  0  0  0  # atno 17395 bound_to 11000

$$$$
