AV-unprocessed.smi:3328|AV-procd|sdf|12792|dock4
  -GOLD-   2272019143D 1   1.00000     0.00000
 Structure written by MMmdl.
 41 42  0  0  0  0  0  0  0  0  2 V2000
  144.3175  132.7614  149.1292 C   0  0  0  0  0  0  0  0  0  0  0  0
  145.1791  133.0999  150.3115 C   0  0  0  0  0  0  0  0  0  0  0  0
  144.8207  133.8462  151.4699 C   0  0  0  0  0  0  0  0  0  0  0  0
  145.8159  133.9633  152.3340 N   0  0  0  0  0  0  0  0  0  0  0  0
  146.8428  133.3035  151.7572 N   0  0  0  0  0  0  0  0  0  0  0  0
  148.1221  133.2192  152.4399 C   0  0  0  0  0  0  0  0  0  0  0  0
  148.0581  133.7780  153.8750 C   0  0  1  0  0  0  0  0  0  0  0  0
  149.3580  133.4724  154.6374 C   0  0  0  0  0  0  0  0  0  0  0  0
  147.7897  135.2344  153.8450 N   0  3  0  0  0  0  0  0  0  0  0  0
  147.8620  135.9205  155.1508 C   0  0  0  0  0  0  0  0  0  0  0  0
  147.8863  137.4449  154.9636 C   0  0  0  0  0  0  0  0  0  0  0  0
  149.2513  137.9632  154.9649 N   0  0  0  0  0  0  0  0  0  0  0  0
  150.3890  137.0666  155.0805 C   0  0  0  0  0  0  0  0  0  0  0  0
  151.6180  137.9522  154.8302 C   0  0  0  0  0  0  0  0  0  0  0  0
  151.1217  139.3964  154.9595 C   0  0  0  0  0  0  0  0  0  0  0  0
  149.6101  139.2511  154.9107 C   0  0  0  0  0  0  0  0  0  0  0  0
  148.8468  140.2125  154.8315 O   0  0  0  0  0  0  0  0  0  0  0  0
  146.4861  132.7716  150.5363 C   0  0  0  0  0  0  0  0  0  0  0  0
  143.3244  133.2042  149.2111 H   0  0  0  0  0  0  0  0  0  0  0  0
  144.1810  131.6849  149.0258 H   0  0  0  0  0  0  0  0  0  0  0  0
  144.7531  133.1221  148.1972 H   0  0  0  0  0  0  0  0  0  0  0  0
  143.8706  134.3017  151.7080 H   0  0  0  0  0  0  0  0  0  0  0  0
  148.4209  132.1701  152.4589 H   0  0  0  0  0  0  0  0  0  0  0  0
  148.8761  133.7450  151.8519 H   0  0  0  0  0  0  0  0  0  0  0  0
  147.2314  133.2844  154.3886 H   0  0  0  0  0  0  0  0  0  0  0  0
  149.5677  132.4022  154.6370 H   0  0  0  0  0  0  0  0  0  0  0  0
  149.3002  133.7859  155.6796 H   0  0  0  0  0  0  0  0  0  0  0  0
  150.2118  133.9761  154.1833 H   0  0  0  0  0  0  0  0  0  0  0  0
  148.4284  135.6750  153.1983 H   0  0  0  0  0  0  0  0  0  0  0  0
  146.9986  135.6404  155.7559 H   0  0  0  0  0  0  0  0  0  0  0  0
  148.7535  135.5919  155.6850 H   0  0  0  0  0  0  0  0  0  0  0  0
  147.3979  137.7191  154.0269 H   0  0  0  0  0  0  0  0  0  0  0  0
  147.3174  137.9273  155.7600 H   0  0  0  0  0  0  0  0  0  0  0  0
  150.4117  136.6412  156.0847 H   0  0  0  0  0  0  0  0  0  0  0  0
  150.3267  136.2482  154.3623 H   0  0  0  0  0  0  0  0  0  0  0  0
  152.4249  137.7316  155.5295 H   0  0  0  0  0  0  0  0  0  0  0  0
  152.0025  137.7834  153.8233 H   0  0  0  0  0  0  0  0  0  0  0  0
  151.4130  139.8330  155.9155 H   0  0  0  0  0  0  0  0  0  0  0  0
  151.4899  140.0342  154.1552 H   0  0  0  0  0  0  0  0  0  0  0  0
  147.1836  132.2076  149.9342 H   0  0  0  0  0  0  0  0  0  0  0  0
  146.8498  135.3563  153.4943 H   0  0  0  0  0  0  0  0  0  0  0  0
  1  2  1  0  0  0  0
  1 19  1  0  0  0  0
  1 20  1  0  0  0  0
  1 21  1  0  0  0  0
  2 18  2  0  0  0  0
  2  3  1  0  0  0  0
  3  4  2  0  0  0  0
  3 22  1  0  0  0  0
  4  5  1  0  0  0  0
  5  6  1  0  0  0  0
  5 18  1  0  0  0  0
  6  7  1  0  0  0  0
  6 23  1  0  0  0  0
  6 24  1  0  0  0  0
  7  8  1  0  0  0  0
  7  9  1  0  0  0  0
  7 25  1  0  0  0  0
  8 26  1  0  0  0  0
  8 27  1  0  0  0  0
  8 28  1  0  0  0  0
  9 10  1  0  0  0  0
  9 29  1  0  0  0  0
  9 41  1  0  0  0  0
 10 11  1  0  0  0  0
 10 30  1  0  0  0  0
 10 31  1  0  0  0  0
 11 12  1  0  0  0  0
 11 32  1  0  0  0  0
 11 33  1  0  0  0  0
 12 16  1  0  0  0  0
 12 13  1  0  0  0  0
 13 14  1  0  0  0  0
 13 34  1  0  0  0  0
 13 35  1  0  0  0  0
 14 15  1  0  0  0  0
 14 36  1  0  0  0  0
 14 37  1  0  0  0  0
 15 16  1  0  0  0  0
 15 38  1  0  0  0  0
 15 39  1  0  0  0  0
 16 17  2  0  0  0  0
 18 40  1  0  0  0  0
M  CHG  1   9   1
M  END
> <s_m_source_file>
AV-unprocessed.smi

> <i_m_source_file_index>
3328

> <i_lp_mmshare_version>
43012

> <i_f3d_flags>
0

> <s_epik_input>
W0NIM11jMVtjSF1ubihbY0hdMSlbQ0gyXVtDQEhdKFtDSDNdKVtOSF1bQ0gyXVtDSDJdTjJbQ0gyXVtDSDJdW0NIMl1DMj1P

> <s_epik_cmdline>
J2VwaWtfcHl0aG9uJywgJy1waCcsICc3LjAnLCAnLXRuJywgJzgnLCAnLW1hJywgJzIwMCcsICctbWV0YWxfYmluZGluZycsICctaW1hZScsICc8aW5maWxlLm1hZT4nLCAnLW9tYWUnLCAnPG91dGZpbGUubWFlPic=

> <r_lp_tautomer_probability>
1

> <r_epik_Ionization_Penalty>
0.00826719

> <r_epik_Ionization_Penalty_Charging>
0.00825899

> <r_epik_Ionization_Penalty_Neutral>
8.19932e-06

> <r_epik_State_Penalty>
0.00621436

> <r_epik_Charging_Adjusted_Penalty>
0.0144734

> <i_epik_Tot_Q>
1

> <i_epik_Tot_abs_Q>
1

> <r_epik_Metal_State_Penalty>
0.00621509

> <b_epik_Metal_Only>
0

> <s_lp_Force_Field>
OPLS_2005

> <r_lp_Energy>
19.1629

> <b_lp_Chiralities_Consistent>
1

> <s_lp_Variant>
AV-unprocessed.smi:3328-2

> <Gold.Version>
5.8.1

> <Gold.Id.Protein>
6NUR|6NUR_protein|mol2

> <Gold.PLP.Fitness>
41.1548

> <Gold.PLP.PLP>
-32.9048

> <Gold.PLP.part.hbond>
-1.0000

> <Gold.PLP.part.metal>
0.0000

> <Gold.PLP.part.buried>
-3.5063

> <Gold.PLP.part.nonpolar>
-29.7826

> <Gold.PLP.part.repulsive>
0.1759

> <Gold.PLP.ligand.clash>
0.0000

> <Gold.PLP.ligand.torsion>
0.4199

> <Gold.PLP.Chemscore.Hbond>
2.0000

> <Gold.PLP.Chemscore.CHOScore>
1.0000

> <Gold.PLP.Chemscore.Metal>
0.0000

> <Gold.Chemscore.Hbonds>
donor molecule, donor type, donor heavy atom, donor atom, acceptor molecule, acceptor atom, score
      L1  H     9    29       P1  7948  1.98
      L1  C    18    40       P1 10747  1.00

> <Gold.PLP.Chemscore.Internal.Correction>
0.0897

> <Gold.Rescore>
     Score         DG    S(hbond)    S(metal)    S(lipo)     H(rot)  DE(clash)    DE(int)     intcor
     12.44     -12.86       0.99        0.00      77.97       1.97       0.09       0.33       ----

> <Gold.Chemscore.Fitness>
12.4443

> <Gold.Chemscore.DG>
-12.8595

> <Gold.Chemscore.ZeroCoef>
-5.4800

> <Gold.Chemscore.Hbond>
0.9891

> <Gold.Chemscore.Metal>
0.0000

> <Gold.Chemscore.Lipo>
77.9704

> <Gold.Chemscore.Internal_Hbond>
0.0000

> <Gold.Chemscore.DEClash>
0.0880

> <Gold.Chemscore.DEInternal>
0.3272

> <Gold.Chemscore.Rot>
1.9714

> <Gold.Chemscore.Internal.Correction>
   9.000000E+99

> <Gold.Chemscore.Hbonds>
donor molecule, donor type, donor heavy atom, donor atom, acceptor molecule, acceptor atom, score
      L1  H     9    29       P1  7948  0.92

> <Gold.Chemscore.Hbond.Weighted>
-3.3037

> <Gold.Chemscore.Metal.Weighted>
-0.0000

> <Gold.Chemscore.Lipo.Weighted>
-9.1225

> <Gold.Chemscore.Internal_Hbond.Weighted>
0.0000

> <Gold.Chemscore.DEClash.Weighted>
0.0880

> <Gold.Chemscore.DEInternal.Weighted>
0.3272

> <Gold.Chemscore.Rot.Weighted>
5.0468

> <Gold.Chemscore.Internal.Correction.Weighted>
   9.000000E+99

> <Gold.Protein.RotatedTorsions>
[ 6907 6896 6895 6894 ] final  -50.49 input  -60.11 | X-H torsion
[ 7974 7965 7964 7962 ] final   47.06 input  175.53 | X-H torsion
[ 8008 7997 7996 7995 ] final  107.71 input   59.86 | X-H torsion
[ 10167 10162 10161 10158 ] final  -75.42 input  -65.29 | X-H torsion
[ 10718 10713 10712 10709 ] final -131.65 input   66.30 | X-H torsion
[ 10763 10752 10751 10750 ] final -129.43 input  -60.55 | X-H torsion
[ 11005 11000 10999 10996 ] final  -36.44 input  -57.11 | X-H torsion

> <Gold.Protein.ActiveResidues>
 VAL166  LYS551  ARG553  GLY616  TRP617  ASP618  TYR619  PRO620  LYS621  CYS622 
 ASP623  PHE694  ASN695  SER759  ASP760  ASP761  ALA762  ILE779  LEU786  VAL792 
 PHE793  MET794  SER795  GLU796  ALA797  LYS798  CYS799  TRP800  GLU811  SER814 

> <Gold.Protein.RotatedAtoms>
  150.8702  134.8075  159.7149 H   0  0  0  0  0  0  0  0  0  0  0  0  # atno 6907 bound_to 6896
  152.4709  134.4958  159.9719 H   0  0  0  0  0  0  0  0  0  0  0  0  # atno 6908 bound_to 6896
  151.5048  133.3458  159.2910 H   0  0  0  0  0  0  0  0  0  0  0  0  # atno 6909 bound_to 6896
  146.0333  139.4789  142.9824 H   0  0  0  0  0  0  0  0  0  0  0  0  # atno 7974 bound_to 7965
  156.1845  140.3090  155.9213 H   0  0  0  0  0  0  0  0  0  0  0  0  # atno 8008 bound_to 7997
  155.3310  140.0461  157.3059 H   0  0  0  0  0  0  0  0  0  0  0  0  # atno 8009 bound_to 7997
  154.5380  140.2252  155.8698 H   0  0  0  0  0  0  0  0  0  0  0  0  # atno 8010 bound_to 7997
  140.4944  143.2373  151.7854 H   0  0  0  0  0  0  0  0  0  0  0  0  # atno 10167 bound_to 10162
  156.2266  130.7011  151.0813 H   0  0  0  0  0  0  0  0  0  0  0  0  # atno 10718 bound_to 10713
  154.8757  135.3895  154.3919 H   0  0  0  0  0  0  0  0  0  0  0  0  # atno 10763 bound_to 10752
  153.4654  135.7029  153.6030 H   0  0  0  0  0  0  0  0  0  0  0  0  # atno 10764 bound_to 10752
  153.4511  135.3833  155.2252 H   0  0  0  0  0  0  0  0  0  0  0  0  # atno 10765 bound_to 10752
  140.9875  133.7023  156.1790 H   0  0  0  0  0  0  0  0  0  0  0  0  # atno 11005 bound_to 11000
  145.7006  141.0137  143.1506 LP  0  0  0  0  0  0  0  0  0  0  0  0  # atno 17320 bound_to 7965
  144.7040  139.8639  143.7435 LP  0  0  0  0  0  0  0  0  0  0  0  0  # atno 17321 bound_to 7965
  139.4858  144.4606  151.9545 LP  0  0  0  0  0  0  0  0  0  0  0  0  # atno 17342 bound_to 10162
  140.3693  144.2875  150.5922 LP  0  0  0  0  0  0  0  0  0  0  0  0  # atno 17343 bound_to 10162
  157.7113  131.0732  150.6489 LP  0  0  0  0  0  0  0  0  0  0  0  0  # atno 17370 bound_to 10713
  156.6555  130.4497  149.5705 LP  0  0  0  0  0  0  0  0  0  0  0  0  # atno 17371 bound_to 10713
  140.7092  134.4480  157.5582 LP  0  0  0  0  0  0  0  0  0  0  0  0  # atno 17394 bound_to 11000
  139.8977  134.8631  156.2033 LP  0  0  0  0  0  0  0  0  0  0  0  0  # atno 17395 bound_to 11000

$$$$
