AV-unprocessed.smi:3255|AV-procd|sdf|12460|dock2
  -GOLD-   2272018353D 1   1.00000     0.00000
 Structure written by MMmdl.
 39 40  0  0  0  0  0  0  0  0  2 V2000
  147.5181  132.3229  153.4744 C   0  0  0  0  0  0  0  0  0  0  0  0
  146.4338  133.4019  153.3071 C   0  0  1  0  0  0  0  0  0  0  0  0
  147.0552  134.7231  153.2690 N   0  0  0  0  0  0  0  0  0  0  0  0
  146.6925  135.7713  154.0203 C   0  0  0  0  0  0  0  0  0  0  0  0
  145.7964  135.7415  154.8644 O   0  0  0  0  0  0  0  0  0  0  0  0
  147.4210  136.8609  153.7403 N   0  0  0  0  0  0  0  0  0  0  0  0
  147.2615  138.1552  154.3914 C   0  0  0  0  0  0  0  0  0  0  0  0
  148.3572  139.1440  153.9590 C   0  0  0  0  0  0  0  0  0  0  0  0
  147.9180  140.5327  154.0979 N   0  0  0  0  0  0  0  0  0  0  0  0
  146.8155  141.1141  153.5272 C   0  0  0  0  0  0  0  0  0  0  0  0
  146.8054  142.4212  153.9414 C   0  0  0  0  0  0  0  0  0  0  0  0
  147.9009  142.5809  154.7478 N   0  3  0  0  0  0  0  0  0  0  0  0
  148.5765  141.4307  154.8413 C   0  0  0  0  0  0  0  0  0  0  0  0
  145.6038  133.2003  152.0253 C   0  0  1  0  0  0  0  0  0  0  0  0
  146.4183  133.1742  150.7302 C   0  0  0  0  0  0  0  0  0  0  0  0
  145.5759  132.3286  149.7867 C   0  0  0  0  0  0  0  0  0  0  0  0
  144.5334  131.6760  150.6978 C   0  0  0  0  0  0  0  0  0  0  0  0
  144.9997  131.9156  152.0172 O   0  0  0  0  0  0  0  0  0  0  0  0
  147.0805  131.3266  153.5384 H   0  0  0  0  0  0  0  0  0  0  0  0
  148.0945  132.4800  154.3865 H   0  0  0  0  0  0  0  0  0  0  0  0
  148.2149  132.3273  152.6355 H   0  0  0  0  0  0  0  0  0  0  0  0
  145.7572  133.3525  154.1626 H   0  0  0  0  0  0  0  0  0  0  0  0
  147.8015  134.8514  152.6014 H   0  0  0  0  0  0  0  0  0  0  0  0
  148.1345  136.7886  153.0295 H   0  0  0  0  0  0  0  0  0  0  0  0
  146.2717  138.5601  154.1723 H   0  0  0  0  0  0  0  0  0  0  0  0
  147.3022  138.0007  155.4699 H   0  0  0  0  0  0  0  0  0  0  0  0
  149.2622  139.0082  154.5531 H   0  0  0  0  0  0  0  0  0  0  0  0
  148.6330  138.9899  152.9149 H   0  0  0  0  0  0  0  0  0  0  0  0
  146.1381  140.5681  152.8861 H   0  0  0  0  0  0  0  0  0  0  0  0
  146.1185  143.2274  153.7290 H   0  0  0  0  0  0  0  0  0  0  0  0
  149.4754  141.2613  155.4072 H   0  0  0  0  0  0  0  0  0  0  0  0
  144.8196  133.9572  151.9548 H   0  0  0  0  0  0  0  0  0  0  0  0
  146.6165  134.1725  150.3389 H   0  0  0  0  0  0  0  0  0  0  0  0
  147.3781  132.6831  150.8972 H   0  0  0  0  0  0  0  0  0  0  0  0
  145.0933  132.9371  149.0212 H   0  0  0  0  0  0  0  0  0  0  0  0
  146.1921  131.5824  149.2840 H   0  0  0  0  0  0  0  0  0  0  0  0
  143.5604  132.1526  150.5701 H   0  0  0  0  0  0  0  0  0  0  0  0
  144.4173  130.6088  150.5072 H   0  0  0  0  0  0  0  0  0  0  0  0
  148.1634  143.4432  155.2086 H   0  0  0  0  0  0  0  0  0  0  0  0
  1  2  1  0  0  0  0
  1 19  1  0  0  0  0
  1 20  1  0  0  0  0
  1 21  1  0  0  0  0
  2  3  1  0  0  0  0
  2 14  1  0  0  0  0
  2 22  1  0  0  0  0
  3  4  1  0  0  0  0
  3 23  1  0  0  0  0
  4  5  2  0  0  0  0
  4  6  1  0  0  0  0
  6  7  1  0  0  0  0
  6 24  1  0  0  0  0
  7  8  1  0  0  0  0
  7 25  1  0  0  0  0
  7 26  1  0  0  0  0
  8  9  1  0  0  0  0
  8 27  1  0  0  0  0
  8 28  1  0  0  0  0
  9 13  1  0  0  0  0
  9 10  1  0  0  0  0
 10 11  2  0  0  0  0
 10 29  1  0  0  0  0
 11 12  1  0  0  0  0
 11 30  1  0  0  0  0
 12 13  2  0  0  0  0
 12 39  1  0  0  0  0
 13 31  1  0  0  0  0
 14 18  1  0  0  0  0
 14 15  1  0  0  0  0
 14 32  1  0  0  0  0
 15 16  1  0  0  0  0
 15 33  1  0  0  0  0
 15 34  1  0  0  0  0
 16 17  1  0  0  0  0
 16 35  1  0  0  0  0
 16 36  1  0  0  0  0
 17 18  1  0  0  0  0
 17 37  1  0  0  0  0
 17 38  1  0  0  0  0
M  CHG  1  12   1
M  END
> <s_m_source_file>
AV-unprocessed.smi

> <i_m_source_file_index>
3255

> <i_lp_mmshare_version>
43012

> <i_f3d_flags>
0

> <s_epik_input>
TzFbQ0gyXVtDSDJdW0NIMl1bQ0BIXTFbQ0BIXShbQ0gzXSlbTkhdQyg9TylbTkhdW0NIMl1bQ0gyXW4yW2NIXVtjSF1uW2NIXTI=

> <s_epik_cmdline>
J2VwaWtfcHl0aG9uJywgJy1waCcsICc3LjAnLCAnLXRuJywgJzgnLCAnLW1hJywgJzIwMCcsICctbWV0YWxfYmluZGluZycsICctaW1hZScsICc8aW5maWxlLm1hZT4nLCAnLW9tYWUnLCAnPG91dGZpbGUubWFlPic=

> <r_lp_tautomer_probability>
1

> <r_epik_Ionization_Penalty>
0.256241

> <r_epik_Ionization_Penalty_Charging>
0

> <r_epik_Ionization_Penalty_Neutral>
0.256241

> <r_epik_State_Penalty>
0.247735

> <r_epik_Charging_Adjusted_Penalty>
0.247735

> <i_epik_Tot_Q>
1

> <i_epik_Tot_abs_Q>
1

> <r_epik_Metal_State_Penalty>
0.537184

> <b_epik_Metal_Only>
0

> <s_lp_Force_Field>
OPLS_2005

> <r_lp_Energy>
17.8763

> <b_lp_Chiralities_Consistent>
1

> <s_lp_Variant>
AV-unprocessed.smi:3255-4

> <Gold.Version>
5.8.1

> <Gold.Id.Protein>
6NUR|6NUR_protein|mol2

> <Gold.PLP.Fitness>
44.0379

> <Gold.PLP.PLP>
-29.9942

> <Gold.PLP.part.hbond>
-2.8638

> <Gold.PLP.part.metal>
0.0000

> <Gold.PLP.part.buried>
-5.0079

> <Gold.PLP.part.nonpolar>
-23.7745

> <Gold.PLP.part.repulsive>
0.3601

> <Gold.PLP.ligand.clash>
0.0000

> <Gold.PLP.ligand.torsion>
0.2866

> <Gold.PLP.Chemscore.Hbond>
3.8393

> <Gold.PLP.Chemscore.CHOScore>
1.0000

> <Gold.PLP.Chemscore.Metal>
0.0000

> <Gold.Chemscore.Hbonds>
donor molecule, donor type, donor heavy atom, donor atom, acceptor molecule, acceptor atom, score
      L1  H     3    23       P1  7948  0.86
      L1  H     6    24       P1  7948  1.00
      L1  H    12    39       P1  8028  1.85
      L1  C    10    29       P1 10175  1.00

> <Gold.PLP.Chemscore.Internal.Correction>
0.0992

> <Gold.Rescore>
     Score         DG    S(hbond)    S(metal)    S(lipo)     H(rot)  DE(clash)    DE(int)     intcor
     15.25     -15.60       2.56        0.00      63.07       2.26       0.00       0.35       ----

> <Gold.Chemscore.Fitness>
15.2502

> <Gold.Chemscore.DG>
-15.5998

> <Gold.Chemscore.ZeroCoef>
-5.4800

> <Gold.Chemscore.Hbond>
2.5558

> <Gold.Chemscore.Metal>
0.0000

> <Gold.Chemscore.Lipo>
63.0683

> <Gold.Chemscore.Internal_Hbond>
0.0000

> <Gold.Chemscore.DEClash>
0.0000

> <Gold.Chemscore.DEInternal>
0.3496

> <Gold.Chemscore.Rot>
2.2640

> <Gold.Chemscore.Internal.Correction>
   9.000000E+99

> <Gold.Chemscore.Hbonds>
donor molecule, donor type, donor heavy atom, donor atom, acceptor molecule, acceptor atom, score
      L1  H     3    23       P1  7948  0.77
      L1  H     6    24       P1  7948  0.93
      L1  H    12    39       P1  8028  0.76

> <Gold.Chemscore.Hbond.Weighted>
-8.5365

> <Gold.Chemscore.Metal.Weighted>
-0.0000

> <Gold.Chemscore.Lipo.Weighted>
-7.3790

> <Gold.Chemscore.Internal_Hbond.Weighted>
0.0000

> <Gold.Chemscore.DEClash.Weighted>
0.0000

> <Gold.Chemscore.DEInternal.Weighted>
0.3496

> <Gold.Chemscore.Rot.Weighted>
5.7958

> <Gold.Chemscore.Internal.Correction.Weighted>
   9.000000E+99

> <Gold.Protein.RotatedTorsions>
[ 6907 6896 6895 6894 ] final  -86.87 input  -60.11 | X-H torsion
[ 7974 7965 7964 7962 ] final  166.88 input  175.53 | X-H torsion
[ 8008 7997 7996 7995 ] final  158.28 input   59.86 | X-H torsion
[ 10167 10162 10161 10158 ] final  -51.65 input  -65.29 | X-H torsion
[ 10718 10713 10712 10709 ] final -176.94 input   66.30 | X-H torsion
[ 10763 10752 10751 10750 ] final -166.21 input  -60.55 | X-H torsion
[ 11005 11000 10999 10996 ] final  115.01 input  -57.11 | X-H torsion

> <Gold.Protein.ActiveResidues>
 VAL166  LYS551  ARG553  GLY616  TRP617  ASP618  TYR619  PRO620  LYS621  CYS622 
 ASP623  PHE694  ASN695  SER759  ASP760  ASP761  ALA762  ILE779  LEU786  VAL792 
 PHE793  MET794  SER795  GLU796  ALA797  LYS798  CYS799  TRP800  GLU811  SER814 

> <Gold.Protein.RotatedAtoms>
  150.6866  134.2983  159.4695 H   0  0  0  0  0  0  0  0  0  0  0  0  # atno 6907 bound_to 6896
  152.0882  134.9423  160.0581 H   0  0  0  0  0  0  0  0  0  0  0  0  # atno 6908 bound_to 6896
  152.0749  133.4090  159.4512 H   0  0  0  0  0  0  0  0  0  0  0  0  # atno 6909 bound_to 6896
  144.7445  139.8680  143.6386 H   0  0  0  0  0  0  0  0  0  0  0  0  # atno 7974 bound_to 7965
  156.2312  140.1862  156.7236 H   0  0  0  0  0  0  0  0  0  0  0  0  # atno 8008 bound_to 7997
  154.6026  140.0633  156.9417 H   0  0  0  0  0  0  0  0  0  0  0  0  # atno 8009 bound_to 7997
  155.2148  140.3303  155.4326 H   0  0  0  0  0  0  0  0  0  0  0  0  # atno 8010 bound_to 7997
  140.6578  143.2612  151.4534 H   0  0  0  0  0  0  0  0  0  0  0  0  # atno 10167 bound_to 10162
  156.8222  130.9624  151.3111 H   0  0  0  0  0  0  0  0  0  0  0  0  # atno 10718 bound_to 10713
  154.6855  135.2962  154.9553 H   0  0  0  0  0  0  0  0  0  0  0  0  # atno 10763 bound_to 10752
  154.0534  135.6641  153.4807 H   0  0  0  0  0  0  0  0  0  0  0  0  # atno 10764 bound_to 10752
  153.0576  135.5135  154.7920 H   0  0  0  0  0  0  0  0  0  0  0  0  # atno 10765 bound_to 10752
  139.8997  134.9577  156.6980 H   0  0  0  0  0  0  0  0  0  0  0  0  # atno 11005 bound_to 11000
  146.1301  139.4334  143.0174 LP  0  0  0  0  0  0  0  0  0  0  0  0  # atno 17320 bound_to 7965
  145.7176  141.0085  143.1419 LP  0  0  0  0  0  0  0  0  0  0  0  0  # atno 17321 bound_to 7965
  139.5804  144.1723  152.1960 LP  0  0  0  0  0  0  0  0  0  0  0  0  # atno 17342 bound_to 10162
  140.1046  144.5510  150.6965 LP  0  0  0  0  0  0  0  0  0  0  0  0  # atno 17343 bound_to 10162
  157.6451  130.8837  149.9522 LP  0  0  0  0  0  0  0  0  0  0  0  0  # atno 17370 bound_to 10713
  156.0982  130.3657  150.0266 LP  0  0  0  0  0  0  0  0  0  0  0  0  # atno 17371 bound_to 10713
  140.7173  133.9171  155.8123 LP  0  0  0  0  0  0  0  0  0  0  0  0  # atno 17394 bound_to 11000
  141.0255  134.0830  157.4073 LP  0  0  0  0  0  0  0  0  0  0  0  0  # atno 17395 bound_to 11000

$$$$
