AV-unprocessed.smi:1586|AV-procd|sdf|6378|dock3
  -GOLD-   22720 7 03D 1   1.00000     0.00000
 Structure written by MMmdl.
 46 47  0  0  0  0  0  0  0  0  1 V2000
  152.8408  142.9397  160.4320 C   0  0  0  0  0  0  0  0  0  0  0  0
  152.1829  143.2196  159.0734 C   0  0  0  0  0  0  0  0  0  0  0  0
  151.5601  142.0589  158.4397 N   0  0  0  0  0  0  0  0  0  0  0  0
  151.0027  142.4130  157.1380 C   0  0  0  0  0  0  0  0  0  0  0  0
  150.3205  141.2093  156.4644 C   0  0  0  0  0  0  0  0  0  0  0  0
  151.2466  140.0864  156.2510 N   0  0  0  0  0  0  0  0  0  0  0  0
  150.5959  138.9280  155.5947 C   0  0  1  0  0  0  0  0  0  0  0  0
  149.7183  139.3443  154.3864 C   0  0  0  0  0  0  0  0  0  0  0  0
  151.6069  137.8363  155.1409 C   0  0  0  0  0  0  0  0  0  0  0  0
  150.9694  136.7101  154.4618 N   0  0  0  0  0  0  0  0  0  0  0  0
  150.3992  135.6556  155.0643 C   0  0  0  0  0  0  0  0  0  0  0  0
  150.3423  135.5151  156.2861 O   0  0  0  0  0  0  0  0  0  0  0  0
  149.9162  134.7839  154.1628 N   0  0  0  0  0  0  0  0  0  0  0  0
  149.2855  133.5392  154.4158 C   0  0  0  0  0  0  0  0  0  0  0  0
  148.5196  132.8931  153.4095 C   0  0  0  0  0  0  0  0  0  0  0  0
  148.0981  131.7507  154.0298 C   0  0  0  0  0  0  0  0  0  0  0  0
  147.2602  130.6028  153.5813 C   0  0  0  0  0  0  0  0  0  0  0  0
  148.5647  131.7052  155.3072 O   0  0  0  0  0  0  0  0  0  0  0  0
  149.3264  132.8546  155.5486 N   0  0  0  0  0  0  0  0  0  0  0  0
  151.8297  139.7500  157.5594 C   0  0  0  0  0  0  0  0  0  0  0  0
  152.5024  140.9597  158.2352 C   0  0  0  0  0  0  0  0  0  0  0  0
  153.1923  143.8668  160.8847 H   0  0  0  0  0  0  0  0  0  0  0  0
  153.7023  142.2789  160.3400 H   0  0  0  0  0  0  0  0  0  0  0  0
  152.1340  142.4811  161.1241 H   0  0  0  0  0  0  0  0  0  0  0  0
  151.4210  143.9839  159.2318 H   0  0  0  0  0  0  0  0  0  0  0  0
  152.9157  143.6633  158.3979 H   0  0  0  0  0  0  0  0  0  0  0  0
  150.2727  143.2147  157.2554 H   0  0  0  0  0  0  0  0  0  0  0  0
  151.7876  142.8001  156.4859 H   0  0  0  0  0  0  0  0  0  0  0  0
  149.4679  140.8844  157.0630 H   0  0  0  0  0  0  0  0  0  0  0  0
  149.9236  141.5663  155.5162 H   0  0  0  0  0  0  0  0  0  0  0  0
  149.9308  138.4611  156.3229 H   0  0  0  0  0  0  0  0  0  0  0  0
  149.2599  138.4905  153.8901 H   0  0  0  0  0  0  0  0  0  0  0  0
  150.3046  139.8813  153.6401 H   0  0  0  0  0  0  0  0  0  0  0  0
  148.8807  139.9759  154.6773 H   0  0  0  0  0  0  0  0  0  0  0  0
  152.3902  138.2823  154.5256 H   0  0  0  0  0  0  0  0  0  0  0  0
  152.1096  137.3867  155.9949 H   0  0  0  0  0  0  0  0  0  0  0  0
  150.9691  136.7354  153.4526 H   0  0  0  0  0  0  0  0  0  0  0  0
  150.0268  135.0289  153.1900 H   0  0  0  0  0  0  0  0  0  0  0  0
  148.3133  133.2112  152.3982 H   0  0  0  0  0  0  0  0  0  0  0  0
  147.1287  130.6159  152.4993 H   0  0  0  0  0  0  0  0  0  0  0  0
  146.2737  130.6420  154.0431 H   0  0  0  0  0  0  0  0  0  0  0  0
  147.7243  129.6545  153.8529 H   0  0  0  0  0  0  0  0  0  0  0  0
  151.0625  139.3391  158.2174 H   0  0  0  0  0  0  0  0  0  0  0  0
  152.5982  138.9872  157.4534 H   0  0  0  0  0  0  0  0  0  0  0  0
  153.3454  141.2957  157.6290 H   0  0  0  0  0  0  0  0  0  0  0  0
  152.9149  140.6353  159.1900 H   0  0  0  0  0  0  0  0  0  0  0  0
  1  2  1  0  0  0  0
  1 22  1  0  0  0  0
  1 23  1  0  0  0  0
  1 24  1  0  0  0  0
  2  3  1  0  0  0  0
  2 25  1  0  0  0  0
  2 26  1  0  0  0  0
  3 21  1  0  0  0  0
  3  4  1  0  0  0  0
  4  5  1  0  0  0  0
  4 27  1  0  0  0  0
  4 28  1  0  0  0  0
  5  6  1  0  0  0  0
  5 29  1  0  0  0  0
  5 30  1  0  0  0  0
  6  7  1  0  0  0  0
  6 20  1  0  0  0  0
  7  8  1  0  0  0  0
  7  9  1  0  0  0  0
  7 31  1  0  0  0  0
  8 32  1  0  0  0  0
  8 33  1  0  0  0  0
  8 34  1  0  0  0  0
  9 10  1  0  0  0  0
  9 35  1  0  0  0  0
  9 36  1  0  0  0  0
 10 11  1  0  0  0  0
 10 37  1  0  0  0  0
 11 12  2  0  0  0  0
 11 13  1  0  0  0  0
 13 14  1  0  0  0  0
 13 38  1  0  0  0  0
 14 19  2  0  0  0  0
 14 15  1  0  0  0  0
 15 16  2  0  0  0  0
 15 39  1  0  0  0  0
 16 17  1  0  0  0  0
 16 18  1  0  0  0  0
 17 40  1  0  0  0  0
 17 41  1  0  0  0  0
 17 42  1  0  0  0  0
 18 19  1  0  0  0  0
 20 21  1  0  0  0  0
 20 43  1  0  0  0  0
 20 44  1  0  0  0  0
 21 45  1  0  0  0  0
 21 46  1  0  0  0  0
M  END
> <s_m_source_file>
AV-unprocessed.smi

> <i_m_source_file_index>
1586

> <i_lp_mmshare_version>
43012

> <i_f3d_flags>
0

> <s_epik_input>
W0NIM11bQ0gyXU4xW0NIMl1bQ0gyXU4oW0NIMl1bQ0gyXTEpW0NASF0oW0NIM10pW0NIMl1bTkhdQyg9TylbTkhdYzJbY0hdYyhbQ0gzXSlvbjI=

> <s_epik_cmdline>
J2VwaWtfcHl0aG9uJywgJy1waCcsICc3LjAnLCAnLXRuJywgJzgnLCAnLW1hJywgJzIwMCcsICctbWV0YWxfYmluZGluZycsICctaW1hZScsICc8aW5maWxlLm1hZT4nLCAnLW9tYWUnLCAnPG91dGZpbGUubWFlPic=

> <r_epik_Ionization_Penalty>
2.42597

> <r_epik_Ionization_Penalty_Charging>
0

> <r_epik_Ionization_Penalty_Neutral>
2.42597

> <r_epik_State_Penalty>
1.76326

> <r_epik_Charging_Adjusted_Penalty>
1.76326

> <i_epik_Tot_Q>
0

> <i_epik_Tot_abs_Q>
0

> <r_epik_Metal_State_Penalty>
1.7742

> <b_epik_Metal_Only>
0

> <s_lp_Force_Field>
OPLS_2005

> <r_lp_Energy>
39.6445

> <b_lp_Chiralities_Consistent>
1

> <s_lp_Variant>
AV-unprocessed.smi:1586-6

> <Gold.Version>
5.8.1

> <Gold.Id.Protein>
6NUR|6NUR_protein|mol2

> <Gold.PLP.Fitness>
38.0972

> <Gold.PLP.PLP>
-35.8117

> <Gold.PLP.part.hbond>
-3.3832

> <Gold.PLP.part.metal>
0.0000

> <Gold.PLP.part.buried>
-2.7370

> <Gold.PLP.part.nonpolar>
-30.4037

> <Gold.PLP.part.repulsive>
0.2202

> <Gold.PLP.ligand.clash>
0.0000

> <Gold.PLP.ligand.torsion>
0.3809

> <Gold.PLP.Chemscore.Hbond>
1.0000

> <Gold.PLP.Chemscore.CHOScore>
0.0000

> <Gold.PLP.Chemscore.Metal>
0.0000

> <Gold.Chemscore.Hbonds>
donor molecule, donor type, donor heavy atom, donor atom, acceptor molecule, acceptor atom, score
      L1  H    10    37       P1  7949  0.81

> <Gold.PLP.Chemscore.Internal.Correction>
0.0473

> <Gold.Rescore>
     Score         DG    S(hbond)    S(metal)    S(lipo)     H(rot)  DE(clash)    DE(int)     intcor
     10.93     -12.57       0.46        0.00      85.05       1.72       0.12       1.53       ----

> <Gold.Chemscore.Fitness>
10.9287

> <Gold.Chemscore.DG>
-12.5724

> <Gold.Chemscore.ZeroCoef>
-5.4800

> <Gold.Chemscore.Hbond>
0.4608

> <Gold.Chemscore.Metal>
0.0000

> <Gold.Chemscore.Lipo>
85.0495

> <Gold.Chemscore.Internal_Hbond>
0.0000

> <Gold.Chemscore.DEClash>
0.1170

> <Gold.Chemscore.DEInternal>
1.5266

> <Gold.Chemscore.Rot>
1.7178

> <Gold.Chemscore.Internal.Correction>
   9.000000E+99

> <Gold.Chemscore.Hbonds>
donor molecule, donor type, donor heavy atom, donor atom, acceptor molecule, acceptor atom, score
      L1  H    10    37       P1  7949  0.20

> <Gold.Chemscore.Hbond.Weighted>
-1.5392

> <Gold.Chemscore.Metal.Weighted>
-0.0000

> <Gold.Chemscore.Lipo.Weighted>
-9.9508

> <Gold.Chemscore.Internal_Hbond.Weighted>
0.0000

> <Gold.Chemscore.DEClash.Weighted>
0.1170

> <Gold.Chemscore.DEInternal.Weighted>
1.5266

> <Gold.Chemscore.Rot.Weighted>
4.3976

> <Gold.Chemscore.Internal.Correction.Weighted>
   9.000000E+99

> <Gold.Protein.RotatedTorsions>
[ 6907 6896 6895 6894 ] final  119.60 input  -60.11 | X-H torsion
[ 7974 7965 7964 7962 ] final   -2.75 input  175.53 | X-H torsion
[ 8008 7997 7996 7995 ] final   33.55 input   59.86 | X-H torsion
[ 10167 10162 10161 10158 ] final  -32.04 input  -65.29 | X-H torsion
[ 10718 10713 10712 10709 ] final  137.39 input   66.30 | X-H torsion
[ 10763 10752 10751 10750 ] final  121.15 input  -60.55 | X-H torsion
[ 11005 11000 10999 10996 ] final -102.64 input  -57.11 | X-H torsion

> <Gold.Protein.ActiveResidues>
 VAL166  LYS551  ARG553  GLY616  TRP617  ASP618  TYR619  PRO620  LYS621  CYS622 
 ASP623  PHE694  ASN695  SER759  ASP760  ASP761  ALA762  ILE779  LEU786  VAL792 
 PHE793  MET794  SER795  GLU796  ALA797  LYS798  CYS799  TRP800  GLU811  SER814 

> <Gold.Protein.RotatedAtoms>
  152.4460  133.7536  159.6707 H   0  0  0  0  0  0  0  0  0  0  0  0  # atno 6907 bound_to 6896
  150.8360  133.8003  159.3086 H   0  0  0  0  0  0  0  0  0  0  0  0  # atno 6908 bound_to 6896
  151.5643  135.1067  160.0032 H   0  0  0  0  0  0  0  0  0  0  0  0  # atno 6909 bound_to 6896
  146.2400  140.1618  142.8332 H   0  0  0  0  0  0  0  0  0  0  0  0  # atno 7974 bound_to 7965
  155.1405  140.3265  155.4453 H   0  0  0  0  0  0  0  0  0  0  0  0  # atno 8008 bound_to 7997
  156.2606  140.1994  156.6470 H   0  0  0  0  0  0  0  0  0  0  0  0  # atno 8009 bound_to 7997
  154.6546  140.0554  156.9981 H   0  0  0  0  0  0  0  0  0  0  0  0  # atno 8010 bound_to 7997
  140.7227  143.3725  151.1752 H   0  0  0  0  0  0  0  0  0  0  0  0  # atno 10167 bound_to 10162
  157.4366  131.1053  151.0191 H   0  0  0  0  0  0  0  0  0  0  0  0  # atno 10718 bound_to 10713
  153.6096  135.3433  155.2974 H   0  0  0  0  0  0  0  0  0  0  0  0  # atno 10763 bound_to 10752
  154.8621  135.4247  154.2324 H   0  0  0  0  0  0  0  0  0  0  0  0  # atno 10764 bound_to 10752
  153.3172  135.7035  153.7135 H   0  0  0  0  0  0  0  0  0  0  0  0  # atno 10765 bound_to 10752
  141.1181  133.8574  157.1385 H   0  0  0  0  0  0  0  0  0  0  0  0  # atno 11005 bound_to 11000
  145.0083  140.8692  143.5240 LP  0  0  0  0  0  0  0  0  0  0  0  0  # atno 17320 bound_to 7965
  145.1648  139.2438  143.5373 LP  0  0  0  0  0  0  0  0  0  0  0  0  # atno 17321 bound_to 7965
  139.7299  143.9089  152.3016 LP  0  0  0  0  0  0  0  0  0  0  0  0  # atno 17342 bound_to 10162
  139.8875  144.6984  150.8808 LP  0  0  0  0  0  0  0  0  0  0  0  0  # atno 17343 bound_to 10162
  157.1069  130.6005  149.5473 LP  0  0  0  0  0  0  0  0  0  0  0  0  # atno 17370 bound_to 10713
  155.9932  130.4993  150.7373 LP  0  0  0  0  0  0  0  0  0  0  0  0  # atno 17371 bound_to 10713
  140.0117  134.9985  157.0408 LP  0  0  0  0  0  0  0  0  0  0  0  0  # atno 17394 bound_to 11000
  140.4589  134.1505  155.7189 LP  0  0  0  0  0  0  0  0  0  0  0  0  # atno 17395 bound_to 11000

$$$$
