AV-unprocessed.smi:539|AV-procd|sdf|2868|dock3
  -GOLD-   2262023363D 1   1.00000     0.00000
 Structure written by MMmdl.
 39 41  0  0  0  0  0  0  0  0  2 V2000
  149.7854  139.3913  154.4172 C   0  0  0  0  0  0  0  0  0  0  0  0
  150.6008  140.5084  154.7204 O   0  0  0  0  0  0  0  0  0  0  0  0
  151.4956  140.2582  155.7916 C   0  0  0  0  0  0  0  0  0  0  0  0
  150.8878  140.7636  157.1091 C   0  0  0  0  0  0  0  0  0  0  0  0
  151.7310  140.4433  158.2614 N   0  0  0  0  0  0  0  0  0  0  0  0
  152.2647  141.2867  159.1957 C   0  0  0  0  0  0  0  0  0  0  0  0
  152.0647  142.6758  159.2214 N   0  0  0  0  0  0  0  0  0  0  0  0
  152.1865  143.6380  160.3179 C   0  0  0  0  0  0  0  0  0  0  0  0
  152.2059  145.0467  159.7289 C   0  0  0  0  0  0  0  0  0  0  0  0
  151.3975  144.8735  158.4622 C   0  0  0  0  0  0  0  0  0  0  0  0
  151.8177  143.4758  158.0229 C   0  0  0  0  0  0  0  0  0  0  0  0
  153.0383  140.6790  160.0985 N   0  0  0  0  0  0  0  0  0  0  0  0
  152.9914  139.3483  159.7243 C   0  0  0  0  0  0  0  0  0  0  0  0
  152.2208  139.1768  158.6177 C   0  0  0  0  0  0  0  0  0  0  0  0
  152.0159  137.8595  157.9655 C   0  0  0  0  0  0  0  0  0  0  0  0
  151.3419  137.7460  156.9442 O   0  0  0  0  0  0  0  0  0  0  0  0
  152.6557  136.8452  158.6292 N   0  5  0  0  0  0  0  0  0  0  0  0
  153.4327  136.9785  159.7584 C   0  0  0  0  0  0  0  0  0  0  0  0
  153.9692  136.0092  160.2969 O   0  0  0  0  0  0  0  0  0  0  0  0
  153.6223  138.2172  160.3100 N   0  0  0  0  0  0  0  0  0  0  0  0
  154.4514  138.3920  161.5062 C   0  0  0  0  0  0  0  0  0  0  0  0
  149.1219  139.6380  153.5884 H   0  0  0  0  0  0  0  0  0  0  0  0
  149.1676  139.1112  155.2713 H   0  0  0  0  0  0  0  0  0  0  0  0
  150.3879  138.5315  154.1223 H   0  0  0  0  0  0  0  0  0  0  0  0
  151.6979  139.1884  155.8560 H   0  0  0  0  0  0  0  0  0  0  0  0
  152.4468  140.7597  155.6079 H   0  0  0  0  0  0  0  0  0  0  0  0
  150.6978  141.8310  157.0682 H   0  0  0  0  0  0  0  0  0  0  0  0
  149.8956  140.3426  157.2454 H   0  0  0  0  0  0  0  0  0  0  0  0
  151.3285  143.5346  160.9812 H   0  0  0  0  0  0  0  0  0  0  0  0
  153.0931  143.4595  160.8965 H   0  0  0  0  0  0  0  0  0  0  0  0
  151.7936  145.7972  160.4038 H   0  0  0  0  0  0  0  0  0  0  0  0
  153.2287  145.3348  159.4812 H   0  0  0  0  0  0  0  0  0  0  0  0
  150.3309  144.8926  158.6913 H   0  0  0  0  0  0  0  0  0  0  0  0
  151.6029  145.6371  157.7117 H   0  0  0  0  0  0  0  0  0  0  0  0
  152.7395  143.5224  157.4415 H   0  0  0  0  0  0  0  0  0  0  0  0
  151.0540  143.0149  157.3952 H   0  0  0  0  0  0  0  0  0  0  0  0
  155.4464  137.9719  161.3505 H   0  0  0  0  0  0  0  0  0  0  0  0
  153.9970  137.8863  162.3592 H   0  0  0  0  0  0  0  0  0  0  0  0
  154.5841  139.4394  161.7774 H   0  0  0  0  0  0  0  0  0  0  0  0
  1  2  1  0  0  0  0
  1 22  1  0  0  0  0
  1 23  1  0  0  0  0
  1 24  1  0  0  0  0
  2  3  1  0  0  0  0
  3  4  1  0  0  0  0
  3 25  1  0  0  0  0
  3 26  1  0  0  0  0
  4  5  1  0  0  0  0
  4 27  1  0  0  0  0
  4 28  1  0  0  0  0
  5 14  1  0  0  0  0
  5  6  1  0  0  0  0
  6  7  1  0  0  0  0
  6 12  2  0  0  0  0
  7 11  1  0  0  0  0
  7  8  1  0  0  0  0
  8  9  1  0  0  0  0
  8 29  1  0  0  0  0
  8 30  1  0  0  0  0
  9 10  1  0  0  0  0
  9 31  1  0  0  0  0
  9 32  1  0  0  0  0
 10 11  1  0  0  0  0
 10 33  1  0  0  0  0
 10 34  1  0  0  0  0
 11 35  1  0  0  0  0
 11 36  1  0  0  0  0
 12 13  1  0  0  0  0
 13 20  1  0  0  0  0
 13 14  2  0  0  0  0
 14 15  1  0  0  0  0
 15 16  2  0  0  0  0
 15 17  1  0  0  0  0
 17 18  1  0  0  0  0
 18 19  2  0  0  0  0
 18 20  1  0  0  0  0
 20 21  1  0  0  0  0
 21 37  1  0  0  0  0
 21 38  1  0  0  0  0
 21 39  1  0  0  0  0
M  CHG  1  17  -1
M  END
> <s_m_source_file>
AV-unprocessed.smi

> <i_m_source_file_index>
539

> <i_lp_mmshare_version>
43012

> <i_f3d_flags>
0

> <s_epik_input>
W0NIM11uMWMoPU8pW25IXWMoPU8pYyhjMTIpbihbQ0gyXVtDSDJdT1tDSDNdKWMobjIpTjNbQ0gyXVtDSDJdW0NIMl1bQ0gyXTM=

> <s_epik_cmdline>
J2VwaWtfcHl0aG9uJywgJy1waCcsICc3LjAnLCAnLXRuJywgJzgnLCAnLW1hJywgJzIwMCcsICctbWV0YWxfYmluZGluZycsICctaW1hZScsICc8aW5maWxlLm1hZT4nLCAnLW9tYWUnLCAnPG91dGZpbGUubWFlPic=

> <r_lp_tautomer_probability>
1

> <r_epik_Ionization_Penalty>
6.13244

> <r_epik_Ionization_Penalty_Charging>
0.078064

> <r_epik_Ionization_Penalty_Neutral>
6.05438

> <r_epik_State_Penalty>
6.05106

> <r_epik_Charging_Adjusted_Penalty>
6.12912

> <i_epik_Tot_Q>
-1

> <i_epik_Tot_abs_Q>
1

> <r_epik_Metal_State_Penalty>
2.00027

> <b_epik_Metal_Only>
1

> <s_lp_Force_Field>
OPLS_2005

> <r_lp_Energy>
49.7723

> <b_lp_Chiralities_Consistent>
1

> <s_lp_Variant>
AV-unprocessed.smi:539-2

> <Gold.Version>
5.8.1

> <Gold.Id.Protein>
6NUR|6NUR_protein|mol2

> <Gold.PLP.Fitness>
45.2524

> <Gold.PLP.PLP>
-40.5313

> <Gold.PLP.part.hbond>
-2.5324

> <Gold.PLP.part.metal>
0.0000

> <Gold.PLP.part.buried>
-5.6295

> <Gold.PLP.part.nonpolar>
-32.8284

> <Gold.PLP.part.repulsive>
0.0924

> <Gold.PLP.ligand.clash>
0.0000

> <Gold.PLP.ligand.torsion>
0.5669

> <Gold.PLP.Chemscore.Hbond>
1.9425

> <Gold.PLP.Chemscore.CHOScore>
0.0000

> <Gold.PLP.Chemscore.Metal>
0.0000

> <Gold.Chemscore.Hbonds>
donor molecule, donor type, donor heavy atom, donor atom, acceptor molecule, acceptor atom, score
      P1  H  6896  6908       L1    19  0.88
      P1  H  7989  7998       L1     2  1.00

> <Gold.PLP.Chemscore.Internal.Correction>
0.0273

> <Gold.Rescore>
     Score         DG    S(hbond)    S(metal)    S(lipo)     H(rot)  DE(clash)    DE(int)     intcor
     11.75     -14.88       1.14        0.00      80.63       1.50       0.06       3.07       ----

> <Gold.Chemscore.Fitness>
11.7513

> <Gold.Chemscore.DG>
-14.8800

> <Gold.Chemscore.ZeroCoef>
-5.4800

> <Gold.Chemscore.Hbond>
1.1363

> <Gold.Chemscore.Metal>
0.0000

> <Gold.Chemscore.Lipo>
80.6321

> <Gold.Chemscore.Internal_Hbond>
0.0000

> <Gold.Chemscore.DEClash>
0.0605

> <Gold.Chemscore.DEInternal>
3.0683

> <Gold.Chemscore.Rot>
1.4957

> <Gold.Chemscore.Internal.Correction>
   9.000000E+99

> <Gold.Chemscore.Hbonds>
donor molecule, donor type, donor heavy atom, donor atom, acceptor molecule, acceptor atom, score
      P1  H  6896  6908       L1    19  0.19
      P1  H  7989  7998       L1     2  0.27

> <Gold.Chemscore.Hbond.Weighted>
-3.7951

> <Gold.Chemscore.Metal.Weighted>
-0.0000

> <Gold.Chemscore.Lipo.Weighted>
-9.4340

> <Gold.Chemscore.Internal_Hbond.Weighted>
0.0000

> <Gold.Chemscore.DEClash.Weighted>
0.0605

> <Gold.Chemscore.DEInternal.Weighted>
3.0683

> <Gold.Chemscore.Rot.Weighted>
3.8290

> <Gold.Chemscore.Internal.Correction.Weighted>
   9.000000E+99

> <Gold.Protein.RotatedTorsions>
[ 6907 6896 6895 6894 ] final  -54.65 input  -60.11 | X-H torsion
[ 7974 7965 7964 7962 ] final -125.28 input  175.53 | X-H torsion
[ 8008 7997 7996 7995 ] final  -47.03 input   59.86 | X-H torsion
[ 10167 10162 10161 10158 ] final    9.21 input  -65.29 | X-H torsion
[ 10718 10713 10712 10709 ] final  157.62 input   66.30 | X-H torsion
[ 10763 10752 10751 10750 ] final  118.71 input  -60.55 | X-H torsion
[ 11005 11000 10999 10996 ] final  -72.10 input  -57.11 | X-H torsion

> <Gold.Protein.ActiveResidues>
 VAL166  LYS551  ARG553  GLY616  TRP617  ASP618  TYR619  PRO620  LYS621  CYS622 
 ASP623  PHE694  ASN695  SER759  ASP760  ASP761  ALA762  ILE779  LEU786  VAL792 
 PHE793  MET794  SER795  GLU796  ALA797  LYS798  CYS799  TRP800  GLU811  SER814 

> <Gold.Protein.RotatedAtoms>
  150.8319  134.7576  159.6860 H   0  0  0  0  0  0  0  0  0  0  0  0  # atno 6907 bound_to 6896
  152.4422  134.5563  159.9891 H   0  0  0  0  0  0  0  0  0  0  0  0  # atno 6908 bound_to 6896
  151.5722  133.3351  159.3028 H   0  0  0  0  0  0  0  0  0  0  0  0  # atno 6909 bound_to 6896
  144.9992  140.7805  143.4506 H   0  0  0  0  0  0  0  0  0  0  0  0  # atno 7974 bound_to 7965
  154.4012  140.1357  156.4108 H   0  0  0  0  0  0  0  0  0  0  0  0  # atno 8008 bound_to 7997
  155.7736  140.3483  155.5239 H   0  0  0  0  0  0  0  0  0  0  0  0  # atno 8009 bound_to 7997
  155.8743  140.0977  157.1519 H   0  0  0  0  0  0  0  0  0  0  0  0  # atno 8010 bound_to 7997
  140.6269  143.8082  150.7244 H   0  0  0  0  0  0  0  0  0  0  0  0  # atno 10167 bound_to 10162
  157.1890  131.0650  151.2090 H   0  0  0  0  0  0  0  0  0  0  0  0  # atno 10718 bound_to 10713
  153.5719  135.3500  155.2841 H   0  0  0  0  0  0  0  0  0  0  0  0  # atno 10763 bound_to 10752
  154.8681  135.4161  154.2716 H   0  0  0  0  0  0  0  0  0  0  0  0  # atno 10764 bound_to 10752
  153.3483  135.7054  153.6879 H   0  0  0  0  0  0  0  0  0  0  0  0  # atno 10765 bound_to 10752
  141.1603  133.6836  156.7006 H   0  0  0  0  0  0  0  0  0  0  0  0  # atno 11005 bound_to 11000
  145.2177  139.2174  143.5110 LP  0  0  0  0  0  0  0  0  0  0  0  0  # atno 17320 bound_to 7965
  146.3448  140.2028  142.8589 LP  0  0  0  0  0  0  0  0  0  0  0  0  # atno 17321 bound_to 7965
  140.1684  143.4215  152.2018 LP  0  0  0  0  0  0  0  0  0  0  0  0  # atno 17342 bound_to 10162
  139.5488  144.7320  151.4500 LP  0  0  0  0  0  0  0  0  0  0  0  0  # atno 17343 bound_to 10162
  157.3879  130.7266  149.6676 LP  0  0  0  0  0  0  0  0  0  0  0  0  # atno 17370 bound_to 10713
  155.9714  130.4154  150.4182 LP  0  0  0  0  0  0  0  0  0  0  0  0  # atno 17371 bound_to 10713
  140.2961  134.8201  157.4058 LP  0  0  0  0  0  0  0  0  0  0  0  0  # atno 17394 bound_to 11000
  140.1303  134.5104  155.8111 LP  0  0  0  0  0  0  0  0  0  0  0  0  # atno 17395 bound_to 11000

$$$$
