AV-unprocessed.smi:419|AV-procd|sdf|2531|dock9
  -GOLD-   2262022493D 1   1.00000     0.00000
 Structure written by MMmdl.
 44 46  0  0  0  0  0  0  0  0  1 V2000
  156.0819  132.4605  165.1158 C   0  0  0  0  0  0  0  0  0  0  0  0
  155.3767  133.6824  165.2787 O   0  0  0  0  0  0  0  0  0  0  0  0
  155.2584  134.5136  164.1854 C   0  0  0  0  0  0  0  0  0  0  0  0
  155.7304  134.1971  162.8879 C   0  0  0  0  0  0  0  0  0  0  0  0
  155.5677  135.1103  161.8282 C   0  0  0  0  0  0  0  0  0  0  0  0
  154.9346  136.3523  162.0316 C   0  0  0  0  0  0  0  0  0  0  0  0
  154.8198  137.1847  160.9388 O   0  0  0  0  0  0  0  0  0  0  0  0
  153.8563  138.2291  160.9865 C   0  0  0  0  0  0  0  0  0  0  0  0
  153.7386  138.8675  159.5923 C   0  0  1  0  0  0  0  0  0  0  0  0
  152.3727  139.1664  159.3803 O   0  0  0  0  0  0  0  0  0  0  0  0
  154.5282  140.1897  159.5013 C   0  0  0  0  0  0  0  0  0  0  0  0
  154.0641  141.1687  160.4833 N   0  0  0  0  0  0  0  0  0  0  0  0
  154.4224  141.2334  161.7877 C   0  0  0  0  0  0  0  0  0  0  0  0
  155.2063  140.4751  162.3587 O   0  0  0  0  0  0  0  0  0  0  0  0
  153.7715  142.2782  162.3503 N   0  0  0  0  0  0  0  0  0  0  0  0
  153.8578  142.7214  163.7363 C   0  0  0  0  0  0  0  0  0  0  0  0
  152.9857  142.9081  161.3768 C   0  0  0  0  0  0  0  0  0  0  0  0
  152.1438  144.0306  161.4556 C   0  0  0  0  0  0  0  0  0  0  0  0
  151.4808  144.4251  160.2699 C   0  0  0  0  0  0  0  0  0  0  0  0
  151.6685  143.7084  159.0593 C   0  0  0  0  0  0  0  0  0  0  0  0
  152.5230  142.5822  159.0086 C   0  0  0  0  0  0  0  0  0  0  0  0
  153.1684  142.2106  160.2013 C   0  0  0  0  0  0  0  0  0  0  0  0
  154.4616  136.6680  163.3289 C   0  0  0  0  0  0  0  0  0  0  0  0
  154.6251  135.7554  164.3887 C   0  0  0  0  0  0  0  0  0  0  0  0
  156.0923  131.9219  166.0633 H   0  0  0  0  0  0  0  0  0  0  0  0
  157.1186  132.6341  164.8244 H   0  0  0  0  0  0  0  0  0  0  0  0
  155.6005  131.8186  164.3768 H   0  0  0  0  0  0  0  0  0  0  0  0
  156.2219  133.2593  162.6785 H   0  0  0  0  0  0  0  0  0  0  0  0
  155.9344  134.8535  160.8452 H   0  0  0  0  0  0  0  0  0  0  0  0
  152.8861  137.8669  161.3325 H   0  0  0  0  0  0  0  0  0  0  0  0
  154.2052  138.9797  161.6976 H   0  0  0  0  0  0  0  0  0  0  0  0
  154.0904  138.1629  158.8374 H   0  0  0  0  0  0  0  0  0  0  0  0
  151.9678  138.4312  158.9466 H   0  0  0  0  0  0  0  0  0  0  0  0
  155.6010  140.0180  159.5967 H   0  0  0  0  0  0  0  0  0  0  0  0
  154.3927  140.6311  158.5127 H   0  0  0  0  0  0  0  0  0  0  0  0
  152.8616  142.9062  164.1391 H   0  0  0  0  0  0  0  0  0  0  0  0
  154.4297  143.6473  163.7989 H   0  0  0  0  0  0  0  0  0  0  0  0
  154.3406  141.9789  164.3732 H   0  0  0  0  0  0  0  0  0  0  0  0
  152.0076  144.5717  162.3804 H   0  0  0  0  0  0  0  0  0  0  0  0
  150.8249  145.2831  160.2861 H   0  0  0  0  0  0  0  0  0  0  0  0
  151.1540  144.0276  158.1648 H   0  0  0  0  0  0  0  0  0  0  0  0
  152.6721  142.0365  158.0890 H   0  0  0  0  0  0  0  0  0  0  0  0
  153.9702  137.6054  163.5401 H   0  0  0  0  0  0  0  0  0  0  0  0
  154.2599  136.0139  165.3718 H   0  0  0  0  0  0  0  0  0  0  0  0
  1  2  1  0  0  0  0
  1 25  1  0  0  0  0
  1 26  1  0  0  0  0
  1 27  1  0  0  0  0
  2  3  1  0  0  0  0
  3 24  1  0  0  0  0
  3  4  2  0  0  0  0
  4  5  1  0  0  0  0
  4 28  1  0  0  0  0
  5  6  2  0  0  0  0
  5 29  1  0  0  0  0
  6  7  1  0  0  0  0
  6 23  1  0  0  0  0
  7  8  1  0  0  0  0
  8  9  1  0  0  0  0
  8 30  1  0  0  0  0
  8 31  1  0  0  0  0
  9 10  1  0  0  0  0
  9 11  1  0  0  0  0
  9 32  1  0  0  0  0
 10 33  1  0  0  0  0
 11 12  1  0  0  0  0
 11 34  1  0  0  0  0
 11 35  1  0  0  0  0
 12 22  1  0  0  0  0
 12 13  1  0  0  0  0
 13 14  2  0  0  0  0
 13 15  1  0  0  0  0
 15 16  1  0  0  0  0
 15 17  1  0  0  0  0
 16 36  1  0  0  0  0
 16 37  1  0  0  0  0
 16 38  1  0  0  0  0
 17 22  2  0  0  0  0
 17 18  1  0  0  0  0
 18 19  2  0  0  0  0
 18 39  1  0  0  0  0
 19 20  1  0  0  0  0
 19 40  1  0  0  0  0
 20 21  2  0  0  0  0
 20 41  1  0  0  0  0
 21 22  1  0  0  0  0
 21 42  1  0  0  0  0
 23 24  2  0  0  0  0
 23 43  1  0  0  0  0
 24 44  1  0  0  0  0
M  END
> <s_m_source_file>
AV-unprocessed.smi

> <i_m_source_file_index>
419

> <i_lp_mmshare_version>
43012

> <i_f3d_flags>
0

> <s_epik_input>
W0NIM11PYzFbY0hdW2NIXWMoW2NIXVtjSF0xKU9bQ0gyXVtDQEhdKFtPSF0pW0NIMl1uKGMoPU8pbjJbQ0gzXSljKGMyMylbY0hdW2NIXVtjSF1bY0hdMw==

> <s_epik_cmdline>
J2VwaWtfcHl0aG9uJywgJy1waCcsICc3LjAnLCAnLXRuJywgJzgnLCAnLW1hJywgJzIwMCcsICctbWV0YWxfYmluZGluZycsICctaW1hZScsICc8aW5maWxlLm1hZT4nLCAnLW9tYWUnLCAnPG91dGZpbGUubWFlPic=

> <r_lp_tautomer_probability>
1

> <r_epik_Ionization_Penalty>
2.40131e-06

> <r_epik_Ionization_Penalty_Charging>
2.01037e-09

> <r_epik_Ionization_Penalty_Neutral>
2.3993e-06

> <r_epik_State_Penalty>
-0

> <r_epik_Charging_Adjusted_Penalty>
2.01037e-09

> <i_epik_Tot_Q>
0

> <i_epik_Tot_abs_Q>
0

> <r_epik_Metal_State_Penalty>
-0

> <b_epik_Metal_Only>
0

> <s_lp_Force_Field>
OPLS_2005

> <r_lp_Energy>
50.9462

> <b_lp_Chiralities_Consistent>
1

> <s_lp_Variant>
AV-unprocessed.smi:419-2

> <Gold.Version>
5.8.1

> <Gold.Id.Protein>
6NUR|6NUR_protein|mol2

> <Gold.PLP.Fitness>
54.9925

> <Gold.PLP.PLP>
-57.2195

> <Gold.PLP.part.hbond>
-0.4350

> <Gold.PLP.part.metal>
0.0000

> <Gold.PLP.part.buried>
-3.9871

> <Gold.PLP.part.nonpolar>
-50.6509

> <Gold.PLP.part.repulsive>
0.0938

> <Gold.PLP.ligand.clash>
0.0000

> <Gold.PLP.ligand.torsion>
1.1641

> <Gold.PLP.Chemscore.Hbond>
0.0000

> <Gold.PLP.Chemscore.CHOScore>
0.0000

> <Gold.PLP.Chemscore.Metal>
0.0000

> <Gold.PLP.Chemscore.Internal.Correction>
0.1011

> <Gold.Rescore>
     Score         DG    S(hbond)    S(metal)    S(lipo)     H(rot)  DE(clash)    DE(int)     intcor
     15.46     -16.85       0.00        0.00     149.61       2.40       0.04       1.35       ----

> <Gold.Chemscore.Fitness>
15.4643

> <Gold.Chemscore.DG>
-16.8522

> <Gold.Chemscore.ZeroCoef>
-5.4800

> <Gold.Chemscore.Hbond>
0.0000

> <Gold.Chemscore.Metal>
0.0000

> <Gold.Chemscore.Lipo>
149.6059

> <Gold.Chemscore.Internal_Hbond>
0.0000

> <Gold.Chemscore.DEClash>
0.0351

> <Gold.Chemscore.DEInternal>
1.3528

> <Gold.Chemscore.Rot>
2.3952

> <Gold.Chemscore.Internal.Correction>
   9.000000E+99

> <Gold.Chemscore.Hbond.Weighted>
-0.0000

> <Gold.Chemscore.Metal.Weighted>
-0.0000

> <Gold.Chemscore.Lipo.Weighted>
-17.5039

> <Gold.Chemscore.Internal_Hbond.Weighted>
0.0000

> <Gold.Chemscore.DEClash.Weighted>
0.0351

> <Gold.Chemscore.DEInternal.Weighted>
1.3528

> <Gold.Chemscore.Rot.Weighted>
6.1316

> <Gold.Chemscore.Internal.Correction.Weighted>
   9.000000E+99

> <Gold.Protein.RotatedTorsions>
[ 6907 6896 6895 6894 ] final -118.35 input  -60.11 | X-H torsion
[ 7974 7965 7964 7962 ] final  -24.34 input  175.53 | X-H torsion
[ 8008 7997 7996 7995 ] final -165.71 input   59.86 | X-H torsion
[ 10167 10162 10161 10158 ] final  144.61 input  -65.29 | X-H torsion
[ 10718 10713 10712 10709 ] final -128.51 input   66.30 | X-H torsion
[ 10763 10752 10751 10750 ] final  -46.53 input  -60.55 | X-H torsion
[ 11005 11000 10999 10996 ] final  -55.96 input  -57.11 | X-H torsion

> <Gold.Protein.ActiveResidues>
 VAL166  LYS551  ARG553  GLY616  TRP617  ASP618  TYR619  PRO620  LYS621  CYS622 
 ASP623  PHE694  ASN695  SER759  ASP760  ASP761  ALA762  ILE779  LEU786  VAL792 
 PHE793  MET794  SER795  GLU796  ALA797  LYS798  CYS799  TRP800  GLU811  SER814 

> <Gold.Protein.RotatedAtoms>
  150.8213  133.8248  159.3137 H   0  0  0  0  0  0  0  0  0  0  0  0  # atno 6907 bound_to 6896
  151.6006  135.1046  160.0069 H   0  0  0  0  0  0  0  0  0  0  0  0  # atno 6908 bound_to 6896
  152.4301  133.7223  159.6596 H   0  0  0  0  0  0  0  0  0  0  0  0  # atno 6909 bound_to 6896
  146.1560  140.4739  142.8591 H   0  0  0  0  0  0  0  0  0  0  0  0  # atno 7974 bound_to 7965
  155.8536  140.0967  157.1659 H   0  0  0  0  0  0  0  0  0  0  0  0  # atno 8008 bound_to 7997
  154.3986  140.1378  156.3937 H   0  0  0  0  0  0  0  0  0  0  0  0  # atno 8009 bound_to 7997
  155.7934  140.3455  155.5364 H   0  0  0  0  0  0  0  0  0  0  0  0  # atno 8010 bound_to 7997
  139.4943  144.5960  151.6582 H   0  0  0  0  0  0  0  0  0  0  0  0  # atno 10167 bound_to 10162
  156.1958  130.6825  151.0480 H   0  0  0  0  0  0  0  0  0  0  0  0  # atno 10718 bound_to 10713
  154.0466  135.6637  153.4795 H   0  0  0  0  0  0  0  0  0  0  0  0  # atno 10763 bound_to 10752
  153.0480  135.5102  154.7791 H   0  0  0  0  0  0  0  0  0  0  0  0  # atno 10764 bound_to 10752
  154.6784  135.3041  154.9613 H   0  0  0  0  0  0  0  0  0  0  0  0  # atno 10765 bound_to 10752
  141.1098  133.6611  156.4548 H   0  0  0  0  0  0  0  0  0  0  0  0  # atno 11005 bound_to 11000
  144.7964  140.6131  143.6507 LP  0  0  0  0  0  0  0  0  0  0  0  0  # atno 17320 bound_to 7965
  145.4706  139.1504  143.3816 LP  0  0  0  0  0  0  0  0  0  0  0  0  # atno 17321 bound_to 7965
  140.5598  144.0288  150.6164 LP  0  0  0  0  0  0  0  0  0  0  0  0  # atno 17342 bound_to 10162
  140.3370  143.3043  152.0628 LP  0  0  0  0  0  0  0  0  0  0  0  0  # atno 17343 bound_to 10162
  157.6956  131.0795  150.6977 LP  0  0  0  0  0  0  0  0  0  0  0  0  # atno 17370 bound_to 10713
  156.7034  130.4630  149.5567 LP  0  0  0  0  0  0  0  0  0  0  0  0  # atno 17371 bound_to 10713
  140.4805  134.6669  157.5169 LP  0  0  0  0  0  0  0  0  0  0  0  0  # atno 17394 bound_to 11000
  139.9986  134.6871  155.9567 LP  0  0  0  0  0  0  0  0  0  0  0  0  # atno 17395 bound_to 11000

$$$$
