AV-unprocessed.smi:1644|AV-procd|sdf|6587|dock6
  -GOLD-   22720 7283D 1   1.00000     0.00000
 Structure written by MMmdl.
 49 51  0  0  0  0  0  0  0  0  1 V2000
  143.2255  146.2140  154.0974 C   0  0  0  0  0  0  0  0  0  0  0  0
  142.8387  145.3437  155.2976 C   0  0  0  0  0  0  0  0  0  0  0  0
  143.4934  143.9483  155.2468 C   0  0  0  0  0  0  0  0  0  0  0  0
  145.0212  143.9140  155.4790 C   0  0  1  0  0  0  0  0  0  0  0  0
  145.4206  143.0004  156.5291 N   0  0  0  0  0  0  0  0  0  0  0  0
  146.2898  142.0760  156.1011 C   0  0  0  0  0  0  0  0  0  0  0  0
  146.7688  141.1832  156.7984 O   0  0  0  0  0  0  0  0  0  0  0  0
  146.5410  142.2959  154.7957 N   0  0  0  0  0  0  0  0  0  0  0  0
  147.4513  141.4853  153.9736 C   0  0  0  0  0  0  0  0  0  0  0  0
  148.6708  140.9159  154.7439 C   0  0  1  0  0  0  0  0  0  0  0  0
  149.2285  139.8817  153.9610 O   0  0  0  0  0  0  0  0  0  0  0  0
  149.8064  141.9150  155.0653 C   0  0  0  0  0  0  0  0  0  0  0  0
  150.7792  141.4298  156.0291 N   0  0  0  0  0  0  0  0  0  0  0  0
  151.4863  140.2858  155.9492 C   0  0  0  0  0  0  0  0  0  0  0  0
  152.3385  140.0248  156.9357 N   0  0  0  0  0  0  0  0  0  0  0  0
  152.1464  141.1156  157.7646 C   0  0  0  0  0  0  0  0  0  0  0  0
  152.7646  141.4531  158.9881 C   0  0  0  0  0  0  0  0  0  0  0  0
  152.4139  142.6367  159.6749 C   0  0  0  0  0  0  0  0  0  0  0  0
  153.1107  142.9658  160.9832 C   0  0  0  0  0  0  0  0  0  0  0  0
  151.4220  143.4985  159.1428 C   0  0  0  0  0  0  0  0  0  0  0  0
  151.0283  144.7766  159.8618 C   0  0  0  0  0  0  0  0  0  0  0  0
  150.7903  143.1730  157.9248 C   0  0  0  0  0  0  0  0  0  0  0  0
  151.1613  142.0026  157.2392 C   0  0  0  0  0  0  0  0  0  0  0  0
  145.8174  143.3238  154.3301 C   0  0  0  0  0  0  0  0  0  0  0  0
  145.7799  143.7525  153.1770 O   0  0  0  0  0  0  0  0  0  0  0  0
  142.7606  147.1976  154.1660 H   0  0  0  0  0  0  0  0  0  0  0  0
  142.9037  145.7584  153.1606 H   0  0  0  0  0  0  0  0  0  0  0  0
  144.3050  146.3591  154.0474 H   0  0  0  0  0  0  0  0  0  0  0  0
  143.1296  145.8586  156.2137 H   0  0  0  0  0  0  0  0  0  0  0  0
  141.7529  145.2496  155.3276 H   0  0  0  0  0  0  0  0  0  0  0  0
  143.0110  143.2993  155.9790 H   0  0  0  0  0  0  0  0  0  0  0  0
  143.2843  143.4997  154.2749 H   0  0  0  0  0  0  0  0  0  0  0  0
  145.3984  144.9126  155.7031 H   0  0  0  0  0  0  0  0  0  0  0  0
  145.0695  143.0613  157.4738 H   0  0  0  0  0  0  0  0  0  0  0  0
  146.8575  140.6598  153.5768 H   0  0  0  0  0  0  0  0  0  0  0  0
  147.7972  142.0368  153.0979 H   0  0  0  0  0  0  0  0  0  0  0  0
  148.3393  140.4372  155.6634 H   0  0  0  0  0  0  0  0  0  0  0  0
  149.4056  140.2214  153.0970 H   0  0  0  0  0  0  0  0  0  0  0  0
  150.3453  142.1720  154.1524 H   0  0  0  0  0  0  0  0  0  0  0  0
  149.3815  142.8454  155.4454 H   0  0  0  0  0  0  0  0  0  0  0  0
  151.3855  139.6155  155.1081 H   0  0  0  0  0  0  0  0  0  0  0  0
  153.5169  140.7934  159.3945 H   0  0  0  0  0  0  0  0  0  0  0  0
  152.3858  143.0416  161.7938 H   0  0  0  0  0  0  0  0  0  0  0  0
  153.6431  143.9137  160.9039 H   0  0  0  0  0  0  0  0  0  0  0  0
  153.8354  142.1972  161.2532 H   0  0  0  0  0  0  0  0  0  0  0  0
  150.2748  145.3315  159.3025 H   0  0  0  0  0  0  0  0  0  0  0  0
  151.8945  145.4261  159.9891 H   0  0  0  0  0  0  0  0  0  0  0  0
  150.6164  144.5499  160.8452 H   0  0  0  0  0  0  0  0  0  0  0  0
  150.0356  143.8251  157.5122 H   0  0  0  0  0  0  0  0  0  0  0  0
  1  2  1  0  0  0  0
  1 26  1  0  0  0  0
  1 27  1  0  0  0  0
  1 28  1  0  0  0  0
  2  3  1  0  0  0  0
  2 29  1  0  0  0  0
  2 30  1  0  0  0  0
  3  4  1  0  0  0  0
  3 31  1  0  0  0  0
  3 32  1  0  0  0  0
  4 24  1  0  0  0  0
  4  5  1  0  0  0  0
  4 33  1  0  0  0  0
  5  6  1  0  0  0  0
  5 34  1  0  0  0  0
  6  7  2  0  0  0  0
  6  8  1  0  0  0  0
  8  9  1  0  0  0  0
  8 24  1  0  0  0  0
  9 10  1  0  0  0  0
  9 35  1  0  0  0  0
  9 36  1  0  0  0  0
 10 11  1  0  0  0  0
 10 12  1  0  0  0  0
 10 37  1  0  0  0  0
 11 38  1  0  0  0  0
 12 13  1  0  0  0  0
 12 39  1  0  0  0  0
 12 40  1  0  0  0  0
 13 23  1  0  0  0  0
 13 14  1  0  0  0  0
 14 15  2  0  0  0  0
 14 41  1  0  0  0  0
 15 16  1  0  0  0  0
 16 23  2  0  0  0  0
 16 17  1  0  0  0  0
 17 18  2  0  0  0  0
 17 42  1  0  0  0  0
 18 19  1  0  0  0  0
 18 20  1  0  0  0  0
 19 43  1  0  0  0  0
 19 44  1  0  0  0  0
 19 45  1  0  0  0  0
 20 21  1  0  0  0  0
 20 22  2  0  0  0  0
 21 46  1  0  0  0  0
 21 47  1  0  0  0  0
 21 48  1  0  0  0  0
 22 23  1  0  0  0  0
 22 49  1  0  0  0  0
 24 25  2  0  0  0  0
M  END
> <s_m_source_file>
AV-unprocessed.smi

> <i_m_source_file_index>
1644

> <i_lp_mmshare_version>
43012

> <i_f3d_flags>
0

> <s_epik_input>
W0NIM11bQ0gyXVtDSDJdW0NAQEhdMVtOSF1DKD1PKU4oQzE9TylbQ0gyXVtDQEhdKFtPSF0pW0NIMl1uKFtjSF1uMiljKGMyMylbY0hdYyhbQ0gzXSljKFtjSF0zKVtDSDNd

> <s_epik_cmdline>
J2VwaWtfcHl0aG9uJywgJy1waCcsICc3LjAnLCAnLXRuJywgJzgnLCAnLW1hJywgJzIwMCcsICctbWV0YWxfYmluZGluZycsICctaW1hZScsICc8aW5maWxlLm1hZT4nLCAnLW9tYWUnLCAnPG91dGZpbGUubWFlPic=

> <r_lp_tautomer_probability>
1

> <r_epik_Ionization_Penalty>
0.10693

> <r_epik_Ionization_Penalty_Charging>
0

> <r_epik_Ionization_Penalty_Neutral>
0.10693

> <r_epik_State_Penalty>
0.096713

> <r_epik_Charging_Adjusted_Penalty>
0.096713

> <i_epik_Tot_Q>
0

> <i_epik_Tot_abs_Q>
0

> <r_epik_Metal_State_Penalty>
0.102757

> <b_epik_Metal_Only>
0

> <s_lp_Force_Field>
OPLS_2005

> <r_lp_Energy>
20.3603

> <b_lp_Chiralities_Consistent>
1

> <s_lp_Variant>
AV-unprocessed.smi:1644-4

> <Gold.Version>
5.8.1

> <Gold.Id.Protein>
6NUR|6NUR_protein|mol2

> <Gold.PLP.Fitness>
53.2125

> <Gold.PLP.PLP>
-49.8258

> <Gold.PLP.part.hbond>
-2.6011

> <Gold.PLP.part.metal>
0.0000

> <Gold.PLP.part.buried>
-4.6556

> <Gold.PLP.part.nonpolar>
-41.4543

> <Gold.PLP.part.repulsive>
0.2549

> <Gold.PLP.ligand.clash>
0.0000

> <Gold.PLP.ligand.torsion>
1.3569

> <Gold.PLP.Chemscore.Hbond>
1.9913

> <Gold.PLP.Chemscore.CHOScore>
0.0000

> <Gold.PLP.Chemscore.Metal>
0.0000

> <Gold.Chemscore.Hbonds>
donor molecule, donor type, donor heavy atom, donor atom, acceptor molecule, acceptor atom, score
      L1  H    11    38       P1  7957  1.00
      P1  H  7997  8010       L1    15  0.94

> <Gold.PLP.Chemscore.Internal.Correction>
0.1269

> <Gold.Rescore>
     Score         DG    S(hbond)    S(metal)    S(lipo)     H(rot)  DE(clash)    DE(int)     intcor
     14.43     -17.96       1.72        0.00     117.24       2.72       0.84       2.69       ----

> <Gold.Chemscore.Fitness>
14.4291

> <Gold.Chemscore.DG>
-17.9614

> <Gold.Chemscore.ZeroCoef>
-5.4800

> <Gold.Chemscore.Hbond>
1.7156

> <Gold.Chemscore.Metal>
0.0000

> <Gold.Chemscore.Lipo>
117.2438

> <Gold.Chemscore.Internal_Hbond>
0.0000

> <Gold.Chemscore.DEClash>
0.8397

> <Gold.Chemscore.DEInternal>
2.6925

> <Gold.Chemscore.Rot>
2.7212

> <Gold.Chemscore.Internal.Correction>
   9.000000E+99

> <Gold.Chemscore.Hbonds>
donor molecule, donor type, donor heavy atom, donor atom, acceptor molecule, acceptor atom, score
      L1  H    11    38       P1  7957  0.96
      P1  H  7997  8010       L1    15  0.34

> <Gold.Chemscore.Hbond.Weighted>
-5.7301

> <Gold.Chemscore.Metal.Weighted>
-0.0000

> <Gold.Chemscore.Lipo.Weighted>
-13.7175

> <Gold.Chemscore.Internal_Hbond.Weighted>
0.0000

> <Gold.Chemscore.DEClash.Weighted>
0.8397

> <Gold.Chemscore.DEInternal.Weighted>
2.6925

> <Gold.Chemscore.Rot.Weighted>
6.9663

> <Gold.Chemscore.Internal.Correction.Weighted>
   9.000000E+99

> <Gold.Protein.RotatedTorsions>
[ 6907 6896 6895 6894 ] final  120.13 input  -60.11 | X-H torsion
[ 7974 7965 7964 7962 ] final -132.33 input  175.53 | X-H torsion
[ 8008 7997 7996 7995 ] final   67.34 input   59.86 | X-H torsion
[ 10167 10162 10161 10158 ] final -162.63 input  -65.29 | X-H torsion
[ 10718 10713 10712 10709 ] final -100.25 input   66.30 | X-H torsion
[ 10763 10752 10751 10750 ] final   42.61 input  -60.55 | X-H torsion
[ 11005 11000 10999 10996 ] final -152.42 input  -57.11 | X-H torsion

> <Gold.Protein.ActiveResidues>
 VAL166  LYS551  ARG553  GLY616  TRP617  ASP618  TYR619  PRO620  LYS621  CYS622 
 ASP623  PHE694  ASN695  SER759  ASP760  ASP761  ALA762  ILE779  LEU786  VAL792 
 PHE793  MET794  SER795  GLU796  ALA797  LYS798  CYS799  TRP800  GLU811  SER814 

> <Gold.Protein.RotatedAtoms>
  152.4421  133.7467  159.6670 H   0  0  0  0  0  0  0  0  0  0  0  0  # atno 6907 bound_to 6896
  150.8313  133.8076  159.3103 H   0  0  0  0  0  0  0  0  0  0  0  0  # atno 6908 bound_to 6896
  151.5729  135.1064  160.0051 H   0  0  0  0  0  0  0  0  0  0  0  0  # atno 6909 bound_to 6896
  144.9296  140.7112  143.4914 H   0  0  0  0  0  0  0  0  0  0  0  0  # atno 7974 bound_to 7965
  155.6913  140.3496  155.4895 H   0  0  0  0  0  0  0  0  0  0  0  0  # atno 8008 bound_to 7997
  155.9521  140.1121  157.0990 H   0  0  0  0  0  0  0  0  0  0  0  0  # atno 8009 bound_to 7997
  154.4124  140.1192  156.5053 H   0  0  0  0  0  0  0  0  0  0  0  0  # atno 8010 bound_to 7997
  139.6378  144.0316  152.2068 H   0  0  0  0  0  0  0  0  0  0  0  0  # atno 10167 bound_to 10162
  156.0157  130.5319  150.6789 H   0  0  0  0  0  0  0  0  0  0  0  0  # atno 10718 bound_to 10713
  152.9879  135.6126  154.2977 H   0  0  0  0  0  0  0  0  0  0  0  0  # atno 10763 bound_to 10752
  154.2699  135.2780  155.2744 H   0  0  0  0  0  0  0  0  0  0  0  0  # atno 10764 bound_to 10752
  154.5131  135.5835  153.6678 H   0  0  0  0  0  0  0  0  0  0  0  0  # atno 10765 bound_to 10752
  140.7190  134.3748  157.5186 H   0  0  0  0  0  0  0  0  0  0  0  0  # atno 11005 bound_to 11000
  145.3164  139.1802  143.4611 LP  0  0  0  0  0  0  0  0  0  0  0  0  # atno 17320 bound_to 7965
  146.3241  140.3175  142.8631 LP  0  0  0  0  0  0  0  0  0  0  0  0  # atno 17321 bound_to 7965
  139.9998  144.6301  150.7740 LP  0  0  0  0  0  0  0  0  0  0  0  0  # atno 17342 bound_to 10162
  140.7475  143.2907  151.3339 LP  0  0  0  0  0  0  0  0  0  0  0  0  # atno 17343 bound_to 10162
  157.4496  131.0871  151.0860 LP  0  0  0  0  0  0  0  0  0  0  0  0  # atno 17370 bound_to 10713
  157.1380  130.6130  149.5547 LP  0  0  0  0  0  0  0  0  0  0  0  0  # atno 17371 bound_to 10713
  139.8853  134.8942  156.2653 LP  0  0  0  0  0  0  0  0  0  0  0  0  # atno 17394 bound_to 11000
  141.0019  133.7146  156.0974 LP  0  0  0  0  0  0  0  0  0  0  0  0  # atno 17395 bound_to 11000

$$$$
