AV-unprocessed.smi:3058|AV-procd|sdf|11670|dock7
  -GOLD-   2272017 73D 1   1.00000     0.00000
 Structure written by MMmdl.
 38 40  0  0  0  0  0  0  0  0  1 V2000
  146.5866  133.4943  153.2108 O   0  0  0  0  0  0  0  0  0  0  0  0
  146.9431  132.8347  152.2334 C   0  0  0  0  0  0  0  0  0  0  0  0
  147.8615  131.8592  152.3074 N   0  0  0  0  0  0  0  0  0  0  0  0
  148.5627  131.4610  153.5219 C   0  0  0  0  0  0  0  0  0  0  0  0
  149.3999  132.6153  154.0960 C   0  0  0  0  0  0  0  0  0  0  0  0
  150.2374  132.1758  155.2805 C   0  0  0  0  0  0  0  0  0  0  0  0
  150.9049  130.9338  155.2717 C   0  0  0  0  0  0  0  0  0  0  0  0
  151.6768  130.5709  156.3921 C   0  0  0  0  0  0  0  0  0  0  0  0
  151.7489  131.4689  157.4760 C   0  0  0  0  0  0  0  0  0  0  0  0
  151.1145  132.6612  157.4948 N   0  0  0  0  0  0  0  0  0  0  0  0
  150.3760  133.0012  156.4166 C   0  0  0  0  0  0  0  0  0  0  0  0
  146.3282  133.0797  150.8441 C   0  0  1  0  0  0  0  0  0  0  0  0
  145.6497  131.8411  150.2078 C   0  0  0  0  0  0  0  0  0  0  0  0
  144.2430  132.3602  149.8549 C   0  0  1  0  0  0  0  0  0  0  0  0
  143.4176  132.5282  151.1445 C   0  0  0  0  0  0  0  0  0  0  0  0
  144.0308  133.7906  151.7775 C   0  0  0  0  0  0  0  0  0  0  0  0
  145.1858  134.1297  150.8092 C   0  0  2  0  0  0  0  0  0  0  0  0
  144.5309  133.8067  149.4692 C   0  0  0  0  0  0  0  0  0  0  0  0
  148.0927  131.3593  151.4611 H   0  0  0  0  0  0  0  0  0  0  0  0
  147.8482  131.0995  154.2637 H   0  0  0  0  0  0  0  0  0  0  0  0
  149.2096  130.6179  153.2779 H   0  0  0  0  0  0  0  0  0  0  0  0
  150.0579  133.0204  153.3260 H   0  0  0  0  0  0  0  0  0  0  0  0
  148.7522  133.4353  154.4092 H   0  0  0  0  0  0  0  0  0  0  0  0
  150.8297  130.2712  154.4219 H   0  0  0  0  0  0  0  0  0  0  0  0
  152.2019  129.6276  156.4197 H   0  0  0  0  0  0  0  0  0  0  0  0
  152.3323  131.2228  158.3509 H   0  0  0  0  0  0  0  0  0  0  0  0
  149.8845  133.9621  156.4612 H   0  0  0  0  0  0  0  0  0  0  0  0
  147.1242  133.4117  150.1746 H   0  0  0  0  0  0  0  0  0  0  0  0
  146.1832  131.5451  149.3037 H   0  0  0  0  0  0  0  0  0  0  0  0
  145.6078  130.9650  150.8562 H   0  0  0  0  0  0  0  0  0  0  0  0
  143.7401  131.7694  149.0889 H   0  0  0  0  0  0  0  0  0  0  0  0
  142.3625  132.6866  150.9179 H   0  0  0  0  0  0  0  0  0  0  0  0
  143.4937  131.6578  151.7975 H   0  0  0  0  0  0  0  0  0  0  0  0
  143.2978  134.5984  151.7847 H   0  0  0  0  0  0  0  0  0  0  0  0
  144.3455  133.6405  152.8094 H   0  0  0  0  0  0  0  0  0  0  0  0
  145.5389  135.1576  150.8966 H   0  0  0  0  0  0  0  0  0  0  0  0
  145.2086  133.9020  148.6188 H   0  0  0  0  0  0  0  0  0  0  0  0
  143.6292  134.3896  149.2729 H   0  0  0  0  0  0  0  0  0  0  0  0
  1  2  2  0  0  0  0
  2  3  1  0  0  0  0
  2 12  1  0  0  0  0
  3  4  1  0  0  0  0
  3 19  1  0  0  0  0
  4  5  1  0  0  0  0
  4 20  1  0  0  0  0
  4 21  1  0  0  0  0
  5  6  1  0  0  0  0
  5 22  1  0  0  0  0
  5 23  1  0  0  0  0
  6 11  1  0  0  0  0
  6  7  2  0  0  0  0
  7  8  1  0  0  0  0
  7 24  1  0  0  0  0
  8  9  2  0  0  0  0
  8 25  1  0  0  0  0
  9 10  1  0  0  0  0
  9 26  1  0  0  0  0
 10 11  2  0  0  0  0
 11 27  1  0  0  0  0
 12 17  1  0  0  0  0
 12 13  1  0  0  0  0
 12 28  1  0  0  0  0
 13 14  1  0  0  0  0
 13 29  1  0  0  0  0
 13 30  1  0  0  0  0
 14 18  1  0  0  0  0
 14 15  1  0  0  0  0
 14 31  1  0  0  0  0
 15 16  1  0  0  0  0
 15 32  1  0  0  0  0
 15 33  1  0  0  0  0
 16 17  1  0  0  0  0
 16 34  1  0  0  0  0
 16 35  1  0  0  0  0
 17 18  1  0  0  0  0
 17 36  1  0  0  0  0
 18 37  1  0  0  0  0
 18 38  1  0  0  0  0
M  END
> <s_m_source_file>
AV-unprocessed.smi

> <i_m_source_file_index>
3058

> <i_lp_mmshare_version>
43012

> <i_f3d_flags>
0

> <s_epik_input>
W0NIMl0xW0NIMl1bQ0BIXShbQ0gyXTIpW0NAQEhdKFtDSDJdW0NAQEhdMTIpQyg9TylbTkhdW0NIMl1bQ0gyXWMzW2NIXVtjSF1bY0hdbltjSF0z

> <s_epik_cmdline>
J2VwaWtfcHl0aG9uJywgJy1waCcsICc3LjAnLCAnLXRuJywgJzgnLCAnLW1hJywgJzIwMCcsICctbWV0YWxfYmluZGluZycsICctaW1hZScsICc8aW5maWxlLm1hZT4nLCAnLW9tYWUnLCAnPG91dGZpbGUubWFlPic=

> <r_epik_Ionization_Penalty>
0.0135821

> <r_epik_Ionization_Penalty_Charging>
0

> <r_epik_Ionization_Penalty_Neutral>
0.0135821

> <r_epik_State_Penalty>
0.0105782

> <r_epik_Charging_Adjusted_Penalty>
0.0105782

> <i_epik_Tot_Q>
0

> <i_epik_Tot_abs_Q>
0

> <r_epik_Metal_State_Penalty>
0.0103407

> <b_epik_Metal_Only>
0

> <s_lp_Force_Field>
OPLS_2005

> <r_lp_Energy>
46.4092

> <b_lp_Chiralities_Consistent>
1

> <s_lp_Variant>
AV-unprocessed.smi:3058-2

> <Gold.Version>
5.8.1

> <Gold.Id.Protein>
6NUR|6NUR_protein|mol2

> <Gold.PLP.Fitness>
40.9544

> <Gold.PLP.PLP>
-35.5609

> <Gold.PLP.part.hbond>
-1.9666

> <Gold.PLP.part.metal>
0.0000

> <Gold.PLP.part.buried>
-2.0255

> <Gold.PLP.part.nonpolar>
-31.5842

> <Gold.PLP.part.repulsive>
0.1111

> <Gold.PLP.ligand.clash>
0.0000

> <Gold.PLP.ligand.torsion>
0.2983

> <Gold.PLP.Chemscore.Hbond>
1.9920

> <Gold.PLP.Chemscore.CHOScore>
0.0000

> <Gold.PLP.Chemscore.Metal>
0.0000

> <Gold.Chemscore.Hbonds>
donor molecule, donor type, donor heavy atom, donor atom, acceptor molecule, acceptor atom, score
      L1  H     3    19       P1 10747  1.00
      P1  H  6896  6909       L1    10  1.00

> <Gold.PLP.Chemscore.Internal.Correction>
0.0141

> <Gold.Rescore>
     Score         DG    S(hbond)    S(metal)    S(lipo)     H(rot)  DE(clash)    DE(int)     intcor
     16.51     -19.03       1.92        0.00      90.91       1.37       0.03       2.49       ----

> <Gold.Chemscore.Fitness>
16.5104

> <Gold.Chemscore.DG>
-19.0318

> <Gold.Chemscore.ZeroCoef>
-5.4800

> <Gold.Chemscore.Hbond>
1.9194

> <Gold.Chemscore.Metal>
0.0000

> <Gold.Chemscore.Lipo>
90.9066

> <Gold.Chemscore.Internal_Hbond>
0.0000

> <Gold.Chemscore.DEClash>
0.0333

> <Gold.Chemscore.DEInternal>
2.4881

> <Gold.Chemscore.Rot>
1.3653

> <Gold.Chemscore.Internal.Correction>
   9.000000E+99

> <Gold.Chemscore.Hbonds>
donor molecule, donor type, donor heavy atom, donor atom, acceptor molecule, acceptor atom, score
      L1  H     3    19       P1 10747  0.95
      P1  H  6896  6909       L1    10  0.43

> <Gold.Chemscore.Hbond.Weighted>
-6.4108

> <Gold.Chemscore.Metal.Weighted>
-0.0000

> <Gold.Chemscore.Lipo.Weighted>
-10.6361

> <Gold.Chemscore.Internal_Hbond.Weighted>
0.0000

> <Gold.Chemscore.DEClash.Weighted>
0.0333

> <Gold.Chemscore.DEInternal.Weighted>
2.4881

> <Gold.Chemscore.Rot.Weighted>
3.4951

> <Gold.Chemscore.Internal.Correction.Weighted>
   9.000000E+99

> <Gold.Protein.RotatedTorsions>
[ 6907 6896 6895 6894 ] final  -49.35 input  -60.11 | X-H torsion
[ 7974 7965 7964 7962 ] final -143.19 input  175.53 | X-H torsion
[ 8008 7997 7996 7995 ] final  115.95 input   59.86 | X-H torsion
[ 10167 10162 10161 10158 ] final  162.47 input  -65.29 | X-H torsion
[ 10718 10713 10712 10709 ] final  173.28 input   66.30 | X-H torsion
[ 10763 10752 10751 10750 ] final -170.67 input  -60.55 | X-H torsion
[ 11005 11000 10999 10996 ] final  107.91 input  -57.11 | X-H torsion

> <Gold.Protein.ActiveResidues>
 VAL166  LYS551  ARG553  GLY616  TRP617  ASP618  TYR619  PRO620  LYS621  CYS622 
 ASP623  PHE694  ASN695  SER759  ASP760  ASP761  ALA762  ILE779  LEU786  VAL792 
 PHE793  MET794  SER795  GLU796  ALA797  LYS798  CYS799  TRP800  GLU811  SER814 

> <Gold.Protein.RotatedAtoms>
  150.8814  134.8205  159.7227 H   0  0  0  0  0  0  0  0  0  0  0  0  # atno 6907 bound_to 6896
  152.4780  134.4790  159.9669 H   0  0  0  0  0  0  0  0  0  0  0  0  # atno 6908 bound_to 6896
  151.4865  133.3496  159.2882 H   0  0  0  0  0  0  0  0  0  0  0  0  # atno 6909 bound_to 6896
  144.8388  140.5866  143.5466 H   0  0  0  0  0  0  0  0  0  0  0  0  # atno 7974 bound_to 7965
  156.2411  140.2928  156.0447 H   0  0  0  0  0  0  0  0  0  0  0  0  # atno 8008 bound_to 7997
  155.1948  140.0408  157.2924 H   0  0  0  0  0  0  0  0  0  0  0  0  # atno 8009 bound_to 7997
  154.6170  140.2466  155.7604 H   0  0  0  0  0  0  0  0  0  0  0  0  # atno 8010 bound_to 7997
  139.4861  144.4435  151.8922 H   0  0  0  0  0  0  0  0  0  0  0  0  # atno 10167 bound_to 10162
  156.9666  131.0077  151.2915 H   0  0  0  0  0  0  0  0  0  0  0  0  # atno 10718 bound_to 10713
  154.6390  135.2896  155.0127 H   0  0  0  0  0  0  0  0  0  0  0  0  # atno 10763 bound_to 10752
  154.1260  135.6541  153.4916 H   0  0  0  0  0  0  0  0  0  0  0  0  # atno 10764 bound_to 10752
  153.0317  135.5299  154.7248 H   0  0  0  0  0  0  0  0  0  0  0  0  # atno 10765 bound_to 10752
  139.8835  134.9415  156.5892 H   0  0  0  0  0  0  0  0  0  0  0  0  # atno 11005 bound_to 11000
  145.4738  139.1501  143.3799 LP  0  0  0  0  0  0  0  0  0  0  0  0  # atno 17320 bound_to 7965
  146.2683  140.4872  142.8825 LP  0  0  0  0  0  0  0  0  0  0  0  0  # atno 17321 bound_to 7965
  140.3888  144.2643  150.5901 LP  0  0  0  0  0  0  0  0  0  0  0  0  # atno 17342 bound_to 10162
  140.5166  143.2276  151.8454 LP  0  0  0  0  0  0  0  0  0  0  0  0  # atno 17343 bound_to 10162
  157.5621  130.8253  149.8280 LP  0  0  0  0  0  0  0  0  0  0  0  0  # atno 17370 bound_to 10713
  156.0300  130.3767  150.1714 LP  0  0  0  0  0  0  0  0  0  0  0  0  # atno 17371 bound_to 10713
  140.7969  133.8537  155.8693 LP  0  0  0  0  0  0  0  0  0  0  0  0  # atno 17394 bound_to 11000
  140.9628  134.1634  157.4640 LP  0  0  0  0  0  0  0  0  0  0  0  0  # atno 17395 bound_to 11000

$$$$
