AV-unprocessed.smi:2133|AV-procd|sdf|8692|dock7
  -GOLD-   2272011453D 1   1.00000     0.00000
 Structure written by MMmdl.
 45 47  0  0  0  0  0  0  0  0  1 V2000
  155.0364  139.8321  160.5371 C   0  0  0  0  0  0  0  0  0  0  0  0
  154.0080  140.8564  160.2732 N   0  0  0  0  0  0  0  0  0  0  0  0
  153.3430  140.8139  159.0757 C   0  0  0  0  0  0  0  0  0  0  0  0
  153.5312  139.9730  158.1962 O   0  0  0  0  0  0  0  0  0  0  0  0
  152.3505  141.8809  158.9098 C   0  0  0  0  0  0  0  0  0  0  0  0
  152.1072  142.8138  159.8621 C   0  0  0  0  0  0  0  0  0  0  0  0
  151.1192  143.7050  159.4597 N   0  0  0  0  0  0  0  0  0  0  0  0
  150.8120  143.2480  158.2455 C   0  0  0  0  0  0  0  0  0  0  0  0
  151.5005  142.1615  157.8401 N   0  0  0  0  0  0  0  0  0  0  0  0
  151.3451  141.4836  156.5619 C   0  0  0  0  0  0  0  0  0  0  0  0
  149.9200  140.9343  156.3536 C   0  0  2  0  0  0  0  0  0  0  0  0
  149.9369  139.5206  156.3454 O   0  0  0  0  0  0  0  0  0  0  0  0
  149.2918  141.4236  155.0408 C   0  0  0  0  0  0  0  0  0  0  0  0
  148.0135  140.8279  154.8944 O   0  0  0  0  0  0  0  0  0  0  0  0
  147.2518  141.3994  153.8433 C   0  0  0  0  0  0  0  0  0  0  0  0
  146.2074  142.3723  154.3589 C   0  0  0  0  0  0  0  0  0  0  0  0
  145.6539  142.2127  155.6477 C   0  0  0  0  0  0  0  0  0  0  0  0
  144.6733  143.1100  156.1141 C   0  0  0  0  0  0  0  0  0  0  0  0
  144.2363  144.1664  155.2919 C   0  0  0  0  0  0  0  0  0  0  0  0
  144.7786  144.3240  154.0020 C   0  0  0  0  0  0  0  0  0  0  0  0
  145.7597  143.4272  153.5354 C   0  0  0  0  0  0  0  0  0  0  0  0
  152.8458  142.7630  161.0699 N   0  0  0  0  0  0  0  0  0  0  0  0
  152.5530  143.7879  162.0763 C   0  0  0  0  0  0  0  0  0  0  0  0
  153.7952  141.7906  161.2733 C   0  0  0  0  0  0  0  0  0  0  0  0
  154.4421  141.7523  162.3234 O   0  0  0  0  0  0  0  0  0  0  0  0
  155.1817  139.1086  159.7344 H   0  0  0  0  0  0  0  0  0  0  0  0
  154.7803  139.2571  161.4283 H   0  0  0  0  0  0  0  0  0  0  0  0
  156.0062  140.3022  160.7086 H   0  0  0  0  0  0  0  0  0  0  0  0
  150.0586  143.7175  157.6299 H   0  0  0  0  0  0  0  0  0  0  0  0
  151.5803  142.2028  155.7762 H   0  0  0  0  0  0  0  0  0  0  0  0
  152.0879  140.6931  156.4690 H   0  0  0  0  0  0  0  0  0  0  0  0
  149.2861  141.2469  157.1844 H   0  0  0  0  0  0  0  0  0  0  0  0
  150.6070  139.2251  156.9426 H   0  0  0  0  0  0  0  0  0  0  0  0
  149.2091  142.5119  155.0378 H   0  0  0  0  0  0  0  0  0  0  0  0
  149.9222  141.1389  154.1965 H   0  0  0  0  0  0  0  0  0  0  0  0
  147.9161  141.9184  153.1502 H   0  0  0  0  0  0  0  0  0  0  0  0
  146.7439  140.6135  153.2826 H   0  0  0  0  0  0  0  0  0  0  0  0
  145.9784  141.4025  156.2842 H   0  0  0  0  0  0  0  0  0  0  0  0
  144.2551  142.9862  157.1023 H   0  0  0  0  0  0  0  0  0  0  0  0
  143.4832  144.8533  155.6494 H   0  0  0  0  0  0  0  0  0  0  0  0
  144.4411  145.1318  153.3695 H   0  0  0  0  0  0  0  0  0  0  0  0
  146.1683  143.5531  152.5434 H   0  0  0  0  0  0  0  0  0  0  0  0
  153.1474  143.7096  162.9869 H   0  0  0  0  0  0  0  0  0  0  0  0
  151.5040  143.7307  162.3688 H   0  0  0  0  0  0  0  0  0  0  0  0
  152.7296  144.7798  161.6588 H   0  0  0  0  0  0  0  0  0  0  0  0
  1  2  1  0  0  0  0
  1 26  1  0  0  0  0
  1 27  1  0  0  0  0
  1 28  1  0  0  0  0
  2 24  1  0  0  0  0
  2  3  1  0  0  0  0
  3  4  2  0  0  0  0
  3  5  1  0  0  0  0
  5  9  1  0  0  0  0
  5  6  2  0  0  0  0
  6  7  1  0  0  0  0
  6 22  1  0  0  0  0
  7  8  2  0  0  0  0
  8  9  1  0  0  0  0
  8 29  1  0  0  0  0
  9 10  1  0  0  0  0
 10 11  1  0  0  0  0
 10 30  1  0  0  0  0
 10 31  1  0  0  0  0
 11 12  1  0  0  0  0
 11 13  1  0  0  0  0
 11 32  1  0  0  0  0
 12 33  1  0  0  0  0
 13 14  1  0  0  0  0
 13 34  1  0  0  0  0
 13 35  1  0  0  0  0
 14 15  1  0  0  0  0
 15 16  1  0  0  0  0
 15 36  1  0  0  0  0
 15 37  1  0  0  0  0
 16 21  1  0  0  0  0
 16 17  2  0  0  0  0
 17 18  1  0  0  0  0
 17 38  1  0  0  0  0
 18 19  2  0  0  0  0
 18 39  1  0  0  0  0
 19 20  1  0  0  0  0
 19 40  1  0  0  0  0
 20 21  2  0  0  0  0
 20 41  1  0  0  0  0
 21 42  1  0  0  0  0
 22 23  1  0  0  0  0
 22 24  1  0  0  0  0
 23 43  1  0  0  0  0
 23 44  1  0  0  0  0
 23 45  1  0  0  0  0
 24 25  2  0  0  0  0
M  END
> <s_m_source_file>
AV-unprocessed.smi

> <i_m_source_file_index>
2133

> <i_lp_mmshare_version>
43012

> <i_f3d_flags>
0

> <s_epik_input>
Tz1jMW4oW0NIM10pYyg9TyluKFtDSDNdKWMoYzEyKW5bY0hdbjJbQ0gyXVtDQEhdKFtPSF0pW0NIMl1PW0NIMl1jM1tjSF1bY0hdW2NIXVtjSF1bY0hdMw==

> <s_epik_cmdline>
J2VwaWtfcHl0aG9uJywgJy1waCcsICc3LjAnLCAnLXRuJywgJzgnLCAnLW1hJywgJzIwMCcsICctbWV0YWxfYmluZGluZycsICctaW1hZScsICc8aW5maWxlLm1hZT4nLCAnLW9tYWUnLCAnPG91dGZpbGUubWFlPic=

> <r_lp_tautomer_probability>
1

> <r_epik_Ionization_Penalty>
1.52174e-06

> <r_epik_Ionization_Penalty_Charging>
3.83535e-09

> <r_epik_Ionization_Penalty_Neutral>
1.5179e-06

> <r_epik_State_Penalty>
-0

> <r_epik_Charging_Adjusted_Penalty>
3.83535e-09

> <i_epik_Tot_Q>
0

> <i_epik_Tot_abs_Q>
0

> <r_epik_Metal_State_Penalty>
-0

> <b_epik_Metal_Only>
0

> <s_lp_Force_Field>
OPLS_2005

> <r_lp_Energy>
38.2919

> <b_lp_Chiralities_Consistent>
1

> <s_lp_Variant>
AV-unprocessed.smi:2133-1

> <Gold.Version>
5.8.1

> <Gold.Id.Protein>
6NUR|6NUR_protein|mol2

> <Gold.PLP.Fitness>
58.1486

> <Gold.PLP.PLP>
-54.8907

> <Gold.PLP.part.hbond>
-2.0000

> <Gold.PLP.part.metal>
0.0000

> <Gold.PLP.part.buried>
-8.2176

> <Gold.PLP.part.nonpolar>
-43.2886

> <Gold.PLP.part.repulsive>
0.1523

> <Gold.PLP.ligand.clash>
0.0000

> <Gold.PLP.ligand.torsion>
1.4289

> <Gold.PLP.Chemscore.Hbond>
1.0000

> <Gold.PLP.Chemscore.CHOScore>
1.0000

> <Gold.PLP.Chemscore.Metal>
0.0000

> <Gold.Chemscore.Hbonds>
donor molecule, donor type, donor heavy atom, donor atom, acceptor molecule, acceptor atom, score
      P1  H  7997  8010       L1     4  0.94
      L1  C     8    29       P1  8028  1.00

> <Gold.PLP.Chemscore.Internal.Correction>
0.1156

> <Gold.Rescore>
     Score         DG    S(hbond)    S(metal)    S(lipo)     H(rot)  DE(clash)    DE(int)     intcor
      9.68     -11.36       0.94        0.00      87.15       2.91       0.27       1.41       ----

> <Gold.Chemscore.Fitness>
9.6835

> <Gold.Chemscore.DG>
-11.3622

> <Gold.Chemscore.ZeroCoef>
-5.4800

> <Gold.Chemscore.Hbond>
0.9410

> <Gold.Chemscore.Metal>
0.0000

> <Gold.Chemscore.Lipo>
87.1531

> <Gold.Chemscore.Internal_Hbond>
0.0000

> <Gold.Chemscore.DEClash>
0.2700

> <Gold.Chemscore.DEInternal>
1.4088

> <Gold.Chemscore.Rot>
2.9132

> <Gold.Chemscore.Internal.Correction>
   9.000000E+99

> <Gold.Chemscore.Hbonds>
donor molecule, donor type, donor heavy atom, donor atom, acceptor molecule, acceptor atom, score
      P1  H  7997  8010       L1     4  0.89

> <Gold.Chemscore.Hbond.Weighted>
-3.1431

> <Gold.Chemscore.Metal.Weighted>
-0.0000

> <Gold.Chemscore.Lipo.Weighted>
-10.1969

> <Gold.Chemscore.Internal_Hbond.Weighted>
0.0000

> <Gold.Chemscore.DEClash.Weighted>
0.2700

> <Gold.Chemscore.DEInternal.Weighted>
1.4088

> <Gold.Chemscore.Rot.Weighted>
7.4578

> <Gold.Chemscore.Internal.Correction.Weighted>
   9.000000E+99

> <Gold.Protein.RotatedTorsions>
[ 6907 6896 6895 6894 ] final  -51.07 input  -60.11 | X-H torsion
[ 7974 7965 7964 7962 ] final  -41.05 input  175.53 | X-H torsion
[ 8008 7997 7996 7995 ] final   17.08 input   59.86 | X-H torsion
[ 10167 10162 10161 10158 ] final   43.88 input  -65.29 | X-H torsion
[ 10718 10713 10712 10709 ] final  -82.66 input   66.30 | X-H torsion
[ 10763 10752 10751 10750 ] final  -81.25 input  -60.55 | X-H torsion
[ 11005 11000 10999 10996 ] final  103.80 input  -57.11 | X-H torsion

> <Gold.Protein.ActiveResidues>
 VAL166  LYS551  ARG553  GLY616  TRP617  ASP618  TYR619  PRO620  LYS621  CYS622 
 ASP623  PHE694  ASN695  SER759  ASP760  ASP761  ALA762  ILE779  LEU786  VAL792 
 PHE793  MET794  SER795  GLU796  ALA797  LYS798  CYS799  TRP800  GLU811  SER814 

> <Gold.Protein.RotatedAtoms>
  150.8646  134.8006  159.7108 H   0  0  0  0  0  0  0  0  0  0  0  0  # atno 6907 bound_to 6896
  152.4672  134.5044  159.9744 H   0  0  0  0  0  0  0  0  0  0  0  0  # atno 6908 bound_to 6896
  151.5143  133.3440  159.2926 H   0  0  0  0  0  0  0  0  0  0  0  0  # atno 6909 bound_to 6896
  146.0247  140.6806  142.9161 H   0  0  0  0  0  0  0  0  0  0  0  0  # atno 7974 bound_to 7965
  154.8862  140.2980  155.5397 H   0  0  0  0  0  0  0  0  0  0  0  0  # atno 8008 bound_to 7997
  156.3021  140.2433  156.3805 H   0  0  0  0  0  0  0  0  0  0  0  0  # atno 8009 bound_to 7997
  154.8666  140.0403  157.1687 H   0  0  0  0  0  0  0  0  0  0  0  0  # atno 8010 bound_to 7997
  140.3399  144.2483  150.6157 H   0  0  0  0  0  0  0  0  0  0  0  0  # atno 10167 bound_to 10162
  156.0030  130.4641  150.4138 H   0  0  0  0  0  0  0  0  0  0  0  0  # atno 10718 bound_to 10713
  154.5613  135.5633  153.7010 H   0  0  0  0  0  0  0  0  0  0  0  0  # atno 10763 bound_to 10752
  153.0019  135.6274  154.2241 H   0  0  0  0  0  0  0  0  0  0  0  0  # atno 10764 bound_to 10752
  154.2179  135.2871  155.2915 H   0  0  0  0  0  0  0  0  0  0  0  0  # atno 10765 bound_to 10752
  139.8786  134.9277  156.5265 H   0  0  0  0  0  0  0  0  0  0  0  0  # atno 11005 bound_to 11000
  144.7004  140.3628  143.7160 LP  0  0  0  0  0  0  0  0  0  0  0  0  # atno 17320 bound_to 7965
  145.7137  139.1691  143.2524 LP  0  0  0  0  0  0  0  0  0  0  0  0  # atno 17321 bound_to 7965
  140.5318  143.2241  151.8226 LP  0  0  0  0  0  0  0  0  0  0  0  0  # atno 17342 bound_to 10162
  139.4842  144.4710  151.9425 LP  0  0  0  0  0  0  0  0  0  0  0  0  # atno 17343 bound_to 10162
  157.2199  131.0480  151.2552 LP  0  0  0  0  0  0  0  0  0  0  0  0  # atno 17370 bound_to 10713
  157.3810  130.7231  149.6630 LP  0  0  0  0  0  0  0  0  0  0  0  0  # atno 17371 bound_to 10713
  140.8412  133.8203  155.9077 LP  0  0  0  0  0  0  0  0  0  0  0  0  # atno 17394 bound_to 11000
  140.9235  134.2112  157.4911 LP  0  0  0  0  0  0  0  0  0  0  0  0  # atno 17395 bound_to 11000

$$$$
