AV-unprocessed.smi:3253|AV-procd|sdf|12449|dock4
  -GOLD-   2272018343D 1   1.00000     0.00000
 Structure written by MMmdl.
 36 37  0  0  0  0  0  0  0  0  1 V2000
  147.5508  131.7283  153.2878 C   0  0  0  0  0  0  0  0  0  0  0  0
  147.2000  133.1827  152.9219 C   0  0  2  0  0  0  0  0  0  0  0  0
  147.1254  133.4213  151.4007 C   0  0  0  0  0  0  0  0  0  0  0  0
  145.8836  132.9498  150.8172 N   0  0  0  0  0  0  0  0  0  0  0  0
  144.6140  133.4840  150.9960 C   0  0  0  0  0  0  0  0  0  0  0  0
  143.7531  132.7075  150.2536 C   0  0  0  0  0  0  0  0  0  0  0  0
  144.4657  131.6930  149.6187 N   0  0  0  0  0  0  0  0  0  0  0  0
  145.7190  131.8994  150.0014 C   0  0  0  0  0  0  0  0  0  0  0  0
  148.1779  134.1001  153.5006 N   0  0  0  0  0  0  0  0  0  0  0  0
  148.6462  134.0467  154.7575 C   0  0  0  0  0  0  0  0  0  0  0  0
  148.2976  133.1924  155.5730 O   0  0  0  0  0  0  0  0  0  0  0  0
  149.6660  135.1254  155.1551 C   0  0  2  0  0  0  0  0  0  0  0  0
  150.2225  134.8796  156.5724 C   0  0  0  0  0  0  0  0  0  0  0  0
  149.6746  136.0379  157.3896 C   0  0  0  0  0  0  0  0  0  0  0  0
  149.8306  136.1302  158.6061 O   0  0  0  0  0  0  0  0  0  0  0  0
  149.0154  136.9015  156.6125 N   0  0  0  0  0  0  0  0  0  0  0  0
  148.3513  138.1169  157.0634 C   0  0  0  0  0  0  0  0  0  0  0  0
  149.0416  136.5377  155.2060 C   0  0  0  0  0  0  0  0  0  0  0  0
  146.7967  131.0312  152.9222 H   0  0  0  0  0  0  0  0  0  0  0  0
  147.6113  131.5956  154.3684 H   0  0  0  0  0  0  0  0  0  0  0  0
  148.5104  131.4335  152.8625 H   0  0  0  0  0  0  0  0  0  0  0  0
  146.2192  133.4128  153.3430 H   0  0  0  0  0  0  0  0  0  0  0  0
  147.2199  134.4855  151.1799 H   0  0  0  0  0  0  0  0  0  0  0  0
  147.9552  132.9228  150.8972 H   0  0  0  0  0  0  0  0  0  0  0  0
  144.4330  134.3497  151.6159 H   0  0  0  0  0  0  0  0  0  0  0  0
  142.6840  132.7989  150.1296 H   0  0  0  0  0  0  0  0  0  0  0  0
  146.5378  131.2729  149.6791 H   0  0  0  0  0  0  0  0  0  0  0  0
  148.5222  134.8351  152.9000 H   0  0  0  0  0  0  0  0  0  0  0  0
  150.4861  135.1208  154.4347 H   0  0  0  0  0  0  0  0  0  0  0  0
  149.9142  133.9268  157.0070 H   0  0  0  0  0  0  0  0  0  0  0  0
  151.3123  134.9141  156.5781 H   0  0  0  0  0  0  0  0  0  0  0  0
  149.0557  138.7712  157.5781 H   0  0  0  0  0  0  0  0  0  0  0  0
  147.5402  137.8749  157.7510 H   0  0  0  0  0  0  0  0  0  0  0  0
  147.9294  138.6698  156.2234 H   0  0  0  0  0  0  0  0  0  0  0  0
  149.6574  137.2534  154.6598 H   0  0  0  0  0  0  0  0  0  0  0  0
  148.0364  136.5777  154.7820 H   0  0  0  0  0  0  0  0  0  0  0  0
  1  2  1  0  0  0  0
  1 19  1  0  0  0  0
  1 20  1  0  0  0  0
  1 21  1  0  0  0  0
  2  3  1  0  0  0  0
  2  9  1  0  0  0  0
  2 22  1  0  0  0  0
  3  4  1  0  0  0  0
  3 23  1  0  0  0  0
  3 24  1  0  0  0  0
  4  8  1  0  0  0  0
  4  5  1  0  0  0  0
  5  6  2  0  0  0  0
  5 25  1  0  0  0  0
  6  7  1  0  0  0  0
  6 26  1  0  0  0  0
  7  8  2  0  0  0  0
  8 27  1  0  0  0  0
  9 10  1  0  0  0  0
  9 28  1  0  0  0  0
 10 11  2  0  0  0  0
 10 12  1  0  0  0  0
 12 18  1  0  0  0  0
 12 13  1  0  0  0  0
 12 29  1  0  0  0  0
 13 14  1  0  0  0  0
 13 30  1  0  0  0  0
 13 31  1  0  0  0  0
 14 15  2  0  0  0  0
 14 16  1  0  0  0  0
 16 17  1  0  0  0  0
 16 18  1  0  0  0  0
 17 32  1  0  0  0  0
 17 33  1  0  0  0  0
 17 34  1  0  0  0  0
 18 35  1  0  0  0  0
 18 36  1  0  0  0  0
M  END
> <s_m_source_file>
AV-unprocessed.smi

> <i_m_source_file_index>
3253

> <i_lp_mmshare_version>
43012

> <i_f3d_flags>
0

> <s_epik_input>
W2NIXTFuW2NIXVtjSF1uMVtDSDJdW0NAQEhdKFtDSDNdKVtOSF1DKD1PKVtDQEBIXTJbQ0gyXUMoPU8pTihbQ0gzXSlbQ0gyXTI=

> <s_epik_cmdline>
J2VwaWtfcHl0aG9uJywgJy1waCcsICc3LjAnLCAnLXRuJywgJzgnLCAnLW1hJywgJzIwMCcsICctbWV0YWxfYmluZGluZycsICctaW1hZScsICc8aW5maWxlLm1hZT4nLCAnLW9tYWUnLCAnPG91dGZpbGUubWFlPic=

> <r_lp_tautomer_probability>
1

> <r_epik_Ionization_Penalty>
0.628884

> <r_epik_Ionization_Penalty_Charging>
0.628884

> <r_epik_Ionization_Penalty_Neutral>
2.35084e-08

> <r_epik_State_Penalty>
0.64556

> <r_epik_Charging_Adjusted_Penalty>
1.27444

> <i_epik_Tot_Q>
0

> <i_epik_Tot_abs_Q>
0

> <r_epik_Metal_State_Penalty>
0.308736

> <b_epik_Metal_Only>
0

> <s_lp_Force_Field>
OPLS_2005

> <r_lp_Energy>
13.4006

> <b_lp_Chiralities_Consistent>
1

> <s_lp_Variant>
AV-unprocessed.smi:3253-5

> <Gold.Version>
5.8.1

> <Gold.Id.Protein>
6NUR|6NUR_protein|mol2

> <Gold.PLP.Fitness>
38.9849

> <Gold.PLP.PLP>
-26.8368

> <Gold.PLP.part.hbond>
-3.0000

> <Gold.PLP.part.metal>
0.0000

> <Gold.PLP.part.buried>
-4.0306

> <Gold.PLP.part.nonpolar>
-20.8874

> <Gold.PLP.part.repulsive>
0.1536

> <Gold.PLP.ligand.clash>
0.0000

> <Gold.PLP.ligand.torsion>
0.5036

> <Gold.PLP.Chemscore.Hbond>
2.3788

> <Gold.PLP.Chemscore.CHOScore>
1.9928

> <Gold.PLP.Chemscore.Metal>
0.0000

> <Gold.Chemscore.Hbonds>
donor molecule, donor type, donor heavy atom, donor atom, acceptor molecule, acceptor atom, score
      L1  H     9    28       P1  7948  1.00
      P1  H  6896  6907       L1    15  1.00
      P1  H 10785 10796       L1     7  0.31
      L1  C     6    26       P1 10186  1.00
      L1  C     8    27       P1 10747  1.00

> <Gold.PLP.Chemscore.Internal.Correction>
0.0403

> <Gold.Rescore>
     Score         DG    S(hbond)    S(metal)    S(lipo)     H(rot)  DE(clash)    DE(int)     intcor
     12.64     -14.56       2.62        0.00      45.76       1.97       0.07       1.86       ----

> <Gold.Chemscore.Fitness>
12.6415

> <Gold.Chemscore.DG>
-14.5627

> <Gold.Chemscore.ZeroCoef>
-5.4800

> <Gold.Chemscore.Hbond>
2.6239

> <Gold.Chemscore.Metal>
0.0000

> <Gold.Chemscore.Lipo>
45.7619

> <Gold.Chemscore.Internal_Hbond>
0.0000

> <Gold.Chemscore.DEClash>
0.0650

> <Gold.Chemscore.DEInternal>
1.8562

> <Gold.Chemscore.Rot>
1.9669

> <Gold.Chemscore.Internal.Correction>
   9.000000E+99

> <Gold.Chemscore.Hbonds>
donor molecule, donor type, donor heavy atom, donor atom, acceptor molecule, acceptor atom, score
      L1  H     9    28       P1  7948  0.45
      P1  H  6896  6907       L1    15  0.98
      P1  H 10785 10796       L1     7  0.29

> <Gold.Chemscore.Hbond.Weighted>
-8.7637

> <Gold.Chemscore.Metal.Weighted>
-0.0000

> <Gold.Chemscore.Lipo.Weighted>
-5.3541

> <Gold.Chemscore.Internal_Hbond.Weighted>
0.0000

> <Gold.Chemscore.DEClash.Weighted>
0.0650

> <Gold.Chemscore.DEInternal.Weighted>
1.8562

> <Gold.Chemscore.Rot.Weighted>
5.0352

> <Gold.Chemscore.Internal.Correction.Weighted>
   9.000000E+99

> <Gold.Protein.RotatedTorsions>
[ 6907 6896 6895 6894 ] final  -55.50 input  -60.11 | X-H torsion
[ 7974 7965 7964 7962 ] final  172.15 input  175.53 | X-H torsion
[ 8008 7997 7996 7995 ] final   27.41 input   59.86 | X-H torsion
[ 10167 10162 10161 10158 ] final   60.25 input  -65.29 | X-H torsion
[ 10718 10713 10712 10709 ] final   49.34 input   66.30 | X-H torsion
[ 10763 10752 10751 10750 ] final  -74.81 input  -60.55 | X-H torsion
[ 11005 11000 10999 10996 ] final  124.42 input  -57.11 | X-H torsion

> <Gold.Protein.ActiveResidues>
 VAL166  LYS551  ARG553  GLY616  TRP617  ASP618  TYR619  PRO620  LYS621  CYS622 
 ASP623  PHE694  ASN695  SER759  ASP760  ASP761  ALA762  ILE779  LEU786  VAL792 
 PHE793  MET794  SER795  GLU796  ALA797  LYS798  CYS799  TRP800  GLU811  SER814 

> <Gold.Protein.RotatedAtoms>
  150.8246  134.7471  159.6801 H   0  0  0  0  0  0  0  0  0  0  0  0  # atno 6907 bound_to 6896
  152.4358  134.5685  159.9924 H   0  0  0  0  0  0  0  0  0  0  0  0  # atno 6908 bound_to 6896
  151.5861  133.3334  159.3054 H   0  0  0  0  0  0  0  0  0  0  0  0  # atno 6909 bound_to 6896
  144.7275  139.9456  143.6430 H   0  0  0  0  0  0  0  0  0  0  0  0  # atno 7974 bound_to 7965
  155.0425  140.3171  155.4719 H   0  0  0  0  0  0  0  0  0  0  0  0  # atno 8008 bound_to 7997
  156.2852  140.2160  156.5492 H   0  0  0  0  0  0  0  0  0  0  0  0  # atno 8009 bound_to 7997
  154.7278  140.0484  157.0686 H   0  0  0  0  0  0  0  0  0  0  0  0  # atno 8010 bound_to 7997
  140.1677  144.4308  150.6677 H   0  0  0  0  0  0  0  0  0  0  0  0  # atno 10167 bound_to 10162
  157.4777  130.8295  149.8058 H   0  0  0  0  0  0  0  0  0  0  0  0  # atno 10718 bound_to 10713
  154.4782  135.5852  153.6370 H   0  0  0  0  0  0  0  0  0  0  0  0  # atno 10763 bound_to 10752
  152.9844  135.6083  154.3280 H   0  0  0  0  0  0  0  0  0  0  0  0  # atno 10764 bound_to 10752
  154.3169  135.2844  155.2518 H   0  0  0  0  0  0  0  0  0  0  0  0  # atno 10765 bound_to 10752
  139.9358  134.9639  156.8407 H   0  0  0  0  0  0  0  0  0  0  0  0  # atno 11005 bound_to 11000
  146.0751  139.3739  143.0499 LP  0  0  0  0  0  0  0  0  0  0  0  0  # atno 17320 bound_to 7965
  145.7916  140.9812  143.1046 LP  0  0  0  0  0  0  0  0  0  0  0  0  # atno 17321 bound_to 7965
  140.6602  143.2250  151.5873 LP  0  0  0  0  0  0  0  0  0  0  0  0  # atno 17342 bound_to 10162
  139.5352  144.2801  152.1236 LP  0  0  0  0  0  0  0  0  0  0  0  0  # atno 17343 bound_to 10162
  156.0105  130.3835  150.2281 LP  0  0  0  0  0  0  0  0  0  0  0  0  # atno 17370 bound_to 10713
  157.0466  131.0050  151.3267 LP  0  0  0  0  0  0  0  0  0  0  0  0  # atno 17371 bound_to 10713
  140.6080  134.0109  155.7564 LP  0  0  0  0  0  0  0  0  0  0  0  0  # atno 17394 bound_to 11000
  141.0971  133.9827  157.3142 LP  0  0  0  0  0  0  0  0  0  0  0  0  # atno 17395 bound_to 11000

$$$$
