AV-unprocessed.smi:3303|AV-procd|sdf|12677|dock9
  -GOLD-   2272019 13D 1   1.00000     0.00000
 Structure written by MMmdl.
 44 45  0  0  0  0  0  0  0  0  2 V2000
  146.9043  142.5730  154.1157 C   0  0  0  0  0  0  0  0  0  0  0  0
  147.6583  141.2333  154.0993 C   0  0  2  0  0  0  0  0  0  0  0  0
  146.9934  140.1805  155.0065 C   0  0  0  0  0  0  0  0  0  0  0  0
  147.6507  138.8771  154.8735 N   0  0  0  0  0  0  0  0  0  0  0  0
  146.8995  137.9291  155.6927 C   0  0  0  0  0  0  0  0  0  0  0  0
  149.0657  138.9551  155.2786 C   0  0  1  0  0  0  0  0  0  0  0  0
  149.7742  137.5901  155.1641 C   0  0  0  0  0  0  0  0  0  0  0  0
  149.8053  139.9898  154.3982 C   0  0  0  0  0  0  0  0  0  0  0  0
  149.1532  141.3792  154.4410 C   0  0  2  0  0  0  0  0  0  0  0  0
  149.3589  142.0053  155.7685 N   0  3  0  0  0  0  0  0  0  0  0  0
  150.7480  141.9654  156.2671 C   0  0  0  0  0  0  0  0  0  0  0  0
  151.0396  143.1646  157.1789 C   0  0  0  0  0  0  0  0  0  0  0  0
  151.8021  142.7638  158.4272 C   0  0  0  0  0  0  0  0  0  0  0  0
  152.0586  143.7028  159.4490 C   0  0  0  0  0  0  0  0  0  0  0  0
  152.7760  143.2786  160.5846 C   0  0  0  0  0  0  0  0  0  0  0  0
  153.2072  141.9399  160.6534 C   0  0  0  0  0  0  0  0  0  0  0  0
  152.9022  141.0811  159.5785 C   0  0  0  0  0  0  0  0  0  0  0  0
  152.2166  141.4782  158.4842 N   0  0  0  0  0  0  0  0  0  0  0  0
  146.8720  143.0076  155.1150 H   0  0  0  0  0  0  0  0  0  0  0  0
  145.8746  142.4444  153.7813 H   0  0  0  0  0  0  0  0  0  0  0  0
  147.3766  143.2970  153.4511 H   0  0  0  0  0  0  0  0  0  0  0  0
  147.5961  140.8595  153.0753 H   0  0  0  0  0  0  0  0  0  0  0  0
  147.0079  140.5064  156.0479 H   0  0  0  0  0  0  0  0  0  0  0  0
  145.9449  140.0815  154.7215 H   0  0  0  0  0  0  0  0  0  0  0  0
  147.2447  136.9074  155.5395 H   0  0  0  0  0  0  0  0  0  0  0  0
  145.8423  137.9417  155.4250 H   0  0  0  0  0  0  0  0  0  0  0  0
  146.9834  138.1674  156.7540 H   0  0  0  0  0  0  0  0  0  0  0  0
  149.1142  139.2791  156.3194 H   0  0  0  0  0  0  0  0  0  0  0  0
  150.8456  137.6934  155.3374 H   0  0  0  0  0  0  0  0  0  0  0  0
  149.6429  137.1540  154.1730 H   0  0  0  0  0  0  0  0  0  0  0  0
  149.4115  136.8737  155.9008 H   0  0  0  0  0  0  0  0  0  0  0  0
  150.8501  140.0659  154.7028 H   0  0  0  0  0  0  0  0  0  0  0  0
  149.8200  139.6364  153.3657 H   0  0  0  0  0  0  0  0  0  0  0  0
  149.6259  141.9993  153.6772 H   0  0  0  0  0  0  0  0  0  0  0  0
  149.0685  142.9706  155.7085 H   0  0  0  0  0  0  0  0  0  0  0  0
  150.9053  141.0320  156.8095 H   0  0  0  0  0  0  0  0  0  0  0  0
  151.4351  141.9694  155.4196 H   0  0  0  0  0  0  0  0  0  0  0  0
  151.6126  143.9166  156.6347 H   0  0  0  0  0  0  0  0  0  0  0  0
  150.1061  143.6454  157.4756 H   0  0  0  0  0  0  0  0  0  0  0  0
  151.7155  144.7239  159.3679 H   0  0  0  0  0  0  0  0  0  0  0  0
  152.9908  143.9673  161.3884 H   0  0  0  0  0  0  0  0  0  0  0  0
  153.7581  141.5791  161.5095 H   0  0  0  0  0  0  0  0  0  0  0  0
  153.2175  140.0484  159.5976 H   0  0  0  0  0  0  0  0  0  0  0  0
  148.7663  141.5341  156.4369 H   0  0  0  0  0  0  0  0  0  0  0  0
  1  2  1  0  0  0  0
  1 19  1  0  0  0  0
  1 20  1  0  0  0  0
  1 21  1  0  0  0  0
  2  9  1  0  0  0  0
  2  3  1  0  0  0  0
  2 22  1  0  0  0  0
  3  4  1  0  0  0  0
  3 23  1  0  0  0  0
  3 24  1  0  0  0  0
  4  5  1  0  0  0  0
  4  6  1  0  0  0  0
  5 25  1  0  0  0  0
  5 26  1  0  0  0  0
  5 27  1  0  0  0  0
  6  7  1  0  0  0  0
  6  8  1  0  0  0  0
  6 28  1  0  0  0  0
  7 29  1  0  0  0  0
  7 30  1  0  0  0  0
  7 31  1  0  0  0  0
  8  9  1  0  0  0  0
  8 32  1  0  0  0  0
  8 33  1  0  0  0  0
  9 10  1  0  0  0  0
  9 34  1  0  0  0  0
 10 11  1  0  0  0  0
 10 35  1  0  0  0  0
 10 44  1  0  0  0  0
 11 12  1  0  0  0  0
 11 36  1  0  0  0  0
 11 37  1  0  0  0  0
 12 13  1  0  0  0  0
 12 38  1  0  0  0  0
 12 39  1  0  0  0  0
 13 18  1  0  0  0  0
 13 14  2  0  0  0  0
 14 15  1  0  0  0  0
 14 40  1  0  0  0  0
 15 16  2  0  0  0  0
 15 41  1  0  0  0  0
 16 17  1  0  0  0  0
 16 42  1  0  0  0  0
 17 18  2  0  0  0  0
 17 43  1  0  0  0  0
M  CHG  1  10   1
M  END
> <s_m_source_file>
AV-unprocessed.smi

> <i_m_source_file_index>
3303

> <i_lp_mmshare_version>
43012

> <i_f3d_flags>
0

> <s_epik_input>
W0NIM11bQ0BASF0xW0NIMl1OKFtDSDNdKVtDQEBIXShbQ0gzXSlbQ0gyXVtDQEhdMVtOSF1bQ0gyXVtDSDJdYzJbY0hdW2NIXVtjSF1bY0hdbjI=

> <s_epik_cmdline>
J2VwaWtfcHl0aG9uJywgJy1waCcsICc3LjAnLCAnLXRuJywgJzgnLCAnLW1hJywgJzIwMCcsICctbWV0YWxfYmluZGluZycsICctaW1hZScsICc8aW5maWxlLm1hZT4nLCAnLW9tYWUnLCAnPG91dGZpbGUubWFlPic=

> <r_epik_Ionization_Penalty>
1.37325

> <r_epik_Ionization_Penalty_Charging>
0.000251572

> <r_epik_Ionization_Penalty_Neutral>
1.373

> <r_epik_State_Penalty>
1.46343

> <r_epik_Charging_Adjusted_Penalty>
1.46368

> <i_epik_Tot_Q>
1

> <i_epik_Tot_abs_Q>
1

> <r_epik_Metal_State_Penalty>
1.46331

> <b_epik_Metal_Only>
0

> <s_lp_Force_Field>
OPLS_2005

> <r_lp_Energy>
25.9316

> <b_lp_Chiralities_Consistent>
1

> <s_lp_Variant>
AV-unprocessed.smi:3303-21

> <Gold.Version>
5.8.1

> <Gold.Id.Protein>
6NUR|6NUR_protein|mol2

> <Gold.PLP.Fitness>
41.6429

> <Gold.PLP.PLP>
-36.8162

> <Gold.PLP.part.hbond>
-1.0000

> <Gold.PLP.part.metal>
0.0000

> <Gold.PLP.part.buried>
-1.4079

> <Gold.PLP.part.nonpolar>
-33.5053

> <Gold.PLP.part.repulsive>
0.1985

> <Gold.PLP.ligand.clash>
0.0000

> <Gold.PLP.ligand.torsion>
0.5885

> <Gold.PLP.Chemscore.Hbond>
2.0000

> <Gold.PLP.Chemscore.CHOScore>
0.0000

> <Gold.PLP.Chemscore.Metal>
0.0000

> <Gold.Chemscore.Hbonds>
donor molecule, donor type, donor heavy atom, donor atom, acceptor molecule, acceptor atom, score
      L1  H    10    35       P1  8028  2.00

> <Gold.PLP.Chemscore.Internal.Correction>
0.0037

> <Gold.Rescore>
     Score         DG    S(hbond)    S(metal)    S(lipo)     H(rot)  DE(clash)    DE(int)     intcor
     18.16     -18.74       1.00        0.00     113.87       1.33       0.03       0.55       ----

> <Gold.Chemscore.Fitness>
18.1557

> <Gold.Chemscore.DG>
-18.7373

> <Gold.Chemscore.ZeroCoef>
-5.4800

> <Gold.Chemscore.Hbond>
0.9997

> <Gold.Chemscore.Metal>
0.0000

> <Gold.Chemscore.Lipo>
113.8679

> <Gold.Chemscore.Internal_Hbond>
0.0000

> <Gold.Chemscore.DEClash>
0.0303

> <Gold.Chemscore.DEInternal>
0.5513

> <Gold.Chemscore.Rot>
1.3298

> <Gold.Chemscore.Internal.Correction>
   9.000000E+99

> <Gold.Chemscore.Hbonds>
donor molecule, donor type, donor heavy atom, donor atom, acceptor molecule, acceptor atom, score
      L1  H    10    35       P1  8028  1.00

> <Gold.Chemscore.Hbond.Weighted>
-3.3391

> <Gold.Chemscore.Metal.Weighted>
-0.0000

> <Gold.Chemscore.Lipo.Weighted>
-13.3225

> <Gold.Chemscore.Internal_Hbond.Weighted>
0.0000

> <Gold.Chemscore.DEClash.Weighted>
0.0303

> <Gold.Chemscore.DEInternal.Weighted>
0.5513

> <Gold.Chemscore.Rot.Weighted>
3.4043

> <Gold.Chemscore.Internal.Correction.Weighted>
   9.000000E+99

> <Gold.Protein.RotatedTorsions>
[ 6907 6896 6895 6894 ] final  -39.13 input  -60.11 | X-H torsion
[ 7974 7965 7964 7962 ] final  141.10 input  175.53 | X-H torsion
[ 8008 7997 7996 7995 ] final  141.40 input   59.86 | X-H torsion
[ 10167 10162 10161 10158 ] final   50.77 input  -65.29 | X-H torsion
[ 10718 10713 10712 10709 ] final  118.18 input   66.30 | X-H torsion
[ 10763 10752 10751 10750 ] final   78.74 input  -60.55 | X-H torsion
[ 11005 11000 10999 10996 ] final    2.18 input  -57.11 | X-H torsion

> <Gold.Protein.ActiveResidues>
 VAL166  LYS551  ARG553  GLY616  TRP617  ASP618  TYR619  PRO620  LYS621  CYS622 
 ASP623  PHE694  ASN695  SER759  ASP760  ASP761  ALA762  ILE779  LEU786  VAL792 
 PHE793  MET794  SER795  GLU796  ALA797  LYS798  CYS799  TRP800  GLU811  SER814 

> <Gold.Protein.RotatedAtoms>
  150.9940  134.9268  159.7915 H   0  0  0  0  0  0  0  0  0  0  0  0  # atno 6907 bound_to 6896
  152.5259  134.3243  159.9169 H   0  0  0  0  0  0  0  0  0  0  0  0  # atno 6908 bound_to 6896
  151.3248  133.3983  159.2692 H   0  0  0  0  0  0  0  0  0  0  0  0  # atno 6909 bound_to 6896
  144.9127  139.5272  143.5701 H   0  0  0  0  0  0  0  0  0  0  0  0  # atno 7974 bound_to 7965
  156.2966  140.2316  156.4558 H   0  0  0  0  0  0  0  0  0  0  0  0  # atno 8008 bound_to 7997
  154.8062  140.0445  157.1330 H   0  0  0  0  0  0  0  0  0  0  0  0  # atno 8009 bound_to 7997
  154.9476  140.3038  155.5094 H   0  0  0  0  0  0  0  0  0  0  0  0  # atno 8010 bound_to 7997
  140.2689  144.3288  150.6296 H   0  0  0  0  0  0  0  0  0  0  0  0  # atno 10167 bound_to 10162
  157.6047  131.1045  150.7720 H   0  0  0  0  0  0  0  0  0  0  0  0  # atno 10718 bound_to 10713
  153.0897  135.4866  154.8667 H   0  0  0  0  0  0  0  0  0  0  0  0  # atno 10763 bound_to 10752
  154.7255  135.3048  154.8981 H   0  0  0  0  0  0  0  0  0  0  0  0  # atno 10764 bound_to 10752
  153.9632  135.6810  153.4798 H   0  0  0  0  0  0  0  0  0  0  0  0  # atno 10765 bound_to 10752
  140.6072  133.9781  155.8160 H   0  0  0  0  0  0  0  0  0  0  0  0  # atno 11005 bound_to 11000
  146.3166  139.7945  142.8978 LP  0  0  0  0  0  0  0  0  0  0  0  0  # atno 17320 bound_to 7965
  145.3428  141.0291  143.3383 LP  0  0  0  0  0  0  0  0  0  0  0  0  # atno 17321 bound_to 7965
  140.5906  143.2168  151.7260 LP  0  0  0  0  0  0  0  0  0  0  0  0  # atno 17342 bound_to 10162
  139.4995  144.3945  152.0245 LP  0  0  0  0  0  0  0  0  0  0  0  0  # atno 17343 bound_to 10162
  156.8111  130.4952  149.5356 LP  0  0  0  0  0  0  0  0  0  0  0  0  # atno 17370 bound_to 10713
  156.1130  130.6054  151.0077 LP  0  0  0  0  0  0  0  0  0  0  0  0  # atno 17371 bound_to 10713
  141.0832  134.0030  157.3353 LP  0  0  0  0  0  0  0  0  0  0  0  0  # atno 17394 bound_to 11000
  139.9207  135.0200  156.8054 LP  0  0  0  0  0  0  0  0  0  0  0  0  # atno 17395 bound_to 11000

$$$$
