AV-unprocessed.smi:247|AV-procd|sdf|1890|dock5
  -GOLD-   2262020553D 1   1.00000     0.00000
 Structure written by MMmdl.
 61 65  0  0  0  0  0  0  0  0  1 V2000
  147.8244  142.9457  154.4484 O   0  0  0  0  0  0  0  0  0  0  0  0
  148.2630  141.6020  154.3984 C   0  0  0  0  0  0  0  0  0  0  0  0
  148.8208  141.0819  155.7527 C   0  0  0  0  0  0  0  0  0  0  0  0
  148.9698  139.5301  155.6637 C   0  0  0  0  0  0  0  0  0  0  0  0
  147.8822  138.8418  154.9824 N   0  0  0  0  0  0  0  0  0  0  0  0
  147.8718  138.4092  153.6745 C   0  0  0  0  0  0  0  0  0  0  0  0
  146.7808  137.8022  153.2948 N   0  0  0  0  0  0  0  0  0  0  0  0
  145.9855  137.8005  154.4329 C   0  0  0  0  0  0  0  0  0  0  0  0
  144.6920  137.2951  154.7282 C   0  0  0  0  0  0  0  0  0  0  0  0
  143.9477  136.6671  153.7861 N   0  0  0  0  0  0  0  0  0  0  0  0
  142.5363  136.7899  154.1084 C   0  0  0  0  0  0  0  0  0  0  0  0
  141.8242  135.8335  153.1656 C   0  0  0  0  0  0  0  0  0  0  0  0
  142.8692  134.7592  152.8635 C   0  0  0  0  0  0  0  0  0  0  0  0
  144.2034  135.2561  153.4668 C   0  0  1  0  0  0  0  0  0  0  0  0
  145.4314  135.0082  152.5193 C   0  0  1  0  0  0  0  0  0  0  0  0
  145.6562  133.5291  152.1183 C   0  0  0  0  0  0  0  0  0  0  0  0
  144.5841  133.0613  151.3045 O   0  0  0  0  0  0  0  0  0  0  0  0
  144.4991  133.7290  150.0501 C   0  0  0  0  0  0  0  0  0  0  0  0
  144.2958  135.2389  150.2556 C   0  0  0  0  0  0  0  0  0  0  0  0
  145.3879  135.7953  151.1806 C   0  0  1  0  0  0  0  0  0  0  0  0
  145.2372  137.1914  151.3325 O   0  0  0  0  0  0  0  0  0  0  0  0
  144.2105  137.4867  155.9849 N   0  0  0  0  0  0  0  0  0  0  0  0
  144.9599  138.1058  156.9020 C   0  0  0  0  0  0  0  0  0  0  0  0
  146.1873  138.6145  156.7724 N   0  0  0  0  0  0  0  0  0  0  0  0
  146.6637  138.4425  155.5058 C   0  0  0  0  0  0  0  0  0  0  0  0
  150.1699  141.7789  156.0672 C   0  0  0  0  0  0  0  0  0  0  0  0
  150.6614  141.4854  157.4959 C   0  0  0  0  0  0  0  0  0  0  0  0
  149.6735  141.8844  158.4382 O   0  0  0  0  0  0  0  0  0  0  0  0
  148.4486  141.1744  158.2982 C   0  0  0  0  0  0  0  0  0  0  0  0
  147.8420  141.4285  156.9046 C   0  0  0  0  0  0  0  0  0  0  0  0
  147.6680  143.1766  155.3513 H   0  0  0  0  0  0  0  0  0  0  0  0
  147.4240  140.9864  154.0724 H   0  0  0  0  0  0  0  0  0  0  0  0
  149.0216  141.5412  153.6181 H   0  0  0  0  0  0  0  0  0  0  0  0
  149.8916  139.2475  155.1580 H   0  0  0  0  0  0  0  0  0  0  0  0
  149.0537  139.1100  156.6670 H   0  0  0  0  0  0  0  0  0  0  0  0
  148.7041  138.5623  153.0029 H   0  0  0  0  0  0  0  0  0  0  0  0
  142.3595  136.4961  155.1448 H   0  0  0  0  0  0  0  0  0  0  0  0
  142.1829  137.8138  153.9808 H   0  0  0  0  0  0  0  0  0  0  0  0
  140.9102  135.4271  153.5997 H   0  0  0  0  0  0  0  0  0  0  0  0
  141.5553  136.3540  152.2456 H   0  0  0  0  0  0  0  0  0  0  0  0
  142.5857  133.7994  153.2967 H   0  0  0  0  0  0  0  0  0  0  0  0
  142.9321  134.6254  151.7831 H   0  0  0  0  0  0  0  0  0  0  0  0
  144.3575  134.7184  154.4020 H   0  0  0  0  0  0  0  0  0  0  0  0
  146.3227  135.3213  153.0649 H   0  0  0  0  0  0  0  0  0  0  0  0
  146.5933  133.4234  151.5692 H   0  0  0  0  0  0  0  0  0  0  0  0
  145.7687  132.8856  152.9882 H   0  0  0  0  0  0  0  0  0  0  0  0
  145.4041  133.5379  149.4712 H   0  0  0  0  0  0  0  0  0  0  0  0
  143.6671  133.3115  149.4830 H   0  0  0  0  0  0  0  0  0  0  0  0
  144.3192  135.7474  149.2911 H   0  0  0  0  0  0  0  0  0  0  0  0
  143.3079  135.4248  150.6774 H   0  0  0  0  0  0  0  0  0  0  0  0
  146.3480  135.6615  150.6798 H   0  0  0  0  0  0  0  0  0  0  0  0
  144.7619  137.5250  150.5869 H   0  0  0  0  0  0  0  0  0  0  0  0
  144.5123  138.2067  157.8797 H   0  0  0  0  0  0  0  0  0  0  0  0
  150.9339  141.5077  155.3395 H   0  0  0  0  0  0  0  0  0  0  0  0
  150.0566  142.8597  155.9781 H   0  0  0  0  0  0  0  0  0  0  0  0
  150.9073  140.4319  157.6299 H   0  0  0  0  0  0  0  0  0  0  0  0
  151.5752  142.0456  157.6941 H   0  0  0  0  0  0  0  0  0  0  0  0
  148.6059  140.1121  158.4851 H   0  0  0  0  0  0  0  0  0  0  0  0
  147.7593  141.5217  159.0680 H   0  0  0  0  0  0  0  0  0  0  0  0
  147.5663  142.4825  156.8607 H   0  0  0  0  0  0  0  0  0  0  0  0
  146.9111  140.8713  156.7952 H   0  0  0  0  0  0  0  0  0  0  0  0
  1  2  1  0  0  0  0
  1 31  1  0  0  0  0
  2  3  1  0  0  0  0
  2 32  1  0  0  0  0
  2 33  1  0  0  0  0
  3 30  1  0  0  0  0
  3  4  1  0  0  0  0
  3 26  1  0  0  0  0
  4  5  1  0  0  0  0
  4 34  1  0  0  0  0
  4 35  1  0  0  0  0
  5 25  1  0  0  0  0
  5  6  1  0  0  0  0
  6  7  2  0  0  0  0
  6 36  1  0  0  0  0
  7  8  1  0  0  0  0
  8 25  2  0  0  0  0
  8  9  1  0  0  0  0
  9 10  1  0  0  0  0
  9 22  2  0  0  0  0
 10 14  1  0  0  0  0
 10 11  1  0  0  0  0
 11 12  1  0  0  0  0
 11 37  1  0  0  0  0
 11 38  1  0  0  0  0
 12 13  1  0  0  0  0
 12 39  1  0  0  0  0
 12 40  1  0  0  0  0
 13 14  1  0  0  0  0
 13 41  1  0  0  0  0
 13 42  1  0  0  0  0
 14 15  1  0  0  0  0
 14 43  1  0  0  0  0
 15 20  1  0  0  0  0
 15 16  1  0  0  0  0
 15 44  1  0  0  0  0
 16 17  1  0  0  0  0
 16 45  1  0  0  0  0
 16 46  1  0  0  0  0
 17 18  1  0  0  0  0
 18 19  1  0  0  0  0
 18 47  1  0  0  0  0
 18 48  1  0  0  0  0
 19 20  1  0  0  0  0
 19 49  1  0  0  0  0
 19 50  1  0  0  0  0
 20 21  1  0  0  0  0
 20 51  1  0  0  0  0
 21 52  1  0  0  0  0
 22 23  1  0  0  0  0
 23 24  2  0  0  0  0
 23 53  1  0  0  0  0
 24 25  1  0  0  0  0
 26 27  1  0  0  0  0
 26 54  1  0  0  0  0
 26 55  1  0  0  0  0
 27 28  1  0  0  0  0
 27 56  1  0  0  0  0
 27 57  1  0  0  0  0
 28 29  1  0  0  0  0
 29 30  1  0  0  0  0
 29 58  1  0  0  0  0
 29 59  1  0  0  0  0
 30 60  1  0  0  0  0
 30 61  1  0  0  0  0
M  END
> <s_m_source_file>
AV-unprocessed.smi

> <i_m_source_file_index>
247

> <i_lp_mmshare_version>
43012

> <i_f3d_flags>
0

> <s_epik_input>
W0NIMl0xW0NIMl1PW0NIMl1bQ0gyXUMxKFtDSDJdW09IXSlbQ0gyXW4oW2NIXW4yKWMoYzIzKW5bY0hdbmMzTjRbQ0gyXVtDSDJdW0NIMl1bQ0BIXTRbQ0BASF01W0NIMl1PW0NIMl1bQ0gyXVtDQEhdNVtPSF0=

> <s_epik_cmdline>
J2VwaWtfcHl0aG9uJywgJy1waCcsICc3LjAnLCAnLXRuJywgJzgnLCAnLW1hJywgJzIwMCcsICctbWV0YWxfYmluZGluZycsICctaW1hZScsICc8aW5maWxlLm1hZT4nLCAnLW9tYWUnLCAnPG91dGZpbGUubWFlPic=

> <r_lp_tautomer_probability>
1

> <r_epik_Ionization_Penalty>
0.00362597

> <r_epik_Ionization_Penalty_Charging>
0

> <r_epik_Ionization_Penalty_Neutral>
0.00362597

> <r_epik_State_Penalty>
0.00241433

> <r_epik_Charging_Adjusted_Penalty>
0.00241433

> <i_epik_Tot_Q>
0

> <i_epik_Tot_abs_Q>
0

> <r_epik_Metal_State_Penalty>
-0

> <b_epik_Metal_Only>
0

> <s_lp_Force_Field>
OPLS_2005

> <r_lp_Energy>
64.2344

> <b_lp_Chiralities_Consistent>
1

> <s_lp_Variant>
AV-unprocessed.smi:247-3

> <Gold.Version>
5.8.1

> <Gold.Id.Protein>
6NUR|6NUR_protein|mol2

> <Gold.PLP.Fitness>
39.5843

> <Gold.PLP.PLP>
-32.0376

> <Gold.PLP.part.hbond>
-3.7031

> <Gold.PLP.part.metal>
0.0000

> <Gold.PLP.part.buried>
-2.4512

> <Gold.PLP.part.nonpolar>
-26.3309

> <Gold.PLP.part.repulsive>
2.1567

> <Gold.PLP.ligand.clash>
0.0000

> <Gold.PLP.ligand.torsion>
1.3086

> <Gold.PLP.Chemscore.Hbond>
1.9032

> <Gold.PLP.Chemscore.CHOScore>
1.4589

> <Gold.PLP.Chemscore.Metal>
0.0000

> <Gold.Chemscore.Hbonds>
donor molecule, donor type, donor heavy atom, donor atom, acceptor molecule, acceptor atom, score
      L1  H     1    31       P1  8028  0.06
      L1  H    21    52       P1 10171  1.00
      P1  H  8022  8030       L1     1  0.71
      L1  C     6    36       P1  7948  0.42
      L1  C     6    36       P1  7957  1.00

> <Gold.PLP.Chemscore.Internal.Correction>
0.0774

> <Gold.Rescore>
     Score         DG    S(hbond)    S(metal)    S(lipo)     H(rot)  DE(clash)    DE(int)     intcor
      7.33     -11.41       1.69        0.00      73.20       3.23       0.83       3.25       ----

> <Gold.Chemscore.Fitness>
7.3304

> <Gold.Chemscore.DG>
-11.4141

> <Gold.Chemscore.ZeroCoef>
-5.4800

> <Gold.Chemscore.Hbond>
1.6865

> <Gold.Chemscore.Metal>
0.0000

> <Gold.Chemscore.Lipo>
73.1998

> <Gold.Chemscore.Internal_Hbond>
0.0000

> <Gold.Chemscore.DEClash>
0.8295

> <Gold.Chemscore.DEInternal>
3.2542

> <Gold.Chemscore.Rot>
3.2278

> <Gold.Chemscore.Internal.Correction>
   9.000000E+99

> <Gold.Chemscore.Hbonds>
donor molecule, donor type, donor heavy atom, donor atom, acceptor molecule, acceptor atom, score
      L1  H     1    31       P1  8028  0.04
      L1  H    21    52       P1 10171  0.96
      P1  H  8022  8030       L1     1  0.27

> <Gold.Chemscore.Hbond.Weighted>
-5.6330

> <Gold.Chemscore.Metal.Weighted>
-0.0000

> <Gold.Chemscore.Lipo.Weighted>
-8.5644

> <Gold.Chemscore.Internal_Hbond.Weighted>
0.0000

> <Gold.Chemscore.DEClash.Weighted>
0.8295

> <Gold.Chemscore.DEInternal.Weighted>
3.2542

> <Gold.Chemscore.Rot.Weighted>
8.2633

> <Gold.Chemscore.Internal.Correction.Weighted>
   9.000000E+99

> <Gold.Protein.RotatedTorsions>
[ 6907 6896 6895 6894 ] final   29.13 input  -60.11 | X-H torsion
[ 7974 7965 7964 7962 ] final   87.63 input  175.53 | X-H torsion
[ 8008 7997 7996 7995 ] final  161.64 input   59.86 | X-H torsion
[ 10167 10162 10161 10158 ] final   -9.45 input  -65.29 | X-H torsion
[ 10718 10713 10712 10709 ] final   72.75 input   66.30 | X-H torsion
[ 10763 10752 10751 10750 ] final  174.71 input  -60.55 | X-H torsion
[ 11005 11000 10999 10996 ] final -172.91 input  -57.11 | X-H torsion

> <Gold.Protein.ActiveResidues>
 VAL166  LYS551  ARG553  GLY616  TRP617  ASP618  TYR619  PRO620  LYS621  CYS622 
 ASP623  PHE694  ASN695  SER759  ASP760  ASP761  ALA762  ILE779  LEU786  VAL792 
 PHE793  MET794  SER795  GLU796  ALA797  LYS798  CYS799  TRP800  GLU811  SER814 

> <Gold.Protein.RotatedAtoms>
  152.0270  134.9790  160.0571 H   0  0  0  0  0  0  0  0  0  0  0  0  # atno 6907 bound_to 6896
  152.1281  133.4387  159.4716 H   0  0  0  0  0  0  0  0  0  0  0  0  # atno 6908 bound_to 6896
  150.6854  134.2372  159.4501 H   0  0  0  0  0  0  0  0  0  0  0  0  # atno 6909 bound_to 6896
  145.5564  139.2300  143.2484 H   0  0  0  0  0  0  0  0  0  0  0  0  # atno 7974 bound_to 7965
  156.2089  140.1772  156.7740 H   0  0  0  0  0  0  0  0  0  0  0  0  # atno 8008 bound_to 7997
  154.5693  140.0685  156.8970 H   0  0  0  0  0  0  0  0  0  0  0  0  # atno 8009 bound_to 7997
  155.2702  140.3342  155.4268 H   0  0  0  0  0  0  0  0  0  0  0  0  # atno 8010 bound_to 7997
  140.7087  143.5857  150.8946 H   0  0  0  0  0  0  0  0  0  0  0  0  # atno 10167 bound_to 10162
  157.6516  130.9594  150.0972 H   0  0  0  0  0  0  0  0  0  0  0  0  # atno 10718 bound_to 10713
  154.4576  135.2766  155.1736 H   0  0  0  0  0  0  0  0  0  0  0  0  # atno 10763 bound_to 10752
  154.3537  135.6144  153.5659 H   0  0  0  0  0  0  0  0  0  0  0  0  # atno 10764 bound_to 10752
  152.9852  135.5817  154.4932 H   0  0  0  0  0  0  0  0  0  0  0  0  # atno 10765 bound_to 10752
  140.4917  134.5978  157.4957 H   0  0  0  0  0  0  0  0  0  0  0  0  # atno 11005 bound_to 11000
  146.1881  140.6388  142.9158 LP  0  0  0  0  0  0  0  0  0  0  0  0  # atno 17320 bound_to 7965
  144.7504  140.5176  143.6806 LP  0  0  0  0  0  0  0  0  0  0  0  0  # atno 17321 bound_to 7965
  139.9582  143.6194  152.3010 LP  0  0  0  0  0  0  0  0  0  0  0  0  # atno 17342 bound_to 10162
  139.6737  144.7659  151.1736 LP  0  0  0  0  0  0  0  0  0  0  0  0  # atno 17343 bound_to 10162
  156.1905  130.3654  149.8916 LP  0  0  0  0  0  0  0  0  0  0  0  0  # atno 17370 bound_to 10713
  156.6846  130.8871  151.3580 LP  0  0  0  0  0  0  0  0  0  0  0  0  # atno 17371 bound_to 10713
  139.9765  134.7207  155.9940 LP  0  0  0  0  0  0  0  0  0  0  0  0  # atno 17394 bound_to 11000
  141.1481  133.6553  156.3928 LP  0  0  0  0  0  0  0  0  0  0  0  0  # atno 17395 bound_to 11000

$$$$
