AV-unprocessed.smi:1531|AV-procd|sdf|6157|dock9
  -GOLD-   22720 6303D 1   1.00000     0.00000
 Structure written by MMmdl.
 44 45  0  0  0  0  0  0  0  0  1 V2000
  149.4199  140.9729  153.6183 C   0  0  0  0  0  0  0  0  0  0  0  0
  148.2801  141.7255  152.9176 C   0  0  0  0  0  0  0  0  0  0  0  0
  147.2521  142.3583  153.8834 C   0  0  1  0  0  0  0  0  0  0  0  0
  146.2310  143.2209  153.1097 C   0  0  0  0  0  0  0  0  0  0  0  0
  145.2282  143.9062  154.0514 C   0  0  0  0  0  0  0  0  0  0  0  0
  144.5020  142.8815  154.9340 C   0  0  0  0  0  0  0  0  0  0  0  0
  145.5037  142.0190  155.7186 C   0  0  0  0  0  0  0  0  0  0  0  0
  146.5306  141.3309  154.7960 C   0  0  1  0  0  0  0  0  0  0  0  0
  145.8834  140.2829  154.0051 N   0  0  0  0  0  0  0  0  0  0  0  0
  146.3264  139.0277  153.8479 C   0  0  0  0  0  0  0  0  0  0  0  0
  147.3525  138.5920  154.3703 O   0  0  0  0  0  0  0  0  0  0  0  0
  145.5054  138.3217  153.0537 N   0  0  0  0  0  0  0  0  0  0  0  0
  145.6625  136.9783  152.6299 C   0  0  0  0  0  0  0  0  0  0  0  0
  146.5265  136.0327  153.2404 C   0  0  0  0  0  0  0  0  0  0  0  0
  146.4564  134.8579  152.6334 N   0  0  0  0  0  0  0  0  0  0  0  0
  145.5534  135.0299  151.6353 N   0  0  0  0  0  0  0  0  0  0  0  0
  145.2247  133.9170  150.7625 C   0  0  0  0  0  0  0  0  0  0  0  0
  146.2226  132.7693  150.9299 C   0  0  0  0  0  0  0  0  0  0  0  0
  146.8246  132.3173  149.8262 N   0  0  0  0  0  0  0  0  0  0  0  0
  146.4490  132.2970  152.0418 O   0  0  0  0  0  0  0  0  0  0  0  0
  145.0501  136.3161  151.6040 C   0  0  0  0  0  0  0  0  0  0  0  0
  150.1606  140.6351  152.8932 H   0  0  0  0  0  0  0  0  0  0  0  0
  149.0554  140.0905  154.1444 H   0  0  0  0  0  0  0  0  0  0  0  0
  149.9297  141.6108  154.3405 H   0  0  0  0  0  0  0  0  0  0  0  0
  148.7216  142.5156  152.3092 H   0  0  0  0  0  0  0  0  0  0  0  0
  147.7815  141.0566  152.2155 H   0  0  0  0  0  0  0  0  0  0  0  0
  147.8052  143.0349  154.5370 H   0  0  0  0  0  0  0  0  0  0  0  0
  146.7522  143.9810  152.5266 H   0  0  0  0  0  0  0  0  0  0  0  0
  145.6911  142.6034  152.3906 H   0  0  0  0  0  0  0  0  0  0  0  0
  145.7520  144.6259  154.6819 H   0  0  0  0  0  0  0  0  0  0  0  0
  144.5022  144.4759  153.4705 H   0  0  0  0  0  0  0  0  0  0  0  0
  143.8342  143.3952  155.6259 H   0  0  0  0  0  0  0  0  0  0  0  0
  143.8708  142.2437  154.3139 H   0  0  0  0  0  0  0  0  0  0  0  0
  146.0339  142.6519  156.4315 H   0  0  0  0  0  0  0  0  0  0  0  0
  144.9711  141.2759  156.3137 H   0  0  0  0  0  0  0  0  0  0  0  0
  147.2825  140.8757  155.4423 H   0  0  0  0  0  0  0  0  0  0  0  0
  145.0284  140.5423  153.5351 H   0  0  0  0  0  0  0  0  0  0  0  0
  144.6873  138.7996  152.7052 H   0  0  0  0  0  0  0  0  0  0  0  0
  147.1871  136.1557  154.0860 H   0  0  0  0  0  0  0  0  0  0  0  0
  144.2143  133.5755  150.9917 H   0  0  0  0  0  0  0  0  0  0  0  0
  145.2194  134.2575  149.7256 H   0  0  0  0  0  0  0  0  0  0  0  0
  147.4935  131.5635  149.8868 H   0  0  0  0  0  0  0  0  0  0  0  0
  146.6094  132.7359  148.9326 H   0  0  0  0  0  0  0  0  0  0  0  0
  144.3176  136.6273  150.8740 H   0  0  0  0  0  0  0  0  0  0  0  0
  1  2  1  0  0  0  0
  1 22  1  0  0  0  0
  1 23  1  0  0  0  0
  1 24  1  0  0  0  0
  2  3  1  0  0  0  0
  2 25  1  0  0  0  0
  2 26  1  0  0  0  0
  3  8  1  0  0  0  0
  3  4  1  0  0  0  0
  3 27  1  0  0  0  0
  4  5  1  0  0  0  0
  4 28  1  0  0  0  0
  4 29  1  0  0  0  0
  5  6  1  0  0  0  0
  5 30  1  0  0  0  0
  5 31  1  0  0  0  0
  6  7  1  0  0  0  0
  6 32  1  0  0  0  0
  6 33  1  0  0  0  0
  7  8  1  0  0  0  0
  7 34  1  0  0  0  0
  7 35  1  0  0  0  0
  8  9  1  0  0  0  0
  8 36  1  0  0  0  0
  9 10  1  0  0  0  0
  9 37  1  0  0  0  0
 10 11  2  0  0  0  0
 10 12  1  0  0  0  0
 12 13  1  0  0  0  0
 12 38  1  0  0  0  0
 13 21  2  0  0  0  0
 13 14  1  0  0  0  0
 14 15  2  0  0  0  0
 14 39  1  0  0  0  0
 15 16  1  0  0  0  0
 16 17  1  0  0  0  0
 16 21  1  0  0  0  0
 17 18  1  0  0  0  0
 17 40  1  0  0  0  0
 17 41  1  0  0  0  0
 18 19  1  0  0  0  0
 18 20  2  0  0  0  0
 19 42  1  0  0  0  0
 19 43  1  0  0  0  0
 21 44  1  0  0  0  0
M  END
> <s_m_source_file>
AV-unprocessed.smi

> <i_m_source_file_index>
1531

> <i_lp_mmshare_version>
43012

> <i_f3d_flags>
0

> <s_epik_input>
W0NIM11bQ0gyXVtDQEBIXTFbQ0gyXVtDSDJdW0NIMl1bQ0gyXVtDQEhdMVtOSF1DKD1PKVtOSF1jMltjSF1ubihbY0hdMilbQ0gyXUMoPU8pW05IMl0=

> <s_epik_cmdline>
J2VwaWtfcHl0aG9uJywgJy1waCcsICc3LjAnLCAnLXRuJywgJzgnLCAnLW1hJywgJzIwMCcsICctbWV0YWxfYmluZGluZycsICctaW1hZScsICc8aW5maWxlLm1hZT4nLCAnLW9tYWUnLCAnPG91dGZpbGUubWFlPic=

> <r_lp_tautomer_probability>
1

> <r_epik_Ionization_Penalty>
4.83437e-05

> <r_epik_Ionization_Penalty_Charging>
0

> <r_epik_Ionization_Penalty_Neutral>
4.83437e-05

> <r_epik_State_Penalty>
-0

> <r_epik_Charging_Adjusted_Penalty>
0

> <i_epik_Tot_Q>
0

> <i_epik_Tot_abs_Q>
0

> <r_epik_Metal_State_Penalty>
-0

> <b_epik_Metal_Only>
0

> <s_lp_Force_Field>
OPLS_2005

> <r_lp_Energy>
14.4879

> <b_lp_Chiralities_Consistent>
1

> <s_lp_Variant>
AV-unprocessed.smi:1531-2

> <Gold.Version>
5.8.1

> <Gold.Id.Protein>
6NUR|6NUR_protein|mol2

> <Gold.PLP.Fitness>
43.8456

> <Gold.PLP.PLP>
-32.6450

> <Gold.PLP.part.hbond>
-3.0000

> <Gold.PLP.part.metal>
0.0000

> <Gold.PLP.part.buried>
-5.0948

> <Gold.PLP.part.nonpolar>
-25.1240

> <Gold.PLP.part.repulsive>
0.4340

> <Gold.PLP.ligand.clash>
0.0000

> <Gold.PLP.ligand.torsion>
0.4224

> <Gold.PLP.Chemscore.Hbond>
3.0000

> <Gold.PLP.Chemscore.CHOScore>
1.0000

> <Gold.PLP.Chemscore.Metal>
0.0000

> <Gold.Chemscore.Hbonds>
donor molecule, donor type, donor heavy atom, donor atom, acceptor molecule, acceptor atom, score
      L1  H     9    37       P1 10175  1.00
      L1  H    12    38       P1 10175  1.00
      L1  H    19    42       P1 10747  1.00
      L1  C    21    44       P1 10171  1.00

> <Gold.PLP.Chemscore.Internal.Correction>
0.0454

> <Gold.Rescore>
     Score         DG    S(hbond)    S(metal)    S(lipo)     H(rot)  DE(clash)    DE(int)     intcor
     13.59     -16.72       2.92        0.00      59.41       2.13       0.05       3.08       ----

> <Gold.Chemscore.Fitness>
13.5893

> <Gold.Chemscore.DG>
-16.7190

> <Gold.Chemscore.ZeroCoef>
-5.4800

> <Gold.Chemscore.Hbond>
2.9191

> <Gold.Chemscore.Metal>
0.0000

> <Gold.Chemscore.Lipo>
59.4111

> <Gold.Chemscore.Internal_Hbond>
0.0000

> <Gold.Chemscore.DEClash>
0.0483

> <Gold.Chemscore.DEInternal>
3.0814

> <Gold.Chemscore.Rot>
2.1335

> <Gold.Chemscore.Internal.Correction>
   9.000000E+99

> <Gold.Chemscore.Hbonds>
donor molecule, donor type, donor heavy atom, donor atom, acceptor molecule, acceptor atom, score
      L1  H     9    37       P1 10175  0.99
      L1  H    12    38       P1 10175  0.93
      L1  H    19    42       P1 10747  0.98

> <Gold.Chemscore.Hbond.Weighted>
-9.7498

> <Gold.Chemscore.Metal.Weighted>
-0.0000

> <Gold.Chemscore.Lipo.Weighted>
-6.9511

> <Gold.Chemscore.Internal_Hbond.Weighted>
0.0000

> <Gold.Chemscore.DEClash.Weighted>
0.0483

> <Gold.Chemscore.DEInternal.Weighted>
3.0814

> <Gold.Chemscore.Rot.Weighted>
5.4618

> <Gold.Chemscore.Internal.Correction.Weighted>
   9.000000E+99

> <Gold.Protein.RotatedTorsions>
[ 6907 6896 6895 6894 ] final  -14.63 input  -60.11 | X-H torsion
[ 7974 7965 7964 7962 ] final  162.32 input  175.53 | X-H torsion
[ 8008 7997 7996 7995 ] final   62.64 input   59.86 | X-H torsion
[ 10167 10162 10161 10158 ] final  132.03 input  -65.29 | X-H torsion
[ 10718 10713 10712 10709 ] final  -63.67 input   66.30 | X-H torsion
[ 10763 10752 10751 10750 ] final -174.61 input  -60.55 | X-H torsion
[ 11005 11000 10999 10996 ] final -114.74 input  -57.11 | X-H torsion

> <Gold.Protein.ActiveResidues>
 VAL166  LYS551  ARG553  GLY616  TRP617  ASP618  TYR619  PRO620  LYS621  CYS622 
 ASP623  PHE694  ASN695  SER759  ASP760  ASP761  ALA762  ILE779  LEU786  VAL792 
 PHE793  MET794  SER795  GLU796  ALA797  LYS798  CYS799  TRP800  GLU811  SER814 

> <Gold.Protein.RotatedAtoms>
  151.3365  135.0854  159.9356 H   0  0  0  0  0  0  0  0  0  0  0  0  # atno 6907 bound_to 6896
  152.5222  133.9490  159.7673 H   0  0  0  0  0  0  0  0  0  0  0  0  # atno 6908 bound_to 6896
  150.9839  133.6164  159.2748 H   0  0  0  0  0  0  0  0  0  0  0  0  # atno 6909 bound_to 6896
  144.7642  139.8023  143.6321 H   0  0  0  0  0  0  0  0  0  0  0  0  # atno 7974 bound_to 7965
  155.6175  140.3495  155.4641 H   0  0  0  0  0  0  0  0  0  0  0  0  # atno 8008 bound_to 7997
  156.0105  140.1232  157.0482 H   0  0  0  0  0  0  0  0  0  0  0  0  # atno 8009 bound_to 7997
  154.4279  140.1082  156.5809 H   0  0  0  0  0  0  0  0  0  0  0  0  # atno 8010 bound_to 7997
  139.5357  144.6680  151.4793 H   0  0  0  0  0  0  0  0  0  0  0  0  # atno 10167 bound_to 10162
  156.0776  130.4223  150.1311 H   0  0  0  0  0  0  0  0  0  0  0  0  # atno 10718 bound_to 10713
  154.5941  135.2848  155.0604 H   0  0  0  0  0  0  0  0  0  0  0  0  # atno 10763 bound_to 10752
  154.1893  135.6443  153.5059 H   0  0  0  0  0  0  0  0  0  0  0  0  # atno 10764 bound_to 10752
  153.0132  135.5442  154.6637 H   0  0  0  0  0  0  0  0  0  0  0  0  # atno 10765 bound_to 10752
  141.0532  133.9653  157.2799 H   0  0  0  0  0  0  0  0  0  0  0  0  # atno 11005 bound_to 11000
  146.1734  139.4895  142.9912 LP  0  0  0  0  0  0  0  0  0  0  0  0  # atno 17320 bound_to 7965
  145.6522  141.0260  143.1754 LP  0  0  0  0  0  0  0  0  0  0  0  0  # atno 17321 bound_to 7965
  140.6562  143.8593  150.6838 LP  0  0  0  0  0  0  0  0  0  0  0  0  # atno 17342 bound_to 10162
  140.1974  143.3987  152.1818 LP  0  0  0  0  0  0  0  0  0  0  0  0  # atno 17343 bound_to 10162
  156.9349  130.9726  151.3526 LP  0  0  0  0  0  0  0  0  0  0  0  0  # atno 17370 bound_to 10713
  157.5879  130.8422  149.8616 LP  0  0  0  0  0  0  0  0  0  0  0  0  # atno 17371 bound_to 10713
  139.9368  135.0195  156.8582 LP  0  0  0  0  0  0  0  0  0  0  0  0  # atno 17394 bound_to 11000
  140.6014  134.0168  155.7539 LP  0  0  0  0  0  0  0  0  0  0  0  0  # atno 17395 bound_to 11000

$$$$
