AV-unprocessed.smi:2678|AV-procd|sdf|10368|dock4
  -GOLD-   2272014393D 1   1.00000     0.00000
 Structure written by MMmdl.
 46 47  0  0  0  0  0  0  0  0  1 V2000
  152.0258  142.8653  159.3901 C   0  0  0  0  0  0  0  0  0  0  0  0
  151.8702  143.8028  158.1854 C   0  0  0  0  0  0  0  0  0  0  0  0
  151.2914  145.1655  158.5986 C   0  0  0  0  0  0  0  0  0  0  0  0
  151.0184  143.1681  157.1837 N   0  0  0  0  0  0  0  0  0  0  0  0
  151.0793  141.8793  156.8121 C   0  0  0  0  0  0  0  0  0  0  0  0
  151.8792  141.0747  157.2913 O   0  0  0  0  0  0  0  0  0  0  0  0
  150.0884  141.4330  155.7289 C   0  0  2  0  0  0  0  0  0  0  0  0
  148.6353  141.7614  156.1315 C   0  0  0  0  0  0  0  0  0  0  0  0
  147.6410  141.3004  155.0538 C   0  0  0  0  0  0  0  0  0  0  0  0
  147.8007  139.8022  154.7500 C   0  0  0  0  0  0  0  0  0  0  0  0
  149.2473  139.4631  154.3463 C   0  0  2  0  0  0  0  0  0  0  0  0
  149.3661  138.0227  154.1087 N   0  0  0  0  0  0  0  0  0  0  0  0
  149.5885  137.0438  155.0053 C   0  0  0  0  0  0  0  0  0  0  0  0
  149.7373  137.2975  156.1987 O   0  0  0  0  0  0  0  0  0  0  0  0
  149.6458  135.8088  154.4693 N   0  0  0  0  0  0  0  0  0  0  0  0
  149.9125  134.5690  155.1089 C   0  0  0  0  0  0  0  0  0  0  0  0
  149.8288  133.3068  154.4733 C   0  0  0  0  0  0  0  0  0  0  0  0
  150.1345  132.1509  155.2176 C   0  0  0  0  0  0  0  0  0  0  0  0
  150.5194  132.2990  156.5644 C   0  0  0  0  0  0  0  0  0  0  0  0
  150.6172  133.4971  157.1783 N   0  0  0  0  0  0  0  0  0  0  0  0
  150.3226  134.6006  156.4585 C   0  0  0  0  0  0  0  0  0  0  0  0
  150.2338  139.9245  155.4406 C   0  0  0  0  0  0  0  0  0  0  0  0
  152.6934  143.2958  160.1369 H   0  0  0  0  0  0  0  0  0  0  0  0
  152.4453  141.9047  159.0892 H   0  0  0  0  0  0  0  0  0  0  0  0
  151.0666  142.6746  159.8731 H   0  0  0  0  0  0  0  0  0  0  0  0
  152.8622  143.9611  157.7586 H   0  0  0  0  0  0  0  0  0  0  0  0
  151.9255  145.6502  159.3415 H   0  0  0  0  0  0  0  0  0  0  0  0
  150.2956  145.0599  159.0306 H   0  0  0  0  0  0  0  0  0  0  0  0
  151.2149  145.8396  157.7450 H   0  0  0  0  0  0  0  0  0  0  0  0
  150.3291  143.7554  156.7369 H   0  0  0  0  0  0  0  0  0  0  0  0
  150.3173  141.9776  154.8107 H   0  0  0  0  0  0  0  0  0  0  0  0
  148.3871  141.2777  157.0777 H   0  0  0  0  0  0  0  0  0  0  0  0
  148.5242  142.8342  156.2948 H   0  0  0  0  0  0  0  0  0  0  0  0
  146.6203  141.5065  155.3777 H   0  0  0  0  0  0  0  0  0  0  0  0
  147.7976  141.8768  154.1413 H   0  0  0  0  0  0  0  0  0  0  0  0
  147.5154  139.2229  155.6296 H   0  0  0  0  0  0  0  0  0  0  0  0
  147.1125  139.5149  153.9541 H   0  0  0  0  0  0  0  0  0  0  0  0
  149.4641  139.9990  153.4204 H   0  0  0  0  0  0  0  0  0  0  0  0
  149.2713  137.7317  153.1462 H   0  0  0  0  0  0  0  0  0  0  0  0
  149.5662  135.7659  153.4638 H   0  0  0  0  0  0  0  0  0  0  0  0
  149.5525  133.2016  153.4360 H   0  0  0  0  0  0  0  0  0  0  0  0
  150.0788  131.1723  154.7644 H   0  0  0  0  0  0  0  0  0  0  0  0
  150.7609  131.4332  157.1630 H   0  0  0  0  0  0  0  0  0  0  0  0
  150.4135  135.5419  156.9810 H   0  0  0  0  0  0  0  0  0  0  0  0
  151.2594  139.7081  155.1384 H   0  0  0  0  0  0  0  0  0  0  0  0
  150.0576  139.3512  156.3527 H   0  0  0  0  0  0  0  0  0  0  0  0
  1  2  1  0  0  0  0
  1 23  1  0  0  0  0
  1 24  1  0  0  0  0
  1 25  1  0  0  0  0
  2  3  1  0  0  0  0
  2  4  1  0  0  0  0
  2 26  1  0  0  0  0
  3 27  1  0  0  0  0
  3 28  1  0  0  0  0
  3 29  1  0  0  0  0
  4  5  1  0  0  0  0
  4 30  1  0  0  0  0
  5  6  2  0  0  0  0
  5  7  1  0  0  0  0
  7 22  1  0  0  0  0
  7  8  1  0  0  0  0
  7 31  1  0  0  0  0
  8  9  1  0  0  0  0
  8 32  1  0  0  0  0
  8 33  1  0  0  0  0
  9 10  1  0  0  0  0
  9 34  1  0  0  0  0
  9 35  1  0  0  0  0
 10 11  1  0  0  0  0
 10 36  1  0  0  0  0
 10 37  1  0  0  0  0
 11 12  1  0  0  0  0
 11 22  1  0  0  0  0
 11 38  1  0  0  0  0
 12 13  1  0  0  0  0
 12 39  1  0  0  0  0
 13 14  2  0  0  0  0
 13 15  1  0  0  0  0
 15 16  1  0  0  0  0
 15 40  1  0  0  0  0
 16 21  1  0  0  0  0
 16 17  2  0  0  0  0
 17 18  1  0  0  0  0
 17 41  1  0  0  0  0
 18 19  2  0  0  0  0
 18 42  1  0  0  0  0
 19 20  1  0  0  0  0
 19 43  1  0  0  0  0
 20 21  2  0  0  0  0
 21 44  1  0  0  0  0
 22 45  1  0  0  0  0
 22 46  1  0  0  0  0
M  END
> <s_m_source_file>
AV-unprocessed.smi

> <i_m_source_file_index>
2678

> <i_lp_mmshare_version>
43012

> <i_f3d_flags>
0

> <s_epik_input>
W0NIM11bQ0hdKFtDSDNdKVtOSF1DKD1PKVtDQEBIXTFbQ0gyXVtDSDJdW0NIMl1bQ0BIXShbQ0gyXTEpW05IXUMoPU8pW05IXWMyW2NIXVtjSF1bY0hdbltjSF0y

> <s_epik_cmdline>
J2VwaWtfcHl0aG9uJywgJy1waCcsICc3LjAnLCAnLXRuJywgJzgnLCAnLW1hJywgJzIwMCcsICctbWV0YWxfYmluZGluZycsICctaW1hZScsICc8aW5maWxlLm1hZT4nLCAnLW9tYWUnLCAnPG91dGZpbGUubWFlPic=

> <r_epik_Ionization_Penalty>
0.00482944

> <r_epik_Ionization_Penalty_Charging>
0

> <r_epik_Ionization_Penalty_Neutral>
0.00482944

> <r_epik_State_Penalty>
0.00347168

> <r_epik_Charging_Adjusted_Penalty>
0.00347168

> <i_epik_Tot_Q>
0

> <i_epik_Tot_abs_Q>
0

> <r_epik_Metal_State_Penalty>
-0

> <b_epik_Metal_Only>
0

> <s_lp_Force_Field>
OPLS_2005

> <r_lp_Energy>
22.9796

> <b_lp_Chiralities_Consistent>
1

> <s_lp_Variant>
AV-unprocessed.smi:2678-3

> <Gold.Version>
5.8.1

> <Gold.Id.Protein>
6NUR|6NUR_protein|mol2

> <Gold.PLP.Fitness>
47.5465

> <Gold.PLP.PLP>
-37.2858

> <Gold.PLP.part.hbond>
-3.9848

> <Gold.PLP.part.metal>
0.0000

> <Gold.PLP.part.buried>
-3.4179

> <Gold.PLP.part.nonpolar>
-30.2889

> <Gold.PLP.part.repulsive>
0.0914

> <Gold.PLP.ligand.clash>
0.0000

> <Gold.PLP.ligand.torsion>
0.5877

> <Gold.PLP.Chemscore.Hbond>
3.8060

> <Gold.PLP.Chemscore.CHOScore>
0.0000

> <Gold.PLP.Chemscore.Metal>
0.0000

> <Gold.Chemscore.Hbonds>
donor molecule, donor type, donor heavy atom, donor atom, acceptor molecule, acceptor atom, score
      L1  H     4    30       P1  8028  1.00
      L1  H    12    39       P1  7948  0.96
      L1  H    15    40       P1  7948  0.90
      P1  H  6896  6909       L1    20  0.79

> <Gold.PLP.Chemscore.Internal.Correction>
0.0181

> <Gold.Rescore>
     Score         DG    S(hbond)    S(metal)    S(lipo)     H(rot)  DE(clash)    DE(int)     intcor
     19.37     -24.11       3.70        0.00      85.62       1.46       0.01       4.73       ----

> <Gold.Chemscore.Fitness>
19.3661

> <Gold.Chemscore.DG>
-24.1067

> <Gold.Chemscore.ZeroCoef>
-5.4800

> <Gold.Chemscore.Hbond>
3.6970

> <Gold.Chemscore.Metal>
0.0000

> <Gold.Chemscore.Lipo>
85.6156

> <Gold.Chemscore.Internal_Hbond>
0.0000

> <Gold.Chemscore.DEClash>
0.0133

> <Gold.Chemscore.DEInternal>
4.7273

> <Gold.Chemscore.Rot>
1.4603

> <Gold.Chemscore.Internal.Correction>
   9.000000E+99

> <Gold.Chemscore.Hbonds>
donor molecule, donor type, donor heavy atom, donor atom, acceptor molecule, acceptor atom, score
      L1  H     4    30       P1  8028  0.93
      L1  H    12    39       P1  7948  0.89
      L1  H    15    40       P1  7948  0.18
      P1  H  6896  6909       L1    20  0.73

> <Gold.Chemscore.Hbond.Weighted>
-12.3480

> <Gold.Chemscore.Metal.Weighted>
-0.0000

> <Gold.Chemscore.Lipo.Weighted>
-10.0170

> <Gold.Chemscore.Internal_Hbond.Weighted>
0.0000

> <Gold.Chemscore.DEClash.Weighted>
0.0133

> <Gold.Chemscore.DEInternal.Weighted>
4.7273

> <Gold.Chemscore.Rot.Weighted>
3.7383

> <Gold.Chemscore.Internal.Correction.Weighted>
   9.000000E+99

> <Gold.Protein.RotatedTorsions>
[ 6907 6896 6895 6894 ] final  -17.90 input  -60.11 | X-H torsion
[ 7974 7965 7964 7962 ] final -126.45 input  175.53 | X-H torsion
[ 8008 7997 7996 7995 ] final   51.35 input   59.86 | X-H torsion
[ 10167 10162 10161 10158 ] final  -17.63 input  -65.29 | X-H torsion
[ 10718 10713 10712 10709 ] final  113.97 input   66.30 | X-H torsion
[ 10763 10752 10751 10750 ] final   82.91 input  -60.55 | X-H torsion
[ 11005 11000 10999 10996 ] final  -42.65 input  -57.11 | X-H torsion

> <Gold.Protein.ActiveResidues>
 VAL166  LYS551  ARG553  GLY616  TRP617  ASP618  TYR619  PRO620  LYS621  CYS622 
 ASP623  PHE694  ASN695  SER759  ASP760  ASP761  ALA762  ILE779  LEU786  VAL792 
 PHE793  MET794  SER795  GLU796  ALA797  LYS798  CYS799  TRP800  GLU811  SER814 

> <Gold.Protein.RotatedAtoms>
  151.2863  135.0729  159.9187 H   0  0  0  0  0  0  0  0  0  0  0  0  # atno 6907 bound_to 6896
  152.5325  133.9978  159.7891 H   0  0  0  0  0  0  0  0  0  0  0  0  # atno 6908 bound_to 6896
  151.0241  133.5799  159.2698 H   0  0  0  0  0  0  0  0  0  0  0  0  # atno 6909 bound_to 6896
  144.9871  140.7697  143.4576 H   0  0  0  0  0  0  0  0  0  0  0  0  # atno 7974 bound_to 7965
  155.4338  140.3451  155.4283 H   0  0  0  0  0  0  0  0  0  0  0  0  # atno 8008 bound_to 7997
  156.1320  140.1517  156.9082 H   0  0  0  0  0  0  0  0  0  0  0  0  # atno 8009 bound_to 7997
  154.4902  140.0843  156.7557 H   0  0  0  0  0  0  0  0  0  0  0  0  # atno 8010 bound_to 7997
  140.7249  143.4996  150.9886 H   0  0  0  0  0  0  0  0  0  0  0  0  # atno 10167 bound_to 10162
  157.6308  131.0991  150.7118 H   0  0  0  0  0  0  0  0  0  0  0  0  # atno 10718 bound_to 10713
  153.1244  135.4711  154.9248 H   0  0  0  0  0  0  0  0  0  0  0  0  # atno 10763 bound_to 10752
  154.7606  135.3130  154.8388 H   0  0  0  0  0  0  0  0  0  0  0  0  # atno 10764 bound_to 10752
  153.8945  135.6881  153.4812 H   0  0  0  0  0  0  0  0  0  0  0  0  # atno 10765 bound_to 10752
  141.0330  133.6812  156.2625 H   0  0  0  0  0  0  0  0  0  0  0  0  # atno 11005 bound_to 11000
  145.2338  139.2103  143.5029 LP  0  0  0  0  0  0  0  0  0  0  0  0  # atno 17320 bound_to 7965
  146.3422  140.2220  142.8591 LP  0  0  0  0  0  0  0  0  0  0  0  0  # atno 17321 bound_to 7965
  139.8705  143.7198  152.3166 LP  0  0  0  0  0  0  0  0  0  0  0  0  # atno 17342 bound_to 10162
  139.7446  144.7550  151.0600 LP  0  0  0  0  0  0  0  0  0  0  0  0  # atno 17343 bound_to 10162
  156.7458  130.4753  149.5467 LP  0  0  0  0  0  0  0  0  0  0  0  0  # atno 17370 bound_to 10713
  156.1510  130.6310  151.0595 LP  0  0  0  0  0  0  0  0  0  0  0  0  # atno 17371 bound_to 10713
  140.6372  134.5203  157.5566 LP  0  0  0  0  0  0  0  0  0  0  0  0  # atno 17394 bound_to 11000
  139.9221  134.8128  156.1179 LP  0  0  0  0  0  0  0  0  0  0  0  0  # atno 17395 bound_to 11000

$$$$
