AV-unprocessed.smi:2648|AV-procd|sdf|10288|dock3
  -GOLD-   2272014303D 1   1.00000     0.00000
 Structure written by MMmdl.
 32 33  0  0  0  0  0  0  0  0  3 V2000
  145.9661  136.9229  154.8120 O   0  0  0  0  0  0  0  0  0  0  0  0
  146.8057  136.8177  153.9183 C   0  0  0  0  0  0  0  0  0  0  0  0
  148.0516  137.3037  154.0117 N   0  0  0  0  0  0  0  0  0  0  0  0
  148.5845  138.0136  155.1680 C   0  0  0  0  0  0  0  0  0  0  0  0
  149.4916  139.1817  154.7416 C   0  0  0  0  0  0  0  0  0  0  0  0
  150.8522  139.0109  155.2582 N   0  0  0  0  0  0  0  0  0  0  0  0
  151.6006  137.9212  155.0616 C   0  0  0  0  0  0  0  0  0  0  0  0
  151.3002  136.8977  154.4466 O   0  0  0  0  0  0  0  0  0  0  0  0
  152.9335  138.1579  155.7325 C   0  0  0  0  0  0  0  0  0  0  0  0
  152.7743  139.4882  156.2753 N   0  5  0  0  0  0  0  0  0  0  0  0
  151.5360  139.9350  155.9597 C   0  0  0  0  0  0  0  0  0  0  0  0
  151.0542  141.0305  156.2467 O   0  0  0  0  0  0  0  0  0  0  0  0
  146.6127  136.1924  152.7439 N   0  0  0  0  0  0  0  0  0  0  0  0
  145.4335  135.5608  152.2635 C   0  0  0  0  0  0  0  0  0  0  0  0
  145.4551  135.0474  150.9475 C   0  0  0  0  0  0  0  0  0  0  0  0
  144.3028  134.4264  150.4236 C   0  0  0  0  0  0  0  0  0  0  0  0
  143.1860  134.3363  151.1772 N   0  3  0  0  0  0  0  0  0  0  0  0
  143.1121  134.8251  152.4339 C   0  0  0  0  0  0  0  0  0  0  0  0
  144.2329  135.4562  153.0114 C   0  0  0  0  0  0  0  0  0  0  0  0
  148.6803  137.1702  153.2334 H   0  0  0  0  0  0  0  0  0  0  0  0
  147.7422  138.3890  155.7499 H   0  0  0  0  0  0  0  0  0  0  0  0
  149.1260  137.3228  155.8169 H   0  0  0  0  0  0  0  0  0  0  0  0
  149.5179  139.2637  153.6538 H   0  0  0  0  0  0  0  0  0  0  0  0
  149.0750  140.1259  155.0966 H   0  0  0  0  0  0  0  0  0  0  0  0
  153.1044  137.3985  156.4961 H   0  0  0  0  0  0  0  0  0  0  0  0
  153.7369  138.0858  154.9983 H   0  0  0  0  0  0  0  0  0  0  0  0
  147.4241  136.1097  152.1490 H   0  0  0  0  0  0  0  0  0  0  0  0
  146.3479  135.1210  150.3432 H   0  0  0  0  0  0  0  0  0  0  0  0
  144.2415  134.0043  149.4310 H   0  0  0  0  0  0  0  0  0  0  0  0
  142.1629  134.7035  152.9355 H   0  0  0  0  0  0  0  0  0  0  0  0
  144.1451  135.8573  154.0097 H   0  0  0  0  0  0  0  0  0  0  0  0
  142.3621  133.8848  150.7789 H   0  0  0  0  0  0  0  0  0  0  0  0
  1  2  2  0  0  0  0
  2  3  1  0  0  0  0
  2 13  1  0  0  0  0
  3  4  1  0  0  0  0
  3 20  1  0  0  0  0
  4  5  1  0  0  0  0
  4 21  1  0  0  0  0
  4 22  1  0  0  0  0
  5  6  1  0  0  0  0
  5 23  1  0  0  0  0
  5 24  1  0  0  0  0
  6 11  1  0  0  0  0
  6  7  1  0  0  0  0
  7  8  2  0  0  0  0
  7  9  1  0  0  0  0
  9 10  1  0  0  0  0
  9 25  1  0  0  0  0
  9 26  1  0  0  0  0
 10 11  1  0  0  0  0
 11 12  2  0  0  0  0
 13 14  1  0  0  0  0
 13 27  1  0  0  0  0
 14 19  1  0  0  0  0
 14 15  2  0  0  0  0
 15 16  1  0  0  0  0
 15 28  1  0  0  0  0
 16 17  2  0  0  0  0
 16 29  1  0  0  0  0
 17 18  1  0  0  0  0
 17 32  1  0  0  0  0
 18 19  2  0  0  0  0
 18 30  1  0  0  0  0
 19 31  1  0  0  0  0
M  CHG  1  10  -1
M  CHG  1  17   1
M  END
> <s_m_source_file>
AV-unprocessed.smi

> <i_m_source_file_index>
2648

> <i_lp_mmshare_version>
43012

> <i_f3d_flags>
0

> <s_epik_input>
W2NIXTFbY0hdbltjSF1bY0hdYzFbTkhdQyg9TylbTkhdW0NIMl1bQ0gyXU4yQyg9TylbQ0gyXVtOSF1DMj1P

> <s_epik_cmdline>
J2VwaWtfcHl0aG9uJywgJy1waCcsICc3LjAnLCAnLXRuJywgJzgnLCAnLW1hJywgJzIwMCcsICctbWV0YWxfYmluZGluZycsICctaW1hZScsICc8aW5maWxlLm1hZT4nLCAnLW9tYWUnLCAnPG91dGZpbGUubWFlPic=

> <r_lp_tautomer_probability>
1

> <r_epik_Ionization_Penalty>
6.85559

> <r_epik_Ionization_Penalty_Charging>
6.85558

> <r_epik_Ionization_Penalty_Neutral>
1.85947e-05

> <r_epik_State_Penalty>
6.90892

> <r_epik_Charging_Adjusted_Penalty>
13.7645

> <i_epik_Tot_Q>
0

> <i_epik_Tot_abs_Q>
2

> <r_epik_Metal_State_Penalty>
2.96744

> <b_epik_Metal_Only>
1

> <s_lp_Force_Field>
OPLS_2005

> <r_lp_Energy>
20.2927

> <b_lp_Chiralities_Consistent>
1

> <s_lp_Variant>
AV-unprocessed.smi:2648-4

> <Gold.Version>
5.8.1

> <Gold.Id.Protein>
6NUR|6NUR_protein|mol2

> <Gold.PLP.Fitness>
44.4758

> <Gold.PLP.PLP>
-27.1768

> <Gold.PLP.part.hbond>
-4.8982

> <Gold.PLP.part.metal>
0.0000

> <Gold.PLP.part.buried>
-3.0100

> <Gold.PLP.part.nonpolar>
-21.7403

> <Gold.PLP.part.repulsive>
0.8145

> <Gold.PLP.ligand.clash>
0.0000

> <Gold.PLP.ligand.torsion>
0.5745

> <Gold.PLP.Chemscore.Hbond>
6.1408

> <Gold.PLP.Chemscore.CHOScore>
0.0000

> <Gold.PLP.Chemscore.Metal>
0.0000

> <Gold.Chemscore.Hbonds>
donor molecule, donor type, donor heavy atom, donor atom, acceptor molecule, acceptor atom, score
      L1  H     3    20       P1  7948  0.90
      L1  H    13    27       P1  7948  1.00
      L1  H    17    32       P1 10186  1.38
      P1  H  7997  8008       L1    10  2.00
      P1  H 10752 10765       L1     8  0.89

> <Gold.PLP.Chemscore.Internal.Correction>
0.0258

> <Gold.Rescore>
     Score         DG    S(hbond)    S(metal)    S(lipo)     H(rot)  DE(clash)    DE(int)     intcor
     13.66     -17.09       3.50        0.00      41.52       1.93       0.98       2.45       ----

> <Gold.Chemscore.Fitness>
13.6612

> <Gold.Chemscore.DG>
-17.0867

> <Gold.Chemscore.ZeroCoef>
-5.4800

> <Gold.Chemscore.Hbond>
3.4987

> <Gold.Chemscore.Metal>
0.0000

> <Gold.Chemscore.Lipo>
41.5168

> <Gold.Chemscore.Internal_Hbond>
0.0000

> <Gold.Chemscore.DEClash>
0.9800

> <Gold.Chemscore.DEInternal>
2.4454

> <Gold.Chemscore.Rot>
1.9284

> <Gold.Chemscore.Internal.Correction>
   9.000000E+99

> <Gold.Chemscore.Hbonds>
donor molecule, donor type, donor heavy atom, donor atom, acceptor molecule, acceptor atom, score
      L1  H     3    20       P1  7948  0.88
      L1  H    13    27       P1  7948  0.93
      L1  H    17    32       P1 10186  0.44
      P1  H  7997  8008       L1    10  0.45
      P1  H 10752 10765       L1     8  0.68

> <Gold.Chemscore.Hbond.Weighted>
-11.6858

> <Gold.Chemscore.Metal.Weighted>
-0.0000

> <Gold.Chemscore.Lipo.Weighted>
-4.8575

> <Gold.Chemscore.Internal_Hbond.Weighted>
0.0000

> <Gold.Chemscore.DEClash.Weighted>
0.9800

> <Gold.Chemscore.DEInternal.Weighted>
2.4454

> <Gold.Chemscore.Rot.Weighted>
4.9366

> <Gold.Chemscore.Internal.Correction.Weighted>
   9.000000E+99

> <Gold.Protein.RotatedTorsions>
[ 6907 6896 6895 6894 ] final -105.84 input  -60.11 | X-H torsion
[ 7974 7965 7964 7962 ] final -109.10 input  175.53 | X-H torsion
[ 8008 7997 7996 7995 ] final  -35.87 input   59.86 | X-H torsion
[ 10167 10162 10161 10158 ] final -176.85 input  -65.29 | X-H torsion
[ 10718 10713 10712 10709 ] final -166.56 input   66.30 | X-H torsion
[ 10763 10752 10751 10750 ] final  156.40 input  -60.55 | X-H torsion
[ 11005 11000 10999 10996 ] final  -76.06 input  -57.11 | X-H torsion

> <Gold.Protein.ActiveResidues>
 VAL166  LYS551  ARG553  GLY616  TRP617  ASP618  TYR619  PRO620  LYS621  CYS622 
 ASP623  PHE694  ASN695  SER759  ASP760  ASP761  ALA762  ILE779  LEU786  VAL792 
 PHE793  MET794  SER795  GLU796  ALA797  LYS798  CYS799  TRP800  GLU811  SER814 

> <Gold.Protein.RotatedAtoms>
  150.7357  134.0067  159.3655 H   0  0  0  0  0  0  0  0  0  0  0  0  # atno 6907 bound_to 6896
  151.8024  135.0703  160.0411 H   0  0  0  0  0  0  0  0  0  0  0  0  # atno 6908 bound_to 6896
  152.3131  133.5737  159.5730 H   0  0  0  0  0  0  0  0  0  0  0  0  # atno 6909 bound_to 6896
  145.1847  140.8987  143.3459 H   0  0  0  0  0  0  0  0  0  0  0  0  # atno 7974 bound_to 7965
  154.4085  140.1646  156.2282 H   0  0  0  0  0  0  0  0  0  0  0  0  # atno 8008 bound_to 7997
  155.9306  140.3415  155.6223 H   0  0  0  0  0  0  0  0  0  0  0  0  # atno 8009 bound_to 7997
  155.7111  140.0757  157.2361 H   0  0  0  0  0  0  0  0  0  0  0  0  # atno 8010 bound_to 7997
  139.5509  144.2112  152.1075 H   0  0  0  0  0  0  0  0  0  0  0  0  # atno 10167 bound_to 10162
  156.6697  130.9079  151.3042 H   0  0  0  0  0  0  0  0  0  0  0  0  # atno 10718 bound_to 10713
  154.1837  135.2798  155.3044 H   0  0  0  0  0  0  0  0  0  0  0  0  # atno 10763 bound_to 10752
  154.5983  135.5538  153.7351 H   0  0  0  0  0  0  0  0  0  0  0  0  # atno 10764 bound_to 10752
  153.0131  135.6385  154.1976 H   0  0  0  0  0  0  0  0  0  0  0  0  # atno 10765 bound_to 10752
  141.1651  133.6969  156.7611 H   0  0  0  0  0  0  0  0  0  0  0  0  # atno 11005 bound_to 11000
  145.0101  139.3518  143.6124 LP  0  0  0  0  0  0  0  0  0  0  0  0  # atno 17320 bound_to 7965
  146.3447  139.9360  142.8747 LP  0  0  0  0  0  0  0  0  0  0  0  0  # atno 17321 bound_to 7965
  140.1607  144.5029  150.6634 LP  0  0  0  0  0  0  0  0  0  0  0  0  # atno 17342 bound_to 10162
  140.6771  143.2310  151.5479 LP  0  0  0  0  0  0  0  0  0  0  0  0  # atno 17343 bound_to 10162
  157.7081  130.9409  150.0999 LP  0  0  0  0  0  0  0  0  0  0  0  0  # atno 17370 bound_to 10713
  156.1948  130.3656  149.8863 LP  0  0  0  0  0  0  0  0  0  0  0  0  # atno 17371 bound_to 10713
  140.2533  134.8523  157.3689 LP  0  0  0  0  0  0  0  0  0  0  0  0  # atno 17394 bound_to 11000
  140.1681  134.4643  155.7849 LP  0  0  0  0  0  0  0  0  0  0  0  0  # atno 17395 bound_to 11000

$$$$
