AV-unprocessed.smi:3189|AV-procd|sdf|12188|dock8
  -GOLD-   2272018 33D 1   1.00000     0.00000
 Structure written by MMmdl.
 30 31  0  0  0  0  0  0  0  0  1 V2000
  147.5322  139.3786  152.5730 C   0  0  0  0  0  0  0  0  0  0  0  0
  148.6657  139.5988  153.5574 C   0  0  0  0  0  0  0  0  0  0  0  0
  149.4508  138.5252  153.7951 N   0  0  0  0  0  0  0  0  0  0  0  0
  150.4697  138.6648  154.6678 C   0  0  0  0  0  0  0  0  0  0  0  0
  150.7581  139.8702  155.3357 C   0  0  0  0  0  0  0  0  0  0  0  0
  149.9473  141.0009  155.0769 C   0  0  0  0  0  0  0  0  0  0  0  0
  150.1353  142.2596  155.7113 N   0  0  0  0  0  0  0  0  0  0  0  0
  150.9949  142.5926  156.6942 C   0  0  0  0  0  0  0  0  0  0  0  0
  151.8202  141.8293  157.1917 O   0  0  0  0  0  0  0  0  0  0  0  0
  150.9372  143.8861  157.0564 N   0  0  0  0  0  0  0  0  0  0  0  0
  151.7163  144.5437  158.0629 C   0  0  1  0  0  0  0  0  0  0  0  0
  150.9661  145.1365  159.2355 C   0  0  0  0  0  0  0  0  0  0  0  0
  151.8320  143.9207  159.4411 C   0  0  1  0  0  0  0  0  0  0  0  0
  151.2157  142.5746  159.7681 C   0  0  0  0  0  0  0  0  0  0  0  0
  148.8672  140.8555  154.1751 C   0  0  0  0  0  0  0  0  0  0  0  0
  147.8181  142.1898  153.8283 Cl  0  0  0  0  0  0  0  0  0  0  0  0
  147.6361  140.0498  151.7200 H   0  0  0  0  0  0  0  0  0  0  0  0
  146.5714  139.5735  153.0506 H   0  0  0  0  0  0  0  0  0  0  0  0
  147.5200  138.3547  152.1969 H   0  0  0  0  0  0  0  0  0  0  0  0
  151.0707  137.7853  154.8454 H   0  0  0  0  0  0  0  0  0  0  0  0
  151.5787  139.8995  156.0356 H   0  0  0  0  0  0  0  0  0  0  0  0
  149.5964  143.0202  155.3235 H   0  0  0  0  0  0  0  0  0  0  0  0
  150.3490  144.4854  156.4955 H   0  0  0  0  0  0  0  0  0  0  0  0
  152.5657  145.1339  157.7220 H   0  0  0  0  0  0  0  0  0  0  0  0
  151.3269  146.0815  159.6366 H   0  0  0  0  0  0  0  0  0  0  0  0
  149.8865  145.0011  159.2698 H   0  0  0  0  0  0  0  0  0  0  0  0
  152.7805  144.0905  159.9469 H   0  0  0  0  0  0  0  0  0  0  0  0
  150.2276  142.4736  159.3183 H   0  0  0  0  0  0  0  0  0  0  0  0
  151.1140  142.4638  160.8478 H   0  0  0  0  0  0  0  0  0  0  0  0
  151.8524  141.7722  159.3948 H   0  0  0  0  0  0  0  0  0  0  0  0
  1  2  1  0  0  0  0
  1 17  1  0  0  0  0
  1 18  1  0  0  0  0
  1 19  1  0  0  0  0
  2 15  1  0  0  0  0
  2  3  2  0  0  0  0
  3  4  1  0  0  0  0
  4  5  2  0  0  0  0
  4 20  1  0  0  0  0
  5  6  1  0  0  0  0
  5 21  1  0  0  0  0
  6  7  1  0  0  0  0
  6 15  2  0  0  0  0
  7  8  1  0  0  0  0
  7 22  1  0  0  0  0
  8  9  2  0  0  0  0
  8 10  1  0  0  0  0
 10 11  1  0  0  0  0
 10 23  1  0  0  0  0
 11 13  1  0  0  0  0
 11 12  1  0  0  0  0
 11 24  1  0  0  0  0
 12 13  1  0  0  0  0
 12 25  1  0  0  0  0
 12 26  1  0  0  0  0
 13 14  1  0  0  0  0
 13 27  1  0  0  0  0
 14 28  1  0  0  0  0
 14 29  1  0  0  0  0
 14 30  1  0  0  0  0
 15 16  1  0  0  0  0
M  END
> <s_m_source_file>
AV-unprocessed.smi

> <i_m_source_file_index>
3189

> <i_lp_mmshare_version>
43012

> <i_f3d_flags>
0

> <s_epik_input>
W0NIM11jMW5bY0hdW2NIXWMoYzFDbClbTkhdQyg9TylbTkhdW0NAQEhdMltDSDJdW0NASF0yW0NIM10=

> <s_epik_cmdline>
J2VwaWtfcHl0aG9uJywgJy1waCcsICc3LjAnLCAnLXRuJywgJzgnLCAnLW1hJywgJzIwMCcsICctbWV0YWxfYmluZGluZycsICctaW1hZScsICc8aW5maWxlLm1hZT4nLCAnLW9tYWUnLCAnPG91dGZpbGUubWFlPic=

> <r_epik_Ionization_Penalty>
0.00994309

> <r_epik_Ionization_Penalty_Charging>
0

> <r_epik_Ionization_Penalty_Neutral>
0.00994309

> <r_epik_State_Penalty>
0.00754503

> <r_epik_Charging_Adjusted_Penalty>
0.00754503

> <i_epik_Tot_Q>
0

> <i_epik_Tot_abs_Q>
0

> <r_epik_Metal_State_Penalty>
0.00742071

> <b_epik_Metal_Only>
0

> <s_lp_Force_Field>
OPLS_2005

> <r_lp_Energy>
34.6575

> <b_lp_Chiralities_Consistent>
1

> <s_lp_Variant>
AV-unprocessed.smi:3189-2

> <Gold.Version>
5.8.1

> <Gold.Id.Protein>
6NUR|6NUR_protein|mol2

> <Gold.PLP.Fitness>
39.6117

> <Gold.PLP.PLP>
-33.7512

> <Gold.PLP.part.hbond>
-2.0000

> <Gold.PLP.part.metal>
0.0000

> <Gold.PLP.part.buried>
-0.8213

> <Gold.PLP.part.nonpolar>
-32.6143

> <Gold.PLP.part.repulsive>
0.5663

> <Gold.PLP.ligand.clash>
0.0250

> <Gold.PLP.ligand.torsion>
0.0647

> <Gold.PLP.Chemscore.Hbond>
1.9920

> <Gold.PLP.Chemscore.CHOScore>
0.0000

> <Gold.PLP.Chemscore.Metal>
0.0000

> <Gold.Chemscore.Hbonds>
donor molecule, donor type, donor heavy atom, donor atom, acceptor molecule, acceptor atom, score
      L1  H     7    22       P1  8028  0.91
      L1  H    10    23       P1  8028  1.00

> <Gold.PLP.Chemscore.Internal.Correction>
0.0388

> <Gold.Rescore>
     Score         DG    S(hbond)    S(metal)    S(lipo)     H(rot)  DE(clash)    DE(int)     intcor
     17.36     -20.30       1.95        0.00      92.82       1.00       1.63       1.30       ----

> <Gold.Chemscore.Fitness>
17.3634

> <Gold.Chemscore.DG>
-20.2966

> <Gold.Chemscore.ZeroCoef>
-5.4800

> <Gold.Chemscore.Hbond>
1.9509

> <Gold.Chemscore.Metal>
0.0000

> <Gold.Chemscore.Lipo>
92.8246

> <Gold.Chemscore.Internal_Hbond>
0.0000

> <Gold.Chemscore.DEClash>
1.6296

> <Gold.Chemscore.DEInternal>
1.3036

> <Gold.Chemscore.Rot>
1.0000

> <Gold.Chemscore.Internal.Correction>
   9.000000E+99

> <Gold.Chemscore.Hbonds>
donor molecule, donor type, donor heavy atom, donor atom, acceptor molecule, acceptor atom, score
      L1  H     7    22       P1  8028  0.90
      L1  H    10    23       P1  8028  0.94

> <Gold.Chemscore.Hbond.Weighted>
-6.5162

> <Gold.Chemscore.Metal.Weighted>
-0.0000

> <Gold.Chemscore.Lipo.Weighted>
-10.8605

> <Gold.Chemscore.Internal_Hbond.Weighted>
0.0000

> <Gold.Chemscore.DEClash.Weighted>
1.6296

> <Gold.Chemscore.DEInternal.Weighted>
1.3036

> <Gold.Chemscore.Rot.Weighted>
2.5600

> <Gold.Chemscore.Internal.Correction.Weighted>
   9.000000E+99

> <Gold.Protein.RotatedTorsions>
[ 6907 6896 6895 6894 ] final   10.91 input  -60.11 | X-H torsion
[ 7974 7965 7964 7962 ] final  138.99 input  175.53 | X-H torsion
[ 8008 7997 7996 7995 ] final   31.28 input   59.86 | X-H torsion
[ 10167 10162 10161 10158 ] final   98.76 input  -65.29 | X-H torsion
[ 10718 10713 10712 10709 ] final   61.94 input   66.30 | X-H torsion
[ 10763 10752 10751 10750 ] final -169.39 input  -60.55 | X-H torsion
[ 11005 11000 10999 10996 ] final  -96.97 input  -57.11 | X-H torsion

> <Gold.Protein.ActiveResidues>
 VAL166  LYS551  ARG553  GLY616  TRP617  ASP618  TYR619  PRO620  LYS621  CYS622 
 ASP623  PHE694  ASN695  SER759  ASP760  ASP761  ALA762  ILE779  LEU786  VAL792 
 PHE793  MET794  SER795  GLU796  ALA797  LYS798  CYS799  TRP800  GLU811  SER814 

> <Gold.Protein.RotatedAtoms>
  151.7459  135.0844  160.0322 H   0  0  0  0  0  0  0  0  0  0  0  0  # atno 6907 bound_to 6896
  152.3449  133.6105  159.5911 H   0  0  0  0  0  0  0  0  0  0  0  0  # atno 6908 bound_to 6896
  150.7502  133.9581  159.3548 H   0  0  0  0  0  0  0  0  0  0  0  0  # atno 6909 bound_to 6896
  144.9320  139.5035  143.5613 H   0  0  0  0  0  0  0  0  0  0  0  0  # atno 7974 bound_to 7965
  155.1039  140.3232  155.4540 H   0  0  0  0  0  0  0  0  0  0  0  0  # atno 8008 bound_to 7997
  156.2709  140.2056  156.6111 H   0  0  0  0  0  0  0  0  0  0  0  0  # atno 8009 bound_to 7997
  154.6808  140.0526  157.0251 H   0  0  0  0  0  0  0  0  0  0  0  0  # atno 8010 bound_to 7997
  139.7679  144.6932  151.0197 H   0  0  0  0  0  0  0  0  0  0  0  0  # atno 10167 bound_to 10162
  157.5865  130.9023  149.9525 H   0  0  0  0  0  0  0  0  0  0  0  0  # atno 10718 bound_to 10713
  154.6528  135.2914  154.9965 H   0  0  0  0  0  0  0  0  0  0  0  0  # atno 10763 bound_to 10752
  154.1052  135.6571  153.4879 H   0  0  0  0  0  0  0  0  0  0  0  0  # atno 10764 bound_to 10752
  153.0386  135.5252  154.7444 H   0  0  0  0  0  0  0  0  0  0  0  0  # atno 10765 bound_to 10752
  141.1394  133.8136  157.0642 H   0  0  0  0  0  0  0  0  0  0  0  0  # atno 11005 bound_to 11000
  146.3251  139.8277  142.8914 LP  0  0  0  0  0  0  0  0  0  0  0  0  # atno 17320 bound_to 7965
  145.3127  141.0224  143.3545 LP  0  0  0  0  0  0  0  0  0  0  0  0  # atno 17321 bound_to 7965
  140.7812  143.4621  151.0263 LP  0  0  0  0  0  0  0  0  0  0  0  0  # atno 17342 bound_to 10162
  139.8306  143.7696  152.3179 LP  0  0  0  0  0  0  0  0  0  0  0  0  # atno 17343 bound_to 10162
  156.0914  130.3663  150.0387 LP  0  0  0  0  0  0  0  0  0  0  0  0  # atno 17370 bound_to 10713
  156.8518  130.9461  151.3625 LP  0  0  0  0  0  0  0  0  0  0  0  0  # atno 17371 bound_to 10713
  140.0552  134.9784  157.1207 LP  0  0  0  0  0  0  0  0  0  0  0  0  # atno 17394 bound_to 11000
  140.3930  134.2164  155.7165 LP  0  0  0  0  0  0  0  0  0  0  0  0  # atno 17395 bound_to 11000

$$$$
