AV-unprocessed.smi:2913|AV-procd|sdf|11182|dock6
  -GOLD-   2272016 73D 1   1.00000     0.00000
 Structure written by MMmdl.
 41 42  0  0  0  0  0  0  0  0  1 V2000
  148.9597  139.0031  154.0090 C   0  0  0  0  0  0  0  0  0  0  0  0
  150.0804  138.6155  154.9596 C   0  0  0  0  0  0  0  0  0  0  0  0
  150.7788  139.5773  155.6034 C   0  0  0  0  0  0  0  0  0  0  0  0
  151.8702  139.2772  156.5315 C   0  0  0  0  0  0  0  0  0  0  0  0
  152.4979  140.1605  157.1161 O   0  0  0  0  0  0  0  0  0  0  0  0
  152.1469  137.9556  156.7041 N   0  0  0  0  0  0  0  0  0  0  0  0
  153.2284  137.5498  157.6058 C   0  0  0  0  0  0  0  0  0  0  0  0
  151.4300  136.9457  156.0404 C   0  0  0  0  0  0  0  0  0  0  0  0
  150.4142  137.2156  155.1906 C   0  0  0  0  0  0  0  0  0  0  0  0
  149.6789  136.2389  154.4978 N   0  0  0  0  0  0  0  0  0  0  0  0
  149.3228  134.9994  154.8837 C   0  0  0  0  0  0  0  0  0  0  0  0
  149.5542  134.4911  155.9802 O   0  0  0  0  0  0  0  0  0  0  0  0
  148.6454  134.3767  153.9081 N   0  0  0  0  0  0  0  0  0  0  0  0
  148.0670  133.0359  153.9827 C   0  0  2  0  0  0  0  0  0  0  0  0
  149.1692  132.0349  154.3584 C   0  0  0  0  0  0  0  0  0  0  0  0
  147.3920  132.6782  152.6438 C   0  0  2  0  0  0  0  0  0  0  0  0
  146.2825  133.6398  152.2094 C   0  0  0  0  0  0  0  0  0  0  0  0
  145.4438  132.7574  151.3149 C   0  0  0  0  0  0  0  0  0  0  0  0
  145.4947  131.4300  152.0637 C   0  0  0  0  0  0  0  0  0  0  0  0
  146.7567  131.4033  152.7257 O   0  0  0  0  0  0  0  0  0  0  0  0
  148.8255  140.0843  153.9607 H   0  0  0  0  0  0  0  0  0  0  0  0
  148.0168  138.5628  154.3348 H   0  0  0  0  0  0  0  0  0  0  0  0
  149.1768  138.6466  153.0017 H   0  0  0  0  0  0  0  0  0  0  0  0
  150.5307  140.6150  155.4337 H   0  0  0  0  0  0  0  0  0  0  0  0
  153.3479  136.4676  157.6664 H   0  0  0  0  0  0  0  0  0  0  0  0
  153.0394  137.9110  158.6176 H   0  0  0  0  0  0  0  0  0  0  0  0
  154.1806  137.9629  157.2702 H   0  0  0  0  0  0  0  0  0  0  0  0
  151.7809  135.9524  156.2689 H   0  0  0  0  0  0  0  0  0  0  0  0
  149.3629  136.5251  153.5829 H   0  0  0  0  0  0  0  0  0  0  0  0
  148.5019  134.8771  153.0432 H   0  0  0  0  0  0  0  0  0  0  0  0
  147.3053  132.9976  154.7632 H   0  0  0  0  0  0  0  0  0  0  0  0
  148.7682  131.0259  154.4567 H   0  0  0  0  0  0  0  0  0  0  0  0
  149.6292  132.2977  155.3117 H   0  0  0  0  0  0  0  0  0  0  0  0
  149.9565  132.0074  153.6044 H   0  0  0  0  0  0  0  0  0  0  0  0
  148.1390  132.6226  151.8501 H   0  0  0  0  0  0  0  0  0  0  0  0
  145.6944  133.9636  153.0696 H   0  0  0  0  0  0  0  0  0  0  0  0
  146.6608  134.5269  151.7008 H   0  0  0  0  0  0  0  0  0  0  0  0
  144.4289  133.1291  151.1713 H   0  0  0  0  0  0  0  0  0  0  0  0
  145.9160  132.6574  150.3366 H   0  0  0  0  0  0  0  0  0  0  0  0
  144.7084  131.3894  152.8185 H   0  0  0  0  0  0  0  0  0  0  0  0
  145.3726  130.5730  151.4015 H   0  0  0  0  0  0  0  0  0  0  0  0
  1  2  1  0  0  0  0
  1 21  1  0  0  0  0
  1 22  1  0  0  0  0
  1 23  1  0  0  0  0
  2  9  1  0  0  0  0
  2  3  2  0  0  0  0
  3  4  1  0  0  0  0
  3 24  1  0  0  0  0
  4  5  2  0  0  0  0
  4  6  1  0  0  0  0
  6  7  1  0  0  0  0
  6  8  1  0  0  0  0
  7 25  1  0  0  0  0
  7 26  1  0  0  0  0
  7 27  1  0  0  0  0
  8  9  2  0  0  0  0
  8 28  1  0  0  0  0
  9 10  1  0  0  0  0
 10 11  1  0  0  0  0
 10 29  1  0  0  0  0
 11 12  2  0  0  0  0
 11 13  1  0  0  0  0
 13 14  1  0  0  0  0
 13 30  1  0  0  0  0
 14 15  1  0  0  0  0
 14 16  1  0  0  0  0
 14 31  1  0  0  0  0
 15 32  1  0  0  0  0
 15 33  1  0  0  0  0
 15 34  1  0  0  0  0
 16 20  1  0  0  0  0
 16 17  1  0  0  0  0
 16 35  1  0  0  0  0
 17 18  1  0  0  0  0
 17 36  1  0  0  0  0
 17 37  1  0  0  0  0
 18 19  1  0  0  0  0
 18 38  1  0  0  0  0
 18 39  1  0  0  0  0
 19 20  1  0  0  0  0
 19 40  1  0  0  0  0
 19 41  1  0  0  0  0
M  END
> <s_m_source_file>
AV-unprocessed.smi

> <i_m_source_file_index>
2913

> <i_lp_mmshare_version>
43012

> <i_f3d_flags>
0

> <s_epik_input>
W0NIM11jMVtjSF1jKD1PKW4oW0NIM10pW2NIXWMxW05IXUMoPU8pW05IXVtDQEhdKFtDSDNdKVtDQEBIXTJbQ0gyXVtDSDJdW0NIMl1PMg==

> <s_epik_cmdline>
J2VwaWtfcHl0aG9uJywgJy1waCcsICc3LjAnLCAnLXRuJywgJzgnLCAnLW1hJywgJzIwMCcsICctbWV0YWxfYmluZGluZycsICctaW1hZScsICc8aW5maWxlLm1hZT4nLCAnLW9tYWUnLCAnPG91dGZpbGUubWFlPic=

> <r_lp_tautomer_probability>
1

> <r_epik_Ionization_Penalty>
2.72039e-05

> <r_epik_Ionization_Penalty_Charging>
8.03976e-06

> <r_epik_Ionization_Penalty_Neutral>
1.91642e-05

> <r_epik_State_Penalty>
-0

> <r_epik_Charging_Adjusted_Penalty>
8.03976e-06

> <i_epik_Tot_Q>
0

> <i_epik_Tot_abs_Q>
0

> <r_epik_Metal_State_Penalty>
-0

> <b_epik_Metal_Only>
0

> <s_lp_Force_Field>
OPLS_2005

> <r_lp_Energy>
32.2239

> <b_lp_Chiralities_Consistent>
1

> <s_lp_Variant>
AV-unprocessed.smi:2913-1

> <Gold.Version>
5.8.1

> <Gold.Id.Protein>
6NUR|6NUR_protein|mol2

> <Gold.PLP.Fitness>
38.3692

> <Gold.PLP.PLP>
-29.8517

> <Gold.PLP.part.hbond>
-3.2541

> <Gold.PLP.part.metal>
0.0000

> <Gold.PLP.part.buried>
-0.8497

> <Gold.PLP.part.nonpolar>
-24.8508

> <Gold.PLP.part.repulsive>
0.6367

> <Gold.PLP.ligand.clash>
0.0000

> <Gold.PLP.ligand.torsion>
0.2460

> <Gold.PLP.Chemscore.Hbond>
3.0000

> <Gold.PLP.Chemscore.CHOScore>
0.0000

> <Gold.PLP.Chemscore.Metal>
0.0000

> <Gold.Chemscore.Hbonds>
donor molecule, donor type, donor heavy atom, donor atom, acceptor molecule, acceptor atom, score
      L1  H    10    29       P1  7948  1.00
      L1  H    13    30       P1  7948  1.00
      P1  H  7997  8008       L1     5  1.00

> <Gold.PLP.Chemscore.Internal.Correction>
0.0095

> <Gold.Rescore>
     Score         DG    S(hbond)    S(metal)    S(lipo)     H(rot)  DE(clash)    DE(int)     intcor
     16.80     -18.54       2.55        0.00      65.48       1.21       0.18       1.57       ----

> <Gold.Chemscore.Fitness>
16.7952

> <Gold.Chemscore.DG>
-18.5440

> <Gold.Chemscore.ZeroCoef>
-5.4800

> <Gold.Chemscore.Hbond>
2.5453

> <Gold.Chemscore.Metal>
0.0000

> <Gold.Chemscore.Lipo>
65.4765

> <Gold.Chemscore.Internal_Hbond>
0.0000

> <Gold.Chemscore.DEClash>
0.1770

> <Gold.Chemscore.DEInternal>
1.5718

> <Gold.Chemscore.Rot>
1.2101

> <Gold.Chemscore.Internal.Correction>
   9.000000E+99

> <Gold.Chemscore.Hbonds>
donor molecule, donor type, donor heavy atom, donor atom, acceptor molecule, acceptor atom, score
      L1  H    10    29       P1  7948  0.85
      L1  H    13    30       P1  7948  0.53
      P1  H  7997  8008       L1     5  0.62

> <Gold.Chemscore.Hbond.Weighted>
-8.5012

> <Gold.Chemscore.Metal.Weighted>
-0.0000

> <Gold.Chemscore.Lipo.Weighted>
-7.6608

> <Gold.Chemscore.Internal_Hbond.Weighted>
0.0000

> <Gold.Chemscore.DEClash.Weighted>
0.1770

> <Gold.Chemscore.DEInternal.Weighted>
1.5718

> <Gold.Chemscore.Rot.Weighted>
3.0979

> <Gold.Chemscore.Internal.Correction.Weighted>
   9.000000E+99

> <Gold.Protein.RotatedTorsions>
[ 6907 6896 6895 6894 ] final -138.09 input  -60.11 | X-H torsion
[ 7974 7965 7964 7962 ] final  -21.22 input  175.53 | X-H torsion
[ 8008 7997 7996 7995 ] final  -50.30 input   59.86 | X-H torsion
[ 10167 10162 10161 10158 ] final  135.43 input  -65.29 | X-H torsion
[ 10718 10713 10712 10709 ] final    8.94 input   66.30 | X-H torsion
[ 10763 10752 10751 10750 ] final  -86.06 input  -60.55 | X-H torsion
[ 11005 11000 10999 10996 ] final -158.10 input  -57.11 | X-H torsion

> <Gold.Protein.ActiveResidues>
 VAL166  LYS551  ARG553  GLY616  TRP617  ASP618  TYR619  PRO620  LYS621  CYS622 
 ASP623  PHE694  ASN695  SER759  ASP760  ASP761  ALA762  ILE779  LEU786  VAL792 
 PHE793  MET794  SER795  GLU796  ALA797  LYS798  CYS799  TRP800  GLU811  SER814 

> <Gold.Protein.RotatedAtoms>
  151.0307  133.5793  159.2660 H   0  0  0  0  0  0  0  0  0  0  0  0  # atno 6907 bound_to 6896
  151.2876  135.0731  159.9202 H   0  0  0  0  0  0  0  0  0  0  0  0  # atno 6908 bound_to 6896
  152.5344  134.0010  159.7949 H   0  0  0  0  0  0  0  0  0  0  0  0  # atno 6909 bound_to 6896
  146.1745  140.4311  142.8519 H   0  0  0  0  0  0  0  0  0  0  0  0  # atno 7974 bound_to 7965
  154.4059  140.1275  156.4643 H   0  0  0  0  0  0  0  0  0  0  0  0  # atno 8008 bound_to 7997
  155.7242  140.3492  155.5010 H   0  0  0  0  0  0  0  0  0  0  0  0  # atno 8009 bound_to 7997
  155.9187  140.1048  157.1214 H   0  0  0  0  0  0  0  0  0  0  0  0  # atno 8010 bound_to 7997
  139.5218  144.6517  151.5282 H   0  0  0  0  0  0  0  0  0  0  0  0  # atno 10167 bound_to 10162
  156.9590  130.5926  149.5661 H   0  0  0  0  0  0  0  0  0  0  0  0  # atno 10718 bound_to 10713
  154.6181  135.5463  153.7546 H   0  0  0  0  0  0  0  0  0  0  0  0  # atno 10763 bound_to 10752
  153.0226  135.6406  154.1480 H   0  0  0  0  0  0  0  0  0  0  0  0  # atno 10764 bound_to 10752
  154.1415  135.2908  155.3139 H   0  0  0  0  0  0  0  0  0  0  0  0  # atno 10765 bound_to 10752
  140.6573  134.4386  157.5235 H   0  0  0  0  0  0  0  0  0  0  0  0  # atno 11005 bound_to 11000
  144.8214  140.6556  143.6350 LP  0  0  0  0  0  0  0  0  0  0  0  0  # atno 17320 bound_to 7965
  145.4250  139.1558  143.4053 LP  0  0  0  0  0  0  0  0  0  0  0  0  # atno 17321 bound_to 7965
  140.6325  143.9048  150.6618 LP  0  0  0  0  0  0  0  0  0  0  0  0  # atno 17342 bound_to 10162
  140.2357  143.3702  152.1529 LP  0  0  0  0  0  0  0  0  0  0  0  0  # atno 17343 bound_to 10162
  156.0330  130.5420  150.8583 LP  0  0  0  0  0  0  0  0  0  0  0  0  # atno 17370 bound_to 10713
  157.5670  131.0946  150.9474 LP  0  0  0  0  0  0  0  0  0  0  0  0  # atno 17371 bound_to 10713
  139.9025  134.8524  156.1838 LP  0  0  0  0  0  0  0  0  0  0  0  0  # atno 17394 bound_to 11000
  141.0491  133.6898  156.1739 LP  0  0  0  0  0  0  0  0  0  0  0  0  # atno 17395 bound_to 11000

$$$$
