AV-unprocessed.smi:1207|AV-procd|sdf|5054|dock4
  -GOLD-   22720 4 83D 1   1.00000     0.00000
 Structure written by MMmdl.
 52 54  0  0  0  0  0  0  0  0  2 V2000
  152.9193  142.4869  161.8304 C   0  0  0  0  0  0  0  0  0  0  0  0
  152.3815  142.2206  160.4354 C   0  0  0  0  0  0  0  0  0  0  0  0
  152.8400  141.0870  159.7271 C   0  0  0  0  0  0  0  0  0  0  0  0
  152.3631  140.8022  158.4291 C   0  0  0  0  0  0  0  0  0  0  0  0
  152.6665  139.7617  157.5678 N   0  0  0  0  0  0  0  0  0  0  0  0
  151.8998  140.0481  156.5201 C   0  0  0  0  0  0  0  0  0  0  0  0
  151.1330  141.1524  156.6005 N   0  0  0  0  0  0  0  0  0  0  0  0
  150.2175  141.6551  155.5921 C   0  0  0  0  0  0  0  0  0  0  0  0
  149.5685  140.5249  154.7702 C   0  0  1  0  0  0  0  0  0  0  0  0
  150.5111  140.0054  153.8505 O   0  0  0  0  0  0  0  0  0  0  0  0
  149.0753  139.3745  155.6657 C   0  0  0  0  0  0  0  0  0  0  0  0
  148.3696  138.3309  154.8748 N   0  3  2  0  0  0  0  0  0  0  0  0
  147.2961  138.8901  154.0216 C   0  0  0  0  0  0  0  0  0  0  0  0
  147.8974  137.1798  155.6841 C   0  0  0  0  0  0  0  0  0  0  0  0
  149.0113  136.6033  156.5214 C   0  0  0  0  0  0  0  0  0  0  0  0
  149.0620  136.4600  157.9382 C   0  0  0  0  0  0  0  0  0  0  0  0
  148.0192  136.8315  158.9536 C   0  0  0  0  0  0  0  0  0  0  0  0
  150.2044  135.9294  158.3392 N   0  0  0  0  0  0  0  0  0  0  0  0
  150.9483  135.6964  157.1789 O   0  0  0  0  0  0  0  0  0  0  0  0
  150.2164  136.1021  156.1111 C   0  0  0  0  0  0  0  0  0  0  0  0
  150.8503  135.9436  154.7709 C   0  0  0  0  0  0  0  0  0  0  0  0
  151.4086  141.6907  157.8532 C   0  0  0  0  0  0  0  0  0  0  0  0
  150.9464  142.8231  158.5470 C   0  0  0  0  0  0  0  0  0  0  0  0
  151.4312  143.0914  159.8441 C   0  0  0  0  0  0  0  0  0  0  0  0
  150.9226  144.3141  160.5868 C   0  0  0  0  0  0  0  0  0  0  0  0
  153.6624  141.7431  162.1192 H   0  0  0  0  0  0  0  0  0  0  0  0
  152.1124  142.4556  162.5629 H   0  0  0  0  0  0  0  0  0  0  0  0
  153.3929  143.4678  161.8774 H   0  0  0  0  0  0  0  0  0  0  0  0
  153.5637  140.4234  160.1773 H   0  0  0  0  0  0  0  0  0  0  0  0
  151.8922  139.4169  155.6435 H   0  0  0  0  0  0  0  0  0  0  0  0
  149.4551  142.2599  156.0850 H   0  0  0  0  0  0  0  0  0  0  0  0
  150.7699  142.3281  154.9350 H   0  0  0  0  0  0  0  0  0  0  0  0
  148.7348  140.9385  154.2019 H   0  0  0  0  0  0  0  0  0  0  0  0
  150.1000  139.9306  153.0024 H   0  0  0  0  0  0  0  0  0  0  0  0
  149.9353  138.9570  156.1892 H   0  0  0  0  0  0  0  0  0  0  0  0
  148.4115  139.7504  156.4458 H   0  0  0  0  0  0  0  0  0  0  0  0
  146.4850  139.2941  154.6290 H   0  0  0  0  0  0  0  0  0  0  0  0
  146.8821  138.1207  153.3690 H   0  0  0  0  0  0  0  0  0  0  0  0
  147.6749  139.6889  153.3842 H   0  0  0  0  0  0  0  0  0  0  0  0
  147.0531  137.4974  156.2976 H   0  0  0  0  0  0  0  0  0  0  0  0
  147.5083  136.4106  155.0157 H   0  0  0  0  0  0  0  0  0  0  0  0
  147.7549  137.8860  158.8755 H   0  0  0  0  0  0  0  0  0  0  0  0
  148.3638  136.6531  159.9731 H   0  0  0  0  0  0  0  0  0  0  0  0
  147.1094  136.2495  158.8067 H   0  0  0  0  0  0  0  0  0  0  0  0
  150.1083  136.0134  153.9755 H   0  0  0  0  0  0  0  0  0  0  0  0
  151.3434  134.9748  154.6868 H   0  0  0  0  0  0  0  0  0  0  0  0
  151.5978  136.7196  154.6053 H   0  0  0  0  0  0  0  0  0  0  0  0
  150.2222  143.4781  158.0859 H   0  0  0  0  0  0  0  0  0  0  0  0
  150.1759  144.8526  160.0024 H   0  0  0  0  0  0  0  0  0  0  0  0
  151.7428  145.0006  160.7968 H   0  0  0  0  0  0  0  0  0  0  0  0
  150.4618  144.0241  161.5312 H   0  0  0  0  0  0  0  0  0  0  0  0
  149.0622  137.9498  154.2455 H   0  0  0  0  0  0  0  0  0  0  0  0
  1  2  1  0  0  0  0
  1 26  1  0  0  0  0
  1 27  1  0  0  0  0
  1 28  1  0  0  0  0
  2 24  1  0  0  0  0
  2  3  2  0  0  0  0
  3  4  1  0  0  0  0
  3 29  1  0  0  0  0
  4 22  2  0  0  0  0
  4  5  1  0  0  0  0
  5  6  2  0  0  0  0
  6  7  1  0  0  0  0
  6 30  1  0  0  0  0
  7  8  1  0  0  0  0
  7 22  1  0  0  0  0
  8  9  1  0  0  0  0
  8 31  1  0  0  0  0
  8 32  1  0  0  0  0
  9 10  1  0  0  0  0
  9 11  1  0  0  0  0
  9 33  1  0  0  0  0
 10 34  1  0  0  0  0
 11 12  1  0  0  0  0
 11 35  1  0  0  0  0
 11 36  1  0  0  0  0
 12 13  1  0  0  0  0
 12 14  1  0  0  0  0
 12 52  1  0  0  0  0
 13 37  1  0  0  0  0
 13 38  1  0  0  0  0
 13 39  1  0  0  0  0
 14 15  1  0  0  0  0
 14 40  1  0  0  0  0
 14 41  1  0  0  0  0
 15 20  2  0  0  0  0
 15 16  1  0  0  0  0
 16 17  1  0  0  0  0
 16 18  2  0  0  0  0
 17 42  1  0  0  0  0
 17 43  1  0  0  0  0
 17 44  1  0  0  0  0
 18 19  1  0  0  0  0
 19 20  1  0  0  0  0
 20 21  1  0  0  0  0
 21 45  1  0  0  0  0
 21 46  1  0  0  0  0
 21 47  1  0  0  0  0
 22 23  1  0  0  0  0
 23 24  2  0  0  0  0
 23 48  1  0  0  0  0
 24 25  1  0  0  0  0
 25 49  1  0  0  0  0
 25 50  1  0  0  0  0
 25 51  1  0  0  0  0
M  CHG  1  12   1
M  END
> <s_m_source_file>
AV-unprocessed.smi

> <i_m_source_file_index>
1207

> <i_lp_mmshare_version>
43012

> <i_f3d_flags>
0

> <s_epik_input>
W0NIM11jKFtjSF0xKWMoW0NIM10pW2NIXWMoYzEyKW4oW2NIXW4yKVtDSDJdW0NASF0oW09IXSlbQ0gyXU4oW0NIM10pW0NIMl1jM2MoW0NIM10pbm9jM1tDSDNd

> <s_epik_cmdline>
J2VwaWtfcHl0aG9uJywgJy1waCcsICc3LjAnLCAnLXRuJywgJzgnLCAnLW1hJywgJzIwMCcsICctbWV0YWxfYmluZGluZycsICctaW1hZScsICc8aW5maWxlLm1hZT4nLCAnLW9tYWUnLCAnPG91dGZpbGUubWFlPic=

> <r_epik_Ionization_Penalty>
0.646518

> <r_epik_Ionization_Penalty_Charging>
0.559419

> <r_epik_Ionization_Penalty_Neutral>
0.0870981

> <r_epik_State_Penalty>
0.661677

> <r_epik_Charging_Adjusted_Penalty>
1.2211

> <i_epik_Tot_Q>
1

> <i_epik_Tot_abs_Q>
1

> <r_epik_Metal_State_Penalty>
0.649158

> <b_epik_Metal_Only>
0

> <s_lp_Force_Field>
OPLS_2005

> <r_lp_Energy>
8.09598

> <b_lp_Chiralities_Consistent>
1

> <s_lp_Variant>
AV-unprocessed.smi:1207-6

> <Gold.Version>
5.8.1

> <Gold.Id.Protein>
6NUR|6NUR_protein|mol2

> <Gold.PLP.Fitness>
53.9112

> <Gold.PLP.PLP>
-42.5824

> <Gold.PLP.part.hbond>
-4.8840

> <Gold.PLP.part.metal>
0.0000

> <Gold.PLP.part.buried>
-5.5747

> <Gold.PLP.part.nonpolar>
-31.2453

> <Gold.PLP.part.repulsive>
0.0000

> <Gold.PLP.ligand.clash>
0.0000

> <Gold.PLP.ligand.torsion>
0.5182

> <Gold.PLP.Chemscore.Hbond>
4.0000

> <Gold.PLP.Chemscore.CHOScore>
0.0000

> <Gold.PLP.Chemscore.Metal>
0.0000

> <Gold.Chemscore.Hbonds>
donor molecule, donor type, donor heavy atom, donor atom, acceptor molecule, acceptor atom, score
      L1  H    10    34       P1  7957  1.00
      P1  H  6896  6909       L1    18  0.93
      P1  H  7989  7998       L1    10  0.72
      P1  H  7997  8009       L1     5  1.00

> <Gold.PLP.Chemscore.Internal.Correction>
0.3652

> <Gold.Rescore>
     Score         DG    S(hbond)    S(metal)    S(lipo)     H(rot)  DE(clash)    DE(int)     intcor
     20.83     -22.52       3.17        0.00     108.96       2.46       0.09       1.60       ----

> <Gold.Chemscore.Fitness>
20.8250

> <Gold.Chemscore.DG>
-22.5165

> <Gold.Chemscore.ZeroCoef>
-5.4800

> <Gold.Chemscore.Hbond>
3.1667

> <Gold.Chemscore.Metal>
0.0000

> <Gold.Chemscore.Lipo>
108.9612

> <Gold.Chemscore.Internal_Hbond>
0.0000

> <Gold.Chemscore.DEClash>
0.0876

> <Gold.Chemscore.DEInternal>
1.6039

> <Gold.Chemscore.Rot>
2.4565

> <Gold.Chemscore.Internal.Correction>
   9.000000E+99

> <Gold.Chemscore.Hbonds>
donor molecule, donor type, donor heavy atom, donor atom, acceptor molecule, acceptor atom, score
      L1  H    10    34       P1  7957  1.00
      P1  H  6896  6909       L1    18  0.58
      P1  H  7989  7998       L1    10  0.13
      P1  H  7997  8009       L1     5  0.18

> <Gold.Chemscore.Hbond.Weighted>
-10.5767

> <Gold.Chemscore.Metal.Weighted>
-0.0000

> <Gold.Chemscore.Lipo.Weighted>
-12.7485

> <Gold.Chemscore.Internal_Hbond.Weighted>
0.0000

> <Gold.Chemscore.DEClash.Weighted>
0.0876

> <Gold.Chemscore.DEInternal.Weighted>
1.6039

> <Gold.Chemscore.Rot.Weighted>
6.2887

> <Gold.Chemscore.Internal.Correction.Weighted>
   9.000000E+99

> <Gold.Protein.RotatedTorsions>
[ 6907 6896 6895 6894 ] final   66.38 input  -60.11 | X-H torsion
[ 7974 7965 7964 7962 ] final  -24.03 input  175.53 | X-H torsion
[ 8008 7997 7996 7995 ] final  170.08 input   59.86 | X-H torsion
[ 10167 10162 10161 10158 ] final   61.91 input  -65.29 | X-H torsion
[ 10718 10713 10712 10709 ] final  -26.60 input   66.30 | X-H torsion
[ 10763 10752 10751 10750 ] final   46.90 input  -60.55 | X-H torsion
[ 11005 11000 10999 10996 ] final   -3.96 input  -57.11 | X-H torsion

> <Gold.Protein.ActiveResidues>
 VAL166  LYS551  ARG553  GLY616  TRP617  ASP618  TYR619  PRO620  LYS621  CYS622 
 ASP623  PHE694  ASN695  SER759  ASP760  ASP761  ALA762  ILE779  LEU786  VAL792 
 PHE793  MET794  SER795  GLU796  ALA797  LYS798  CYS799  TRP800  GLU811  SER814 

> <Gold.Protein.RotatedAtoms>
  152.4477  134.5460  159.9852 H   0  0  0  0  0  0  0  0  0  0  0  0  # atno 6907 bound_to 6896
  151.5541  133.3407  159.2966 H   0  0  0  0  0  0  0  0  0  0  0  0  # atno 6908 bound_to 6896
  150.8397  134.7716  159.6985 H   0  0  0  0  0  0  0  0  0  0  0  0  # atno 6909 bound_to 6896
  146.1580  140.4697  142.8583 H   0  0  0  0  0  0  0  0  0  0  0  0  # atno 7974 bound_to 7965
  156.1398  140.1547  156.8938 H   0  0  0  0  0  0  0  0  0  0  0  0  # atno 8008 bound_to 7997
  154.4978  140.0833  156.7772 H   0  0  0  0  0  0  0  0  0  0  0  0  # atno 8009 bound_to 7997
  155.4100  140.3418  155.4265 H   0  0  0  0  0  0  0  0  0  0  0  0  # atno 8010 bound_to 7997
  140.1496  144.4475  150.6766 H   0  0  0  0  0  0  0  0  0  0  0  0  # atno 10167 bound_to 10162
  156.4490  130.4480  149.7002 H   0  0  0  0  0  0  0  0  0  0  0  0  # atno 10718 bound_to 10713
  152.9805  135.5993  154.3676 H   0  0  0  0  0  0  0  0  0  0  0  0  # atno 10763 bound_to 10752
  154.3352  135.2768  155.2453 H   0  0  0  0  0  0  0  0  0  0  0  0  # atno 10764 bound_to 10752
  154.4559  135.5978  153.6278 H   0  0  0  0  0  0  0  0  0  0  0  0  # atno 10765 bound_to 10752
  140.6751  133.9202  155.8519 H   0  0  0  0  0  0  0  0  0  0  0  0  # atno 11005 bound_to 11000
  144.7988  140.6174  143.6492 LP  0  0  0  0  0  0  0  0  0  0  0  0  # atno 17320 bound_to 7965
  145.4661  139.1508  143.3840 LP  0  0  0  0  0  0  0  0  0  0  0  0  # atno 17321 bound_to 7965
  140.6710  143.2286  151.5624 LP  0  0  0  0  0  0  0  0  0  0  0  0  # atno 17342 bound_to 10162
  139.5432  144.2591  152.1392 LP  0  0  0  0  0  0  0  0  0  0  0  0  # atno 17343 bound_to 10162
  156.3836  130.7591  151.2586 LP  0  0  0  0  0  0  0  0  0  0  0  0  # atno 17370 bound_to 10713
  157.7503  131.0288  150.4066 LP  0  0  0  0  0  0  0  0  0  0  0  0  # atno 17371 bound_to 10713
  141.0362  134.0687  157.3957 LP  0  0  0  0  0  0  0  0  0  0  0  0  # atno 17394 bound_to 11000
  139.8969  135.0148  156.7075 LP  0  0  0  0  0  0  0  0  0  0  0  0  # atno 17395 bound_to 11000

$$$$
