AV-unprocessed.smi:1060|AV-procd|sdf|4656|dock7
  -GOLD-   22720 3163D 1   1.00000     0.00000
 Structure written by MMmdl.
 37 38  0  0  0  0  0  0  0  0  1 V2000
  145.5920  134.0703  155.4820 O   0  0  0  0  0  0  0  0  0  0  0  0
  144.5637  134.7432  155.5510 C   0  0  0  0  0  0  0  0  0  0  0  0
  143.9370  135.0416  156.9145 C   0  0  0  0  0  0  0  0  0  0  0  0
  143.4390  133.8414  157.4853 O   0  0  0  0  0  0  0  0  0  0  0  0
  144.4498  132.8685  157.6859 C   0  0  0  0  0  0  0  0  0  0  0  0
  143.9510  131.8399  158.7082 C   0  0  2  0  0  0  0  0  0  0  0  0
  142.6463  131.1564  158.3092 C   0  0  0  0  0  0  0  0  0  0  0  0
  142.0914  130.6763  159.6392 C   0  0  0  0  0  0  0  0  0  0  0  0
  142.7883  131.5669  160.6729 C   0  0  0  0  0  0  0  0  0  0  0  0
  143.5845  132.4757  159.9224 O   0  0  0  0  0  0  0  0  0  0  0  0
  143.9105  135.2781  154.5007 N   0  0  0  0  0  0  0  0  0  0  0  0
  144.1919  135.1912  153.1260 C   0  0  0  0  0  0  0  0  0  0  0  0
  144.4758  134.0431  152.4560 C   0  0  0  0  0  0  0  0  0  0  0  0
  144.7474  134.0292  151.0284 C   0  0  0  0  0  0  0  0  0  0  0  0
  145.1454  132.7504  150.3074 C   0  0  0  0  0  0  0  0  0  0  0  0
  144.3434  132.5515  149.2625 F   0  0  0  0  0  0  0  0  0  0  0  0
  146.4005  132.8152  149.8614 F   0  0  0  0  0  0  0  0  0  0  0  0
  145.0428  131.6952  151.1152 F   0  0  0  0  0  0  0  0  0  0  0  0
  144.7106  135.2178  150.3986 C   0  0  0  0  0  0  0  0  0  0  0  0
  144.3990  136.3992  151.0747 N   0  0  0  0  0  0  0  0  0  0  0  0
  144.1362  136.4705  152.3987 C   0  0  0  0  0  0  0  0  0  0  0  0
  143.8720  137.5529  152.9214 O   0  0  0  0  0  0  0  0  0  0  0  0
  144.3763  137.2481  150.5283 H   0  0  0  0  0  0  0  0  0  0  0  0
  144.6885  135.4861  157.5694 H   0  0  0  0  0  0  0  0  0  0  0  0
  143.1303  135.7648  156.7863 H   0  0  0  0  0  0  0  0  0  0  0  0
  144.7156  132.3801  156.7470 H   0  0  0  0  0  0  0  0  0  0  0  0
  145.3459  133.3609  158.0667 H   0  0  0  0  0  0  0  0  0  0  0  0
  144.7173  131.0873  158.9037 H   0  0  0  0  0  0  0  0  0  0  0  0
  141.9617  131.8816  157.8671 H   0  0  0  0  0  0  0  0  0  0  0  0
  142.7923  130.3484  157.5917 H   0  0  0  0  0  0  0  0  0  0  0  0
  141.0059  130.7694  159.6776 H   0  0  0  0  0  0  0  0  0  0  0  0
  142.3458  129.6299  159.8121 H   0  0  0  0  0  0  0  0  0  0  0  0
  142.0800  132.1077  161.3007 H   0  0  0  0  0  0  0  0  0  0  0  0
  143.4312  130.9709  161.3216 H   0  0  0  0  0  0  0  0  0  0  0  0
  143.1106  135.8525  154.7253 H   0  0  0  0  0  0  0  0  0  0  0  0
  144.4921  133.0912  152.9598 H   0  0  0  0  0  0  0  0  0  0  0  0
  144.9200  135.3566  149.3482 H   0  0  0  0  0  0  0  0  0  0  0  0
  1  2  2  0  0  0  0
  2  3  1  0  0  0  0
  2 11  1  0  0  0  0
  3  4  1  0  0  0  0
  3 24  1  0  0  0  0
  3 25  1  0  0  0  0
  4  5  1  0  0  0  0
  5  6  1  0  0  0  0
  5 26  1  0  0  0  0
  5 27  1  0  0  0  0
  6 10  1  0  0  0  0
  6  7  1  0  0  0  0
  6 28  1  0  0  0  0
  7  8  1  0  0  0  0
  7 29  1  0  0  0  0
  7 30  1  0  0  0  0
  8  9  1  0  0  0  0
  8 31  1  0  0  0  0
  8 32  1  0  0  0  0
  9 10  1  0  0  0  0
  9 33  1  0  0  0  0
  9 34  1  0  0  0  0
 11 12  1  0  0  0  0
 11 35  1  0  0  0  0
 12 21  1  0  0  0  0
 12 13  2  0  0  0  0
 13 14  1  0  0  0  0
 13 36  1  0  0  0  0
 14 15  1  0  0  0  0
 14 19  2  0  0  0  0
 15 16  1  0  0  0  0
 15 17  1  0  0  0  0
 15 18  1  0  0  0  0
 19 20  1  0  0  0  0
 19 37  1  0  0  0  0
 20 23  1  0  0  0  0
 20 21  1  0  0  0  0
 21 22  2  0  0  0  0
M  END
> <s_m_source_file>
AV-unprocessed.smi

> <i_m_source_file_index>
1060

> <i_lp_mmshare_version>
43012

> <i_f3d_flags>
0

> <s_epik_input>
Tz1jMVtuSF1bY0hdYyhDKEYpKEYpRilbY0hdYzFbTkhdQyg9TylbQ0gyXU9bQ0gyXVtDQEBIXTJbQ0gyXVtDSDJdW0NIMl1PMg==

> <s_epik_cmdline>
J2VwaWtfcHl0aG9uJywgJy1waCcsICc3LjAnLCAnLXRuJywgJzgnLCAnLW1hJywgJzIwMCcsICctbWV0YWxfYmluZGluZycsICctaW1hZScsICc8aW5maWxlLm1hZT4nLCAnLW9tYWUnLCAnPG91dGZpbGUubWFlPic=

> <r_lp_tautomer_probability>
0.999

> <r_epik_Ionization_Penalty>
0.00950091

> <r_epik_Ionization_Penalty_Charging>
0.00950081

> <r_epik_Ionization_Penalty_Neutral>
1.00143e-07

> <r_epik_State_Penalty>
0.00721819

> <r_epik_Charging_Adjusted_Penalty>
0.016719

> <i_epik_Tot_Q>
0

> <i_epik_Tot_abs_Q>
0

> <r_epik_Metal_State_Penalty>
0.323303

> <b_epik_Metal_Only>
0

> <s_lp_Force_Field>
OPLS_2005

> <r_lp_Energy>
32.1997

> <b_lp_Chiralities_Consistent>
1

> <s_lp_Variant>
AV-unprocessed.smi:1060-1

> <Gold.Version>
5.8.1

> <Gold.Id.Protein>
6NUR|6NUR_protein|mol2

> <Gold.PLP.Fitness>
43.2761

> <Gold.PLP.PLP>
-35.4039

> <Gold.PLP.part.hbond>
-2.0000

> <Gold.PLP.part.metal>
0.0000

> <Gold.PLP.part.buried>
-6.3017

> <Gold.PLP.part.nonpolar>
-28.1892

> <Gold.PLP.part.repulsive>
0.9515

> <Gold.PLP.ligand.clash>
0.0000

> <Gold.PLP.ligand.torsion>
0.6270

> <Gold.PLP.Chemscore.Hbond>
2.0000

> <Gold.PLP.Chemscore.CHOScore>
1.0000

> <Gold.PLP.Chemscore.Metal>
0.0000

> <Gold.Chemscore.Hbonds>
donor molecule, donor type, donor heavy atom, donor atom, acceptor molecule, acceptor atom, score
      L1  H    20    23       P1 10171  1.00
      P1  H 11000 11005       L1     4  0.37
      L1  C    19    37       P1  7921  1.00

> <Gold.PLP.Chemscore.Internal.Correction>
0.1263

> <Gold.Rescore>
     Score         DG    S(hbond)    S(metal)    S(lipo)     H(rot)  DE(clash)    DE(int)     intcor
     11.27     -13.14       1.90        0.00      54.01       1.95       0.60       1.27       ----

> <Gold.Chemscore.Fitness>
11.2658

> <Gold.Chemscore.DG>
-13.1376

> <Gold.Chemscore.ZeroCoef>
-5.4800

> <Gold.Chemscore.Hbond>
1.8975

> <Gold.Chemscore.Metal>
0.0000

> <Gold.Chemscore.Lipo>
54.0095

> <Gold.Chemscore.Internal_Hbond>
0.0000

> <Gold.Chemscore.DEClash>
0.6019

> <Gold.Chemscore.DEInternal>
1.2700

> <Gold.Chemscore.Rot>
1.9527

> <Gold.Chemscore.Internal.Correction>
   9.000000E+99

> <Gold.Chemscore.Hbonds>
donor molecule, donor type, donor heavy atom, donor atom, acceptor molecule, acceptor atom, score
      L1  H    20    23       P1 10171  0.98
      P1  H 11000 11005       L1     4  0.20

> <Gold.Chemscore.Hbond.Weighted>
-6.3375

> <Gold.Chemscore.Metal.Weighted>
-0.0000

> <Gold.Chemscore.Lipo.Weighted>
-6.3191

> <Gold.Chemscore.Internal_Hbond.Weighted>
0.0000

> <Gold.Chemscore.DEClash.Weighted>
0.6019

> <Gold.Chemscore.DEInternal.Weighted>
1.2700

> <Gold.Chemscore.Rot.Weighted>
4.9990

> <Gold.Chemscore.Internal.Correction.Weighted>
   9.000000E+99

> <Gold.Protein.RotatedTorsions>
[ 6907 6896 6895 6894 ] final -176.00 input  -60.11 | X-H torsion
[ 7974 7965 7964 7962 ] final -145.26 input  175.53 | X-H torsion
[ 8008 7997 7996 7995 ] final -136.42 input   59.86 | X-H torsion
[ 10167 10162 10161 10158 ] final -109.32 input  -65.29 | X-H torsion
[ 10718 10713 10712 10709 ] final  -24.15 input   66.30 | X-H torsion
[ 10763 10752 10751 10750 ] final   32.93 input  -60.55 | X-H torsion
[ 11005 11000 10999 10996 ] final -103.97 input  -57.11 | X-H torsion

> <Gold.Protein.ActiveResidues>
 VAL166  LYS551  ARG553  GLY616  TRP617  ASP618  TYR619  PRO620  LYS621  CYS622 
 ASP623  PHE694  ASN695  SER759  ASP760  ASP761  ALA762  ILE779  LEU786  VAL792 
 PHE793  MET794  SER795  GLU796  ALA797  LYS798  CYS799  TRP800  GLU811  SER814 

> <Gold.Protein.RotatedAtoms>
  151.5976  133.3360  159.3040 H   0  0  0  0  0  0  0  0  0  0  0  0  # atno 6907 bound_to 6896
  150.8225  134.7444  159.6796 H   0  0  0  0  0  0  0  0  0  0  0  0  # atno 6908 bound_to 6896
  152.4318  134.5769  159.9988 H   0  0  0  0  0  0  0  0  0  0  0  0  # atno 6909 bound_to 6896
  144.8239  140.5606  143.5560 H   0  0  0  0  0  0  0  0  0  0  0  0  # atno 7974 bound_to 7965
  155.3949  140.0502  157.3039 H   0  0  0  0  0  0  0  0  0  0  0  0  # atno 8008 bound_to 7997
  154.5018  140.2159  155.9292 H   0  0  0  0  0  0  0  0  0  0  0  0  # atno 8009 bound_to 7997
  156.1477  140.3142  155.8602 H   0  0  0  0  0  0  0  0  0  0  0  0  # atno 8010 bound_to 7997
  140.1565  143.4155  152.1456 H   0  0  0  0  0  0  0  0  0  0  0  0  # atno 10167 bound_to 10162
  156.4815  130.4546  149.6809 H   0  0  0  0  0  0  0  0  0  0  0  0  # atno 10718 bound_to 10713
  153.0237  135.6400  154.1432 H   0  0  0  0  0  0  0  0  0  0  0  0  # atno 10763 bound_to 10752
  154.1163  135.2849  155.3220 H   0  0  0  0  0  0  0  0  0  0  0  0  # atno 10764 bound_to 10752
  154.6295  135.5497  153.7727 H   0  0  0  0  0  0  0  0  0  0  0  0  # atno 10765 bound_to 10752
  141.1122  133.8684  157.1552 H   0  0  0  0  0  0  0  0  0  0  0  0  # atno 11005 bound_to 11000
  145.5043  139.1482  143.3640 LP  0  0  0  0  0  0  0  0  0  0  0  0  # atno 17320 bound_to 7965
  146.2545  140.5183  142.8879 LP  0  0  0  0  0  0  0  0  0  0  0  0  # atno 17321 bound_to 7965
  139.5401  144.7248  151.4763 LP  0  0  0  0  0  0  0  0  0  0  0  0  # atno 17342 bound_to 10162
  140.6670  143.8377  150.6953 LP  0  0  0  0  0  0  0  0  0  0  0  0  # atno 17343 bound_to 10162
  156.3517  130.7435  151.2396 LP  0  0  0  0  0  0  0  0  0  0  0  0  # atno 17370 bound_to 10713
  157.7483  131.0375  150.4460 LP  0  0  0  0  0  0  0  0  0  0  0  0  # atno 17371 bound_to 10713
  140.0022  135.0023  157.0215 LP  0  0  0  0  0  0  0  0  0  0  0  0  # atno 17394 bound_to 11000
  140.4745  134.1353  155.7208 LP  0  0  0  0  0  0  0  0  0  0  0  0  # atno 17395 bound_to 11000

$$$$
