AV-unprocessed.smi:1817|AV-procd|sdf|7377|dock8
  -GOLD-   22720 9 43D 1   1.00000     0.00000
 Structure written by MMmdl.
 42 43  0  0  0  0  0  0  0  0  3 V2000
  144.0934  132.0843  150.1596 C   0  0  0  0  0  0  0  0  0  0  0  0
  144.0556  133.3702  150.9985 C   0  0  0  0  0  0  0  0  0  0  0  0
  145.1817  134.2567  150.6953 N   0  0  0  0  0  0  0  0  0  0  0  0
  145.2051  135.5103  151.4576 C   0  0  0  0  0  0  0  0  0  0  0  0
  145.5356  135.2835  152.9479 C   0  0  0  0  0  0  0  0  0  0  0  0
  146.8400  134.5900  153.0837 N   0  3  0  0  0  0  0  0  0  0  0  0
  147.3323  134.5007  154.4884 C   0  0  1  0  0  0  0  0  0  0  0  0
  146.4120  133.6630  155.4030 C   0  0  0  0  0  0  0  0  0  0  0  0
  148.8010  134.0188  154.5163 C   0  0  0  0  0  0  0  0  0  0  0  0
  149.7516  135.1110  154.3350 N   0  0  0  0  0  0  0  0  0  0  0  0
  150.6547  135.5182  155.2380 C   0  0  0  0  0  0  0  0  0  0  0  0
  150.7110  134.9688  156.3406 O   0  0  0  0  0  0  0  0  0  0  0  0
  151.4393  136.5297  154.8047 N   0  5  0  0  0  0  0  0  0  0  0  0
  150.9544  137.7817  154.7562 C   0  0  0  0  0  0  0  0  0  0  0  0
  151.7548  138.8581  154.6978 N   0  0  0  0  0  0  0  0  0  0  0  0
  151.0557  140.0566  154.6538 N   0  0  0  0  0  0  0  0  0  0  0  0
  149.7389  139.8520  154.6711 C   0  0  0  0  0  0  0  0  0  0  0  0
  149.2335  138.1768  154.7394 S   0  0  0  0  0  0  0  0  0  0  0  0
  146.8288  133.3162  152.3192 C   0  0  0  0  0  0  0  0  0  0  0  0
  146.4771  133.5864  150.8411 C   0  0  0  0  0  0  0  0  0  0  0  0
  143.3271  131.3870  150.4985 H   0  0  0  0  0  0  0  0  0  0  0  0
  145.0569  131.5812  150.2476 H   0  0  0  0  0  0  0  0  0  0  0  0
  143.9061  132.2777  149.1037 H   0  0  0  0  0  0  0  0  0  0  0  0
  143.0989  133.8755  150.8702 H   0  0  0  0  0  0  0  0  0  0  0  0
  144.1154  133.0855  152.0495 H   0  0  0  0  0  0  0  0  0  0  0  0
  145.9601  136.1634  151.0179 H   0  0  0  0  0  0  0  0  0  0  0  0
  144.2591  136.0406  151.3549 H   0  0  0  0  0  0  0  0  0  0  0  0
  145.5840  136.2519  153.4467 H   0  0  0  0  0  0  0  0  0  0  0  0
  144.7463  134.7185  153.4439 H   0  0  0  0  0  0  0  0  0  0  0  0
  147.3311  135.5187  154.8807 H   0  0  0  0  0  0  0  0  0  0  0  0
  146.7139  133.7507  156.4471 H   0  0  0  0  0  0  0  0  0  0  0  0
  146.4427  132.6036  155.1482 H   0  0  0  0  0  0  0  0  0  0  0  0
  145.3754  133.9938  155.3454 H   0  0  0  0  0  0  0  0  0  0  0  0
  149.0320  133.5477  155.4712 H   0  0  0  0  0  0  0  0  0  0  0  0
  148.9687  133.2591  153.7508 H   0  0  0  0  0  0  0  0  0  0  0  0
  149.7357  135.5912  153.4468 H   0  0  0  0  0  0  0  0  0  0  0  0
  149.0611  140.6919  154.6399 H   0  0  0  0  0  0  0  0  0  0  0  0
  147.8094  132.8441  152.3678 H   0  0  0  0  0  0  0  0  0  0  0  0
  146.1209  132.6103  152.7540 H   0  0  0  0  0  0  0  0  0  0  0  0
  146.4755  132.6543  150.2749 H   0  0  0  0  0  0  0  0  0  0  0  0
  147.2476  134.2149  150.3923 H   0  0  0  0  0  0  0  0  0  0  0  0
  147.5031  135.1893  152.6133 H   0  0  0  0  0  0  0  0  0  0  0  0
  1  2  1  0  0  0  0
  1 21  1  0  0  0  0
  1 22  1  0  0  0  0
  1 23  1  0  0  0  0
  2  3  1  0  0  0  0
  2 24  1  0  0  0  0
  2 25  1  0  0  0  0
  3 20  1  0  0  0  0
  3  4  1  0  0  0  0
  4  5  1  0  0  0  0
  4 26  1  0  0  0  0
  4 27  1  0  0  0  0
  5  6  1  0  0  0  0
  5 28  1  0  0  0  0
  5 29  1  0  0  0  0
  6  7  1  0  0  0  0
  6 19  1  0  0  0  0
  6 42  1  0  0  0  0
  7  8  1  0  0  0  0
  7  9  1  0  0  0  0
  7 30  1  0  0  0  0
  8 31  1  0  0  0  0
  8 32  1  0  0  0  0
  8 33  1  0  0  0  0
  9 10  1  0  0  0  0
  9 34  1  0  0  0  0
  9 35  1  0  0  0  0
 10 11  1  0  0  0  0
 10 36  1  0  0  0  0
 11 12  2  0  0  0  0
 11 13  1  0  0  0  0
 13 14  1  0  0  0  0
 14 18  1  0  0  0  0
 14 15  2  0  0  0  0
 15 16  1  0  0  0  0
 16 17  2  0  0  0  0
 17 18  1  0  0  0  0
 17 37  1  0  0  0  0
 19 20  1  0  0  0  0
 19 38  1  0  0  0  0
 19 39  1  0  0  0  0
 20 40  1  0  0  0  0
 20 41  1  0  0  0  0
M  CHG  1   6   1
M  CHG  1  13  -1
M  END
> <s_m_source_file>
AV-unprocessed.smi

> <i_m_source_file_index>
1817

> <i_lp_mmshare_version>
43012

> <i_f3d_flags>
0

> <s_epik_input>
W0NIM11bQ0gyXU4xW0NIMl1bQ0gyXU4oW0NIMl1bQ0gyXTEpW0NASF0oW0NIM10pW0NIMl1bTkhdQyg9TylbTkhdYzJubltjSF1zMg==

> <s_epik_cmdline>
J2VwaWtfcHl0aG9uJywgJy1waCcsICc3LjAnLCAnLXRuJywgJzgnLCAnLW1hJywgJzIwMCcsICctbWV0YWxfYmluZGluZycsICctaW1hZScsICc8aW5maWxlLm1hZT4nLCAnLW9tYWUnLCAnPG91dGZpbGUubWFlPic=

> <r_epik_Ionization_Penalty>
3.16835

> <r_epik_Ionization_Penalty_Charging>
3.13468

> <r_epik_Ionization_Penalty_Neutral>
0.0336711

> <r_epik_State_Penalty>
3.95884

> <r_epik_Charging_Adjusted_Penalty>
7.09351

> <i_epik_Tot_Q>
0

> <i_epik_Tot_abs_Q>
2

> <r_epik_Metal_State_Penalty>
1.39003

> <b_epik_Metal_Only>
1

> <s_lp_Force_Field>
OPLS_2005

> <r_lp_Energy>
12.939

> <b_lp_Chiralities_Consistent>
1

> <s_lp_Variant>
AV-unprocessed.smi:1817-10

> <Gold.Version>
5.8.1

> <Gold.Id.Protein>
6NUR|6NUR_protein|mol2

> <Gold.PLP.Fitness>
46.0488

> <Gold.PLP.PLP>
-31.7597

> <Gold.PLP.part.hbond>
-4.4028

> <Gold.PLP.part.metal>
0.0000

> <Gold.PLP.part.buried>
-6.5861

> <Gold.PLP.part.nonpolar>
-22.2375

> <Gold.PLP.part.repulsive>
0.5415

> <Gold.PLP.ligand.clash>
0.0000

> <Gold.PLP.ligand.torsion>
1.1902

> <Gold.PLP.Chemscore.Hbond>
5.5000

> <Gold.PLP.Chemscore.CHOScore>
0.0000

> <Gold.PLP.Chemscore.Metal>
0.0000

> <Gold.Chemscore.Hbonds>
donor molecule, donor type, donor heavy atom, donor atom, acceptor molecule, acceptor atom, score
      L1  H     6    42       P1  7948  2.00
      L1  H    10    36       P1  7948  0.55
      P1  H  7989  7998       L1    16  0.99
      P1  H 10752 10765       L1    13  2.00

> <Gold.PLP.Chemscore.Internal.Correction>
0.1695

> <Gold.Rescore>
     Score         DG    S(hbond)    S(metal)    S(lipo)     H(rot)  DE(clash)    DE(int)     intcor
     15.79     -17.05       2.83        0.00      59.20       1.88       0.01       1.24       ----

> <Gold.Chemscore.Fitness>
15.7932

> <Gold.Chemscore.DG>
-17.0479

> <Gold.Chemscore.ZeroCoef>
-5.4800

> <Gold.Chemscore.Hbond>
2.8326

> <Gold.Chemscore.Metal>
0.0000

> <Gold.Chemscore.Lipo>
59.1970

> <Gold.Chemscore.Internal_Hbond>
0.0000

> <Gold.Chemscore.DEClash>
0.0125

> <Gold.Chemscore.DEInternal>
1.2422

> <Gold.Chemscore.Rot>
1.8825

> <Gold.Chemscore.Internal.Correction>
   9.000000E+99

> <Gold.Chemscore.Hbonds>
donor molecule, donor type, donor heavy atom, donor atom, acceptor molecule, acceptor atom, score
      L1  H     6    42       P1  7948  1.00
      L1  H    10    36       P1  7948  0.03
      P1  H  7989  7998       L1    16  0.53
      P1  H 10752 10765       L1    13  0.26

> <Gold.Chemscore.Hbond.Weighted>
-9.4610

> <Gold.Chemscore.Metal.Weighted>
-0.0000

> <Gold.Chemscore.Lipo.Weighted>
-6.9260

> <Gold.Chemscore.Internal_Hbond.Weighted>
0.0000

> <Gold.Chemscore.DEClash.Weighted>
0.0125

> <Gold.Chemscore.DEInternal.Weighted>
1.2422

> <Gold.Chemscore.Rot.Weighted>
4.8191

> <Gold.Chemscore.Internal.Correction.Weighted>
   9.000000E+99

> <Gold.Protein.RotatedTorsions>
[ 6907 6896 6895 6894 ] final -127.56 input  -60.11 | X-H torsion
[ 7974 7965 7964 7962 ] final   47.45 input  175.53 | X-H torsion
[ 8008 7997 7996 7995 ] final   57.47 input   59.86 | X-H torsion
[ 10167 10162 10161 10158 ] final  176.68 input  -65.29 | X-H torsion
[ 10718 10713 10712 10709 ] final  -10.04 input   66.30 | X-H torsion
[ 10763 10752 10751 10750 ] final  170.93 input  -60.55 | X-H torsion
[ 11005 11000 10999 10996 ] final  -75.33 input  -57.11 | X-H torsion

> <Gold.Protein.ActiveResidues>
 VAL166  LYS551  ARG553  GLY616  TRP617  ASP618  TYR619  PRO620  LYS621  CYS622 
 ASP623  PHE694  ASN695  SER759  ASP760  ASP761  ALA762  ILE779  LEU786  VAL792 
 PHE793  MET794  SER795  GLU796  ALA797  LYS798  CYS799  TRP800  GLU811  SER814 

> <Gold.Protein.RotatedAtoms>
  150.9086  133.7026  159.2860 H   0  0  0  0  0  0  0  0  0  0  0  0  # atno 6907 bound_to 6896
  151.4520  135.1029  159.9710 H   0  0  0  0  0  0  0  0  0  0  0  0  # atno 6908 bound_to 6896
  152.4917  133.8470  159.7237 H   0  0  0  0  0  0  0  0  0  0  0  0  # atno 6909 bound_to 6896
  146.0297  139.4748  142.9845 H   0  0  0  0  0  0  0  0  0  0  0  0  # atno 7974 bound_to 7965
  155.5343  140.3483  155.4433 H   0  0  0  0  0  0  0  0  0  0  0  0  # atno 8008 bound_to 7997
  156.0696  140.1360  156.9871 H   0  0  0  0  0  0  0  0  0  0  0  0  # atno 8009 bound_to 7997
  154.4521  140.0968  156.6624 H   0  0  0  0  0  0  0  0  0  0  0  0  # atno 8010 bound_to 7997
  139.5223  144.2887  152.0482 H   0  0  0  0  0  0  0  0  0  0  0  0  # atno 10167 bound_to 10162
  156.6793  130.5032  149.5976 H   0  0  0  0  0  0  0  0  0  0  0  0  # atno 10718 bound_to 10713
  154.4046  135.2755  155.2075 H   0  0  0  0  0  0  0  0  0  0  0  0  # atno 10763 bound_to 10752
  154.4086  135.6027  153.5943 H   0  0  0  0  0  0  0  0  0  0  0  0  # atno 10764 bound_to 10752
  152.9831  135.5944  154.4319 H   0  0  0  0  0  0  0  0  0  0  0  0  # atno 10765 bound_to 10752
  141.1644  133.6943  156.7500 H   0  0  0  0  0  0  0  0  0  0  0  0  # atno 11005 bound_to 11000
  145.7061  141.0121  143.1478 LP  0  0  0  0  0  0  0  0  0  0  0  0  # atno 17320 bound_to 7965
  144.7025  139.8702  143.7440 LP  0  0  0  0  0  0  0  0  0  0  0  0  # atno 17321 bound_to 7965
  140.2339  144.4339  150.6288 LP  0  0  0  0  0  0  0  0  0  0  0  0  # atno 17342 bound_to 10162
  140.6336  143.2191  151.6442 LP  0  0  0  0  0  0  0  0  0  0  0  0  # atno 17343 bound_to 10162
  156.1880  130.6541  151.1028 LP  0  0  0  0  0  0  0  0  0  0  0  0  # atno 17370 bound_to 10713
  157.7049  131.0760  150.6699 LP  0  0  0  0  0  0  0  0  0  0  0  0  # atno 17371 bound_to 10713
  140.2611  134.8466  157.3759 LP  0  0  0  0  0  0  0  0  0  0  0  0  # atno 17394 bound_to 11000
  140.1610  134.4728  155.7894 LP  0  0  0  0  0  0  0  0  0  0  0  0  # atno 17395 bound_to 11000

$$$$
