AV-unprocessed.smi:949|AV-procd|sdf|4249|dock10
  -GOLD-   22720 2153D 1   1.00000     0.00000
 Structure written by MMmdl.
 32 33  0  0  0  0  0  0  0  0  1 V2000
  153.2063  139.6578  159.4849 C   0  0  0  0  0  0  0  0  0  0  0  0
  152.0857  140.4406  158.7751 C   0  0  1  0  0  0  0  0  0  0  0  0
  152.5442  141.7829  158.4366 N   0  0  0  0  0  0  0  0  0  0  0  0
  152.1101  142.9348  159.1167 C   0  0  0  0  0  0  0  0  0  0  0  0
  152.5251  143.2504  160.4325 C   0  0  0  0  0  0  0  0  0  0  0  0
  152.0372  144.4253  161.0376 C   0  0  0  0  0  0  0  0  0  0  0  0
  151.1869  145.2771  160.4295 N   0  0  0  0  0  0  0  0  0  0  0  0
  150.7904  144.9776  159.1756 C   0  0  0  0  0  0  0  0  0  0  0  0
  151.2171  143.8291  158.4759 C   0  0  0  0  0  0  0  0  0  0  0  0
  150.7523  143.6027  157.1778 N   0  0  0  0  0  0  0  0  0  0  0  0
  151.6133  139.7206  157.4971 C   0  0  1  0  0  0  0  0  0  0  0  0
  150.5594  140.4759  156.6851 C   0  0  0  0  0  0  0  0  0  0  0  0
  150.7433  139.9444  155.2723 C   0  0  0  0  0  0  0  0  0  0  0  0
  152.1163  139.2684  155.3055 C   0  0  0  0  0  0  0  0  0  0  0  0
  152.6764  139.6280  156.5604 O   0  0  0  0  0  0  0  0  0  0  0  0
  152.8649  138.6719  159.7999 H   0  0  0  0  0  0  0  0  0  0  0  0
  153.5567  140.1743  160.3782 H   0  0  0  0  0  0  0  0  0  0  0  0
  154.0659  139.5176  158.8286 H   0  0  0  0  0  0  0  0  0  0  0  0
  151.2276  140.5178  159.4431 H   0  0  0  0  0  0  0  0  0  0  0  0
  153.1069  141.8941  157.6057 H   0  0  0  0  0  0  0  0  0  0  0  0
  153.2043  142.6216  160.9867 H   0  0  0  0  0  0  0  0  0  0  0  0
  152.3398  144.6877  162.0405 H   0  0  0  0  0  0  0  0  0  0  0  0
  150.1095  145.6794  158.7160 H   0  0  0  0  0  0  0  0  0  0  0  0
  151.0384  142.7903  156.6500 H   0  0  0  0  0  0  0  0  0  0  0  0
  150.1672  144.2745  156.7027 H   0  0  0  0  0  0  0  0  0  0  0  0
  151.2536  138.7159  157.7297 H   0  0  0  0  0  0  0  0  0  0  0  0
  149.5476  140.3258  157.0628 H   0  0  0  0  0  0  0  0  0  0  0  0
  150.7689  141.5464  156.7008 H   0  0  0  0  0  0  0  0  0  0  0  0
  149.9676  139.2228  155.0139 H   0  0  0  0  0  0  0  0  0  0  0  0
  150.7067  140.7536  154.5422 H   0  0  0  0  0  0  0  0  0  0  0  0
  152.0111  138.1837  155.2564 H   0  0  0  0  0  0  0  0  0  0  0  0
  152.7599  139.5855  154.4850 H   0  0  0  0  0  0  0  0  0  0  0  0
  1  2  1  0  0  0  0
  1 16  1  0  0  0  0
  1 17  1  0  0  0  0
  1 18  1  0  0  0  0
  2  3  1  0  0  0  0
  2 11  1  0  0  0  0
  2 19  1  0  0  0  0
  3  4  1  0  0  0  0
  3 20  1  0  0  0  0
  4  9  1  0  0  0  0
  4  5  2  0  0  0  0
  5  6  1  0  0  0  0
  5 21  1  0  0  0  0
  6  7  2  0  0  0  0
  6 22  1  0  0  0  0
  7  8  1  0  0  0  0
  8  9  2  0  0  0  0
  8 23  1  0  0  0  0
  9 10  1  0  0  0  0
 10 24  1  0  0  0  0
 10 25  1  0  0  0  0
 11 15  1  0  0  0  0
 11 12  1  0  0  0  0
 11 26  1  0  0  0  0
 12 13  1  0  0  0  0
 12 27  1  0  0  0  0
 12 28  1  0  0  0  0
 13 14  1  0  0  0  0
 13 29  1  0  0  0  0
 13 30  1  0  0  0  0
 14 15  1  0  0  0  0
 14 31  1  0  0  0  0
 14 32  1  0  0  0  0
M  END
> <s_m_source_file>
AV-unprocessed.smi

> <i_m_source_file_index>
949

> <i_lp_mmshare_version>
43012

> <i_f3d_flags>
0

> <s_epik_input>
TzFbQ0gyXVtDSDJdW0NIMl1bQ0BIXTFbQ0BIXShbQ0gzXSlbTkhdYzJbY0hdW2NIXW5bY0hdYzJbTkgyXQ==

> <s_epik_cmdline>
J2VwaWtfcHl0aG9uJywgJy1waCcsICc3LjAnLCAnLXRuJywgJzgnLCAnLW1hJywgJzIwMCcsICctbWV0YWxfYmluZGluZycsICctaW1hZScsICc8aW5maWxlLm1hZT4nLCAnLW9tYWUnLCAnPG91dGZpbGUubWFlPic=

> <r_epik_Ionization_Penalty>
3.88091

> <r_epik_Ionization_Penalty_Charging>
0

> <r_epik_Ionization_Penalty_Neutral>
3.88091

> <r_epik_State_Penalty>
3.88049

> <r_epik_Charging_Adjusted_Penalty>
3.88049

> <i_epik_Tot_Q>
0

> <i_epik_Tot_abs_Q>
0

> <r_epik_Metal_State_Penalty>
0.313783

> <b_epik_Metal_Only>
1

> <s_lp_Force_Field>
OPLS_2005

> <r_lp_Energy>
24.4145

> <b_lp_Chiralities_Consistent>
1

> <s_lp_Variant>
AV-unprocessed.smi:949-8

> <Gold.Version>
5.8.1

> <Gold.Id.Protein>
6NUR|6NUR_protein|mol2

> <Gold.PLP.Fitness>
39.6586

> <Gold.PLP.PLP>
-32.2671

> <Gold.PLP.part.hbond>
-2.0000

> <Gold.PLP.part.metal>
0.0000

> <Gold.PLP.part.buried>
-4.0889

> <Gold.PLP.part.nonpolar>
-26.8815

> <Gold.PLP.part.repulsive>
0.3034

> <Gold.PLP.ligand.clash>
0.0000

> <Gold.PLP.ligand.torsion>
0.8148

> <Gold.PLP.Chemscore.Hbond>
2.0000

> <Gold.PLP.Chemscore.CHOScore>
0.9980

> <Gold.PLP.Chemscore.Metal>
0.0000

> <Gold.Chemscore.Hbonds>
donor molecule, donor type, donor heavy atom, donor atom, acceptor molecule, acceptor atom, score
      L1  H    10    25       P1  8028  1.00
      P1  H  7997  8009       L1    15  1.00
      L1  C     8    23       P1  8029  0.74

> <Gold.PLP.Chemscore.Internal.Correction>
0.0271

> <Gold.Rescore>
     Score         DG    S(hbond)    S(metal)    S(lipo)     H(rot)  DE(clash)    DE(int)     intcor
     18.72     -19.52       1.93        0.00      91.65       1.22       0.00       0.80       ----

> <Gold.Chemscore.Fitness>
18.7193

> <Gold.Chemscore.DG>
-19.5190

> <Gold.Chemscore.ZeroCoef>
-5.4800

> <Gold.Chemscore.Hbond>
1.9255

> <Gold.Chemscore.Metal>
0.0000

> <Gold.Chemscore.Lipo>
91.6503

> <Gold.Chemscore.Internal_Hbond>
0.0000

> <Gold.Chemscore.DEClash>
0.0000

> <Gold.Chemscore.DEInternal>
0.7997

> <Gold.Chemscore.Rot>
1.2169

> <Gold.Chemscore.Internal.Correction>
   9.000000E+99

> <Gold.Chemscore.Hbonds>
donor molecule, donor type, donor heavy atom, donor atom, acceptor molecule, acceptor atom, score
      L1  H    10    25       P1  8028  0.96
      P1  H  7997  8009       L1    15  0.74

> <Gold.Chemscore.Hbond.Weighted>
-6.4311

> <Gold.Chemscore.Metal.Weighted>
-0.0000

> <Gold.Chemscore.Lipo.Weighted>
-10.7231

> <Gold.Chemscore.Internal_Hbond.Weighted>
0.0000

> <Gold.Chemscore.DEClash.Weighted>
0.0000

> <Gold.Chemscore.DEInternal.Weighted>
0.7997

> <Gold.Chemscore.Rot.Weighted>
3.1152

> <Gold.Chemscore.Internal.Correction.Weighted>
   9.000000E+99

> <Gold.Protein.RotatedTorsions>
[ 6907 6896 6895 6894 ] final    5.76 input  -60.11 | X-H torsion
[ 7974 7965 7964 7962 ] final -131.54 input  175.53 | X-H torsion
[ 8008 7997 7996 7995 ] final -162.80 input   59.86 | X-H torsion
[ 10167 10162 10161 10158 ] final  125.99 input  -65.29 | X-H torsion
[ 10718 10713 10712 10709 ] final  118.71 input   66.30 | X-H torsion
[ 10763 10752 10751 10750 ] final   83.40 input  -60.55 | X-H torsion
[ 11005 11000 10999 10996 ] final -138.08 input  -57.11 | X-H torsion

> <Gold.Protein.ActiveResidues>
 VAL166  LYS551  ARG553  GLY616  TRP617  ASP618  TYR619  PRO620  LYS621  CYS622 
 ASP623  PHE694  ASN695  SER759  ASP760  ASP761  ALA762  ILE779  LEU786  VAL792 
 PHE793  MET794  SER795  GLU796  ALA797  LYS798  CYS799  TRP800  GLU811  SER814 

> <Gold.Protein.RotatedAtoms>
  151.6628  135.0987  160.0182 H   0  0  0  0  0  0  0  0  0  0  0  0  # atno 6907 bound_to 6896
  152.3937  133.6711  159.6267 H   0  0  0  0  0  0  0  0  0  0  0  0  # atno 6908 bound_to 6896
  150.7848  133.8828  159.3332 H   0  0  0  0  0  0  0  0  0  0  0  0  # atno 6909 bound_to 6896
  144.9369  140.7194  143.4871 H   0  0  0  0  0  0  0  0  0  0  0  0  # atno 7974 bound_to 7965
  155.8121  140.0907  157.1898 H   0  0  0  0  0  0  0  0  0  0  0  0  # atno 8008 bound_to 7997
  154.3980  140.1453  156.3458 H   0  0  0  0  0  0  0  0  0  0  0  0  # atno 8009 bound_to 7997
  155.8355  140.3441  155.5601 H   0  0  0  0  0  0  0  0  0  0  0  0  # atno 8010 bound_to 7997
  139.5655  144.6909  151.3921 H   0  0  0  0  0  0  0  0  0  0  0  0  # atno 10167 bound_to 10162
  157.6011  131.1051  150.7795 H   0  0  0  0  0  0  0  0  0  0  0  0  # atno 10718 bound_to 10713
  153.1287  135.4693  154.9314 H   0  0  0  0  0  0  0  0  0  0  0  0  # atno 10763 bound_to 10752
  154.7644  135.3140  154.8317 H   0  0  0  0  0  0  0  0  0  0  0  0  # atno 10764 bound_to 10752
  153.8864  135.6889  153.4817 H   0  0  0  0  0  0  0  0  0  0  0  0  # atno 10765 bound_to 10752
  140.8650  134.2121  157.4685 H   0  0  0  0  0  0  0  0  0  0  0  0  # atno 11005 bound_to 11000
  145.3052  139.1837  143.4668 LP  0  0  0  0  0  0  0  0  0  0  0  0  # atno 17320 bound_to 7965
  146.3270  140.3049  142.8623 LP  0  0  0  0  0  0  0  0  0  0  0  0  # atno 17321 bound_to 7965
  140.6939  143.7797  150.7296 LP  0  0  0  0  0  0  0  0  0  0  0  0  # atno 17342 bound_to 10162
  140.1287  143.4546  152.2268 LP  0  0  0  0  0  0  0  0  0  0  0  0  # atno 17343 bound_to 10162
  156.8194  130.4979  149.5345 LP  0  0  0  0  0  0  0  0  0  0  0  0  # atno 17370 bound_to 10713
  156.1085  130.6022  151.0009 LP  0  0  0  0  0  0  0  0  0  0  0  0  # atno 17371 bound_to 10713
  139.8709  134.9747  156.4858 LP  0  0  0  0  0  0  0  0  0  0  0  0  # atno 17394 bound_to 11000
  140.8639  133.8039  155.9293 LP  0  0  0  0  0  0  0  0  0  0  0  0  # atno 17395 bound_to 11000

$$$$
