AV-unprocessed.smi:155|AV-procd|sdf|1271|dock5
  -GOLD-   2262018533D 1   1.00000     0.00000
 Structure written by MMmdl.
 63 66  0  0  0  0  0  0  0  0  2 V2000
  143.0856  135.3120  152.4352 C   0  0  0  0  0  0  0  0  0  0  0  0
  144.0154  134.1902  152.5089 N   0  0  0  0  0  0  0  0  0  0  0  0
  143.8226  133.3583  151.3285 C   0  0  0  0  0  0  0  0  0  0  0  0
  145.4020  134.6507  152.5501 C   0  0  0  0  0  0  0  0  0  0  0  0
  146.3288  133.6681  153.3070 C   0  0  0  0  0  0  0  0  0  0  0  0
  147.6288  134.2601  153.7188 N   0  3  2  0  0  0  0  0  0  0  0  0
  148.6481  133.2424  154.0773 C   0  0  0  0  0  0  0  0  0  0  0  0
  150.0695  133.8209  154.1758 C   0  0  0  0  0  0  0  0  0  0  0  0
  150.3117  134.6404  155.4540 C   0  0  0  0  0  0  0  0  0  0  0  0
  149.8166  136.0168  155.3781 N   0  0  0  0  0  0  0  0  0  0  0  0
  150.6745  137.0132  155.7253 C   0  0  0  0  0  0  0  0  0  0  0  0
  151.9854  136.7140  155.9319 N   0  0  0  0  0  0  0  0  0  0  0  0
  152.8520  137.6679  156.2844 C   0  0  0  0  0  0  0  0  0  0  0  0
  152.6272  138.9681  156.4788 N   0  0  0  0  0  0  0  0  0  0  0  0
  151.3173  139.2790  156.2643 C   0  0  0  0  0  0  0  0  0  0  0  0
  150.2838  138.3748  155.8878 C   0  0  0  0  0  0  0  0  0  0  0  0
  149.0845  139.0661  155.7486 N   0  0  0  0  0  0  0  0  0  0  0  0
  149.3891  140.3014  156.0406 C   0  0  0  0  0  0  0  0  0  0  0  0
  150.7090  140.5164  156.3636 N   0  0  0  0  0  0  0  0  0  0  0  0
  151.3258  141.7783  156.7288 C   0  0  0  0  0  0  0  0  0  0  0  0
  150.7405  142.3546  158.0352 C   0  0  2  0  0  0  0  0  0  0  0  0
  149.4939  142.9743  157.7884 O   0  0  0  0  0  0  0  0  0  0  0  0
  151.6634  143.3589  158.7545 C   0  0  1  0  0  0  0  0  0  0  0  0
  151.8832  144.6642  157.9859 C   0  0  0  0  0  0  0  0  0  0  0  0
  152.2237  145.6251  159.1013 C   0  0  0  0  0  0  0  0  0  0  0  0
  151.2761  145.1610  160.2019 C   0  0  0  0  0  0  0  0  0  0  0  0
  151.1276  143.7559  160.0170 O   0  0  0  0  0  0  0  0  0  0  0  0
  148.6265  136.3706  154.6013 C   0  0  0  0  0  0  0  0  0  0  0  0
  147.4854  135.3495  154.7173 C   0  0  0  0  0  0  0  0  0  0  0  0
  143.1526  135.9429  153.3204 H   0  0  0  0  0  0  0  0  0  0  0  0
  142.0583  134.9506  152.3748 H   0  0  0  0  0  0  0  0  0  0  0  0
  143.2783  135.9320  151.5586 H   0  0  0  0  0  0  0  0  0  0  0  0
  144.4788  132.4875  151.3607 H   0  0  0  0  0  0  0  0  0  0  0  0
  144.0335  133.9116  150.4122 H   0  0  0  0  0  0  0  0  0  0  0  0
  142.7961  132.9932  151.2790 H   0  0  0  0  0  0  0  0  0  0  0  0
  145.7811  134.7498  151.5318 H   0  0  0  0  0  0  0  0  0  0  0  0
  145.4329  135.6533  152.9784 H   0  0  0  0  0  0  0  0  0  0  0  0
  145.8421  133.2568  154.1921 H   0  0  0  0  0  0  0  0  0  0  0  0
  146.5240  132.8027  152.6727 H   0  0  0  0  0  0  0  0  0  0  0  0
  148.3787  132.7373  155.0055 H   0  0  0  0  0  0  0  0  0  0  0  0
  148.6546  132.4772  153.3005 H   0  0  0  0  0  0  0  0  0  0  0  0
  150.7612  132.9780  154.1936 H   0  0  0  0  0  0  0  0  0  0  0  0
  150.3282  134.3941  153.2844 H   0  0  0  0  0  0  0  0  0  0  0  0
  149.8721  134.1441  156.3198 H   0  0  0  0  0  0  0  0  0  0  0  0
  151.3889  134.6505  155.6241 H   0  0  0  0  0  0  0  0  0  0  0  0
  153.8711  137.3426  156.4344 H   0  0  0  0  0  0  0  0  0  0  0  0
  148.6549  141.0940  156.0302 H   0  0  0  0  0  0  0  0  0  0  0  0
  152.3982  141.6106  156.8288 H   0  0  0  0  0  0  0  0  0  0  0  0
  151.1970  142.4802  155.9039 H   0  0  0  0  0  0  0  0  0  0  0  0
  150.5348  141.5337  158.7238 H   0  0  0  0  0  0  0  0  0  0  0  0
  149.6183  143.6412  157.1303 H   0  0  0  0  0  0  0  0  0  0  0  0
  152.6426  142.9106  158.9335 H   0  0  0  0  0  0  0  0  0  0  0  0
  152.6696  144.5864  157.2348 H   0  0  0  0  0  0  0  0  0  0  0  0
  150.9695  144.9876  157.4865 H   0  0  0  0  0  0  0  0  0  0  0  0
  153.2604  145.4878  159.4121 H   0  0  0  0  0  0  0  0  0  0  0  0
  152.0822  146.6708  158.8276 H   0  0  0  0  0  0  0  0  0  0  0  0
  151.6464  145.3969  161.1998 H   0  0  0  0  0  0  0  0  0  0  0  0
  150.2983  145.6297  160.0836 H   0  0  0  0  0  0  0  0  0  0  0  0
  148.2513  137.3231  154.9788 H   0  0  0  0  0  0  0  0  0  0  0  0
  148.8938  136.5373  153.5569 H   0  0  0  0  0  0  0  0  0  0  0  0
  146.5575  135.8828  154.5061 H   0  0  0  0  0  0  0  0  0  0  0  0
  147.3877  134.9607  155.7321 H   0  0  0  0  0  0  0  0  0  0  0  0
  147.9770  134.7074  152.8828 H   0  0  0  0  0  0  0  0  0  0  0  0
  1  2  1  0  0  0  0
  1 30  1  0  0  0  0
  1 31  1  0  0  0  0
  1 32  1  0  0  0  0
  2  3  1  0  0  0  0
  2  4  1  0  0  0  0
  3 33  1  0  0  0  0
  3 34  1  0  0  0  0
  3 35  1  0  0  0  0
  4  5  1  0  0  0  0
  4 36  1  0  0  0  0
  4 37  1  0  0  0  0
  5  6  1  0  0  0  0
  5 38  1  0  0  0  0
  5 39  1  0  0  0  0
  6 29  1  0  0  0  0
  6  7  1  0  0  0  0
  6 63  1  0  0  0  0
  7  8  1  0  0  0  0
  7 40  1  0  0  0  0
  7 41  1  0  0  0  0
  8  9  1  0  0  0  0
  8 42  1  0  0  0  0
  8 43  1  0  0  0  0
  9 10  1  0  0  0  0
  9 44  1  0  0  0  0
  9 45  1  0  0  0  0
 10 11  1  0  0  0  0
 10 28  1  0  0  0  0
 11 16  1  0  0  0  0
 11 12  2  0  0  0  0
 12 13  1  0  0  0  0
 13 14  2  0  0  0  0
 13 46  1  0  0  0  0
 14 15  1  0  0  0  0
 15 19  1  0  0  0  0
 15 16  2  0  0  0  0
 16 17  1  0  0  0  0
 17 18  2  0  0  0  0
 18 19  1  0  0  0  0
 18 47  1  0  0  0  0
 19 20  1  0  0  0  0
 20 21  1  0  0  0  0
 20 48  1  0  0  0  0
 20 49  1  0  0  0  0
 21 22  1  0  0  0  0
 21 23  1  0  0  0  0
 21 50  1  0  0  0  0
 22 51  1  0  0  0  0
 23 27  1  0  0  0  0
 23 24  1  0  0  0  0
 23 52  1  0  0  0  0
 24 25  1  0  0  0  0
 24 53  1  0  0  0  0
 24 54  1  0  0  0  0
 25 26  1  0  0  0  0
 25 55  1  0  0  0  0
 25 56  1  0  0  0  0
 26 27  1  0  0  0  0
 26 57  1  0  0  0  0
 26 58  1  0  0  0  0
 28 29  1  0  0  0  0
 28 59  1  0  0  0  0
 28 60  1  0  0  0  0
 29 61  1  0  0  0  0
 29 62  1  0  0  0  0
M  CHG  1   6   1
M  END
> <s_m_source_file>
AV-unprocessed.smi

> <i_m_source_file_index>
155

> <i_lp_mmshare_version>
43012

> <i_f3d_flags>
0

> <s_epik_input>
W0NIM11OKFtDSDNdKVtDSDJdW0NIMl1OMVtDSDJdW0NIMl1bQ0gyXU4oW0NIMl1bQ0gyXTEpYyhuW2NIXW4yKWMoYzIzKW5bY0hdbjNbQ0gyXVtDQEhdKFtPSF0pW0NAQEhdNFtDSDJdW0NIMl1bQ0gyXU80

> <s_epik_cmdline>
J2VwaWtfcHl0aG9uJywgJy1waCcsICc3LjAnLCAnLXRuJywgJzgnLCAnLW1hJywgJzIwMCcsICctbWV0YWxfYmluZGluZycsICctaW1hZScsICc8aW5maWxlLm1hZT4nLCAnLW9tYWUnLCAnPG91dGZpbGUubWFlPic=

> <r_epik_Ionization_Penalty>
0.0619615

> <r_epik_Ionization_Penalty_Charging>
0.0161638

> <r_epik_Ionization_Penalty_Neutral>
0.0457976

> <r_epik_State_Penalty>
0.403408

> <r_epik_Charging_Adjusted_Penalty>
0.419572

> <i_epik_Tot_Q>
1

> <i_epik_Tot_abs_Q>
1

> <r_epik_Metal_State_Penalty>
0.404222

> <b_epik_Metal_Only>
0

> <s_lp_Force_Field>
OPLS_2005

> <r_lp_Energy>
57.0558

> <b_lp_Chiralities_Consistent>
1

> <s_lp_Variant>
AV-unprocessed.smi:155-5

> <Gold.Version>
5.8.1

> <Gold.Id.Protein>
6NUR|6NUR_protein|mol2

> <Gold.PLP.Fitness>
54.6590

> <Gold.PLP.PLP>
-41.1637

> <Gold.PLP.part.hbond>
-3.9910

> <Gold.PLP.part.metal>
0.0000

> <Gold.PLP.part.buried>
-4.1857

> <Gold.PLP.part.nonpolar>
-31.9421

> <Gold.PLP.part.repulsive>
0.2252

> <Gold.PLP.ligand.clash>
0.0000

> <Gold.PLP.ligand.torsion>
0.8958

> <Gold.PLP.Chemscore.Hbond>
4.9913

> <Gold.PLP.Chemscore.CHOScore>
0.0000

> <Gold.PLP.Chemscore.Metal>
0.0000

> <Gold.Chemscore.Hbonds>
donor molecule, donor type, donor heavy atom, donor atom, acceptor molecule, acceptor atom, score
      L1  H     6    63       P1  7948  1.92
      L1  H    22    51       P1  8028  0.99
      P1  H  7997  8010       L1    14  0.94
      P1  H 10752 10763       L1    12  1.00

> <Gold.PLP.Chemscore.Internal.Correction>
0.3131

> <Gold.Rescore>
     Score         DG    S(hbond)    S(metal)    S(lipo)     H(rot)  DE(clash)    DE(int)     intcor
     17.31     -21.99       3.17        0.00     108.09       2.63       2.47       2.20       ----

> <Gold.Chemscore.Fitness>
17.3141

> <Gold.Chemscore.DG>
-21.9853

> <Gold.Chemscore.ZeroCoef>
-5.4800

> <Gold.Chemscore.Hbond>
3.1730

> <Gold.Chemscore.Metal>
0.0000

> <Gold.Chemscore.Lipo>
108.0891

> <Gold.Chemscore.Internal_Hbond>
0.0000

> <Gold.Chemscore.DEClash>
2.4732

> <Gold.Chemscore.DEInternal>
2.1981

> <Gold.Chemscore.Rot>
2.6324

> <Gold.Chemscore.Internal.Correction>
   9.000000E+99

> <Gold.Chemscore.Hbonds>
donor molecule, donor type, donor heavy atom, donor atom, acceptor molecule, acceptor atom, score
      L1  H     6    63       P1  7948  0.73
      L1  H    22    51       P1  8028  0.82
      P1  H  7997  8010       L1    14  0.77
      P1  H 10752 10763       L1    12  0.39

> <Gold.Chemscore.Hbond.Weighted>
-10.5978

> <Gold.Chemscore.Metal.Weighted>
-0.0000

> <Gold.Chemscore.Lipo.Weighted>
-12.6464

> <Gold.Chemscore.Internal_Hbond.Weighted>
0.0000

> <Gold.Chemscore.DEClash.Weighted>
2.4732

> <Gold.Chemscore.DEInternal.Weighted>
2.1981

> <Gold.Chemscore.Rot.Weighted>
6.7389

> <Gold.Chemscore.Internal.Correction.Weighted>
   9.000000E+99

> <Gold.Protein.RotatedTorsions>
[ 6907 6896 6895 6894 ] final   15.93 input  -60.11 | X-H torsion
[ 7974 7965 7964 7962 ] final  135.49 input  175.53 | X-H torsion
[ 8008 7997 7996 7995 ] final   67.19 input   59.86 | X-H torsion
[ 10167 10162 10161 10158 ] final  111.77 input  -65.29 | X-H torsion
[ 10718 10713 10712 10709 ] final  172.54 input   66.30 | X-H torsion
[ 10763 10752 10751 10750 ] final   80.63 input  -60.55 | X-H torsion
[ 11005 11000 10999 10996 ] final  140.19 input  -57.11 | X-H torsion

> <Gold.Protein.ActiveResidues>
 VAL166  LYS551  ARG553  GLY616  TRP617  ASP618  TYR619  PRO620  LYS621  CYS622 
 ASP623  PHE694  ASN695  SER759  ASP760  ASP761  ALA762  ILE779  LEU786  VAL792 
 PHE793  MET794  SER795  GLU796  ALA797  LYS798  CYS799  TRP800  GLU811  SER814 

> <Gold.Protein.RotatedAtoms>
  151.8259  135.0637  160.0430 H   0  0  0  0  0  0  0  0  0  0  0  0  # atno 6907 bound_to 6896
  152.2917  133.5563  159.5570 H   0  0  0  0  0  0  0  0  0  0  0  0  # atno 6908 bound_to 6896
  150.7233  134.0335  159.3784 H   0  0  0  0  0  0  0  0  0  0  0  0  # atno 6909 bound_to 6896
  144.9658  139.4659  143.5457 H   0  0  0  0  0  0  0  0  0  0  0  0  # atno 7974 bound_to 7965
  155.6891  140.3496  155.4886 H   0  0  0  0  0  0  0  0  0  0  0  0  # atno 8008 bound_to 7997
  155.9540  140.1124  157.0975 H   0  0  0  0  0  0  0  0  0  0  0  0  # atno 8009 bound_to 7997
  154.4128  140.1188  156.5076 H   0  0  0  0  0  0  0  0  0  0  0  0  # atno 8010 bound_to 7997
  139.6586  144.7129  151.1909 H   0  0  0  0  0  0  0  0  0  0  0  0  # atno 10167 bound_to 10162
  156.9774  131.0108  151.2890 H   0  0  0  0  0  0  0  0  0  0  0  0  # atno 10718 bound_to 10713
  153.1049  135.4795  154.8934 H   0  0  0  0  0  0  0  0  0  0  0  0  # atno 10763 bound_to 10752
  154.7420  135.3084  154.8714 H   0  0  0  0  0  0  0  0  0  0  0  0  # atno 10764 bound_to 10752
  153.9320  135.6843  153.4799 H   0  0  0  0  0  0  0  0  0  0  0  0  # atno 10765 bound_to 10752
  140.0309  134.9352  157.0661 H   0  0  0  0  0  0  0  0  0  0  0  0  # atno 11005 bound_to 11000
  146.3367  139.8838  142.8820 LP  0  0  0  0  0  0  0  0  0  0  0  0  # atno 17320 bound_to 7965
  145.2631  141.0084  143.3815 LP  0  0  0  0  0  0  0  0  0  0  0  0  # atno 17321 bound_to 7965
  140.7570  143.6031  150.8679 LP  0  0  0  0  0  0  0  0  0  0  0  0  # atno 17342 bound_to 10162
  139.9687  143.6082  152.2980 LP  0  0  0  0  0  0  0  0  0  0  0  0  # atno 17343 bound_to 10162
  157.5550  130.8207  149.8193 LP  0  0  0  0  0  0  0  0  0  0  0  0  # atno 17370 bound_to 10713
  156.0258  130.3780  150.1828 LP  0  0  0  0  0  0  0  0  0  0  0  0  # atno 17371 bound_to 10713
  140.4227  134.1864  155.7165 LP  0  0  0  0  0  0  0  0  0  0  0  0  # atno 17394 bound_to 11000
  141.1830  133.8372  157.1188 LP  0  0  0  0  0  0  0  0  0  0  0  0  # atno 17395 bound_to 11000

$$$$
