AV-unprocessed.smi:1047|AV-procd|sdf|4562|dock6
  -GOLD-   22720 3 03D 1   1.00000     0.00000
 Structure written by MMmdl.
 57 59  0  0  0  0  0  0  0  0  3 V2000
  151.2067  129.8760  164.1033 C   0  0  0  0  0  0  0  0  0  0  0  0
  151.9895  131.1836  163.9200 C   0  0  0  0  0  0  0  0  0  0  0  0
  152.8852  131.4724  165.0712 N   0  3  1  0  0  0  0  0  0  0  0  0
  154.0240  130.5317  165.2240 C   0  0  0  0  0  0  0  0  0  0  0  0
  155.1531  130.8467  164.2246 C   0  0  0  0  0  0  0  0  0  0  0  0
  155.5536  132.2050  164.3640 O   0  0  0  0  0  0  0  0  0  0  0  0
  154.4971  133.1211  164.0932 C   0  0  2  0  0  0  0  0  0  0  0  0
  155.0653  134.5441  164.2086 C   0  0  0  0  0  0  0  0  0  0  0  0
  153.9917  135.5451  164.3732 N   0  3  0  0  0  0  0  0  0  0  0  0
  154.4534  136.9435  164.2590 C   0  0  0  0  0  0  0  0  0  0  0  0
  154.2585  137.4866  162.8338 C   0  0  2  0  0  0  0  0  0  0  0  0
  154.6430  136.4850  161.9111 O   0  0  0  0  0  0  0  0  0  0  0  0
  155.0952  138.7572  162.5866 C   0  0  0  0  0  0  0  0  0  0  0  0
  154.6718  139.4806  161.4010 N   0  0  0  0  0  0  0  0  0  0  0  0
  154.7941  139.0849  160.1189 C   0  0  0  0  0  0  0  0  0  0  0  0
  154.3316  139.9067  159.1817 N   0  0  0  0  0  0  0  0  0  0  0  0
  153.8617  140.9627  159.9434 C   0  0  0  0  0  0  0  0  0  0  0  0
  153.2469  142.1722  159.5530 C   0  0  0  0  0  0  0  0  0  0  0  0
  152.8446  143.1244  160.5166 C   0  0  0  0  0  0  0  0  0  0  0  0
  152.1893  144.4131  160.0516 C   0  0  0  0  0  0  0  0  0  0  0  0
  153.0561  142.8727  161.8960 C   0  0  0  0  0  0  0  0  0  0  0  0
  152.6399  143.8859  162.9475 C   0  0  0  0  0  0  0  0  0  0  0  0
  153.6647  141.6671  162.3037 C   0  0  0  0  0  0  0  0  0  0  0  0
  154.0614  140.7281  161.3353 C   0  0  0  0  0  0  0  0  0  0  0  0
  153.3647  132.8761  165.1145 C   0  0  0  0  0  0  0  0  0  0  0  0
  150.4938  129.7396  163.2898 H   0  0  0  0  0  0  0  0  0  0  0  0
  150.6434  129.8817  165.0367 H   0  0  0  0  0  0  0  0  0  0  0  0
  151.8596  129.0038  164.1087 H   0  0  0  0  0  0  0  0  0  0  0  0
  152.5488  131.1643  162.9847 H   0  0  0  0  0  0  0  0  0  0  0  0
  151.2620  131.9906  163.8243 H   0  0  0  0  0  0  0  0  0  0  0  0
  154.4098  130.6310  166.2394 H   0  0  0  0  0  0  0  0  0  0  0  0
  153.6999  129.4963  165.1250 H   0  0  0  0  0  0  0  0  0  0  0  0
  156.0133  130.2069  164.4225 H   0  0  0  0  0  0  0  0  0  0  0  0
  154.8457  130.6478  163.1974 H   0  0  0  0  0  0  0  0  0  0  0  0
  154.1239  132.9668  163.0790 H   0  0  0  0  0  0  0  0  0  0  0  0
  155.7325  134.6096  165.0690 H   0  0  0  0  0  0  0  0  0  0  0  0
  155.6581  134.7825  163.3242 H   0  0  0  0  0  0  0  0  0  0  0  0
  153.2964  135.3905  163.6561 H   0  0  0  0  0  0  0  0  0  0  0  0
  153.8893  137.5531  164.9663 H   0  0  0  0  0  0  0  0  0  0  0  0
  155.5038  137.0082  164.5478 H   0  0  0  0  0  0  0  0  0  0  0  0
  153.2042  137.7158  162.6715 H   0  0  0  0  0  0  0  0  0  0  0  0
  153.8821  135.9648  161.6986 H   0  0  0  0  0  0  0  0  0  0  0  0
  155.0203  139.4314  163.4407 H   0  0  0  0  0  0  0  0  0  0  0  0
  156.1517  138.5051  162.4816 H   0  0  0  0  0  0  0  0  0  0  0  0
  155.2434  138.1372  159.8596 H   0  0  0  0  0  0  0  0  0  0  0  0
  153.0886  142.3643  158.5020 H   0  0  0  0  0  0  0  0  0  0  0  0
  152.8030  145.2726  160.3224 H   0  0  0  0  0  0  0  0  0  0  0  0
  151.2063  144.5306  160.5082 H   0  0  0  0  0  0  0  0  0  0  0  0
  152.0563  144.4241  158.9696 H   0  0  0  0  0  0  0  0  0  0  0  0
  152.9014  143.5489  163.9510 H   0  0  0  0  0  0  0  0  0  0  0  0
  151.5621  144.0471  162.9181 H   0  0  0  0  0  0  0  0  0  0  0  0
  153.1380  144.8406  162.7760 H   0  0  0  0  0  0  0  0  0  0  0  0
  153.8311  141.4627  163.3511 H   0  0  0  0  0  0  0  0  0  0  0  0
  152.5359  133.5664  164.9524 H   0  0  0  0  0  0  0  0  0  0  0  0
  153.7338  133.0768  166.1213 H   0  0  0  0  0  0  0  0  0  0  0  0
  153.5572  135.4189  165.2762 H   0  0  0  0  0  0  0  0  0  0  0  0
  152.3039  131.3553  165.8893 H   0  0  0  0  0  0  0  0  0  0  0  0
  1  2  1  0  0  0  0
  1 26  1  0  0  0  0
  1 27  1  0  0  0  0
  1 28  1  0  0  0  0
  2  3  1  0  0  0  0
  2 29  1  0  0  0  0
  2 30  1  0  0  0  0
  3 25  1  0  0  0  0
  3  4  1  0  0  0  0
  3 57  1  0  0  0  0
  4  5  1  0  0  0  0
  4 31  1  0  0  0  0
  4 32  1  0  0  0  0
  5  6  1  0  0  0  0
  5 33  1  0  0  0  0
  5 34  1  0  0  0  0
  6  7  1  0  0  0  0
  7  8  1  0  0  0  0
  7 25  1  0  0  0  0
  7 35  1  0  0  0  0
  8  9  1  0  0  0  0
  8 36  1  0  0  0  0
  8 37  1  0  0  0  0
  9 10  1  0  0  0  0
  9 38  1  0  0  0  0
  9 56  1  0  0  0  0
 10 11  1  0  0  0  0
 10 39  1  0  0  0  0
 10 40  1  0  0  0  0
 11 12  1  0  0  0  0
 11 13  1  0  0  0  0
 11 41  1  0  0  0  0
 12 42  1  0  0  0  0
 13 14  1  0  0  0  0
 13 43  1  0  0  0  0
 13 44  1  0  0  0  0
 14 24  1  0  0  0  0
 14 15  1  0  0  0  0
 15 16  2  0  0  0  0
 15 45  1  0  0  0  0
 16 17  1  0  0  0  0
 17 24  2  0  0  0  0
 17 18  1  0  0  0  0
 18 19  2  0  0  0  0
 18 46  1  0  0  0  0
 19 20  1  0  0  0  0
 19 21  1  0  0  0  0
 20 47  1  0  0  0  0
 20 48  1  0  0  0  0
 20 49  1  0  0  0  0
 21 22  1  0  0  0  0
 21 23  2  0  0  0  0
 22 50  1  0  0  0  0
 22 51  1  0  0  0  0
 22 52  1  0  0  0  0
 23 24  1  0  0  0  0
 23 53  1  0  0  0  0
 25 54  1  0  0  0  0
 25 55  1  0  0  0  0
M  CHG  1   3   1
M  CHG  1   9   1
M  END
> <s_m_source_file>
AV-unprocessed.smi

> <i_m_source_file_index>
1047

> <i_lp_mmshare_version>
43012

> <i_f3d_flags>
0

> <s_epik_input>
W0NIM11bQ0gyXU4xW0NIMl1bQ0gyXU9bQ0BIXShbQ0gyXTEpW0NIMl1bTkhdW0NIMl1bQ0BIXShbT0hdKVtDSDJdbihbY0hdbjIpYyhjMjMpW2NIXWMoW0NIM10pYyhbY0hdMylbQ0gzXQ==

> <s_epik_cmdline>
J2VwaWtfcHl0aG9uJywgJy1waCcsICc3LjAnLCAnLXRuJywgJzgnLCAnLW1hJywgJzIwMCcsICctbWV0YWxfYmluZGluZycsICctaW1hZScsICc8aW5maWxlLm1hZT4nLCAnLW9tYWUnLCAnPG91dGZpbGUubWFlPic=

> <r_epik_Ionization_Penalty>
0.528991

> <r_epik_Ionization_Penalty_Charging>
0.438567

> <r_epik_Ionization_Penalty_Neutral>
0.0904237

> <r_epik_State_Penalty>
0.533036

> <r_epik_Charging_Adjusted_Penalty>
0.971603

> <i_epik_Tot_Q>
2

> <i_epik_Tot_abs_Q>
2

> <r_epik_Metal_State_Penalty>
0.448985

> <b_epik_Metal_Only>
0

> <s_lp_Force_Field>
OPLS_2005

> <r_lp_Energy>
30.7538

> <b_lp_Chiralities_Consistent>
1

> <s_lp_Variant>
AV-unprocessed.smi:1047-3

> <Gold.Version>
5.8.1

> <Gold.Id.Protein>
6NUR|6NUR_protein|mol2

> <Gold.PLP.Fitness>
55.1032

> <Gold.PLP.PLP>
-53.5237

> <Gold.PLP.part.hbond>
-1.1573

> <Gold.PLP.part.metal>
0.0000

> <Gold.PLP.part.buried>
-4.9750

> <Gold.PLP.part.nonpolar>
-46.4632

> <Gold.PLP.part.repulsive>
0.0752

> <Gold.PLP.ligand.clash>
0.0000

> <Gold.PLP.ligand.torsion>
0.8095

> <Gold.PLP.Chemscore.Hbond>
1.0000

> <Gold.PLP.Chemscore.CHOScore>
0.0000

> <Gold.PLP.Chemscore.Metal>
0.0000

> <Gold.Chemscore.Hbonds>
donor molecule, donor type, donor heavy atom, donor atom, acceptor molecule, acceptor atom, score
      P1  H  7997  8009       L1    16  1.00

> <Gold.PLP.Chemscore.Internal.Correction>
0.1985

> <Gold.Rescore>
     Score         DG    S(hbond)    S(metal)    S(lipo)     H(rot)  DE(clash)    DE(int)     intcor
     19.34     -20.28       0.94        0.00     158.59       2.70       0.13       0.81       ----

> <Gold.Chemscore.Fitness>
19.3363

> <Gold.Chemscore.DG>
-20.2811

> <Gold.Chemscore.ZeroCoef>
-5.4800

> <Gold.Chemscore.Hbond>
0.9444

> <Gold.Chemscore.Metal>
0.0000

> <Gold.Chemscore.Lipo>
158.5893

> <Gold.Chemscore.Internal_Hbond>
0.0000

> <Gold.Chemscore.DEClash>
0.1337

> <Gold.Chemscore.DEInternal>
0.8112

> <Gold.Chemscore.Rot>
2.6985

> <Gold.Chemscore.Internal.Correction>
   9.000000E+99

> <Gold.Chemscore.Hbonds>
donor molecule, donor type, donor heavy atom, donor atom, acceptor molecule, acceptor atom, score
      P1  H  7997  8009       L1    16  0.94

> <Gold.Chemscore.Hbond.Weighted>
-3.1543

> <Gold.Chemscore.Metal.Weighted>
-0.0000

> <Gold.Chemscore.Lipo.Weighted>
-18.5550

> <Gold.Chemscore.Internal_Hbond.Weighted>
0.0000

> <Gold.Chemscore.DEClash.Weighted>
0.1337

> <Gold.Chemscore.DEInternal.Weighted>
0.8112

> <Gold.Chemscore.Rot.Weighted>
6.9081

> <Gold.Chemscore.Internal.Correction.Weighted>
   9.000000E+99

> <Gold.Protein.RotatedTorsions>
[ 6907 6896 6895 6894 ] final -136.22 input  -60.11 | X-H torsion
[ 7974 7965 7964 7962 ] final  -36.58 input  175.53 | X-H torsion
[ 8008 7997 7996 7995 ] final  122.53 input   59.86 | X-H torsion
[ 10167 10162 10161 10158 ] final -114.38 input  -65.29 | X-H torsion
[ 10718 10713 10712 10709 ] final   43.65 input   66.30 | X-H torsion
[ 10763 10752 10751 10750 ] final -141.47 input  -60.55 | X-H torsion
[ 11005 11000 10999 10996 ] final   76.64 input  -57.11 | X-H torsion

> <Gold.Protein.ActiveResidues>
 VAL166  LYS551  ARG553  GLY616  TRP617  ASP618  TYR619  PRO620  LYS621  CYS622 
 ASP623  PHE694  ASN695  SER759  ASP760  ASP761  ALA762  ILE779  LEU786  VAL792 
 PHE793  MET794  SER795  GLU796  ALA797  LYS798  CYS799  TRP800  GLU811  SER814 

> <Gold.Protein.RotatedAtoms>
  151.0074  133.5998  159.2686 H   0  0  0  0  0  0  0  0  0  0  0  0  # atno 6907 bound_to 6896
  151.3162  135.0806  159.9299 H   0  0  0  0  0  0  0  0  0  0  0  0  # atno 6908 bound_to 6896
  152.5290  133.9729  159.7825 H   0  0  0  0  0  0  0  0  0  0  0  0  # atno 6909 bound_to 6896
  146.0649  140.6295  142.8979 H   0  0  0  0  0  0  0  0  0  0  0  0  # atno 7974 bound_to 7965
  156.2731  140.2784  156.1482 H   0  0  0  0  0  0  0  0  0  0  0  0  # atno 8008 bound_to 7997
  155.0882  140.0388  157.2678 H   0  0  0  0  0  0  0  0  0  0  0  0  # atno 8009 bound_to 7997
  154.6910  140.2629  155.6818 H   0  0  0  0  0  0  0  0  0  0  0  0  # atno 8010 bound_to 7997
  140.1016  143.4608  152.1809 H   0  0  0  0  0  0  0  0  0  0  0  0  # atno 10167 bound_to 10162
  157.4182  130.7954  149.7491 H   0  0  0  0  0  0  0  0  0  0  0  0  # atno 10718 bound_to 10713
  154.8544  135.3523  154.5873 H   0  0  0  0  0  0  0  0  0  0  0  0  # atno 10763 bound_to 10752
  153.6483  135.6995  153.5222 H   0  0  0  0  0  0  0  0  0  0  0  0  # atno 10764 bound_to 10752
  153.2915  135.4233  155.1129 H   0  0  0  0  0  0  0  0  0  0  0  0  # atno 10765 bound_to 10752
  139.9289  134.7618  156.1421 H   0  0  0  0  0  0  0  0  0  0  0  0  # atno 11005 bound_to 11000
  144.7197  140.4330  143.7018 LP  0  0  0  0  0  0  0  0  0  0  0  0  # atno 17320 bound_to 7965
  145.6494  139.1562  143.2870 LP  0  0  0  0  0  0  0  0  0  0  0  0  # atno 17321 bound_to 7965
  139.5668  144.7440  151.4000 LP  0  0  0  0  0  0  0  0  0  0  0  0  # atno 17342 bound_to 10162
  140.6975  143.7714  150.7349 LP  0  0  0  0  0  0  0  0  0  0  0  0  # atno 17343 bound_to 10162
  155.9872  130.3969  150.3177 LP  0  0  0  0  0  0  0  0  0  0  0  0  # atno 17370 bound_to 10713
  157.1322  131.0274  151.2964 LP  0  0  0  0  0  0  0  0  0  0  0  0  # atno 17371 bound_to 10713
  141.0865  133.6732  156.2448 LP  0  0  0  0  0  0  0  0  0  0  0  0  # atno 17394 bound_to 11000
  140.6257  134.5315  157.5553 LP  0  0  0  0  0  0  0  0  0  0  0  0  # atno 17395 bound_to 11000

$$$$
