AV-unprocessed.smi:37|AV-procd|sdf|327|dock5
  -GOLD-   2262016153D 1   1.00000     0.00000
 Structure written by MMmdl.
 43 44  0  0  0  0  0  0  0  0  2 V2000
  151.7772  145.6863  159.8073 C   0  0  0  0  0  0  0  0  0  0  0  0
  151.9515  144.4295  158.9440 C   0  0  0  0  0  0  0  0  0  0  0  0
  150.7127  143.5364  158.9650 C   0  0  0  0  0  0  0  0  0  0  0  0
  149.7142  143.8403  159.6184 O   0  0  0  0  0  0  0  0  0  0  0  0
  150.8594  142.4290  158.2208 O   0  0  0  0  0  0  0  0  0  0  0  0
  149.7466  141.5784  158.0023 C   0  0  0  0  0  0  0  0  0  0  0  0
  150.1790  140.1195  158.1988 C   0  0  2  0  0  0  0  0  0  0  0  0
  151.5600  139.9444  157.9029 O   0  0  0  0  0  0  0  0  0  0  0  0
  151.7969  138.6284  157.4900 C   0  0  1  0  0  0  0  0  0  0  0  0
  152.7251  137.9421  158.4666 N   0  0  0  0  0  0  0  0  0  0  0  0
  153.1999  138.5965  159.5916 C   0  0  0  0  0  0  0  0  0  0  0  0
  154.0291  137.9805  160.4587 C   0  0  0  0  0  0  0  0  0  0  0  0
  154.4705  138.6388  161.5442 F   0  0  0  0  0  0  0  0  0  0  0  0
  154.4391  136.5991  160.2111 C   0  0  0  0  0  0  0  0  0  0  0  0
  155.1991  136.0441  161.0034 O   0  0  0  0  0  0  0  0  0  0  0  0
  153.9532  135.9793  159.0965 N   0  5  0  0  0  0  0  0  0  0  0  0
  153.1105  136.5971  158.2181 C   0  0  0  0  0  0  0  0  0  0  0  0
  152.6565  136.0447  157.2155 O   0  0  0  0  0  0  0  0  0  0  0  0
  150.4277  137.9266  157.3593 C   0  0  1  0  0  0  0  0  0  0  0  0
  149.9267  136.8433  158.9639 Br  0  0  0  0  0  0  0  0  0  0  0  0
  149.4826  139.1127  157.2797 C   0  0  2  0  0  0  0  0  0  0  0  0
  149.4253  139.6233  155.9513 O   0  0  0  0  0  0  0  0  0  0  0  0
  148.4146  140.4254  155.5713 C   0  0  0  0  0  0  0  0  0  0  0  0
  147.5287  140.8673  156.3030 O   0  0  0  0  0  0  0  0  0  0  0  0
  148.4461  140.7445  154.0782 C   0  0  0  0  0  0  0  0  0  0  0  0
  147.1758  141.4679  153.6100 C   0  0  0  0  0  0  0  0  0  0  0  0
  152.6935  146.2765  159.8129 H   0  0  0  0  0  0  0  0  0  0  0  0
  151.5439  145.4287  160.8409 H   0  0  0  0  0  0  0  0  0  0  0  0
  150.9771  146.3242  159.4296 H   0  0  0  0  0  0  0  0  0  0  0  0
  152.1669  144.7106  157.9130 H   0  0  0  0  0  0  0  0  0  0  0  0
  152.8060  143.8531  159.2994 H   0  0  0  0  0  0  0  0  0  0  0  0
  148.9647  141.8318  158.7195 H   0  0  0  0  0  0  0  0  0  0  0  0
  149.3374  141.7269  157.0018 H   0  0  0  0  0  0  0  0  0  0  0  0
  150.0071  139.8221  159.2347 H   0  0  0  0  0  0  0  0  0  0  0  0
  152.3423  138.6836  156.5462 H   0  0  0  0  0  0  0  0  0  0  0  0
  152.9037  139.6146  159.7947 H   0  0  0  0  0  0  0  0  0  0  0  0
  150.4020  137.2713  156.4880 H   0  0  0  0  0  0  0  0  0  0  0  0
  148.4809  138.8732  157.6397 H   0  0  0  0  0  0  0  0  0  0  0  0
  149.3240  141.3558  153.8676 H   0  0  0  0  0  0  0  0  0  0  0  0
  148.5674  139.8144  153.5223 H   0  0  0  0  0  0  0  0  0  0  0  0
  147.2090  141.6429  152.5345 H   0  0  0  0  0  0  0  0  0  0  0  0
  147.0637  142.4374  154.0970 H   0  0  0  0  0  0  0  0  0  0  0  0
  146.2827  140.8788  153.8215 H   0  0  0  0  0  0  0  0  0  0  0  0
  1  2  1  0  0  0  0
  1 27  1  0  0  0  0
  1 28  1  0  0  0  0
  1 29  1  0  0  0  0
  2  3  1  0  0  0  0
  2 30  1  0  0  0  0
  2 31  1  0  0  0  0
  3  4  2  0  0  0  0
  3  5  1  0  0  0  0
  5  6  1  0  0  0  0
  6  7  1  0  0  0  0
  6 32  1  0  0  0  0
  6 33  1  0  0  0  0
  7 21  1  0  0  0  0
  7  8  1  0  0  0  0
  7 34  1  0  0  0  0
  8  9  1  0  0  0  0
  9 10  1  0  0  0  0
  9 19  1  0  0  0  0
  9 35  1  0  0  0  0
 10 17  1  0  0  0  0
 10 11  1  0  0  0  0
 11 12  2  0  0  0  0
 11 36  1  0  0  0  0
 12 13  1  0  0  0  0
 12 14  1  0  0  0  0
 14 15  2  0  0  0  0
 14 16  1  0  0  0  0
 16 17  1  0  0  0  0
 17 18  2  0  0  0  0
 19 20  1  0  0  0  0
 19 21  1  0  0  0  0
 19 37  1  0  0  0  0
 21 22  1  0  0  0  0
 21 38  1  0  0  0  0
 22 23  1  0  0  0  0
 23 24  2  0  0  0  0
 23 25  1  0  0  0  0
 25 26  1  0  0  0  0
 25 39  1  0  0  0  0
 25 40  1  0  0  0  0
 26 41  1  0  0  0  0
 26 42  1  0  0  0  0
 26 43  1  0  0  0  0
M  CHG  1  16  -1
M  END
> <s_m_source_file>
AV-unprocessed.smi

> <i_m_source_file_index>
37

> <i_lp_mmshare_version>
43012

> <i_f3d_flags>
0

> <s_epik_input>
W0NIM11bQ0gyXUMoPU8pT1tDSDJdW0NAQEhdMU9bQ0BASF0objJbY0hdYyhGKWMoPU8pW25IXWMyPU8pW0NAQEhdKEJyKVtDQEhdMU9DKD1PKVtDSDJdW0NIM10=

> <s_epik_cmdline>
J2VwaWtfcHl0aG9uJywgJy1waCcsICc3LjAnLCAnLXRuJywgJzgnLCAnLW1hJywgJzIwMCcsICctbWV0YWxfYmluZGluZycsICctaW1hZScsICc8aW5maWxlLm1hZT4nLCAnLW9tYWUnLCAnPG91dGZpbGUubWFlPic=

> <r_epik_Ionization_Penalty>
1.08158

> <r_epik_Ionization_Penalty_Charging>
9.05154e-09

> <r_epik_Ionization_Penalty_Neutral>
1.08158

> <r_epik_State_Penalty>
1.13706

> <r_epik_Charging_Adjusted_Penalty>
1.13706

> <i_epik_Tot_Q>
-1

> <i_epik_Tot_abs_Q>
1

> <r_epik_Metal_State_Penalty>
0.00343535

> <b_epik_Metal_Only>
0

> <s_epik_Chemistry_Notes>
This compound has an ester and may undergo hydrolysis at high or low pH. This compound contains an acetal/aminal-like group ( X-CH(R)-Y where X, Y are N, S, or O) that may be acid/base labile, releasing an aldehyde.

> <s_lp_Force_Field>
OPLS_2005

> <r_lp_Energy>
34.9368

> <b_lp_Chiralities_Consistent>
1

> <s_lp_Variant>
AV-unprocessed.smi:37-25

> <Gold.Version>
5.8.1

> <Gold.Id.Protein>
6NUR|6NUR_protein|mol2

> <Gold.PLP.Fitness>
39.7614

> <Gold.PLP.PLP>
-34.5299

> <Gold.PLP.part.hbond>
-1.9025

> <Gold.PLP.part.metal>
0.0000

> <Gold.PLP.part.buried>
-6.8597

> <Gold.PLP.part.nonpolar>
-26.2181

> <Gold.PLP.part.repulsive>
0.2770

> <Gold.PLP.ligand.clash>
0.0000

> <Gold.PLP.ligand.torsion>
1.1531

> <Gold.PLP.Chemscore.Hbond>
2.4225

> <Gold.PLP.Chemscore.CHOScore>
0.0000

> <Gold.PLP.Chemscore.Metal>
0.0000

> <Gold.Chemscore.Hbonds>
donor molecule, donor type, donor heavy atom, donor atom, acceptor molecule, acceptor atom, score
      P1  H  6896  6908       L1    16  1.05
      P1  H 10752 10765       L1    18  0.65

> <Gold.PLP.Chemscore.Internal.Correction>
0.2702

> <Gold.Rescore>
     Score         DG    S(hbond)    S(metal)    S(lipo)     H(rot)  DE(clash)    DE(int)     intcor
      7.41      -8.94       1.36        0.00      62.38       3.27       0.00       1.53       ----

> <Gold.Chemscore.Fitness>
7.4056

> <Gold.Chemscore.DG>
-8.9427

> <Gold.Chemscore.ZeroCoef>
-5.4800

> <Gold.Chemscore.Hbond>
1.3557

> <Gold.Chemscore.Metal>
0.0000

> <Gold.Chemscore.Lipo>
62.3768

> <Gold.Chemscore.Internal_Hbond>
0.0000

> <Gold.Chemscore.DEClash>
0.0042

> <Gold.Chemscore.DEInternal>
1.5329

> <Gold.Chemscore.Rot>
3.2669

> <Gold.Chemscore.Internal.Correction>
   9.000000E+99

> <Gold.Chemscore.Hbonds>
donor molecule, donor type, donor heavy atom, donor atom, acceptor molecule, acceptor atom, score
      P1  H  6896  6908       L1    16  0.03
      P1  H 10752 10765       L1    18  0.65

> <Gold.Chemscore.Hbond.Weighted>
-4.5280

> <Gold.Chemscore.Metal.Weighted>
-0.0000

> <Gold.Chemscore.Lipo.Weighted>
-7.2981

> <Gold.Chemscore.Internal_Hbond.Weighted>
0.0000

> <Gold.Chemscore.DEClash.Weighted>
0.0042

> <Gold.Chemscore.DEInternal.Weighted>
1.5329

> <Gold.Chemscore.Rot.Weighted>
8.3634

> <Gold.Chemscore.Internal.Correction.Weighted>
   9.000000E+99

> <Gold.Protein.RotatedTorsions>
[ 6907 6896 6895 6894 ] final  -57.25 input  -60.11 | X-H torsion
[ 7974 7965 7964 7962 ] final  119.08 input  175.53 | X-H torsion
[ 8008 7997 7996 7995 ] final   19.49 input   59.86 | X-H torsion
[ 10167 10162 10161 10158 ] final  110.50 input  -65.29 | X-H torsion
[ 10718 10713 10712 10709 ] final    1.75 input   66.30 | X-H torsion
[ 10763 10752 10751 10750 ] final -126.28 input  -60.55 | X-H torsion
[ 11005 11000 10999 10996 ] final   39.49 input  -57.11 | X-H torsion

> <Gold.Protein.ActiveResidues>
 VAL166  LYS551  ARG553  GLY616  TRP617  ASP618  TYR619  PRO620  LYS621  CYS622 
 ASP623  PHE694  ASN695  SER759  ASP760  ASP761  ALA762  ILE779  LEU786  VAL792 
 PHE793  MET794  SER795  GLU796  ALA797  LYS798  CYS799  TRP800  GLU811  SER814 

> <Gold.Protein.RotatedAtoms>
  150.8101  134.7251  159.6680 H   0  0  0  0  0  0  0  0  0  0  0  0  # atno 6907 bound_to 6896
  152.4221  134.5932  159.9989 H   0  0  0  0  0  0  0  0  0  0  0  0  # atno 6908 bound_to 6896
  151.6144  133.3307  159.3110 H   0  0  0  0  0  0  0  0  0  0  0  0  # atno 6909 bound_to 6896
  145.1474  139.3231  143.4584 H   0  0  0  0  0  0  0  0  0  0  0  0  # atno 7974 bound_to 7965
  154.9215  140.3028  155.5214 H   0  0  0  0  0  0  0  0  0  0  0  0  # atno 8008 bound_to 7997
  156.3009  140.2370  156.4202 H   0  0  0  0  0  0  0  0  0  0  0  0  # atno 8009 bound_to 7997
  154.8326  140.0417  157.1476 H   0  0  0  0  0  0  0  0  0  0  0  0  # atno 8010 bound_to 7997
  139.6683  144.7126  151.1735 H   0  0  0  0  0  0  0  0  0  0  0  0  # atno 10167 bound_to 10162
  156.8528  130.5560  149.5668 H   0  0  0  0  0  0  0  0  0  0  0  0  # atno 10718 bound_to 10713
  154.8744  135.4001  154.3405 H   0  0  0  0  0  0  0  0  0  0  0  0  # atno 10763 bound_to 10752
  153.4205  135.7023  153.6303 H   0  0  0  0  0  0  0  0  0  0  0  0  # atno 10764 bound_to 10752
  153.4967  135.3736  155.2489 H   0  0  0  0  0  0  0  0  0  0  0  0  # atno 10765 bound_to 10752
  140.2023  134.3855  155.8090 H   0  0  0  0  0  0  0  0  0  0  0  0  # atno 11005 bound_to 11000
  146.3498  140.1535  142.8592 LP  0  0  0  0  0  0  0  0  0  0  0  0  # atno 17320 bound_to 7965
  145.0467  140.8987  143.5020 LP  0  0  0  0  0  0  0  0  0  0  0  0  # atno 17321 bound_to 7965
  140.7608  143.5884  150.8822 LP  0  0  0  0  0  0  0  0  0  0  0  0  # atno 17342 bound_to 10162
  139.9547  143.6232  152.3019 LP  0  0  0  0  0  0  0  0  0  0  0  0  # atno 17343 bound_to 10162
  156.0819  130.5827  150.9578 LP  0  0  0  0  0  0  0  0  0  0  0  0  # atno 17370 bound_to 10713
  157.6294  131.0922  150.8471 LP  0  0  0  0  0  0  0  0  0  0  0  0  # atno 17371 bound_to 10713
  141.2227  133.7100  156.8279 LP  0  0  0  0  0  0  0  0  0  0  0  0  # atno 17394 bound_to 11000
  140.2040  134.8876  157.3201 LP  0  0  0  0  0  0  0  0  0  0  0  0  # atno 17395 bound_to 11000

$$$$
