AV-unprocessed.smi:227|AV-procd|sdf|1742|dock2
  -GOLD-   2262020243D 1   1.00000     0.00000
 Structure written by MMmdl.
 54 58  0  0  0  0  0  0  0  0  1 V2000
  149.8455  132.3785  157.9023 O   0  0  0  0  0  0  0  0  0  0  0  0
  148.5768  132.5813  158.4913 C   0  0  0  0  0  0  0  0  0  0  0  0
  148.4132  134.0284  159.0246 C   0  0  1  0  0  0  0  0  0  0  0  0
  148.3191  135.0713  157.8794 C   0  0  0  0  0  0  0  0  0  0  0  0
  147.4302  134.6781  156.8007 N   0  0  0  0  0  0  0  0  0  0  0  0
  146.0561  134.6912  156.8266 C   0  0  0  0  0  0  0  0  0  0  0  0
  145.4785  134.2950  155.7262 N   0  0  0  0  0  0  0  0  0  0  0  0
  146.5310  133.9903  154.8689 C   0  0  0  0  0  0  0  0  0  0  0  0
  146.6294  133.5238  153.5233 C   0  0  0  0  0  0  0  0  0  0  0  0
  145.5722  133.2484  152.7090 N   0  0  0  0  0  0  0  0  0  0  0  0
  144.4477  134.1631  152.5712 C   0  0  1  0  0  0  0  0  0  0  0  0
  145.0137  135.3242  151.7298 C   0  0  0  0  0  0  0  0  0  0  0  0
  145.9910  134.5755  150.8110 C   0  0  0  0  0  0  0  0  0  0  0  0
  145.7870  133.1140  151.2737 C   0  0  2  0  0  0  0  0  0  0  0  0
  144.4236  132.5512  150.8131 C   0  0  2  0  0  0  0  0  0  0  0  0
  144.1065  132.6056  149.3068 C   0  0  0  0  0  0  0  0  0  0  0  0
  142.7965  132.1400  149.0635 O   0  0  0  0  0  0  0  0  0  0  0  0
  143.4625  133.3576  151.7038 C   0  0  0  0  0  0  0  0  0  0  0  0
  147.8796  133.3223  153.0283 N   0  0  0  0  0  0  0  0  0  0  0  0
  148.9578  133.5735  153.7749 C   0  0  0  0  0  0  0  0  0  0  0  0
  149.0163  134.0205  155.0291 N   0  0  0  0  0  0  0  0  0  0  0  0
  147.7679  134.2148  155.5413 C   0  0  0  0  0  0  0  0  0  0  0  0
  147.1826  134.1379  159.9623 C   0  0  1  0  0  0  0  0  0  0  0  0
  147.2027  133.1883  161.1612 C   0  0  0  0  0  0  0  0  0  0  0  0
  146.6078  133.9969  162.3182 C   0  0  0  0  0  0  0  0  0  0  0  0
  146.1501  135.2060  161.7343 O   0  0  0  0  0  0  0  0  0  0  0  0
  147.0086  135.4969  160.6463 C   0  0  0  0  0  0  0  0  0  0  0  0
  149.7274  132.2354  156.9755 H   0  0  0  0  0  0  0  0  0  0  0  0
  147.7947  132.3437  157.7695 H   0  0  0  0  0  0  0  0  0  0  0  0
  148.4900  131.8484  159.2924 H   0  0  0  0  0  0  0  0  0  0  0  0
  149.2933  134.2674  159.6246 H   0  0  0  0  0  0  0  0  0  0  0  0
  147.9837  136.0316  158.2732 H   0  0  0  0  0  0  0  0  0  0  0  0
  149.2996  135.2480  157.4377 H   0  0  0  0  0  0  0  0  0  0  0  0
  145.4929  135.0100  157.6916 H   0  0  0  0  0  0  0  0  0  0  0  0
  143.9830  134.4846  153.5013 H   0  0  0  0  0  0  0  0  0  0  0  0
  144.2406  135.8618  151.1795 H   0  0  0  0  0  0  0  0  0  0  0  0
  145.5456  136.0427  152.3549 H   0  0  0  0  0  0  0  0  0  0  0  0
  145.7988  134.7369  149.7516 H   0  0  0  0  0  0  0  0  0  0  0  0
  147.0140  134.9003  151.0058 H   0  0  0  0  0  0  0  0  0  0  0  0
  146.6135  132.4591  150.9955 H   0  0  0  0  0  0  0  0  0  0  0  0
  144.3739  131.5064  151.1259 H   0  0  0  0  0  0  0  0  0  0  0  0
  144.1763  133.6342  148.9523 H   0  0  0  0  0  0  0  0  0  0  0  0
  144.8165  132.0270  148.7170 H   0  0  0  0  0  0  0  0  0  0  0  0
  142.1884  132.8337  149.2684 H   0  0  0  0  0  0  0  0  0  0  0  0
  142.8574  132.6875  152.3158 H   0  0  0  0  0  0  0  0  0  0  0  0
  142.7849  134.0003  151.1402 H   0  0  0  0  0  0  0  0  0  0  0  0
  149.9096  133.3908  153.2982 H   0  0  0  0  0  0  0  0  0  0  0  0
  146.2768  133.9380  159.3874 H   0  0  0  0  0  0  0  0  0  0  0  0
  146.6173  132.2910  160.9576 H   0  0  0  0  0  0  0  0  0  0  0  0
  148.2158  132.8722  161.4136 H   0  0  0  0  0  0  0  0  0  0  0  0
  145.7933  133.4734  162.8193 H   0  0  0  0  0  0  0  0  0  0  0  0
  147.3741  134.2236  163.0607 H   0  0  0  0  0  0  0  0  0  0  0  0
  147.9591  135.8799  161.0217 H   0  0  0  0  0  0  0  0  0  0  0  0
  146.5669  136.2482  159.9915 H   0  0  0  0  0  0  0  0  0  0  0  0
  1  2  1  0  0  0  0
  1 28  1  0  0  0  0
  2  3  1  0  0  0  0
  2 29  1  0  0  0  0
  2 30  1  0  0  0  0
  3  4  1  0  0  0  0
  3 23  1  0  0  0  0
  3 31  1  0  0  0  0
  4  5  1  0  0  0  0
  4 32  1  0  0  0  0
  4 33  1  0  0  0  0
  5 22  1  0  0  0  0
  5  6  1  0  0  0  0
  6  7  2  0  0  0  0
  6 34  1  0  0  0  0
  7  8  1  0  0  0  0
  8 22  2  0  0  0  0
  8  9  1  0  0  0  0
  9 10  1  0  0  0  0
  9 19  2  0  0  0  0
 10 14  1  0  0  0  0
 10 11  1  0  0  0  0
 11 18  1  0  0  0  0
 11 12  1  0  0  0  0
 11 35  1  0  0  0  0
 12 13  1  0  0  0  0
 12 36  1  0  0  0  0
 12 37  1  0  0  0  0
 13 14  1  0  0  0  0
 13 38  1  0  0  0  0
 13 39  1  0  0  0  0
 14 15  1  0  0  0  0
 14 40  1  0  0  0  0
 15 16  1  0  0  0  0
 15 18  1  0  0  0  0
 15 41  1  0  0  0  0
 16 17  1  0  0  0  0
 16 42  1  0  0  0  0
 16 43  1  0  0  0  0
 17 44  1  0  0  0  0
 18 45  1  0  0  0  0
 18 46  1  0  0  0  0
 19 20  1  0  0  0  0
 20 21  2  0  0  0  0
 20 47  1  0  0  0  0
 21 22  1  0  0  0  0
 23 27  1  0  0  0  0
 23 24  1  0  0  0  0
 23 48  1  0  0  0  0
 24 25  1  0  0  0  0
 24 49  1  0  0  0  0
 24 50  1  0  0  0  0
 25 26  1  0  0  0  0
 25 51  1  0  0  0  0
 25 52  1  0  0  0  0
 26 27  1  0  0  0  0
 27 53  1  0  0  0  0
 27 54  1  0  0  0  0
M  END
> <s_m_source_file>
AV-unprocessed.smi

> <i_m_source_file_index>
227

> <i_lp_mmshare_version>
43012

> <i_f3d_flags>
0

> <s_epik_input>
W0NIMl0xT1tDSDJdW0NIMl1bQ0BIXTFbQ0BIXShbQ0gyXVtPSF0pW0NIMl1uKFtjSF1uMiljKGMyMyluW2NIXW5jM04oW0NASF00NSlbQ0BASF0oW0NIMl1bQ0gyXTQpW0NASF0oW0NIMl01KVtDSDJdW09IXQ==

> <s_epik_cmdline>
J2VwaWtfcHl0aG9uJywgJy1waCcsICc3LjAnLCAnLXRuJywgJzgnLCAnLW1hJywgJzIwMCcsICctbWV0YWxfYmluZGluZycsICctaW1hZScsICc8aW5maWxlLm1hZT4nLCAnLW9tYWUnLCAnPG91dGZpbGUubWFlPic=

> <r_lp_tautomer_probability>
1

> <r_epik_Ionization_Penalty>
0.0055791

> <r_epik_Ionization_Penalty_Charging>
0

> <r_epik_Ionization_Penalty_Neutral>
0.0055791

> <r_epik_State_Penalty>
0.00401299

> <r_epik_Charging_Adjusted_Penalty>
0.00401299

> <i_epik_Tot_Q>
0

> <i_epik_Tot_abs_Q>
0

> <r_epik_Metal_State_Penalty>
-0

> <b_epik_Metal_Only>
0

> <s_lp_Force_Field>
OPLS_2005

> <r_lp_Energy>
88.534

> <b_lp_Chiralities_Consistent>
1

> <s_lp_Variant>
AV-unprocessed.smi:227-16

> <Gold.Version>
5.8.1

> <Gold.Id.Protein>
6NUR|6NUR_protein|mol2

> <Gold.PLP.Fitness>
45.0773

> <Gold.PLP.PLP>
-37.4045

> <Gold.PLP.part.hbond>
-4.0000

> <Gold.PLP.part.metal>
0.0000

> <Gold.PLP.part.buried>
-6.2253

> <Gold.PLP.part.nonpolar>
-26.8591

> <Gold.PLP.part.repulsive>
0.4077

> <Gold.PLP.ligand.clash>
0.0000

> <Gold.PLP.ligand.torsion>
0.7979

> <Gold.PLP.Chemscore.Hbond>
3.0000

> <Gold.PLP.Chemscore.CHOScore>
0.0000

> <Gold.PLP.Chemscore.Metal>
0.0000

> <Gold.Chemscore.Hbonds>
donor molecule, donor type, donor heavy atom, donor atom, acceptor molecule, acceptor atom, score
      L1  H    17    44       P1 10186  1.00
      P1  H  6896  6907       L1     1  0.81
      P1  H 10785 10796       L1    17  0.93

> <Gold.PLP.Chemscore.Internal.Correction>
0.2687

> <Gold.Rescore>
     Score         DG    S(hbond)    S(metal)    S(lipo)     H(rot)  DE(clash)    DE(int)     intcor
     12.59     -13.41       2.42        0.00      77.57       3.61       0.00       0.82       ----

> <Gold.Chemscore.Fitness>
12.5872

> <Gold.Chemscore.DG>
-13.4060

> <Gold.Chemscore.ZeroCoef>
-5.4800

> <Gold.Chemscore.Hbond>
2.4204

> <Gold.Chemscore.Metal>
0.0000

> <Gold.Chemscore.Lipo>
77.5728

> <Gold.Chemscore.Internal_Hbond>
0.0000

> <Gold.Chemscore.DEClash>
0.0015

> <Gold.Chemscore.DEInternal>
0.8173

> <Gold.Chemscore.Rot>
3.6071

> <Gold.Chemscore.Internal.Correction>
   9.000000E+99

> <Gold.Chemscore.Hbonds>
donor molecule, donor type, donor heavy atom, donor atom, acceptor molecule, acceptor atom, score
      L1  H    17    44       P1 10186  0.97
      P1  H  6896  6907       L1     1  0.24
      P1  H 10785 10796       L1    17  0.23

> <Gold.Chemscore.Hbond.Weighted>
-8.0842

> <Gold.Chemscore.Metal.Weighted>
-0.0000

> <Gold.Chemscore.Lipo.Weighted>
-9.0760

> <Gold.Chemscore.Internal_Hbond.Weighted>
0.0000

> <Gold.Chemscore.DEClash.Weighted>
0.0015

> <Gold.Chemscore.DEInternal.Weighted>
0.8173

> <Gold.Chemscore.Rot.Weighted>
9.2342

> <Gold.Chemscore.Internal.Correction.Weighted>
   9.000000E+99

> <Gold.Protein.RotatedTorsions>
[ 6907 6896 6895 6894 ] final -143.64 input  -60.11 | X-H torsion
[ 7974 7965 7964 7962 ] final  -54.95 input  175.53 | X-H torsion
[ 8008 7997 7996 7995 ] final  -20.18 input   59.86 | X-H torsion
[ 10167 10162 10161 10158 ] final  -17.55 input  -65.29 | X-H torsion
[ 10718 10713 10712 10709 ] final  177.62 input   66.30 | X-H torsion
[ 10763 10752 10751 10750 ] final   30.28 input  -60.55 | X-H torsion
[ 11005 11000 10999 10996 ] final  135.65 input  -57.11 | X-H torsion

> <Gold.Protein.ActiveResidues>
 VAL166  LYS551  ARG553  GLY616  TRP617  ASP618  TYR619  PRO620  LYS621  CYS622 
 ASP623  PHE694  ASN695  SER759  ASP760  ASP761  ALA762  ILE779  LEU786  VAL792 
 PHE793  MET794  SER795  GLU796  ALA797  LYS798  CYS799  TRP800  GLU811  SER814 

> <Gold.Protein.RotatedAtoms>
  151.1032  133.5228  159.2608 H   0  0  0  0  0  0  0  0  0  0  0  0  # atno 6907 bound_to 6896
  151.2051  135.0458  159.8898 H   0  0  0  0  0  0  0  0  0  0  0  0  # atno 6908 bound_to 6896
  152.5444  134.0855  159.8307 H   0  0  0  0  0  0  0  0  0  0  0  0  # atno 6909 bound_to 6896
  145.8797  140.8154  142.9846 H   0  0  0  0  0  0  0  0  0  0  0  0  # atno 7974 bound_to 7965
  154.4787  140.2069  155.9816 H   0  0  0  0  0  0  0  0  0  0  0  0  # atno 8008 bound_to 7997
  156.1130  140.3226  155.8069 H   0  0  0  0  0  0  0  0  0  0  0  0  # atno 8009 bound_to 7997
  155.4602  140.0523  157.2982 H   0  0  0  0  0  0  0  0  0  0  0  0  # atno 8010 bound_to 7997
  140.7248  143.5004  150.9876 H   0  0  0  0  0  0  0  0  0  0  0  0  # atno 10167 bound_to 10162
  156.9027  130.9884  151.3033 H   0  0  0  0  0  0  0  0  0  0  0  0  # atno 10718 bound_to 10713
  153.0381  135.6468  154.1021 H   0  0  0  0  0  0  0  0  0  0  0  0  # atno 10763 bound_to 10752
  154.0732  135.2879  155.3306 H   0  0  0  0  0  0  0  0  0  0  0  0  # atno 10764 bound_to 10752
  154.6580  135.5402  153.8047 H   0  0  0  0  0  0  0  0  0  0  0  0  # atno 10765 bound_to 10752
  139.9994  134.9484  157.0037 H   0  0  0  0  0  0  0  0  0  0  0  0  # atno 11005 bound_to 11000
  144.6727  140.1365  143.7440 LP  0  0  0  0  0  0  0  0  0  0  0  0  # atno 17320 bound_to 7965
  145.9038  139.2446  143.1478 LP  0  0  0  0  0  0  0  0  0  0  0  0  # atno 17321 bound_to 7965
  139.8713  143.7188  152.3166 LP  0  0  0  0  0  0  0  0  0  0  0  0  # atno 17342 bound_to 10162
  139.7438  144.7552  151.0611 LP  0  0  0  0  0  0  0  0  0  0  0  0  # atno 17343 bound_to 10162
  157.6016  130.8517  149.8811 LP  0  0  0  0  0  0  0  0  0  0  0  0  # atno 17370 bound_to 10713
  156.0574  130.3706  150.1060 LP  0  0  0  0  0  0  0  0  0  0  0  0  # atno 17371 bound_to 10713
  140.4757  134.1341  155.7209 LP  0  0  0  0  0  0  0  0  0  0  0  0  # atno 17394 bound_to 11000
  141.1630  133.8757  157.1795 LP  0  0  0  0  0  0  0  0  0  0  0  0  # atno 17395 bound_to 11000

$$$$
