AV-unprocessed.smi:2047|AV-procd|sdf|8320|dock4
  -GOLD-   2272010583D 1   1.00000     0.00000
 Structure written by MMmdl.
 42 44  0  0  0  0  0  0  0  0  3 V2000
  154.3183  140.3291  159.1803 O   0  0  0  0  0  0  0  0  0  0  0  0
  153.2458  139.7262  159.0578 C   0  0  0  0  0  0  0  0  0  0  0  0
  152.1046  140.4102  158.8706 N   0  0  0  0  0  0  0  0  0  0  0  0
  151.9254  141.8179  158.7744 C   0  0  0  0  0  0  0  0  0  0  0  0
  152.6967  142.7299  159.5369 C   0  0  0  0  0  0  0  0  0  0  0  0
  152.4970  144.1155  159.3771 C   0  0  0  0  0  0  0  0  0  0  0  0
  151.5377  144.5664  158.4511 C   0  0  0  0  0  0  0  0  0  0  0  0
  150.8313  143.6715  157.7285 N   0  3  0  0  0  0  0  0  0  0  0  0
  150.9856  142.3292  157.8448 C   0  0  0  0  0  0  0  0  0  0  0  0
  150.2002  141.4796  157.0471 N   0  0  0  0  0  0  0  0  0  0  0  0
  148.7679  141.5496  157.2823 C   0  0  0  0  0  0  0  0  0  0  0  0
  148.1228  140.8598  156.0772 C   0  0  0  0  0  0  0  0  0  0  0  0
  149.1903  140.9075  154.9766 C   0  0  0  0  0  0  0  0  0  0  0  0
  150.3810  141.6286  155.6135 C   0  0  0  0  0  0  0  0  0  0  0  0
  153.0359  138.3835  159.1037 N   0  5  0  0  0  0  0  0  0  0  0  0
  154.0201  137.3674  158.7193 C   0  0  1  0  0  0  0  0  0  0  0  0
  154.5068  136.5842  159.9547 C   0  0  0  0  0  0  0  0  0  0  0  0
  155.2526  135.3297  159.4786 C   0  0  0  0  0  0  0  0  0  0  0  0
  154.4293  134.8239  157.9192 S   0  0  0  0  0  0  0  0  0  0  0  0
  155.4356  134.7536  156.8479 O   0  0  0  0  0  0  0  0  0  0  0  0
  153.5316  133.6886  158.1835 O   0  0  0  0  0  0  0  0  0  0  0  0
  153.4264  136.3506  157.7303 C   0  0  0  0  0  0  0  0  0  0  0  0
  151.2593  139.8588  158.8971 H   0  0  0  0  0  0  0  0  0  0  0  0
  153.4474  142.3839  160.2315 H   0  0  0  0  0  0  0  0  0  0  0  0
  153.0766  144.8211  159.9541 H   0  0  0  0  0  0  0  0  0  0  0  0
  151.3197  145.6076  158.2630 H   0  0  0  0  0  0  0  0  0  0  0  0
  148.4995  141.0580  158.2177 H   0  0  0  0  0  0  0  0  0  0  0  0
  148.4378  142.5878  157.3401 H   0  0  0  0  0  0  0  0  0  0  0  0
  147.8832  139.8231  156.3173 H   0  0  0  0  0  0  0  0  0  0  0  0
  147.1975  141.3541  155.7804 H   0  0  0  0  0  0  0  0  0  0  0  0
  149.4714  139.8934  154.6894 H   0  0  0  0  0  0  0  0  0  0  0  0
  148.8415  141.4219  154.0807 H   0  0  0  0  0  0  0  0  0  0  0  0
  150.3749  142.6833  155.3344 H   0  0  0  0  0  0  0  0  0  0  0  0
  151.3301  141.1992  155.2910 H   0  0  0  0  0  0  0  0  0  0  0  0
  154.9003  137.8137  158.2537 H   0  0  0  0  0  0  0  0  0  0  0  0
  155.1339  137.1977  160.6022 H   0  0  0  0  0  0  0  0  0  0  0  0
  153.6463  136.2715  160.5487 H   0  0  0  0  0  0  0  0  0  0  0  0
  156.2982  135.5496  159.2568 H   0  0  0  0  0  0  0  0  0  0  0  0
  155.2169  134.5166  160.2035 H   0  0  0  0  0  0  0  0  0  0  0  0
  152.3950  136.1036  157.9839 H   0  0  0  0  0  0  0  0  0  0  0  0
  153.4584  136.6962  156.6971 H   0  0  0  0  0  0  0  0  0  0  0  0
  150.1456  144.0234  157.0606 H   0  0  0  0  0  0  0  0  0  0  0  0
  1  2  2  0  0  0  0
  2  3  1  0  0  0  0
  2 15  1  0  0  0  0
  3  4  1  0  0  0  0
  3 23  1  0  0  0  0
  4  9  1  0  0  0  0
  4  5  2  0  0  0  0
  5  6  1  0  0  0  0
  5 24  1  0  0  0  0
  6  7  2  0  0  0  0
  6 25  1  0  0  0  0
  7  8  1  0  0  0  0
  7 26  1  0  0  0  0
  8  9  2  0  0  0  0
  8 42  1  0  0  0  0
  9 10  1  0  0  0  0
 10 14  1  0  0  0  0
 10 11  1  0  0  0  0
 11 12  1  0  0  0  0
 11 27  1  0  0  0  0
 11 28  1  0  0  0  0
 12 13  1  0  0  0  0
 12 29  1  0  0  0  0
 12 30  1  0  0  0  0
 13 14  1  0  0  0  0
 13 31  1  0  0  0  0
 13 32  1  0  0  0  0
 14 33  1  0  0  0  0
 14 34  1  0  0  0  0
 15 16  1  0  0  0  0
 16 22  1  0  0  0  0
 16 17  1  0  0  0  0
 16 35  1  0  0  0  0
 17 18  1  0  0  0  0
 17 36  1  0  0  0  0
 17 37  1  0  0  0  0
 18 19  1  0  0  0  0
 18 38  1  0  0  0  0
 18 39  1  0  0  0  0
 19 20  2  0  0  0  0
 19 21  2  0  0  0  0
 19 22  1  0  0  0  0
 22 40  1  0  0  0  0
 22 41  1  0  0  0  0
M  CHG  1   8   1
M  CHG  1  15  -1
M  END
> <s_m_source_file>
AV-unprocessed.smi

> <i_m_source_file_index>
2047

> <i_lp_mmshare_version>
43012

> <i_f3d_flags>
0

> <s_epik_input>
Tz1TMSg9TylbQ0gyXVtDSDJdW0NASF0oW0NIMl0xKVtOSF1DKD1PKVtOSF1jMltjSF1bY0hdW2NIXW5jMk4zW0NIMl1bQ0gyXVtDSDJdW0NIMl0z

> <s_epik_cmdline>
J2VwaWtfcHl0aG9uJywgJy1waCcsICc3LjAnLCAnLXRuJywgJzgnLCAnLW1hJywgJzIwMCcsICctbWV0YWxfYmluZGluZycsICctaW1hZScsICc8aW5maWxlLm1hZT4nLCAnLW9tYWUnLCAnPG91dGZpbGUubWFlPic=

> <r_lp_tautomer_probability>
0.999994

> <r_epik_Ionization_Penalty>
8.27033

> <r_epik_Ionization_Penalty_Charging>
8.27033

> <r_epik_Ionization_Penalty_Neutral>
3.23223e-06

> <r_epik_State_Penalty>
7.90314

> <r_epik_Charging_Adjusted_Penalty>
16.1735

> <i_epik_Tot_Q>
0

> <i_epik_Tot_abs_Q>
2

> <r_epik_Metal_State_Penalty>
3.89381

> <b_epik_Metal_Only>
1

> <s_lp_Force_Field>
OPLS_2005

> <r_lp_Energy>
40.3449

> <b_lp_Chiralities_Consistent>
1

> <s_lp_Variant>
AV-unprocessed.smi:2047-6

> <Gold.Version>
5.8.1

> <Gold.Id.Protein>
6NUR|6NUR_protein|mol2

> <Gold.PLP.Fitness>
46.4034

> <Gold.PLP.PLP>
-33.4212

> <Gold.PLP.part.hbond>
-4.0000

> <Gold.PLP.part.metal>
0.0000

> <Gold.PLP.part.buried>
-4.4428

> <Gold.PLP.part.nonpolar>
-24.4377

> <Gold.PLP.part.repulsive>
0.2008

> <Gold.PLP.ligand.clash>
0.0000

> <Gold.PLP.ligand.torsion>
0.5316

> <Gold.PLP.Chemscore.Hbond>
4.6640

> <Gold.PLP.Chemscore.CHOScore>
0.0000

> <Gold.PLP.Chemscore.Metal>
0.0000

> <Gold.Chemscore.Hbonds>
donor molecule, donor type, donor heavy atom, donor atom, acceptor molecule, acceptor atom, score
      L1  H     8    42       P1  8028  2.00
      P1  H  6896  6907       L1    21  0.80
      P1  H  7997  8009       L1     1  0.83
      P1  H 10752 10765       L1    20  1.00

> <Gold.PLP.Chemscore.Internal.Correction>
0.0535

> <Gold.Rescore>
     Score         DG    S(hbond)    S(metal)    S(lipo)     H(rot)  DE(clash)    DE(int)     intcor
     19.51     -21.80       3.02        0.00      80.53       1.25       0.45       1.84       ----

> <Gold.Chemscore.Fitness>
19.5115

> <Gold.Chemscore.DG>
-21.8034

> <Gold.Chemscore.ZeroCoef>
-5.4800

> <Gold.Chemscore.Hbond>
3.0229

> <Gold.Chemscore.Metal>
0.0000

> <Gold.Chemscore.Lipo>
80.5291

> <Gold.Chemscore.Internal_Hbond>
0.0000

> <Gold.Chemscore.DEClash>
0.4515

> <Gold.Chemscore.DEInternal>
1.8404

> <Gold.Chemscore.Rot>
1.2480

> <Gold.Chemscore.Internal.Correction>
   9.000000E+99

> <Gold.Chemscore.Hbonds>
donor molecule, donor type, donor heavy atom, donor atom, acceptor molecule, acceptor atom, score
      L1  H     8    42       P1  8028  0.90
      P1  H  6896  6907       L1    21  0.75
      P1  H  7997  8009       L1     1  0.23
      P1  H 10752 10765       L1    20  0.25

> <Gold.Chemscore.Hbond.Weighted>
-10.0964

> <Gold.Chemscore.Metal.Weighted>
-0.0000

> <Gold.Chemscore.Lipo.Weighted>
-9.4219

> <Gold.Chemscore.Internal_Hbond.Weighted>
0.0000

> <Gold.Chemscore.DEClash.Weighted>
0.4515

> <Gold.Chemscore.DEInternal.Weighted>
1.8404

> <Gold.Chemscore.Rot.Weighted>
3.1948

> <Gold.Chemscore.Internal.Correction.Weighted>
   9.000000E+99

> <Gold.Protein.RotatedTorsions>
[ 6907 6896 6895 6894 ] final  116.33 input  -60.11 | X-H torsion
[ 7974 7965 7964 7962 ] final   18.41 input  175.53 | X-H torsion
[ 8008 7997 7996 7995 ] final  118.50 input   59.86 | X-H torsion
[ 10167 10162 10161 10158 ] final  -77.80 input  -65.29 | X-H torsion
[ 10718 10713 10712 10709 ] final   -0.89 input   66.30 | X-H torsion
[ 10763 10752 10751 10750 ] final  -75.05 input  -60.55 | X-H torsion
[ 11005 11000 10999 10996 ] final  -37.63 input  -57.11 | X-H torsion

> <Gold.Protein.ActiveResidues>
 VAL166  LYS551  ARG553  GLY616  TRP617  ASP618  TYR619  PRO620  LYS621  CYS622 
 ASP623  PHE694  ASN695  SER759  ASP760  ASP761  ALA762  ILE779  LEU786  VAL792 
 PHE793  MET794  SER795  GLU796  ALA797  LYS798  CYS799  TRP800  GLU811  SER814 

> <Gold.Protein.RotatedAtoms>
  152.4684  133.7975  159.6934 H   0  0  0  0  0  0  0  0  0  0  0  0  # atno 6907 bound_to 6896
  150.8661  133.7563  159.2983 H   0  0  0  0  0  0  0  0  0  0  0  0  # atno 6908 bound_to 6896
  151.5113  135.1068  159.9906 H   0  0  0  0  0  0  0  0  0  0  0  0  # atno 6909 bound_to 6896
  146.2186  139.8461  142.8631 H   0  0  0  0  0  0  0  0  0  0  0  0  # atno 7974 bound_to 7965
  156.2549  140.2873  156.0845 H   0  0  0  0  0  0  0  0  0  0  0  0  # atno 8008 bound_to 7997
  155.1531  140.0398  157.2843 H   0  0  0  0  0  0  0  0  0  0  0  0  # atno 8009 bound_to 7997
  154.6447  140.2530  155.7289 H   0  0  0  0  0  0  0  0  0  0  0  0  # atno 8010 bound_to 7997
  140.4739  143.2419  151.8163 H   0  0  0  0  0  0  0  0  0  0  0  0  # atno 10167 bound_to 10162
  156.8137  130.5433  149.5705 H   0  0  0  0  0  0  0  0  0  0  0  0  # atno 10718 bound_to 10713
  154.4813  135.5844  153.6392 H   0  0  0  0  0  0  0  0  0  0  0  0  # atno 10763 bound_to 10752
  152.9848  135.6090  154.3242 H   0  0  0  0  0  0  0  0  0  0  0  0  # atno 10764 bound_to 10752
  154.3134  135.2844  155.2534 H   0  0  0  0  0  0  0  0  0  0  0  0  # atno 10765 bound_to 10752
  140.9966  133.6977  156.1946 H   0  0  0  0  0  0  0  0  0  0  0  0  # atno 11005 bound_to 11000
  145.2849  141.0150  143.3696 LP  0  0  0  0  0  0  0  0  0  0  0  0  # atno 17320 bound_to 7965
  144.9121  139.4515  143.6582 LP  0  0  0  0  0  0  0  0  0  0  0  0  # atno 17321 bound_to 7965
  139.4822  144.4858  151.9248 LP  0  0  0  0  0  0  0  0  0  0  0  0  # atno 17342 bound_to 10162
  140.3943  144.2575  150.5897 LP  0  0  0  0  0  0  0  0  0  0  0  0  # atno 17343 bound_to 10162
  156.1029  130.5983  150.9924 LP  0  0  0  0  0  0  0  0  0  0  0  0  # atno 17370 bound_to 10713
  157.6492  131.0899  150.8086 LP  0  0  0  0  0  0  0  0  0  0  0  0  # atno 17371 bound_to 10713
  140.6956  134.4619  157.5587 LP  0  0  0  0  0  0  0  0  0  0  0  0  # atno 17394 bound_to 11000
  139.9018  134.8539  156.1866 LP  0  0  0  0  0  0  0  0  0  0  0  0  # atno 17395 bound_to 11000

$$$$
