AV-unprocessed.smi:2057|AV-procd|sdf|8341|dock10
  -GOLD-   2272011 13D 1   1.00000     0.00000
 Structure written by MMmdl.
 44 46  0  0  0  0  0  0  0  0  1 V2000
  154.0480  138.0418  160.8670 C   0  0  0  0  0  0  0  0  0  0  0  0
  154.3843  139.4051  161.0805 O   0  0  0  0  0  0  0  0  0  0  0  0
  153.6880  140.3641  160.3767 C   0  0  0  0  0  0  0  0  0  0  0  0
  154.0222  141.7081  160.6235 C   0  0  0  0  0  0  0  0  0  0  0  0
  153.3554  142.7521  159.9573 C   0  0  0  0  0  0  0  0  0  0  0  0
  152.3337  142.4728  159.0163 C   0  0  0  0  0  0  0  0  0  0  0  0
  151.6331  143.4544  158.3442 O   0  0  0  0  0  0  0  0  0  0  0  0
  151.9473  144.8136  158.6087 C   0  0  0  0  0  0  0  0  0  0  0  0
  152.0021  141.1214  158.7501 C   0  0  0  0  0  0  0  0  0  0  0  0
  150.9029  140.7854  157.7465 C   0  0  1  0  0  0  0  0  0  0  0  0
  149.6939  141.4754  158.0027 O   0  0  0  0  0  0  0  0  0  0  0  0
  151.3688  141.0621  156.3038 C   0  0  0  0  0  0  0  0  0  0  0  0
  150.6448  140.2658  155.3225 N   0  0  0  0  0  0  0  0  0  0  0  0
  150.9944  139.0757  154.7722 C   0  0  0  0  0  0  0  0  0  0  0  0
  152.2751  138.3844  155.1453 C   0  0  0  0  0  0  0  0  0  0  0  0
  153.4379  139.1148  154.8108 O   0  0  0  0  0  0  0  0  0  0  0  0
  150.1282  138.5745  153.8875 N   0  0  0  0  0  0  0  0  0  0  0  0
  149.1251  139.5238  153.8679 C   0  0  0  0  0  0  0  0  0  0  0  0
  147.9203  139.5742  153.1308 C   0  0  0  0  0  0  0  0  0  0  0  0
  147.0370  140.6638  153.2804 C   0  0  0  0  0  0  0  0  0  0  0  0
  147.3449  141.7165  154.1667 C   0  0  0  0  0  0  0  0  0  0  0  0
  148.5404  141.6859  154.9101 C   0  0  0  0  0  0  0  0  0  0  0  0
  149.4179  140.5957  154.7569 C   0  0  0  0  0  0  0  0  0  0  0  0
  152.6696  140.0805  159.4353 C   0  0  0  0  0  0  0  0  0  0  0  0
  154.6795  137.4131  161.4947 H   0  0  0  0  0  0  0  0  0  0  0  0
  154.2160  137.7463  159.8305 H   0  0  0  0  0  0  0  0  0  0  0  0
  153.0104  137.8406  161.1369 H   0  0  0  0  0  0  0  0  0  0  0  0
  154.7971  141.9437  161.3383 H   0  0  0  0  0  0  0  0  0  0  0  0
  153.6476  143.7642  160.1917 H   0  0  0  0  0  0  0  0  0  0  0  0
  151.3061  145.4538  158.0028 H   0  0  0  0  0  0  0  0  0  0  0  0
  152.9816  145.0424  158.3483 H   0  0  0  0  0  0  0  0  0  0  0  0
  151.7714  145.0673  159.6548 H   0  0  0  0  0  0  0  0  0  0  0  0
  150.6545  139.7281  157.8411 H   0  0  0  0  0  0  0  0  0  0  0  0
  149.3313  141.7584  157.1771 H   0  0  0  0  0  0  0  0  0  0  0  0
  151.2793  142.1219  156.0653 H   0  0  0  0  0  0  0  0  0  0  0  0
  152.4280  140.8201  156.2068 H   0  0  0  0  0  0  0  0  0  0  0  0
  152.2836  138.1948  156.2185 H   0  0  0  0  0  0  0  0  0  0  0  0
  152.3188  137.4189  154.6409 H   0  0  0  0  0  0  0  0  0  0  0  0
  153.4601  139.2220  153.8719 H   0  0  0  0  0  0  0  0  0  0  0  0
  147.6751  138.7731  152.4495 H   0  0  0  0  0  0  0  0  0  0  0  0
  146.1186  140.6918  152.7124 H   0  0  0  0  0  0  0  0  0  0  0  0
  146.6631  142.5472  154.2757 H   0  0  0  0  0  0  0  0  0  0  0  0
  148.7806  142.4904  155.5895 H   0  0  0  0  0  0  0  0  0  0  0  0
  152.3818  139.0613  159.2273 H   0  0  0  0  0  0  0  0  0  0  0  0
  1  2  1  0  0  0  0
  1 25  1  0  0  0  0
  1 26  1  0  0  0  0
  1 27  1  0  0  0  0
  2  3  1  0  0  0  0
  3 24  1  0  0  0  0
  3  4  2  0  0  0  0
  4  5  1  0  0  0  0
  4 28  1  0  0  0  0
  5  6  2  0  0  0  0
  5 29  1  0  0  0  0
  6  7  1  0  0  0  0
  6  9  1  0  0  0  0
  7  8  1  0  0  0  0
  8 30  1  0  0  0  0
  8 31  1  0  0  0  0
  8 32  1  0  0  0  0
  9 10  1  0  0  0  0
  9 24  2  0  0  0  0
 10 11  1  0  0  0  0
 10 12  1  0  0  0  0
 10 33  1  0  0  0  0
 11 34  1  0  0  0  0
 12 13  1  0  0  0  0
 12 35  1  0  0  0  0
 12 36  1  0  0  0  0
 13 23  1  0  0  0  0
 13 14  1  0  0  0  0
 14 15  1  0  0  0  0
 14 17  2  0  0  0  0
 15 16  1  0  0  0  0
 15 37  1  0  0  0  0
 15 38  1  0  0  0  0
 16 39  1  0  0  0  0
 17 18  1  0  0  0  0
 18 23  2  0  0  0  0
 18 19  1  0  0  0  0
 19 20  2  0  0  0  0
 19 40  1  0  0  0  0
 20 21  1  0  0  0  0
 20 41  1  0  0  0  0
 21 22  2  0  0  0  0
 21 42  1  0  0  0  0
 22 23  1  0  0  0  0
 22 43  1  0  0  0  0
 24 44  1  0  0  0  0
M  END
> <s_m_source_file>
AV-unprocessed.smi

> <i_m_source_file_index>
2057

> <i_lp_mmshare_version>
43012

> <i_f3d_flags>
0

> <s_epik_input>
W0NIM11PYzFbY0hdW2NIXWMoT1tDSDNdKWMoW2NIXTEpW0NASF0oW09IXSlbQ0gyXW4oYyhuMilbQ0gyXVtPSF0pYyhjMjMpW2NIXVtjSF1bY0hdW2NIXTM=

> <s_epik_cmdline>
J2VwaWtfcHl0aG9uJywgJy1waCcsICc3LjAnLCAnLXRuJywgJzgnLCAnLW1hJywgJzIwMCcsICctbWV0YWxfYmluZGluZycsICctaW1hZScsICc8aW5maWxlLm1hZT4nLCAnLW9tYWUnLCAnPG91dGZpbGUubWFlPic=

> <r_lp_tautomer_probability>
1

> <r_epik_Ionization_Penalty>
0.0634722

> <r_epik_Ionization_Penalty_Charging>
0

> <r_epik_Ionization_Penalty_Neutral>
0.0634722

> <r_epik_State_Penalty>
0.0551572

> <r_epik_Charging_Adjusted_Penalty>
0.0551572

> <i_epik_Tot_Q>
0

> <i_epik_Tot_abs_Q>
0

> <r_epik_Metal_State_Penalty>
5.78034e-05

> <b_epik_Metal_Only>
0

> <s_lp_Force_Field>
OPLS_2005

> <r_lp_Energy>
19.4747

> <b_lp_Chiralities_Consistent>
1

> <s_lp_Variant>
AV-unprocessed.smi:2057-2

> <Gold.Version>
5.8.1

> <Gold.Id.Protein>
6NUR|6NUR_protein|mol2

> <Gold.PLP.Fitness>
52.4861

> <Gold.PLP.PLP>
-50.9291

> <Gold.PLP.part.hbond>
-1.0000

> <Gold.PLP.part.metal>
0.0000

> <Gold.PLP.part.buried>
1.0429

> <Gold.PLP.part.nonpolar>
-50.5818

> <Gold.PLP.part.repulsive>
0.3330

> <Gold.PLP.ligand.clash>
0.0000

> <Gold.PLP.ligand.torsion>
0.7603

> <Gold.PLP.Chemscore.Hbond>
1.0000

> <Gold.PLP.Chemscore.CHOScore>
0.0000

> <Gold.PLP.Chemscore.Metal>
0.0000

> <Gold.Chemscore.Hbonds>
donor molecule, donor type, donor heavy atom, donor atom, acceptor molecule, acceptor atom, score
      P1  H  7997  8010       L1    16  1.00

> <Gold.PLP.Chemscore.Internal.Correction>
0.0777

> <Gold.Rescore>
     Score         DG    S(hbond)    S(metal)    S(lipo)     H(rot)  DE(clash)    DE(int)     intcor
     15.59     -16.45       0.98        0.00     135.07       3.17       0.06       0.80       ----

> <Gold.Chemscore.Fitness>
15.5926

> <Gold.Chemscore.DG>
-16.4482

> <Gold.Chemscore.ZeroCoef>
-5.4800

> <Gold.Chemscore.Hbond>
0.9794

> <Gold.Chemscore.Metal>
0.0000

> <Gold.Chemscore.Lipo>
135.0699

> <Gold.Chemscore.Internal_Hbond>
0.0000

> <Gold.Chemscore.DEClash>
0.0579

> <Gold.Chemscore.DEInternal>
0.7976

> <Gold.Chemscore.Rot>
3.1665

> <Gold.Chemscore.Internal.Correction>
   9.000000E+99

> <Gold.Chemscore.Hbonds>
donor molecule, donor type, donor heavy atom, donor atom, acceptor molecule, acceptor atom, score
      P1  H  7997  8010       L1    16  0.96

> <Gold.Chemscore.Hbond.Weighted>
-3.2712

> <Gold.Chemscore.Metal.Weighted>
-0.0000

> <Gold.Chemscore.Lipo.Weighted>
-15.8032

> <Gold.Chemscore.Internal_Hbond.Weighted>
0.0000

> <Gold.Chemscore.DEClash.Weighted>
0.0579

> <Gold.Chemscore.DEInternal.Weighted>
0.7976

> <Gold.Chemscore.Rot.Weighted>
8.1062

> <Gold.Chemscore.Internal.Correction.Weighted>
   9.000000E+99

> <Gold.Protein.RotatedTorsions>
[ 6907 6896 6895 6894 ] final   87.10 input  -60.11 | X-H torsion
[ 7974 7965 7964 7962 ] final  -43.40 input  175.53 | X-H torsion
[ 8008 7997 7996 7995 ] final  106.35 input   59.86 | X-H torsion
[ 10167 10162 10161 10158 ] final  -96.52 input  -65.29 | X-H torsion
[ 10718 10713 10712 10709 ] final  168.79 input   66.30 | X-H torsion
[ 10763 10752 10751 10750 ] final  -51.46 input  -60.55 | X-H torsion
[ 11005 11000 10999 10996 ] final   37.01 input  -57.11 | X-H torsion

> <Gold.Protein.ActiveResidues>
 VAL166  LYS551  ARG553  GLY616  TRP617  ASP618  TYR619  PRO620  LYS621  CYS622 
 ASP623  PHE694  ASN695  SER759  ASP760  ASP761  ALA762  ILE779  LEU786  VAL792 
 PHE793  MET794  SER795  GLU796  ALA797  LYS798  CYS799  TRP800  GLU811  SER814 

> <Gold.Protein.RotatedAtoms>
  152.5405  134.2329  159.8831 H   0  0  0  0  0  0  0  0  0  0  0  0  # atno 6907 bound_to 6896
  151.2300  133.4449  159.2611 H   0  0  0  0  0  0  0  0  0  0  0  0  # atno 6908 bound_to 6896
  151.0724  134.9820  159.8371 H   0  0  0  0  0  0  0  0  0  0  0  0  # atno 6909 bound_to 6896
  146.0023  140.7060  142.9264 H   0  0  0  0  0  0  0  0  0  0  0  0  # atno 7974 bound_to 7965
  156.1736  140.3114  155.9018 H   0  0  0  0  0  0  0  0  0  0  0  0  # atno 8008 bound_to 7997
  155.3535  140.0472  157.3063 H   0  0  0  0  0  0  0  0  0  0  0  0  # atno 8009 bound_to 7997
  154.5266  140.2216  155.8889 H   0  0  0  0  0  0  0  0  0  0  0  0  # atno 8010 bound_to 7997
  140.2929  143.3210  152.0327 H   0  0  0  0  0  0  0  0  0  0  0  0  # atno 10167 bound_to 10162
  157.0320  131.0262  151.2741 H   0  0  0  0  0  0  0  0  0  0  0  0  # atno 10718 bound_to 10713
  154.1269  135.6526  153.4914 H   0  0  0  0  0  0  0  0  0  0  0  0  # atno 10763 bound_to 10752
  153.0207  135.5283  154.7041 H   0  0  0  0  0  0  0  0  0  0  0  0  # atno 10764 bound_to 10752
  154.6264  135.2971  155.0237 H   0  0  0  0  0  0  0  0  0  0  0  0  # atno 10765 bound_to 10752
  140.2269  134.3574  155.7980 H   0  0  0  0  0  0  0  0  0  0  0  0  # atno 11005 bound_to 11000
  144.6923  140.3254  143.7225 LP  0  0  0  0  0  0  0  0  0  0  0  0  # atno 17320 bound_to 7965
  145.7469  139.1781  143.2344 LP  0  0  0  0  0  0  0  0  0  0  0  0  # atno 17321 bound_to 7965
  139.4933  144.6512  151.6672 LP  0  0  0  0  0  0  0  0  0  0  0  0  # atno 17342 bound_to 10162
  140.5717  144.0098  150.6220 LP  0  0  0  0  0  0  0  0  0  0  0  0  # atno 17343 bound_to 10162
  157.5170  130.7974  149.7767 LP  0  0  0  0  0  0  0  0  0  0  0  0  # atno 17370 bound_to 10713
  156.0066  130.3852  150.2409 LP  0  0  0  0  0  0  0  0  0  0  0  0  # atno 17371 bound_to 10713
  141.2220  133.7224  156.8667 LP  0  0  0  0  0  0  0  0  0  0  0  0  # atno 17394 bound_to 11000
  140.1791  134.9046  157.2927 LP  0  0  0  0  0  0  0  0  0  0  0  0  # atno 17395 bound_to 11000

$$$$
