AV-unprocessed.smi:1222|AV-procd|sdf|5122|dock10
  -GOLD-   22720 4183D 1   1.00000     0.00000
 Structure written by MMmdl.
 36 38  0  0  0  0  0  0  0  0  1 V2000
  146.7692  137.3024  153.0169 O   0  0  0  0  0  0  0  0  0  0  0  0
  145.9111  138.1698  152.8492 C   0  0  0  0  0  0  0  0  0  0  0  0
  146.0469  139.4694  153.1655 N   0  0  0  0  0  0  0  0  0  0  0  0
  147.1691  140.1198  153.7422 C   0  0  0  0  0  0  0  0  0  0  0  0
  148.3143  139.5066  154.0635 N   0  0  0  0  0  0  0  0  0  0  0  0
  149.2460  140.3905  154.6135 C   0  0  0  0  0  0  0  0  0  0  0  0
  148.7899  141.6822  154.7047 C   0  0  0  0  0  0  0  0  0  0  0  0
  147.1626  141.8406  154.0994 S   0  0  0  0  0  0  0  0  0  0  0  0
  144.7054  137.9243  152.3161 N   0  0  0  0  0  0  0  0  0  0  0  0
  144.2377  136.6181  151.8618 C   0  0  0  0  0  0  0  0  0  0  0  0
  143.8926  135.7095  153.0554 C   0  0  0  0  0  0  0  0  0  0  0  0
  143.5472  134.2868  152.5835 C   0  0  0  0  0  0  0  0  0  0  0  0
  144.6689  133.7163  151.8375 N   0  0  0  0  0  0  0  0  0  0  0  0
  144.3317  132.3563  151.4499 C   0  0  0  0  0  0  0  0  0  0  0  0
  145.0083  131.7912  150.2218 C   0  0  0  0  0  0  0  0  0  0  0  0
  143.5475  132.1680  150.1713 C   0  0  0  0  0  0  0  0  0  0  0  0
  144.9152  134.5064  150.6310 C   0  0  0  0  0  0  0  0  0  0  0  0
  145.3229  135.9412  151.0094 C   0  0  0  0  0  0  0  0  0  0  0  0
  145.2551  140.0635  152.9695 H   0  0  0  0  0  0  0  0  0  0  0  0
  150.2126  140.0140  154.9138 H   0  0  0  0  0  0  0  0  0  0  0  0
  149.3107  142.5462  155.0898 H   0  0  0  0  0  0  0  0  0  0  0  0
  144.0629  138.6964  152.2158 H   0  0  0  0  0  0  0  0  0  0  0  0
  143.3472  136.7494  151.2437 H   0  0  0  0  0  0  0  0  0  0  0  0
  144.7342  135.6661  153.7485 H   0  0  0  0  0  0  0  0  0  0  0  0
  143.0525  136.1226  153.6146 H   0  0  0  0  0  0  0  0  0  0  0  0
  143.3297  133.6613  153.4500 H   0  0  0  0  0  0  0  0  0  0  0  0
  142.6485  134.2995  151.9643 H   0  0  0  0  0  0  0  0  0  0  0  0
  144.1212  131.6314  152.2346 H   0  0  0  0  0  0  0  0  0  0  0  0
  145.7100  132.4290  149.6870 H   0  0  0  0  0  0  0  0  0  0  0  0
  145.2552  130.7315  150.2295 H   0  0  0  0  0  0  0  0  0  0  0  0
  142.8208  131.3587  150.1430 H   0  0  0  0  0  0  0  0  0  0  0  0
  143.2788  133.0559  149.6019 H   0  0  0  0  0  0  0  0  0  0  0  0
  145.7132  134.0438  150.0493 H   0  0  0  0  0  0  0  0  0  0  0  0
  144.0251  134.5193  149.9996 H   0  0  0  0  0  0  0  0  0  0  0  0
  145.5050  136.5226  150.1050 H   0  0  0  0  0  0  0  0  0  0  0  0
  146.2672  135.9147  151.5557 H   0  0  0  0  0  0  0  0  0  0  0  0
  1  2  2  0  0  0  0
  2  3  1  0  0  0  0
  2  9  1  0  0  0  0
  3  4  1  0  0  0  0
  3 19  1  0  0  0  0
  4  8  1  0  0  0  0
  4  5  2  0  0  0  0
  5  6  1  0  0  0  0
  6  7  2  0  0  0  0
  6 20  1  0  0  0  0
  7  8  1  0  0  0  0
  7 21  1  0  0  0  0
  9 10  1  0  0  0  0
  9 22  1  0  0  0  0
 10 18  1  0  0  0  0
 10 11  1  0  0  0  0
 10 23  1  0  0  0  0
 11 12  1  0  0  0  0
 11 24  1  0  0  0  0
 11 25  1  0  0  0  0
 12 13  1  0  0  0  0
 12 26  1  0  0  0  0
 12 27  1  0  0  0  0
 13 14  1  0  0  0  0
 13 17  1  0  0  0  0
 14 16  1  0  0  0  0
 14 15  1  0  0  0  0
 14 28  1  0  0  0  0
 15 16  1  0  0  0  0
 15 29  1  0  0  0  0
 15 30  1  0  0  0  0
 16 31  1  0  0  0  0
 16 32  1  0  0  0  0
 17 18  1  0  0  0  0
 17 33  1  0  0  0  0
 17 34  1  0  0  0  0
 18 35  1  0  0  0  0
 18 36  1  0  0  0  0
M  END
> <s_m_source_file>
AV-unprocessed.smi

> <i_m_source_file_index>
1222

> <i_lp_mmshare_version>
43012

> <i_f3d_flags>
0

> <s_epik_input>
czFbY0hdW2NIXW5jMVtOSF1DKD1PKVtOSF1bQ0hdMltDSDJdW0NIMl1OKFtDSDJdW0NIMl0yKVtDSF0zW0NIMl1bQ0gyXTM=

> <s_epik_cmdline>
J2VwaWtfcHl0aG9uJywgJy1waCcsICc3LjAnLCAnLXRuJywgJzgnLCAnLW1hJywgJzIwMCcsICctbWV0YWxfYmluZGluZycsICctaW1hZScsICc8aW5maWxlLm1hZT4nLCAnLW9tYWUnLCAnPG91dGZpbGUubWFlPic=

> <r_lp_tautomer_probability>
0.999

> <r_epik_Ionization_Penalty>
0.985554

> <r_epik_Ionization_Penalty_Charging>
0

> <r_epik_Ionization_Penalty_Neutral>
0.985554

> <r_epik_State_Penalty>
1.03262

> <r_epik_Charging_Adjusted_Penalty>
1.03262

> <i_epik_Tot_Q>
0

> <i_epik_Tot_abs_Q>
0

> <r_epik_Metal_State_Penalty>
1.07929

> <b_epik_Metal_Only>
0

> <s_lp_Force_Field>
OPLS_2005

> <r_lp_Energy>
20.1195

> <b_lp_Chiralities_Consistent>
1

> <s_lp_Variant>
AV-unprocessed.smi:1222-3

> <Gold.Version>
5.8.1

> <Gold.Id.Protein>
6NUR|6NUR_protein|mol2

> <Gold.PLP.Fitness>
39.8742

> <Gold.PLP.PLP>
-31.3881

> <Gold.PLP.part.hbond>
-3.0000

> <Gold.PLP.part.metal>
0.0000

> <Gold.PLP.part.buried>
-1.9991

> <Gold.PLP.part.nonpolar>
-30.6577

> <Gold.PLP.part.repulsive>
3.6492

> <Gold.PLP.ligand.clash>
0.1767

> <Gold.PLP.ligand.torsion>
0.7529

> <Gold.PLP.Chemscore.Hbond>
2.0000

> <Gold.PLP.Chemscore.CHOScore>
1.0000

> <Gold.PLP.Chemscore.Metal>
0.0000

> <Gold.Chemscore.Hbonds>
donor molecule, donor type, donor heavy atom, donor atom, acceptor molecule, acceptor atom, score
      L1  H     3    19       P1 10175  1.00
      L1  H     9    22       P1 10175  1.00
      L1  C     7    21       P1  8028  1.00

> <Gold.PLP.Chemscore.Internal.Correction>
1.1686

> <Gold.Rescore>
     Score         DG    S(hbond)    S(metal)    S(lipo)     H(rot)  DE(clash)    DE(int)     intcor
     13.30     -17.09       1.96        0.00      70.37       1.25       0.37       3.42       ----

> <Gold.Chemscore.Fitness>
13.2963

> <Gold.Chemscore.DG>
-17.0855

> <Gold.Chemscore.ZeroCoef>
-5.4800

> <Gold.Chemscore.Hbond>
1.9638

> <Gold.Chemscore.Metal>
0.0000

> <Gold.Chemscore.Lipo>
70.3728

> <Gold.Chemscore.Internal_Hbond>
0.0000

> <Gold.Chemscore.DEClash>
0.3707

> <Gold.Chemscore.DEInternal>
3.4185

> <Gold.Chemscore.Rot>
1.2451

> <Gold.Chemscore.Internal.Correction>
   9.000000E+99

> <Gold.Chemscore.Hbonds>
donor molecule, donor type, donor heavy atom, donor atom, acceptor molecule, acceptor atom, score
      L1  H     3    19       P1 10175  0.99
      L1  H     9    22       P1 10175  0.95

> <Gold.Chemscore.Hbond.Weighted>
-6.5592

> <Gold.Chemscore.Metal.Weighted>
-0.0000

> <Gold.Chemscore.Lipo.Weighted>
-8.2336

> <Gold.Chemscore.Internal_Hbond.Weighted>
0.0000

> <Gold.Chemscore.DEClash.Weighted>
0.3707

> <Gold.Chemscore.DEInternal.Weighted>
3.4185

> <Gold.Chemscore.Rot.Weighted>
3.1874

> <Gold.Chemscore.Internal.Correction.Weighted>
   9.000000E+99

> <Gold.Protein.RotatedTorsions>
[ 6907 6896 6895 6894 ] final  -54.32 input  -60.11 | X-H torsion
[ 7974 7965 7964 7962 ] final  156.95 input  175.53 | X-H torsion
[ 8008 7997 7996 7995 ] final  -21.76 input   59.86 | X-H torsion
[ 10167 10162 10161 10158 ] final  132.47 input  -65.29 | X-H torsion
[ 10718 10713 10712 10709 ] final   19.40 input   66.30 | X-H torsion
[ 10763 10752 10751 10750 ] final -145.55 input  -60.55 | X-H torsion
[ 11005 11000 10999 10996 ] final  -80.25 input  -57.11 | X-H torsion

> <Gold.Protein.ActiveResidues>
 VAL166  LYS551  ARG553  GLY616  TRP617  ASP618  TYR619  PRO620  LYS621  CYS622 
 ASP623  PHE694  ASN695  SER759  ASP760  ASP761  ALA762  ILE779  LEU786  VAL792 
 PHE793  MET794  SER795  GLU796  ALA797  LYS798  CYS799  TRP800  GLU811  SER814 

> <Gold.Protein.RotatedAtoms>
  150.8349  134.7617  159.6883 H   0  0  0  0  0  0  0  0  0  0  0  0  # atno 6907 bound_to 6896
  152.4447  134.5515  159.9878 H   0  0  0  0  0  0  0  0  0  0  0  0  # atno 6908 bound_to 6896
  151.5668  133.3358  159.3017 H   0  0  0  0  0  0  0  0  0  0  0  0  # atno 6909 bound_to 6896
  144.7932  139.7274  143.6212 H   0  0  0  0  0  0  0  0  0  0  0  0  # atno 7974 bound_to 7965
  154.4686  140.2026  156.0054 H   0  0  0  0  0  0  0  0  0  0  0  0  # atno 8008 bound_to 7997
  156.0970  140.3249  155.7862 H   0  0  0  0  0  0  0  0  0  0  0  0  # atno 8009 bound_to 7997
  155.4861  140.0542  157.2951 H   0  0  0  0  0  0  0  0  0  0  0  0  # atno 8010 bound_to 7997
  139.5338  144.6660  151.4856 H   0  0  0  0  0  0  0  0  0  0  0  0  # atno 10167 bound_to 10162
  157.1099  130.6504  149.5895 H   0  0  0  0  0  0  0  0  0  0  0  0  # atno 10718 bound_to 10713
  154.8378  135.3410  154.6522 H   0  0  0  0  0  0  0  0  0  0  0  0  # atno 10763 bound_to 10752
  153.7135  135.6962  153.5036 H   0  0  0  0  0  0  0  0  0  0  0  0  # atno 10764 bound_to 10752
  153.2434  135.4377  155.0675 H   0  0  0  0  0  0  0  0  0  0  0  0  # atno 10765 bound_to 10752
  141.1668  133.7142  156.8245 H   0  0  0  0  0  0  0  0  0  0  0  0  # atno 11005 bound_to 11000
  146.2191  139.5604  142.9630 LP  0  0  0  0  0  0  0  0  0  0  0  0  # atno 17320 bound_to 7965
  145.5740  141.0391  143.2158 LP  0  0  0  0  0  0  0  0  0  0  0  0  # atno 17321 bound_to 7965
  140.6533  143.8652  150.6808 LP  0  0  0  0  0  0  0  0  0  0  0  0  # atno 17342 bound_to 10162
  140.2023  143.3949  152.1782 LP  0  0  0  0  0  0  0  0  0  0  0  0  # atno 17343 bound_to 10162
  155.9853  130.4882  150.7024 LP  0  0  0  0  0  0  0  0  0  0  0  0  # atno 17370 bound_to 10713
  157.4568  131.0879  151.0788 LP  0  0  0  0  0  0  0  0  0  0  0  0  # atno 17371 bound_to 10713
  140.2095  134.8838  157.3259 LP  0  0  0  0  0  0  0  0  0  0  0  0  # atno 17394 bound_to 11000
  140.2101  134.4149  155.7617 LP  0  0  0  0  0  0  0  0  0  0  0  0  # atno 17395 bound_to 11000

$$$$
