AV-unprocessed.smi:2338|AV-procd|sdf|9335|dock2
  -GOLD-   2272012553D 1   1.00000     0.00000
 Structure written by MMmdl.
 31 32  0  0  0  0  0  0  0  0  1 V2000
  148.2269  138.8902  156.9950 N   0  0  0  0  0  0  0  0  0  0  0  0
  149.2460  138.4967  157.7630 C   0  0  0  0  0  0  0  0  0  0  0  0
  149.1234  138.3274  158.9752 O   0  0  0  0  0  0  0  0  0  0  0  0
  150.6019  138.2767  157.0676 C   0  0  1  0  0  0  0  0  0  0  0  0
  150.4415  137.1451  156.0258 C   0  0  0  0  0  0  0  0  0  0  0  0
  151.6737  136.9102  155.3534 O   0  0  0  0  0  0  0  0  0  0  0  0
  152.1059  138.0578  154.6340 C   0  0  0  0  0  0  0  0  0  0  0  0
  152.3530  139.2074  155.6216 C   0  0  0  0  0  0  0  0  0  0  0  0
  151.1523  139.4704  156.4092 N   0  0  0  0  0  0  0  0  0  0  0  0
  151.3036  140.6292  157.1968 C   0  0  0  0  0  0  0  0  0  0  0  0
  150.6665  141.7575  156.7972 N   0  0  0  0  0  0  0  0  0  0  0  0
  150.8011  142.8752  157.5418 C   0  0  0  0  0  0  0  0  0  0  0  0
  151.5651  142.9320  158.7265 C   0  0  0  0  0  0  0  0  0  0  0  0
  151.6979  144.2192  159.5235 C   0  0  0  0  0  0  0  0  0  0  0  0
  152.2479  145.1733  158.7721 F   0  0  0  0  0  0  0  0  0  0  0  0
  150.4886  144.6212  159.9124 F   0  0  0  0  0  0  0  0  0  0  0  0
  152.4602  144.0438  160.6032 F   0  0  0  0  0  0  0  0  0  0  0  0
  152.2229  141.7566  159.1428 C   0  0  0  0  0  0  0  0  0  0  0  0
  152.0906  140.5849  158.3727 C   0  0  0  0  0  0  0  0  0  0  0  0
  152.9012  139.1405  158.8688 Cl  0  0  0  0  0  0  0  0  0  0  0  0
  147.3173  139.0385  157.4075 H   0  0  0  0  0  0  0  0  0  0  0  0
  148.3660  139.0299  156.0047 H   0  0  0  0  0  0  0  0  0  0  0  0
  151.3241  137.9407  157.8144 H   0  0  0  0  0  0  0  0  0  0  0  0
  150.1373  136.2187  156.5141 H   0  0  0  0  0  0  0  0  0  0  0  0
  149.6662  137.3851  155.2952 H   0  0  0  0  0  0  0  0  0  0  0  0
  153.0243  137.8170  154.0983 H   0  0  0  0  0  0  0  0  0  0  0  0
  151.3629  138.3375  153.8851 H   0  0  0  0  0  0  0  0  0  0  0  0
  153.1783  138.9522  156.2885 H   0  0  0  0  0  0  0  0  0  0  0  0
  152.6514  140.1014  155.0717 H   0  0  0  0  0  0  0  0  0  0  0  0
  150.2843  143.7486  157.1724 H   0  0  0  0  0  0  0  0  0  0  0  0
  152.8265  141.7535  160.0386 H   0  0  0  0  0  0  0  0  0  0  0  0
  1  2  1  0  0  0  0
  1 21  1  0  0  0  0
  1 22  1  0  0  0  0
  2  3  2  0  0  0  0
  2  4  1  0  0  0  0
  4  9  1  0  0  0  0
  4  5  1  0  0  0  0
  4 23  1  0  0  0  0
  5  6  1  0  0  0  0
  5 24  1  0  0  0  0
  5 25  1  0  0  0  0
  6  7  1  0  0  0  0
  7  8  1  0  0  0  0
  7 26  1  0  0  0  0
  7 27  1  0  0  0  0
  8  9  1  0  0  0  0
  8 28  1  0  0  0  0
  8 29  1  0  0  0  0
  9 10  1  0  0  0  0
 10 19  1  0  0  0  0
 10 11  2  0  0  0  0
 11 12  1  0  0  0  0
 12 13  2  0  0  0  0
 12 30  1  0  0  0  0
 13 14  1  0  0  0  0
 13 18  1  0  0  0  0
 14 15  1  0  0  0  0
 14 16  1  0  0  0  0
 14 17  1  0  0  0  0
 18 19  2  0  0  0  0
 18 31  1  0  0  0  0
 19 20  1  0  0  0  0
M  END
> <s_m_source_file>
AV-unprocessed.smi

> <i_m_source_file_index>
2338

> <i_lp_mmshare_version>
43012

> <i_f3d_flags>
0

> <s_epik_input>
W05IMl1DKD1PKVtDQEBIXTFbQ0gyXU9bQ0gyXVtDSDJdTjFjMm5bY0hdYyhDKEYpKEYpRilbY0hdYzJDbA==

> <s_epik_cmdline>
J2VwaWtfcHl0aG9uJywgJy1waCcsICc3LjAnLCAnLXRuJywgJzgnLCAnLW1hJywgJzIwMCcsICctbWV0YWxfYmluZGluZycsICctaW1hZScsICc8aW5maWxlLm1hZT4nLCAnLW9tYWUnLCAnPG91dGZpbGUubWFlPic=

> <r_lp_tautomer_probability>
1

> <r_epik_Ionization_Penalty>
1.71167e-07

> <r_epik_Ionization_Penalty_Charging>
0

> <r_epik_Ionization_Penalty_Neutral>
1.71167e-07

> <r_epik_State_Penalty>
-0

> <r_epik_Charging_Adjusted_Penalty>
0

> <i_epik_Tot_Q>
0

> <i_epik_Tot_abs_Q>
0

> <r_epik_Metal_State_Penalty>
-0

> <b_epik_Metal_Only>
0

> <s_lp_Force_Field>
OPLS_2005

> <r_lp_Energy>
18.2769

> <b_lp_Chiralities_Consistent>
1

> <s_lp_Variant>
AV-unprocessed.smi:2338-2

> <Gold.Version>
5.8.1

> <Gold.Id.Protein>
6NUR|6NUR_protein|mol2

> <Gold.PLP.Fitness>
41.9341

> <Gold.PLP.PLP>
-36.7710

> <Gold.PLP.part.hbond>
-1.8334

> <Gold.PLP.part.metal>
0.0000

> <Gold.PLP.part.buried>
-6.0913

> <Gold.PLP.part.nonpolar>
-29.4282

> <Gold.PLP.part.repulsive>
0.2081

> <Gold.PLP.ligand.clash>
0.9396

> <Gold.PLP.ligand.torsion>
0.2155

> <Gold.PLP.Chemscore.Hbond>
1.0000

> <Gold.PLP.Chemscore.CHOScore>
1.0000

> <Gold.PLP.Chemscore.Metal>
0.0000

> <Gold.Chemscore.Hbonds>
donor molecule, donor type, donor heavy atom, donor atom, acceptor molecule, acceptor atom, score
      P1  H 10752 10763       L1     6  0.90
      L1  C    12    30       P1  8028  1.00

> <Gold.PLP.Chemscore.Internal.Correction>
0.5336

> <Gold.Rescore>
     Score         DG    S(hbond)    S(metal)    S(lipo)     H(rot)  DE(clash)    DE(int)     intcor
     12.76     -13.08       0.80        0.00      75.23       1.51       0.19       0.12       ----

> <Gold.Chemscore.Fitness>
12.7604

> <Gold.Chemscore.DG>
-13.0767

> <Gold.Chemscore.ZeroCoef>
-5.4800

> <Gold.Chemscore.Hbond>
0.7971

> <Gold.Chemscore.Metal>
0.0000

> <Gold.Chemscore.Lipo>
75.2282

> <Gold.Chemscore.Internal_Hbond>
0.0000

> <Gold.Chemscore.DEClash>
0.1925

> <Gold.Chemscore.DEInternal>
0.1238

> <Gold.Chemscore.Rot>
1.5107

> <Gold.Chemscore.Internal.Correction>
   9.000000E+99

> <Gold.Chemscore.Hbonds>
donor molecule, donor type, donor heavy atom, donor atom, acceptor molecule, acceptor atom, score
      P1  H 10752 10763       L1     6  0.17

> <Gold.Chemscore.Hbond.Weighted>
-2.6623

> <Gold.Chemscore.Metal.Weighted>
-0.0000

> <Gold.Chemscore.Lipo.Weighted>
-8.8017

> <Gold.Chemscore.Internal_Hbond.Weighted>
0.0000

> <Gold.Chemscore.DEClash.Weighted>
0.1925

> <Gold.Chemscore.DEInternal.Weighted>
0.1238

> <Gold.Chemscore.Rot.Weighted>
3.8674

> <Gold.Chemscore.Internal.Correction.Weighted>
   9.000000E+99

> <Gold.Protein.RotatedTorsions>
[ 6907 6896 6895 6894 ] final  -34.02 input  -60.11 | X-H torsion
[ 7974 7965 7964 7962 ] final  114.70 input  175.53 | X-H torsion
[ 8008 7997 7996 7995 ] final  -59.71 input   59.86 | X-H torsion
[ 10167 10162 10161 10158 ] final   60.02 input  -65.29 | X-H torsion
[ 10718 10713 10712 10709 ] final  -34.07 input   66.30 | X-H torsion
[ 10763 10752 10751 10750 ] final   59.38 input  -60.55 | X-H torsion
[ 11005 11000 10999 10996 ] final  112.31 input  -57.11 | X-H torsion

> <Gold.Protein.ActiveResidues>
 VAL166  LYS551  ARG553  GLY616  TRP617  ASP618  TYR619  PRO620  LYS621  CYS622 
 ASP623  PHE694  ASN695  SER759  ASP760  ASP761  ALA762  ILE779  LEU786  VAL792 
 PHE793  MET794  SER795  GLU796  ALA797  LYS798  CYS799  TRP800  GLU811  SER814 

> <Gold.Protein.RotatedAtoms>
  151.0580  134.9717  159.8245 H   0  0  0  0  0  0  0  0  0  0  0  0  # atno 6907 bound_to 6896
  152.5391  134.2453  159.8888 H   0  0  0  0  0  0  0  0  0  0  0  0  # atno 6908 bound_to 6896
  151.2472  133.4326  159.2643 H   0  0  0  0  0  0  0  0  0  0  0  0  # atno 6909 bound_to 6896
  145.2012  139.2951  143.4317 H   0  0  0  0  0  0  0  0  0  0  0  0  # atno 7974 bound_to 7965
  154.4365  140.1056  156.6158 H   0  0  0  0  0  0  0  0  0  0  0  0  # atno 8008 bound_to 7997
  155.5760  140.3490  155.4509 H   0  0  0  0  0  0  0  0  0  0  0  0  # atno 8009 bound_to 7997
  156.0354  140.1270  157.0203 H   0  0  0  0  0  0  0  0  0  0  0  0  # atno 8010 bound_to 7997
  140.1701  144.4285  150.6665 H   0  0  0  0  0  0  0  0  0  0  0  0  # atno 10167 bound_to 10162
  156.3549  130.4314  149.7672 H   0  0  0  0  0  0  0  0  0  0  0  0  # atno 10718 bound_to 10713
  152.9893  135.5573  154.5704 H   0  0  0  0  0  0  0  0  0  0  0  0  # atno 10763 bound_to 10752
  154.5105  135.2802  155.1348 H   0  0  0  0  0  0  0  0  0  0  0  0  # atno 10764 bound_to 10752
  154.2742  135.6357  153.5374 H   0  0  0  0  0  0  0  0  0  0  0  0  # atno 10765 bound_to 10752
  139.8924  134.9527  156.6566 H   0  0  0  0  0  0  0  0  0  0  0  0  # atno 11005 bound_to 11000
  146.3417  140.2257  142.8592 LP  0  0  0  0  0  0  0  0  0  0  0  0  # atno 17320 bound_to 7965
  144.9946  140.8578  143.5318 LP  0  0  0  0  0  0  0  0  0  0  0  0  # atno 17321 bound_to 7965
  140.6587  143.2245  151.5907 LP  0  0  0  0  0  0  0  0  0  0  0  0  # atno 17342 bound_to 10162
  139.5342  144.2830  152.1214 LP  0  0  0  0  0  0  0  0  0  0  0  0  # atno 17343 bound_to 10162
  156.4858  130.8062  151.3074 LP  0  0  0  0  0  0  0  0  0  0  0  0  # atno 17370 bound_to 10713
  157.7466  130.9991  150.2877 LP  0  0  0  0  0  0  0  0  0  0  0  0  # atno 17371 bound_to 10713
  140.7479  133.8922  155.8326 LP  0  0  0  0  0  0  0  0  0  0  0  0  # atno 17394 bound_to 11000
  141.0024  134.1132  157.4304 LP  0  0  0  0  0  0  0  0  0  0  0  0  # atno 17395 bound_to 11000

$$$$
