AV-unprocessed.smi:3002|AV-procd|sdf|11436|dock10
  -GOLD-   2272016363D 1   1.00000     0.00000
 Structure written by MMmdl.
 34 35  0  0  0  0  0  0  0  0  1 V2000
  150.6306  142.5249  157.3168 C   0  0  0  0  0  0  0  0  0  0  0  0
  151.0829  141.5533  156.2078 C   0  0  1  0  0  0  0  0  0  0  0  0
  151.8406  140.3383  156.7639 C   0  0  0  0  0  0  0  0  0  0  0  0
  152.5017  139.6144  156.0184 O   0  0  0  0  0  0  0  0  0  0  0  0
  151.7316  140.1235  158.0844 N   0  0  0  0  0  0  0  0  0  0  0  0
  152.3524  139.0196  158.8084 C   0  0  0  0  0  0  0  0  0  0  0  0
  153.6352  139.4562  159.5434 C   0  0  1  0  0  0  0  0  0  0  0  0
  153.3855  140.6146  160.5281 C   0  0  0  0  0  0  0  0  0  0  0  0
  154.6364  140.7967  161.3935 C   0  0  0  0  0  0  0  0  0  0  0  0
  155.3252  139.1153  161.6237 S   0  0  0  0  0  0  0  0  0  0  0  0
  156.7390  139.1165  161.2185 O   0  0  0  0  0  0  0  0  0  0  0  0
  154.9127  138.5903  162.9341 O   0  0  0  0  0  0  0  0  0  0  0  0
  154.3148  138.3154  160.3205 C   0  0  0  0  0  0  0  0  0  0  0  0
  149.9753  141.1138  155.3684 N   0  0  0  0  0  0  0  0  0  0  0  0
  148.7057  141.5255  155.3403 C   0  0  0  0  0  0  0  0  0  0  0  0
  147.9686  140.9379  154.4083 N   0  0  0  0  0  0  0  0  0  0  0  0
  148.9143  140.1266  153.8483 C   0  0  0  0  0  0  0  0  0  0  0  0
  150.1353  140.2016  154.3772 N   0  0  0  0  0  0  0  0  0  0  0  0
  151.4820  142.8774  157.9001 H   0  0  0  0  0  0  0  0  0  0  0  0
  149.9268  142.0610  158.0090 H   0  0  0  0  0  0  0  0  0  0  0  0
  150.1431  143.4016  156.8895 H   0  0  0  0  0  0  0  0  0  0  0  0
  151.7718  142.1026  155.5637 H   0  0  0  0  0  0  0  0  0  0  0  0
  151.1696  140.7646  158.6252 H   0  0  0  0  0  0  0  0  0  0  0  0
  151.6377  138.5911  159.5132 H   0  0  0  0  0  0  0  0  0  0  0  0
  152.5825  138.2336  158.0885 H   0  0  0  0  0  0  0  0  0  0  0  0
  154.3528  139.8192  158.8061 H   0  0  0  0  0  0  0  0  0  0  0  0
  153.1235  141.5370  160.0091 H   0  0  0  0  0  0  0  0  0  0  0  0
  152.5436  140.3624  161.1745 H   0  0  0  0  0  0  0  0  0  0  0  0
  155.3820  141.3982  160.8730 H   0  0  0  0  0  0  0  0  0  0  0  0
  154.4275  141.2568  162.3594 H   0  0  0  0  0  0  0  0  0  0  0  0
  153.5781  137.6809  160.8138 H   0  0  0  0  0  0  0  0  0  0  0  0
  154.9460  137.6890  159.6898 H   0  0  0  0  0  0  0  0  0  0  0  0
  148.3131  142.2734  156.0136 H   0  0  0  0  0  0  0  0  0  0  0  0
  148.6982  139.4660  153.0215 H   0  0  0  0  0  0  0  0  0  0  0  0
  1  2  1  0  0  0  0
  1 19  1  0  0  0  0
  1 20  1  0  0  0  0
  1 21  1  0  0  0  0
  2  3  1  0  0  0  0
  2 14  1  0  0  0  0
  2 22  1  0  0  0  0
  3  4  2  0  0  0  0
  3  5  1  0  0  0  0
  5  6  1  0  0  0  0
  5 23  1  0  0  0  0
  6  7  1  0  0  0  0
  6 24  1  0  0  0  0
  6 25  1  0  0  0  0
  7 13  1  0  0  0  0
  7  8  1  0  0  0  0
  7 26  1  0  0  0  0
  8  9  1  0  0  0  0
  8 27  1  0  0  0  0
  8 28  1  0  0  0  0
  9 10  1  0  0  0  0
  9 29  1  0  0  0  0
  9 30  1  0  0  0  0
 10 11  2  0  0  0  0
 10 12  2  0  0  0  0
 10 13  1  0  0  0  0
 13 31  1  0  0  0  0
 13 32  1  0  0  0  0
 14 18  1  0  0  0  0
 14 15  1  0  0  0  0
 15 16  2  0  0  0  0
 15 33  1  0  0  0  0
 16 17  1  0  0  0  0
 17 18  2  0  0  0  0
 17 34  1  0  0  0  0
M  END
> <s_m_source_file>
AV-unprocessed.smi

> <i_m_source_file_index>
3002

> <i_lp_mmshare_version>
43012

> <i_f3d_flags>
0

> <s_epik_input>
bjFbY0hdbltjSF1uMVtDQEhdKFtDSDNdKUMoPU8pW05IXVtDSDJdW0NAQEhdKFtDSDJdMilbQ0gyXVtDSDJdUzIoPU8pPU8=

> <s_epik_cmdline>
J2VwaWtfcHl0aG9uJywgJy1waCcsICc3LjAnLCAnLXRuJywgJzgnLCAnLW1hJywgJzIwMCcsICctbWV0YWxfYmluZGluZycsICctaW1hZScsICc8aW5maWxlLm1hZT4nLCAnLW9tYWUnLCAnPG91dGZpbGUubWFlPic=

> <r_lp_tautomer_probability>
1

> <r_epik_Ionization_Penalty>
1.1748e-05

> <r_epik_Ionization_Penalty_Charging>
0

> <r_epik_Ionization_Penalty_Neutral>
1.1748e-05

> <r_epik_State_Penalty>
-0

> <r_epik_Charging_Adjusted_Penalty>
0

> <i_epik_Tot_Q>
0

> <i_epik_Tot_abs_Q>
0

> <r_epik_Metal_State_Penalty>
-0

> <b_epik_Metal_Only>
0

> <s_lp_Force_Field>
OPLS_2005

> <r_lp_Energy>
7.1985

> <b_lp_Chiralities_Consistent>
1

> <s_lp_Variant>
AV-unprocessed.smi:3002-4

> <Gold.Version>
5.8.1

> <Gold.Id.Protein>
6NUR|6NUR_protein|mol2

> <Gold.PLP.Fitness>
35.0550

> <Gold.PLP.PLP>
-25.5783

> <Gold.PLP.part.hbond>
-2.0000

> <Gold.PLP.part.metal>
0.0000

> <Gold.PLP.part.buried>
-0.4919

> <Gold.PLP.part.nonpolar>
-22.9125

> <Gold.PLP.part.repulsive>
0.3235

> <Gold.PLP.ligand.clash>
0.0000

> <Gold.PLP.ligand.torsion>
0.5626

> <Gold.PLP.Chemscore.Hbond>
2.0000

> <Gold.PLP.Chemscore.CHOScore>
1.4995

> <Gold.PLP.Chemscore.Metal>
0.0000

> <Gold.Chemscore.Hbonds>
donor molecule, donor type, donor heavy atom, donor atom, acceptor molecule, acceptor atom, score
      P1  H  7989  7998       L1    18  1.00
      P1  H  7997  8009       L1     4  1.00
      L1  C    15    33       P1  8028  0.80
      L1  C    17    34       P1  7957  0.70

> <Gold.PLP.Chemscore.Internal.Correction>
0.1033

> <Gold.Rescore>
     Score         DG    S(hbond)    S(metal)    S(lipo)     H(rot)  DE(clash)    DE(int)     intcor
      9.61     -11.07       1.79        0.00      49.08       2.39       0.05       1.40       ----

> <Gold.Chemscore.Fitness>
9.6142

> <Gold.Chemscore.DG>
-11.0692

> <Gold.Chemscore.ZeroCoef>
-5.4800

> <Gold.Chemscore.Hbond>
1.7896

> <Gold.Chemscore.Metal>
0.0000

> <Gold.Chemscore.Lipo>
49.0766

> <Gold.Chemscore.Internal_Hbond>
0.0000

> <Gold.Chemscore.DEClash>
0.0544

> <Gold.Chemscore.DEInternal>
1.4006

> <Gold.Chemscore.Rot>
2.3946

> <Gold.Chemscore.Internal.Correction>
   9.000000E+99

> <Gold.Chemscore.Hbonds>
donor molecule, donor type, donor heavy atom, donor atom, acceptor molecule, acceptor atom, score
      P1  H  7989  7998       L1    18  0.33
      P1  H  7997  8009       L1     4  0.50

> <Gold.Chemscore.Hbond.Weighted>
-5.9773

> <Gold.Chemscore.Metal.Weighted>
-0.0000

> <Gold.Chemscore.Lipo.Weighted>
-5.7420

> <Gold.Chemscore.Internal_Hbond.Weighted>
0.0000

> <Gold.Chemscore.DEClash.Weighted>
0.0544

> <Gold.Chemscore.DEInternal.Weighted>
1.4006

> <Gold.Chemscore.Rot.Weighted>
6.1301

> <Gold.Chemscore.Internal.Correction.Weighted>
   9.000000E+99

> <Gold.Protein.RotatedTorsions>
[ 6907 6896 6895 6894 ] final   24.71 input  -60.11 | X-H torsion
[ 7974 7965 7964 7962 ] final  -68.82 input  175.53 | X-H torsion
[ 8008 7997 7996 7995 ] final -160.91 input   59.86 | X-H torsion
[ 10167 10162 10161 10158 ] final  125.75 input  -65.29 | X-H torsion
[ 10718 10713 10712 10709 ] final -176.40 input   66.30 | X-H torsion
[ 10763 10752 10751 10750 ] final -175.36 input  -60.55 | X-H torsion
[ 11005 11000 10999 10996 ] final  157.55 input  -57.11 | X-H torsion

> <Gold.Protein.ActiveResidues>
 VAL166  LYS551  ARG553  GLY616  TRP617  ASP618  TYR619  PRO620  LYS621  CYS622 
 ASP623  PHE694  ASN695  SER759  ASP760  ASP761  ALA762  ILE779  LEU786  VAL792 
 PHE793  MET794  SER795  GLU796  ALA797  LYS798  CYS799  TRP800  GLU811  SER814 

> <Gold.Protein.RotatedAtoms>
  151.9617  135.0120  160.0547 H   0  0  0  0  0  0  0  0  0  0  0  0  # atno 6907 bound_to 6896
  152.1863  133.4737  159.4992 H   0  0  0  0  0  0  0  0  0  0  0  0  # atno 6908 bound_to 6896
  150.6926  134.1687  159.4247 H   0  0  0  0  0  0  0  0  0  0  0  0  # atno 6909 bound_to 6896
  145.7117  140.9075  143.0677 H   0  0  0  0  0  0  0  0  0  0  0  0  # atno 7974 bound_to 7965
  155.7845  140.0869  157.2042 H   0  0  0  0  0  0  0  0  0  0  0  0  # atno 8008 bound_to 7997
  154.3988  140.1501  156.3148 H   0  0  0  0  0  0  0  0  0  0  0  0  # atno 8009 bound_to 7997
  155.8621  140.3429  155.5766 H   0  0  0  0  0  0  0  0  0  0  0  0  # atno 8010 bound_to 7997
  139.5668  144.6916  151.3887 H   0  0  0  0  0  0  0  0  0  0  0  0  # atno 10167 bound_to 10162
  156.8141  130.9596  151.3114 H   0  0  0  0  0  0  0  0  0  0  0  0  # atno 10718 bound_to 10713
  154.5853  135.2840  155.0691 H   0  0  0  0  0  0  0  0  0  0  0  0  # atno 10763 bound_to 10752
  154.2012  135.6424  153.5091 H   0  0  0  0  0  0  0  0  0  0  0  0  # atno 10764 bound_to 10752
  153.0102  135.5469  154.6521 H   0  0  0  0  0  0  0  0  0  0  0  0  # atno 10765 bound_to 10752
  140.1780  134.8496  157.2770 H   0  0  0  0  0  0  0  0  0  0  0  0  # atno 11005 bound_to 11000
  144.6940  139.9083  143.7462 LP  0  0  0  0  0  0  0  0  0  0  0  0  # atno 17320 bound_to 7965
  146.0706  139.3696  143.0525 LP  0  0  0  0  0  0  0  0  0  0  0  0  # atno 17321 bound_to 7965
  140.6952  143.7766  150.7316 LP  0  0  0  0  0  0  0  0  0  0  0  0  # atno 17342 bound_to 10162
  140.1260  143.4569  152.2284 LP  0  0  0  0  0  0  0  0  0  0  0  0  # atno 17343 bound_to 10162
  157.6491  130.8869  149.9596 LP  0  0  0  0  0  0  0  0  0  0  0  0  # atno 17370 bound_to 10713
  156.1027  130.3654  150.0189 LP  0  0  0  0  0  0  0  0  0  0  0  0  # atno 17371 bound_to 10713
  140.2300  134.3921  155.7526 LP  0  0  0  0  0  0  0  0  0  0  0  0  # atno 17394 bound_to 11000
  141.2221  133.7210  156.8625 LP  0  0  0  0  0  0  0  0  0  0  0  0  # atno 17395 bound_to 11000

$$$$
