AV-unprocessed.smi:2500|AV-procd|sdf|9841|dock1
  -GOLD-   2272013463D 1   1.00000     0.00000
 Structure written by MMmdl.
 38 39  0  0  0  0  0  0  0  0  1 V2000
  150.3732  134.9464  154.9608 C   0  0  0  0  0  0  0  0  0  0  0  0
  149.8390  136.2875  154.7820 N   0  0  0  0  0  0  0  0  0  0  0  0
  150.5860  137.3798  154.5521 C   0  0  0  0  0  0  0  0  0  0  0  0
  151.8147  137.3463  154.4701 O   0  0  0  0  0  0  0  0  0  0  0  0
  149.8341  138.6791  154.4189 C   0  0  0  0  0  0  0  0  0  0  0  0
  148.7558  138.7830  153.5120 C   0  0  0  0  0  0  0  0  0  0  0  0
  148.0731  140.0082  153.4111 C   0  0  0  0  0  0  0  0  0  0  0  0
  148.4859  141.0859  154.2159 C   0  0  0  0  0  0  0  0  0  0  0  0
  149.5699  140.9103  155.1025 C   0  0  0  0  0  0  0  0  0  0  0  0
  149.9133  142.0534  155.8708 N   0  0  0  0  0  0  0  0  0  0  0  0
  150.9233  142.1961  156.7525 C   0  0  0  0  0  0  0  0  0  0  0  0
  151.7301  141.3136  157.0417 O   0  0  0  0  0  0  0  0  0  0  0  0
  150.9990  143.4173  157.3143 N   0  0  0  0  0  0  0  0  0  0  0  0
  151.9613  143.9126  158.3015 C   0  0  2  0  0  0  0  0  0  0  0  0
  152.3679  142.8036  159.2642 C   0  0  0  0  0  0  0  0  0  0  0  0
  152.4640  142.9674  160.5946 C   0  0  0  0  0  0  0  0  0  0  0  0
  152.1899  144.2836  161.2983 C   0  0  0  0  0  0  0  0  0  0  0  0
  152.1467  145.4677  160.3166 C   0  0  0  0  0  0  0  0  0  0  0  0
  151.3560  145.1224  159.0455 C   0  0  0  0  0  0  0  0  0  0  0  0
  150.2192  139.7243  155.1910 N   0  0  0  0  0  0  0  0  0  0  0  0
  149.5609  134.2452  155.1523 H   0  0  0  0  0  0  0  0  0  0  0  0
  151.0599  134.9120  155.8076 H   0  0  0  0  0  0  0  0  0  0  0  0
  150.9052  134.6178  154.0670 H   0  0  0  0  0  0  0  0  0  0  0  0
  148.8366  136.4020  154.8368 H   0  0  0  0  0  0  0  0  0  0  0  0
  148.4517  137.9455  152.9006 H   0  0  0  0  0  0  0  0  0  0  0  0
  147.2453  140.1205  152.7265 H   0  0  0  0  0  0  0  0  0  0  0  0
  147.9731  142.0346  154.1502 H   0  0  0  0  0  0  0  0  0  0  0  0
  149.3274  142.8631  155.7304 H   0  0  0  0  0  0  0  0  0  0  0  0
  150.3087  144.0882  157.0096 H   0  0  0  0  0  0  0  0  0  0  0  0
  152.8680  144.2495  157.7964 H   0  0  0  0  0  0  0  0  0  0  0  0
  152.5872  141.8366  158.8349 H   0  0  0  0  0  0  0  0  0  0  0  0
  152.7382  142.1297  161.2189 H   0  0  0  0  0  0  0  0  0  0  0  0
  151.2390  144.1942  161.8245 H   0  0  0  0  0  0  0  0  0  0  0  0
  152.9568  144.4557  162.0537 H   0  0  0  0  0  0  0  0  0  0  0  0
  151.7147  146.3407  160.8065 H   0  0  0  0  0  0  0  0  0  0  0  0
  153.1643  145.7441  160.0375 H   0  0  0  0  0  0  0  0  0  0  0  0
  151.3165  145.9864  158.3811 H   0  0  0  0  0  0  0  0  0  0  0  0
  150.3243  144.9056  159.3281 H   0  0  0  0  0  0  0  0  0  0  0  0
  1  2  1  0  0  0  0
  1 21  1  0  0  0  0
  1 22  1  0  0  0  0
  1 23  1  0  0  0  0
  2  3  1  0  0  0  0
  2 24  1  0  0  0  0
  3  4  2  0  0  0  0
  3  5  1  0  0  0  0
  5 20  1  0  0  0  0
  5  6  2  0  0  0  0
  6  7  1  0  0  0  0
  6 25  1  0  0  0  0
  7  8  2  0  0  0  0
  7 26  1  0  0  0  0
  8  9  1  0  0  0  0
  8 27  1  0  0  0  0
  9 10  1  0  0  0  0
  9 20  2  0  0  0  0
 10 11  1  0  0  0  0
 10 28  1  0  0  0  0
 11 12  2  0  0  0  0
 11 13  1  0  0  0  0
 13 14  1  0  0  0  0
 13 29  1  0  0  0  0
 14 19  1  0  0  0  0
 14 15  1  0  0  0  0
 14 30  1  0  0  0  0
 15 16  2  0  0  0  0
 15 31  1  0  0  0  0
 16 17  1  0  0  0  0
 16 32  1  0  0  0  0
 17 18  1  0  0  0  0
 17 33  1  0  0  0  0
 17 34  1  0  0  0  0
 18 19  1  0  0  0  0
 18 35  1  0  0  0  0
 18 36  1  0  0  0  0
 19 37  1  0  0  0  0
 19 38  1  0  0  0  0
M  END
> <s_m_source_file>
AV-unprocessed.smi

> <i_m_source_file_index>
2500

> <i_lp_mmshare_version>
43012

> <i_f3d_flags>
0

> <s_epik_input>
W0NIM11bTkhdQyg9TyljMVtjSF1bY0hdW2NIXWMobjEpW05IXUMoPU8pW05IXVtDQEBIXTJbQ0hdPVtDSF1bQ0gyXVtDSDJdW0NIMl0y

> <s_epik_cmdline>
J2VwaWtfcHl0aG9uJywgJy1waCcsICc3LjAnLCAnLXRuJywgJzgnLCAnLW1hJywgJzIwMCcsICctbWV0YWxfYmluZGluZycsICctaW1hZScsICc8aW5maWxlLm1hZT4nLCAnLW9tYWUnLCAnPG91dGZpbGUubWFlPic=

> <r_lp_tautomer_probability>
1

> <r_epik_Ionization_Penalty>
3.75371e-05

> <r_epik_Ionization_Penalty_Charging>
0

> <r_epik_Ionization_Penalty_Neutral>
3.75371e-05

> <r_epik_State_Penalty>
-0

> <r_epik_Charging_Adjusted_Penalty>
0

> <i_epik_Tot_Q>
0

> <i_epik_Tot_abs_Q>
0

> <r_epik_Metal_State_Penalty>
-0

> <b_epik_Metal_Only>
0

> <s_lp_Force_Field>
OPLS_2005

> <r_lp_Energy>
22.6872

> <b_lp_Chiralities_Consistent>
1

> <s_lp_Variant>
AV-unprocessed.smi:2500-1

> <Gold.Version>
5.8.1

> <Gold.Id.Protein>
6NUR|6NUR_protein|mol2

> <Gold.PLP.Fitness>
48.0942

> <Gold.PLP.PLP>
-41.7975

> <Gold.PLP.part.hbond>
-4.0000

> <Gold.PLP.part.metal>
0.0000

> <Gold.PLP.part.buried>
1.8128

> <Gold.PLP.part.nonpolar>
-40.2957

> <Gold.PLP.part.repulsive>
0.3914

> <Gold.PLP.ligand.clash>
0.0000

> <Gold.PLP.ligand.torsion>
1.2695

> <Gold.PLP.Chemscore.Hbond>
2.9425

> <Gold.PLP.Chemscore.CHOScore>
0.0000

> <Gold.PLP.Chemscore.Metal>
0.0000

> <Gold.Chemscore.Hbonds>
donor molecule, donor type, donor heavy atom, donor atom, acceptor molecule, acceptor atom, score
      L1  H    10    28       P1  8028  1.00
      L1  H    13    29       P1  8028  0.98
      P1  H 10752 10765       L1     4  0.97

> <Gold.PLP.Chemscore.Internal.Correction>
0.0082

> <Gold.Rescore>
     Score         DG    S(hbond)    S(metal)    S(lipo)     H(rot)  DE(clash)    DE(int)     intcor
     19.67     -24.29       2.79        0.00     103.04       1.00       0.50       4.12       ----

> <Gold.Chemscore.Fitness>
19.6671

> <Gold.Chemscore.DG>
-24.2923

> <Gold.Chemscore.ZeroCoef>
-5.4800

> <Gold.Chemscore.Hbond>
2.7892

> <Gold.Chemscore.Metal>
0.0000

> <Gold.Chemscore.Lipo>
103.0448

> <Gold.Chemscore.Internal_Hbond>
0.0000

> <Gold.Chemscore.DEClash>
0.5049

> <Gold.Chemscore.DEInternal>
4.1203

> <Gold.Chemscore.Rot>
1.0000

> <Gold.Chemscore.Internal.Correction>
   9.000000E+99

> <Gold.Chemscore.Hbonds>
donor molecule, donor type, donor heavy atom, donor atom, acceptor molecule, acceptor atom, score
      L1  H    10    28       P1  8028  0.99
      L1  H    13    29       P1  8028  0.85
      P1  H 10752 10765       L1     4  0.86

> <Gold.Chemscore.Hbond.Weighted>
-9.3161

> <Gold.Chemscore.Metal.Weighted>
-0.0000

> <Gold.Chemscore.Lipo.Weighted>
-12.0562

> <Gold.Chemscore.Internal_Hbond.Weighted>
0.0000

> <Gold.Chemscore.DEClash.Weighted>
0.5049

> <Gold.Chemscore.DEInternal.Weighted>
4.1203

> <Gold.Chemscore.Rot.Weighted>
2.5600

> <Gold.Chemscore.Internal.Correction.Weighted>
   9.000000E+99

> <Gold.Protein.RotatedTorsions>
[ 6907 6896 6895 6894 ] final    6.95 input  -60.11 | X-H torsion
[ 7974 7965 7964 7962 ] final   56.10 input  175.53 | X-H torsion
[ 8008 7997 7996 7995 ] final   34.99 input   59.86 | X-H torsion
[ 10167 10162 10161 10158 ] final -142.71 input  -65.29 | X-H torsion
[ 10718 10713 10712 10709 ] final  -27.43 input   66.30 | X-H torsion
[ 10763 10752 10751 10750 ] final  156.30 input  -60.55 | X-H torsion
[ 11005 11000 10999 10996 ] final   -0.93 input  -57.11 | X-H torsion

> <Gold.Protein.ActiveResidues>
 VAL166  LYS551  ARG553  GLY616  TRP617  ASP618  TYR619  PRO620  LYS621  CYS622 
 ASP623  PHE694  ASN695  SER759  ASP760  ASP761  ALA762  ILE779  LEU786  VAL792 
 PHE793  MET794  SER795  GLU796  ALA797  LYS798  CYS799  TRP800  GLU811  SER814 

> <Gold.Protein.RotatedAtoms>
  151.6820  135.0960  160.0217 H   0  0  0  0  0  0  0  0  0  0  0  0  # atno 6907 bound_to 6896
  152.3830  133.6568  159.6184 H   0  0  0  0  0  0  0  0  0  0  0  0  # atno 6908 bound_to 6896
  150.7762  133.8999  159.3379 H   0  0  0  0  0  0  0  0  0  0  0  0  # atno 6909 bound_to 6896
  145.9434  139.3908  143.0349 H   0  0  0  0  0  0  0  0  0  0  0  0  # atno 7974 bound_to 7965
  155.1637  140.3285  155.4406 H   0  0  0  0  0  0  0  0  0  0  0  0  # atno 8008 bound_to 7997
  156.2534  140.1955  156.6694 H   0  0  0  0  0  0  0  0  0  0  0  0  # atno 8009 bound_to 7997
  154.6386  140.0573  156.9805 H   0  0  0  0  0  0  0  0  0  0  0  0  # atno 8010 bound_to 7997
  139.8063  143.7764  152.2661 H   0  0  0  0  0  0  0  0  0  0  0  0  # atno 10167 bound_to 10162
  156.4383  130.4459  149.7070 H   0  0  0  0  0  0  0  0  0  0  0  0  # atno 10718 bound_to 10713
  154.1822  135.2799  155.3048 H   0  0  0  0  0  0  0  0  0  0  0  0  # atno 10763 bound_to 10752
  154.5994  135.5534  153.7362 H   0  0  0  0  0  0  0  0  0  0  0  0  # atno 10764 bound_to 10752
  153.0135  135.6388  154.1961 H   0  0  0  0  0  0  0  0  0  0  0  0  # atno 10765 bound_to 10752
  140.6418  133.9483  155.8330 H   0  0  0  0  0  0  0  0  0  0  0  0  # atno 11005 bound_to 11000
  145.8269  140.9651  143.0869 LP  0  0  0  0  0  0  0  0  0  0  0  0  # atno 17320 bound_to 7965
  144.6783  140.0112  143.7484 LP  0  0  0  0  0  0  0  0  0  0  0  0  # atno 17321 bound_to 7965
  139.7900  144.7414  150.9969 LP  0  0  0  0  0  0  0  0  0  0  0  0  # atno 17342 bound_to 10162
  140.7819  143.4452  151.0492 LP  0  0  0  0  0  0  0  0  0  0  0  0  # atno 17343 bound_to 10162
  156.3945  130.7644  151.2647 LP  0  0  0  0  0  0  0  0  0  0  0  0  # atno 17370 bound_to 10713
  157.7507  131.0258  150.3934 LP  0  0  0  0  0  0  0  0  0  0  0  0  # atno 17371 bound_to 10713
  141.0601  134.0358  157.3669 LP  0  0  0  0  0  0  0  0  0  0  0  0  # atno 17394 bound_to 11000
  139.9077  135.0183  156.7560 LP  0  0  0  0  0  0  0  0  0  0  0  0  # atno 17395 bound_to 11000

$$$$
