AV-unprocessed.smi:193|AV-procd|sdf|1504|dock9
  -GOLD-   2262019333D 1   1.00000     0.00000
 Structure written by MMmdl.
 62 66  0  0  0  0  0  0  0  0  2 V2000
  153.9865  141.2900  161.5382 C   0  0  0  0  0  0  0  0  0  0  0  0
  152.9564  141.3649  160.3995 C   0  0  2  0  0  0  0  0  0  0  0  0
  153.2471  140.2529  159.3697 C   0  0  0  0  0  0  0  0  0  0  0  0
  152.0919  139.8706  158.5547 N   0  0  0  0  0  0  0  0  0  0  0  0
  152.1150  138.6610  157.9360 C   0  0  0  0  0  0  0  0  0  0  0  0
  153.1412  137.8072  158.1939 N   0  0  0  0  0  0  0  0  0  0  0  0
  153.2011  136.6186  157.5864 C   0  0  0  0  0  0  0  0  0  0  0  0
  152.3545  136.0912  156.7010 N   0  0  0  0  0  0  0  0  0  0  0  0
  151.3160  136.9365  156.4444 C   0  0  0  0  0  0  0  0  0  0  0  0
  151.1163  138.2246  157.0175 C   0  0  0  0  0  0  0  0  0  0  0  0
  149.9350  138.7771  156.5340 N   0  0  0  0  0  0  0  0  0  0  0  0
  149.4725  137.8750  155.7125 C   0  0  0  0  0  0  0  0  0  0  0  0
  150.2477  136.7447  155.5855 N   0  0  0  0  0  0  0  0  0  0  0  0
  149.9802  135.5965  154.7328 C   0  0  0  0  0  0  0  0  0  0  0  0
  149.7022  134.2865  155.5125 C   0  0  0  0  0  0  0  0  0  0  0  0
  149.0265  133.3972  154.6405 O   0  0  0  0  0  0  0  0  0  0  0  0
  151.0274  133.6276  155.9447 C   0  0  0  0  0  0  0  0  0  0  0  0
  150.8015  132.4194  156.8708 C   0  0  0  0  0  0  0  0  0  0  0  0
  150.0256  132.8085  157.9974 O   0  0  0  0  0  0  0  0  0  0  0  0
  148.7230  133.2529  157.6393 C   0  0  0  0  0  0  0  0  0  0  0  0
  148.8161  134.5110  156.7578 C   0  0  0  0  0  0  0  0  0  0  0  0
  151.0900  140.8397  158.1120 C   0  0  0  0  0  0  0  0  0  0  0  0
  151.6836  142.2036  157.7383 C   0  0  0  0  0  0  0  0  0  0  0  0
  151.8055  143.0793  158.9277 N   0  3  2  0  0  0  0  0  0  0  0  0
  151.7510  144.5130  158.5563 C   0  0  2  0  0  0  0  0  0  0  0  0
  152.0441  145.4580  159.7000 C   0  0  0  0  0  0  0  0  0  0  0  0
  150.6242  145.3010  159.2014 C   0  0  2  0  0  0  0  0  0  0  0  0
  149.5677  144.6739  160.0933 C   0  0  0  0  0  0  0  0  0  0  0  0
  152.9929  142.7721  159.7625 C   0  0  0  0  0  0  0  0  0  0  0  0
  155.0007  141.4428  161.1671 H   0  0  0  0  0  0  0  0  0  0  0  0
  153.9564  140.3193  162.0340 H   0  0  0  0  0  0  0  0  0  0  0  0
  153.7921  142.0462  162.2994 H   0  0  0  0  0  0  0  0  0  0  0  0
  151.9773  141.1957  160.8510 H   0  0  0  0  0  0  0  0  0  0  0  0
  154.0780  140.5384  158.7230 H   0  0  0  0  0  0  0  0  0  0  0  0
  153.5725  139.3613  159.9085 H   0  0  0  0  0  0  0  0  0  0  0  0
  154.0499  136.0024  157.8442 H   0  0  0  0  0  0  0  0  0  0  0  0
  148.5520  138.0148  155.1642 H   0  0  0  0  0  0  0  0  0  0  0  0
  149.1372  135.8391  154.0837 H   0  0  0  0  0  0  0  0  0  0  0  0
  150.8394  135.4624  154.0744 H   0  0  0  0  0  0  0  0  0  0  0  0
  148.2684  133.8381  154.2886 H   0  0  0  0  0  0  0  0  0  0  0  0
  151.6072  133.3258  155.0714 H   0  0  0  0  0  0  0  0  0  0  0  0
  151.6374  134.3590  156.4768 H   0  0  0  0  0  0  0  0  0  0  0  0
  150.3103  131.6017  156.3408 H   0  0  0  0  0  0  0  0  0  0  0  0
  151.7596  132.0357  157.2217 H   0  0  0  0  0  0  0  0  0  0  0  0
  148.1807  132.4551  157.1299 H   0  0  0  0  0  0  0  0  0  0  0  0
  148.1676  133.4783  158.5497 H   0  0  0  0  0  0  0  0  0  0  0  0
  149.2341  135.3224  157.3547 H   0  0  0  0  0  0  0  0  0  0  0  0
  147.8125  134.8267  156.4703 H   0  0  0  0  0  0  0  0  0  0  0  0
  150.5893  140.4601  157.2207 H   0  0  0  0  0  0  0  0  0  0  0  0
  150.3156  140.9447  158.8728 H   0  0  0  0  0  0  0  0  0  0  0  0
  152.6311  142.1111  157.2047 H   0  0  0  0  0  0  0  0  0  0  0  0
  150.9915  142.6736  157.0386 H   0  0  0  0  0  0  0  0  0  0  0  0
  152.0901  144.7561  157.5506 H   0  0  0  0  0  0  0  0  0  0  0  0
  152.2889  145.0317  160.6713 H   0  0  0  0  0  0  0  0  0  0  0  0
  152.5529  146.3904  159.4630 H   0  0  0  0  0  0  0  0  0  0  0  0
  150.2391  146.1253  158.6043 H   0  0  0  0  0  0  0  0  0  0  0  0
  149.9979  143.9197  160.7528 H   0  0  0  0  0  0  0  0  0  0  0  0
  148.7918  144.2069  159.4865 H   0  0  0  0  0  0  0  0  0  0  0  0
  149.1037  145.4413  160.7130 H   0  0  0  0  0  0  0  0  0  0  0  0
  153.0330  143.5114  160.5635 H   0  0  0  0  0  0  0  0  0  0  0  0
  153.9050  142.9096  159.1794 H   0  0  0  0  0  0  0  0  0  0  0  0
  150.9900  142.9102  159.4990 H   0  0  0  0  0  0  0  0  0  0  0  0
  1  2  1  0  0  0  0
  1 30  1  0  0  0  0
  1 31  1  0  0  0  0
  1 32  1  0  0  0  0
  2 29  1  0  0  0  0
  2  3  1  0  0  0  0
  2 33  1  0  0  0  0
  3  4  1  0  0  0  0
  3 34  1  0  0  0  0
  3 35  1  0  0  0  0
  4  5  1  0  0  0  0
  4 22  1  0  0  0  0
  5 10  1  0  0  0  0
  5  6  2  0  0  0  0
  6  7  1  0  0  0  0
  7  8  2  0  0  0  0
  7 36  1  0  0  0  0
  8  9  1  0  0  0  0
  9 13  1  0  0  0  0
  9 10  2  0  0  0  0
 10 11  1  0  0  0  0
 11 12  2  0  0  0  0
 12 13  1  0  0  0  0
 12 37  1  0  0  0  0
 13 14  1  0  0  0  0
 14 15  1  0  0  0  0
 14 38  1  0  0  0  0
 14 39  1  0  0  0  0
 15 21  1  0  0  0  0
 15 16  1  0  0  0  0
 15 17  1  0  0  0  0
 16 40  1  0  0  0  0
 17 18  1  0  0  0  0
 17 41  1  0  0  0  0
 17 42  1  0  0  0  0
 18 19  1  0  0  0  0
 18 43  1  0  0  0  0
 18 44  1  0  0  0  0
 19 20  1  0  0  0  0
 20 21  1  0  0  0  0
 20 45  1  0  0  0  0
 20 46  1  0  0  0  0
 21 47  1  0  0  0  0
 21 48  1  0  0  0  0
 22 23  1  0  0  0  0
 22 49  1  0  0  0  0
 22 50  1  0  0  0  0
 23 24  1  0  0  0  0
 23 51  1  0  0  0  0
 23 52  1  0  0  0  0
 24 25  1  0  0  0  0
 24 29  1  0  0  0  0
 24 62  1  0  0  0  0
 25 27  1  0  0  0  0
 25 26  1  0  0  0  0
 25 53  1  0  0  0  0
 26 27  1  0  0  0  0
 26 54  1  0  0  0  0
 26 55  1  0  0  0  0
 27 28  1  0  0  0  0
 27 56  1  0  0  0  0
 28 57  1  0  0  0  0
 28 58  1  0  0  0  0
 28 59  1  0  0  0  0
 29 60  1  0  0  0  0
 29 61  1  0  0  0  0
M  CHG  1  24   1
M  END
> <s_m_source_file>
AV-unprocessed.smi

> <i_m_source_file_index>
193

> <i_lp_mmshare_version>
43012

> <i_f3d_flags>
0

> <s_epik_input>
W0NIM11bQ0BASF0xW0NIMl1bQ0BIXTFOKFtDSDJdMilbQ0gyXVtDSDJdTihbQ0gyXVtDQEhdMltDSDNdKWMobltjSF1uMyljKGMzNCluW2NIXW40W0NIMl1DNShbT0hdKVtDSDJdW0NIMl1PW0NIMl1bQ0gyXTU=

> <s_epik_cmdline>
J2VwaWtfcHl0aG9uJywgJy1waCcsICc3LjAnLCAnLXRuJywgJzgnLCAnLW1hJywgJzIwMCcsICctbWV0YWxfYmluZGluZycsICctaW1hZScsICc8aW5maWxlLm1hZT4nLCAnLW9tYWUnLCAnPG91dGZpbGUubWFlPic=

> <r_lp_tautomer_probability>
1

> <r_epik_Ionization_Penalty>
0.0540825

> <r_epik_Ionization_Penalty_Charging>
0.0538476

> <r_epik_Ionization_Penalty_Neutral>
0.000234891

> <r_epik_State_Penalty>
0.0200719

> <r_epik_Charging_Adjusted_Penalty>
0.0739194

> <i_epik_Tot_Q>
1

> <i_epik_Tot_abs_Q>
1

> <r_epik_Metal_State_Penalty>
0.0199414

> <b_epik_Metal_Only>
0

> <s_lp_Force_Field>
OPLS_2005

> <r_lp_Energy>
56.2911

> <b_lp_Chiralities_Consistent>
1

> <s_lp_Variant>
AV-unprocessed.smi:193-9

> <Gold.Version>
5.8.1

> <Gold.Id.Protein>
6NUR|6NUR_protein|mol2

> <Gold.PLP.Fitness>
50.3849

> <Gold.PLP.PLP>
-45.3439

> <Gold.PLP.part.hbond>
-2.0000

> <Gold.PLP.part.metal>
0.0000

> <Gold.PLP.part.buried>
-7.4110

> <Gold.PLP.part.nonpolar>
-36.0127

> <Gold.PLP.part.repulsive>
0.0434

> <Gold.PLP.ligand.clash>
0.0000

> <Gold.PLP.ligand.torsion>
1.1383

> <Gold.PLP.Chemscore.Hbond>
2.0000

> <Gold.PLP.Chemscore.CHOScore>
0.0000

> <Gold.PLP.Chemscore.Metal>
0.0000

> <Gold.Chemscore.Hbonds>
donor molecule, donor type, donor heavy atom, donor atom, acceptor molecule, acceptor atom, score
      P1  H  6896  6907       L1    19  1.00
      P1  H 10752 10763       L1     8  1.00

> <Gold.PLP.Chemscore.Internal.Correction>
1.3175

> <Gold.Rescore>
     Score         DG    S(hbond)    S(metal)    S(lipo)     H(rot)  DE(clash)    DE(int)     intcor
     18.41     -21.30       1.78        0.00     126.55       1.93       0.08       2.81       ----

> <Gold.Chemscore.Fitness>
18.4096

> <Gold.Chemscore.DG>
-21.3021

> <Gold.Chemscore.ZeroCoef>
-5.4800

> <Gold.Chemscore.Hbond>
1.7826

> <Gold.Chemscore.Metal>
0.0000

> <Gold.Chemscore.Lipo>
126.5508

> <Gold.Chemscore.Internal_Hbond>
0.0000

> <Gold.Chemscore.DEClash>
0.0811

> <Gold.Chemscore.DEInternal>
2.8113

> <Gold.Chemscore.Rot>
1.9290

> <Gold.Chemscore.Internal.Correction>
   9.000000E+99

> <Gold.Chemscore.Hbonds>
donor molecule, donor type, donor heavy atom, donor atom, acceptor molecule, acceptor atom, score
      P1  H  6896  6907       L1    19  0.82
      P1  H 10752 10763       L1     8  0.63

> <Gold.Chemscore.Hbond.Weighted>
-5.9539

> <Gold.Chemscore.Metal.Weighted>
-0.0000

> <Gold.Chemscore.Lipo.Weighted>
-14.8064

> <Gold.Chemscore.Internal_Hbond.Weighted>
0.0000

> <Gold.Chemscore.DEClash.Weighted>
0.0811

> <Gold.Chemscore.DEInternal.Weighted>
2.8113

> <Gold.Chemscore.Rot.Weighted>
4.9383

> <Gold.Chemscore.Internal.Correction.Weighted>
   9.000000E+99

> <Gold.Protein.RotatedTorsions>
[ 6907 6896 6895 6894 ] final -136.90 input  -60.11 | X-H torsion
[ 7974 7965 7964 7962 ] final  -77.01 input  175.53 | X-H torsion
[ 8008 7997 7996 7995 ] final  -27.50 input   59.86 | X-H torsion
[ 10167 10162 10161 10158 ] final  -48.41 input  -65.29 | X-H torsion
[ 10718 10713 10712 10709 ] final  -17.09 input   66.30 | X-H torsion
[ 10763 10752 10751 10750 ] final  106.30 input  -60.55 | X-H torsion
[ 11005 11000 10999 10996 ] final   20.59 input  -57.11 | X-H torsion

> <Gold.Protein.ActiveResidues>
 VAL166  LYS551  ARG553  GLY616  TRP617  ASP618  TYR619  PRO620  LYS621  CYS622 
 ASP623  PHE694  ASN695  SER759  ASP760  ASP761  ALA762  ILE779  LEU786  VAL792 
 PHE793  MET794  SER795  GLU796  ALA797  LYS798  CYS799  TRP800  GLU811  SER814 

> <Gold.Protein.RotatedAtoms>
  151.0158  133.5922  159.2676 H   0  0  0  0  0  0  0  0  0  0  0  0  # atno 6907 bound_to 6896
  151.3057  135.0780  159.9264 H   0  0  0  0  0  0  0  0  0  0  0  0  # atno 6908 bound_to 6896
  152.5311  133.9832  159.7870 H   0  0  0  0  0  0  0  0  0  0  0  0  # atno 6909 bound_to 6896
  145.6054  140.9399  143.1218 H   0  0  0  0  0  0  0  0  0  0  0  0  # atno 7974 bound_to 7965
  154.4374  140.1870  156.0942 H   0  0  0  0  0  0  0  0  0  0  0  0  # atno 8008 bound_to 7997
  156.0342  140.3327  155.7147 H   0  0  0  0  0  0  0  0  0  0  0  0  # atno 8009 bound_to 7997
  155.5794  140.0620  157.2777 H   0  0  0  0  0  0  0  0  0  0  0  0  # atno 8010 bound_to 7997
  140.6732  143.2741  151.4066 H   0  0  0  0  0  0  0  0  0  0  0  0  # atno 10167 bound_to 10162
  156.5784  130.4768  149.6331 H   0  0  0  0  0  0  0  0  0  0  0  0  # atno 10718 bound_to 10713
  153.3911  135.3881  155.1923 H   0  0  0  0  0  0  0  0  0  0  0  0  # atno 10763 bound_to 10752
  154.8719  135.3748  154.4737 H   0  0  0  0  0  0  0  0  0  0  0  0  # atno 10764 bound_to 10752
  153.5223  135.7086  153.5786 H   0  0  0  0  0  0  0  0  0  0  0  0  # atno 10765 bound_to 10752
  140.4009  134.1719  155.7664 H   0  0  0  0  0  0  0  0  0  0  0  0  # atno 11005 bound_to 11000
  144.7292  139.7778  143.7353 LP  0  0  0  0  0  0  0  0  0  0  0  0  # atno 17320 bound_to 7965
  146.1545  139.4638  143.0027 LP  0  0  0  0  0  0  0  0  0  0  0  0  # atno 17321 bound_to 7965
  139.6011  144.1294  152.2199 LP  0  0  0  0  0  0  0  0  0  0  0  0  # atno 17342 bound_to 10162
  140.0678  144.5804  150.7214 LP  0  0  0  0  0  0  0  0  0  0  0  0  # atno 17343 bound_to 10162
  156.2653  130.6986  151.1767 LP  0  0  0  0  0  0  0  0  0  0  0  0  # atno 17370 bound_to 10713
  157.7332  131.0593  150.5588 LP  0  0  0  0  0  0  0  0  0  0  0  0  # atno 17371 bound_to 10713
  141.1857  133.8318  157.1095 LP  0  0  0  0  0  0  0  0  0  0  0  0  # atno 17394 bound_to 11000
  140.0337  134.9888  157.0830 LP  0  0  0  0  0  0  0  0  0  0  0  0  # atno 17395 bound_to 11000

$$$$
