AV-unprocessed.smi:1999|AV-procd|sdf|8095|dock10
  -GOLD-   2272010313D 1   1.00000     0.00000
 Structure written by MMmdl.
 39 40  0  0  0  0  0  0  0  0  2 V2000
  152.2145  140.6162  158.1450 C   0  0  0  0  0  0  0  0  0  0  0  0
  151.7374  140.0948  156.8326 C   0  0  0  0  0  0  0  0  0  0  0  0
  152.5490  139.9457  155.7786 N   0  0  0  0  0  0  0  0  0  0  0  0
  151.8826  139.4475  154.6679 N   0  0  0  0  0  0  0  0  0  0  0  0
  150.5838  139.2334  154.9190 C   0  0  0  0  0  0  0  0  0  0  0  0
  149.6667  138.7346  153.9563 N   0  0  0  0  0  0  0  0  0  0  0  0
  148.3903  139.1051  153.7547 C   0  0  0  0  0  0  0  0  0  0  0  0
  147.8036  139.9988  154.3652 O   0  0  0  0  0  0  0  0  0  0  0  0
  147.8137  138.3647  152.7958 N   0  0  0  0  0  0  0  0  0  0  0  0
  146.4439  138.5122  152.3006 C   0  0  1  0  0  0  0  0  0  0  0  0
  146.4767  138.6032  150.7690 C   0  0  0  0  0  0  0  0  0  0  0  0
  145.5399  137.3482  152.7709 C   0  0  0  0  0  0  0  0  0  0  0  0
  146.0973  136.0088  152.4537 N   0  3  0  0  0  0  0  0  0  0  0  0
  146.1323  135.0903  153.6177 C   0  0  0  0  0  0  0  0  0  0  0  0
  146.7997  133.7623  153.2240 C   0  0  0  0  0  0  0  0  0  0  0  0
  146.0934  133.1821  152.1339 O   0  0  0  0  0  0  0  0  0  0  0  0
  146.1112  134.0165  150.9819 C   0  0  0  0  0  0  0  0  0  0  0  0
  145.4301  135.3584  151.3021 C   0  0  0  0  0  0  0  0  0  0  0  0
  150.0632  139.6338  156.5466 S   0  0  0  0  0  0  0  0  0  0  0  0
  153.1021  140.0707  158.4663 H   0  0  0  0  0  0  0  0  0  0  0  0
  151.4408  140.4996  158.9043 H   0  0  0  0  0  0  0  0  0  0  0  0
  152.4634  141.6739  158.0582 H   0  0  0  0  0  0  0  0  0  0  0  0
  150.0229  138.0017  153.3605 H   0  0  0  0  0  0  0  0  0  0  0  0
  148.3762  137.6540  152.3509 H   0  0  0  0  0  0  0  0  0  0  0  0
  146.0352  139.4565  152.6627 H   0  0  0  0  0  0  0  0  0  0  0  0
  145.4757  138.7524  150.3634 H   0  0  0  0  0  0  0  0  0  0  0  0
  146.8833  137.6945  150.3233 H   0  0  0  0  0  0  0  0  0  0  0  0
  147.0918  139.4408  150.4379 H   0  0  0  0  0  0  0  0  0  0  0  0
  145.3478  137.4166  153.8430 H   0  0  0  0  0  0  0  0  0  0  0  0
  144.5695  137.4556  152.2835 H   0  0  0  0  0  0  0  0  0  0  0  0
  146.6822  135.5406  154.4434 H   0  0  0  0  0  0  0  0  0  0  0  0
  145.1172  134.9065  153.9729 H   0  0  0  0  0  0  0  0  0  0  0  0
  147.8469  133.9155  152.9571 H   0  0  0  0  0  0  0  0  0  0  0  0
  146.7834  133.0695  154.0655 H   0  0  0  0  0  0  0  0  0  0  0  0
  147.1383  134.1718  150.6471 H   0  0  0  0  0  0  0  0  0  0  0  0
  145.5852  133.5114  150.1717 H   0  0  0  0  0  0  0  0  0  0  0  0
  144.3746  135.2008  151.5301 H   0  0  0  0  0  0  0  0  0  0  0  0
  145.4781  136.0094  150.4284 H   0  0  0  0  0  0  0  0  0  0  0  0
  147.0565  136.1601  152.1737 H   0  0  0  0  0  0  0  0  0  0  0  0
  1  2  1  0  0  0  0
  1 20  1  0  0  0  0
  1 21  1  0  0  0  0
  1 22  1  0  0  0  0
  2 19  1  0  0  0  0
  2  3  2  0  0  0  0
  3  4  1  0  0  0  0
  4  5  2  0  0  0  0
  5  6  1  0  0  0  0
  5 19  1  0  0  0  0
  6  7  1  0  0  0  0
  6 23  1  0  0  0  0
  7  8  2  0  0  0  0
  7  9  1  0  0  0  0
  9 10  1  0  0  0  0
  9 24  1  0  0  0  0
 10 11  1  0  0  0  0
 10 12  1  0  0  0  0
 10 25  1  0  0  0  0
 11 26  1  0  0  0  0
 11 27  1  0  0  0  0
 11 28  1  0  0  0  0
 12 13  1  0  0  0  0
 12 29  1  0  0  0  0
 12 30  1  0  0  0  0
 13 18  1  0  0  0  0
 13 14  1  0  0  0  0
 13 39  1  0  0  0  0
 14 15  1  0  0  0  0
 14 31  1  0  0  0  0
 14 32  1  0  0  0  0
 15 16  1  0  0  0  0
 15 33  1  0  0  0  0
 15 34  1  0  0  0  0
 16 17  1  0  0  0  0
 17 18  1  0  0  0  0
 17 35  1  0  0  0  0
 17 36  1  0  0  0  0
 18 37  1  0  0  0  0
 18 38  1  0  0  0  0
M  CHG  1  13   1
M  END
> <s_m_source_file>
AV-unprocessed.smi

> <i_m_source_file_index>
1999

> <i_lp_mmshare_version>
43012

> <i_f3d_flags>
0

> <s_epik_input>
W0NIM11jMW5uYyhzMSlbTkhdQyg9TylbTkhdW0NASF0oW0NIM10pW0NIMl1OMltDSDJdW0NIMl1PW0NIMl1bQ0gyXTI=

> <s_epik_cmdline>
J2VwaWtfcHl0aG9uJywgJy1waCcsICc3LjAnLCAnLXRuJywgJzgnLCAnLW1hJywgJzIwMCcsICctbWV0YWxfYmluZGluZycsICctaW1hZScsICc8aW5maWxlLm1hZT4nLCAnLW9tYWUnLCAnPG91dGZpbGUubWFlPic=

> <r_lp_tautomer_probability>
1

> <r_epik_Ionization_Penalty>
0.701298

> <r_epik_Ionization_Penalty_Charging>
0.695697

> <r_epik_Ionization_Penalty_Neutral>
0.00560124

> <r_epik_State_Penalty>
0.717972

> <r_epik_Charging_Adjusted_Penalty>
1.41367

> <i_epik_Tot_Q>
1

> <i_epik_Tot_abs_Q>
1

> <r_epik_Metal_State_Penalty>
1.07748

> <b_epik_Metal_Only>
0

> <s_lp_Force_Field>
OPLS_2005

> <r_lp_Energy>
20.3005

> <b_lp_Chiralities_Consistent>
1

> <s_lp_Variant>
AV-unprocessed.smi:1999-4

> <Gold.Version>
5.8.1

> <Gold.Id.Protein>
6NUR|6NUR_protein|mol2

> <Gold.PLP.Fitness>
40.2369

> <Gold.PLP.PLP>
-27.3876

> <Gold.PLP.part.hbond>
-5.8534

> <Gold.PLP.part.metal>
0.0000

> <Gold.PLP.part.buried>
1.7234

> <Gold.PLP.part.nonpolar>
-23.2580

> <Gold.PLP.part.repulsive>
0.4324

> <Gold.PLP.ligand.clash>
0.0000

> <Gold.PLP.ligand.torsion>
1.0998

> <Gold.PLP.Chemscore.Hbond>
5.0000

> <Gold.PLP.Chemscore.CHOScore>
0.0000

> <Gold.PLP.Chemscore.Metal>
0.0000

> <Gold.Chemscore.Hbonds>
donor molecule, donor type, donor heavy atom, donor atom, acceptor molecule, acceptor atom, score
      L1  H     9    24       P1  7948  1.00
      L1  H    13    39       P1  7948  2.00
      P1  H  7989  7998       L1     4  0.83
      P1  H  7997  8008       L1     3  1.00

> <Gold.PLP.Chemscore.Internal.Correction>
0.0489

> <Gold.Rescore>
     Score         DG    S(hbond)    S(metal)    S(lipo)     H(rot)  DE(clash)    DE(int)     intcor
     16.64     -18.00       3.01        0.00      56.76       1.63       0.38       0.98       ----

> <Gold.Chemscore.Fitness>
16.6361

> <Gold.Chemscore.DG>
-17.9956

> <Gold.Chemscore.ZeroCoef>
-5.4800

> <Gold.Chemscore.Hbond>
3.0096

> <Gold.Chemscore.Metal>
0.0000

> <Gold.Chemscore.Lipo>
56.7588

> <Gold.Chemscore.Internal_Hbond>
0.0000

> <Gold.Chemscore.DEClash>
0.3809

> <Gold.Chemscore.DEInternal>
0.9786

> <Gold.Chemscore.Rot>
1.6317

> <Gold.Chemscore.Internal.Correction>
   9.000000E+99

> <Gold.Chemscore.Hbonds>
donor molecule, donor type, donor heavy atom, donor atom, acceptor molecule, acceptor atom, score
      L1  H     9    24       P1  7948  0.98
      L1  H    13    39       P1  7948  1.00
      P1  H  7989  7998       L1     4  0.08
      P1  H  7997  8008       L1     3  0.85

> <Gold.Chemscore.Hbond.Weighted>
-10.0521

> <Gold.Chemscore.Metal.Weighted>
-0.0000

> <Gold.Chemscore.Lipo.Weighted>
-6.6408

> <Gold.Chemscore.Internal_Hbond.Weighted>
0.0000

> <Gold.Chemscore.DEClash.Weighted>
0.3809

> <Gold.Chemscore.DEInternal.Weighted>
0.9786

> <Gold.Chemscore.Rot.Weighted>
4.1773

> <Gold.Chemscore.Internal.Correction.Weighted>
   9.000000E+99

> <Gold.Protein.RotatedTorsions>
[ 6907 6896 6895 6894 ] final    5.19 input  -60.11 | X-H torsion
[ 7974 7965 7964 7962 ] final   94.04 input  175.53 | X-H torsion
[ 8008 7997 7996 7995 ] final  -36.00 input   59.86 | X-H torsion
[ 10167 10162 10161 10158 ] final   90.89 input  -65.29 | X-H torsion
[ 10718 10713 10712 10709 ] final  -79.42 input   66.30 | X-H torsion
[ 10763 10752 10751 10750 ] final -115.86 input  -60.55 | X-H torsion
[ 11005 11000 10999 10996 ] final -129.71 input  -57.11 | X-H torsion

> <Gold.Protein.ActiveResidues>
 VAL166  LYS551  ARG553  GLY616  TRP617  ASP618  TYR619  PRO620  LYS621  CYS622 
 ASP623  PHE694  ASN695  SER759  ASP760  ASP761  ALA762  ILE779  LEU786  VAL792 
 PHE793  MET794  SER795  GLU796  ALA797  LYS798  CYS799  TRP800  GLU811  SER814 

> <Gold.Protein.RotatedAtoms>
  151.6535  135.0998  160.0165 H   0  0  0  0  0  0  0  0  0  0  0  0  # atno 6907 bound_to 6896
  152.3987  133.6781  159.6306 H   0  0  0  0  0  0  0  0  0  0  0  0  # atno 6908 bound_to 6896
  150.7890  133.8745  159.3309 H   0  0  0  0  0  0  0  0  0  0  0  0  # atno 6909 bound_to 6896
  145.4709  139.2282  143.2935 H   0  0  0  0  0  0  0  0  0  0  0  0  # atno 7974 bound_to 7965
  154.4082  140.1642  156.2303 H   0  0  0  0  0  0  0  0  0  0  0  0  # atno 8008 bound_to 7997
  155.9288  140.3416  155.6209 H   0  0  0  0  0  0  0  0  0  0  0  0  # atno 8009 bound_to 7997
  155.7131  140.0759  157.2353 H   0  0  0  0  0  0  0  0  0  0  0  0  # atno 8010 bound_to 7997
  139.8429  144.6632  150.9262 H   0  0  0  0  0  0  0  0  0  0  0  0  # atno 10167 bound_to 10162
  156.0093  130.4545  150.3646 H   0  0  0  0  0  0  0  0  0  0  0  0  # atno 10718 bound_to 10713
  154.8497  135.4366  154.1729 H   0  0  0  0  0  0  0  0  0  0  0  0  # atno 10763 bound_to 10752
  153.2838  135.6956  153.7365 H   0  0  0  0  0  0  0  0  0  0  0  0  # atno 10764 bound_to 10752
  153.6558  135.3443  155.3088 H   0  0  0  0  0  0  0  0  0  0  0  0  # atno 10765 bound_to 10752
  140.9408  134.1195  157.4152 H   0  0  0  0  0  0  0  0  0  0  0  0  # atno 11005 bound_to 11000
  146.2397  140.5487  142.8939 LP  0  0  0  0  0  0  0  0  0  0  0  0  # atno 17320 bound_to 7965
  144.7946  140.6098  143.6519 LP  0  0  0  0  0  0  0  0  0  0  0  0  # atno 17321 bound_to 7965
  140.7796  143.3897  151.1332 LP  0  0  0  0  0  0  0  0  0  0  0  0  # atno 17342 bound_to 10162
  139.7541  143.8733  152.3084 LP  0  0  0  0  0  0  0  0  0  0  0  0  # atno 17343 bound_to 10162
  157.1733  131.0374  151.2784 LP  0  0  0  0  0  0  0  0  0  0  0  0  # atno 17370 bound_to 10713
  157.4210  130.7437  149.6913 LP  0  0  0  0  0  0  0  0  0  0  0  0  # atno 17371 bound_to 10713
  139.8820  135.0036  156.6197 LP  0  0  0  0  0  0  0  0  0  0  0  0  # atno 17394 bound_to 11000
  140.7736  133.8718  155.8511 LP  0  0  0  0  0  0  0  0  0  0  0  0  # atno 17395 bound_to 11000

$$$$
