AV-unprocessed.smi:37|AV-procd|sdf|331|dock9
  -GOLD-   2262016163D 1   1.00000     0.00000
 Structure written by MMmdl.
 43 44  0  0  0  0  0  0  0  0  2 V2000
  147.3908  134.9752  162.9304 C   0  0  0  0  0  0  0  0  0  0  0  0
  147.0696  134.8685  161.4338 C   0  0  0  0  0  0  0  0  0  0  0  0
  147.0320  136.2356  160.7547 C   0  0  0  0  0  0  0  0  0  0  0  0
  147.6439  137.1986  161.2178 O   0  0  0  0  0  0  0  0  0  0  0  0
  146.2823  136.2399  159.6407 O   0  0  0  0  0  0  0  0  0  0  0  0
  146.2825  137.3827  158.8015 C   0  0  0  0  0  0  0  0  0  0  0  0
  147.6321  137.4788  158.0697 C   0  0  2  0  0  0  0  0  0  0  0  0
  147.5543  138.5959  157.1764 O   0  0  0  0  0  0  0  0  0  0  0  0
  147.8951  138.2292  155.8713 C   0  0  1  0  0  0  0  0  0  0  0  0
  149.3635  138.5209  155.6077 N   0  0  0  0  0  0  0  0  0  0  0  0
  150.3729  137.9498  156.3679 C   0  0  0  0  0  0  0  0  0  0  0  0
  151.6718  138.2215  156.1272 C   0  0  0  0  0  0  0  0  0  0  0  0
  152.6259  137.6492  156.8818 F   0  0  0  0  0  0  0  0  0  0  0  0
  152.0318  139.1412  155.0505 C   0  0  0  0  0  0  0  0  0  0  0  0
  153.2186  139.3738  154.8268 O   0  0  0  0  0  0  0  0  0  0  0  0
  151.0195  139.7099  154.3346 N   0  5  0  0  0  0  0  0  0  0  0  0
  149.7032  139.4421  154.5777 C   0  0  0  0  0  0  0  0  0  0  0  0
  148.7846  139.9624  153.9439 O   0  0  0  0  0  0  0  0  0  0  0  0
  147.6130  136.7293  155.7786 C   0  0  2  0  0  0  0  0  0  0  0  0
  145.6727  136.4530  155.4012 Br  0  0  0  0  0  0  0  0  0  0  0  0
  147.9758  136.2674  157.1828 C   0  0  2  0  0  0  0  0  0  0  0  0
  147.3141  135.0666  157.5632 O   0  0  0  0  0  0  0  0  0  0  0  0
  147.8939  134.2124  158.4256 C   0  0  0  0  0  0  0  0  0  0  0  0
  149.0073  134.3426  158.9346 O   0  0  0  0  0  0  0  0  0  0  0  0
  147.0122  133.0058  158.7377 C   0  0  0  0  0  0  0  0  0  0  0  0
  146.8259  132.0951  157.5160 C   0  0  0  0  0  0  0  0  0  0  0  0
  147.4318  133.9854  163.3852 H   0  0  0  0  0  0  0  0  0  0  0  0
  146.6327  135.5510  163.4627 H   0  0  0  0  0  0  0  0  0  0  0  0
  148.3564  135.4548  163.0950 H   0  0  0  0  0  0  0  0  0  0  0  0
  147.8160  134.2479  160.9371 H   0  0  0  0  0  0  0  0  0  0  0  0
  146.1061  134.3782  161.2927 H   0  0  0  0  0  0  0  0  0  0  0  0
  145.4688  137.2761  158.0833 H   0  0  0  0  0  0  0  0  0  0  0  0
  146.0932  138.2853  159.3835 H   0  0  0  0  0  0  0  0  0  0  0  0
  148.4290  137.6271  158.7991 H   0  0  0  0  0  0  0  0  0  0  0  0
  147.3526  138.8367  155.1450 H   0  0  0  0  0  0  0  0  0  0  0  0
  150.1387  137.2755  157.1761 H   0  0  0  0  0  0  0  0  0  0  0  0
  148.1848  136.2343  154.9937 H   0  0  0  0  0  0  0  0  0  0  0  0
  149.0572  136.1290  157.2322 H   0  0  0  0  0  0  0  0  0  0  0  0
  147.4641  132.4414  159.5541 H   0  0  0  0  0  0  0  0  0  0  0  0
  146.0439  133.3583  159.0936 H   0  0  0  0  0  0  0  0  0  0  0  0
  146.2348  131.2178  157.7783 H   0  0  0  0  0  0  0  0  0  0  0  0
  147.7851  131.7458  157.1315 H   0  0  0  0  0  0  0  0  0  0  0  0
  146.3075  132.6114  156.7070 H   0  0  0  0  0  0  0  0  0  0  0  0
  1  2  1  0  0  0  0
  1 27  1  0  0  0  0
  1 28  1  0  0  0  0
  1 29  1  0  0  0  0
  2  3  1  0  0  0  0
  2 30  1  0  0  0  0
  2 31  1  0  0  0  0
  3  4  2  0  0  0  0
  3  5  1  0  0  0  0
  5  6  1  0  0  0  0
  6  7  1  0  0  0  0
  6 32  1  0  0  0  0
  6 33  1  0  0  0  0
  7 21  1  0  0  0  0
  7  8  1  0  0  0  0
  7 34  1  0  0  0  0
  8  9  1  0  0  0  0
  9 10  1  0  0  0  0
  9 19  1  0  0  0  0
  9 35  1  0  0  0  0
 10 17  1  0  0  0  0
 10 11  1  0  0  0  0
 11 12  2  0  0  0  0
 11 36  1  0  0  0  0
 12 13  1  0  0  0  0
 12 14  1  0  0  0  0
 14 15  2  0  0  0  0
 14 16  1  0  0  0  0
 16 17  1  0  0  0  0
 17 18  2  0  0  0  0
 19 20  1  0  0  0  0
 19 21  1  0  0  0  0
 19 37  1  0  0  0  0
 21 22  1  0  0  0  0
 21 38  1  0  0  0  0
 22 23  1  0  0  0  0
 23 24  2  0  0  0  0
 23 25  1  0  0  0  0
 25 26  1  0  0  0  0
 25 39  1  0  0  0  0
 25 40  1  0  0  0  0
 26 41  1  0  0  0  0
 26 42  1  0  0  0  0
 26 43  1  0  0  0  0
M  CHG  1  16  -1
M  END
> <s_m_source_file>
AV-unprocessed.smi

> <i_m_source_file_index>
37

> <i_lp_mmshare_version>
43012

> <i_f3d_flags>
0

> <s_epik_input>
W0NIM11bQ0gyXUMoPU8pT1tDSDJdW0NAQEhdMU9bQ0BASF0objJbY0hdYyhGKWMoPU8pW25IXWMyPU8pW0NAQEhdKEJyKVtDQEhdMU9DKD1PKVtDSDJdW0NIM10=

> <s_epik_cmdline>
J2VwaWtfcHl0aG9uJywgJy1waCcsICc3LjAnLCAnLXRuJywgJzgnLCAnLW1hJywgJzIwMCcsICctbWV0YWxfYmluZGluZycsICctaW1hZScsICc8aW5maWxlLm1hZT4nLCAnLW9tYWUnLCAnPG91dGZpbGUubWFlPic=

> <r_epik_Ionization_Penalty>
1.08158

> <r_epik_Ionization_Penalty_Charging>
9.05154e-09

> <r_epik_Ionization_Penalty_Neutral>
1.08158

> <r_epik_State_Penalty>
1.13706

> <r_epik_Charging_Adjusted_Penalty>
1.13706

> <i_epik_Tot_Q>
-1

> <i_epik_Tot_abs_Q>
1

> <r_epik_Metal_State_Penalty>
0.00343535

> <b_epik_Metal_Only>
0

> <s_epik_Chemistry_Notes>
This compound has an ester and may undergo hydrolysis at high or low pH. This compound contains an acetal/aminal-like group ( X-CH(R)-Y where X, Y are N, S, or O) that may be acid/base labile, releasing an aldehyde.

> <s_lp_Force_Field>
OPLS_2005

> <r_lp_Energy>
34.8108

> <b_lp_Chiralities_Consistent>
1

> <s_lp_Variant>
AV-unprocessed.smi:37-29

> <Gold.Version>
5.8.1

> <Gold.Id.Protein>
6NUR|6NUR_protein|mol2

> <Gold.PLP.Fitness>
38.4597

> <Gold.PLP.PLP>
-25.7195

> <Gold.PLP.part.hbond>
-5.6777

> <Gold.PLP.part.metal>
0.0000

> <Gold.PLP.part.buried>
-4.8632

> <Gold.PLP.part.nonpolar>
-15.7018

> <Gold.PLP.part.repulsive>
0.7088

> <Gold.PLP.ligand.clash>
0.0000

> <Gold.PLP.ligand.torsion>
0.8967

> <Gold.PLP.Chemscore.Hbond>
4.8153

> <Gold.PLP.Chemscore.CHOScore>
0.0000

> <Gold.PLP.Chemscore.Metal>
0.0000

> <Gold.Chemscore.Hbonds>
donor molecule, donor type, donor heavy atom, donor atom, acceptor molecule, acceptor atom, score
      P1  H  6896  6908       L1    24  1.00
      P1  H  6931  6943       L1     4  0.93
      P1  H  6934  6947       L1     4  0.88
      P1  H  7989  7998       L1    16  1.00
      P1  H  7997  8009       L1    15  1.00

> <Gold.PLP.Chemscore.Internal.Correction>
0.0879

> <Gold.Rescore>
     Score         DG    S(hbond)    S(metal)    S(lipo)     H(rot)  DE(clash)    DE(int)     intcor
     11.70     -16.11       4.61        0.00      30.78       3.27       0.07       4.34       ----

> <Gold.Chemscore.Fitness>
11.6992

> <Gold.Chemscore.DG>
-16.1081

> <Gold.Chemscore.ZeroCoef>
-5.4800

> <Gold.Chemscore.Hbond>
4.6077

> <Gold.Chemscore.Metal>
0.0000

> <Gold.Chemscore.Lipo>
30.7849

> <Gold.Chemscore.Internal_Hbond>
0.0000

> <Gold.Chemscore.DEClash>
0.0707

> <Gold.Chemscore.DEInternal>
4.3382

> <Gold.Chemscore.Rot>
3.2669

> <Gold.Chemscore.Internal.Correction>
   9.000000E+99

> <Gold.Chemscore.Hbonds>
donor molecule, donor type, donor heavy atom, donor atom, acceptor molecule, acceptor atom, score
      P1  H  6896  6908       L1    24  0.94
      P1  H  6931  6943       L1     4  0.91
      P1  H  6934  6947       L1     4  0.86
      P1  H  7989  7998       L1    16  0.57
      P1  H  7997  8009       L1    15  1.00

> <Gold.Chemscore.Hbond.Weighted>
-15.3896

> <Gold.Chemscore.Metal.Weighted>
-0.0000

> <Gold.Chemscore.Lipo.Weighted>
-3.6018

> <Gold.Chemscore.Internal_Hbond.Weighted>
0.0000

> <Gold.Chemscore.DEClash.Weighted>
0.0707

> <Gold.Chemscore.DEInternal.Weighted>
4.3382

> <Gold.Chemscore.Rot.Weighted>
8.3634

> <Gold.Chemscore.Internal.Correction.Weighted>
   9.000000E+99

> <Gold.Protein.RotatedTorsions>
[ 6907 6896 6895 6894 ] final  131.97 input  -60.11 | X-H torsion
[ 7974 7965 7964 7962 ] final  -93.96 input  175.53 | X-H torsion
[ 8008 7997 7996 7995 ] final -134.32 input   59.86 | X-H torsion
[ 10167 10162 10161 10158 ] final -163.70 input  -65.29 | X-H torsion
[ 10718 10713 10712 10709 ] final -137.31 input   66.30 | X-H torsion
[ 10763 10752 10751 10750 ] final   60.00 input  -60.55 | X-H torsion
[ 11005 11000 10999 10996 ] final   26.52 input  -57.11 | X-H torsion

> <Gold.Protein.ActiveResidues>
 VAL166  LYS551  ARG553  GLY616  TRP617  ASP618  TYR619  PRO620  LYS621  CYS622 
 ASP623  PHE694  ASN695  SER759  ASP760  ASP761  ALA762  ILE779  LEU786  VAL792 
 PHE793  MET794  SER795  GLU796  ALA797  LYS798  CYS799  TRP800  GLU811  SER814 

> <Gold.Protein.RotatedAtoms>
  152.3372  133.6025  159.5850 H   0  0  0  0  0  0  0  0  0  0  0  0  # atno 6907 bound_to 6896
  150.7457  133.9777  159.3575 H   0  0  0  0  0  0  0  0  0  0  0  0  # atno 6908 bound_to 6896
  151.7646  135.0802  160.0402 H   0  0  0  0  0  0  0  0  0  0  0  0  # atno 6909 bound_to 6896
  145.3795  140.9516  143.2401 H   0  0  0  0  0  0  0  0  0  0  0  0  # atno 7974 bound_to 7965
  155.3601  140.0482  157.3046 H   0  0  0  0  0  0  0  0  0  0  0  0  # atno 8008 bound_to 7997
  154.5182  140.2216  155.8988 H   0  0  0  0  0  0  0  0  0  0  0  0  # atno 8009 bound_to 7997
  156.1660  140.3106  155.8896 H   0  0  0  0  0  0  0  0  0  0  0  0  # atno 8010 bound_to 7997
  139.6302  144.0454  152.2009 H   0  0  0  0  0  0  0  0  0  0  0  0  # atno 10167 bound_to 10162
  156.2867  130.7351  151.1365 H   0  0  0  0  0  0  0  0  0  0  0  0  # atno 10718 bound_to 10713
  152.9909  135.5552  154.5803 H   0  0  0  0  0  0  0  0  0  0  0  0  # atno 10763 bound_to 10752
  154.5185  135.2806  155.1284 H   0  0  0  0  0  0  0  0  0  0  0  0  # atno 10764 bound_to 10752
  154.2647  135.6374  153.5340 H   0  0  0  0  0  0  0  0  0  0  0  0  # atno 10765 bound_to 10752
  140.3361  134.2384  155.7696 H   0  0  0  0  0  0  0  0  0  0  0  0  # atno 11005 bound_to 11000
  144.8517  139.5311  143.6853 LP  0  0  0  0  0  0  0  0  0  0  0  0  # atno 17320 bound_to 7965
  146.2848  139.6975  142.9203 LP  0  0  0  0  0  0  0  0  0  0  0  0  # atno 17321 bound_to 7965
  140.0117  144.6218  150.7641 LP  0  0  0  0  0  0  0  0  0  0  0  0  # atno 17342 bound_to 10162
  140.7435  143.2846  151.3499 LP  0  0  0  0  0  0  0  0  0  0  0  0  # atno 17343 bound_to 10162
  157.7330  131.0594  150.5597 LP  0  0  0  0  0  0  0  0  0  0  0  0  # atno 17370 bound_to 10713
  156.5709  130.4279  149.6020 LP  0  0  0  0  0  0  0  0  0  0  0  0  # atno 17371 bound_to 10713
  141.2051  133.7870  157.0253 LP  0  0  0  0  0  0  0  0  0  0  0  0  # atno 17394 bound_to 11000
  140.0820  134.9643  157.1639 LP  0  0  0  0  0  0  0  0  0  0  0  0  # atno 17395 bound_to 11000

$$$$
