AV-unprocessed.smi:3057|AV-procd|sdf|11664|dock1
  -GOLD-   2272017 63D 1   1.00000     0.00000
 Structure written by MMmdl.
 40 42  0  0  0  0  0  0  0  0  1 V2000
  148.8265  139.2895  156.9189 C   0  0  0  0  0  0  0  0  0  0  0  0
  149.7230  139.6447  155.7168 C   0  0  2  0  0  0  0  0  0  0  0  0
  149.3518  138.8215  154.4699 C   0  0  0  0  0  0  0  0  0  0  0  0
  150.3252  137.6337  154.4877 C   0  0  0  0  0  0  0  0  0  0  0  0
  151.4773  138.1665  155.3245 C   0  0  0  0  0  0  0  0  0  0  0  0
  152.5968  137.6572  155.3367 O   0  0  0  0  0  0  0  0  0  0  0  0
  151.1033  139.2794  155.9683 N   0  0  0  0  0  0  0  0  0  0  0  0
  151.9766  140.2774  156.5916 C   0  0  2  0  0  0  0  0  0  0  0  0
  152.3575  139.8682  158.0256 C   0  0  0  0  0  0  0  0  0  0  0  0
  152.2404  138.7037  158.4105 O   0  0  0  0  0  0  0  0  0  0  0  0
  152.7987  140.8583  158.8155 N   0  0  0  0  0  0  0  0  0  0  0  0
  153.1882  140.7117  160.2150 C   0  0  0  0  0  0  0  0  0  0  0  0
  153.7767  142.0029  160.8206 C   0  0  0  0  0  0  0  0  0  0  0  0
  153.1556  143.2751  160.2681 C   0  0  0  0  0  0  0  0  0  0  0  0
  152.4236  144.1422  161.1075 C   0  0  0  0  0  0  0  0  0  0  0  0
  151.8506  145.2980  160.5435 C   0  0  0  0  0  0  0  0  0  0  0  0
  152.0352  145.5442  159.1695 C   0  0  0  0  0  0  0  0  0  0  0  0
  152.7887  144.6201  158.4181 C   0  0  0  0  0  0  0  0  0  0  0  0
  153.3398  143.5069  158.9488 N   0  0  0  0  0  0  0  0  0  0  0  0
  151.1728  141.6023  156.6252 C   0  0  0  0  0  0  0  0  0  0  0  0
  149.7982  141.4241  155.4547 S   0  0  0  0  0  0  0  0  0  0  0  0
  148.8673  138.2237  157.1459 H   0  0  0  0  0  0  0  0  0  0  0  0
  147.7858  139.5447  156.7175 H   0  0  0  0  0  0  0  0  0  0  0  0
  149.1245  139.8282  157.8186 H   0  0  0  0  0  0  0  0  0  0  0  0
  148.3091  138.5020  154.4712 H   0  0  0  0  0  0  0  0  0  0  0  0
  149.5106  139.4060  153.5623 H   0  0  0  0  0  0  0  0  0  0  0  0
  149.8886  136.7673  154.9855 H   0  0  0  0  0  0  0  0  0  0  0  0
  150.6462  137.3445  153.4867 H   0  0  0  0  0  0  0  0  0  0  0  0
  152.8730  140.3987  155.9806 H   0  0  0  0  0  0  0  0  0  0  0  0
  152.8615  141.7861  158.4217 H   0  0  0  0  0  0  0  0  0  0  0  0
  152.3411  140.3641  160.8080 H   0  0  0  0  0  0  0  0  0  0  0  0
  153.9377  139.9209  160.2574 H   0  0  0  0  0  0  0  0  0  0  0  0
  153.6485  141.9905  161.9036 H   0  0  0  0  0  0  0  0  0  0  0  0
  154.8534  142.0300  160.6496 H   0  0  0  0  0  0  0  0  0  0  0  0
  152.2956  143.9229  162.1576 H   0  0  0  0  0  0  0  0  0  0  0  0
  151.2784  145.9812  161.1534 H   0  0  0  0  0  0  0  0  0  0  0  0
  151.6101  146.4203  158.7026 H   0  0  0  0  0  0  0  0  0  0  0  0
  152.9516  144.7783  157.3622 H   0  0  0  0  0  0  0  0  0  0  0  0
  150.7377  141.7933  157.6072 H   0  0  0  0  0  0  0  0  0  0  0  0
  151.7901  142.4634  156.3675 H   0  0  0  0  0  0  0  0  0  0  0  0
  1  2  1  0  0  0  0
  1 22  1  0  0  0  0
  1 23  1  0  0  0  0
  1 24  1  0  0  0  0
  2  7  1  0  0  0  0
  2 21  1  0  0  0  0
  2  3  1  0  0  0  0
  3  4  1  0  0  0  0
  3 25  1  0  0  0  0
  3 26  1  0  0  0  0
  4  5  1  0  0  0  0
  4 27  1  0  0  0  0
  4 28  1  0  0  0  0
  5  6  2  0  0  0  0
  5  7  1  0  0  0  0
  7  8  1  0  0  0  0
  8  9  1  0  0  0  0
  8 20  1  0  0  0  0
  8 29  1  0  0  0  0
  9 10  2  0  0  0  0
  9 11  1  0  0  0  0
 11 12  1  0  0  0  0
 11 30  1  0  0  0  0
 12 13  1  0  0  0  0
 12 31  1  0  0  0  0
 12 32  1  0  0  0  0
 13 14  1  0  0  0  0
 13 33  1  0  0  0  0
 13 34  1  0  0  0  0
 14 19  1  0  0  0  0
 14 15  2  0  0  0  0
 15 16  1  0  0  0  0
 15 35  1  0  0  0  0
 16 17  2  0  0  0  0
 16 36  1  0  0  0  0
 17 18  1  0  0  0  0
 17 37  1  0  0  0  0
 18 19  2  0  0  0  0
 18 38  1  0  0  0  0
 20 21  1  0  0  0  0
 20 39  1  0  0  0  0
 20 40  1  0  0  0  0
M  END
> <s_m_source_file>
AV-unprocessed.smi

> <i_m_source_file_index>
3057

> <i_lp_mmshare_version>
43012

> <i_f3d_flags>
0

> <s_epik_input>
W0NIMl0xW0NIMl1DKD1PKU4oW0NAQF0xMltDSDNdKVtDQEhdKFtDSDJdUzIpQyg9TylbTkhdW0NIMl1bQ0gyXWMzW2NIXVtjSF1bY0hdW2NIXW4z

> <s_epik_cmdline>
J2VwaWtfcHl0aG9uJywgJy1waCcsICc3LjAnLCAnLXRuJywgJzgnLCAnLW1hJywgJzIwMCcsICctbWV0YWxfYmluZGluZycsICctaW1hZScsICc8aW5maWxlLm1hZT4nLCAnLW9tYWUnLCAnPG91dGZpbGUubWFlPic=

> <r_epik_Ionization_Penalty>
0.0249631

> <r_epik_Ionization_Penalty_Charging>
0

> <r_epik_Ionization_Penalty_Neutral>
0.0249631

> <r_epik_State_Penalty>
0.0202943

> <r_epik_Charging_Adjusted_Penalty>
0.0202943

> <i_epik_Tot_Q>
0

> <i_epik_Tot_abs_Q>
0

> <r_epik_Metal_State_Penalty>
0.0194661

> <b_epik_Metal_Only>
0

> <s_lp_Force_Field>
OPLS_2005

> <r_lp_Energy>
26.6501

> <b_lp_Chiralities_Consistent>
1

> <s_lp_Variant>
AV-unprocessed.smi:3057-4

> <Gold.Version>
5.8.1

> <Gold.Id.Protein>
6NUR|6NUR_protein|mol2

> <Gold.PLP.Fitness>
46.8633

> <Gold.PLP.PLP>
-46.8366

> <Gold.PLP.part.hbond>
-1.0000

> <Gold.PLP.part.metal>
0.0000

> <Gold.PLP.part.buried>
-4.8088

> <Gold.PLP.part.nonpolar>
-42.6689

> <Gold.PLP.part.repulsive>
0.1295

> <Gold.PLP.ligand.clash>
0.0000

> <Gold.PLP.ligand.torsion>
0.6584

> <Gold.PLP.Chemscore.Hbond>
0.4290

> <Gold.PLP.Chemscore.CHOScore>
0.0000

> <Gold.PLP.Chemscore.Metal>
0.0000

> <Gold.Chemscore.Hbonds>
donor molecule, donor type, donor heavy atom, donor atom, acceptor molecule, acceptor atom, score
      P1  H 10752 10765       L1     6  0.33

> <Gold.PLP.Chemscore.Internal.Correction>
0.0564

> <Gold.Rescore>
     Score         DG    S(hbond)    S(metal)    S(lipo)     H(rot)  DE(clash)    DE(int)     intcor
     15.59     -18.18       0.63        0.00     124.01       1.53       0.17       2.42       ----

> <Gold.Chemscore.Fitness>
15.5926

> <Gold.Chemscore.DG>
-18.1800

> <Gold.Chemscore.ZeroCoef>
-5.4800

> <Gold.Chemscore.Hbond>
0.6342

> <Gold.Chemscore.Metal>
0.0000

> <Gold.Chemscore.Lipo>
124.0052

> <Gold.Chemscore.Internal_Hbond>
0.0000

> <Gold.Chemscore.DEClash>
0.1679

> <Gold.Chemscore.DEInternal>
2.4195

> <Gold.Chemscore.Rot>
1.5339

> <Gold.Chemscore.Internal.Correction>
   9.000000E+99

> <Gold.Chemscore.Hbonds>
donor molecule, donor type, donor heavy atom, donor atom, acceptor molecule, acceptor atom, score
      P1  H 10752 10765       L1     6  0.32

> <Gold.Chemscore.Hbond.Weighted>
-2.1182

> <Gold.Chemscore.Metal.Weighted>
-0.0000

> <Gold.Chemscore.Lipo.Weighted>
-14.5086

> <Gold.Chemscore.Internal_Hbond.Weighted>
0.0000

> <Gold.Chemscore.DEClash.Weighted>
0.1679

> <Gold.Chemscore.DEInternal.Weighted>
2.4195

> <Gold.Chemscore.Rot.Weighted>
3.9267

> <Gold.Chemscore.Internal.Correction.Weighted>
   9.000000E+99

> <Gold.Protein.RotatedTorsions>
[ 6907 6896 6895 6894 ] final  -55.60 input  -60.11 | X-H torsion
[ 7974 7965 7964 7962 ] final   95.33 input  175.53 | X-H torsion
[ 8008 7997 7996 7995 ] final  -54.67 input   59.86 | X-H torsion
[ 10167 10162 10161 10158 ] final  -10.95 input  -65.29 | X-H torsion
[ 10718 10713 10712 10709 ] final -136.04 input   66.30 | X-H torsion
[ 10763 10752 10751 10750 ] final -169.72 input  -60.55 | X-H torsion
[ 11005 11000 10999 10996 ] final   71.22 input  -57.11 | X-H torsion

> <Gold.Protein.ActiveResidues>
 VAL166  LYS551  ARG553  GLY616  TRP617  ASP618  TYR619  PRO620  LYS621  CYS622 
 ASP623  PHE694  ASN695  SER759  ASP760  ASP761  ALA762  ILE779  LEU786  VAL792 
 PHE793  MET794  SER795  GLU796  ALA797  LYS798  CYS799  TRP800  GLU811  SER814 

> <Gold.Protein.RotatedAtoms>
  150.8238  134.7459  159.6794 H   0  0  0  0  0  0  0  0  0  0  0  0  # atno 6907 bound_to 6896
  152.4351  134.5699  159.9928 H   0  0  0  0  0  0  0  0  0  0  0  0  # atno 6908 bound_to 6896
  151.5877  133.3333  159.3057 H   0  0  0  0  0  0  0  0  0  0  0  0  # atno 6909 bound_to 6896
  145.4536  139.2291  143.3026 H   0  0  0  0  0  0  0  0  0  0  0  0  # atno 7974 bound_to 7965
  154.4170  140.1171  156.5354 H   0  0  0  0  0  0  0  0  0  0  0  0  # atno 8008 bound_to 7997
  155.6563  140.3496  155.4747 H   0  0  0  0  0  0  0  0  0  0  0  0  # atno 8009 bound_to 7997
  155.9751  140.1149  157.0767 H   0  0  0  0  0  0  0  0  0  0  0  0  # atno 8010 bound_to 7997
  140.7126  143.5692  150.9111 H   0  0  0  0  0  0  0  0  0  0  0  0  # atno 10167 bound_to 10162
  156.2727  130.7275  151.1247 H   0  0  0  0  0  0  0  0  0  0  0  0  # atno 10718 bound_to 10713
  154.6493  135.2909  155.0007 H   0  0  0  0  0  0  0  0  0  0  0  0  # atno 10763 bound_to 10752
  154.1106  135.6563  153.4888 H   0  0  0  0  0  0  0  0  0  0  0  0  # atno 10764 bound_to 10752
  153.0368  135.5264  154.7394 H   0  0  0  0  0  0  0  0  0  0  0  0  # atno 10765 bound_to 10752
  139.9555  134.7152  156.0763 H   0  0  0  0  0  0  0  0  0  0  0  0  # atno 11005 bound_to 11000
  146.2491  140.5297  142.8901 LP  0  0  0  0  0  0  0  0  0  0  0  0  # atno 17320 bound_to 7965
  144.8046  140.6276  143.6455 LP  0  0  0  0  0  0  0  0  0  0  0  0  # atno 17321 bound_to 7965
  139.9418  143.6373  152.3052 LP  0  0  0  0  0  0  0  0  0  0  0  0  # atno 17342 bound_to 10162
  139.6860  144.7651  151.1522 LP  0  0  0  0  0  0  0  0  0  0  0  0  # atno 17343 bound_to 10162
  157.7289  131.0628  150.5798 LP  0  0  0  0  0  0  0  0  0  0  0  0  # atno 17370 bound_to 10713
  156.5896  130.4325  149.5942 LP  0  0  0  0  0  0  0  0  0  0  0  0  # atno 17371 bound_to 10713
  141.1225  133.6608  156.3252 LP  0  0  0  0  0  0  0  0  0  0  0  0  # atno 17394 bound_to 11000
  140.5619  134.5925  157.5436 LP  0  0  0  0  0  0  0  0  0  0  0  0  # atno 17395 bound_to 11000

$$$$
