AV-unprocessed.smi:99|AV-procd|sdf|876|dock6
  -GOLD-   2262017343D 1   1.00000     0.00000
 Structure written by MMmdl.
 53 56  0  0  0  0  0  0  0  0  1 V2000
  150.6848  141.7484  155.9178 O   0  0  0  0  0  0  0  0  0  0  0  0
  151.1570  141.4864  157.0260 C   0  0  0  0  0  0  0  0  0  0  0  0
  151.3105  140.2313  157.4923 O   0  0  0  0  0  0  0  0  0  0  0  0
  150.8490  139.1309  156.7264 C   0  0  0  0  0  0  0  0  0  0  0  0
  149.5449  138.5939  157.3367 C   0  0  1  0  0  0  0  0  0  0  0  0
  148.4379  139.2339  156.7134 O   0  0  0  0  0  0  0  0  0  0  0  0
  148.0350  138.5101  155.5935 C   0  0  2  0  0  0  0  0  0  0  0  0
  146.5207  138.5695  155.5459 N   0  0  0  0  0  0  0  0  0  0  0  0
  145.7545  138.2981  156.6739 C   0  0  0  0  0  0  0  0  0  0  0  0
  144.4068  138.4214  156.7076 C   0  0  0  0  0  0  0  0  0  0  0  0
  143.6777  138.8851  155.5331 C   0  0  0  0  0  0  0  0  0  0  0  0
  142.4576  139.0149  155.4603 O   0  0  0  0  0  0  0  0  0  0  0  0
  144.4871  139.2006  154.4386 N   0  0  0  0  0  0  0  0  0  0  0  0
  145.8783  139.0908  154.3981 C   0  0  0  0  0  0  0  0  0  0  0  0
  146.4841  139.4380  153.3848 O   0  0  0  0  0  0  0  0  0  0  0  0
  148.5919  137.0770  155.7122 C   0  0  1  0  0  0  0  0  0  0  0  0
  149.5030  136.7672  154.6763 O   0  0  0  0  0  0  0  0  0  0  0  0
  149.3360  137.1039  157.0466 C   0  0  2  0  0  0  0  0  0  0  0  0
  148.5510  136.5378  158.0888 O   0  0  0  0  0  0  0  0  0  0  0  0
  148.9811  136.5476  159.3684 C   0  0  0  0  0  0  0  0  0  0  0  0
  150.1165  136.8882  159.7055 O   0  0  0  0  0  0  0  0  0  0  0  0
  147.9373  136.0916  160.3303 C   0  0  0  0  0  0  0  0  0  0  0  0
  148.2151  136.1124  161.7170 C   0  0  0  0  0  0  0  0  0  0  0  0
  147.2491  135.6842  162.6482 C   0  0  0  0  0  0  0  0  0  0  0  0
  145.9939  135.2289  162.2042 C   0  0  0  0  0  0  0  0  0  0  0  0
  145.7059  135.2017  160.8272 C   0  0  0  0  0  0  0  0  0  0  0  0
  146.6704  135.6299  159.8943 C   0  0  0  0  0  0  0  0  0  0  0  0
  151.6184  142.5261  157.9906 C   0  0  0  0  0  0  0  0  0  0  0  0
  152.0436  142.1334  159.2813 C   0  0  0  0  0  0  0  0  0  0  0  0
  152.4844  143.0921  160.2142 C   0  0  0  0  0  0  0  0  0  0  0  0
  152.5051  144.4557  159.8678 C   0  0  0  0  0  0  0  0  0  0  0  0
  152.0853  144.8593  158.5870 C   0  0  0  0  0  0  0  0  0  0  0  0
  151.6443  143.9017  157.6526 C   0  0  0  0  0  0  0  0  0  0  0  0
  144.0273  139.5505  153.6105 H   0  0  0  0  0  0  0  0  0  0  0  0
  150.7016  139.4240  155.6861 H   0  0  0  0  0  0  0  0  0  0  0  0
  151.6113  138.3507  156.7416 H   0  0  0  0  0  0  0  0  0  0  0  0
  149.5433  138.7880  158.4104 H   0  0  0  0  0  0  0  0  0  0  0  0
  148.4126  139.0005  154.6950 H   0  0  0  0  0  0  0  0  0  0  0  0
  146.2370  137.9802  157.5839 H   0  0  0  0  0  0  0  0  0  0  0  0
  143.8658  138.1842  157.6125 H   0  0  0  0  0  0  0  0  0  0  0  0
  147.8018  136.3270  155.6806 H   0  0  0  0  0  0  0  0  0  0  0  0
  149.0161  136.6103  153.8819 H   0  0  0  0  0  0  0  0  0  0  0  0
  150.2950  136.5847  156.9977 H   0  0  0  0  0  0  0  0  0  0  0  0
  149.1718  136.4580  162.0818 H   0  0  0  0  0  0  0  0  0  0  0  0
  147.4719  135.7057  163.7048 H   0  0  0  0  0  0  0  0  0  0  0  0
  145.2531  134.9009  162.9186 H   0  0  0  0  0  0  0  0  0  0  0  0
  144.7431  134.8513  160.4849 H   0  0  0  0  0  0  0  0  0  0  0  0
  146.4166  135.5939  158.8447 H   0  0  0  0  0  0  0  0  0  0  0  0
  152.0359  141.0923  159.5703 H   0  0  0  0  0  0  0  0  0  0  0  0
  152.8065  142.7803  161.1968 H   0  0  0  0  0  0  0  0  0  0  0  0
  152.8421  145.1907  160.5840 H   0  0  0  0  0  0  0  0  0  0  0  0
  152.1009  145.9057  158.3199 H   0  0  0  0  0  0  0  0  0  0  0  0
  151.3287  144.2456  156.6783 H   0  0  0  0  0  0  0  0  0  0  0  0
  1  2  2  0  0  0  0
  2  3  1  0  0  0  0
  2 28  1  0  0  0  0
  3  4  1  0  0  0  0
  4  5  1  0  0  0  0
  4 35  1  0  0  0  0
  4 36  1  0  0  0  0
  5 18  1  0  0  0  0
  5  6  1  0  0  0  0
  5 37  1  0  0  0  0
  6  7  1  0  0  0  0
  7  8  1  0  0  0  0
  7 16  1  0  0  0  0
  7 38  1  0  0  0  0
  8 14  1  0  0  0  0
  8  9  1  0  0  0  0
  9 10  2  0  0  0  0
  9 39  1  0  0  0  0
 10 11  1  0  0  0  0
 10 40  1  0  0  0  0
 11 12  2  0  0  0  0
 11 13  1  0  0  0  0
 13 34  1  0  0  0  0
 13 14  1  0  0  0  0
 14 15  2  0  0  0  0
 16 17  1  0  0  0  0
 16 18  1  0  0  0  0
 16 41  1  0  0  0  0
 17 42  1  0  0  0  0
 18 19  1  0  0  0  0
 18 43  1  0  0  0  0
 19 20  1  0  0  0  0
 20 21  2  0  0  0  0
 20 22  1  0  0  0  0
 22 27  1  0  0  0  0
 22 23  2  0  0  0  0
 23 24  1  0  0  0  0
 23 44  1  0  0  0  0
 24 25  2  0  0  0  0
 24 45  1  0  0  0  0
 25 26  1  0  0  0  0
 25 46  1  0  0  0  0
 26 27  2  0  0  0  0
 26 47  1  0  0  0  0
 27 48  1  0  0  0  0
 28 33  1  0  0  0  0
 28 29  2  0  0  0  0
 29 30  1  0  0  0  0
 29 49  1  0  0  0  0
 30 31  2  0  0  0  0
 30 50  1  0  0  0  0
 31 32  1  0  0  0  0
 31 51  1  0  0  0  0
 32 33  2  0  0  0  0
 32 52  1  0  0  0  0
 33 53  1  0  0  0  0
M  END
> <s_m_source_file>
AV-unprocessed.smi

> <i_m_source_file_index>
99

> <i_lp_mmshare_version>
43012

> <i_f3d_flags>
0

> <s_epik_input>
W2NIXTFbY0hdW2NIXVtjSF1bY0hdYzFDKD1PKU9bQ0gyXVtDQEBIXTJPW0NAQEhdKG4zW2NIXVtjSF1jKD1PKVtuSF1jMz1PKVtDQEBIXShbT0hdKVtDQEhdMk9DKD1PKWM0W2NIXVtjSF1bY0hdW2NIXVtjSF00

> <s_epik_cmdline>
J2VwaWtfcHl0aG9uJywgJy1waCcsICc3LjAnLCAnLXRuJywgJzgnLCAnLW1hJywgJzIwMCcsICctbWV0YWxfYmluZGluZycsICctaW1hZScsICc8aW5maWxlLm1hZT4nLCAnLW9tYWUnLCAnPG91dGZpbGUubWFlPic=

> <r_lp_tautomer_probability>
1

> <r_epik_Ionization_Penalty>
0.00454555

> <r_epik_Ionization_Penalty_Charging>
0.0045191

> <r_epik_Ionization_Penalty_Neutral>
2.64449e-05

> <r_epik_State_Penalty>
-0

> <r_epik_Charging_Adjusted_Penalty>
0.0045191

> <i_epik_Tot_Q>
0

> <i_epik_Tot_abs_Q>
0

> <r_epik_Metal_State_Penalty>
1.27877

> <b_epik_Metal_Only>
0

> <s_epik_Chemistry_Notes>
This compound has an ester and may undergo hydrolysis at high or low pH. This compound contains an acetal/aminal-like group ( X-CH(R)-Y where X, Y are N, S, or O) that may be acid/base labile, releasing an aldehyde.

> <s_lp_Force_Field>
OPLS_2005

> <r_lp_Energy>
32.4523

> <b_lp_Chiralities_Consistent>
1

> <s_lp_Variant>
AV-unprocessed.smi:99-12

> <Gold.Version>
5.8.1

> <Gold.Id.Protein>
6NUR|6NUR_protein|mol2

> <Gold.PLP.Fitness>
51.2925

> <Gold.PLP.PLP>
-43.8552

> <Gold.PLP.part.hbond>
-3.0865

> <Gold.PLP.part.metal>
0.0000

> <Gold.PLP.part.buried>
-6.9728

> <Gold.PLP.part.nonpolar>
-33.7788

> <Gold.PLP.part.repulsive>
0.3829

> <Gold.PLP.ligand.clash>
0.0000

> <Gold.PLP.ligand.torsion>
0.9175

> <Gold.PLP.Chemscore.Hbond>
2.9338

> <Gold.PLP.Chemscore.CHOScore>
0.0000

> <Gold.PLP.Chemscore.Metal>
0.0000

> <Gold.Chemscore.Hbonds>
donor molecule, donor type, donor heavy atom, donor atom, acceptor molecule, acceptor atom, score
      L1  H    13    34       P1 10175  0.89
      L1  H    17    42       P1  7948  0.97
      P1  H  6896  6907       L1    21  0.89

> <Gold.PLP.Chemscore.Internal.Correction>
0.4710

> <Gold.Rescore>
     Score         DG    S(hbond)    S(metal)    S(lipo)     H(rot)  DE(clash)    DE(int)     intcor
     19.39     -20.49       2.81        0.00     117.79       3.19       0.02       1.08       ----

> <Gold.Chemscore.Fitness>
19.3905

> <Gold.Chemscore.DG>
-20.4941

> <Gold.Chemscore.ZeroCoef>
-5.4800

> <Gold.Chemscore.Hbond>
2.8142

> <Gold.Chemscore.Metal>
0.0000

> <Gold.Chemscore.Lipo>
117.7917

> <Gold.Chemscore.Internal_Hbond>
0.0000

> <Gold.Chemscore.DEClash>
0.0237

> <Gold.Chemscore.DEInternal>
1.0800

> <Gold.Chemscore.Rot>
3.1903

> <Gold.Chemscore.Internal.Correction>
   9.000000E+99

> <Gold.Chemscore.Hbonds>
donor molecule, donor type, donor heavy atom, donor atom, acceptor molecule, acceptor atom, score
      L1  H    13    34       P1 10175  0.87
      L1  H    17    42       P1  7948  0.86
      P1  H  6896  6907       L1    21  0.39

> <Gold.Chemscore.Hbond.Weighted>
-9.3995

> <Gold.Chemscore.Metal.Weighted>
-0.0000

> <Gold.Chemscore.Lipo.Weighted>
-13.7816

> <Gold.Chemscore.Internal_Hbond.Weighted>
0.0000

> <Gold.Chemscore.DEClash.Weighted>
0.0237

> <Gold.Chemscore.DEInternal.Weighted>
1.0800

> <Gold.Chemscore.Rot.Weighted>
8.1671

> <Gold.Chemscore.Internal.Correction.Weighted>
   9.000000E+99

> <Gold.Protein.RotatedTorsions>
[ 6907 6896 6895 6894 ] final  -25.48 input  -60.11 | X-H torsion
[ 7974 7965 7964 7962 ] final -154.97 input  175.53 | X-H torsion
[ 8008 7997 7996 7995 ] final    0.35 input   59.86 | X-H torsion
[ 10167 10162 10161 10158 ] final    7.91 input  -65.29 | X-H torsion
[ 10718 10713 10712 10709 ] final   74.33 input   66.30 | X-H torsion
[ 10763 10752 10751 10750 ] final   31.66 input  -60.55 | X-H torsion
[ 11005 11000 10999 10996 ] final   14.87 input  -57.11 | X-H torsion

> <Gold.Protein.ActiveResidues>
 VAL166  LYS551  ARG553  GLY616  TRP617  ASP618  TYR619  PRO620  LYS621  CYS622 
 ASP623  PHE694  ASN695  SER759  ASP760  ASP761  ALA762  ILE779  LEU786  VAL792 
 PHE793  MET794  SER795  GLU796  ALA797  LYS798  CYS799  TRP800  GLU811  SER814 

> <Gold.Protein.RotatedAtoms>
  151.1746  135.0333  159.8765 H   0  0  0  0  0  0  0  0  0  0  0  0  # atno 6907 bound_to 6896
  152.5447  134.1132  159.8377 H   0  0  0  0  0  0  0  0  0  0  0  0  # atno 6908 bound_to 6896
  151.1242  133.5036  159.2633 H   0  0  0  0  0  0  0  0  0  0  0  0  # atno 6909 bound_to 6896
  144.7663  140.4314  143.5940 H   0  0  0  0  0  0  0  0  0  0  0  0  # atno 7974 bound_to 7965
  154.6671  140.2603  155.7046 H   0  0  0  0  0  0  0  0  0  0  0  0  # atno 8008 bound_to 7997
  156.2643  140.2837  156.1088 H   0  0  0  0  0  0  0  0  0  0  0  0  # atno 8009 bound_to 7997
  155.1222  140.0377  157.2743 H   0  0  0  0  0  0  0  0  0  0  0  0  # atno 8010 bound_to 7997
  140.6345  143.7918  150.7340 H   0  0  0  0  0  0  0  0  0  0  0  0  # atno 10167 bound_to 10162
  157.6587  130.9672  150.1195 H   0  0  0  0  0  0  0  0  0  0  0  0  # atno 10718 bound_to 10713
  153.0303  135.6433  154.1234 H   0  0  0  0  0  0  0  0  0  0  0  0  # atno 10763 bound_to 10752
  154.0957  135.2863  155.3264 H   0  0  0  0  0  0  0  0  0  0  0  0  # atno 10764 bound_to 10752
  154.6433  135.5452  153.7879 H   0  0  0  0  0  0  0  0  0  0  0  0  # atno 10765 bound_to 10752
  140.4646  134.1092  155.7722 H   0  0  0  0  0  0  0  0  0  0  0  0  # atno 11005 bound_to 11000
  145.6460  139.1557  143.2888 LP  0  0  0  0  0  0  0  0  0  0  0  0  # atno 17320 bound_to 7965
  146.1773  140.6553  142.9205 LP  0  0  0  0  0  0  0  0  0  0  0  0  # atno 17321 bound_to 7965
  140.1536  143.4336  152.2114 LP  0  0  0  0  0  0  0  0  0  0  0  0  # atno 17342 bound_to 10162
  139.5556  144.7370  151.4304 LP  0  0  0  0  0  0  0  0  0  0  0  0  # atno 17343 bound_to 10162
  156.2070  130.3664  149.8716 LP  0  0  0  0  0  0  0  0  0  0  0  0  # atno 17370 bound_to 10713
  156.6605  130.8780  151.3546 LP  0  0  0  0  0  0  0  0  0  0  0  0  # atno 17371 bound_to 10713
  141.1605  133.8801  157.1860 LP  0  0  0  0  0  0  0  0  0  0  0  0  # atno 17394 bound_to 11000
  139.9923  135.0060  157.0004 LP  0  0  0  0  0  0  0  0  0  0  0  0  # atno 17395 bound_to 11000

$$$$
