AV-unprocessed.smi:1965|AV-procd|sdf|7947|dock4
  -GOLD-   2272010113D 1   1.00000     0.00000
 Structure written by MMmdl.
 36 38  0  0  0  0  0  0  0  0  3 V2000
  150.0482  136.9685  159.7609 O   0  0  0  0  0  0  0  0  0  0  0  0
  148.8647  137.1346  159.4692 C   0  0  0  0  0  0  0  0  0  0  0  0
  147.8751  137.2516  160.3923 N   0  5  0  0  0  0  0  0  0  0  0  0
  147.4106  136.2011  161.0940 C   0  0  0  0  0  0  0  0  0  0  0  0
  146.6842  136.3291  162.2104 N   0  0  0  0  0  0  0  0  0  0  0  0
  146.3103  135.1071  162.7726 C   0  0  0  0  0  0  0  0  0  0  0  0
  146.7626  134.0235  162.0675 C   0  0  0  0  0  0  0  0  0  0  0  0
  147.6710  134.5082  160.6642 S   0  0  0  0  0  0  0  0  0  0  0  0
  148.5197  137.2052  158.1701 N   0  0  0  0  0  0  0  0  0  0  0  0
  149.4332  137.1326  157.0366 C   0  0  1  0  0  0  0  0  0  0  0  0
  150.0396  135.7401  156.8037 C   0  0  0  0  0  0  0  0  0  0  0  0
  150.0996  135.5730  155.2725 C   0  0  0  0  0  0  0  0  0  0  0  0
  149.6027  136.8389  154.6842 N   0  3  2  0  0  0  0  0  0  0  0  0
  150.7146  137.7344  154.2620 C   0  0  0  0  0  0  0  0  0  0  0  0
  150.2164  139.1338  153.8771 C   0  0  0  0  0  0  0  0  0  0  0  0
  149.4677  139.7688  155.0517 C   0  0  0  0  0  0  0  0  0  0  0  0
  148.2907  138.8727  155.4512 C   0  0  0  0  0  0  0  0  0  0  0  0
  148.7067  137.4087  155.7188 C   0  0  2  0  0  0  0  0  0  0  0  0
  145.7217  135.1023  163.6779 H   0  0  0  0  0  0  0  0  0  0  0  0
  146.6143  132.9761  162.2830 H   0  0  0  0  0  0  0  0  0  0  0  0
  147.5406  137.3334  157.9601 H   0  0  0  0  0  0  0  0  0  0  0  0
  150.2362  137.8594  157.1716 H   0  0  0  0  0  0  0  0  0  0  0  0
  151.0267  135.6616  157.2606 H   0  0  0  0  0  0  0  0  0  0  0  0
  149.4153  134.9573  157.2372 H   0  0  0  0  0  0  0  0  0  0  0  0
  151.0998  135.3135  154.9226 H   0  0  0  0  0  0  0  0  0  0  0  0
  149.4327  134.7661  154.9666 H   0  0  0  0  0  0  0  0  0  0  0  0
  151.4476  137.8213  155.0658 H   0  0  0  0  0  0  0  0  0  0  0  0
  151.2328  137.2809  153.4163 H   0  0  0  0  0  0  0  0  0  0  0  0
  151.0598  139.7628  153.5911 H   0  0  0  0  0  0  0  0  0  0  0  0
  149.5632  139.0719  153.0058 H   0  0  0  0  0  0  0  0  0  0  0  0
  150.1425  139.9051  155.8975 H   0  0  0  0  0  0  0  0  0  0  0  0
  149.1071  140.7606  154.7778 H   0  0  0  0  0  0  0  0  0  0  0  0
  147.7818  139.2859  156.3228 H   0  0  0  0  0  0  0  0  0  0  0  0
  147.5575  138.8844  154.6436 H   0  0  0  0  0  0  0  0  0  0  0  0
  147.7971  136.8042  155.7083 H   0  0  0  0  0  0  0  0  0  0  0  0
  149.0545  136.6332  153.8613 H   0  0  0  0  0  0  0  0  0  0  0  0
  1  2  2  0  0  0  0
  2  3  1  0  0  0  0
  2  9  1  0  0  0  0
  3  4  1  0  0  0  0
  4  8  1  0  0  0  0
  4  5  2  0  0  0  0
  5  6  1  0  0  0  0
  6  7  2  0  0  0  0
  6 19  1  0  0  0  0
  7  8  1  0  0  0  0
  7 20  1  0  0  0  0
  9 10  1  0  0  0  0
  9 21  1  0  0  0  0
 10 18  1  0  0  0  0
 10 11  1  0  0  0  0
 10 22  1  0  0  0  0
 11 12  1  0  0  0  0
 11 23  1  0  0  0  0
 11 24  1  0  0  0  0
 12 13  1  0  0  0  0
 12 25  1  0  0  0  0
 12 26  1  0  0  0  0
 13 18  1  0  0  0  0
 13 14  1  0  0  0  0
 13 36  1  0  0  0  0
 14 15  1  0  0  0  0
 14 27  1  0  0  0  0
 14 28  1  0  0  0  0
 15 16  1  0  0  0  0
 15 29  1  0  0  0  0
 15 30  1  0  0  0  0
 16 17  1  0  0  0  0
 16 31  1  0  0  0  0
 16 32  1  0  0  0  0
 17 18  1  0  0  0  0
 17 33  1  0  0  0  0
 17 34  1  0  0  0  0
 18 35  1  0  0  0  0
M  CHG  1   3  -1
M  CHG  1  13   1
M  END
> <s_m_source_file>
AV-unprocessed.smi

> <i_m_source_file_index>
1965

> <i_lp_mmshare_version>
43012

> <i_f3d_flags>
0

> <s_epik_input>
czFbY0hdW2NIXW5jMVtOSF1DKD1PKVtOSF1bQ0BIXShbQ0gyXVtDSDJdMilbQ0BASF0oTjIzKVtDSDJdW0NIMl1bQ0gyXVtDSDJdMw==

> <s_epik_cmdline>
J2VwaWtfcHl0aG9uJywgJy1waCcsICc3LjAnLCAnLXRuJywgJzgnLCAnLW1hJywgJzIwMCcsICctbWV0YWxfYmluZGluZycsICctaW1hZScsICc8aW5maWxlLm1hZT4nLCAnLW9tYWUnLCAnPG91dGZpbGUubWFlPic=

> <r_lp_tautomer_probability>
1

> <r_epik_Ionization_Penalty>
7.4116

> <r_epik_Ionization_Penalty_Charging>
6.13869

> <r_epik_Ionization_Penalty_Neutral>
1.27291

> <r_epik_State_Penalty>
6.13761

> <r_epik_Charging_Adjusted_Penalty>
12.2763

> <i_epik_Tot_Q>
0

> <i_epik_Tot_abs_Q>
2

> <r_epik_Metal_State_Penalty>
2.08142

> <b_epik_Metal_Only>
1

> <s_lp_Force_Field>
OPLS_2005

> <r_lp_Energy>
29.0908

> <b_lp_Chiralities_Consistent>
1

> <s_lp_Variant>
AV-unprocessed.smi:1965-16

> <Gold.Version>
5.8.1

> <Gold.Id.Protein>
6NUR|6NUR_protein|mol2

> <Gold.PLP.Fitness>
41.7660

> <Gold.PLP.PLP>
-26.2001

> <Gold.PLP.part.hbond>
-4.1974

> <Gold.PLP.part.metal>
0.0000

> <Gold.PLP.part.buried>
-1.0662

> <Gold.PLP.part.nonpolar>
-20.7597

> <Gold.PLP.part.repulsive>
0.1279

> <Gold.PLP.ligand.clash>
0.0000

> <Gold.PLP.ligand.torsion>
0.8307

> <Gold.PLP.Chemscore.Hbond>
5.7389

> <Gold.PLP.Chemscore.CHOScore>
0.0000

> <Gold.PLP.Chemscore.Metal>
0.0000

> <Gold.Chemscore.Hbonds>
donor molecule, donor type, donor heavy atom, donor atom, acceptor molecule, acceptor atom, score
      L1  H    13    36       P1  7948  1.95
      P1  H  6896  6909       L1     1  0.59
      P1  H  6931  6943       L1     3  0.86
      P1  H  6934  6947       L1     3  1.63

> <Gold.PLP.Chemscore.Internal.Correction>
0.0106

> <Gold.Rescore>
     Score         DG    S(hbond)    S(metal)    S(lipo)     H(rot)  DE(clash)    DE(int)     intcor
     17.02     -18.11       2.48        0.00      59.03       1.00       0.26       0.83       ----

> <Gold.Chemscore.Fitness>
17.0185

> <Gold.Chemscore.DG>
-18.1113

> <Gold.Chemscore.ZeroCoef>
-5.4800

> <Gold.Chemscore.Hbond>
2.4806

> <Gold.Chemscore.Metal>
0.0000

> <Gold.Chemscore.Lipo>
59.0263

> <Gold.Chemscore.Internal_Hbond>
0.0000

> <Gold.Chemscore.DEClash>
0.2627

> <Gold.Chemscore.DEInternal>
0.8300

> <Gold.Chemscore.Rot>
1.0000

> <Gold.Chemscore.Internal.Correction>
   9.000000E+99

> <Gold.Chemscore.Hbonds>
donor molecule, donor type, donor heavy atom, donor atom, acceptor molecule, acceptor atom, score
      L1  H    13    36       P1  7948  0.87
      P1  H  6896  6909       L1     1  0.58
      P1  H  6931  6943       L1     3  0.02
      P1  H  6934  6947       L1     3  0.72

> <Gold.Chemscore.Hbond.Weighted>
-8.2852

> <Gold.Chemscore.Metal.Weighted>
-0.0000

> <Gold.Chemscore.Lipo.Weighted>
-6.9061

> <Gold.Chemscore.Internal_Hbond.Weighted>
0.0000

> <Gold.Chemscore.DEClash.Weighted>
0.2627

> <Gold.Chemscore.DEInternal.Weighted>
0.8300

> <Gold.Chemscore.Rot.Weighted>
2.5600

> <Gold.Chemscore.Internal.Correction.Weighted>
   9.000000E+99

> <Gold.Protein.RotatedTorsions>
[ 6907 6896 6895 6894 ] final  101.06 input  -60.11 | X-H torsion
[ 7974 7965 7964 7962 ] final   -0.59 input  175.53 | X-H torsion
[ 8008 7997 7996 7995 ] final  116.61 input   59.86 | X-H torsion
[ 10167 10162 10161 10158 ] final  -25.28 input  -65.29 | X-H torsion
[ 10718 10713 10712 10709 ] final  126.23 input   66.30 | X-H torsion
[ 10763 10752 10751 10750 ] final   23.28 input  -60.55 | X-H torsion
[ 11005 11000 10999 10996 ] final  118.01 input  -57.11 | X-H torsion

> <Gold.Protein.ActiveResidues>
 VAL166  LYS551  ARG553  GLY616  TRP617  ASP618  TYR619  PRO620  LYS621  CYS622 
 ASP623  PHE694  ASN695  SER759  ASP760  ASP761  ALA762  ILE779  LEU786  VAL792 
 PHE793  MET794  SER795  GLU796  ALA797  LYS798  CYS799  TRP800  GLU811  SER814 

> <Gold.Protein.RotatedAtoms>
  152.5358  134.0183  159.7969 H   0  0  0  0  0  0  0  0  0  0  0  0  # atno 6907 bound_to 6896
  151.0374  133.5729  159.2661 H   0  0  0  0  0  0  0  0  0  0  0  0  # atno 6908 bound_to 6896
  151.2711  135.0692  159.9188 H   0  0  0  0  0  0  0  0  0  0  0  0  # atno 6909 bound_to 6896
  146.2426  140.1293  142.8338 H   0  0  0  0  0  0  0  0  0  0  0  0  # atno 7974 bound_to 7965
  156.2449  140.2914  156.0550 H   0  0  0  0  0  0  0  0  0  0  0  0  # atno 8008 bound_to 7997
  155.1839  140.0405  157.2905 H   0  0  0  0  0  0  0  0  0  0  0  0  # atno 8009 bound_to 7997
  154.6241  140.2483  155.7521 H   0  0  0  0  0  0  0  0  0  0  0  0  # atno 8010 bound_to 7997
  140.7287  143.4279  151.0848 H   0  0  0  0  0  0  0  0  0  0  0  0  # atno 10167 bound_to 10162
  157.5436  131.1096  150.8818 H   0  0  0  0  0  0  0  0  0  0  0  0  # atno 10718 bound_to 10713
  153.0850  135.6630  153.9967 H   0  0  0  0  0  0  0  0  0  0  0  0  # atno 10763 bound_to 10752
  153.9579  135.2977  155.3436 H   0  0  0  0  0  0  0  0  0  0  0  0  # atno 10764 bound_to 10752
  154.7257  135.5145  153.8954 H   0  0  0  0  0  0  0  0  0  0  0  0  # atno 10765 bound_to 10752
  139.9094  134.9616  156.7437 H   0  0  0  0  0  0  0  0  0  0  0  0  # atno 11005 bound_to 11000
  145.0340  140.8893  143.5092 LP  0  0  0  0  0  0  0  0  0  0  0  0  # atno 17320 bound_to 7965
  145.1362  139.2601  143.5514 LP  0  0  0  0  0  0  0  0  0  0  0  0  # atno 17321 bound_to 7965
  139.7932  143.8188  152.3154 LP  0  0  0  0  0  0  0  0  0  0  0  0  # atno 17342 bound_to 10162
  139.8179  144.7308  150.9610 LP  0  0  0  0  0  0  0  0  0  0  0  0  # atno 17343 bound_to 10162
  156.9364  130.5368  149.5279 LP  0  0  0  0  0  0  0  0  0  0  0  0  # atno 17370 bound_to 10713
  156.0517  130.5585  150.9004 LP  0  0  0  0  0  0  0  0  0  0  0  0  # atno 17371 bound_to 10713
  140.6829  133.9459  155.7920 LP  0  0  0  0  0  0  0  0  0  0  0  0  # atno 17394 bound_to 11000
  141.0497  134.0502  157.3799 LP  0  0  0  0  0  0  0  0  0  0  0  0  # atno 17395 bound_to 11000

$$$$
