AV-unprocessed.smi:167|AV-procd|sdf|1394|dock9
  -GOLD-   2262019133D 1   1.00000     0.00000
 Structure written by MMmdl.
 51 55  0  0  0  0  0  0  0  0  1 V2000
  152.4972  127.9884  154.3944 O   0  0  0  0  0  0  0  0  0  0  0  0
  152.8931  129.1979  155.0052 C   0  0  0  0  0  0  0  0  0  0  0  0
  151.6998  130.1676  155.0870 C   0  0  2  0  0  0  0  0  0  0  0  0
  151.9546  131.4377  155.9196 C   0  0  0  0  0  0  0  0  0  0  0  0
  150.7150  131.4551  156.8407 C   0  0  2  0  0  0  0  0  0  0  0  0
  150.9091  130.4065  157.9478 C   0  0  0  0  0  0  0  0  0  0  0  0
  150.6595  129.1058  157.1709 C   0  0  0  0  0  0  0  0  0  0  0  0
  150.4003  129.6419  155.7492 C   0  0  1  0  0  0  0  0  0  0  0  0
  149.6572  130.8616  156.0318 N   0  0  0  0  0  0  0  0  0  0  0  0
  149.0728  131.5739  155.0282 C   0  0  0  0  0  0  0  0  0  0  0  0
  149.4762  132.8555  154.8174 N   0  0  0  0  0  0  0  0  0  0  0  0
  148.9332  133.5882  153.8419 C   0  0  0  0  0  0  0  0  0  0  0  0
  147.9778  133.2472  152.9768 N   0  0  0  0  0  0  0  0  0  0  0  0
  147.5504  131.9708  153.1926 C   0  0  0  0  0  0  0  0  0  0  0  0
  148.0377  131.0715  154.1851 C   0  0  0  0  0  0  0  0  0  0  0  0
  147.3551  129.8640  154.0905 N   0  0  0  0  0  0  0  0  0  0  0  0
  146.5313  130.0322  153.0931 C   0  0  0  0  0  0  0  0  0  0  0  0
  146.5645  131.2788  152.5119 N   0  0  0  0  0  0  0  0  0  0  0  0
  145.7988  131.7324  151.3878 C   0  0  0  0  0  0  0  0  0  0  0  0
  146.1327  133.0579  150.6976 C   0  0  0  0  0  0  0  0  0  0  0  0
  144.6336  133.2493  150.3677 C   0  0  0  0  0  0  0  0  0  0  0  0
  144.0557  134.6726  150.4988 C   0  0  0  0  0  0  0  0  0  0  0  0
  144.6660  135.5913  149.6148 O   0  0  0  0  0  0  0  0  0  0  0  0
  144.1814  132.7004  149.0010 C   0  0  0  0  0  0  0  0  0  0  0  0
  142.8863  132.1393  149.0698 O   0  0  0  0  0  0  0  0  0  0  0  0
  144.3789  132.2866  151.5508 C   0  0  0  0  0  0  0  0  0  0  0  0
  152.3391  128.1524  153.4772 H   0  0  0  0  0  0  0  0  0  0  0  0
  153.3235  128.9921  155.9844 H   0  0  0  0  0  0  0  0  0  0  0  0
  153.6882  129.6406  154.4048 H   0  0  0  0  0  0  0  0  0  0  0  0
  151.4587  130.4744  154.0676 H   0  0  0  0  0  0  0  0  0  0  0  0
  152.8883  131.4061  156.4826 H   0  0  0  0  0  0  0  0  0  0  0  0
  151.9835  132.3178  155.2758 H   0  0  0  0  0  0  0  0  0  0  0  0
  150.4890  132.4431  157.2438 H   0  0  0  0  0  0  0  0  0  0  0  0
  151.8999  130.4483  158.4014 H   0  0  0  0  0  0  0  0  0  0  0  0
  150.1672  130.5292  158.7380 H   0  0  0  0  0  0  0  0  0  0  0  0
  151.4826  128.3961  157.2368 H   0  0  0  0  0  0  0  0  0  0  0  0
  149.7689  128.6062  157.5545 H   0  0  0  0  0  0  0  0  0  0  0  0
  149.8779  128.9086  155.1379 H   0  0  0  0  0  0  0  0  0  0  0  0
  149.3180  134.5925  153.7417 H   0  0  0  0  0  0  0  0  0  0  0  0
  145.8693  129.2461  152.7600 H   0  0  0  0  0  0  0  0  0  0  0  0
  145.8116  130.9123  150.6681 H   0  0  0  0  0  0  0  0  0  0  0  0
  146.5252  133.7979  151.3971 H   0  0  0  0  0  0  0  0  0  0  0  0
  146.7900  132.9590  149.8334 H   0  0  0  0  0  0  0  0  0  0  0  0
  142.9854  134.6824  150.2919 H   0  0  0  0  0  0  0  0  0  0  0  0
  144.1830  135.0511  151.5135 H   0  0  0  0  0  0  0  0  0  0  0  0
  144.9621  135.1209  148.8505 H   0  0  0  0  0  0  0  0  0  0  0  0
  144.1647  133.4838  148.2429 H   0  0  0  0  0  0  0  0  0  0  0  0
  144.8725  131.9397  148.6364 H   0  0  0  0  0  0  0  0  0  0  0  0
  142.2878  132.8034  149.3770 H   0  0  0  0  0  0  0  0  0  0  0  0
  143.5896  131.5531  151.3832 H   0  0  0  0  0  0  0  0  0  0  0  0
  144.2377  132.7938  152.5064 H   0  0  0  0  0  0  0  0  0  0  0  0
  1  2  1  0  0  0  0
  1 27  1  0  0  0  0
  2  3  1  0  0  0  0
  2 28  1  0  0  0  0
  2 29  1  0  0  0  0
  3  8  1  0  0  0  0
  3  4  1  0  0  0  0
  3 30  1  0  0  0  0
  4  5  1  0  0  0  0
  4 31  1  0  0  0  0
  4 32  1  0  0  0  0
  5  9  1  0  0  0  0
  5  6  1  0  0  0  0
  5 33  1  0  0  0  0
  6  7  1  0  0  0  0
  6 34  1  0  0  0  0
  6 35  1  0  0  0  0
  7  8  1  0  0  0  0
  7 36  1  0  0  0  0
  7 37  1  0  0  0  0
  8  9  1  0  0  0  0
  8 38  1  0  0  0  0
  9 10  1  0  0  0  0
 10 15  1  0  0  0  0
 10 11  2  0  0  0  0
 11 12  1  0  0  0  0
 12 13  2  0  0  0  0
 12 39  1  0  0  0  0
 13 14  1  0  0  0  0
 14 18  1  0  0  0  0
 14 15  2  0  0  0  0
 15 16  1  0  0  0  0
 16 17  2  0  0  0  0
 17 18  1  0  0  0  0
 17 40  1  0  0  0  0
 18 19  1  0  0  0  0
 19 26  1  0  0  0  0
 19 20  1  0  0  0  0
 19 41  1  0  0  0  0
 20 21  1  0  0  0  0
 20 42  1  0  0  0  0
 20 43  1  0  0  0  0
 21 22  1  0  0  0  0
 21 24  1  0  0  0  0
 21 26  1  0  0  0  0
 22 23  1  0  0  0  0
 22 44  1  0  0  0  0
 22 45  1  0  0  0  0
 23 46  1  0  0  0  0
 24 25  1  0  0  0  0
 24 47  1  0  0  0  0
 24 48  1  0  0  0  0
 25 49  1  0  0  0  0
 26 50  1  0  0  0  0
 26 51  1  0  0  0  0
M  END
> <s_m_source_file>
AV-unprocessed.smi

> <i_m_source_file_index>
167

> <i_lp_mmshare_version>
43012

> <i_f3d_flags>
0

> <s_epik_input>
W09IXVtDSDJdW0NASF0oW0NIMl1bQ0BASF0xMilbQ0BIXShbQ0gyXVtDSDJdMSlOMmMobltjSF1uMyljKGMzNCluW2NIXW40W0NIXShbQ0gyXTUpW0NIMl1DNShbQ0gyXVtPSF0pW0NIMl1bT0hd

> <s_epik_cmdline>
J2VwaWtfcHl0aG9uJywgJy1waCcsICc3LjAnLCAnLXRuJywgJzgnLCAnLW1hJywgJzIwMCcsICctbWV0YWxfYmluZGluZycsICctaW1hZScsICc8aW5maWxlLm1hZT4nLCAnLW9tYWUnLCAnPG91dGZpbGUubWFlPic=

> <r_lp_tautomer_probability>
1

> <r_epik_Ionization_Penalty>
0.0047903

> <r_epik_Ionization_Penalty_Charging>
0

> <r_epik_Ionization_Penalty_Neutral>
0.0047903

> <r_epik_State_Penalty>
0.00341021

> <r_epik_Charging_Adjusted_Penalty>
0.00341021

> <i_epik_Tot_Q>
0

> <i_epik_Tot_abs_Q>
0

> <r_epik_Metal_State_Penalty>
-0

> <b_epik_Metal_Only>
0

> <s_lp_Force_Field>
OPLS_2005

> <r_lp_Energy>
89.3367

> <b_lp_Chiralities_Consistent>
1

> <s_lp_Variant>
AV-unprocessed.smi:167-3

> <Gold.Version>
5.8.1

> <Gold.Id.Protein>
6NUR|6NUR_protein|mol2

> <Gold.PLP.Fitness>
56.4903

> <Gold.PLP.PLP>
-44.4929

> <Gold.PLP.part.hbond>
-5.8036

> <Gold.PLP.part.metal>
0.0000

> <Gold.PLP.part.buried>
-7.1872

> <Gold.PLP.part.nonpolar>
-32.3098

> <Gold.PLP.part.repulsive>
0.3062

> <Gold.PLP.ligand.clash>
0.0000

> <Gold.PLP.ligand.torsion>
0.9816

> <Gold.PLP.Chemscore.Hbond>
3.9013

> <Gold.PLP.Chemscore.CHOScore>
0.5937

> <Gold.PLP.Chemscore.Metal>
0.0000

> <Gold.Chemscore.Hbonds>
donor molecule, donor type, donor heavy atom, donor atom, acceptor molecule, acceptor atom, score
      L1  H     1    27       P1 10737  1.00
      L1  H    23    46       P1  7921  1.00
      L1  H    25    49       P1 10186  0.93
      P1  H 10785 10796       L1    25  0.96
      L1  C    12    39       P1  7948  0.66

> <Gold.PLP.Chemscore.Internal.Correction>
0.4756

> <Gold.Rescore>
     Score         DG    S(hbond)    S(metal)    S(lipo)     H(rot)  DE(clash)    DE(int)     intcor
     12.82     -14.72       2.99        0.00      85.73       4.20       0.19       1.71       ----

> <Gold.Chemscore.Fitness>
12.8163

> <Gold.Chemscore.DG>
-14.7214

> <Gold.Chemscore.ZeroCoef>
-5.4800

> <Gold.Chemscore.Hbond>
2.9859

> <Gold.Chemscore.Metal>
0.0000

> <Gold.Chemscore.Lipo>
85.7263

> <Gold.Chemscore.Internal_Hbond>
0.0000

> <Gold.Chemscore.DEClash>
0.1933

> <Gold.Chemscore.DEInternal>
1.7117

> <Gold.Chemscore.Rot>
4.2038

> <Gold.Chemscore.Internal.Correction>
   9.000000E+99

> <Gold.Chemscore.Hbonds>
donor molecule, donor type, donor heavy atom, donor atom, acceptor molecule, acceptor atom, score
      L1  H     1    27       P1 10737  0.81
      L1  H    23    46       P1  7921  0.95
      L1  H    25    49       P1 10186  0.89
      P1  H 10785 10796       L1    25  0.41

> <Gold.Chemscore.Hbond.Weighted>
-9.9731

> <Gold.Chemscore.Metal.Weighted>
-0.0000

> <Gold.Chemscore.Lipo.Weighted>
-10.0300

> <Gold.Chemscore.Internal_Hbond.Weighted>
0.0000

> <Gold.Chemscore.DEClash.Weighted>
0.1933

> <Gold.Chemscore.DEInternal.Weighted>
1.7117

> <Gold.Chemscore.Rot.Weighted>
10.7617

> <Gold.Chemscore.Internal.Correction.Weighted>
   9.000000E+99

> <Gold.Protein.RotatedTorsions>
[ 6907 6896 6895 6894 ] final -137.01 input  -60.11 | X-H torsion
[ 7974 7965 7964 7962 ] final   17.87 input  175.53 | X-H torsion
[ 8008 7997 7996 7995 ] final   42.45 input   59.86 | X-H torsion
[ 10167 10162 10161 10158 ] final   95.29 input  -65.29 | X-H torsion
[ 10718 10713 10712 10709 ] final  118.77 input   66.30 | X-H torsion
[ 10763 10752 10751 10750 ] final -119.58 input  -60.55 | X-H torsion
[ 11005 11000 10999 10996 ] final   97.91 input  -57.11 | X-H torsion

> <Gold.Protein.ActiveResidues>
 VAL166  LYS551  ARG553  GLY616  TRP617  ASP618  TYR619  PRO620  LYS621  CYS622 
 ASP623  PHE694  ASN695  SER759  ASP760  ASP761  ALA762  ILE779  LEU786  VAL792 
 PHE793  MET794  SER795  GLU796  ALA797  LYS798  CYS799  TRP800  GLU811  SER814 

> <Gold.Protein.RotatedAtoms>
  151.0172  133.5910  159.2675 H   0  0  0  0  0  0  0  0  0  0  0  0  # atno 6907 bound_to 6896
  151.3040  135.0775  159.9258 H   0  0  0  0  0  0  0  0  0  0  0  0  # atno 6908 bound_to 6896
  152.5314  133.9849  159.7878 H   0  0  0  0  0  0  0  0  0  0  0  0  # atno 6909 bound_to 6896
  146.2204  139.8539  142.8617 H   0  0  0  0  0  0  0  0  0  0  0  0  # atno 7974 bound_to 7965
  155.2864  140.3376  155.4255 H   0  0  0  0  0  0  0  0  0  0  0  0  # atno 8008 bound_to 7997
  156.2066  140.1753  156.7826 H   0  0  0  0  0  0  0  0  0  0  0  0  # atno 8009 bound_to 7997
  154.5629  140.0684  156.8831 H   0  0  0  0  0  0  0  0  0  0  0  0  # atno 8010 bound_to 7997
  139.8003  144.6816  150.9774 H   0  0  0  0  0  0  0  0  0  0  0  0  # atno 10167 bound_to 10162
  157.6008  131.1051  150.7802 H   0  0  0  0  0  0  0  0  0  0  0  0  # atno 10718 bound_to 10713
  154.8621  135.4233  154.2322 H   0  0  0  0  0  0  0  0  0  0  0  0  # atno 10763 bound_to 10752
  153.3305  135.6988  153.6958 H   0  0  0  0  0  0  0  0  0  0  0  0  # atno 10764 bound_to 10752
  153.5977  135.3543  155.2907 H   0  0  0  0  0  0  0  0  0  0  0  0  # atno 10765 bound_to 10752
  139.8774  134.9024  156.4377 H   0  0  0  0  0  0  0  0  0  0  0  0  # atno 11005 bound_to 11000
  145.2773  141.0128  143.3737 LP  0  0  0  0  0  0  0  0  0  0  0  0  # atno 17320 bound_to 7965
  144.9177  139.4450  143.6556 LP  0  0  0  0  0  0  0  0  0  0  0  0  # atno 17321 bound_to 7965
  140.7820  143.4289  151.0725 LP  0  0  0  0  0  0  0  0  0  0  0  0  # atno 17342 bound_to 10162
  139.7961  143.8150  152.3157 LP  0  0  0  0  0  0  0  0  0  0  0  0  # atno 17343 bound_to 10162
  156.8202  130.4981  149.5344 LP  0  0  0  0  0  0  0  0  0  0  0  0  # atno 17370 bound_to 10713
  156.1080  130.6019  151.0002 LP  0  0  0  0  0  0  0  0  0  0  0  0  # atno 17371 bound_to 10713
  140.9021  133.7772  155.9693 LP  0  0  0  0  0  0  0  0  0  0  0  0  # atno 17394 bound_to 11000
  140.8639  134.2808  157.5222 LP  0  0  0  0  0  0  0  0  0  0  0  0  # atno 17395 bound_to 11000

$$$$
