AV-unprocessed.smi:699|AV-procd|sdf|3402|dock7
  -GOLD-   22720 0383D 1   1.00000     0.00000
 Structure written by MMmdl.
 34 35  0  0  0  0  0  0  0  0  1 V2000
  153.8299  140.9514  159.8304 N   0  0  0  0  0  0  0  0  0  0  0  0
  152.7977  141.1187  158.9999 C   0  0  0  0  0  0  0  0  0  0  0  0
  152.4572  140.2501  158.1989 O   0  0  0  0  0  0  0  0  0  0  0  0
  152.0432  142.4541  159.0846 C   0  0  1  0  0  0  0  0  0  0  0  0
  152.6245  143.4103  160.1359 C   0  0  0  0  0  0  0  0  0  0  0  0
  152.1814  144.7935  159.6687 C   0  0  0  0  0  0  0  0  0  0  0  0
  152.2769  144.7315  158.1443 C   0  0  0  0  0  0  0  0  0  0  0  0
  152.0671  143.2529  157.7583 C   0  0  2  0  0  0  0  0  0  0  0  0
  150.8292  143.0506  157.0074 N   0  0  0  0  0  0  0  0  0  0  0  0
  150.5468  141.9742  156.2594 C   0  0  0  0  0  0  0  0  0  0  0  0
  151.3232  141.0308  156.1121 O   0  0  0  0  0  0  0  0  0  0  0  0
  149.3309  142.0832  155.6953 N   0  0  0  0  0  0  0  0  0  0  0  0
  148.6525  141.1720  154.8395 C   0  0  0  0  0  0  0  0  0  0  0  0
  149.1425  139.8509  154.7757 C   0  0  0  0  0  0  0  0  0  0  0  0
  148.5004  138.9267  153.9275 C   0  0  0  0  0  0  0  0  0  0  0  0
  147.4364  139.2406  153.1593 N   0  0  0  0  0  0  0  0  0  0  0  0
  146.9755  140.5081  153.2116 C   0  0  0  0  0  0  0  0  0  0  0  0
  147.5438  141.5088  154.0253 C   0  0  0  0  0  0  0  0  0  0  0  0
  154.3570  140.0906  159.8044 H   0  0  0  0  0  0  0  0  0  0  0  0
  154.0841  141.6843  160.4763 H   0  0  0  0  0  0  0  0  0  0  0  0
  151.0058  142.2606  159.3663 H   0  0  0  0  0  0  0  0  0  0  0  0
  152.2668  143.1869  161.1414 H   0  0  0  0  0  0  0  0  0  0  0  0
  153.7146  143.3637  160.1536 H   0  0  0  0  0  0  0  0  0  0  0  0
  151.1452  144.9649  159.9639 H   0  0  0  0  0  0  0  0  0  0  0  0
  152.7855  145.5950  160.0948 H   0  0  0  0  0  0  0  0  0  0  0  0
  151.5668  145.4097  157.6694 H   0  0  0  0  0  0  0  0  0  0  0  0
  153.2738  145.0449  157.8312 H   0  0  0  0  0  0  0  0  0  0  0  0
  152.9064  142.9364  157.1350 H   0  0  0  0  0  0  0  0  0  0  0  0
  150.1373  143.7832  157.0668 H   0  0  0  0  0  0  0  0  0  0  0  0
  148.8444  142.9508  155.8664 H   0  0  0  0  0  0  0  0  0  0  0  0
  149.9926  139.5445  155.3677 H   0  0  0  0  0  0  0  0  0  0  0  0
  148.8531  137.9080  153.8639 H   0  0  0  0  0  0  0  0  0  0  0  0
  146.1292  140.7348  152.5802 H   0  0  0  0  0  0  0  0  0  0  0  0
  147.1258  142.5026  153.9965 H   0  0  0  0  0  0  0  0  0  0  0  0
  1  2  1  0  0  0  0
  1 19  1  0  0  0  0
  1 20  1  0  0  0  0
  2  3  2  0  0  0  0
  2  4  1  0  0  0  0
  4  8  1  0  0  0  0
  4  5  1  0  0  0  0
  4 21  1  0  0  0  0
  5  6  1  0  0  0  0
  5 22  1  0  0  0  0
  5 23  1  0  0  0  0
  6  7  1  0  0  0  0
  6 24  1  0  0  0  0
  6 25  1  0  0  0  0
  7  8  1  0  0  0  0
  7 26  1  0  0  0  0
  7 27  1  0  0  0  0
  8  9  1  0  0  0  0
  8 28  1  0  0  0  0
  9 10  1  0  0  0  0
  9 29  1  0  0  0  0
 10 11  2  0  0  0  0
 10 12  1  0  0  0  0
 12 13  1  0  0  0  0
 12 30  1  0  0  0  0
 13 18  1  0  0  0  0
 13 14  2  0  0  0  0
 14 15  1  0  0  0  0
 14 31  1  0  0  0  0
 15 16  2  0  0  0  0
 15 32  1  0  0  0  0
 16 17  1  0  0  0  0
 17 18  2  0  0  0  0
 17 33  1  0  0  0  0
 18 34  1  0  0  0  0
M  END
> <s_m_source_file>
AV-unprocessed.smi

> <i_m_source_file_index>
699

> <i_lp_mmshare_version>
43012

> <i_f3d_flags>
0

> <s_epik_input>
W05IMl1DKD1PKVtDQEBIXTFbQ0gyXVtDSDJdW0NIMl1bQ0BIXTFbTkhdQyg9TylbTkhdYzJbY0hdW2NIXW5bY0hdW2NIXTI=

> <s_epik_cmdline>
J2VwaWtfcHl0aG9uJywgJy1waCcsICc3LjAnLCAnLXRuJywgJzgnLCAnLW1hJywgJzIwMCcsICctbWV0YWxfYmluZGluZycsICctaW1hZScsICc8aW5maWxlLm1hZT4nLCAnLW9tYWUnLCAnPG91dGZpbGUubWFlPic=

> <r_epik_Ionization_Penalty>
0.113907

> <r_epik_Ionization_Penalty_Charging>
0

> <r_epik_Ionization_Penalty_Neutral>
0.113907

> <r_epik_State_Penalty>
0.103543

> <r_epik_Charging_Adjusted_Penalty>
0.103543

> <i_epik_Tot_Q>
0

> <i_epik_Tot_abs_Q>
0

> <r_epik_Metal_State_Penalty>
0.0867106

> <b_epik_Metal_Only>
0

> <s_lp_Force_Field>
OPLS_2005

> <r_lp_Energy>
21.0397

> <b_lp_Chiralities_Consistent>
1

> <s_lp_Variant>
AV-unprocessed.smi:699-4

> <Gold.Version>
5.8.1

> <Gold.Id.Protein>
6NUR|6NUR_protein|mol2

> <Gold.PLP.Fitness>
48.1063

> <Gold.PLP.PLP>
-37.2195

> <Gold.PLP.part.hbond>
-2.7123

> <Gold.PLP.part.metal>
0.0000

> <Gold.PLP.part.buried>
-4.4873

> <Gold.PLP.part.nonpolar>
-31.0091

> <Gold.PLP.part.repulsive>
1.8331

> <Gold.PLP.ligand.clash>
0.0000

> <Gold.PLP.ligand.torsion>
0.3142

> <Gold.PLP.Chemscore.Hbond>
1.8398

> <Gold.PLP.Chemscore.CHOScore>
1.9976

> <Gold.PLP.Chemscore.Metal>
0.0000

> <Gold.Chemscore.Hbonds>
donor molecule, donor type, donor heavy atom, donor atom, acceptor molecule, acceptor atom, score
      L1  H     9    29       P1  8028  0.59
      L1  H    12    30       P1  8028  0.91
      P1  H  7997  8010       L1     3  0.03
      L1  C    15    32       P1  7948  0.84
      L1  C    17    33       P1 10175  1.00

> <Gold.PLP.Chemscore.Internal.Correction>
0.0028

> <Gold.Rescore>
     Score         DG    S(hbond)    S(metal)    S(lipo)     H(rot)  DE(clash)    DE(int)     intcor
     16.27     -20.81       2.44        0.00      93.95       1.49       0.56       3.98       ----

> <Gold.Chemscore.Fitness>
16.2672

> <Gold.Chemscore.DG>
-20.8124

> <Gold.Chemscore.ZeroCoef>
-5.4800

> <Gold.Chemscore.Hbond>
2.4407

> <Gold.Chemscore.Metal>
0.0000

> <Gold.Chemscore.Lipo>
93.9539

> <Gold.Chemscore.Internal_Hbond>
0.0000

> <Gold.Chemscore.DEClash>
0.5625

> <Gold.Chemscore.DEInternal>
3.9827

> <Gold.Chemscore.Rot>
1.4892

> <Gold.Chemscore.Internal.Correction>
   9.000000E+99

> <Gold.Chemscore.Hbonds>
donor molecule, donor type, donor heavy atom, donor atom, acceptor molecule, acceptor atom, score
      L1  H     9    29       P1  8028  0.57
      L1  H    12    30       P1  8028  0.90
      P1  H  7997  8010       L1     3  0.02

> <Gold.Chemscore.Hbond.Weighted>
-8.1520

> <Gold.Chemscore.Metal.Weighted>
-0.0000

> <Gold.Chemscore.Lipo.Weighted>
-10.9926

> <Gold.Chemscore.Internal_Hbond.Weighted>
0.0000

> <Gold.Chemscore.DEClash.Weighted>
0.5625

> <Gold.Chemscore.DEInternal.Weighted>
3.9827

> <Gold.Chemscore.Rot.Weighted>
3.8123

> <Gold.Chemscore.Internal.Correction.Weighted>
   9.000000E+99

> <Gold.Protein.RotatedTorsions>
[ 6907 6896 6895 6894 ] final  163.99 input  -60.11 | X-H torsion
[ 7974 7965 7964 7962 ] final   87.94 input  175.53 | X-H torsion
[ 8008 7997 7996 7995 ] final   43.60 input   59.86 | X-H torsion
[ 10167 10162 10161 10158 ] final   84.54 input  -65.29 | X-H torsion
[ 10718 10713 10712 10709 ] final  -88.15 input   66.30 | X-H torsion
[ 10763 10752 10751 10750 ] final -119.55 input  -60.55 | X-H torsion
[ 11005 11000 10999 10996 ] final   -2.09 input  -57.11 | X-H torsion

> <Gold.Protein.ActiveResidues>
 VAL166  LYS551  ARG553  GLY616  TRP617  ASP618  TYR619  PRO620  LYS621  CYS622 
 ASP623  PHE694  ASN695  SER759  ASP760  ASP761  ALA762  ILE779  LEU786  VAL792 
 PHE793  MET794  SER795  GLU796  ALA797  LYS798  CYS799  TRP800  GLU811  SER814 

> <Gold.Protein.RotatedAtoms>
  151.9168  133.3575  159.3882 H   0  0  0  0  0  0  0  0  0  0  0  0  # atno 6907 bound_to 6896
  150.7046  134.4676  159.5419 H   0  0  0  0  0  0  0  0  0  0  0  0  # atno 6908 bound_to 6896
  152.2292  134.8338  160.0526 H   0  0  0  0  0  0  0  0  0  0  0  0  # atno 6909 bound_to 6896
  145.5522  139.2296  143.2506 H   0  0  0  0  0  0  0  0  0  0  0  0  # atno 7974 bound_to 7965
  155.3055  140.3387  155.4246 H   0  0  0  0  0  0  0  0  0  0  0  0  # atno 8008 bound_to 7997
  156.1981  140.1722  156.7995 H   0  0  0  0  0  0  0  0  0  0  0  0  # atno 8009 bound_to 7997
  154.5524  140.0703  156.8673 H   0  0  0  0  0  0  0  0  0  0  0  0  # atno 8010 bound_to 7997
  139.9069  144.6295  150.8578 H   0  0  0  0  0  0  0  0  0  0  0  0  # atno 10167 bound_to 10162
  155.9984  130.4825  150.4976 H   0  0  0  0  0  0  0  0  0  0  0  0  # atno 10718 bound_to 10713
  154.8620  135.4234  154.2316 H   0  0  0  0  0  0  0  0  0  0  0  0  # atno 10763 bound_to 10752
  153.3300  135.6987  153.6962 H   0  0  0  0  0  0  0  0  0  0  0  0  # atno 10764 bound_to 10752
  153.5982  135.3542  155.2909 H   0  0  0  0  0  0  0  0  0  0  0  0  # atno 10765 bound_to 10752
  140.6546  133.9374  155.8400 H   0  0  0  0  0  0  0  0  0  0  0  0  # atno 11005 bound_to 11000
  146.1909  140.6345  142.9146 LP  0  0  0  0  0  0  0  0  0  0  0  0  # atno 17320 bound_to 7965
  144.7523  140.5223  143.6793 LP  0  0  0  0  0  0  0  0  0  0  0  0  # atno 17321 bound_to 7965
  140.7694  143.3394  151.2239 LP  0  0  0  0  0  0  0  0  0  0  0  0  # atno 17342 bound_to 10162
  139.6976  143.9587  152.2890 LP  0  0  0  0  0  0  0  0  0  0  0  0  # atno 17343 bound_to 10162
  157.2964  131.0636  151.2098 LP  0  0  0  0  0  0  0  0  0  0  0  0  # atno 17370 bound_to 10713
  157.3093  130.6882  149.6207 LP  0  0  0  0  0  0  0  0  0  0  0  0  # atno 17371 bound_to 10713
  141.0511  134.0483  157.3782 LP  0  0  0  0  0  0  0  0  0  0  0  0  # atno 17394 bound_to 11000
  139.9034  135.0172  156.7374 LP  0  0  0  0  0  0  0  0  0  0  0  0  # atno 17395 bound_to 11000

$$$$
