AV-unprocessed.smi:1554|AV-procd|sdf|6249|dock8
  -GOLD-   22720 6433D 1   1.00000     0.00000
 Structure written by MMmdl.
 48 50  0  0  0  0  0  0  0  0  2 V2000
  152.7902  140.7368  159.2742 C   0  0  0  0  0  0  0  0  0  0  0  0
  151.9090  140.8526  158.0429 C   0  0  0  0  0  0  0  0  0  0  0  0
  151.7262  139.7186  157.2197 C   0  0  0  0  0  0  0  0  0  0  0  0
  150.9185  139.7853  156.0636 C   0  0  0  0  0  0  0  0  0  0  0  0
  150.6059  138.8156  155.1263 N   0  0  0  0  0  0  0  0  0  0  0  0
  149.8182  139.4898  154.2937 C   0  0  0  0  0  0  0  0  0  0  0  0
  149.5877  140.7863  154.5784 N   0  0  0  0  0  0  0  0  0  0  0  0
  148.7753  141.7227  153.8234 C   0  0  0  0  0  0  0  0  0  0  0  0
  147.3517  141.1897  153.5745 C   0  0  1  0  0  0  0  0  0  0  0  0
  147.4066  140.1469  152.6201 O   0  0  0  0  0  0  0  0  0  0  0  0
  146.7073  140.6500  154.8666 C   0  0  0  0  0  0  0  0  0  0  0  0
  145.2497  140.9399  154.9450 N   0  3  1  0  0  0  0  0  0  0  0  0
  144.5484  140.1742  156.0043 C   0  0  0  0  0  0  0  0  0  0  0  0
  144.7955  140.7923  157.3922 C   0  0  0  0  0  0  0  0  0  0  0  0
  144.3804  142.1528  157.3841 O   0  0  0  0  0  0  0  0  0  0  0  0
  145.1138  142.9416  156.4533 C   0  0  2  0  0  0  0  0  0  0  0  0
  144.6363  144.3928  156.5759 C   0  0  0  0  0  0  0  0  0  0  0  0
  144.8988  142.3817  155.0298 C   0  0  0  0  0  0  0  0  0  0  0  0
  150.2943  141.0281  155.7511 C   0  0  0  0  0  0  0  0  0  0  0  0
  150.4659  142.1629  156.5635 C   0  0  0  0  0  0  0  0  0  0  0  0
  151.2759  142.0786  157.7152 C   0  0  0  0  0  0  0  0  0  0  0  0
  151.4572  143.3102  158.5848 C   0  0  0  0  0  0  0  0  0  0  0  0
  153.2077  139.7345  159.3726 H   0  0  0  0  0  0  0  0  0  0  0  0
  152.2165  140.9499  160.1765 H   0  0  0  0  0  0  0  0  0  0  0  0
  153.6205  141.4408  159.2164 H   0  0  0  0  0  0  0  0  0  0  0  0
  152.2076  138.7846  157.4700 H   0  0  0  0  0  0  0  0  0  0  0  0
  149.3885  139.0156  153.4232 H   0  0  0  0  0  0  0  0  0  0  0  0
  148.7436  142.6735  154.3578 H   0  0  0  0  0  0  0  0  0  0  0  0
  149.2778  141.9142  152.8743 H   0  0  0  0  0  0  0  0  0  0  0  0
  146.7500  141.9970  153.1593 H   0  0  0  0  0  0  0  0  0  0  0  0
  148.0385  140.3802  151.9563 H   0  0  0  0  0  0  0  0  0  0  0  0
  146.8668  139.5710  154.9032 H   0  0  0  0  0  0  0  0  0  0  0  0
  147.2158  141.0572  155.7403 H   0  0  0  0  0  0  0  0  0  0  0  0
  143.4791  140.1905  155.7888 H   0  0  0  0  0  0  0  0  0  0  0  0
  144.8463  139.1253  155.9859 H   0  0  0  0  0  0  0  0  0  0  0  0
  144.2228  140.2552  158.1484 H   0  0  0  0  0  0  0  0  0  0  0  0
  145.8455  140.7179  157.6790 H   0  0  0  0  0  0  0  0  0  0  0  0
  146.1720  142.9112  156.7160 H   0  0  0  0  0  0  0  0  0  0  0  0
  145.1822  145.0441  155.8930 H   0  0  0  0  0  0  0  0  0  0  0  0
  144.7897  144.7702  157.5872 H   0  0  0  0  0  0  0  0  0  0  0  0
  143.5742  144.4817  156.3456 H   0  0  0  0  0  0  0  0  0  0  0  0
  145.4544  142.9688  154.3000 H   0  0  0  0  0  0  0  0  0  0  0  0
  143.8473  142.4839  154.7579 H   0  0  0  0  0  0  0  0  0  0  0  0
  149.9790  143.0905  156.3018 H   0  0  0  0  0  0  0  0  0  0  0  0
  150.8542  144.1441  158.2242 H   0  0  0  0  0  0  0  0  0  0  0  0
  152.5008  143.6256  158.5849 H   0  0  0  0  0  0  0  0  0  0  0  0
  151.1576  143.1029  159.6122 H   0  0  0  0  0  0  0  0  0  0  0  0
  144.8758  140.6026  154.0689 H   0  0  0  0  0  0  0  0  0  0  0  0
  1  2  1  0  0  0  0
  1 23  1  0  0  0  0
  1 24  1  0  0  0  0
  1 25  1  0  0  0  0
  2 21  1  0  0  0  0
  2  3  2  0  0  0  0
  3  4  1  0  0  0  0
  3 26  1  0  0  0  0
  4 19  2  0  0  0  0
  4  5  1  0  0  0  0
  5  6  2  0  0  0  0
  6  7  1  0  0  0  0
  6 27  1  0  0  0  0
  7  8  1  0  0  0  0
  7 19  1  0  0  0  0
  8  9  1  0  0  0  0
  8 28  1  0  0  0  0
  8 29  1  0  0  0  0
  9 10  1  0  0  0  0
  9 11  1  0  0  0  0
  9 30  1  0  0  0  0
 10 31  1  0  0  0  0
 11 12  1  0  0  0  0
 11 32  1  0  0  0  0
 11 33  1  0  0  0  0
 12 18  1  0  0  0  0
 12 13  1  0  0  0  0
 12 48  1  0  0  0  0
 13 14  1  0  0  0  0
 13 34  1  0  0  0  0
 13 35  1  0  0  0  0
 14 15  1  0  0  0  0
 14 36  1  0  0  0  0
 14 37  1  0  0  0  0
 15 16  1  0  0  0  0
 16 17  1  0  0  0  0
 16 18  1  0  0  0  0
 16 38  1  0  0  0  0
 17 39  1  0  0  0  0
 17 40  1  0  0  0  0
 17 41  1  0  0  0  0
 18 42  1  0  0  0  0
 18 43  1  0  0  0  0
 19 20  1  0  0  0  0
 20 21  2  0  0  0  0
 20 44  1  0  0  0  0
 21 22  1  0  0  0  0
 22 45  1  0  0  0  0
 22 46  1  0  0  0  0
 22 47  1  0  0  0  0
M  CHG  1  12   1
M  END
> <s_m_source_file>
AV-unprocessed.smi

> <i_m_source_file_index>
1554

> <i_lp_mmshare_version>
43012

> <i_f3d_flags>
0

> <s_epik_input>
W0NIM11jKFtjSF0xKWMoW0NIM10pW2NIXWMoYzEyKW4oW2NIXW4yKVtDSDJdW0NASF0oW09IXSlbQ0gyXU4zW0NIMl1bQ0gyXU9bQ0BASF0oW0NIM10pW0NIMl0z

> <s_epik_cmdline>
J2VwaWtfcHl0aG9uJywgJy1waCcsICc3LjAnLCAnLXRuJywgJzgnLCAnLW1hJywgJzIwMCcsICctbWV0YWxfYmluZGluZycsICctaW1hZScsICc8aW5maWxlLm1hZT4nLCAnLW9tYWUnLCAnPG91dGZpbGUubWFlPic=

> <r_epik_Ionization_Penalty>
0.695251

> <r_epik_Ionization_Penalty_Charging>
0.608065

> <r_epik_Ionization_Penalty_Neutral>
0.0871863

> <r_epik_State_Penalty>
0.731955

> <r_epik_Charging_Adjusted_Penalty>
1.34002

> <i_epik_Tot_Q>
1

> <i_epik_Tot_abs_Q>
1

> <r_epik_Metal_State_Penalty>
0.652186

> <b_epik_Metal_Only>
0

> <s_lp_Force_Field>
OPLS_2005

> <r_lp_Energy>
22.2934

> <b_lp_Chiralities_Consistent>
1

> <s_lp_Variant>
AV-unprocessed.smi:1554-10

> <Gold.Version>
5.8.1

> <Gold.Id.Protein>
6NUR|6NUR_protein|mol2

> <Gold.PLP.Fitness>
43.5670

> <Gold.PLP.PLP>
-33.4207

> <Gold.PLP.part.hbond>
-2.0000

> <Gold.PLP.part.metal>
0.0000

> <Gold.PLP.part.buried>
1.1899

> <Gold.PLP.part.nonpolar>
-31.8157

> <Gold.PLP.part.repulsive>
0.0725

> <Gold.PLP.ligand.clash>
0.0000

> <Gold.PLP.ligand.torsion>
0.6588

> <Gold.PLP.Chemscore.Hbond>
3.0000

> <Gold.PLP.Chemscore.CHOScore>
0.7944

> <Gold.PLP.Chemscore.Metal>
0.0000

> <Gold.Chemscore.Hbonds>
donor molecule, donor type, donor heavy atom, donor atom, acceptor molecule, acceptor atom, score
      L1  H    10    31       P1  7957  0.99
      L1  H    12    48       P1 10175  2.00
      L1  C     6    27       P1  7957  0.83

> <Gold.PLP.Chemscore.Internal.Correction>
0.0808

> <Gold.Rescore>
     Score         DG    S(hbond)    S(metal)    S(lipo)     H(rot)  DE(clash)    DE(int)     intcor
     15.03     -18.14       1.97        0.00      96.90       2.05       2.27       0.83       ----

> <Gold.Chemscore.Fitness>
15.0333

> <Gold.Chemscore.DG>
-18.1407

> <Gold.Chemscore.ZeroCoef>
-5.4800

> <Gold.Chemscore.Hbond>
1.9710

> <Gold.Chemscore.Metal>
0.0000

> <Gold.Chemscore.Lipo>
96.8997

> <Gold.Chemscore.Internal_Hbond>
0.0000

> <Gold.Chemscore.DEClash>
2.2743

> <Gold.Chemscore.DEInternal>
0.8331

> <Gold.Chemscore.Rot>
2.0546

> <Gold.Chemscore.Internal.Correction>
   9.000000E+99

> <Gold.Chemscore.Hbonds>
donor molecule, donor type, donor heavy atom, donor atom, acceptor molecule, acceptor atom, score
      L1  H    10    31       P1  7957  0.93
      L1  H    12    48       P1 10175  0.96

> <Gold.Chemscore.Hbond.Weighted>
-6.5831

> <Gold.Chemscore.Metal.Weighted>
-0.0000

> <Gold.Chemscore.Lipo.Weighted>
-11.3373

> <Gold.Chemscore.Internal_Hbond.Weighted>
0.0000

> <Gold.Chemscore.DEClash.Weighted>
2.2743

> <Gold.Chemscore.DEInternal.Weighted>
0.8331

> <Gold.Chemscore.Rot.Weighted>
5.2597

> <Gold.Chemscore.Internal.Correction.Weighted>
   9.000000E+99

> <Gold.Protein.RotatedTorsions>
[ 6907 6896 6895 6894 ] final   60.85 input  -60.11 | X-H torsion
[ 7974 7965 7964 7962 ] final -117.64 input  175.53 | X-H torsion
[ 8008 7997 7996 7995 ] final  -85.90 input   59.86 | X-H torsion
[ 10167 10162 10161 10158 ] final  131.63 input  -65.29 | X-H torsion
[ 10718 10713 10712 10709 ] final   25.90 input   66.30 | X-H torsion
[ 10763 10752 10751 10750 ] final  -18.37 input  -60.55 | X-H torsion
[ 11005 11000 10999 10996 ] final   57.06 input  -57.11 | X-H torsion

> <Gold.Protein.ActiveResidues>
 VAL166  LYS551  ARG553  GLY616  TRP617  ASP618  TYR619  PRO620  LYS621  CYS622 
 ASP623  PHE694  ASN695  SER759  ASP760  ASP761  ALA762  ILE779  LEU786  VAL792 
 PHE793  MET794  SER795  GLU796  ALA797  LYS798  CYS799  TRP800  GLU811  SER814 

> <Gold.Protein.RotatedAtoms>
  152.4038  134.6241  160.0058 H   0  0  0  0  0  0  0  0  0  0  0  0  # atno 6907 bound_to 6896
  151.6438  133.3319  159.3144 H   0  0  0  0  0  0  0  0  0  0  0  0  # atno 6908 bound_to 6896
  150.7935  134.7020  159.6600 H   0  0  0  0  0  0  0  0  0  0  0  0  # atno 6909 bound_to 6896
  145.0829  140.8438  143.4028 H   0  0  0  0  0  0  0  0  0  0  0  0  # atno 7974 bound_to 7965
  154.6458  140.0585  156.9899 H   0  0  0  0  0  0  0  0  0  0  0  0  # atno 8008 bound_to 7997
  155.1446  140.3268  155.4426 H   0  0  0  0  0  0  0  0  0  0  0  0  # atno 8009 bound_to 7997
  156.2553  140.1958  156.6560 H   0  0  0  0  0  0  0  0  0  0  0  0  # atno 8010 bound_to 7997
  139.5375  144.6698  151.4735 H   0  0  0  0  0  0  0  0  0  0  0  0  # atno 10167 bound_to 10162
  157.1996  130.6883  149.6183 H   0  0  0  0  0  0  0  0  0  0  0  0  # atno 10718 bound_to 10713
  153.5882  135.7003  153.5434 H   0  0  0  0  0  0  0  0  0  0  0  0  # atno 10763 bound_to 10752
  153.3201  135.4076  155.1409 H   0  0  0  0  0  0  0  0  0  0  0  0  # atno 10764 bound_to 10752
  154.8605  135.3693  154.5413 H   0  0  0  0  0  0  0  0  0  0  0  0  # atno 10765 bound_to 10752
  140.0481  134.5776  155.9297 H   0  0  0  0  0  0  0  0  0  0  0  0  # atno 11005 bound_to 11000
  145.1157  139.2727  143.5614 LP  0  0  0  0  0  0  0  0  0  0  0  0  # atno 17320 bound_to 7965
  146.3531  140.0766  142.8620 LP  0  0  0  0  0  0  0  0  0  0  0  0  # atno 17321 bound_to 7965
  140.6589  143.8540  150.6866 LP  0  0  0  0  0  0  0  0  0  0  0  0  # atno 17342 bound_to 10162
  140.1928  143.4022  152.1850 LP  0  0  0  0  0  0  0  0  0  0  0  0  # atno 17343 bound_to 10162
  155.9702  130.4587  150.6010 LP  0  0  0  0  0  0  0  0  0  0  0  0  # atno 17370 bound_to 10713
  157.3780  131.0776  151.1501 LP  0  0  0  0  0  0  0  0  0  0  0  0  # atno 17371 bound_to 10713
  141.1917  133.6572  156.5468 LP  0  0  0  0  0  0  0  0  0  0  0  0  # atno 17394 bound_to 11000
  140.3961  134.7398  157.4751 LP  0  0  0  0  0  0  0  0  0  0  0  0  # atno 17395 bound_to 11000

$$$$
