AV-unprocessed.smi:1723|AV-procd|sdf|6948|dock5
  -GOLD-   22720 8163D 1   1.00000     0.00000
 Structure written by MMmdl.
 37 37  0  0  0  0  0  0  0  0  2 V2000
  144.0866  143.7605  155.2474 C   0  0  0  0  0  0  0  0  0  0  0  0
  144.8435  144.4819  154.1272 C   0  0  0  0  0  0  0  0  0  0  0  0
  145.7657  143.5409  153.3392 C   0  0  0  0  0  0  0  0  0  0  0  0
  146.7670  142.8052  154.2371 C   0  0  0  0  0  0  0  0  0  0  0  0
  147.2436  141.6647  153.5384 O   0  0  0  0  0  0  0  0  0  0  0  0
  147.5992  140.5617  154.3635 C   0  0  1  0  0  0  0  0  0  0  0  0
  147.4970  139.2291  153.5941 C   0  0  0  0  0  0  0  0  0  0  0  0
  149.0244  140.8132  154.8712 C   0  0  0  0  0  0  0  0  0  0  0  0
  149.9455  140.9389  154.0638 O   0  0  0  0  0  0  0  0  0  0  0  0
  149.1539  140.8669  156.2117 N   0  0  0  0  0  0  0  0  0  0  0  0
  150.3017  141.0884  156.9921 C   0  0  0  0  0  0  0  0  0  0  0  0
  150.4623  142.1231  157.8631 C   0  0  0  0  0  0  0  0  0  0  0  0
  151.6748  142.2972  158.6530 C   0  0  0  0  0  0  0  0  0  0  0  0
  151.9316  143.4951  159.5499 C   0  0  0  0  0  0  0  0  0  0  0  0
  152.8521  144.3014  159.0209 F   0  0  0  0  0  0  0  0  0  0  0  0
  150.8152  144.1986  159.7397 F   0  0  0  0  0  0  0  0  0  0  0  0
  152.3721  143.0860  160.7388 F   0  0  0  0  0  0  0  0  0  0  0  0
  152.6076  141.3089  158.4057 C   0  0  0  0  0  0  0  0  0  0  0  0
  152.5154  140.2373  157.5880 N   0  5  0  0  0  0  0  0  0  0  0  0
  151.3781  140.0858  156.8523 C   0  0  0  0  0  0  0  0  0  0  0  0
  151.2316  139.1370  156.0808 O   0  0  0  0  0  0  0  0  0  0  0  0
  143.4411  144.4524  155.7883 H   0  0  0  0  0  0  0  0  0  0  0  0
  144.7760  143.3172  155.9666 H   0  0  0  0  0  0  0  0  0  0  0  0
  143.4595  142.9630  154.8484 H   0  0  0  0  0  0  0  0  0  0  0  0
  144.1252  144.9440  153.4491 H   0  0  0  0  0  0  0  0  0  0  0  0
  145.4301  145.2949  154.5559 H   0  0  0  0  0  0  0  0  0  0  0  0
  145.1644  142.8100  152.7975 H   0  0  0  0  0  0  0  0  0  0  0  0
  146.3103  144.1114  152.5859 H   0  0  0  0  0  0  0  0  0  0  0  0
  147.5982  143.4658  154.4878 H   0  0  0  0  0  0  0  0  0  0  0  0
  146.2821  142.5134  155.1686 H   0  0  0  0  0  0  0  0  0  0  0  0
  146.9351  140.5224  155.2294 H   0  0  0  0  0  0  0  0  0  0  0  0
  147.9175  138.4063  154.1735 H   0  0  0  0  0  0  0  0  0  0  0  0
  148.0307  139.2749  152.6441 H   0  0  0  0  0  0  0  0  0  0  0  0
  146.4611  138.9682  153.3804 H   0  0  0  0  0  0  0  0  0  0  0  0
  148.3182  140.6816  156.7473 H   0  0  0  0  0  0  0  0  0  0  0  0
  149.6785  142.8469  158.0132 H   0  0  0  0  0  0  0  0  0  0  0  0
  153.5773  141.3964  158.9406 H   0  0  0  0  0  0  0  0  0  0  0  0
  1  2  1  0  0  0  0
  1 22  1  0  0  0  0
  1 23  1  0  0  0  0
  1 24  1  0  0  0  0
  2  3  1  0  0  0  0
  2 25  1  0  0  0  0
  2 26  1  0  0  0  0
  3  4  1  0  0  0  0
  3 27  1  0  0  0  0
  3 28  1  0  0  0  0
  4  5  1  0  0  0  0
  4 29  1  0  0  0  0
  4 30  1  0  0  0  0
  5  6  1  0  0  0  0
  6  7  1  0  0  0  0
  6  8  1  0  0  0  0
  6 31  1  0  0  0  0
  7 32  1  0  0  0  0
  7 33  1  0  0  0  0
  7 34  1  0  0  0  0
  8  9  2  0  0  0  0
  8 10  1  0  0  0  0
 10 11  1  0  0  0  0
 10 35  1  0  0  0  0
 11 20  1  0  0  0  0
 11 12  2  0  0  0  0
 12 13  1  0  0  0  0
 12 36  1  0  0  0  0
 13 14  1  0  0  0  0
 13 18  2  0  0  0  0
 14 15  1  0  0  0  0
 14 16  1  0  0  0  0
 14 17  1  0  0  0  0
 18 19  1  0  0  0  0
 18 37  1  0  0  0  0
 19 20  1  0  0  0  0
 20 21  2  0  0  0  0
M  CHG  1  19  -1
M  END
> <s_m_source_file>
AV-unprocessed.smi

> <i_m_source_file_index>
1723

> <i_lp_mmshare_version>
43012

> <i_f3d_flags>
0

> <s_epik_input>
W0NIM11bQ0gyXVtDSDJdW0NIMl1PW0NASF0oW0NIM10pQyg9TylbTkhdYzFbY0hdYyhDKEYpKEYpRilbY0hdW25IXWMxPU8=

> <s_epik_cmdline>
J2VwaWtfcHl0aG9uJywgJy1waCcsICc3LjAnLCAnLXRuJywgJzgnLCAnLW1hJywgJzIwMCcsICctbWV0YWxfYmluZGluZycsICctaW1hZScsICc8aW5maWxlLm1hZT4nLCAnLW9tYWUnLCAnPG91dGZpbGUubWFlPic=

> <r_lp_tautomer_probability>
0.999

> <r_epik_Ionization_Penalty>
2.64397

> <r_epik_Ionization_Penalty_Charging>
0.0618254

> <r_epik_Ionization_Penalty_Neutral>
2.58215

> <r_epik_State_Penalty>
2.58023

> <r_epik_Charging_Adjusted_Penalty>
2.64205

> <i_epik_Tot_Q>
-1

> <i_epik_Tot_abs_Q>
1

> <r_epik_Metal_State_Penalty>
0.429101

> <b_epik_Metal_Only>
1

> <s_lp_Force_Field>
OPLS_2005

> <r_lp_Energy>
21.9007

> <b_lp_Chiralities_Consistent>
1

> <s_lp_Variant>
AV-unprocessed.smi:1723-4

> <Gold.Version>
5.8.1

> <Gold.Id.Protein>
6NUR|6NUR_protein|mol2

> <Gold.PLP.Fitness>
44.6464

> <Gold.PLP.PLP>
-38.3487

> <Gold.PLP.part.hbond>
-2.9674

> <Gold.PLP.part.metal>
0.0000

> <Gold.PLP.part.buried>
-3.9968

> <Gold.PLP.part.nonpolar>
-31.3562

> <Gold.PLP.part.repulsive>
1.2758

> <Gold.PLP.ligand.clash>
0.0000

> <Gold.PLP.ligand.torsion>
1.4243

> <Gold.PLP.Chemscore.Hbond>
3.0130

> <Gold.PLP.Chemscore.CHOScore>
0.0000

> <Gold.PLP.Chemscore.Metal>
0.0000

> <Gold.Chemscore.Hbonds>
donor molecule, donor type, donor heavy atom, donor atom, acceptor molecule, acceptor atom, score
      P1  H  7989  7998       L1     9  0.51
      P1  H  7997  8009       L1    19  1.76
      P1  H  8011  8017       L1     9  0.32

> <Gold.PLP.Chemscore.Internal.Correction>
0.1074

> <Gold.Rescore>
     Score         DG    S(hbond)    S(metal)    S(lipo)     H(rot)  DE(clash)    DE(int)     intcor
     10.97     -14.33       1.49        0.00      75.89       1.95       0.29       3.07       ----

> <Gold.Chemscore.Fitness>
10.9680

> <Gold.Chemscore.DG>
-14.3297

> <Gold.Chemscore.ZeroCoef>
-5.4800

> <Gold.Chemscore.Hbond>
1.4862

> <Gold.Chemscore.Metal>
0.0000

> <Gold.Chemscore.Lipo>
75.8934

> <Gold.Chemscore.Internal_Hbond>
0.0000

> <Gold.Chemscore.DEClash>
0.2895

> <Gold.Chemscore.DEInternal>
3.0721

> <Gold.Chemscore.Rot>
1.9507

> <Gold.Chemscore.Internal.Correction>
   9.000000E+99

> <Gold.Chemscore.Hbonds>
donor molecule, donor type, donor heavy atom, donor atom, acceptor molecule, acceptor atom, score
      P1  H  7989  7998       L1     9  0.52
      P1  H  7997  8009       L1    19  0.36
      P1  H  8011  8017       L1     9  0.32

> <Gold.Chemscore.Hbond.Weighted>
-4.9640

> <Gold.Chemscore.Metal.Weighted>
-0.0000

> <Gold.Chemscore.Lipo.Weighted>
-8.8795

> <Gold.Chemscore.Internal_Hbond.Weighted>
0.0000

> <Gold.Chemscore.DEClash.Weighted>
0.2895

> <Gold.Chemscore.DEInternal.Weighted>
3.0721

> <Gold.Chemscore.Rot.Weighted>
4.9939

> <Gold.Chemscore.Internal.Correction.Weighted>
   9.000000E+99

> <Gold.Protein.RotatedTorsions>
[ 6907 6896 6895 6894 ] final   -9.88 input  -60.11 | X-H torsion
[ 7974 7965 7964 7962 ] final  119.58 input  175.53 | X-H torsion
[ 8008 7997 7996 7995 ] final  175.59 input   59.86 | X-H torsion
[ 10167 10162 10161 10158 ] final -139.08 input  -65.29 | X-H torsion
[ 10718 10713 10712 10709 ] final  173.05 input   66.30 | X-H torsion
[ 10763 10752 10751 10750 ] final  -55.15 input  -60.55 | X-H torsion
[ 11005 11000 10999 10996 ] final   25.01 input  -57.11 | X-H torsion

> <Gold.Protein.ActiveResidues>
 VAL166  LYS551  ARG553  GLY616  TRP617  ASP618  TYR619  PRO620  LYS621  CYS622 
 ASP623  PHE694  ASN695  SER759  ASP760  ASP761  ALA762  ILE779  LEU786  VAL792 
 PHE793  MET794  SER795  GLU796  ALA797  LYS798  CYS799  TRP800  GLU811  SER814 

> <Gold.Protein.RotatedAtoms>
  151.4108  135.0984  159.9584 H   0  0  0  0  0  0  0  0  0  0  0  0  # atno 6907 bound_to 6896
  152.5020  133.8799  159.7352 H   0  0  0  0  0  0  0  0  0  0  0  0  # atno 6908 bound_to 6896
  150.9294  133.6728  159.2842 H   0  0  0  0  0  0  0  0  0  0  0  0  # atno 6909 bound_to 6896
  145.1414  139.3266  143.4614 H   0  0  0  0  0  0  0  0  0  0  0  0  # atno 7974 bound_to 7965
  156.0855  140.1405  156.9659 H   0  0  0  0  0  0  0  0  0  0  0  0  # atno 8008 bound_to 7997
  154.4610  140.0943  156.6941 H   0  0  0  0  0  0  0  0  0  0  0  0  # atno 8009 bound_to 7997
  155.5006  140.3451  155.4373 H   0  0  0  0  0  0  0  0  0  0  0  0  # atno 8010 bound_to 7997
  139.8415  143.7316  152.2663 H   0  0  0  0  0  0  0  0  0  0  0  0  # atno 10167 bound_to 10162
  156.9700  131.0087  151.2907 H   0  0  0  0  0  0  0  0  0  0  0  0  # atno 10718 bound_to 10713
  154.1863  135.6435  153.5047 H   0  0  0  0  0  0  0  0  0  0  0  0  # atno 10763 bound_to 10752
  153.0046  135.5418  154.6462 H   0  0  0  0  0  0  0  0  0  0  0  0  # atno 10764 bound_to 10752
  154.5839  135.2928  155.0677 H   0  0  0  0  0  0  0  0  0  0  0  0  # atno 10765 bound_to 10752
  140.3524  134.2214  155.7679 H   0  0  0  0  0  0  0  0  0  0  0  0  # atno 11005 bound_to 11000
  146.3504  140.1452  142.8593 LP  0  0  0  0  0  0  0  0  0  0  0  0  # atno 17320 bound_to 7965
  145.0528  140.9030  143.4985 LP  0  0  0  0  0  0  0  0  0  0  0  0  # atno 17321 bound_to 7965
  139.7554  144.7522  151.0443 LP  0  0  0  0  0  0  0  0  0  0  0  0  # atno 17342 bound_to 10162
  140.7797  143.4811  151.0016 LP  0  0  0  0  0  0  0  0  0  0  0  0  # atno 17343 bound_to 10162
  157.5599  130.8238  149.8252 LP  0  0  0  0  0  0  0  0  0  0  0  0  # atno 17370 bound_to 10713
  156.0286  130.3771  150.1750 LP  0  0  0  0  0  0  0  0  0  0  0  0  # atno 17371 bound_to 10713
  141.2008  133.7978  157.0471 LP  0  0  0  0  0  0  0  0  0  0  0  0  # atno 17394 bound_to 11000
  140.0692  134.9712  157.1438 LP  0  0  0  0  0  0  0  0  0  0  0  0  # atno 17395 bound_to 11000

$$$$
