AV-unprocessed.smi:1036|AV-procd|sdf|4516|dock8
  -GOLD-   22720 2533D 1   1.00000     0.00000
 Structure written by MMmdl.
 42 44  0  0  0  0  0  0  0  0  2 V2000
  149.1881  135.2383  154.5586 O   0  0  0  0  0  0  0  0  0  0  0  0
  149.8305  136.1798  155.3888 C   0  0  0  0  0  0  0  0  0  0  0  0
  151.1237  136.6532  154.7165 C   0  0  0  0  0  0  0  0  0  0  0  0
  151.3072  138.0863  154.8714 N   0  0  0  0  0  0  0  0  0  0  0  0
  150.2447  138.9273  154.5238 C   0  0  0  0  0  0  0  0  0  0  0  0
  149.2064  138.6082  153.7057 N   0  3  0  0  0  0  0  0  0  0  0  0
  148.3497  139.7107  153.6334 C   0  0  0  0  0  0  0  0  0  0  0  0
  147.1568  139.8897  152.9399 C   0  0  0  0  0  0  0  0  0  0  0  0
  146.5207  141.1400  153.0855 C   0  0  0  0  0  0  0  0  0  0  0  0
  147.0702  142.1553  153.8953 C   0  0  0  0  0  0  0  0  0  0  0  0
  148.2801  141.9660  154.5946 C   0  0  0  0  0  0  0  0  0  0  0  0
  148.9054  140.7288  154.4454 C   0  0  0  0  0  0  0  0  0  0  0  0
  150.0862  140.1974  154.9783 N   0  0  0  0  0  0  0  0  0  0  0  0
  150.8996  141.0011  155.9029 C   0  0  0  0  0  0  0  0  0  0  0  0
  150.6635  140.6146  157.3771 C   0  0  2  0  0  0  0  0  0  0  0  0
  149.2836  140.7475  157.6488 O   0  0  0  0  0  0  0  0  0  0  0  0
  151.5265  141.4356  158.3295 C   0  0  0  0  0  0  0  0  0  0  0  0
  151.4500  142.8466  158.3250 C   0  0  0  0  0  0  0  0  0  0  0  0
  152.2735  143.6075  159.1766 C   0  0  0  0  0  0  0  0  0  0  0  0
  152.1971  144.9590  159.1609 F   0  0  0  0  0  0  0  0  0  0  0  0
  153.1820  142.9640  160.0376 C   0  0  0  0  0  0  0  0  0  0  0  0
  153.2658  141.5588  160.0466 C   0  0  0  0  0  0  0  0  0  0  0  0
  152.4424  140.7956  159.1963 C   0  0  0  0  0  0  0  0  0  0  0  0
  152.5517  139.4451  159.2037 F   0  0  0  0  0  0  0  0  0  0  0  0
  148.8468  135.6888  153.8007 H   0  0  0  0  0  0  0  0  0  0  0  0
  149.1543  137.0167  155.5653 H   0  0  0  0  0  0  0  0  0  0  0  0
  150.0416  135.7184  156.3541 H   0  0  0  0  0  0  0  0  0  0  0  0
  151.9793  136.1336  155.1498 H   0  0  0  0  0  0  0  0  0  0  0  0
  151.0990  136.4097  153.6531 H   0  0  0  0  0  0  0  0  0  0  0  0
  151.9809  138.4117  155.5501 H   0  0  0  0  0  0  0  0  0  0  0  0
  146.7310  139.1139  152.3204 H   0  0  0  0  0  0  0  0  0  0  0  0
  145.5911  141.3238  152.5665 H   0  0  0  0  0  0  0  0  0  0  0  0
  146.5525  143.0996  153.9827 H   0  0  0  0  0  0  0  0  0  0  0  0
  148.6910  142.7493  155.2143 H   0  0  0  0  0  0  0  0  0  0  0  0
  151.9478  140.8667  155.6325 H   0  0  0  0  0  0  0  0  0  0  0  0
  150.6723  142.0541  155.7317 H   0  0  0  0  0  0  0  0  0  0  0  0
  150.8952  139.5576  157.5102 H   0  0  0  0  0  0  0  0  0  0  0  0
  149.0481  141.6596  157.5698 H   0  0  0  0  0  0  0  0  0  0  0  0
  150.7661  143.3523  157.6593 H   0  0  0  0  0  0  0  0  0  0  0  0
  153.8171  143.5473  160.6880 H   0  0  0  0  0  0  0  0  0  0  0  0
  153.9672  141.0658  160.7033 H   0  0  0  0  0  0  0  0  0  0  0  0
  149.0930  137.7157  153.2425 H   0  0  0  0  0  0  0  0  0  0  0  0
  1  2  1  0  0  0  0
  1 25  1  0  0  0  0
  2  3  1  0  0  0  0
  2 26  1  0  0  0  0
  2 27  1  0  0  0  0
  3  4  1  0  0  0  0
  3 28  1  0  0  0  0
  3 29  1  0  0  0  0
  4  5  1  0  0  0  0
  4 30  1  0  0  0  0
  5 13  1  0  0  0  0
  5  6  2  0  0  0  0
  6  7  1  0  0  0  0
  6 42  1  0  0  0  0
  7 12  2  0  0  0  0
  7  8  1  0  0  0  0
  8  9  2  0  0  0  0
  8 31  1  0  0  0  0
  9 10  1  0  0  0  0
  9 32  1  0  0  0  0
 10 11  2  0  0  0  0
 10 33  1  0  0  0  0
 11 12  1  0  0  0  0
 11 34  1  0  0  0  0
 12 13  1  0  0  0  0
 13 14  1  0  0  0  0
 14 15  1  0  0  0  0
 14 35  1  0  0  0  0
 14 36  1  0  0  0  0
 15 16  1  0  0  0  0
 15 17  1  0  0  0  0
 15 37  1  0  0  0  0
 16 38  1  0  0  0  0
 17 23  1  0  0  0  0
 17 18  2  0  0  0  0
 18 19  1  0  0  0  0
 18 39  1  0  0  0  0
 19 20  1  0  0  0  0
 19 21  2  0  0  0  0
 21 22  1  0  0  0  0
 21 40  1  0  0  0  0
 22 23  2  0  0  0  0
 22 41  1  0  0  0  0
 23 24  1  0  0  0  0
M  CHG  1   6   1
M  END
> <s_m_source_file>
AV-unprocessed.smi

> <i_m_source_file_index>
1036

> <i_lp_mmshare_version>
43012

> <i_f3d_flags>
0

> <s_epik_input>
W09IXVtDSDJdW0NIMl1bTkhdYyhuMSluKGMoYzEyKVtjSF1bY0hdW2NIXVtjSF0yKVtDSDJdW0NASF0oW09IXSljM1tjSF1jKEYpW2NIXVtjSF1jM0Y=

> <s_epik_cmdline>
J2VwaWtfcHl0aG9uJywgJy1waCcsICc3LjAnLCAnLXRuJywgJzgnLCAnLW1hJywgJzIwMCcsICctbWV0YWxfYmluZGluZycsICctaW1hZScsICc8aW5maWxlLm1hZT4nLCAnLW9tYWUnLCAnPG91dGZpbGUubWFlPic=

> <r_epik_Ionization_Penalty>
0.0688114

> <r_epik_Ionization_Penalty_Charging>
0.0688055

> <r_epik_Ionization_Penalty_Neutral>
5.85933e-06

> <r_epik_State_Penalty>
0.0602293

> <r_epik_Charging_Adjusted_Penalty>
0.129035

> <i_epik_Tot_Q>
1

> <i_epik_Tot_abs_Q>
1

> <r_epik_Metal_State_Penalty>
2.77411

> <b_epik_Metal_Only>
0

> <s_lp_Force_Field>
OPLS_2005

> <r_lp_Energy>
18.4992

> <b_lp_Chiralities_Consistent>
1

> <s_lp_Variant>
AV-unprocessed.smi:1036-1

> <Gold.Version>
5.8.1

> <Gold.Id.Protein>
6NUR|6NUR_protein|mol2

> <Gold.PLP.Fitness>
58.1959

> <Gold.PLP.PLP>
-50.4002

> <Gold.PLP.part.hbond>
-3.0000

> <Gold.PLP.part.metal>
0.0000

> <Gold.PLP.part.buried>
2.2421

> <Gold.PLP.part.nonpolar>
-49.5708

> <Gold.PLP.part.repulsive>
0.1678

> <Gold.PLP.ligand.clash>
0.0000

> <Gold.PLP.ligand.torsion>
0.6202

> <Gold.PLP.Chemscore.Hbond>
3.0000

> <Gold.PLP.Chemscore.CHOScore>
0.0000

> <Gold.PLP.Chemscore.Metal>
0.0000

> <Gold.Chemscore.Hbonds>
donor molecule, donor type, donor heavy atom, donor atom, acceptor molecule, acceptor atom, score
      L1  H     1    25       P1  7948  1.00
      L1  H     6    42       P1  7948  2.00

> <Gold.PLP.Chemscore.Internal.Correction>
0.0362

> <Gold.Rescore>
     Score         DG    S(hbond)    S(metal)    S(lipo)     H(rot)  DE(clash)    DE(int)     intcor
     13.86     -17.25       1.75        0.00     122.64       3.29       2.24       1.16       ----

> <Gold.Chemscore.Fitness>
13.8575

> <Gold.Chemscore.DG>
-17.2534

> <Gold.Chemscore.ZeroCoef>
-5.4800

> <Gold.Chemscore.Hbond>
1.7486

> <Gold.Chemscore.Metal>
0.0000

> <Gold.Chemscore.Lipo>
122.6413

> <Gold.Chemscore.Internal_Hbond>
0.0000

> <Gold.Chemscore.DEClash>
2.2372

> <Gold.Chemscore.DEInternal>
1.1587

> <Gold.Chemscore.Rot>
3.2874

> <Gold.Chemscore.Internal.Correction>
   9.000000E+99

> <Gold.Chemscore.Hbonds>
donor molecule, donor type, donor heavy atom, donor atom, acceptor molecule, acceptor atom, score
      L1  H     1    25       P1  7948  0.87
      L1  H     6    42       P1  7948  0.95

> <Gold.Chemscore.Hbond.Weighted>
-5.8402

> <Gold.Chemscore.Metal.Weighted>
-0.0000

> <Gold.Chemscore.Lipo.Weighted>
-14.3490

> <Gold.Chemscore.Internal_Hbond.Weighted>
0.0000

> <Gold.Chemscore.DEClash.Weighted>
2.2372

> <Gold.Chemscore.DEInternal.Weighted>
1.1587

> <Gold.Chemscore.Rot.Weighted>
8.4158

> <Gold.Chemscore.Internal.Correction.Weighted>
   9.000000E+99

> <Gold.Protein.RotatedTorsions>
[ 6907 6896 6895 6894 ] final  139.71 input  -60.11 | X-H torsion
[ 7974 7965 7964 7962 ] final  -11.53 input  175.53 | X-H torsion
[ 8008 7997 7996 7995 ] final   70.34 input   59.86 | X-H torsion
[ 10167 10162 10161 10158 ] final  134.42 input  -65.29 | X-H torsion
[ 10718 10713 10712 10709 ] final -150.77 input   66.30 | X-H torsion
[ 10763 10752 10751 10750 ] final   49.61 input  -60.55 | X-H torsion
[ 11005 11000 10999 10996 ] final   67.09 input  -57.11 | X-H torsion

> <Gold.Protein.ActiveResidues>
 VAL166  LYS551  ARG553  GLY616  TRP617  ASP618  TYR619  PRO620  LYS621  CYS622 
 ASP623  PHE694  ASN695  SER759  ASP760  ASP761  ALA762  ILE779  LEU786  VAL792 
 PHE793  MET794  SER795  GLU796  ALA797  LYS798  CYS799  TRP800  GLU811  SER814 

> <Gold.Protein.RotatedAtoms>
  152.2517  133.5221  159.5329 H   0  0  0  0  0  0  0  0  0  0  0  0  # atno 6907 bound_to 6896
  150.7096  134.0951  159.3954 H   0  0  0  0  0  0  0  0  0  0  0  0  # atno 6908 bound_to 6896
  151.8870  135.0431  160.0545 H   0  0  0  0  0  0  0  0  0  0  0  0  # atno 6909 bound_to 6896
  146.2184  140.2924  142.8369 H   0  0  0  0  0  0  0  0  0  0  0  0  # atno 7974 bound_to 7965
  155.7373  140.3491  155.5087 H   0  0  0  0  0  0  0  0  0  0  0  0  # atno 8008 bound_to 7997
  155.9127  140.1053  157.1288 H   0  0  0  0  0  0  0  0  0  0  0  0  # atno 8009 bound_to 7997
  154.4058  140.1264  156.4565 H   0  0  0  0  0  0  0  0  0  0  0  0  # atno 8010 bound_to 7997
  139.5257  144.6568  151.5137 H   0  0  0  0  0  0  0  0  0  0  0  0  # atno 10167 bound_to 10162
  156.4505  130.8165  151.2396 H   0  0  0  0  0  0  0  0  0  0  0  0  # atno 10718 bound_to 10713
  152.9786  135.5906  154.4117 H   0  0  0  0  0  0  0  0  0  0  0  0  # atno 10763 bound_to 10752
  154.3751  135.2767  155.2246 H   0  0  0  0  0  0  0  0  0  0  0  0  # atno 10764 bound_to 10752
  154.4184  135.6065  153.6049 H   0  0  0  0  0  0  0  0  0  0  0  0  # atno 10765 bound_to 10752
  139.9792  134.6772  156.0295 H   0  0  0  0  0  0  0  0  0  0  0  0  # atno 11005 bound_to 11000
  144.9117  140.7765  143.5803 LP  0  0  0  0  0  0  0  0  0  0  0  0  # atno 17320 bound_to 7965
  145.2855  139.1902  143.4768 LP  0  0  0  0  0  0  0  0  0  0  0  0  # atno 17321 bound_to 7965
  140.6397  143.8913  150.6680 LP  0  0  0  0  0  0  0  0  0  0  0  0  # atno 17342 bound_to 10162
  140.2244  143.3784  152.1617 LP  0  0  0  0  0  0  0  0  0  0  0  0  # atno 17343 bound_to 10162
  157.7503  131.0139  150.3444 LP  0  0  0  0  0  0  0  0  0  0  0  0  # atno 17370 bound_to 10713
  156.3821  130.3882  149.7094 LP  0  0  0  0  0  0  0  0  0  0  0  0  # atno 17371 bound_to 10713
  141.1466  133.6555  156.3886 LP  0  0  0  0  0  0  0  0  0  0  0  0  # atno 17394 bound_to 11000
  140.5132  134.6376  157.5291 LP  0  0  0  0  0  0  0  0  0  0  0  0  # atno 17395 bound_to 11000

$$$$
