AV-unprocessed.smi:3330|AV-procd|sdf|12801|dock2
  -GOLD-   2272019163D 1   1.00000     0.00000
 Structure written by MMmdl.
 39 40  0  0  0  0  0  0  0  0  2 V2000
  151.8775  144.3735  157.2894 C   0  0  0  0  0  0  0  0  0  0  0  0
  151.2567  143.1956  158.0623 C   0  0  2  0  0  0  0  0  0  0  0  0
  149.9382  142.8524  157.4830 N   0  3  0  0  0  0  0  0  0  0  0  0
  149.7927  141.4663  156.9912 C   0  0  0  0  0  0  0  0  0  0  0  0
  150.3275  141.3208  155.5548 C   0  0  0  0  0  0  0  0  0  0  0  0
  150.6685  139.9308  155.2212 N   0  0  0  0  0  0  0  0  0  0  0  0
  149.8971  139.1298  154.4743 C   0  0  0  0  0  0  0  0  0  0  0  0
  148.8202  139.4082  153.9487 O   0  0  0  0  0  0  0  0  0  0  0  0
  150.5752  137.7824  154.3552 C   0  0  0  0  0  0  0  0  0  0  0  0
  151.7701  138.0534  155.1247 N   0  0  0  0  0  0  0  0  0  0  0  0
  151.7952  139.3026  155.6063 C   0  0  0  0  0  0  0  0  0  0  0  0
  152.7095  139.7877  156.2706 O   0  0  0  0  0  0  0  0  0  0  0  0
  151.0970  143.4893  159.5788 C   0  0  2  0  0  0  0  0  0  0  0  0
  151.0832  144.9940  159.9062 C   0  0  0  0  0  0  0  0  0  0  0  0
  152.1314  142.8274  160.3691 N   0  0  0  0  0  0  0  0  0  0  0  0
  153.2544  142.1641  159.9183 C   0  0  0  0  0  0  0  0  0  0  0  0
  153.9203  141.6949  161.0141 C   0  0  0  0  0  0  0  0  0  0  0  0
  153.1129  142.1160  162.1066 C   0  0  0  0  0  0  0  0  0  0  0  0
  152.0455  142.7939  161.7188 N   0  0  0  0  0  0  0  0  0  0  0  0
  152.8856  144.5966  157.6376 H   0  0  0  0  0  0  0  0  0  0  0  0
  151.2791  145.2786  157.3976 H   0  0  0  0  0  0  0  0  0  0  0  0
  151.9572  144.1547  156.2245 H   0  0  0  0  0  0  0  0  0  0  0  0
  151.9134  142.3308  157.9551 H   0  0  0  0  0  0  0  0  0  0  0  0
  149.2619  142.9645  158.2251 H   0  0  0  0  0  0  0  0  0  0  0  0
  150.3218  140.7856  157.6583 H   0  0  0  0  0  0  0  0  0  0  0  0
  148.7408  141.1783  157.0124 H   0  0  0  0  0  0  0  0  0  0  0  0
  149.5925  141.7081  154.8470 H   0  0  0  0  0  0  0  0  0  0  0  0
  151.2096  141.9513  155.4300 H   0  0  0  0  0  0  0  0  0  0  0  0
  149.9776  136.9890  154.8049 H   0  0  0  0  0  0  0  0  0  0  0  0
  150.8088  137.5377  153.3187 H   0  0  0  0  0  0  0  0  0  0  0  0
  152.4998  137.3697  155.2660 H   0  0  0  0  0  0  0  0  0  0  0  0
  150.1416  143.0736  159.9034 H   0  0  0  0  0  0  0  0  0  0  0  0
  150.2260  145.4981  159.4611 H   0  0  0  0  0  0  0  0  0  0  0  0
  151.9862  145.4888  159.5471 H   0  0  0  0  0  0  0  0  0  0  0  0
  151.0232  145.1577  160.9827 H   0  0  0  0  0  0  0  0  0  0  0  0
  153.4860  142.0824  158.8663 H   0  0  0  0  0  0  0  0  0  0  0  0
  154.8417  141.1319  161.0326 H   0  0  0  0  0  0  0  0  0  0  0  0
  153.2715  141.9537  163.1627 H   0  0  0  0  0  0  0  0  0  0  0  0
  149.7097  143.5039  156.7456 H   0  0  0  0  0  0  0  0  0  0  0  0
  1  2  1  0  0  0  0
  1 20  1  0  0  0  0
  1 21  1  0  0  0  0
  1 22  1  0  0  0  0
  2  3  1  0  0  0  0
  2 13  1  0  0  0  0
  2 23  1  0  0  0  0
  3  4  1  0  0  0  0
  3 24  1  0  0  0  0
  3 39  1  0  0  0  0
  4  5  1  0  0  0  0
  4 25  1  0  0  0  0
  4 26  1  0  0  0  0
  5  6  1  0  0  0  0
  5 27  1  0  0  0  0
  5 28  1  0  0  0  0
  6 11  1  0  0  0  0
  6  7  1  0  0  0  0
  7  8  2  0  0  0  0
  7  9  1  0  0  0  0
  9 10  1  0  0  0  0
  9 29  1  0  0  0  0
  9 30  1  0  0  0  0
 10 11  1  0  0  0  0
 10 31  1  0  0  0  0
 11 12  2  0  0  0  0
 13 14  1  0  0  0  0
 13 15  1  0  0  0  0
 13 32  1  0  0  0  0
 14 33  1  0  0  0  0
 14 34  1  0  0  0  0
 14 35  1  0  0  0  0
 15 19  1  0  0  0  0
 15 16  1  0  0  0  0
 16 17  2  0  0  0  0
 16 36  1  0  0  0  0
 17 18  1  0  0  0  0
 17 37  1  0  0  0  0
 18 19  2  0  0  0  0
 18 38  1  0  0  0  0
M  CHG  1   3   1
M  END
> <s_m_source_file>
AV-unprocessed.smi

> <i_m_source_file_index>
3330

> <i_lp_mmshare_version>
43012

> <i_f3d_flags>
0

> <s_epik_input>
bjFbY0hdW2NIXVtjSF1uMVtDQEBIXShbQ0gzXSlbQ0BIXShbQ0gzXSlbTkhdW0NIMl1bQ0gyXU4yQyg9TylbQ0gyXVtOSF1DMj1P

> <s_epik_cmdline>
J2VwaWtfcHl0aG9uJywgJy1waCcsICc3LjAnLCAnLXRuJywgJzgnLCAnLW1hJywgJzIwMCcsICctbWV0YWxfYmluZGluZycsICctaW1hZScsICc8aW5maWxlLm1hZT4nLCAnLW9tYWUnLCAnPG91dGZpbGUubWFlPic=

> <r_lp_tautomer_probability>
1

> <r_epik_Ionization_Penalty>
0.0124905

> <r_epik_Ionization_Penalty_Charging>
0.0123685

> <r_epik_Ionization_Penalty_Neutral>
0.000122059

> <r_epik_State_Penalty>
0.00957041

> <r_epik_Charging_Adjusted_Penalty>
0.0219389

> <i_epik_Tot_Q>
1

> <i_epik_Tot_abs_Q>
1

> <r_epik_Metal_State_Penalty>
0.0858301

> <b_epik_Metal_Only>
0

> <s_lp_Force_Field>
OPLS_2005

> <r_lp_Energy>
30.1395

> <b_lp_Chiralities_Consistent>
1

> <s_lp_Variant>
AV-unprocessed.smi:3330-1

> <Gold.Version>
5.8.1

> <Gold.Id.Protein>
6NUR|6NUR_protein|mol2

> <Gold.PLP.Fitness>
50.3363

> <Gold.PLP.PLP>
-45.3044

> <Gold.PLP.part.hbond>
-2.7870

> <Gold.PLP.part.metal>
0.0000

> <Gold.PLP.part.buried>
-5.9708

> <Gold.PLP.part.nonpolar>
-38.0831

> <Gold.PLP.part.repulsive>
1.4703

> <Gold.PLP.ligand.clash>
0.0000

> <Gold.PLP.ligand.torsion>
2.5159

> <Gold.PLP.Chemscore.Hbond>
3.2574

> <Gold.PLP.Chemscore.CHOScore>
0.0000

> <Gold.PLP.Chemscore.Metal>
0.0000

> <Gold.Chemscore.Hbonds>
donor molecule, donor type, donor heavy atom, donor atom, acceptor molecule, acceptor atom, score
      L1  H     3    39       P1  8028  2.00
      P1  H  6933  6945       L1    19  0.23
      P1  H  7997  8008       L1    12  1.00

> <Gold.PLP.Chemscore.Internal.Correction>
0.2915

> <Gold.Rescore>
     Score         DG    S(hbond)    S(metal)    S(lipo)     H(rot)  DE(clash)    DE(int)     intcor
     15.74     -18.61       2.62        0.00      95.74       2.67       0.06       2.81       ----

> <Gold.Chemscore.Fitness>
15.7431

> <Gold.Chemscore.DG>
-18.6142

> <Gold.Chemscore.ZeroCoef>
-5.4800

> <Gold.Chemscore.Hbond>
2.6223

> <Gold.Chemscore.Metal>
0.0000

> <Gold.Chemscore.Lipo>
95.7440

> <Gold.Chemscore.Internal_Hbond>
0.0000

> <Gold.Chemscore.DEClash>
0.0630

> <Gold.Chemscore.DEInternal>
2.8080

> <Gold.Chemscore.Rot>
2.6666

> <Gold.Chemscore.Internal.Correction>
   9.000000E+99

> <Gold.Chemscore.Hbonds>
donor molecule, donor type, donor heavy atom, donor atom, acceptor molecule, acceptor atom, score
      L1  H     3    39       P1  8028  1.00
      P1  H  6933  6945       L1    19  0.12
      P1  H  7997  8008       L1    12  1.00

> <Gold.Chemscore.Hbond.Weighted>
-8.7586

> <Gold.Chemscore.Metal.Weighted>
-0.0000

> <Gold.Chemscore.Lipo.Weighted>
-11.2020

> <Gold.Chemscore.Internal_Hbond.Weighted>
0.0000

> <Gold.Chemscore.DEClash.Weighted>
0.0630

> <Gold.Chemscore.DEInternal.Weighted>
2.8080

> <Gold.Chemscore.Rot.Weighted>
6.8265

> <Gold.Chemscore.Internal.Correction.Weighted>
   9.000000E+99

> <Gold.Protein.RotatedTorsions>
[ 6907 6896 6895 6894 ] final  125.60 input  -60.11 | X-H torsion
[ 7974 7965 7964 7962 ] final  168.25 input  175.53 | X-H torsion
[ 8008 7997 7996 7995 ] final  -48.84 input   59.86 | X-H torsion
[ 10167 10162 10161 10158 ] final  119.51 input  -65.29 | X-H torsion
[ 10718 10713 10712 10709 ] final  -52.56 input   66.30 | X-H torsion
[ 10763 10752 10751 10750 ] final   64.36 input  -60.55 | X-H torsion
[ 11005 11000 10999 10996 ] final  -53.65 input  -57.11 | X-H torsion

> <Gold.Protein.ActiveResidues>
 VAL166  LYS551  ARG553  GLY616  TRP617  ASP618  TYR619  PRO620  LYS621  CYS622 
 ASP623  PHE694  ASN695  SER759  ASP760  ASP761  ALA762  ILE779  LEU786  VAL792 
 PHE793  MET794  SER795  GLU796  ALA797  LYS798  CYS799  TRP800  GLU811  SER814 

> <Gold.Protein.RotatedAtoms>
  152.3977  133.6772  159.6290 H   0  0  0  0  0  0  0  0  0  0  0  0  # atno 6907 bound_to 6896
  150.7874  133.8844  159.3304 H   0  0  0  0  0  0  0  0  0  0  0  0  # atno 6908 bound_to 6896
  151.6617  135.0990  160.0232 H   0  0  0  0  0  0  0  0  0  0  0  0  # atno 6909 bound_to 6896
  144.7395  139.8880  143.6401 H   0  0  0  0  0  0  0  0  0  0  0  0  # atno 7974 bound_to 7965
  154.4035  140.1311  156.4405 H   0  0  0  0  0  0  0  0  0  0  0  0  # atno 8008 bound_to 7997
  155.7463  140.3489  155.5108 H   0  0  0  0  0  0  0  0  0  0  0  0  # atno 8009 bound_to 7997
  155.8991  140.1016  157.1353 H   0  0  0  0  0  0  0  0  0  0  0  0  # atno 8010 bound_to 7997
  139.6042  144.7065  151.2993 H   0  0  0  0  0  0  0  0  0  0  0  0  # atno 10167 bound_to 10162
  156.1610  130.4149  149.9793 H   0  0  0  0  0  0  0  0  0  0  0  0  # atno 10718 bound_to 10713
  153.0053  135.5396  154.6498 H   0  0  0  0  0  0  0  0  0  0  0  0  # atno 10763 bound_to 10752
  154.5733  135.2843  155.0808 H   0  0  0  0  0  0  0  0  0  0  0  0  # atno 10764 bound_to 10752
  154.1966  135.6491  153.5127 H   0  0  0  0  0  0  0  0  0  0  0  0  # atno 10765 bound_to 10752
  141.0986  133.6621  156.4203 H   0  0  0  0  0  0  0  0  0  0  0  0  # atno 11005 bound_to 11000
  146.1163  139.4174  143.0256 LP  0  0  0  0  0  0  0  0  0  0  0  0  # atno 17320 bound_to 7965
  145.7370  141.0022  143.1321 LP  0  0  0  0  0  0  0  0  0  0  0  0  # atno 17321 bound_to 7965
  140.7272  143.6969  150.7876 LP  0  0  0  0  0  0  0  0  0  0  0  0  # atno 17342 bound_to 10162
  140.0551  143.5210  152.2655 LP  0  0  0  0  0  0  0  0  0  0  0  0  # atno 17343 bound_to 10162
  156.7622  130.9155  151.3642 LP  0  0  0  0  0  0  0  0  0  0  0  0  # atno 17370 bound_to 10713
  157.6733  130.9071  150.0090 LP  0  0  0  0  0  0  0  0  0  0  0  0  # atno 17371 bound_to 10713
  140.5077  134.6425  157.5273 LP  0  0  0  0  0  0  0  0  0  0  0  0  # atno 17394 bound_to 11000
  139.9831  134.7106  155.9824 LP  0  0  0  0  0  0  0  0  0  0  0  0  # atno 17395 bound_to 11000

$$$$
