AV-unprocessed.smi:400|AV-procd|sdf|2492|dock3
  -GOLD-   2262022433D 1   1.00000     0.00000
 Structure written by MMmdl.
 40 41  0  0  0  0  0  0  0  0  1 V2000
  154.6541  134.5175  164.2001 C   0  0  0  0  0  0  0  0  0  0  0  0
  154.2752  135.8112  163.4620 C   0  0  0  0  0  0  0  0  0  0  0  0
  154.6058  135.8012  161.9528 C   0  0  2  0  0  0  0  0  0  0  0  0
  156.1267  135.8298  161.7234 C   0  0  0  0  0  0  0  0  0  0  0  0
  153.9378  136.9699  161.2111 C   0  0  0  0  0  0  0  0  0  0  0  0
  153.1027  136.7375  160.3362 O   0  0  0  0  0  0  0  0  0  0  0  0
  154.3308  138.2030  161.5835 N   0  0  0  0  0  0  0  0  0  0  0  0
  153.8972  139.4565  161.0761 C   0  0  0  0  0  0  0  0  0  0  0  0
  154.2412  140.5741  161.8654 C   0  0  0  0  0  0  0  0  0  0  0  0
  153.8598  141.8634  161.4475 C   0  0  0  0  0  0  0  0  0  0  0  0
  153.1394  142.0210  160.2395 C   0  0  0  0  0  0  0  0  0  0  0  0
  152.7228  143.2807  159.7565 N   0  0  0  0  0  0  0  0  0  0  0  0
  152.1647  143.3563  158.4094 C   0  0  0  0  0  0  0  0  0  0  0  0
  152.0646  144.8219  157.9521 C   0  0  0  0  0  0  0  0  0  0  0  0
  151.3142  145.5707  158.9023 O   0  0  0  0  0  0  0  0  0  0  0  0
  151.9386  145.5770  160.1819 C   0  0  0  0  0  0  0  0  0  0  0  0
  152.0391  144.1393  160.7210 C   0  0  0  0  0  0  0  0  0  0  0  0
  152.8385  140.8391  159.5238 C   0  0  0  0  0  0  0  0  0  0  0  0
  153.2022  139.6028  159.9232 N   0  0  0  0  0  0  0  0  0  0  0  0
  154.4528  134.6102  165.2674 H   0  0  0  0  0  0  0  0  0  0  0  0
  155.7144  134.2934  164.0816 H   0  0  0  0  0  0  0  0  0  0  0  0
  154.0862  133.6620  163.8340 H   0  0  0  0  0  0  0  0  0  0  0  0
  153.2138  136.0141  163.6123 H   0  0  0  0  0  0  0  0  0  0  0  0
  154.8043  136.6400  163.9338 H   0  0  0  0  0  0  0  0  0  0  0  0
  154.2309  134.8662  161.5324 H   0  0  0  0  0  0  0  0  0  0  0  0
  156.3688  135.8410  160.6599 H   0  0  0  0  0  0  0  0  0  0  0  0
  156.6025  134.9490  162.1555 H   0  0  0  0  0  0  0  0  0  0  0  0
  156.5853  136.7085  162.1789 H   0  0  0  0  0  0  0  0  0  0  0  0
  155.0251  138.2468  162.3149 H   0  0  0  0  0  0  0  0  0  0  0  0
  154.7954  140.4507  162.7845 H   0  0  0  0  0  0  0  0  0  0  0  0
  154.1373  142.7083  162.0594 H   0  0  0  0  0  0  0  0  0  0  0  0
  152.7923  142.8040  157.7090 H   0  0  0  0  0  0  0  0  0  0  0  0
  151.1757  142.8962  158.4005 H   0  0  0  0  0  0  0  0  0  0  0  0
  153.0566  145.2597  157.8293 H   0  0  0  0  0  0  0  0  0  0  0  0
  151.5694  144.8797  156.9828 H   0  0  0  0  0  0  0  0  0  0  0  0
  152.9261  146.0365  160.1146 H   0  0  0  0  0  0  0  0  0  0  0  0
  151.3483  146.1918  160.8615 H   0  0  0  0  0  0  0  0  0  0  0  0
  151.0405  143.7392  160.9012 H   0  0  0  0  0  0  0  0  0  0  0  0
  152.5507  144.1572  161.6822 H   0  0  0  0  0  0  0  0  0  0  0  0
  152.2707  140.8723  158.6060 H   0  0  0  0  0  0  0  0  0  0  0  0
  1  2  1  0  0  0  0
  1 20  1  0  0  0  0
  1 21  1  0  0  0  0
  1 22  1  0  0  0  0
  2  3  1  0  0  0  0
  2 23  1  0  0  0  0
  2 24  1  0  0  0  0
  3  4  1  0  0  0  0
  3  5  1  0  0  0  0
  3 25  1  0  0  0  0
  4 26  1  0  0  0  0
  4 27  1  0  0  0  0
  4 28  1  0  0  0  0
  5  6  2  0  0  0  0
  5  7  1  0  0  0  0
  7  8  1  0  0  0  0
  7 29  1  0  0  0  0
  8 19  1  0  0  0  0
  8  9  2  0  0  0  0
  9 10  1  0  0  0  0
  9 30  1  0  0  0  0
 10 11  2  0  0  0  0
 10 31  1  0  0  0  0
 11 12  1  0  0  0  0
 11 18  1  0  0  0  0
 12 17  1  0  0  0  0
 12 13  1  0  0  0  0
 13 14  1  0  0  0  0
 13 32  1  0  0  0  0
 13 33  1  0  0  0  0
 14 15  1  0  0  0  0
 14 34  1  0  0  0  0
 14 35  1  0  0  0  0
 15 16  1  0  0  0  0
 16 17  1  0  0  0  0
 16 36  1  0  0  0  0
 16 37  1  0  0  0  0
 17 38  1  0  0  0  0
 17 39  1  0  0  0  0
 18 19  2  0  0  0  0
 18 40  1  0  0  0  0
M  END
> <s_m_source_file>
AV-unprocessed.smi

> <i_m_source_file_index>
400

> <i_lp_mmshare_version>
43012

> <i_f3d_flags>
0

> <s_epik_input>
W0NIM11bQ0gyXVtDQEhdKFtDSDNdKUMoPU8pW05IXWMxW2NIXVtjSF1jKFtjSF1uMSlOMltDSDJdW0NIMl1PW0NIMl1bQ0gyXTI=

> <s_epik_cmdline>
J2VwaWtfcHl0aG9uJywgJy1waCcsICc3LjAnLCAnLXRuJywgJzgnLCAnLW1hJywgJzIwMCcsICctbWV0YWxfYmluZGluZycsICctaW1hZScsICc8aW5maWxlLm1hZT4nLCAnLW9tYWUnLCAnPG91dGZpbGUubWFlPic=

> <r_lp_tautomer_probability>
1

> <r_epik_Ionization_Penalty>
0.00393323

> <r_epik_Ionization_Penalty_Charging>
0

> <r_epik_Ionization_Penalty_Neutral>
0.00393323

> <r_epik_State_Penalty>
0.00357844

> <r_epik_Charging_Adjusted_Penalty>
0.00357844

> <i_epik_Tot_Q>
0

> <i_epik_Tot_abs_Q>
0

> <r_epik_Metal_State_Penalty>
-0

> <b_epik_Metal_Only>
0

> <s_lp_Force_Field>
OPLS_2005

> <r_lp_Energy>
25.3319

> <b_lp_Chiralities_Consistent>
1

> <s_lp_Variant>
AV-unprocessed.smi:400-1

> <Gold.Version>
5.8.1

> <Gold.Id.Protein>
6NUR|6NUR_protein|mol2

> <Gold.PLP.Fitness>
44.0240

> <Gold.PLP.PLP>
-41.2566

> <Gold.PLP.part.hbond>
-1.9486

> <Gold.PLP.part.metal>
0.0000

> <Gold.PLP.part.buried>
-5.2233

> <Gold.PLP.part.nonpolar>
-34.0367

> <Gold.PLP.part.repulsive>
0.1482

> <Gold.PLP.ligand.clash>
0.0000

> <Gold.PLP.ligand.torsion>
0.3046

> <Gold.PLP.Chemscore.Hbond>
0.9913

> <Gold.PLP.Chemscore.CHOScore>
0.0000

> <Gold.PLP.Chemscore.Metal>
0.0000

> <Gold.Chemscore.Hbonds>
donor molecule, donor type, donor heavy atom, donor atom, acceptor molecule, acceptor atom, score
      P1  H  6896  6908       L1     6  1.00

> <Gold.PLP.Chemscore.Internal.Correction>
0.4029

> <Gold.Rescore>
     Score         DG    S(hbond)    S(metal)    S(lipo)     H(rot)  DE(clash)    DE(int)     intcor
     16.90     -18.64       0.99        0.00     112.72       1.30       0.17       1.57       ----

> <Gold.Chemscore.Fitness>
16.9030

> <Gold.Chemscore.DG>
-18.6427

> <Gold.Chemscore.ZeroCoef>
-5.4800

> <Gold.Chemscore.Hbond>
0.9918

> <Gold.Chemscore.Metal>
0.0000

> <Gold.Chemscore.Lipo>
112.7243

> <Gold.Chemscore.Internal_Hbond>
0.0000

> <Gold.Chemscore.DEClash>
0.1670

> <Gold.Chemscore.DEInternal>
1.5727

> <Gold.Chemscore.Rot>
1.3041

> <Gold.Chemscore.Internal.Correction>
   9.000000E+99

> <Gold.Chemscore.Hbonds>
donor molecule, donor type, donor heavy atom, donor atom, acceptor molecule, acceptor atom, score
      P1  H  6896  6908       L1     6  0.95

> <Gold.Chemscore.Hbond.Weighted>
-3.3125

> <Gold.Chemscore.Metal.Weighted>
-0.0000

> <Gold.Chemscore.Lipo.Weighted>
-13.1887

> <Gold.Chemscore.Internal_Hbond.Weighted>
0.0000

> <Gold.Chemscore.DEClash.Weighted>
0.1670

> <Gold.Chemscore.DEInternal.Weighted>
1.5727

> <Gold.Chemscore.Rot.Weighted>
3.3385

> <Gold.Chemscore.Internal.Correction.Weighted>
   9.000000E+99

> <Gold.Protein.RotatedTorsions>
[ 6907 6896 6895 6894 ] final  -87.88 input  -60.11 | X-H torsion
[ 7974 7965 7964 7962 ] final   59.77 input  175.53 | X-H torsion
[ 8008 7997 7996 7995 ] final   31.51 input   59.86 | X-H torsion
[ 10167 10162 10161 10158 ] final -137.22 input  -65.29 | X-H torsion
[ 10718 10713 10712 10709 ] final  -12.57 input   66.30 | X-H torsion
[ 10763 10752 10751 10750 ] final   54.68 input  -60.55 | X-H torsion
[ 11005 11000 10999 10996 ] final -145.06 input  -57.11 | X-H torsion

> <Gold.Protein.ActiveResidues>
 VAL166  LYS551  ARG553  GLY616  TRP617  ASP618  TYR619  PRO620  LYS621  CYS622 
 ASP623  PHE694  ASN695  SER759  ASP760  ASP761  ALA762  ILE779  LEU786  VAL792 
 PHE793  MET794  SER795  GLU796  ALA797  LYS798  CYS799  TRP800  GLU811  SER814 

> <Gold.Protein.RotatedAtoms>
  150.6867  134.2828  159.4634 H   0  0  0  0  0  0  0  0  0  0  0  0  # atno 6907 bound_to 6896
  152.0741  134.9512  160.0583 H   0  0  0  0  0  0  0  0  0  0  0  0  # atno 6908 bound_to 6896
  152.0890  133.4156  159.4572 H   0  0  0  0  0  0  0  0  0  0  0  0  # atno 6909 bound_to 6896
  145.9035  139.3599  143.0578 H   0  0  0  0  0  0  0  0  0  0  0  0  # atno 7974 bound_to 7965
  155.1075  140.3236  155.4530 H   0  0  0  0  0  0  0  0  0  0  0  0  # atno 8008 bound_to 7997
  156.2700  140.2050  156.6148 H   0  0  0  0  0  0  0  0  0  0  0  0  # atno 8009 bound_to 7997
  154.6781  140.0529  157.0224 H   0  0  0  0  0  0  0  0  0  0  0  0  # atno 8010 bound_to 7997
  139.8599  143.7090  152.2651 H   0  0  0  0  0  0  0  0  0  0  0  0  # atno 10167 bound_to 10162
  156.6427  130.4932  149.6089 H   0  0  0  0  0  0  0  0  0  0  0  0  # atno 10718 bound_to 10713
  152.9807  135.5736  154.4944 H   0  0  0  0  0  0  0  0  0  0  0  0  # atno 10763 bound_to 10752
  154.4474  135.2777  155.1807 H   0  0  0  0  0  0  0  0  0  0  0  0  # atno 10764 bound_to 10752
  154.3450  135.6221  153.5668 H   0  0  0  0  0  0  0  0  0  0  0  0  # atno 10765 bound_to 10752
  140.7961  134.2911  157.4996 H   0  0  0  0  0  0  0  0  0  0  0  0  # atno 11005 bound_to 11000
  145.8762  140.9390  143.0625 LP  0  0  0  0  0  0  0  0  0  0  0  0  # atno 17320 bound_to 7965
  144.6737  140.0719  143.7472 LP  0  0  0  0  0  0  0  0  0  0  0  0  # atno 17321 bound_to 7965
  139.7384  144.7565  151.0691 LP  0  0  0  0  0  0  0  0  0  0  0  0  # atno 17342 bound_to 10162
  140.7776  143.5003  150.9780 LP  0  0  0  0  0  0  0  0  0  0  0  0  # atno 17343 bound_to 10162
  156.2146  130.6700  151.1305 LP  0  0  0  0  0  0  0  0  0  0  0  0  # atno 17370 bound_to 10713
  157.7166  131.0706  150.6303 LP  0  0  0  0  0  0  0  0  0  0  0  0  # atno 17371 bound_to 10713
  139.8726  134.9403  156.3765 LP  0  0  0  0  0  0  0  0  0  0  0  0  # atno 17394 bound_to 11000
  140.9341  133.7559  156.0062 LP  0  0  0  0  0  0  0  0  0  0  0  0  # atno 17395 bound_to 11000

$$$$
