AV-unprocessed.smi:2012|AV-procd|sdf|8156|dock6
  -GOLD-   2272010403D 1   1.00000     0.00000
 Structure written by MMmdl.
 50 51  0  0  0  0  0  0  0  0  1 V2000
  144.7500  136.2274  151.3171 C   0  0  0  0  0  0  0  0  0  0  0  0
  144.7442  136.4536  152.8253 C   0  0  0  0  0  0  0  0  0  0  0  0
  143.6853  136.3813  153.4462 O   0  0  0  0  0  0  0  0  0  0  0  0
  145.9333  136.7394  153.3856 N   0  0  0  0  0  0  0  0  0  0  0  0
  146.2538  136.9756  154.8005 C   0  0  1  0  0  0  0  0  0  0  0  0
  146.8913  138.3620  155.0017 C   0  0  0  0  0  0  0  0  0  0  0  0
  146.4331  139.1438  155.8353 O   0  0  0  0  0  0  0  0  0  0  0  0
  147.9690  138.6426  154.2518 N   0  0  0  0  0  0  0  0  0  0  0  0
  148.7451  139.8747  154.3373 C   0  0  0  0  0  0  0  0  0  0  0  0
  150.0882  139.6907  155.0257 C   0  0  0  0  0  0  0  0  0  0  0  0
  150.9872  138.7034  154.5802 C   0  0  0  0  0  0  0  0  0  0  0  0
  152.2200  138.5769  155.2443 C   0  0  0  0  0  0  0  0  0  0  0  0
  152.5807  139.3522  156.2879 N   0  0  0  0  0  0  0  0  0  0  0  0
  151.7247  140.3030  156.7360 C   0  0  0  0  0  0  0  0  0  0  0  0
  152.1628  141.0928  157.8257 N   0  0  0  0  0  0  0  0  0  0  0  0
  151.5776  142.4185  158.0147 C   0  0  0  0  0  0  0  0  0  0  0  0
  152.4019  143.2424  159.0179 C   0  0  0  0  0  0  0  0  0  0  0  0
  152.5481  142.5179  160.2332 O   0  0  0  0  0  0  0  0  0  0  0  0
  153.2545  141.2997  160.0323 C   0  0  0  0  0  0  0  0  0  0  0  0
  152.4659  140.3914  159.0738 C   0  0  0  0  0  0  0  0  0  0  0  0
  150.4589  140.4958  156.1246 C   0  0  0  0  0  0  0  0  0  0  0  0
  145.1022  136.6147  155.7913 C   0  0  0  0  0  0  0  0  0  0  0  0
  144.0163  137.7056  155.8717 C   0  0  0  0  0  0  0  0  0  0  0  0
  145.6307  136.3172  157.2078 C   0  0  0  0  0  0  0  0  0  0  0  0
  145.7273  135.8891  150.9709 H   0  0  0  0  0  0  0  0  0  0  0  0
  144.5017  137.1536  150.7985 H   0  0  0  0  0  0  0  0  0  0  0  0
  144.0134  135.4718  151.0426 H   0  0  0  0  0  0  0  0  0  0  0  0
  146.7209  136.7856  152.7560 H   0  0  0  0  0  0  0  0  0  0  0  0
  147.0485  136.2546  155.0000 H   0  0  0  0  0  0  0  0  0  0  0  0
  148.2883  137.9450  153.5956 H   0  0  0  0  0  0  0  0  0  0  0  0
  148.9264  140.2355  153.3248 H   0  0  0  0  0  0  0  0  0  0  0  0
  148.1632  140.6481  154.8415 H   0  0  0  0  0  0  0  0  0  0  0  0
  150.7448  138.0611  153.7463 H   0  0  0  0  0  0  0  0  0  0  0  0
  152.9374  137.8341  154.9288 H   0  0  0  0  0  0  0  0  0  0  0  0
  151.5498  142.9617  157.0706 H   0  0  0  0  0  0  0  0  0  0  0  0
  150.5509  142.3121  158.3675 H   0  0  0  0  0  0  0  0  0  0  0  0
  153.3828  143.4865  158.6065 H   0  0  0  0  0  0  0  0  0  0  0  0
  151.9013  144.1881  159.2260 H   0  0  0  0  0  0  0  0  0  0  0  0
  154.2524  141.5043  159.6409 H   0  0  0  0  0  0  0  0  0  0  0  0
  153.3868  140.8038  160.9939 H   0  0  0  0  0  0  0  0  0  0  0  0
  151.5293  140.0810  159.5377 H   0  0  0  0  0  0  0  0  0  0  0  0
  153.0502  139.4883  158.8990 H   0  0  0  0  0  0  0  0  0  0  0  0
  149.7631  141.2414  156.4770 H   0  0  0  0  0  0  0  0  0  0  0  0
  144.5963  135.7176  155.4362 H   0  0  0  0  0  0  0  0  0  0  0  0
  144.4414  138.6705  156.1498 H   0  0  0  0  0  0  0  0  0  0  0  0
  143.2577  137.4520  156.6127 H   0  0  0  0  0  0  0  0  0  0  0  0
  143.4962  137.8273  154.9217 H   0  0  0  0  0  0  0  0  0  0  0  0
  146.1525  137.1794  157.6238 H   0  0  0  0  0  0  0  0  0  0  0  0
  146.3215  135.4746  157.2165 H   0  0  0  0  0  0  0  0  0  0  0  0
  144.8149  136.0655  157.8859 H   0  0  0  0  0  0  0  0  0  0  0  0
  1  2  1  0  0  0  0
  1 25  1  0  0  0  0
  1 26  1  0  0  0  0
  1 27  1  0  0  0  0
  2  3  2  0  0  0  0
  2  4  1  0  0  0  0
  4  5  1  0  0  0  0
  4 28  1  0  0  0  0
  5  6  1  0  0  0  0
  5 22  1  0  0  0  0
  5 29  1  0  0  0  0
  6  7  2  0  0  0  0
  6  8  1  0  0  0  0
  8  9  1  0  0  0  0
  8 30  1  0  0  0  0
  9 10  1  0  0  0  0
  9 31  1  0  0  0  0
  9 32  1  0  0  0  0
 10 21  1  0  0  0  0
 10 11  2  0  0  0  0
 11 12  1  0  0  0  0
 11 33  1  0  0  0  0
 12 13  2  0  0  0  0
 12 34  1  0  0  0  0
 13 14  1  0  0  0  0
 14 15  1  0  0  0  0
 14 21  2  0  0  0  0
 15 20  1  0  0  0  0
 15 16  1  0  0  0  0
 16 17  1  0  0  0  0
 16 35  1  0  0  0  0
 16 36  1  0  0  0  0
 17 18  1  0  0  0  0
 17 37  1  0  0  0  0
 17 38  1  0  0  0  0
 18 19  1  0  0  0  0
 19 20  1  0  0  0  0
 19 39  1  0  0  0  0
 19 40  1  0  0  0  0
 20 41  1  0  0  0  0
 20 42  1  0  0  0  0
 21 43  1  0  0  0  0
 22 23  1  0  0  0  0
 22 24  1  0  0  0  0
 22 44  1  0  0  0  0
 23 45  1  0  0  0  0
 23 46  1  0  0  0  0
 23 47  1  0  0  0  0
 24 48  1  0  0  0  0
 24 49  1  0  0  0  0
 24 50  1  0  0  0  0
M  END
> <s_m_source_file>
AV-unprocessed.smi

> <i_m_source_file_index>
2012

> <i_lp_mmshare_version>
43012

> <i_f3d_flags>
0

> <s_epik_input>
W0NIM11DKD1PKVtOSF1bQ0BASF0oW0NIXShbQ0gzXSlbQ0gzXSlDKD1PKVtOSF1bQ0gyXWMxW2NIXVtjSF1uYyhbY0hdMSlOMltDSDJdW0NIMl1PW0NIMl1bQ0gyXTI=

> <s_epik_cmdline>
J2VwaWtfcHl0aG9uJywgJy1waCcsICc3LjAnLCAnLXRuJywgJzgnLCAnLW1hJywgJzIwMCcsICctbWV0YWxfYmluZGluZycsICctaW1hZScsICc8aW5maWxlLm1hZT4nLCAnLW9tYWUnLCAnPG91dGZpbGUubWFlPic=

> <r_lp_tautomer_probability>
1

> <r_epik_Ionization_Penalty>
0.00518786

> <r_epik_Ionization_Penalty_Charging>
0

> <r_epik_Ionization_Penalty_Neutral>
0.00518786

> <r_epik_State_Penalty>
0.00378052

> <r_epik_Charging_Adjusted_Penalty>
0.00378052

> <i_epik_Tot_Q>
0

> <i_epik_Tot_abs_Q>
0

> <r_epik_Metal_State_Penalty>
-0

> <b_epik_Metal_Only>
0

> <s_lp_Force_Field>
OPLS_2005

> <r_lp_Energy>
18.0004

> <b_lp_Chiralities_Consistent>
1

> <s_lp_Variant>
AV-unprocessed.smi:2012-2

> <Gold.Version>
5.8.1

> <Gold.Id.Protein>
6NUR|6NUR_protein|mol2

> <Gold.PLP.Fitness>
44.2386

> <Gold.PLP.PLP>
-36.1412

> <Gold.PLP.part.hbond>
-3.0000

> <Gold.PLP.part.metal>
0.0000

> <Gold.PLP.part.buried>
-2.7378

> <Gold.PLP.part.nonpolar>
-29.7855

> <Gold.PLP.part.repulsive>
0.1317

> <Gold.PLP.ligand.clash>
0.0054

> <Gold.PLP.ligand.torsion>
0.8728

> <Gold.PLP.Chemscore.Hbond>
3.0000

> <Gold.PLP.Chemscore.CHOScore>
0.0000

> <Gold.PLP.Chemscore.Metal>
0.0000

> <Gold.Chemscore.Hbonds>
donor molecule, donor type, donor heavy atom, donor atom, acceptor molecule, acceptor atom, score
      P1  H  7997  8010       L1    13  1.00

> <Gold.PLP.Chemscore.Internal.Correction>
0.8485

> <Gold.Rescore>
     Score         DG    S(hbond)    S(metal)    S(lipo)     H(rot)  DE(clash)    DE(int)     intcor
     12.59     -18.88       2.79        0.00      82.51       2.18       1.05       5.24       ----

> <Gold.Chemscore.Fitness>
12.5950

> <Gold.Chemscore.DG>
-18.8820

> <Gold.Chemscore.ZeroCoef>
-5.4800

> <Gold.Chemscore.Hbond>
2.7942

> <Gold.Chemscore.Metal>
0.0000

> <Gold.Chemscore.Lipo>
82.5080

> <Gold.Chemscore.Internal_Hbond>
0.0000

> <Gold.Chemscore.DEClash>
1.0467

> <Gold.Chemscore.DEInternal>
5.2403

> <Gold.Chemscore.Rot>
2.1813

> <Gold.Chemscore.Internal.Correction>
   9.000000E+99

> <Gold.Chemscore.Hbonds>
donor molecule, donor type, donor heavy atom, donor atom, acceptor molecule, acceptor atom, score
      L1  H     4    28       P1  7948  0.04
      L1  H     8    30       P1  7948  0.01
      P1  H  7997  8010       L1    13  0.58

> <Gold.Chemscore.Hbond.Weighted>
-9.3328

> <Gold.Chemscore.Metal.Weighted>
-0.0000

> <Gold.Chemscore.Lipo.Weighted>
-9.6534

> <Gold.Chemscore.Internal_Hbond.Weighted>
0.0000

> <Gold.Chemscore.DEClash.Weighted>
1.0467

> <Gold.Chemscore.DEInternal.Weighted>
5.2403

> <Gold.Chemscore.Rot.Weighted>
5.5842

> <Gold.Chemscore.Internal.Correction.Weighted>
   9.000000E+99

> <Gold.Protein.RotatedTorsions>
[ 6907 6896 6895 6894 ] final  -29.74 input  -60.11 | X-H torsion
[ 7974 7965 7964 7962 ] final  -89.32 input  175.53 | X-H torsion
[ 8008 7997 7996 7995 ] final   79.16 input   59.86 | X-H torsion
[ 10167 10162 10161 10158 ] final  -61.11 input  -65.29 | X-H torsion
[ 10718 10713 10712 10709 ] final   -0.01 input   66.30 | X-H torsion
[ 10763 10752 10751 10750 ] final  176.92 input  -60.55 | X-H torsion
[ 11005 11000 10999 10996 ] final   36.29 input  -57.11 | X-H torsion

> <Gold.Protein.ActiveResidues>
 VAL166  LYS551  ARG553  GLY616  TRP617  ASP618  TYR619  PRO620  LYS621  CYS622 
 ASP623  PHE694  ASN695  SER759  ASP760  ASP761  ALA762  ILE779  LEU786  VAL792 
 PHE793  MET794  SER795  GLU796  ALA797  LYS798  CYS799  TRP800  GLU811  SER814 

> <Gold.Protein.RotatedAtoms>
  151.1151  135.0048  159.8511 H   0  0  0  0  0  0  0  0  0  0  0  0  # atno 6907 bound_to 6896
  152.5445  134.1790  159.8638 H   0  0  0  0  0  0  0  0  0  0  0  0  # atno 6908 bound_to 6896
  151.1843  133.4661  159.2627 H   0  0  0  0  0  0  0  0  0  0  0  0  # atno 6909 bound_to 6896
  145.4413  140.9559  143.2073 H   0  0  0  0  0  0  0  0  0  0  0  0  # atno 7974 bound_to 7965
  155.8658  140.3451  155.5787 H   0  0  0  0  0  0  0  0  0  0  0  0  # atno 8008 bound_to 7997
  155.7883  140.0868  157.2042 H   0  0  0  0  0  0  0  0  0  0  0  0  # atno 8009 bound_to 7997
  154.4014  140.1488  156.3120 H   0  0  0  0  0  0  0  0  0  0  0  0  # atno 8010 bound_to 7997
  140.6027  143.2365  151.5891 H   0  0  0  0  0  0  0  0  0  0  0  0  # atno 10167 bound_to 10162
  156.8267  130.5474  149.5691 H   0  0  0  0  0  0  0  0  0  0  0  0  # atno 10718 bound_to 10713
  154.4876  135.2777  155.1522 H   0  0  0  0  0  0  0  0  0  0  0  0  # atno 10763 bound_to 10752
  154.3207  135.6210  153.5510 H   0  0  0  0  0  0  0  0  0  0  0  0  # atno 10764 bound_to 10752
  152.9883  135.5742  154.5290 H   0  0  0  0  0  0  0  0  0  0  0  0  # atno 10765 bound_to 10752
  140.2340  134.3493  155.7952 H   0  0  0  0  0  0  0  0  0  0  0  0  # atno 11005 bound_to 11000
  144.8120  139.5946  143.7025 LP  0  0  0  0  0  0  0  0  0  0  0  0  # atno 17320 bound_to 7965
  146.2555  139.6292  142.9398 LP  0  0  0  0  0  0  0  0  0  0  0  0  # atno 17321 bound_to 7965
  139.5303  144.2937  152.1131 LP  0  0  0  0  0  0  0  0  0  0  0  0  # atno 17342 bound_to 10162
  140.2121  144.4552  150.6381 LP  0  0  0  0  0  0  0  0  0  0  0  0  # atno 17343 bound_to 10162
  156.0957  130.5931  150.9810 LP  0  0  0  0  0  0  0  0  0  0  0  0  # atno 17370 bound_to 10713
  157.6428  131.0908  150.8215 LP  0  0  0  0  0  0  0  0  0  0  0  0  # atno 17371 bound_to 10713
  141.2216  133.7261  156.8778 LP  0  0  0  0  0  0  0  0  0  0  0  0  # atno 17394 bound_to 11000
  140.1721  134.9092  157.2846 LP  0  0  0  0  0  0  0  0  0  0  0  0  # atno 17395 bound_to 11000

$$$$
