AV-unprocessed.smi:1280|AV-procd|sdf|5357|dock6
  -GOLD-   22720 4493D 1   1.00000     0.00000
 Structure written by MMmdl.
 45 46  0  0  0  0  0  0  0  0  1 V2000
  148.8044  141.9037  154.6304 C   0  0  0  0  0  0  0  0  0  0  0  0
  149.2524  140.1237  154.7176 S   0  0  0  0  0  0  0  0  0  0  0  0
  150.7046  139.9982  154.5211 O   0  0  0  0  0  0  0  0  0  0  0  0
  148.6107  139.5251  155.8978 O   0  0  0  0  0  0  0  0  0  0  0  0
  148.4758  139.4755  153.3220 N   0  0  0  0  0  0  0  0  0  0  0  0
  147.0864  139.8553  153.0764 C   0  0  0  0  0  0  0  0  0  0  0  0
  146.3893  138.7961  152.2139 C   0  0  0  0  0  0  0  0  0  0  0  0
  145.8604  137.6205  153.0503 C   0  0  0  0  0  0  0  0  0  0  0  0
  145.8655  136.3776  152.2901 N   0  0  0  0  0  0  0  0  0  0  0  0
  144.7825  135.6301  152.0216 C   0  0  0  0  0  0  0  0  0  0  0  0
  143.6404  135.9469  152.3544 O   0  0  0  0  0  0  0  0  0  0  0  0
  145.0251  134.3847  151.2094 C   0  0  0  0  0  0  0  0  0  0  0  0
  144.1777  134.1244  150.1090 C   0  0  0  0  0  0  0  0  0  0  0  0
  144.3848  132.9747  149.3270 C   0  0  0  0  0  0  0  0  0  0  0  0
  145.4374  132.1133  149.6788 C   0  0  0  0  0  0  0  0  0  0  0  0
  146.2454  132.3317  150.7354 N   0  0  0  0  0  0  0  0  0  0  0  0
  146.0502  133.4333  151.5022 C   0  0  0  0  0  0  0  0  0  0  0  0
  146.8870  133.5649  152.6289 N   0  0  0  0  0  0  0  0  0  0  0  0
  146.2953  133.0794  153.8695 C   0  0  0  0  0  0  0  0  0  0  0  0
  147.1445  133.5404  155.0664 C   0  0  0  0  0  0  0  0  0  0  0  0
  148.4919  133.1088  154.8938 O   0  0  0  0  0  0  0  0  0  0  0  0
  149.0831  133.6478  153.7143 C   0  0  0  0  0  0  0  0  0  0  0  0
  148.2882  133.1857  152.4810 C   0  0  0  0  0  0  0  0  0  0  0  0
  149.2462  142.4293  155.4767 H   0  0  0  0  0  0  0  0  0  0  0  0
  147.7207  142.0111  154.6639 H   0  0  0  0  0  0  0  0  0  0  0  0
  149.1846  142.3300  153.7023 H   0  0  0  0  0  0  0  0  0  0  0  0
  149.0438  139.6314  152.4894 H   0  0  0  0  0  0  0  0  0  0  0  0
  146.5725  139.9713  154.0313 H   0  0  0  0  0  0  0  0  0  0  0  0
  147.0657  140.8236  152.5752 H   0  0  0  0  0  0  0  0  0  0  0  0
  145.5646  139.2595  151.6704 H   0  0  0  0  0  0  0  0  0  0  0  0
  147.0851  138.4223  151.4614 H   0  0  0  0  0  0  0  0  0  0  0  0
  146.4875  137.4784  153.9309 H   0  0  0  0  0  0  0  0  0  0  0  0
  144.8544  137.8317  153.4172 H   0  0  0  0  0  0  0  0  0  0  0  0
  146.7605  136.0492  151.9571 H   0  0  0  0  0  0  0  0  0  0  0  0
  143.3784  134.8052  149.8532 H   0  0  0  0  0  0  0  0  0  0  0  0
  143.7545  132.7610  148.4766 H   0  0  0  0  0  0  0  0  0  0  0  0
  145.6319  131.2215  149.1014 H   0  0  0  0  0  0  0  0  0  0  0  0
  145.2720  133.4388  153.9793 H   0  0  0  0  0  0  0  0  0  0  0  0
  146.2490  131.9898  153.8404 H   0  0  0  0  0  0  0  0  0  0  0  0
  147.1100  134.6262  155.1703 H   0  0  0  0  0  0  0  0  0  0  0  0
  146.7510  133.1187  155.9915 H   0  0  0  0  0  0  0  0  0  0  0  0
  149.1094  134.7371  153.7741 H   0  0  0  0  0  0  0  0  0  0  0  0
  150.1160  133.3064  153.6458 H   0  0  0  0  0  0  0  0  0  0  0  0
  148.3683  132.1028  152.3750 H   0  0  0  0  0  0  0  0  0  0  0  0
  148.7022  133.6346  151.5773 H   0  0  0  0  0  0  0  0  0  0  0  0
  1  2  1  0  0  0  0
  1 24  1  0  0  0  0
  1 25  1  0  0  0  0
  1 26  1  0  0  0  0
  2  3  2  0  0  0  0
  2  4  2  0  0  0  0
  2  5  1  0  0  0  0
  5  6  1  0  0  0  0
  5 27  1  0  0  0  0
  6  7  1  0  0  0  0
  6 28  1  0  0  0  0
  6 29  1  0  0  0  0
  7  8  1  0  0  0  0
  7 30  1  0  0  0  0
  7 31  1  0  0  0  0
  8  9  1  0  0  0  0
  8 32  1  0  0  0  0
  8 33  1  0  0  0  0
  9 10  1  0  0  0  0
  9 34  1  0  0  0  0
 10 11  2  0  0  0  0
 10 12  1  0  0  0  0
 12 17  1  0  0  0  0
 12 13  2  0  0  0  0
 13 14  1  0  0  0  0
 13 35  1  0  0  0  0
 14 15  2  0  0  0  0
 14 36  1  0  0  0  0
 15 16  1  0  0  0  0
 15 37  1  0  0  0  0
 16 17  2  0  0  0  0
 17 18  1  0  0  0  0
 18 23  1  0  0  0  0
 18 19  1  0  0  0  0
 19 20  1  0  0  0  0
 19 38  1  0  0  0  0
 19 39  1  0  0  0  0
 20 21  1  0  0  0  0
 20 40  1  0  0  0  0
 20 41  1  0  0  0  0
 21 22  1  0  0  0  0
 22 23  1  0  0  0  0
 22 42  1  0  0  0  0
 22 43  1  0  0  0  0
 23 44  1  0  0  0  0
 23 45  1  0  0  0  0
M  END
> <s_m_source_file>
AV-unprocessed.smi

> <i_m_source_file_index>
1280

> <i_lp_mmshare_version>
43012

> <i_f3d_flags>
0

> <s_epik_input>
W0NIM11TKD1PKSg9TylbTkhdW0NIMl1bQ0gyXVtDSDJdW05IXUMoPU8pYzFbY0hdW2NIXVtjSF1uYzFOMltDSDJdW0NIMl1PW0NIMl1bQ0gyXTI=

> <s_epik_cmdline>
J2VwaWtfcHl0aG9uJywgJy1waCcsICc3LjAnLCAnLXRuJywgJzgnLCAnLW1hJywgJzIwMCcsICctbWV0YWxfYmluZGluZycsICctaW1hZScsICc8aW5maWxlLm1hZT4nLCAnLW9tYWUnLCAnPG91dGZpbGUubWFlPic=

> <r_lp_tautomer_probability>
1

> <r_epik_Ionization_Penalty>
2.29251e-05

> <r_epik_Ionization_Penalty_Charging>
0

> <r_epik_Ionization_Penalty_Neutral>
2.29251e-05

> <r_epik_State_Penalty>
-0

> <r_epik_Charging_Adjusted_Penalty>
0

> <i_epik_Tot_Q>
0

> <i_epik_Tot_abs_Q>
0

> <r_epik_Metal_State_Penalty>
0.00766126

> <b_epik_Metal_Only>
0

> <s_lp_Force_Field>
OPLS_2005

> <r_lp_Energy>
17.2463

> <b_lp_Chiralities_Consistent>
1

> <s_lp_Variant>
AV-unprocessed.smi:1280-1

> <Gold.Version>
5.8.1

> <Gold.Id.Protein>
6NUR|6NUR_protein|mol2

> <Gold.PLP.Fitness>
42.3994

> <Gold.PLP.PLP>
-37.3216

> <Gold.PLP.part.hbond>
-2.9122

> <Gold.PLP.part.metal>
0.0000

> <Gold.PLP.part.buried>
-3.0459

> <Gold.PLP.part.nonpolar>
-31.5240

> <Gold.PLP.part.repulsive>
0.5304

> <Gold.PLP.ligand.clash>
0.0000

> <Gold.PLP.ligand.torsion>
2.1142

> <Gold.PLP.Chemscore.Hbond>
2.9516

> <Gold.PLP.Chemscore.CHOScore>
0.0000

> <Gold.PLP.Chemscore.Metal>
0.0000

> <Gold.Chemscore.Hbonds>
donor molecule, donor type, donor heavy atom, donor atom, acceptor molecule, acceptor atom, score
      L1  H     5    27       P1  7957  0.91
      L1  H     9    34       P1  7948  0.63
      P1  H  7989  7998       L1     3  1.00

> <Gold.PLP.Chemscore.Internal.Correction>
0.4515

> <Gold.Rescore>
     Score         DG    S(hbond)    S(metal)    S(lipo)     H(rot)  DE(clash)    DE(int)     intcor
     14.15     -16.92       2.86        0.00      72.60       2.58       0.26       2.52       ----

> <Gold.Chemscore.Fitness>
14.1456

> <Gold.Chemscore.DG>
-16.9220

> <Gold.Chemscore.ZeroCoef>
-5.4800

> <Gold.Chemscore.Hbond>
2.8626

> <Gold.Chemscore.Metal>
0.0000

> <Gold.Chemscore.Lipo>
72.6041

> <Gold.Chemscore.Internal_Hbond>
0.0000

> <Gold.Chemscore.DEClash>
0.2564

> <Gold.Chemscore.DEInternal>
2.5201

> <Gold.Chemscore.Rot>
2.5835

> <Gold.Chemscore.Internal.Correction>
   9.000000E+99

> <Gold.Chemscore.Hbonds>
donor molecule, donor type, donor heavy atom, donor atom, acceptor molecule, acceptor atom, score
      L1  H     5    27       P1  7957  0.89
      L1  H     9    34       P1  7948  0.60
      P1  H  7989  7998       L1     3  0.99

> <Gold.Chemscore.Hbond.Weighted>
-9.5611

> <Gold.Chemscore.Metal.Weighted>
-0.0000

> <Gold.Chemscore.Lipo.Weighted>
-8.4947

> <Gold.Chemscore.Internal_Hbond.Weighted>
0.0000

> <Gold.Chemscore.DEClash.Weighted>
0.2564

> <Gold.Chemscore.DEInternal.Weighted>
2.5201

> <Gold.Chemscore.Rot.Weighted>
6.6137

> <Gold.Chemscore.Internal.Correction.Weighted>
   9.000000E+99

> <Gold.Protein.RotatedTorsions>
[ 6907 6896 6895 6894 ] final   89.69 input  -60.11 | X-H torsion
[ 7974 7965 7964 7962 ] final -138.15 input  175.53 | X-H torsion
[ 8008 7997 7996 7995 ] final  -60.48 input   59.86 | X-H torsion
[ 10167 10162 10161 10158 ] final -137.38 input  -65.29 | X-H torsion
[ 10718 10713 10712 10709 ] final   46.36 input   66.30 | X-H torsion
[ 10763 10752 10751 10750 ] final -105.18 input  -60.55 | X-H torsion
[ 11005 11000 10999 10996 ] final   -2.50 input  -57.11 | X-H torsion

> <Gold.Protein.ActiveResidues>
 VAL166  LYS551  ARG553  GLY616  TRP617  ASP618  TYR619  PRO620  LYS621  CYS622 
 ASP623  PHE694  ASN695  SER759  ASP760  ASP761  ALA762  ILE779  LEU786  VAL792 
 PHE793  MET794  SER795  GLU796  ALA797  LYS798  CYS799  TRP800  GLU811  SER814 

> <Gold.Protein.RotatedAtoms>
  152.5438  134.1928  159.8680 H   0  0  0  0  0  0  0  0  0  0  0  0  # atno 6907 bound_to 6896
  151.1922  133.4653  159.2602 H   0  0  0  0  0  0  0  0  0  0  0  0  # atno 6908 bound_to 6896
  151.1072  135.0018  159.8532 H   0  0  0  0  0  0  0  0  0  0  0  0  # atno 6909 bound_to 6896
  144.8782  140.6469  143.5223 H   0  0  0  0  0  0  0  0  0  0  0  0  # atno 7974 bound_to 7965
  154.4401  140.1038  156.6280 H   0  0  0  0  0  0  0  0  0  0  0  0  # atno 8008 bound_to 7997
  155.5636  140.3488  155.4479 H   0  0  0  0  0  0  0  0  0  0  0  0  # atno 8009 bound_to 7997
  156.0442  140.1289  157.0112 H   0  0  0  0  0  0  0  0  0  0  0  0  # atno 8010 bound_to 7997
  139.8583  143.7109  152.2652 H   0  0  0  0  0  0  0  0  0  0  0  0  # atno 10167 bound_to 10162
  157.4473  130.8117  149.7753 H   0  0  0  0  0  0  0  0  0  0  0  0  # atno 10718 bound_to 10713
  154.7929  135.4759  154.0093 H   0  0  0  0  0  0  0  0  0  0  0  0  # atno 10763 bound_to 10752
  153.1658  135.6816  153.8684 H   0  0  0  0  0  0  0  0  0  0  0  0  # atno 10764 bound_to 10752
  153.8283  135.3195  155.3394 H   0  0  0  0  0  0  0  0  0  0  0  0  # atno 10765 bound_to 10752
  140.6590  133.9337  155.8425 H   0  0  0  0  0  0  0  0  0  0  0  0  # atno 11005 bound_to 11000
  145.4003  139.1599  143.4181 LP  0  0  0  0  0  0  0  0  0  0  0  0  # atno 17320 bound_to 7965
  146.2977  140.4099  142.8715 LP  0  0  0  0  0  0  0  0  0  0  0  0  # atno 17321 bound_to 7965
  139.7398  144.7562  151.0671 LP  0  0  0  0  0  0  0  0  0  0  0  0  # atno 17342 bound_to 10162
  140.7778  143.4986  150.9800 LP  0  0  0  0  0  0  0  0  0  0  0  0  # atno 17343 bound_to 10162
  155.9972  130.3901  150.2747 LP  0  0  0  0  0  0  0  0  0  0  0  0  # atno 17370 bound_to 10713
  157.0916  131.0171  151.3119 LP  0  0  0  0  0  0  0  0  0  0  0  0  # atno 17371 bound_to 10713
  141.0479  134.0527  157.3821 LP  0  0  0  0  0  0  0  0  0  0  0  0  # atno 17394 bound_to 11000
  139.9019  135.0167  156.7309 LP  0  0  0  0  0  0  0  0  0  0  0  0  # atno 17395 bound_to 11000

$$$$
