AV-unprocessed.smi:1175|AV-procd|sdf|4950|dock10
  -GOLD-   22720 3543D 1   1.00000     0.00000
 Structure written by MMmdl.
 36 37  0  0  0  0  0  0  0  0  1 V2000
  148.8063  134.2511  155.8943 O   0  0  0  0  0  0  0  0  0  0  0  0
  149.0811  134.6761  154.7709 C   0  0  0  0  0  0  0  0  0  0  0  0
  149.2432  133.7200  153.5802 C   0  0  0  0  0  0  0  0  0  0  0  0
  147.9688  133.1584  153.1012 N   0  0  0  0  0  0  0  0  0  0  0  0
  147.0240  134.0664  152.5839 C   0  0  0  0  0  0  0  0  0  0  0  0
  145.8180  133.6853  152.1209 C   0  0  0  0  0  0  0  0  0  0  0  0
  144.8440  134.6810  151.5101 C   0  0  0  0  0  0  0  0  0  0  0  0
  143.7580  134.0648  151.0424 F   0  0  0  0  0  0  0  0  0  0  0  0
  144.4571  135.5601  152.4336 F   0  0  0  0  0  0  0  0  0  0  0  0
  145.4085  135.3547  150.5068 F   0  0  0  0  0  0  0  0  0  0  0  0
  145.5367  132.2634  152.1485 C   0  0  0  0  0  0  0  0  0  0  0  0
  146.4350  131.3799  152.6260 C   0  0  0  0  0  0  0  0  0  0  0  0
  147.7367  131.8121  153.1406 C   0  0  0  0  0  0  0  0  0  0  0  0
  148.5666  131.0145  153.5778 O   0  0  0  0  0  0  0  0  0  0  0  0
  149.2688  135.9775  154.5057 N   0  0  0  0  0  0  0  0  0  0  0  0
  149.1633  137.0551  155.4835 C   0  0  0  0  0  0  0  0  0  0  0  0
  150.3977  137.9760  155.4617 C   0  0  2  0  0  0  0  0  0  0  0  0
  150.4615  138.9814  156.5948 C   0  0  0  0  0  0  0  0  0  0  0  0
  151.4509  140.0048  156.0472 C   0  0  0  0  0  0  0  0  0  0  0  0
  151.2609  140.0102  154.6353 O   0  0  0  0  0  0  0  0  0  0  0  0
  150.4625  138.8969  154.2435 C   0  0  0  0  0  0  0  0  0  0  0  0
  149.7546  134.2424  152.7696 H   0  0  0  0  0  0  0  0  0  0  0  0
  149.9231  132.9195  153.8752 H   0  0  0  0  0  0  0  0  0  0  0  0
  147.3495  135.0966  152.5770 H   0  0  0  0  0  0  0  0  0  0  0  0
  144.5877  131.8996  151.7830 H   0  0  0  0  0  0  0  0  0  0  0  0
  146.1907  130.3278  152.6318 H   0  0  0  0  0  0  0  0  0  0  0  0
  149.4943  136.2422  153.5575 H   0  0  0  0  0  0  0  0  0  0  0  0
  148.2565  137.6349  155.3028 H   0  0  0  0  0  0  0  0  0  0  0  0
  149.0475  136.6050  156.4699 H   0  0  0  0  0  0  0  0  0  0  0  0
  151.3063  137.3715  155.4829 H   0  0  0  0  0  0  0  0  0  0  0  0
  149.4871  139.4475  156.7481 H   0  0  0  0  0  0  0  0  0  0  0  0
  150.7847  138.5447  157.5404 H   0  0  0  0  0  0  0  0  0  0  0  0
  151.3042  140.9972  156.4742 H   0  0  0  0  0  0  0  0  0  0  0  0
  152.4748  139.6932  156.2573 H   0  0  0  0  0  0  0  0  0  0  0  0
  150.8776  138.3985  153.3672 H   0  0  0  0  0  0  0  0  0  0  0  0
  149.4695  139.2654  153.9823 H   0  0  0  0  0  0  0  0  0  0  0  0
  1  2  2  0  0  0  0
  2  3  1  0  0  0  0
  2 15  1  0  0  0  0
  3  4  1  0  0  0  0
  3 22  1  0  0  0  0
  3 23  1  0  0  0  0
  4 13  1  0  0  0  0
  4  5  1  0  0  0  0
  5  6  2  0  0  0  0
  5 24  1  0  0  0  0
  6  7  1  0  0  0  0
  6 11  1  0  0  0  0
  7  8  1  0  0  0  0
  7  9  1  0  0  0  0
  7 10  1  0  0  0  0
 11 12  2  0  0  0  0
 11 25  1  0  0  0  0
 12 13  1  0  0  0  0
 12 26  1  0  0  0  0
 13 14  2  0  0  0  0
 15 16  1  0  0  0  0
 15 27  1  0  0  0  0
 16 17  1  0  0  0  0
 16 28  1  0  0  0  0
 16 29  1  0  0  0  0
 17 21  1  0  0  0  0
 17 18  1  0  0  0  0
 17 30  1  0  0  0  0
 18 19  1  0  0  0  0
 18 31  1  0  0  0  0
 18 32  1  0  0  0  0
 19 20  1  0  0  0  0
 19 33  1  0  0  0  0
 19 34  1  0  0  0  0
 20 21  1  0  0  0  0
 21 35  1  0  0  0  0
 21 36  1  0  0  0  0
M  END
> <s_m_source_file>
AV-unprocessed.smi

> <i_m_source_file_index>
1175

> <i_lp_mmshare_version>
43012

> <i_f3d_flags>
0

> <s_epik_input>
W0NIMl0xT1tDSDJdW0NIMl1bQ0BIXTFbQ0gyXVtOSF1DKD1PKVtDSDJdbjJbY0hdYyhDKEYpKEYpRilbY0hdW2NIXWMyPU8=

> <s_epik_cmdline>
J2VwaWtfcHl0aG9uJywgJy1waCcsICc3LjAnLCAnLXRuJywgJzgnLCAnLW1hJywgJzIwMCcsICctbWV0YWxfYmluZGluZycsICctaW1hZScsICc8aW5maWxlLm1hZT4nLCAnLW9tYWUnLCAnPG91dGZpbGUubWFlPic=

> <r_lp_tautomer_probability>
1

> <r_epik_Ionization_Penalty>
3.67963e-08

> <r_epik_Ionization_Penalty_Charging>
1.809e-08

> <r_epik_Ionization_Penalty_Neutral>
1.87063e-08

> <r_epik_State_Penalty>
-0

> <r_epik_Charging_Adjusted_Penalty>
1.809e-08

> <i_epik_Tot_Q>
0

> <i_epik_Tot_abs_Q>
0

> <r_epik_Metal_State_Penalty>
-0

> <b_epik_Metal_Only>
0

> <s_lp_Force_Field>
OPLS_2005

> <r_lp_Energy>
30.0254

> <b_lp_Chiralities_Consistent>
1

> <s_lp_Variant>
AV-unprocessed.smi:1175-1

> <Gold.Version>
5.8.1

> <Gold.Id.Protein>
6NUR|6NUR_protein|mol2

> <Gold.PLP.Fitness>
42.0259

> <Gold.PLP.PLP>
-33.5432

> <Gold.PLP.part.hbond>
-2.0000

> <Gold.PLP.part.metal>
0.0000

> <Gold.PLP.part.buried>
-4.8072

> <Gold.PLP.part.nonpolar>
-26.5140

> <Gold.PLP.part.repulsive>
0.1872

> <Gold.PLP.ligand.clash>
0.0000

> <Gold.PLP.ligand.torsion>
0.2813

> <Gold.PLP.Chemscore.Hbond>
2.0000

> <Gold.PLP.Chemscore.CHOScore>
1.0000

> <Gold.PLP.Chemscore.Metal>
0.0000

> <Gold.Chemscore.Hbonds>
donor molecule, donor type, donor heavy atom, donor atom, acceptor molecule, acceptor atom, score
      L1  H    15    27       P1  7948  0.94
      P1  H  7989  7998       L1    20  0.84
      L1  C     5    24       P1  7948  1.00

> <Gold.PLP.Chemscore.Internal.Correction>
0.0453

> <Gold.Rescore>
     Score         DG    S(hbond)    S(metal)    S(lipo)     H(rot)  DE(clash)    DE(int)     intcor
     12.14     -12.80       1.81        0.00      51.77       1.87       0.26       0.40       ----

> <Gold.Chemscore.Fitness>
12.1362

> <Gold.Chemscore.DG>
-12.7979

> <Gold.Chemscore.ZeroCoef>
-5.4800

> <Gold.Chemscore.Hbond>
1.8094

> <Gold.Chemscore.Metal>
0.0000

> <Gold.Chemscore.Lipo>
51.7653

> <Gold.Chemscore.Internal_Hbond>
0.0000

> <Gold.Chemscore.DEClash>
0.2575

> <Gold.Chemscore.DEInternal>
0.4041

> <Gold.Chemscore.Rot>
1.8681

> <Gold.Chemscore.Internal.Correction>
   9.000000E+99

> <Gold.Chemscore.Hbonds>
donor molecule, donor type, donor heavy atom, donor atom, acceptor molecule, acceptor atom, score
      L1  H    15    27       P1  7948  0.55
      P1  H  7989  7998       L1    20  0.72

> <Gold.Chemscore.Hbond.Weighted>
-6.0435

> <Gold.Chemscore.Metal.Weighted>
-0.0000

> <Gold.Chemscore.Lipo.Weighted>
-6.0565

> <Gold.Chemscore.Internal_Hbond.Weighted>
0.0000

> <Gold.Chemscore.DEClash.Weighted>
0.2575

> <Gold.Chemscore.DEInternal.Weighted>
0.4041

> <Gold.Chemscore.Rot.Weighted>
4.7822

> <Gold.Chemscore.Internal.Correction.Weighted>
   9.000000E+99

> <Gold.Protein.RotatedTorsions>
[ 6907 6896 6895 6894 ] final  113.68 input  -60.11 | X-H torsion
[ 7974 7965 7964 7962 ] final   49.75 input  175.53 | X-H torsion
[ 8008 7997 7996 7995 ] final -116.71 input   59.86 | X-H torsion
[ 10167 10162 10161 10158 ] final -174.35 input  -65.29 | X-H torsion
[ 10718 10713 10712 10709 ] final   50.24 input   66.30 | X-H torsion
[ 10763 10752 10751 10750 ] final  -99.24 input  -60.55 | X-H torsion
[ 11005 11000 10999 10996 ] final  -45.02 input  -57.11 | X-H torsion

> <Gold.Protein.ActiveResidues>
 VAL166  LYS551  ARG553  GLY616  TRP617  ASP618  TYR619  PRO620  LYS621  CYS622 
 ASP623  PHE694  ASN695  SER759  ASP760  ASP761  ALA762  ILE779  LEU786  VAL792 
 PHE793  MET794  SER795  GLU796  ALA797  LYS798  CYS799  TRP800  GLU811  SER814 

> <Gold.Protein.RotatedAtoms>
  152.4847  133.8341  159.7118 H   0  0  0  0  0  0  0  0  0  0  0  0  # atno 6907 bound_to 6896
  150.8923  133.7217  159.2908 H   0  0  0  0  0  0  0  0  0  0  0  0  # atno 6908 bound_to 6896
  151.4686  135.1048  159.9797 H   0  0  0  0  0  0  0  0  0  0  0  0  # atno 6909 bound_to 6896
  146.0079  139.4510  142.9974 H   0  0  0  0  0  0  0  0  0  0  0  0  # atno 7974 bound_to 7965
  155.0721  140.0393  157.2612 H   0  0  0  0  0  0  0  0  0  0  0  0  # atno 8008 bound_to 7997
  154.6974  140.2666  155.6728 H   0  0  0  0  0  0  0  0  0  0  0  0  # atno 8009 bound_to 7997
  156.2749  140.2747  156.1573 H   0  0  0  0  0  0  0  0  0  0  0  0  # atno 8010 bound_to 7997
  139.5639  144.1804  152.1281 H   0  0  0  0  0  0  0  0  0  0  0  0  # atno 10167 bound_to 10162
  157.4865  130.8349  149.8153 H   0  0  0  0  0  0  0  0  0  0  0  0  # atno 10718 bound_to 10713
  154.7481  135.4979  153.9240 H   0  0  0  0  0  0  0  0  0  0  0  0  # atno 10763 bound_to 10752
  153.1114  135.6710  153.9502 H   0  0  0  0  0  0  0  0  0  0  0  0  # atno 10764 bound_to 10752
  153.9260  135.3083  155.3426 H   0  0  0  0  0  0  0  0  0  0  0  0  # atno 10765 bound_to 10752
  141.0488  133.6750  156.2955 H   0  0  0  0  0  0  0  0  0  0  0  0  # atno 11005 bound_to 11000
  145.7388  141.0016  143.1312 LP  0  0  0  0  0  0  0  0  0  0  0  0  # atno 17320 bound_to 7965
  144.6942  139.9073  143.7461 LP  0  0  0  0  0  0  0  0  0  0  0  0  # atno 17321 bound_to 7965
  140.1323  144.5277  150.6795 LP  0  0  0  0  0  0  0  0  0  0  0  0  # atno 17342 bound_to 10162
  140.6921  143.2382  151.5103 LP  0  0  0  0  0  0  0  0  0  0  0  0  # atno 17343 bound_to 10162
  156.0150  130.3817  150.2141 LP  0  0  0  0  0  0  0  0  0  0  0  0  # atno 17370 bound_to 10713
  157.0328  131.0012  151.3307 LP  0  0  0  0  0  0  0  0  0  0  0  0  # atno 17371 bound_to 10713
  140.6094  134.5473  157.5531 LP  0  0  0  0  0  0  0  0  0  0  0  0  # atno 17394 bound_to 11000
  139.9334  134.7921  156.0869 LP  0  0  0  0  0  0  0  0  0  0  0  0  # atno 17395 bound_to 11000

$$$$
