AV-unprocessed.smi:1361|AV-procd|sdf|5556|dock6
  -GOLD-   22720 5143D 1   1.00000     0.00000
 Structure written by MMmdl.
 46 47  0  0  0  0  0  0  0  0  1 V2000
  151.1070  143.1594  157.9174 C   0  0  0  0  0  0  0  0  0  0  0  0
  151.0444  141.9427  157.0197 C   0  0  0  0  0  0  0  0  0  0  0  0
  149.9710  141.9513  156.1445 N   0  0  0  0  0  0  0  0  0  0  0  0
  149.8370  140.8844  155.2735 C   0  0  0  0  0  0  0  0  0  0  0  0
  148.6422  140.9793  154.3404 C   0  0  0  0  0  0  0  0  0  0  0  0
  150.7230  139.8561  155.2810 C   0  0  0  0  0  0  0  0  0  0  0  0
  150.6162  138.6661  154.3301 C   0  0  0  0  0  0  0  0  0  0  0  0
  150.5858  137.2920  155.0010 C   0  0  0  0  0  0  0  0  0  0  0  0
  151.6310  136.7787  155.3991 O   0  0  0  0  0  0  0  0  0  0  0  0
  149.3816  136.7114  155.1199 N   0  0  0  0  0  0  0  0  0  0  0  0
  149.1188  135.4041  155.7173 C   0  0  0  0  0  0  0  0  0  0  0  0
  149.9461  134.3239  154.9849 C   0  0  0  0  0  0  0  0  0  0  0  0
  149.5756  132.8731  155.3450 C   0  0  0  0  0  0  0  0  0  0  0  0
  148.9606  132.0631  154.1886 C   0  0  0  0  0  0  0  0  0  0  0  0
  147.8881  132.7654  153.3296 C   0  0  0  0  0  0  0  0  0  0  0  0
  146.7077  133.3948  154.0906 C   0  0  0  0  0  0  0  0  0  0  0  0
  146.8737  134.8873  154.4505 C   0  0  0  0  0  0  0  0  0  0  0  0
  147.5918  135.1653  155.7848 C   0  0  0  0  0  0  0  0  0  0  0  0
  151.8415  139.8949  156.2529 C   0  0  0  0  0  0  0  0  0  0  0  0
  152.6657  138.9843  156.3240 O   0  0  0  0  0  0  0  0  0  0  0  0
  151.9397  141.0065  157.1053 N   0  0  0  0  0  0  0  0  0  0  0  0
  149.2907  142.6966  156.1046 H   0  0  0  0  0  0  0  0  0  0  0  0
  152.0408  143.1803  158.4808 H   0  0  0  0  0  0  0  0  0  0  0  0
  150.2799  143.1481  158.6276 H   0  0  0  0  0  0  0  0  0  0  0  0
  151.0460  144.0741  157.3269 H   0  0  0  0  0  0  0  0  0  0  0  0
  148.9674  140.9768  153.2999 H   0  0  0  0  0  0  0  0  0  0  0  0
  148.0726  141.8941  154.5091 H   0  0  0  0  0  0  0  0  0  0  0  0
  147.9698  140.1354  154.4952 H   0  0  0  0  0  0  0  0  0  0  0  0
  151.4341  138.6728  153.6091 H   0  0  0  0  0  0  0  0  0  0  0  0
  149.7188  138.7899  153.7229 H   0  0  0  0  0  0  0  0  0  0  0  0
  148.5811  137.2131  154.7638 H   0  0  0  0  0  0  0  0  0  0  0  0
  149.4606  135.4314  156.7538 H   0  0  0  0  0  0  0  0  0  0  0  0
  149.9014  134.4788  153.9076 H   0  0  0  0  0  0  0  0  0  0  0  0
  150.9967  134.4789  155.2339 H   0  0  0  0  0  0  0  0  0  0  0  0
  150.4766  132.3540  155.6737 H   0  0  0  0  0  0  0  0  0  0  0  0
  148.9163  132.8398  156.2106 H   0  0  0  0  0  0  0  0  0  0  0  0
  149.7642  131.7464  153.5226 H   0  0  0  0  0  0  0  0  0  0  0  0
  148.5432  131.1428  154.5986 H   0  0  0  0  0  0  0  0  0  0  0  0
  148.3408  133.5036  152.6677 H   0  0  0  0  0  0  0  0  0  0  0  0
  147.4841  132.0091  152.6555 H   0  0  0  0  0  0  0  0  0  0  0  0
  145.8399  133.3280  153.4331 H   0  0  0  0  0  0  0  0  0  0  0  0
  146.4460  132.8009  154.9670 H   0  0  0  0  0  0  0  0  0  0  0  0
  147.3307  135.4434  153.6312 H   0  0  0  0  0  0  0  0  0  0  0  0
  145.8677  135.2981  154.5450 H   0  0  0  0  0  0  0  0  0  0  0  0
  147.3573  134.3758  156.4986 H   0  0  0  0  0  0  0  0  0  0  0  0
  147.1445  136.0577  156.2254 H   0  0  0  0  0  0  0  0  0  0  0  0
  1 23  1  0  0  0  0
  1 24  1  0  0  0  0
  1 25  1  0  0  0  0
  1  2  1  0  0  0  0
  2  3  1  0  0  0  0
  2 21  2  0  0  0  0
  3  4  1  0  0  0  0
  3 22  1  0  0  0  0
  4  6  2  0  0  0  0
  4  5  1  0  0  0  0
  5 26  1  0  0  0  0
  5 27  1  0  0  0  0
  5 28  1  0  0  0  0
  6 19  1  0  0  0  0
  6  7  1  0  0  0  0
  7  8  1  0  0  0  0
  7 29  1  0  0  0  0
  7 30  1  0  0  0  0
  8  9  2  0  0  0  0
  8 10  1  0  0  0  0
 10 11  1  0  0  0  0
 10 31  1  0  0  0  0
 11 18  1  0  0  0  0
 11 12  1  0  0  0  0
 11 32  1  0  0  0  0
 12 13  1  0  0  0  0
 12 33  1  0  0  0  0
 12 34  1  0  0  0  0
 13 14  1  0  0  0  0
 13 35  1  0  0  0  0
 13 36  1  0  0  0  0
 14 15  1  0  0  0  0
 14 37  1  0  0  0  0
 14 38  1  0  0  0  0
 15 16  1  0  0  0  0
 15 39  1  0  0  0  0
 15 40  1  0  0  0  0
 16 17  1  0  0  0  0
 16 41  1  0  0  0  0
 16 42  1  0  0  0  0
 17 18  1  0  0  0  0
 17 43  1  0  0  0  0
 17 44  1  0  0  0  0
 18 45  1  0  0  0  0
 18 46  1  0  0  0  0
 19 20  2  0  0  0  0
 19 21  1  0  0  0  0
M  END
> <s_m_source_file>
AV-unprocessed.smi

> <i_m_source_file_index>
1361

> <i_lp_mmshare_version>
43012

> <i_f3d_flags>
0

> <s_epik_input>
W0NIM11jMW5jKFtDSDNdKWMoYyg9TylbbkhdMSlbQ0gyXUMoPU8pW05IXVtDSF0yW0NIMl1bQ0gyXVtDSDJdW0NIMl1bQ0gyXVtDSDJdW0NIMl0y

> <s_epik_cmdline>
J2VwaWtfcHl0aG9uJywgJy1waCcsICc3LjAnLCAnLXRuJywgJzgnLCAnLW1hJywgJzIwMCcsICctbWV0YWxfYmluZGluZycsICctaW1hZScsICc8aW5maWxlLm1hZT4nLCAnLW9tYWUnLCAnPG91dGZpbGUubWFlPic=

> <r_lp_tautomer_probability>
0.156392

> <r_epik_Ionization_Penalty>
0.0140222

> <r_epik_Ionization_Penalty_Charging>
0.0138986

> <r_epik_Ionization_Penalty_Neutral>
0.000123575

> <r_epik_State_Penalty>
1.53084

> <r_epik_Charging_Adjusted_Penalty>
1.54474

> <i_epik_Tot_Q>
0

> <i_epik_Tot_abs_Q>
0

> <r_epik_Metal_State_Penalty>
1.70646

> <b_epik_Metal_Only>
0

> <s_lp_Force_Field>
OPLS_2005

> <r_lp_Energy>
27.031

> <b_lp_Chiralities_Consistent>
1

> <s_lp_Variant>
AV-unprocessed.smi:1361-2

> <Gold.Version>
5.8.1

> <Gold.Id.Protein>
6NUR|6NUR_protein|mol2

> <Gold.PLP.Fitness>
46.3034

> <Gold.PLP.PLP>
-37.9102

> <Gold.PLP.part.hbond>
-4.0000

> <Gold.PLP.part.metal>
0.0000

> <Gold.PLP.part.buried>
0.2438

> <Gold.PLP.part.nonpolar>
-32.7700

> <Gold.PLP.part.repulsive>
0.2231

> <Gold.PLP.ligand.clash>
0.0000

> <Gold.PLP.ligand.torsion>
0.3099

> <Gold.PLP.Chemscore.Hbond>
2.9920

> <Gold.PLP.Chemscore.CHOScore>
0.0000

> <Gold.PLP.Chemscore.Metal>
0.0000

> <Gold.Chemscore.Hbonds>
donor molecule, donor type, donor heavy atom, donor atom, acceptor molecule, acceptor atom, score
      L1  H     3    22       P1  8028  0.76
      P1  H  7997  8008       L1    20  0.95
      P1  H 10752 10764       L1     9  1.00

> <Gold.PLP.Chemscore.Internal.Correction>
0.0369

> <Gold.Rescore>
     Score         DG    S(hbond)    S(metal)    S(lipo)     H(rot)  DE(clash)    DE(int)     intcor
     15.35     -18.29       2.44        0.00      72.05       1.47       0.09       2.85       ----

> <Gold.Chemscore.Fitness>
15.3469

> <Gold.Chemscore.DG>
-18.2922

> <Gold.Chemscore.ZeroCoef>
-5.4800

> <Gold.Chemscore.Hbond>
2.4382

> <Gold.Chemscore.Metal>
0.0000

> <Gold.Chemscore.Lipo>
72.0456

> <Gold.Chemscore.Internal_Hbond>
0.0000

> <Gold.Chemscore.DEClash>
0.0907

> <Gold.Chemscore.DEInternal>
2.8546

> <Gold.Chemscore.Rot>
1.4690

> <Gold.Chemscore.Internal.Correction>
   9.000000E+99

> <Gold.Chemscore.Hbonds>
donor molecule, donor type, donor heavy atom, donor atom, acceptor molecule, acceptor atom, score
      L1  H     3    22       P1  8028  0.72
      P1  H  7997  8008       L1    20  0.20
      P1  H 10752 10764       L1     9  0.98

> <Gold.Chemscore.Hbond.Weighted>
-8.1435

> <Gold.Chemscore.Metal.Weighted>
-0.0000

> <Gold.Chemscore.Lipo.Weighted>
-8.4293

> <Gold.Chemscore.Internal_Hbond.Weighted>
0.0000

> <Gold.Chemscore.DEClash.Weighted>
0.0907

> <Gold.Chemscore.DEInternal.Weighted>
2.8546

> <Gold.Chemscore.Rot.Weighted>
3.7607

> <Gold.Chemscore.Internal.Correction.Weighted>
   9.000000E+99

> <Gold.Protein.RotatedTorsions>
[ 6907 6896 6895 6894 ] final   47.15 input  -60.11 | X-H torsion
[ 7974 7965 7964 7962 ] final   42.81 input  175.53 | X-H torsion
[ 8008 7997 7996 7995 ] final  -50.03 input   59.86 | X-H torsion
[ 10167 10162 10161 10158 ] final  127.11 input  -65.29 | X-H torsion
[ 10718 10713 10712 10709 ] final   73.70 input   66.30 | X-H torsion
[ 10763 10752 10751 10750 ] final  -62.24 input  -60.55 | X-H torsion
[ 11005 11000 10999 10996 ] final   93.53 input  -57.11 | X-H torsion

> <Gold.Protein.ActiveResidues>
 VAL166  LYS551  ARG553  GLY616  TRP617  ASP618  TYR619  PRO620  LYS621  CYS622 
 ASP623  PHE694  ASN695  SER759  ASP760  ASP761  ALA762  ILE779  LEU786  VAL792 
 PHE793  MET794  SER795  GLU796  ALA797  LYS798  CYS799  TRP800  GLU811  SER814 

> <Gold.Protein.RotatedAtoms>
  152.2647  134.7997  160.0424 H   0  0  0  0  0  0  0  0  0  0  0  0  # atno 6907 bound_to 6896
  151.8631  133.3456  159.3718 H   0  0  0  0  0  0  0  0  0  0  0  0  # atno 6908 bound_to 6896
  150.7129  134.5114  159.5653 H   0  0  0  0  0  0  0  0  0  0  0  0  # atno 6909 bound_to 6896
  146.0709  139.5258  142.9598 H   0  0  0  0  0  0  0  0  0  0  0  0  # atno 7974 bound_to 7965
  154.4054  140.1282  156.4599 H   0  0  0  0  0  0  0  0  0  0  0  0  # atno 8008 bound_to 7997
  155.7284  140.3491  155.5028 H   0  0  0  0  0  0  0  0  0  0  0  0  # atno 8009 bound_to 7997
  155.9150  140.1042  157.1240 H   0  0  0  0  0  0  0  0  0  0  0  0  # atno 8010 bound_to 7997
  139.5595  144.6872  151.4084 H   0  0  0  0  0  0  0  0  0  0  0  0  # atno 10167 bound_to 10162
  157.6560  130.9641  150.1107 H   0  0  0  0  0  0  0  0  0  0  0  0  # atno 10718 bound_to 10713
  154.2968  135.6242  153.5408 H   0  0  0  0  0  0  0  0  0  0  0  0  # atno 10763 bound_to 10752
  152.9845  135.5669  154.5328 H   0  0  0  0  0  0  0  0  0  0  0  0  # atno 10764 bound_to 10752
  154.4950  135.2869  155.1442 H   0  0  0  0  0  0  0  0  0  0  0  0  # atno 10765 bound_to 10752
  139.8809  134.8795  156.3731 H   0  0  0  0  0  0  0  0  0  0  0  0  # atno 11005 bound_to 11000
  145.6393  141.0288  143.1820 LP  0  0  0  0  0  0  0  0  0  0  0  0  # atno 17320 bound_to 7965
  144.7231  139.7964  143.7375 LP  0  0  0  0  0  0  0  0  0  0  0  0  # atno 17321 bound_to 7965
  140.6873  143.7944  150.7204 LP  0  0  0  0  0  0  0  0  0  0  0  0  # atno 17342 bound_to 10162
  140.1415  143.4436  152.2190 LP  0  0  0  0  0  0  0  0  0  0  0  0  # atno 17343 bound_to 10162
  156.2004  130.3660  149.8795 LP  0  0  0  0  0  0  0  0  0  0  0  0  # atno 17370 bound_to 10713
  156.6700  130.8816  151.3561 LP  0  0  0  0  0  0  0  0  0  0  0  0  # atno 17371 bound_to 10713
  140.9450  133.7489  156.0196 LP  0  0  0  0  0  0  0  0  0  0  0  0  # atno 17394 bound_to 11000
  140.8174  134.3329  157.5393 LP  0  0  0  0  0  0  0  0  0  0  0  0  # atno 17395 bound_to 11000

$$$$
