AV-unprocessed.smi:2695|AV-procd|sdf|10411|dock4
  -GOLD-   2272014443D 1   1.00000     0.00000
 Structure written by MMmdl.
 42 43  0  0  0  0  0  0  0  0  1 V2000
  154.3291  140.2059  162.0015 C   0  0  0  0  0  0  0  0  0  0  0  0
  154.7761  138.7538  161.8871 C   0  0  0  0  0  0  0  0  0  0  0  0
  155.8588  138.3352  162.5829 C   0  0  0  0  0  0  0  0  0  0  0  0
  156.3422  136.9482  162.4673 C   0  0  0  0  0  0  0  0  0  0  0  0
  157.3042  136.5357  163.1119 O   0  0  0  0  0  0  0  0  0  0  0  0
  155.6069  136.0899  161.5280 C   0  0  0  0  0  0  0  0  0  0  0  0
  154.5378  136.5926  160.8811 C   0  0  0  0  0  0  0  0  0  0  0  0
  153.8478  135.8557  159.9971 O   0  0  0  0  0  0  0  0  0  0  0  0
  154.0384  137.9012  161.0353 N   0  0  0  0  0  0  0  0  0  0  0  0
  152.8094  138.3475  160.3539 C   0  0  0  0  0  0  0  0  0  0  0  0
  153.0390  139.5125  159.3808 C   0  0  0  0  0  0  0  0  0  0  0  0
  154.0648  139.5811  158.7022 O   0  0  0  0  0  0  0  0  0  0  0  0
  152.0623  140.4316  159.3368 N   0  0  0  0  0  0  0  0  0  0  0  0
  152.0332  141.6207  158.4828 C   0  0  2  0  0  0  0  0  0  0  0  0
  151.5972  142.8524  159.3193 C   0  0  0  0  0  0  0  0  0  0  0  0
  151.9250  144.2129  158.6922 C   0  0  0  0  0  0  0  0  0  0  0  0
  151.8852  145.2197  159.8472 C   0  0  0  0  0  0  0  0  0  0  0  0
  152.0813  144.4075  161.1345 C   0  0  0  0  0  0  0  0  0  0  0  0
  152.2682  142.9522  160.6964 C   0  0  0  0  0  0  0  0  0  0  0  0
  151.1219  141.3318  157.2677 C   0  0  0  0  0  0  0  0  0  0  0  0
  149.8865  141.0530  157.6870 F   0  0  0  0  0  0  0  0  0  0  0  0
  151.0691  142.3902  156.4582 F   0  0  0  0  0  0  0  0  0  0  0  0
  151.5611  140.2803  156.5775 F   0  0  0  0  0  0  0  0  0  0  0  0
  155.1156  140.8215  162.4395 H   0  0  0  0  0  0  0  0  0  0  0  0
  153.4513  140.2847  162.6433 H   0  0  0  0  0  0  0  0  0  0  0  0
  154.0970  140.6387  161.0286 H   0  0  0  0  0  0  0  0  0  0  0  0
  156.4039  139.0104  163.2268 H   0  0  0  0  0  0  0  0  0  0  0  0
  155.9456  135.0764  161.3683 H   0  0  0  0  0  0  0  0  0  0  0  0
  152.3490  137.5220  159.8097 H   0  0  0  0  0  0  0  0  0  0  0  0
  152.0442  138.6359  161.0738 H   0  0  0  0  0  0  0  0  0  0  0  0
  151.2595  140.2903  159.9326 H   0  0  0  0  0  0  0  0  0  0  0  0
  153.0347  141.8129  158.0939 H   0  0  0  0  0  0  0  0  0  0  0  0
  150.5185  142.8072  159.4790 H   0  0  0  0  0  0  0  0  0  0  0  0
  152.9283  144.1924  158.2643 H   0  0  0  0  0  0  0  0  0  0  0  0
  151.2317  144.4859  157.8963 H   0  0  0  0  0  0  0  0  0  0  0  0
  152.6509  145.9871  159.7290 H   0  0  0  0  0  0  0  0  0  0  0  0
  150.9193  145.7254  159.8734 H   0  0  0  0  0  0  0  0  0  0  0  0
  152.9328  144.7614  161.7166 H   0  0  0  0  0  0  0  0  0  0  0  0
  151.1957  144.4978  161.7647 H   0  0  0  0  0  0  0  0  0  0  0  0
  151.8525  142.2499  161.4198 H   0  0  0  0  0  0  0  0  0  0  0  0
  153.3339  142.7364  160.6049 H   0  0  0  0  0  0  0  0  0  0  0  0
  154.4007  135.7265  159.2417 H   0  0  0  0  0  0  0  0  0  0  0  0
  1  2  1  0  0  0  0
  1 24  1  0  0  0  0
  1 25  1  0  0  0  0
  1 26  1  0  0  0  0
  2  9  1  0  0  0  0
  2  3  2  0  0  0  0
  3  4  1  0  0  0  0
  3 27  1  0  0  0  0
  4  5  2  0  0  0  0
  4  6  1  0  0  0  0
  6  7  2  0  0  0  0
  6 28  1  0  0  0  0
  7  8  1  0  0  0  0
  7  9  1  0  0  0  0
  8 42  1  0  0  0  0
  9 10  1  0  0  0  0
 10 11  1  0  0  0  0
 10 29  1  0  0  0  0
 10 30  1  0  0  0  0
 11 12  2  0  0  0  0
 11 13  1  0  0  0  0
 13 14  1  0  0  0  0
 13 31  1  0  0  0  0
 14 15  1  0  0  0  0
 14 20  1  0  0  0  0
 14 32  1  0  0  0  0
 15 19  1  0  0  0  0
 15 16  1  0  0  0  0
 15 33  1  0  0  0  0
 16 17  1  0  0  0  0
 16 34  1  0  0  0  0
 16 35  1  0  0  0  0
 17 18  1  0  0  0  0
 17 36  1  0  0  0  0
 17 37  1  0  0  0  0
 18 19  1  0  0  0  0
 18 38  1  0  0  0  0
 18 39  1  0  0  0  0
 19 40  1  0  0  0  0
 19 41  1  0  0  0  0
 20 21  1  0  0  0  0
 20 22  1  0  0  0  0
 20 23  1  0  0  0  0
M  END
> <s_m_source_file>
AV-unprocessed.smi

> <i_m_source_file_index>
2695

> <i_lp_mmshare_version>
43012

> <i_f3d_flags>
0

> <s_epik_input>
W0NIM11jMVtjSF1jKFtPSF0pW2NIXWMoPU8pbjFbQ0gyXUMoPU8pW05IXVtDQEBIXShDKEYpKEYpRilbQ0hdMltDSDJdW0NIMl1bQ0gyXVtDSDJdMg==

> <s_epik_cmdline>
J2VwaWtfcHl0aG9uJywgJy1waCcsICc3LjAnLCAnLXRuJywgJzgnLCAnLW1hJywgJzIwMCcsICctbWV0YWxfYmluZGluZycsICctaW1hZScsICc8aW5maWxlLm1hZT4nLCAnLW9tYWUnLCAnPG91dGZpbGUubWFlPic=

> <r_epik_Ionization_Penalty>
1.35977e-07

> <r_epik_Ionization_Penalty_Charging>
0

> <r_epik_Ionization_Penalty_Neutral>
1.35977e-07

> <r_epik_State_Penalty>
2.53185

> <r_epik_Charging_Adjusted_Penalty>
2.53185

> <i_epik_Tot_Q>
0

> <i_epik_Tot_abs_Q>
0

> <r_epik_Metal_State_Penalty>
2.53184

> <b_epik_Metal_Only>
0

> <s_lp_Force_Field>
OPLS_2005

> <r_lp_Energy>
25.5635

> <b_lp_Chiralities_Consistent>
1

> <s_lp_Variant>
AV-unprocessed.smi:2695-5

> <Gold.Version>
5.8.1

> <Gold.Id.Protein>
6NUR|6NUR_protein|mol2

> <Gold.PLP.Fitness>
45.0451

> <Gold.PLP.PLP>
-40.3180

> <Gold.PLP.part.hbond>
-2.0000

> <Gold.PLP.part.metal>
0.0000

> <Gold.PLP.part.buried>
-5.2508

> <Gold.PLP.part.nonpolar>
-33.0649

> <Gold.PLP.part.repulsive>
0.1474

> <Gold.PLP.ligand.clash>
0.0000

> <Gold.PLP.ligand.torsion>
0.8075

> <Gold.PLP.Chemscore.Hbond>
2.0000

> <Gold.PLP.Chemscore.CHOScore>
0.0000

> <Gold.PLP.Chemscore.Metal>
0.0000

> <Gold.Chemscore.Hbonds>
donor molecule, donor type, donor heavy atom, donor atom, acceptor molecule, acceptor atom, score
      P1  H  6896  6907       L1     8  1.00
      P1  H  7997  8009       L1    12  1.00

> <Gold.PLP.Chemscore.Internal.Correction>
0.3420

> <Gold.Rescore>
     Score         DG    S(hbond)    S(metal)    S(lipo)     H(rot)  DE(clash)    DE(int)     intcor
     16.19     -17.28       1.99        0.00      97.66       2.45       0.07       1.02       ----

> <Gold.Chemscore.Fitness>
16.1876

> <Gold.Chemscore.DG>
-17.2823

> <Gold.Chemscore.ZeroCoef>
-5.4800

> <Gold.Chemscore.Hbond>
1.9914

> <Gold.Chemscore.Metal>
0.0000

> <Gold.Chemscore.Lipo>
97.6602

> <Gold.Chemscore.Internal_Hbond>
0.0000

> <Gold.Chemscore.DEClash>
0.0705

> <Gold.Chemscore.DEInternal>
1.0242

> <Gold.Chemscore.Rot>
2.4512

> <Gold.Chemscore.Internal.Correction>
   9.000000E+99

> <Gold.Chemscore.Hbonds>
donor molecule, donor type, donor heavy atom, donor atom, acceptor molecule, acceptor atom, score
      P1  H  6896  6907       L1     8  0.88
      P1  H  7997  8009       L1    12  1.00

> <Gold.Chemscore.Hbond.Weighted>
-6.6513

> <Gold.Chemscore.Metal.Weighted>
-0.0000

> <Gold.Chemscore.Lipo.Weighted>
-11.4262

> <Gold.Chemscore.Internal_Hbond.Weighted>
0.0000

> <Gold.Chemscore.DEClash.Weighted>
0.0705

> <Gold.Chemscore.DEInternal.Weighted>
1.0242

> <Gold.Chemscore.Rot.Weighted>
6.2752

> <Gold.Chemscore.Internal.Correction.Weighted>
   9.000000E+99

> <Gold.Protein.RotatedTorsions>
[ 6907 6896 6895 6894 ] final   52.55 input  -60.11 | X-H torsion
[ 7974 7965 7964 7962 ] final  161.94 input  175.53 | X-H torsion
[ 8008 7997 7996 7995 ] final  127.65 input   59.86 | X-H torsion
[ 10167 10162 10161 10158 ] final  -62.51 input  -65.29 | X-H torsion
[ 10718 10713 10712 10709 ] final   32.98 input   66.30 | X-H torsion
[ 10763 10752 10751 10750 ] final   53.30 input  -60.55 | X-H torsion
[ 11005 11000 10999 10996 ] final  -23.97 input  -57.11 | X-H torsion

> <Gold.Protein.ActiveResidues>
 VAL166  LYS551  ARG553  GLY616  TRP617  ASP618  TYR619  PRO620  LYS621  CYS622 
 ASP623  PHE694  ASN695  SER759  ASP760  ASP761  ALA762  ILE779  LEU786  VAL792 
 PHE793  MET794  SER795  GLU796  ALA797  LYS798  CYS799  TRP800  GLU811  SER814 

> <Gold.Protein.RotatedAtoms>
  152.3244  134.7339  160.0305 H   0  0  0  0  0  0  0  0  0  0  0  0  # atno 6907 bound_to 6896
  151.7777  133.3341  159.3470 H   0  0  0  0  0  0  0  0  0  0  0  0  # atno 6908 bound_to 6896
  150.7387  134.5891  159.6023 H   0  0  0  0  0  0  0  0  0  0  0  0  # atno 6909 bound_to 6896
  144.7661  139.7970  143.6315 H   0  0  0  0  0  0  0  0  0  0  0  0  # atno 7974 bound_to 7965
  156.2896  140.2664  156.2308 H   0  0  0  0  0  0  0  0  0  0  0  0  # atno 8008 bound_to 7997
  155.0075  140.0387  157.2404 H   0  0  0  0  0  0  0  0  0  0  0  0  # atno 8009 bound_to 7997
  154.7547  140.2749  155.6268 H   0  0  0  0  0  0  0  0  0  0  0  0  # atno 8010 bound_to 7997
  140.5934  143.2346  151.6089 H   0  0  0  0  0  0  0  0  0  0  0  0  # atno 10167 bound_to 10162
  157.2920  130.7307  149.6616 H   0  0  0  0  0  0  0  0  0  0  0  0  # atno 10718 bound_to 10713
  152.9794  135.5783  154.4720 H   0  0  0  0  0  0  0  0  0  0  0  0  # atno 10763 bound_to 10752
  154.4281  135.2773  155.1933 H   0  0  0  0  0  0  0  0  0  0  0  0  # atno 10764 bound_to 10752
  154.3653  135.6180  153.5765 H   0  0  0  0  0  0  0  0  0  0  0  0  # atno 10765 bound_to 10752
  140.8802  133.7659  156.0292 H   0  0  0  0  0  0  0  0  0  0  0  0  # atno 11005 bound_to 11000
  146.1769  139.4943  142.9892 LP  0  0  0  0  0  0  0  0  0  0  0  0  # atno 17320 bound_to 7965
  145.6467  141.0272  143.1782 LP  0  0  0  0  0  0  0  0  0  0  0  0  # atno 17321 bound_to 7965
  139.5242  144.3110  152.0993 LP  0  0  0  0  0  0  0  0  0  0  0  0  # atno 17342 bound_to 10162
  140.2278  144.4399  150.6313 LP  0  0  0  0  0  0  0  0  0  0  0  0  # atno 17343 bound_to 10162
  155.9667  130.4306  150.4882 LP  0  0  0  0  0  0  0  0  0  0  0  0  # atno 17370 bound_to 10713
  157.2847  131.0614  151.2174 LP  0  0  0  0  0  0  0  0  0  0  0  0  # atno 17371 bound_to 10713
  140.8470  134.2998  157.5290 LP  0  0  0  0  0  0  0  0  0  0  0  0  # atno 17394 bound_to 11000
  139.8719  134.9447  156.3890 LP  0  0  0  0  0  0  0  0  0  0  0  0  # atno 17395 bound_to 11000

$$$$
