AV-unprocessed.smi:2061|AV-procd|sdf|8377|dock6
  -GOLD-   2272011 53D 1   1.00000     0.00000
 Structure written by MMmdl.
 44 45  0  0  0  0  0  0  0  0  2 V2000
  145.0344  134.2933  162.7386 C   0  0  0  0  0  0  0  0  0  0  0  0
  146.0750  135.2316  162.2305 C   0  0  0  0  0  0  0  0  0  0  0  0
  147.4132  135.0928  161.9938 C   0  0  0  0  0  0  0  0  0  0  0  0
  147.7934  136.3766  161.5151 C   0  0  0  0  0  0  0  0  0  0  0  0
  149.0317  136.7525  161.1608 N   0  5  0  0  0  0  0  0  0  0  0  0
  149.3394  136.9508  159.8582 C   0  0  0  0  0  0  0  0  0  0  0  0
  148.6101  136.7175  158.8917 O   0  0  0  0  0  0  0  0  0  0  0  0
  150.5740  137.4396  159.6684 N   0  0  0  0  0  0  0  0  0  0  0  0
  151.2045  137.7473  158.3859 C   0  0  0  0  0  0  0  0  0  0  0  0
  151.0813  139.2478  157.9958 C   0  0  1  0  0  0  0  0  0  0  0  0
  149.5800  139.6169  157.8791 C   0  0  0  0  0  0  0  0  0  0  0  0
  151.8250  140.1539  158.9046 N   0  0  0  0  0  0  0  0  0  0  0  0
  151.6305  141.5681  158.5711 C   0  0  0  0  0  0  0  0  0  0  0  0
  152.3852  142.5186  159.5181 C   0  0  2  0  0  0  0  0  0  0  0  0
  152.2380  143.9848  159.0974 C   0  0  0  0  0  0  0  0  0  0  0  0
  153.7717  142.1972  159.5120 O   0  0  0  0  0  0  0  0  0  0  0  0
  154.0687  140.8390  159.8264 C   0  0  1  0  0  0  0  0  0  0  0  0
  153.8867  140.5428  161.3251 C   0  0  0  0  0  0  0  0  0  0  0  0
  153.2683  139.8877  158.9145 C   0  0  0  0  0  0  0  0  0  0  0  0
  146.7784  137.2234  161.4784 N   0  0  0  0  0  0  0  0  0  0  0  0
  145.6715  136.4954  161.9311 O   0  0  0  0  0  0  0  0  0  0  0  0
  145.1786  134.0983  163.8012 H   0  0  0  0  0  0  0  0  0  0  0  0
  145.0818  133.3413  162.2101 H   0  0  0  0  0  0  0  0  0  0  0  0
  144.0339  134.7047  162.6024 H   0  0  0  0  0  0  0  0  0  0  0  0
  148.0234  134.2139  162.1374 H   0  0  0  0  0  0  0  0  0  0  0  0
  151.1279  137.6113  160.4946 H   0  0  0  0  0  0  0  0  0  0  0  0
  152.2508  137.4380  158.3627 H   0  0  0  0  0  0  0  0  0  0  0  0
  150.6830  137.1096  157.6754 H   0  0  0  0  0  0  0  0  0  0  0  0
  151.5100  139.3504  156.9976 H   0  0  0  0  0  0  0  0  0  0  0  0
  149.0326  138.9310  157.2344 H   0  0  0  0  0  0  0  0  0  0  0  0
  149.4240  140.5979  157.4338 H   0  0  0  0  0  0  0  0  0  0  0  0
  149.0947  139.6053  158.8554 H   0  0  0  0  0  0  0  0  0  0  0  0
  151.9435  141.7498  157.5416 H   0  0  0  0  0  0  0  0  0  0  0  0
  150.5777  141.8358  158.6335 H   0  0  0  0  0  0  0  0  0  0  0  0
  151.9913  142.4133  160.5294 H   0  0  0  0  0  0  0  0  0  0  0  0
  151.1917  144.2917  159.1029 H   0  0  0  0  0  0  0  0  0  0  0  0
  152.6298  144.1486  158.0933 H   0  0  0  0  0  0  0  0  0  0  0  0
  152.7802  144.6419  159.7779 H   0  0  0  0  0  0  0  0  0  0  0  0
  155.1271  140.7005  159.6038 H   0  0  0  0  0  0  0  0  0  0  0  0
  154.2342  139.5378  161.5655 H   0  0  0  0  0  0  0  0  0  0  0  0
  152.8432  140.6064  161.6327 H   0  0  0  0  0  0  0  0  0  0  0  0
  154.4590  141.2441  161.9327 H   0  0  0  0  0  0  0  0  0  0  0  0
  153.4760  138.8749  159.2532 H   0  0  0  0  0  0  0  0  0  0  0  0
  153.6558  139.9636  157.8974 H   0  0  0  0  0  0  0  0  0  0  0  0
  1  2  1  0  0  0  0
  1 22  1  0  0  0  0
  1 23  1  0  0  0  0
  1 24  1  0  0  0  0
  2 21  1  0  0  0  0
  2  3  2  0  0  0  0
  3  4  1  0  0  0  0
  3 25  1  0  0  0  0
  4  5  1  0  0  0  0
  4 20  2  0  0  0  0
  5  6  1  0  0  0  0
  6  7  2  0  0  0  0
  6  8  1  0  0  0  0
  8  9  1  0  0  0  0
  8 26  1  0  0  0  0
  9 10  1  0  0  0  0
  9 27  1  0  0  0  0
  9 28  1  0  0  0  0
 10 11  1  0  0  0  0
 10 12  1  0  0  0  0
 10 29  1  0  0  0  0
 11 30  1  0  0  0  0
 11 31  1  0  0  0  0
 11 32  1  0  0  0  0
 12 19  1  0  0  0  0
 12 13  1  0  0  0  0
 13 14  1  0  0  0  0
 13 33  1  0  0  0  0
 13 34  1  0  0  0  0
 14 15  1  0  0  0  0
 14 16  1  0  0  0  0
 14 35  1  0  0  0  0
 15 36  1  0  0  0  0
 15 37  1  0  0  0  0
 15 38  1  0  0  0  0
 16 17  1  0  0  0  0
 17 18  1  0  0  0  0
 17 19  1  0  0  0  0
 17 39  1  0  0  0  0
 18 40  1  0  0  0  0
 18 41  1  0  0  0  0
 18 42  1  0  0  0  0
 19 43  1  0  0  0  0
 19 44  1  0  0  0  0
 20 21  1  0  0  0  0
M  CHG  1   5  -1
M  END
> <s_m_source_file>
AV-unprocessed.smi

> <i_m_source_file_index>
2061

> <i_lp_mmshare_version>
43012

> <i_f3d_flags>
0

> <s_epik_input>
W0NIM11jMVtjSF1jKG5vMSlbTkhdQyg9TylbTkhdW0NIMl1bQ0BIXShbQ0gzXSlOMltDSDJdW0NAQEhdKFtDSDNdKU9bQ0BASF0oW0NIM10pW0NIMl0y

> <s_epik_cmdline>
J2VwaWtfcHl0aG9uJywgJy1waCcsICc3LjAnLCAnLXRuJywgJzgnLCAnLW1hJywgJzIwMCcsICctbWV0YWxfYmluZGluZycsICctaW1hZScsICc8aW5maWxlLm1hZT4nLCAnLW9tYWUnLCAnPG91dGZpbGUubWFlPic=

> <r_epik_Ionization_Penalty>
6.88367

> <r_epik_Ionization_Penalty_Charging>
6.57198

> <r_epik_Ionization_Penalty_Neutral>
0.311681

> <r_epik_State_Penalty>
6.77619

> <r_epik_Charging_Adjusted_Penalty>
13.3482

> <i_epik_Tot_Q>
-1

> <i_epik_Tot_abs_Q>
1

> <r_epik_Metal_State_Penalty>
2.70524

> <b_epik_Metal_Only>
1

> <s_lp_Force_Field>
OPLS_2005

> <r_lp_Energy>
24.2039

> <b_lp_Chiralities_Consistent>
1

> <s_lp_Variant>
AV-unprocessed.smi:2061-18

> <Gold.Version>
5.8.1

> <Gold.Id.Protein>
6NUR|6NUR_protein|mol2

> <Gold.PLP.Fitness>
41.5088

> <Gold.PLP.PLP>
-34.2280

> <Gold.PLP.part.hbond>
-2.0000

> <Gold.PLP.part.metal>
0.0000

> <Gold.PLP.part.buried>
-2.5229

> <Gold.PLP.part.nonpolar>
-29.9616

> <Gold.PLP.part.repulsive>
0.3883

> <Gold.PLP.ligand.clash>
0.0000

> <Gold.PLP.ligand.torsion>
0.8930

> <Gold.PLP.Chemscore.Hbond>
3.0000

> <Gold.PLP.Chemscore.CHOScore>
0.0000

> <Gold.PLP.Chemscore.Metal>
0.0000

> <Gold.Chemscore.Hbonds>
donor molecule, donor type, donor heavy atom, donor atom, acceptor molecule, acceptor atom, score
      P1  H  6931  6943       L1     5  1.90
      P1  H  6934  6947       L1    20  1.00

> <Gold.PLP.Chemscore.Internal.Correction>
0.0668

> <Gold.Rescore>
     Score         DG    S(hbond)    S(metal)    S(lipo)     H(rot)  DE(clash)    DE(int)     intcor
     14.92     -15.89       1.23        0.00      87.20       1.52       0.07       0.91       ----

> <Gold.Chemscore.Fitness>
14.9155

> <Gold.Chemscore.DG>
-15.8905

> <Gold.Chemscore.ZeroCoef>
-5.4800

> <Gold.Chemscore.Hbond>
1.2265

> <Gold.Chemscore.Metal>
0.0000

> <Gold.Chemscore.Lipo>
87.2017

> <Gold.Chemscore.Internal_Hbond>
0.0000

> <Gold.Chemscore.DEClash>
0.0668

> <Gold.Chemscore.DEInternal>
0.9082

> <Gold.Chemscore.Rot>
1.5190

> <Gold.Chemscore.Internal.Correction>
   9.000000E+99

> <Gold.Chemscore.Hbonds>
donor molecule, donor type, donor heavy atom, donor atom, acceptor molecule, acceptor atom, score
      P1  H  6931  6943       L1     5  0.12
      P1  H  6934  6947       L1    20  0.92

> <Gold.Chemscore.Hbond.Weighted>
-4.0965

> <Gold.Chemscore.Metal.Weighted>
-0.0000

> <Gold.Chemscore.Lipo.Weighted>
-10.2026

> <Gold.Chemscore.Internal_Hbond.Weighted>
0.0000

> <Gold.Chemscore.DEClash.Weighted>
0.0668

> <Gold.Chemscore.DEInternal.Weighted>
0.9082

> <Gold.Chemscore.Rot.Weighted>
3.8886

> <Gold.Chemscore.Internal.Correction.Weighted>
   9.000000E+99

> <Gold.Protein.RotatedTorsions>
[ 6907 6896 6895 6894 ] final   63.92 input  -60.11 | X-H torsion
[ 7974 7965 7964 7962 ] final  -26.70 input  175.53 | X-H torsion
[ 8008 7997 7996 7995 ] final   41.56 input   59.86 | X-H torsion
[ 10167 10162 10161 10158 ] final  111.52 input  -65.29 | X-H torsion
[ 10718 10713 10712 10709 ] final  -25.77 input   66.30 | X-H torsion
[ 10763 10752 10751 10750 ] final  175.59 input  -60.55 | X-H torsion
[ 11005 11000 10999 10996 ] final -164.26 input  -57.11 | X-H torsion

> <Gold.Protein.ActiveResidues>
 VAL166  LYS551  ARG553  GLY616  TRP617  ASP618  TYR619  PRO620  LYS621  CYS622 
 ASP623  PHE694  ASN695  SER759  ASP760  ASP761  ALA762  ILE779  LEU786  VAL792 
 PHE793  MET794  SER795  GLU796  ALA797  LYS798  CYS799  TRP800  GLU811  SER814 

> <Gold.Protein.RotatedAtoms>
  152.4291  134.5811  159.9947 H   0  0  0  0  0  0  0  0  0  0  0  0  # atno 6907 bound_to 6896
  151.5939  133.3358  159.3041 H   0  0  0  0  0  0  0  0  0  0  0  0  # atno 6908 bound_to 6896
  150.8183  134.7413  159.6814 H   0  0  0  0  0  0  0  0  0  0  0  0  # atno 6909 bound_to 6896
  146.1408  140.5055  142.8653 H   0  0  0  0  0  0  0  0  0  0  0  0  # atno 7974 bound_to 7965
  155.2717  140.3366  155.4265 H   0  0  0  0  0  0  0  0  0  0  0  0  # atno 8008 bound_to 7997
  156.2130  140.1777  156.7695 H   0  0  0  0  0  0  0  0  0  0  0  0  # atno 8009 bound_to 7997
  154.5713  140.0669  156.8952 H   0  0  0  0  0  0  0  0  0  0  0  0  # atno 8010 bound_to 7997
  139.6605  144.7129  151.1875 H   0  0  0  0  0  0  0  0  0  0  0  0  # atno 10167 bound_to 10162
  156.4600  130.4502  149.6935 H   0  0  0  0  0  0  0  0  0  0  0  0  # atno 10718 bound_to 10713
  154.4696  135.2770  155.1652 H   0  0  0  0  0  0  0  0  0  0  0  0  # atno 10763 bound_to 10752
  154.3406  135.6171  153.5598 H   0  0  0  0  0  0  0  0  0  0  0  0  # atno 10764 bound_to 10752
  152.9863  135.5787  154.5075 H   0  0  0  0  0  0  0  0  0  0  0  0  # atno 10765 bound_to 10752
  140.5889  134.5065  157.5190 H   0  0  0  0  0  0  0  0  0  0  0  0  # atno 11005 bound_to 11000
  144.7790  140.5800  143.6618 LP  0  0  0  0  0  0  0  0  0  0  0  0  # atno 17320 bound_to 7965
  145.5052  139.1481  143.3635 LP  0  0  0  0  0  0  0  0  0  0  0  0  # atno 17321 bound_to 7965
  140.7578  143.6002  150.8707 LP  0  0  0  0  0  0  0  0  0  0  0  0  # atno 17342 bound_to 10162
  139.9659  143.6111  152.2988 LP  0  0  0  0  0  0  0  0  0  0  0  0  # atno 17343 bound_to 10162
  156.3727  130.7538  151.2523 LP  0  0  0  0  0  0  0  0  0  0  0  0  # atno 17370 bound_to 10713
  157.7498  131.0318  150.4200 LP  0  0  0  0  0  0  0  0  0  0  0  0  # atno 17371 bound_to 10713
  139.9283  134.8013  156.1004 LP  0  0  0  0  0  0  0  0  0  0  0  0  # atno 17394 bound_to 11000
  141.0948  133.6700  156.2620 LP  0  0  0  0  0  0  0  0  0  0  0  0  # atno 17395 bound_to 11000

$$$$
