AV-unprocessed.smi:2597|AV-procd|sdf|10176|dock6
  -GOLD-   2272014193D 1   1.00000     0.00000
 Structure written by MMmdl.
 30 31  0  0  0  0  0  0  0  0  1 V2000
  153.0290  139.6863  158.3068 N   0  0  0  0  0  0  0  0  0  0  0  0
  152.2984  140.7775  158.9284 C   0  0  1  0  0  0  0  0  0  0  0  0
  153.1356  141.3141  160.1053 C   0  0  0  0  0  0  0  0  0  0  0  0
  152.4666  142.5306  160.7624 C   0  0  0  0  0  0  0  0  0  0  0  0
  152.2043  143.6393  159.7327 C   0  0  0  0  0  0  0  0  0  0  0  0
  151.3538  143.1170  158.5649 C   0  0  0  0  0  0  0  0  0  0  0  0
  152.0062  141.8915  157.8903 C   0  0  2  0  0  0  0  0  0  0  0  0
  151.1865  141.4178  156.7816 N   0  0  0  0  0  0  0  0  0  0  0  0
  149.9480  141.8764  156.3828 C   0  0  0  0  0  0  0  0  0  0  0  0
  149.6376  141.0781  155.3183 C   0  0  0  0  0  0  0  0  0  0  0  0
  148.4157  141.0840  154.4512 C   0  0  0  0  0  0  0  0  0  0  0  0
  148.8460  141.3921  153.1428 O   0  0  0  0  0  0  0  0  0  0  0  0
  150.6832  140.1787  155.1155 N   0  0  0  0  0  0  0  0  0  0  0  0
  151.6039  140.3881  156.0029 N   0  0  0  0  0  0  0  0  0  0  0  0
  151.3595  140.3803  159.3160 H   0  0  0  0  0  0  0  0  0  0  0  0
  152.9576  142.2187  157.4664 H   0  0  0  0  0  0  0  0  0  0  0  0
  153.4723  139.1281  159.0229 H   0  0  0  0  0  0  0  0  0  0  0  0
  152.3822  139.0753  157.8291 H   0  0  0  0  0  0  0  0  0  0  0  0
  153.2813  140.5307  160.8500 H   0  0  0  0  0  0  0  0  0  0  0  0
  154.1300  141.5984  159.7572 H   0  0  0  0  0  0  0  0  0  0  0  0
  151.5256  142.2273  161.2230 H   0  0  0  0  0  0  0  0  0  0  0  0
  153.0962  142.9118  161.5670 H   0  0  0  0  0  0  0  0  0  0  0  0
  151.7017  144.4799  160.2117 H   0  0  0  0  0  0  0  0  0  0  0  0
  153.1535  144.0205  159.3537 H   0  0  0  0  0  0  0  0  0  0  0  0
  150.3613  142.8569  158.9358 H   0  0  0  0  0  0  0  0  0  0  0  0
  151.2104  143.9125  157.8328 H   0  0  0  0  0  0  0  0  0  0  0  0
  149.4216  142.6853  156.8668 H   0  0  0  0  0  0  0  0  0  0  0  0
  147.9237  140.1113  154.4557 H   0  0  0  0  0  0  0  0  0  0  0  0
  147.6894  141.8274  154.7811 H   0  0  0  0  0  0  0  0  0  0  0  0
  149.0626  140.5853  152.7011 H   0  0  0  0  0  0  0  0  0  0  0  0
  1  2  1  0  0  0  0
  1 17  1  0  0  0  0
  1 18  1  0  0  0  0
  2 15  1  0  0  0  0
  2  7  1  0  0  0  0
  2  3  1  0  0  0  0
  3  4  1  0  0  0  0
  3 19  1  0  0  0  0
  3 20  1  0  0  0  0
  4  5  1  0  0  0  0
  4 21  1  0  0  0  0
  4 22  1  0  0  0  0
  5  6  1  0  0  0  0
  5 23  1  0  0  0  0
  5 24  1  0  0  0  0
  6  7  1  0  0  0  0
  6 25  1  0  0  0  0
  6 26  1  0  0  0  0
  7 16  1  0  0  0  0
  7  8  1  0  0  0  0
  8 14  1  0  0  0  0
  8  9  1  0  0  0  0
  9 10  2  0  0  0  0
  9 27  1  0  0  0  0
 10 11  1  0  0  0  0
 10 13  1  0  0  0  0
 11 12  1  0  0  0  0
 11 28  1  0  0  0  0
 11 29  1  0  0  0  0
 12 30  1  0  0  0  0
 13 14  2  0  0  0  0
M  END
> <s_m_source_file>
AV-unprocessed.smi

> <i_m_source_file_index>
2597

> <i_lp_mmshare_version>
43012

> <i_f3d_flags>
0

> <s_epik_input>
W05IMl1bQ0BIXTFbQ0gyXVtDSDJdW0NIMl1bQ0gyXVtDQEhdMW4yW2NIXWMobm4yKVtDSDJdW09IXQ==

> <s_epik_cmdline>
J2VwaWtfcHl0aG9uJywgJy1waCcsICc3LjAnLCAnLXRuJywgJzgnLCAnLW1hJywgJzIwMCcsICctbWV0YWxfYmluZGluZycsICctaW1hZScsICc8aW5maWxlLm1hZT4nLCAnLW9tYWUnLCAnPG91dGZpbGUubWFlPic=

> <r_lp_tautomer_probability>
1

> <r_epik_Ionization_Penalty>
2.21303

> <r_epik_Ionization_Penalty_Charging>
0

> <r_epik_Ionization_Penalty_Neutral>
2.21303

> <r_epik_State_Penalty>
2.3573

> <r_epik_Charging_Adjusted_Penalty>
2.3573

> <i_epik_Tot_Q>
0

> <i_epik_Tot_abs_Q>
0

> <r_epik_Metal_State_Penalty>
2.35724

> <b_epik_Metal_Only>
0

> <s_lp_Force_Field>
OPLS_2005

> <r_lp_Energy>
13.5857

> <b_lp_Chiralities_Consistent>
1

> <s_lp_Variant>
AV-unprocessed.smi:2597-7

> <Gold.Version>
5.8.1

> <Gold.Id.Protein>
6NUR|6NUR_protein|mol2

> <Gold.PLP.Fitness>
43.6325

> <Gold.PLP.PLP>
-30.0428

> <Gold.PLP.part.hbond>
-4.6495

> <Gold.PLP.part.metal>
0.0000

> <Gold.PLP.part.buried>
-3.6591

> <Gold.PLP.part.nonpolar>
-21.8420

> <Gold.PLP.part.repulsive>
0.0397

> <Gold.PLP.ligand.clash>
0.0000

> <Gold.PLP.ligand.torsion>
0.0230

> <Gold.PLP.Chemscore.Hbond>
3.6880

> <Gold.PLP.Chemscore.CHOScore>
0.8493

> <Gold.PLP.Chemscore.Metal>
0.0000

> <Gold.Chemscore.Hbonds>
donor molecule, donor type, donor heavy atom, donor atom, acceptor molecule, acceptor atom, score
      L1  H    12    30       P1  7957  0.77
      P1  H  7989  7998       L1    13  0.95
      P1  H  7997  8010       L1     1  0.94
      P1  H  8011  8017       L1    12  0.96
      L1  C     9    27       P1  8028  0.83

> <Gold.PLP.Chemscore.Internal.Correction>
0.0238

> <Gold.Rescore>
     Score         DG    S(hbond)    S(metal)    S(lipo)     H(rot)  DE(clash)    DE(int)     intcor
     13.73     -15.29       1.58        0.00      78.78       1.82       0.07       1.50       ----

> <Gold.Chemscore.Fitness>
13.7308

> <Gold.Chemscore.DG>
-15.2946

> <Gold.Chemscore.ZeroCoef>
-5.4800

> <Gold.Chemscore.Hbond>
1.5757

> <Gold.Chemscore.Metal>
0.0000

> <Gold.Chemscore.Lipo>
78.7762

> <Gold.Chemscore.Internal_Hbond>
0.0000

> <Gold.Chemscore.DEClash>
0.0685

> <Gold.Chemscore.DEInternal>
1.4953

> <Gold.Chemscore.Rot>
1.8222

> <Gold.Chemscore.Internal.Correction>
   9.000000E+99

> <Gold.Chemscore.Hbonds>
donor molecule, donor type, donor heavy atom, donor atom, acceptor molecule, acceptor atom, score
      L1  H    12    30       P1  7957  0.78
      P1  H  7989  7998       L1    13  0.09
      P1  H  7997  8010       L1     1  0.16
      P1  H  8011  8017       L1    12  0.23

> <Gold.Chemscore.Hbond.Weighted>
-5.2627

> <Gold.Chemscore.Metal.Weighted>
-0.0000

> <Gold.Chemscore.Lipo.Weighted>
-9.2168

> <Gold.Chemscore.Internal_Hbond.Weighted>
0.0000

> <Gold.Chemscore.DEClash.Weighted>
0.0685

> <Gold.Chemscore.DEInternal.Weighted>
1.4953

> <Gold.Chemscore.Rot.Weighted>
4.6649

> <Gold.Chemscore.Internal.Correction.Weighted>
   9.000000E+99

> <Gold.Protein.RotatedTorsions>
[ 6907 6896 6895 6894 ] final -107.51 input  -60.11 | X-H torsion
[ 7974 7965 7964 7962 ] final  151.72 input  175.53 | X-H torsion
[ 8008 7997 7996 7995 ] final   30.79 input   59.86 | X-H torsion
[ 10167 10162 10161 10158 ] final  111.92 input  -65.29 | X-H torsion
[ 10718 10713 10712 10709 ] final    2.16 input   66.30 | X-H torsion
[ 10763 10752 10751 10750 ] final -169.55 input  -60.55 | X-H torsion
[ 11005 11000 10999 10996 ] final  -82.91 input  -57.11 | X-H torsion

> <Gold.Protein.ActiveResidues>
 VAL166  LYS551  ARG553  GLY616  TRP617  ASP618  TYR619  PRO620  LYS621  CYS622 
 ASP623  PHE694  ASN695  SER759  ASP760  ASP761  ALA762  ILE779  LEU786  VAL792 
 PHE793  MET794  SER795  GLU796  ALA797  LYS798  CYS799  TRP800  GLU811  SER814 

> <Gold.Protein.RotatedAtoms>
  150.7448  133.9816  159.3577 H   0  0  0  0  0  0  0  0  0  0  0  0  # atno 6907 bound_to 6896
  151.7757  135.0772  160.0376 H   0  0  0  0  0  0  0  0  0  0  0  0  # atno 6908 bound_to 6896
  152.3308  133.5919  159.5844 H   0  0  0  0  0  0  0  0  0  0  0  0  # atno 6909 bound_to 6896
  144.8272  139.6575  143.6074 H   0  0  0  0  0  0  0  0  0  0  0  0  # atno 7974 bound_to 7965
  155.0961  140.3225  155.4560 H   0  0  0  0  0  0  0  0  0  0  0  0  # atno 8008 bound_to 7997
  156.2729  140.2069  156.6034 H   0  0  0  0  0  0  0  0  0  0  0  0  # atno 8009 bound_to 7997
  154.6865  140.0521  157.0307 H   0  0  0  0  0  0  0  0  0  0  0  0  # atno 8010 bound_to 7997
  139.6575  144.7129  151.1929 H   0  0  0  0  0  0  0  0  0  0  0  0  # atno 10167 bound_to 10162
  156.8588  130.5579  149.5664 H   0  0  0  0  0  0  0  0  0  0  0  0  # atno 10718 bound_to 10713
  154.6511  135.2911  154.9986 H   0  0  0  0  0  0  0  0  0  0  0  0  # atno 10763 bound_to 10752
  154.1079  135.6567  153.4883 H   0  0  0  0  0  0  0  0  0  0  0  0  # atno 10764 bound_to 10752
  153.0377  135.5258  154.7419 H   0  0  0  0  0  0  0  0  0  0  0  0  # atno 10765 bound_to 10752
  141.1661  133.7268  156.8642 H   0  0  0  0  0  0  0  0  0  0  0  0  # atno 11005 bound_to 11000
  146.2577  139.6339  142.9383 LP  0  0  0  0  0  0  0  0  0  0  0  0  # atno 17320 bound_to 7965
  145.4974  141.0438  143.2559 LP  0  0  0  0  0  0  0  0  0  0  0  0  # atno 17321 bound_to 7965
  140.7565  143.6049  150.8663 LP  0  0  0  0  0  0  0  0  0  0  0  0  # atno 17342 bound_to 10162
  139.9703  143.6064  152.2975 LP  0  0  0  0  0  0  0  0  0  0  0  0  # atno 17343 bound_to 10162
  156.0788  130.5803  150.9523 LP  0  0  0  0  0  0  0  0  0  0  0  0  # atno 17370 bound_to 10713
  157.6262  131.0925  150.8530 LP  0  0  0  0  0  0  0  0  0  0  0  0  # atno 17371 bound_to 10713
  140.1827  134.9022  157.2967 LP  0  0  0  0  0  0  0  0  0  0  0  0  # atno 17394 bound_to 11000
  140.2377  134.3832  155.7494 LP  0  0  0  0  0  0  0  0  0  0  0  0  # atno 17395 bound_to 11000

$$$$
