AV-unprocessed.smi:2453|AV-procd|sdf|9691|dock5
  -GOLD-   2272013333D 1   1.00000     0.00000
 Structure written by MMmdl.
 41 42  0  0  0  0  0  0  0  0  2 V2000
  147.3392  142.1342  154.1297 C   0  0  0  0  0  0  0  0  0  0  0  0
  148.2899  140.9496  154.1286 C   0  0  0  0  0  0  0  0  0  0  0  0
  148.0021  139.8277  153.3207 C   0  0  0  0  0  0  0  0  0  0  0  0
  148.8396  138.7696  153.3061 N   0  3  0  0  0  0  0  0  0  0  0  0
  149.9713  138.7246  154.0391 C   0  0  0  0  0  0  0  0  0  0  0  0
  150.3160  139.8116  154.8666 C   0  0  0  0  0  0  0  0  0  0  0  0
  149.4616  140.9425  154.9289 C   0  0  0  0  0  0  0  0  0  0  0  0
  149.7541  142.0890  155.7209 N   0  0  0  0  0  0  0  0  0  0  0  0
  150.4799  142.1658  156.8498 C   0  0  0  0  0  0  0  0  0  0  0  0
  150.9861  141.2076  157.4331 O   0  0  0  0  0  0  0  0  0  0  0  0
  150.5736  143.4335  157.2776 N   0  0  0  0  0  0  0  0  0  0  0  0
  151.2947  143.8881  158.4665 C   0  0  2  0  0  0  0  0  0  0  0  0
  152.6215  143.1084  158.5643 C   0  0  0  0  0  0  0  0  0  0  0  0
  153.4075  143.4766  159.8296 C   0  0  0  0  0  0  0  0  0  0  0  0
  152.5532  143.2554  161.0838 C   0  0  0  0  0  0  0  0  0  0  0  0
  151.2426  144.0510  161.0028 C   0  0  0  0  0  0  0  0  0  0  0  0
  150.4241  143.7037  159.7381 C   0  0  1  0  0  0  0  0  0  0  0  0
  149.1230  144.5356  159.6781 C   0  0  0  0  0  0  0  0  0  0  0  0
  148.2127  144.1211  160.6752 O   0  0  0  0  0  0  0  0  0  0  0  0
  146.4899  141.9619  153.4677 H   0  0  0  0  0  0  0  0  0  0  0  0
  147.8522  143.0350  153.7917 H   0  0  0  0  0  0  0  0  0  0  0  0
  146.9528  142.3117  155.1337 H   0  0  0  0  0  0  0  0  0  0  0  0
  147.1320  139.7449  152.6852 H   0  0  0  0  0  0  0  0  0  0  0  0
  150.5681  137.8299  153.9373 H   0  0  0  0  0  0  0  0  0  0  0  0
  151.2372  139.7624  155.4267 H   0  0  0  0  0  0  0  0  0  0  0  0
  149.3184  142.9471  155.4163 H   0  0  0  0  0  0  0  0  0  0  0  0
  150.1159  144.1502  156.7334 H   0  0  0  0  0  0  0  0  0  0  0  0
  151.5368  144.9489  158.3794 H   0  0  0  0  0  0  0  0  0  0  0  0
  152.4211  142.0358  158.5660 H   0  0  0  0  0  0  0  0  0  0  0  0
  153.2356  143.3052  157.6846 H   0  0  0  0  0  0  0  0  0  0  0  0
  154.3187  142.8808  159.8892 H   0  0  0  0  0  0  0  0  0  0  0  0
  153.7213  144.5199  159.7769 H   0  0  0  0  0  0  0  0  0  0  0  0
  152.3317  142.1933  161.1963 H   0  0  0  0  0  0  0  0  0  0  0  0
  153.1128  143.5508  161.9717 H   0  0  0  0  0  0  0  0  0  0  0  0
  150.6537  143.8556  161.8994 H   0  0  0  0  0  0  0  0  0  0  0  0
  151.4679  145.1182  161.0119 H   0  0  0  0  0  0  0  0  0  0  0  0
  150.1456  142.6498  159.7984 H   0  0  0  0  0  0  0  0  0  0  0  0
  149.3371  145.5974  159.8032 H   0  0  0  0  0  0  0  0  0  0  0  0
  148.6234  144.4227  158.7163 H   0  0  0  0  0  0  0  0  0  0  0  0
  147.4719  144.7080  160.6689 H   0  0  0  0  0  0  0  0  0  0  0  0
  148.6107  137.9724  152.7116 H   0  0  0  0  0  0  0  0  0  0  0  0
  1  2  1  0  0  0  0
  1 20  1  0  0  0  0
  1 21  1  0  0  0  0
  1 22  1  0  0  0  0
  2  7  1  0  0  0  0
  2  3  2  0  0  0  0
  3  4  1  0  0  0  0
  3 23  1  0  0  0  0
  4  5  2  0  0  0  0
  4 41  1  0  0  0  0
  5  6  1  0  0  0  0
  5 24  1  0  0  0  0
  6  7  2  0  0  0  0
  6 25  1  0  0  0  0
  7  8  1  0  0  0  0
  8  9  1  0  0  0  0
  8 26  1  0  0  0  0
  9 10  2  0  0  0  0
  9 11  1  0  0  0  0
 11 12  1  0  0  0  0
 11 27  1  0  0  0  0
 12 17  1  0  0  0  0
 12 13  1  0  0  0  0
 12 28  1  0  0  0  0
 13 14  1  0  0  0  0
 13 29  1  0  0  0  0
 13 30  1  0  0  0  0
 14 15  1  0  0  0  0
 14 31  1  0  0  0  0
 14 32  1  0  0  0  0
 15 16  1  0  0  0  0
 15 33  1  0  0  0  0
 15 34  1  0  0  0  0
 16 17  1  0  0  0  0
 16 35  1  0  0  0  0
 16 36  1  0  0  0  0
 17 18  1  0  0  0  0
 17 37  1  0  0  0  0
 18 19  1  0  0  0  0
 18 38  1  0  0  0  0
 18 39  1  0  0  0  0
 19 40  1  0  0  0  0
M  CHG  1   4   1
M  END
> <s_m_source_file>
AV-unprocessed.smi

> <i_m_source_file_index>
2453

> <i_lp_mmshare_version>
43012

> <i_f3d_flags>
0

> <s_epik_input>
W0NIM11jMVtjSF1uW2NIXVtjSF1jMVtOSF1DKD1PKVtOSF1bQ0BASF0yW0NIMl1bQ0gyXVtDSDJdW0NIMl1bQ0BIXTJbQ0gyXVtPSF0=

> <s_epik_cmdline>
J2VwaWtfcHl0aG9uJywgJy1waCcsICc3LjAnLCAnLXRuJywgJzgnLCAnLW1hJywgJzIwMCcsICctbWV0YWxfYmluZGluZycsICctaW1hZScsICc8aW5maWxlLm1hZT4nLCAnLW9tYWUnLCAnPG91dGZpbGUubWFlPic=

> <r_epik_Ionization_Penalty>
0.71493

> <r_epik_Ionization_Penalty_Charging>
0.714909

> <r_epik_Ionization_Penalty_Neutral>
2.10174e-05

> <r_epik_State_Penalty>
0.738815

> <r_epik_Charging_Adjusted_Penalty>
1.45372

> <i_epik_Tot_Q>
1

> <i_epik_Tot_abs_Q>
1

> <r_epik_Metal_State_Penalty>
0.896004

> <b_epik_Metal_Only>
0

> <s_lp_Force_Field>
OPLS_2005

> <r_lp_Energy>
24.2673

> <b_lp_Chiralities_Consistent>
1

> <s_lp_Variant>
AV-unprocessed.smi:2453-5

> <Gold.Version>
5.8.1

> <Gold.Id.Protein>
6NUR|6NUR_protein|mol2

> <Gold.PLP.Fitness>
52.2429

> <Gold.PLP.PLP>
-38.2984

> <Gold.PLP.part.hbond>
-5.0000

> <Gold.PLP.part.metal>
0.0000

> <Gold.PLP.part.buried>
-1.0756

> <Gold.PLP.part.nonpolar>
-33.2890

> <Gold.PLP.part.repulsive>
0.2372

> <Gold.PLP.ligand.clash>
0.0000

> <Gold.PLP.ligand.torsion>
0.5194

> <Gold.PLP.Chemscore.Hbond>
4.9913

> <Gold.PLP.Chemscore.CHOScore>
0.0000

> <Gold.PLP.Chemscore.Metal>
0.0000

> <Gold.Chemscore.Hbonds>
donor molecule, donor type, donor heavy atom, donor atom, acceptor molecule, acceptor atom, score
      L1  H     4    41       P1  7948  2.00
      L1  H     8    26       P1  8028  1.00
      L1  H    11    27       P1  8028  1.00
      P1  H  6933  6944       L1    19  1.00

> <Gold.PLP.Chemscore.Internal.Correction>
0.0095

> <Gold.Rescore>
     Score         DG    S(hbond)    S(metal)    S(lipo)     H(rot)  DE(clash)    DE(int)     intcor
     23.16     -26.85       3.78        0.00     113.58       1.77       0.51       3.19       ----

> <Gold.Chemscore.Fitness>
23.1561

> <Gold.Chemscore.DG>
-26.8544

> <Gold.Chemscore.ZeroCoef>
-5.4800

> <Gold.Chemscore.Hbond>
3.7808

> <Gold.Chemscore.Metal>
0.0000

> <Gold.Chemscore.Lipo>
113.5758

> <Gold.Chemscore.Internal_Hbond>
0.0000

> <Gold.Chemscore.DEClash>
0.5056

> <Gold.Chemscore.DEInternal>
3.1927

> <Gold.Chemscore.Rot>
1.7742

> <Gold.Chemscore.Internal.Correction>
   9.000000E+99

> <Gold.Chemscore.Hbonds>
donor molecule, donor type, donor heavy atom, donor atom, acceptor molecule, acceptor atom, score
      L1  H     4    41       P1  7948  0.97
      L1  H     8    26       P1  8028  0.96
      L1  H    11    27       P1  8028  0.97
      P1  H  6933  6944       L1    19  0.90

> <Gold.Chemscore.Hbond.Weighted>
-12.6280

> <Gold.Chemscore.Metal.Weighted>
-0.0000

> <Gold.Chemscore.Lipo.Weighted>
-13.2884

> <Gold.Chemscore.Internal_Hbond.Weighted>
0.0000

> <Gold.Chemscore.DEClash.Weighted>
0.5056

> <Gold.Chemscore.DEInternal.Weighted>
3.1927

> <Gold.Chemscore.Rot.Weighted>
4.5419

> <Gold.Chemscore.Internal.Correction.Weighted>
   9.000000E+99

> <Gold.Protein.RotatedTorsions>
[ 6907 6896 6895 6894 ] final -162.20 input  -60.11 | X-H torsion
[ 7974 7965 7964 7962 ] final   86.90 input  175.53 | X-H torsion
[ 8008 7997 7996 7995 ] final  158.56 input   59.86 | X-H torsion
[ 10167 10162 10161 10158 ] final   77.42 input  -65.29 | X-H torsion
[ 10718 10713 10712 10709 ] final  -73.72 input   66.30 | X-H torsion
[ 10763 10752 10751 10750 ] final   63.30 input  -60.55 | X-H torsion
[ 11005 11000 10999 10996 ] final  -94.22 input  -57.11 | X-H torsion

> <Gold.Protein.ActiveResidues>
 VAL166  LYS551  ARG553  GLY616  TRP617  ASP618  TYR619  PRO620  LYS621  CYS622 
 ASP623  PHE694  ASN695  SER759  ASP760  ASP761  ALA762  ILE779  LEU786  VAL792 
 PHE793  MET794  SER795  GLU796  ALA797  LYS798  CYS799  TRP800  GLU811  SER814 

> <Gold.Protein.RotatedAtoms>
  151.3766  133.3836  159.2705 H   0  0  0  0  0  0  0  0  0  0  0  0  # atno 6907 bound_to 6896
  150.9609  134.8998  159.7740 H   0  0  0  0  0  0  0  0  0  0  0  0  # atno 6908 bound_to 6896
  152.5149  134.3725  159.9375 H   0  0  0  0  0  0  0  0  0  0  0  0  # atno 6909 bound_to 6896
  145.5662  139.2309  143.2432 H   0  0  0  0  0  0  0  0  0  0  0  0  # atno 7974 bound_to 7965
  156.2295  140.1855  156.7279 H   0  0  0  0  0  0  0  0  0  0  0  0  # atno 8008 bound_to 7997
  154.5998  140.0638  156.9380 H   0  0  0  0  0  0  0  0  0  0  0  0  # atno 8009 bound_to 7997
  155.2194  140.3306  155.4320 H   0  0  0  0  0  0  0  0  0  0  0  0  # atno 8010 bound_to 7997
  139.9818  144.5821  150.7894 H   0  0  0  0  0  0  0  0  0  0  0  0  # atno 10167 bound_to 10162
  156.0269  130.4400  150.2784 H   0  0  0  0  0  0  0  0  0  0  0  0  # atno 10718 bound_to 10713
  153.0013  135.5434  154.6329 H   0  0  0  0  0  0  0  0  0  0  0  0  # atno 10763 bound_to 10752
  154.5602  135.2833  155.0928 H   0  0  0  0  0  0  0  0  0  0  0  0  # atno 10764 bound_to 10752
  154.2133  135.6463  153.5174 H   0  0  0  0  0  0  0  0  0  0  0  0  # atno 10765 bound_to 10752
  141.1476  133.7941  157.0268 H   0  0  0  0  0  0  0  0  0  0  0  0  # atno 11005 bound_to 11000
  146.1817  140.6487  142.9186 LP  0  0  0  0  0  0  0  0  0  0  0  0  # atno 17320 bound_to 7965
  144.7459  140.5067  143.6836 LP  0  0  0  0  0  0  0  0  0  0  0  0  # atno 17321 bound_to 7965
  140.7486  143.2925  151.3291 LP  0  0  0  0  0  0  0  0  0  0  0  0  # atno 17342 bound_to 10162
  139.6404  144.0550  152.2550 LP  0  0  0  0  0  0  0  0  0  0  0  0  # atno 17343 bound_to 10162
  157.0888  131.0164  151.3129 LP  0  0  0  0  0  0  0  0  0  0  0  0  # atno 17370 bound_to 10713
  157.4870  130.7799  149.7470 LP  0  0  0  0  0  0  0  0  0  0  0  0  # atno 17371 bound_to 10713
  140.0780  134.9665  157.1577 LP  0  0  0  0  0  0  0  0  0  0  0  0  # atno 17394 bound_to 11000
  140.3617  134.2487  155.7186 LP  0  0  0  0  0  0  0  0  0  0  0  0  # atno 17395 bound_to 11000

$$$$
