AV-unprocessed.smi:581|AV-procd|sdf|2994|dock4
  -GOLD-   2262023503D 1   1.00000     0.00000
 Structure written by MMmdl.
 34 35  0  0  0  0  0  0  0  0  3 V2000
  155.9239  140.4960  163.5095 C   0  0  0  0  0  0  0  0  0  0  0  0
  155.3493  140.5640  162.1056 C   0  0  0  0  0  0  0  0  0  0  0  0
  154.4861  141.6400  161.8491 N   0  0  0  0  0  0  0  0  0  0  0  0
  153.9505  141.7825  160.6740 C   0  0  0  0  0  0  0  0  0  0  0  0
  153.0885  142.8418  160.3760 N   0  0  0  0  0  0  0  0  0  0  0  0
  152.3341  143.5241  161.4303 C   0  0  0  0  0  0  0  0  0  0  0  0
  151.9337  144.9451  161.0009 C   0  0  0  0  0  0  0  0  0  0  0  0
  151.2033  144.8901  159.7829 O   0  0  0  0  0  0  0  0  0  0  0  0
  151.9889  144.3386  158.7348 C   0  0  0  0  0  0  0  0  0  0  0  0
  152.3922  142.8979  159.0901 C   0  0  0  0  0  0  0  0  0  0  0  0
  154.1860  140.8932  159.6375 N   0  5  0  0  0  0  0  0  0  0  0  0
  155.0197  139.8285  159.8128 C   0  0  0  0  0  0  0  0  0  0  0  0
  155.2558  139.0310  158.9061 O   0  0  0  0  0  0  0  0  0  0  0  0
  155.6445  139.6532  161.1358 C   0  0  0  0  0  0  0  0  0  0  0  0
  156.5682  138.4573  161.3626 C   0  0  0  0  0  0  0  0  0  0  0  0
  155.9299  137.1337  160.9037 C   0  0  0  0  0  0  0  0  0  0  0  0
  154.5374  136.9664  161.5120 C   0  0  0  0  0  0  0  0  0  0  0  0
  154.4250  137.1460  162.7445 O   0  0  0  0  0  0  0  0  0  0  0  0
  153.6072  136.6600  160.7339 O   0  5  0  0  0  0  0  0  0  0  0  0
  157.0090  140.3938  163.4772 H   0  0  0  0  0  0  0  0  0  0  0  0
  155.5096  139.6433  164.0478 H   0  0  0  0  0  0  0  0  0  0  0  0
  155.6907  141.3986  164.0756 H   0  0  0  0  0  0  0  0  0  0  0  0
  151.4409  142.9385  161.6512 H   0  0  0  0  0  0  0  0  0  0  0  0
  152.9026  143.5843  162.3587 H   0  0  0  0  0  0  0  0  0  0  0  0
  151.3098  145.4059  161.7669 H   0  0  0  0  0  0  0  0  0  0  0  0
  152.8147  145.5784  160.8846 H   0  0  0  0  0  0  0  0  0  0  0  0
  151.4068  144.3481  157.8134 H   0  0  0  0  0  0  0  0  0  0  0  0
  152.8712  144.9568  158.5606 H   0  0  0  0  0  0  0  0  0  0  0  0
  153.0257  142.5012  158.2954 H   0  0  0  0  0  0  0  0  0  0  0  0
  151.5068  142.2626  159.1393 H   0  0  0  0  0  0  0  0  0  0  0  0
  157.5105  138.6122  160.8370 H   0  0  0  0  0  0  0  0  0  0  0  0
  156.8404  138.4012  162.4178 H   0  0  0  0  0  0  0  0  0  0  0  0
  155.8530  137.1043  159.8161 H   0  0  0  0  0  0  0  0  0  0  0  0
  156.5548  136.2890  161.1969 H   0  0  0  0  0  0  0  0  0  0  0  0
  1  2  1  0  0  0  0
  1 20  1  0  0  0  0
  1 21  1  0  0  0  0
  1 22  1  0  0  0  0
  2 14  2  0  0  0  0
  2  3  1  0  0  0  0
  3  4  2  0  0  0  0
  4  5  1  0  0  0  0
  4 11  1  0  0  0  0
  5 10  1  0  0  0  0
  5  6  1  0  0  0  0
  6  7  1  0  0  0  0
  6 23  1  0  0  0  0
  6 24  1  0  0  0  0
  7  8  1  0  0  0  0
  7 25  1  0  0  0  0
  7 26  1  0  0  0  0
  8  9  1  0  0  0  0
  9 10  1  0  0  0  0
  9 27  1  0  0  0  0
  9 28  1  0  0  0  0
 10 29  1  0  0  0  0
 10 30  1  0  0  0  0
 11 12  1  0  0  0  0
 12 13  2  0  0  0  0
 12 14  1  0  0  0  0
 14 15  1  0  0  0  0
 15 16  1  0  0  0  0
 15 31  1  0  0  0  0
 15 32  1  0  0  0  0
 16 17  1  0  0  0  0
 16 33  1  0  0  0  0
 16 34  1  0  0  0  0
 17 18  2  0  0  0  0
 17 19  1  0  0  0  0
M  CHG  1  11  -1
M  CHG  1  19  -1
M  END
> <s_m_source_file>
AV-unprocessed.smi

> <i_m_source_file_index>
581

> <i_lp_mmshare_version>
43012

> <i_f3d_flags>
0

> <s_epik_input>
W0NIMl0xW0NIMl1PW0NIMl1bQ0gyXU4xYyhuYzJbQ0gzXSlbbkhdYyg9TyljMltDSDJdW0NIMl1DKD1PKVtPSF0=

> <s_epik_cmdline>
J2VwaWtfcHl0aG9uJywgJy1waCcsICc3LjAnLCAnLXRuJywgJzgnLCAnLW1hJywgJzIwMCcsICctbWV0YWxfYmluZGluZycsICctaW1hZScsICc8aW5maWxlLm1hZT4nLCAnLW9tYWUnLCAnPG91dGZpbGUubWFlPic=

> <r_lp_tautomer_probability>
0.878553

> <r_epik_Ionization_Penalty>
5.42566

> <r_epik_Ionization_Penalty_Charging>
0.003235

> <r_epik_Ionization_Penalty_Neutral>
5.42243

> <r_epik_State_Penalty>
3.98511

> <r_epik_Charging_Adjusted_Penalty>
3.98834

> <i_epik_Tot_Q>
-2

> <i_epik_Tot_abs_Q>
2

> <r_epik_Metal_State_Penalty>
0.64219

> <b_epik_Metal_Only>
1

> <s_lp_Force_Field>
OPLS_2005

> <r_lp_Energy>
30.9787

> <b_lp_Chiralities_Consistent>
1

> <s_lp_Variant>
AV-unprocessed.smi:581-4

> <Gold.Version>
5.8.1

> <Gold.Id.Protein>
6NUR|6NUR_protein|mol2

> <Gold.PLP.Fitness>
45.5909

> <Gold.PLP.PLP>
-37.2506

> <Gold.PLP.part.hbond>
-2.9838

> <Gold.PLP.part.metal>
0.0000

> <Gold.PLP.part.buried>
-3.7342

> <Gold.PLP.part.nonpolar>
-31.1049

> <Gold.PLP.part.repulsive>
0.1151

> <Gold.PLP.ligand.clash>
0.1751

> <Gold.PLP.ligand.torsion>
0.3498

> <Gold.PLP.Chemscore.Hbond>
3.0000

> <Gold.PLP.Chemscore.CHOScore>
0.0000

> <Gold.PLP.Chemscore.Metal>
0.0000

> <Gold.Chemscore.Hbonds>
donor molecule, donor type, donor heavy atom, donor atom, acceptor molecule, acceptor atom, score
      P1  H  6896  6907       L1    19  0.55
      P1  H  7997  8009       L1    13  1.00

> <Gold.PLP.Chemscore.Internal.Correction>
0.2152

> <Gold.Rescore>
     Score         DG    S(hbond)    S(metal)    S(lipo)     H(rot)  DE(clash)    DE(int)     intcor
     13.40     -15.33       1.80        0.00      73.69       1.86       0.41       1.53       ----

> <Gold.Chemscore.Fitness>
13.3981

> <Gold.Chemscore.DG>
-15.3342

> <Gold.Chemscore.ZeroCoef>
-5.4800

> <Gold.Chemscore.Hbond>
1.7971

> <Gold.Chemscore.Metal>
0.0000

> <Gold.Chemscore.Lipo>
73.6855

> <Gold.Chemscore.Internal_Hbond>
0.0000

> <Gold.Chemscore.DEClash>
0.4084

> <Gold.Chemscore.DEInternal>
1.5278

> <Gold.Chemscore.Rot>
1.8630

> <Gold.Chemscore.Internal.Correction>
   9.000000E+99

> <Gold.Chemscore.Hbonds>
donor molecule, donor type, donor heavy atom, donor atom, acceptor molecule, acceptor atom, score
      P1  H  6896  6907       L1    19  0.27
      P1  H  7997  8009       L1    13  0.55

> <Gold.Chemscore.Hbond.Weighted>
-6.0024

> <Gold.Chemscore.Metal.Weighted>
-0.0000

> <Gold.Chemscore.Lipo.Weighted>
-8.6212

> <Gold.Chemscore.Internal_Hbond.Weighted>
0.0000

> <Gold.Chemscore.DEClash.Weighted>
0.4084

> <Gold.Chemscore.DEInternal.Weighted>
1.5278

> <Gold.Chemscore.Rot.Weighted>
4.7694

> <Gold.Chemscore.Internal.Correction.Weighted>
   9.000000E+99

> <Gold.Protein.RotatedTorsions>
[ 6907 6896 6895 6894 ] final   33.57 input  -60.11 | X-H torsion
[ 7974 7965 7964 7962 ] final  -99.82 input  175.53 | X-H torsion
[ 8008 7997 7996 7995 ] final  113.26 input   59.86 | X-H torsion
[ 10167 10162 10161 10158 ] final   43.34 input  -65.29 | X-H torsion
[ 10718 10713 10712 10709 ] final -128.04 input   66.30 | X-H torsion
[ 10763 10752 10751 10750 ] final -175.38 input  -60.55 | X-H torsion
[ 11005 11000 10999 10996 ] final -119.83 input  -57.11 | X-H torsion

> <Gold.Protein.ActiveResidues>
 VAL166  LYS551  ARG553  GLY616  TRP617  ASP618  TYR619  PRO620  LYS621  CYS622 
 ASP623  PHE694  ASN695  SER759  ASP760  ASP761  ALA762  ILE779  LEU786  VAL792 
 PHE793  MET794  SER795  GLU796  ALA797  LYS798  CYS799  TRP800  GLU811  SER814 

> <Gold.Protein.RotatedAtoms>
  152.0903  134.9412  160.0571 H   0  0  0  0  0  0  0  0  0  0  0  0  # atno 6907 bound_to 6896
  152.0666  133.4082  159.4449 H   0  0  0  0  0  0  0  0  0  0  0  0  # atno 6908 bound_to 6896
  150.6837  134.3060  159.4770 H   0  0  0  0  0  0  0  0  0  0  0  0  # atno 6909 bound_to 6896
  145.3026  140.9381  143.2815 H   0  0  0  0  0  0  0  0  0  0  0  0  # atno 7974 bound_to 7965
  156.2247  140.2983  156.0037 H   0  0  0  0  0  0  0  0  0  0  0  0  # atno 8008 bound_to 7997
  155.2389  140.0421  157.2989 H   0  0  0  0  0  0  0  0  0  0  0  0  # atno 8009 bound_to 7997
  154.5895  140.2397  155.7948 H   0  0  0  0  0  0  0  0  0  0  0  0  # atno 8010 bound_to 7997
  140.3453  144.2418  150.6151 H   0  0  0  0  0  0  0  0  0  0  0  0  # atno 10167 bound_to 10162
  156.1914  130.6797  151.0428 H   0  0  0  0  0  0  0  0  0  0  0  0  # atno 10718 bound_to 10713
  154.5851  135.2840  155.0693 H   0  0  0  0  0  0  0  0  0  0  0  0  # atno 10763 bound_to 10752
  154.2015  135.6423  153.5092 H   0  0  0  0  0  0  0  0  0  0  0  0  # atno 10764 bound_to 10752
  153.0101  135.5470  154.6518 H   0  0  0  0  0  0  0  0  0  0  0  0  # atno 10765 bound_to 10752
  141.0187  134.0157  157.3313 H   0  0  0  0  0  0  0  0  0  0  0  0  # atno 11005 bound_to 11000
  144.9081  139.4563  143.6600 LP  0  0  0  0  0  0  0  0  0  0  0  0  # atno 17320 bound_to 7965
  146.3146  139.7873  142.8993 LP  0  0  0  0  0  0  0  0  0  0  0  0  # atno 17321 bound_to 7965
  140.5270  143.2252  151.8299 LP  0  0  0  0  0  0  0  0  0  0  0  0  # atno 17342 bound_to 10162
  139.4834  144.4767  151.9358 LP  0  0  0  0  0  0  0  0  0  0  0  0  # atno 17343 bound_to 10162
  157.6931  131.0803  150.7049 LP  0  0  0  0  0  0  0  0  0  0  0  0  # atno 17370 bound_to 10713
  156.7106  130.4650  149.5548 LP  0  0  0  0  0  0  0  0  0  0  0  0  # atno 17371 bound_to 10713
  139.9133  135.0193  156.7779 LP  0  0  0  0  0  0  0  0  0  0  0  0  # atno 17394 bound_to 11000
  140.6610  133.9645  155.7805 LP  0  0  0  0  0  0  0  0  0  0  0  0  # atno 17395 bound_to 11000

$$$$
