AV-unprocessed.smi:278|AV-procd|sdf|2090|dock5
  -GOLD-   2262021373D 1   1.00000     0.00000
 Structure written by MMmdl.
 50 54  0  0  0  0  0  0  0  0  1 V2000
  145.2161  135.9755  159.9511 O   0  0  0  0  0  0  0  0  0  0  0  0
  145.9802  136.3029  161.1647 S   0  0  0  0  0  0  0  0  0  0  0  0
  146.1601  137.6971  161.5965 O   0  0  0  0  0  0  0  0  0  0  0  0
  145.3562  135.2960  162.5505 C   0  0  0  0  0  0  0  0  0  0  0  0
  145.9511  133.8986  162.3229 C   0  0  0  0  0  0  0  0  0  0  0  0
  147.3247  134.0119  161.6102 C   0  0  1  0  0  0  0  0  0  0  0  0
  147.4384  133.1753  160.3315 C   0  0  0  0  0  0  0  0  0  0  0  0
  148.3913  133.8865  159.4944 N   0  0  0  0  0  0  0  0  0  0  0  0
  148.4233  133.5012  158.2011 C   0  0  0  0  0  0  0  0  0  0  0  0
  149.6463  133.3113  157.6492 N   0  0  0  0  0  0  0  0  0  0  0  0
  149.7515  132.9363  156.3706 C   0  0  0  0  0  0  0  0  0  0  0  0
  148.7796  132.7028  155.4857 N   0  0  0  0  0  0  0  0  0  0  0  0
  147.5479  132.8922  156.0400 C   0  0  0  0  0  0  0  0  0  0  0  0
  147.2791  133.2882  157.3801 C   0  0  0  0  0  0  0  0  0  0  0  0
  145.9066  133.3812  157.5792 N   0  0  0  0  0  0  0  0  0  0  0  0
  145.3932  133.0608  156.4231 C   0  0  0  0  0  0  0  0  0  0  0  0
  146.3080  132.7549  155.4414 N   0  0  0  0  0  0  0  0  0  0  0  0
  146.0148  132.3740  154.0711 C   0  0  0  0  0  0  0  0  0  0  0  0
  146.4151  133.4666  153.0608 C   0  0  1  0  0  0  0  0  0  0  0  0
  147.8091  133.4362  152.8180 O   0  0  0  0  0  0  0  0  0  0  0  0
  145.6283  133.3728  151.7371 C   0  0  1  0  0  0  0  0  0  0  0  0
  145.6267  132.0095  151.0378 C   0  0  0  0  0  0  0  0  0  0  0  0
  144.3501  132.0898  150.2303 C   0  0  0  0  0  0  0  0  0  0  0  0
  143.4257  132.8332  151.1904 C   0  0  0  0  0  0  0  0  0  0  0  0
  144.2605  133.7429  151.9008 O   0  0  0  0  0  0  0  0  0  0  0  0
  148.1882  135.3123  159.7114 C   0  0  0  0  0  0  0  0  0  0  0  0
  147.5954  135.4426  161.1212 C   0  0  1  0  0  0  0  0  0  0  0  0
  148.1253  133.7263  162.2943 H   0  0  0  0  0  0  0  0  0  0  0  0
  148.2737  135.9579  161.8020 H   0  0  0  0  0  0  0  0  0  0  0  0
  145.7325  135.7299  163.4771 H   0  0  0  0  0  0  0  0  0  0  0  0
  144.2664  135.3076  162.5701 H   0  0  0  0  0  0  0  0  0  0  0  0
  146.0375  133.3535  163.2631 H   0  0  0  0  0  0  0  0  0  0  0  0
  145.2586  133.3281  161.7033 H   0  0  0  0  0  0  0  0  0  0  0  0
  147.7821  132.1628  160.5446 H   0  0  0  0  0  0  0  0  0  0  0  0
  146.4741  133.1030  159.8282 H   0  0  0  0  0  0  0  0  0  0  0  0
  150.7587  132.8061  156.0028 H   0  0  0  0  0  0  0  0  0  0  0  0
  144.3266  133.0424  156.2525 H   0  0  0  0  0  0  0  0  0  0  0  0
  146.5302  131.4383  153.8508 H   0  0  0  0  0  0  0  0  0  0  0  0
  144.9469  132.1653  153.9966 H   0  0  0  0  0  0  0  0  0  0  0  0
  146.2025  134.4395  153.5056 H   0  0  0  0  0  0  0  0  0  0  0  0
  148.0692  134.2714  152.4607 H   0  0  0  0  0  0  0  0  0  0  0  0
  146.0473  134.1003  151.0401 H   0  0  0  0  0  0  0  0  0  0  0  0
  146.5125  131.8458  150.4238 H   0  0  0  0  0  0  0  0  0  0  0  0
  145.5523  131.1885  151.7517 H   0  0  0  0  0  0  0  0  0  0  0  0
  144.5117  132.6809  149.3279 H   0  0  0  0  0  0  0  0  0  0  0  0
  143.9649  131.1129  149.9371 H   0  0  0  0  0  0  0  0  0  0  0  0
  142.6145  133.3504  150.6774 H   0  0  0  0  0  0  0  0  0  0  0  0
  142.9849  132.1379  151.9059 H   0  0  0  0  0  0  0  0  0  0  0  0
  149.1468  135.8283  159.6500 H   0  0  0  0  0  0  0  0  0  0  0  0
  147.5359  135.7517  158.9568 H   0  0  0  0  0  0  0  0  0  0  0  0
  1  2  2  0  0  0  0
  2 27  1  0  0  0  0
  2  3  2  0  0  0  0
  2  4  1  0  0  0  0
  4  5  1  0  0  0  0
  4 30  1  0  0  0  0
  4 31  1  0  0  0  0
  5  6  1  0  0  0  0
  5 32  1  0  0  0  0
  5 33  1  0  0  0  0
  6 28  1  0  0  0  0
  6 27  1  0  0  0  0
  6  7  1  0  0  0  0
  7  8  1  0  0  0  0
  7 34  1  0  0  0  0
  7 35  1  0  0  0  0
  8  9  1  0  0  0  0
  8 26  1  0  0  0  0
  9 14  1  0  0  0  0
  9 10  2  0  0  0  0
 10 11  1  0  0  0  0
 11 12  2  0  0  0  0
 11 36  1  0  0  0  0
 12 13  1  0  0  0  0
 13 17  1  0  0  0  0
 13 14  2  0  0  0  0
 14 15  1  0  0  0  0
 15 16  2  0  0  0  0
 16 17  1  0  0  0  0
 16 37  1  0  0  0  0
 17 18  1  0  0  0  0
 18 19  1  0  0  0  0
 18 38  1  0  0  0  0
 18 39  1  0  0  0  0
 19 20  1  0  0  0  0
 19 21  1  0  0  0  0
 19 40  1  0  0  0  0
 20 41  1  0  0  0  0
 21 25  1  0  0  0  0
 21 22  1  0  0  0  0
 21 42  1  0  0  0  0
 22 23  1  0  0  0  0
 22 43  1  0  0  0  0
 22 44  1  0  0  0  0
 23 24  1  0  0  0  0
 23 45  1  0  0  0  0
 23 46  1  0  0  0  0
 24 25  1  0  0  0  0
 24 47  1  0  0  0  0
 24 48  1  0  0  0  0
 26 27  1  0  0  0  0
 26 49  1  0  0  0  0
 26 50  1  0  0  0  0
 27 29  1  0  0  0  0
M  END
> <s_m_source_file>
AV-unprocessed.smi

> <i_m_source_file_index>
278

> <i_lp_mmshare_version>
43012

> <i_f3d_flags>
0

> <s_epik_input>
W0NIMl0xW0NIMl1TKD1PKSg9TylbQ0BASF0oW0NAQEhdMTIpW0NIMl1OKFtDSDJdMiljKG5bY0hdbjMpYyhjMzQpbltjSF1uNFtDSDJdW0NASF0oW09IXSlbQ0BASF01W0NIMl1bQ0gyXVtDSDJdTzU=

> <s_epik_cmdline>
J2VwaWtfcHl0aG9uJywgJy1waCcsICc3LjAnLCAnLXRuJywgJzgnLCAnLW1hJywgJzIwMCcsICctbWV0YWxfYmluZGluZycsICctaW1hZScsICc8aW5maWxlLm1hZT4nLCAnLW9tYWUnLCAnPG91dGZpbGUubWFlPic=

> <r_lp_tautomer_probability>
1

> <r_epik_Ionization_Penalty>
0.000636766

> <r_epik_Ionization_Penalty_Charging>
0

> <r_epik_Ionization_Penalty_Neutral>
0.000636766

> <r_epik_State_Penalty>
0.000329976

> <r_epik_Charging_Adjusted_Penalty>
0.000329976

> <i_epik_Tot_Q>
0

> <i_epik_Tot_abs_Q>
0

> <r_epik_Metal_State_Penalty>
-0

> <b_epik_Metal_Only>
0

> <s_lp_Force_Field>
OPLS_2005

> <r_lp_Energy>
54.1016

> <b_lp_Chiralities_Consistent>
1

> <s_lp_Variant>
AV-unprocessed.smi:278-4

> <Gold.Version>
5.8.1

> <Gold.Id.Protein>
6NUR|6NUR_protein|mol2

> <Gold.PLP.Fitness>
44.3027

> <Gold.PLP.PLP>
-34.4601

> <Gold.PLP.part.hbond>
-3.7868

> <Gold.PLP.part.metal>
0.0000

> <Gold.PLP.part.buried>
-6.5053

> <Gold.PLP.part.nonpolar>
-25.2536

> <Gold.PLP.part.repulsive>
0.1349

> <Gold.PLP.ligand.clash>
0.0000

> <Gold.PLP.ligand.torsion>
0.8953

> <Gold.PLP.Chemscore.Hbond>
2.8960

> <Gold.PLP.Chemscore.CHOScore>
0.9560

> <Gold.PLP.Chemscore.Metal>
0.0000

> <Gold.Chemscore.Hbonds>
donor molecule, donor type, donor heavy atom, donor atom, acceptor molecule, acceptor atom, score
      L1  H    20    41       P1  7948  0.59
      P1  H  6896  6909       L1    10  1.00
      P1  H  6934  6947       L1     3  0.93
      L1  C    16    37       P1 10957  1.00

> <Gold.PLP.Chemscore.Internal.Correction>
0.0771

> <Gold.Rescore>
     Score         DG    S(hbond)    S(metal)    S(lipo)     H(rot)  DE(clash)    DE(int)     intcor
     15.14     -16.26       2.41        0.00      77.19       2.46       0.00       1.12       ----

> <Gold.Chemscore.Fitness>
15.1362

> <Gold.Chemscore.DG>
-16.2608

> <Gold.Chemscore.ZeroCoef>
-5.4800

> <Gold.Chemscore.Hbond>
2.4121

> <Gold.Chemscore.Metal>
0.0000

> <Gold.Chemscore.Lipo>
77.1899

> <Gold.Chemscore.Internal_Hbond>
0.0000

> <Gold.Chemscore.DEClash>
0.0000

> <Gold.Chemscore.DEInternal>
1.1246

> <Gold.Chemscore.Rot>
2.4636

> <Gold.Chemscore.Internal.Correction>
   9.000000E+99

> <Gold.Chemscore.Hbonds>
donor molecule, donor type, donor heavy atom, donor atom, acceptor molecule, acceptor atom, score
      L1  H    20    41       P1  7948  0.13
      P1  H  6896  6909       L1    10  0.24
      P1  H  6934  6947       L1     3  0.91

> <Gold.Chemscore.Hbond.Weighted>
-8.0564

> <Gold.Chemscore.Metal.Weighted>
-0.0000

> <Gold.Chemscore.Lipo.Weighted>
-9.0312

> <Gold.Chemscore.Internal_Hbond.Weighted>
0.0000

> <Gold.Chemscore.DEClash.Weighted>
0.0000

> <Gold.Chemscore.DEInternal.Weighted>
1.1246

> <Gold.Chemscore.Rot.Weighted>
6.3068

> <Gold.Chemscore.Internal.Correction.Weighted>
   9.000000E+99

> <Gold.Protein.RotatedTorsions>
[ 6907 6896 6895 6894 ] final   -3.26 input  -60.11 | X-H torsion
[ 7974 7965 7964 7962 ] final    1.78 input  175.53 | X-H torsion
[ 8008 7997 7996 7995 ] final  124.74 input   59.86 | X-H torsion
[ 10167 10162 10161 10158 ] final  -69.37 input  -65.29 | X-H torsion
[ 10718 10713 10712 10709 ] final   84.05 input   66.30 | X-H torsion
[ 10763 10752 10751 10750 ] final   98.46 input  -60.55 | X-H torsion
[ 11005 11000 10999 10996 ] final  128.30 input  -57.11 | X-H torsion

> <Gold.Protein.ActiveResidues>
 VAL166  LYS551  ARG553  GLY616  TRP617  ASP618  TYR619  PRO620  LYS621  CYS622 
 ASP623  PHE694  ASN695  SER759  ASP760  ASP761  ALA762  ILE779  LEU786  VAL792 
 PHE793  MET794  SER795  GLU796  ALA797  LYS798  CYS799  TRP800  GLU811  SER814 

> <Gold.Protein.RotatedAtoms>
  151.5166  135.1066  159.9867 H   0  0  0  0  0  0  0  0  0  0  0  0  # atno 6907 bound_to 6896
  152.4639  133.7876  159.6895 H   0  0  0  0  0  0  0  0  0  0  0  0  # atno 6908 bound_to 6896
  150.8613  133.7575  159.3017 H   0  0  0  0  0  0  0  0  0  0  0  0  # atno 6909 bound_to 6896
  146.2441  140.0935  142.8351 H   0  0  0  0  0  0  0  0  0  0  0  0  # atno 7974 bound_to 7965
  156.2811  140.2733  156.1836 H   0  0  0  0  0  0  0  0  0  0  0  0  # atno 8008 bound_to 7997
  155.0530  140.0386  157.2568 H   0  0  0  0  0  0  0  0  0  0  0  0  # atno 8009 bound_to 7997
  154.7179  140.2682  155.6574 H   0  0  0  0  0  0  0  0  0  0  0  0  # atno 8010 bound_to 7997
  140.5435  143.2314  151.7044 H   0  0  0  0  0  0  0  0  0  0  0  0  # atno 10167 bound_to 10162
  157.6891  131.0117  150.2615 H   0  0  0  0  0  0  0  0  0  0  0  0  # atno 10718 bound_to 10713
  153.2893  135.4147  155.1152 H   0  0  0  0  0  0  0  0  0  0  0  0  # atno 10763 bound_to 10752
  154.8515  135.3514  154.6003 H   0  0  0  0  0  0  0  0  0  0  0  0  # atno 10764 bound_to 10752
  153.6425  135.7056  153.5294 H   0  0  0  0  0  0  0  0  0  0  0  0  # atno 10765 bound_to 10752
  139.9553  134.9614  156.8981 H   0  0  0  0  0  0  0  0  0  0  0  0  # atno 11005 bound_to 11000
  145.0630  140.9101  143.4927 LP  0  0  0  0  0  0  0  0  0  0  0  0  # atno 17320 bound_to 7965
  145.1054  139.2793  143.5665 LP  0  0  0  0  0  0  0  0  0  0  0  0  # atno 17321 bound_to 7965
  139.4998  144.3931  152.0259 LP  0  0  0  0  0  0  0  0  0  0  0  0  # atno 17342 bound_to 10162
  140.3042  144.3612  150.6052 LP  0  0  0  0  0  0  0  0  0  0  0  0  # atno 17343 bound_to 10162
  156.3194  130.3783  149.7589 LP  0  0  0  0  0  0  0  0  0  0  0  0  # atno 17370 bound_to 10713
  156.5164  130.8195  151.3188 LP  0  0  0  0  0  0  0  0  0  0  0  0  # atno 17371 bound_to 10713
  140.5623  134.0523  155.7403 LP  0  0  0  0  0  0  0  0  0  0  0  0  # atno 17394 bound_to 11000
  141.1223  133.9440  157.2704 LP  0  0  0  0  0  0  0  0  0  0  0  0  # atno 17395 bound_to 11000

$$$$
