AV-unprocessed.smi:2089|AV-procd|sdf|8531|dock4
  -GOLD-   2272011253D 1   1.00000     0.00000
 Structure written by MMmdl.
 40 41  0  0  0  0  0  0  0  0  2 V2000
  147.1573  142.1840  157.4522 C   0  0  0  0  0  0  0  0  0  0  0  0
  146.9780  140.3798  157.1430 S   0  0  0  0  0  0  0  0  0  0  0  0
  147.7390  139.6353  158.1578 O   0  0  0  0  0  0  0  0  0  0  0  0
  145.5500  140.0908  156.9402 O   0  0  0  0  0  0  0  0  0  0  0  0
  147.7820  140.1716  155.6225 N   0  0  0  0  0  0  0  0  0  0  0  0
  147.0708  139.4656  154.5475 C   0  0  0  0  0  0  0  0  0  0  0  0
  147.0957  140.4085  153.3485 C   0  0  0  0  0  0  0  0  0  0  0  0
  148.4026  141.1638  153.5332 C   0  0  0  0  0  0  0  0  0  0  0  0
  148.5135  141.3194  155.0585 C   0  0  2  0  0  0  0  0  0  0  0  0
  149.9644  141.4199  155.5447 C   0  0  0  0  0  0  0  0  0  0  0  0
  150.7757  140.5340  155.2739 O   0  0  0  0  0  0  0  0  0  0  0  0
  150.2739  142.4925  156.2871 N   0  0  0  0  0  0  0  0  0  0  0  0
  151.5821  142.7280  156.8804 C   0  0  0  0  0  0  0  0  0  0  0  0
  151.5769  144.0156  157.7152 C   0  0  0  0  0  0  0  0  0  0  0  0
  151.9904  143.7659  159.1528 C   0  0  0  0  0  0  0  0  0  0  0  0
  151.7825  144.7204  160.1723 C   0  0  0  0  0  0  0  0  0  0  0  0
  152.2006  144.4259  161.4870 C   0  0  0  0  0  0  0  0  0  0  0  0
  152.8185  143.1867  161.7539 C   0  0  0  0  0  0  0  0  0  0  0  0
  153.0031  142.2713  160.6978 C   0  0  0  0  0  0  0  0  0  0  0  0
  152.5884  142.5898  159.4519 N   0  3  0  0  0  0  0  0  0  0  0  0
  146.6611  142.4420  158.3875 H   0  0  0  0  0  0  0  0  0  0  0  0
  146.6986  142.7398  156.6348 H   0  0  0  0  0  0  0  0  0  0  0  0
  148.2128  142.4449  157.5212 H   0  0  0  0  0  0  0  0  0  0  0  0
  147.6056  138.5419  154.3239 H   0  0  0  0  0  0  0  0  0  0  0  0
  146.0522  139.2056  154.8369 H   0  0  0  0  0  0  0  0  0  0  0  0
  147.0394  139.8835  152.3947 H   0  0  0  0  0  0  0  0  0  0  0  0
  146.2550  141.1016  153.4036 H   0  0  0  0  0  0  0  0  0  0  0  0
  149.2253  140.5735  153.1262 H   0  0  0  0  0  0  0  0  0  0  0  0
  148.3955  142.1246  153.0177 H   0  0  0  0  0  0  0  0  0  0  0  0
  147.9739  142.2256  155.3410 H   0  0  0  0  0  0  0  0  0  0  0  0
  149.5489  143.1702  156.4744 H   0  0  0  0  0  0  0  0  0  0  0  0
  151.8474  141.8748  157.5066 H   0  0  0  0  0  0  0  0  0  0  0  0
  152.3330  142.7966  156.0915 H   0  0  0  0  0  0  0  0  0  0  0  0
  152.2499  144.7511  157.2720 H   0  0  0  0  0  0  0  0  0  0  0  0
  150.5821  144.4638  157.7077 H   0  0  0  0  0  0  0  0  0  0  0  0
  151.3111  145.6674  159.9523 H   0  0  0  0  0  0  0  0  0  0  0  0
  152.0500  145.1425  162.2811 H   0  0  0  0  0  0  0  0  0  0  0  0
  153.1469  142.9426  162.7538 H   0  0  0  0  0  0  0  0  0  0  0  0
  153.4668  141.3020  160.8111 H   0  0  0  0  0  0  0  0  0  0  0  0
  152.7332  141.9127  158.7021 H   0  0  0  0  0  0  0  0  0  0  0  0
  1  2  1  0  0  0  0
  1 21  1  0  0  0  0
  1 22  1  0  0  0  0
  1 23  1  0  0  0  0
  2  3  2  0  0  0  0
  2  4  2  0  0  0  0
  2  5  1  0  0  0  0
  5  9  1  0  0  0  0
  5  6  1  0  0  0  0
  6  7  1  0  0  0  0
  6 24  1  0  0  0  0
  6 25  1  0  0  0  0
  7  8  1  0  0  0  0
  7 26  1  0  0  0  0
  7 27  1  0  0  0  0
  8  9  1  0  0  0  0
  8 28  1  0  0  0  0
  8 29  1  0  0  0  0
  9 10  1  0  0  0  0
  9 30  1  0  0  0  0
 10 11  2  0  0  0  0
 10 12  1  0  0  0  0
 12 13  1  0  0  0  0
 12 31  1  0  0  0  0
 13 14  1  0  0  0  0
 13 32  1  0  0  0  0
 13 33  1  0  0  0  0
 14 15  1  0  0  0  0
 14 34  1  0  0  0  0
 14 35  1  0  0  0  0
 15 20  1  0  0  0  0
 15 16  2  0  0  0  0
 16 17  1  0  0  0  0
 16 36  1  0  0  0  0
 17 18  2  0  0  0  0
 17 37  1  0  0  0  0
 18 19  1  0  0  0  0
 18 38  1  0  0  0  0
 19 20  2  0  0  0  0
 19 39  1  0  0  0  0
 20 40  1  0  0  0  0
M  CHG  1  20   1
M  END
> <s_m_source_file>
AV-unprocessed.smi

> <i_m_source_file_index>
2089

> <i_lp_mmshare_version>
43012

> <i_f3d_flags>
0

> <s_epik_input>
W0NIM11TKD1PKSg9TylOMVtDSDJdW0NIMl1bQ0gyXVtDQEhdMUMoPU8pW05IXVtDSDJdW0NIMl1jMltjSF1bY0hdW2NIXVtjSF1uMg==

> <s_epik_cmdline>
J2VwaWtfcHl0aG9uJywgJy1waCcsICc3LjAnLCAnLXRuJywgJzgnLCAnLW1hJywgJzIwMCcsICctbWV0YWxfYmluZGluZycsICctaW1hZScsICc8aW5maWxlLm1hZT4nLCAnLW9tYWUnLCAnPG91dGZpbGUubWFlPic=

> <r_epik_Ionization_Penalty>
1.90116

> <r_epik_Ionization_Penalty_Charging>
1.90116

> <r_epik_Ionization_Penalty_Neutral>
1.4017e-07

> <r_epik_State_Penalty>
2.02245

> <r_epik_Charging_Adjusted_Penalty>
3.9236

> <i_epik_Tot_Q>
1

> <i_epik_Tot_abs_Q>
1

> <r_epik_Metal_State_Penalty>
2.04621

> <b_epik_Metal_Only>
0

> <s_lp_Force_Field>
OPLS_2005

> <r_lp_Energy>
13.4041

> <b_lp_Chiralities_Consistent>
1

> <s_lp_Variant>
AV-unprocessed.smi:2089-4

> <Gold.Version>
5.8.1

> <Gold.Id.Protein>
6NUR|6NUR_protein|mol2

> <Gold.PLP.Fitness>
43.5652

> <Gold.PLP.PLP>
-39.6055

> <Gold.PLP.part.hbond>
-3.0000

> <Gold.PLP.part.metal>
0.0000

> <Gold.PLP.part.buried>
-3.4538

> <Gold.PLP.part.nonpolar>
-32.6693

> <Gold.PLP.part.repulsive>
0.2355

> <Gold.PLP.ligand.clash>
0.0000

> <Gold.PLP.ligand.torsion>
0.8208

> <Gold.PLP.Chemscore.Hbond>
1.7040

> <Gold.PLP.Chemscore.CHOScore>
0.0000

> <Gold.PLP.Chemscore.Metal>
0.0000

> <Gold.Chemscore.Hbonds>
donor molecule, donor type, donor heavy atom, donor atom, acceptor molecule, acceptor atom, score
      L1  H    12    31       P1  8028  0.74
      P1  H  7989  7998       L1    11  0.98

> <Gold.PLP.Chemscore.Internal.Correction>
0.4894

> <Gold.Rescore>
     Score         DG    S(hbond)    S(metal)    S(lipo)     H(rot)  DE(clash)    DE(int)     intcor
     16.04     -18.04       1.46        0.00     109.66       2.00       1.16       0.85       ----

> <Gold.Chemscore.Fitness>
16.0370

> <Gold.Chemscore.DG>
-18.0439

> <Gold.Chemscore.ZeroCoef>
-5.4800

> <Gold.Chemscore.Hbond>
1.4563

> <Gold.Chemscore.Metal>
0.0000

> <Gold.Chemscore.Lipo>
109.6639

> <Gold.Chemscore.Internal_Hbond>
0.0000

> <Gold.Chemscore.DEClash>
1.1608

> <Gold.Chemscore.DEInternal>
0.8461

> <Gold.Chemscore.Rot>
2.0043

> <Gold.Chemscore.Internal.Correction>
   9.000000E+99

> <Gold.Chemscore.Hbonds>
donor molecule, donor type, donor heavy atom, donor atom, acceptor molecule, acceptor atom, score
      L1  H    12    31       P1  8028  0.74
      P1  H  7989  7998       L1    11  0.67

> <Gold.Chemscore.Hbond.Weighted>
-4.8642

> <Gold.Chemscore.Metal.Weighted>
-0.0000

> <Gold.Chemscore.Lipo.Weighted>
-12.8307

> <Gold.Chemscore.Internal_Hbond.Weighted>
0.0000

> <Gold.Chemscore.DEClash.Weighted>
1.1608

> <Gold.Chemscore.DEInternal.Weighted>
0.8461

> <Gold.Chemscore.Rot.Weighted>
5.1309

> <Gold.Chemscore.Internal.Correction.Weighted>
   9.000000E+99

> <Gold.Protein.RotatedTorsions>
[ 6907 6896 6895 6894 ] final  -56.46 input  -60.11 | X-H torsion
[ 7974 7965 7964 7962 ] final   84.29 input  175.53 | X-H torsion
[ 8008 7997 7996 7995 ] final   51.57 input   59.86 | X-H torsion
[ 10167 10162 10161 10158 ] final   -9.15 input  -65.29 | X-H torsion
[ 10718 10713 10712 10709 ] final -103.22 input   66.30 | X-H torsion
[ 10763 10752 10751 10750 ] final  125.73 input  -60.55 | X-H torsion
[ 11005 11000 10999 10996 ] final -131.36 input  -57.11 | X-H torsion

> <Gold.Protein.ActiveResidues>
 VAL166  LYS551  ARG553  GLY616  TRP617  ASP618  TYR619  PRO620  LYS621  CYS622 
 ASP623  PHE694  ASN695  SER759  ASP760  ASP761  ALA762  ILE779  LEU786  VAL792 
 PHE793  MET794  SER795  GLU796  ALA797  LYS798  CYS799  TRP800  GLU811  SER814 

> <Gold.Protein.RotatedAtoms>
  150.8165  134.7350  159.6734 H   0  0  0  0  0  0  0  0  0  0  0  0  # atno 6907 bound_to 6896
  152.4284  134.5822  159.9960 H   0  0  0  0  0  0  0  0  0  0  0  0  # atno 6908 bound_to 6896
  151.6017  133.3318  159.3085 H   0  0  0  0  0  0  0  0  0  0  0  0  # atno 6909 bound_to 6896
  145.6007  139.2352  143.2247 H   0  0  0  0  0  0  0  0  0  0  0  0  # atno 7974 bound_to 7965
  155.4375  140.3453  155.4286 H   0  0  0  0  0  0  0  0  0  0  0  0  # atno 8008 bound_to 7997
  156.1299  140.1511  156.9111 H   0  0  0  0  0  0  0  0  0  0  0  0  # atno 8009 bound_to 7997
  154.4887  140.0847  156.7524 H   0  0  0  0  0  0  0  0  0  0  0  0  # atno 8010 bound_to 7997
  140.7079  143.5890  150.8913 H   0  0  0  0  0  0  0  0  0  0  0  0  # atno 10167 bound_to 10162
  156.0257  130.5457  150.7222 H   0  0  0  0  0  0  0  0  0  0  0  0  # atno 10718 bound_to 10713
  153.6820  135.3313  155.3180 H   0  0  0  0  0  0  0  0  0  0  0  0  # atno 10763 bound_to 10752
  154.8463  135.4411  154.1597 H   0  0  0  0  0  0  0  0  0  0  0  0  # atno 10764 bound_to 10752
  153.2615  135.6991  153.7650 H   0  0  0  0  0  0  0  0  0  0  0  0  # atno 10765 bound_to 10752
  140.9265  134.1375  157.4270 H   0  0  0  0  0  0  0  0  0  0  0  0  # atno 11005 bound_to 11000
  146.1578  140.6832  142.9292 LP  0  0  0  0  0  0  0  0  0  0  0  0  # atno 17320 bound_to 7965
  144.7311  140.4674  143.6937 LP  0  0  0  0  0  0  0  0  0  0  0  0  # atno 17321 bound_to 7965
  139.9615  143.6158  152.3001 LP  0  0  0  0  0  0  0  0  0  0  0  0  # atno 17342 bound_to 10162
  139.6712  144.7660  151.1779 LP  0  0  0  0  0  0  0  0  0  0  0  0  # atno 17343 bound_to 10162
  157.4835  131.0904  151.0509 LP  0  0  0  0  0  0  0  0  0  0  0  0  # atno 17370 bound_to 10713
  157.0936  130.5952  149.5445 LP  0  0  0  0  0  0  0  0  0  0  0  0  # atno 17371 bound_to 10713
  139.8787  134.9990  156.5931 LP  0  0  0  0  0  0  0  0  0  0  0  0  # atno 17394 bound_to 11000
  140.7919  133.8576  155.8653 LP  0  0  0  0  0  0  0  0  0  0  0  0  # atno 17395 bound_to 11000

$$$$
