AV-unprocessed.smi:50|AV-procd|sdf|495|dock2
  -GOLD-   2262016363D 1   1.00000     0.00000
 Structure written by MMmdl.
 43 44  0  0  0  0  0  0  0  0  3 V2000
  152.2147  142.9687  159.8596 C   0  0  0  0  0  0  0  0  0  0  0  0
  152.4664  143.4267  158.4104 C   0  0  0  0  0  0  0  0  0  0  0  0
  152.6375  144.9582  158.3858 C   0  0  0  0  0  0  0  0  0  0  0  0
  151.3577  142.9072  157.4534 C   0  0  2  0  0  0  0  0  0  0  0  0
  150.0385  143.4563  157.8230 N   0  3  0  0  0  0  0  0  0  0  0  0
  151.2126  141.3734  157.4333 C   0  0  0  0  0  0  0  0  0  0  0  0
  151.8518  140.6009  158.1506 O   0  0  0  0  0  0  0  0  0  0  0  0
  150.2959  141.0036  156.5190 O   0  0  0  0  0  0  0  0  0  0  0  0
  149.9893  139.6320  156.3043 C   0  0  0  0  0  0  0  0  0  0  0  0
  148.5860  139.3161  156.8352 C   0  0  0  0  0  0  0  0  0  0  0  0
  148.4626  137.9174  157.0570 O   0  0  0  0  0  0  0  0  0  0  0  0
  148.4799  137.1362  155.9049 C   0  0  0  0  0  0  0  0  0  0  0  0
  148.9902  135.8219  156.2551 N   0  0  0  0  0  0  0  0  0  0  0  0
  149.5538  135.4701  157.4272 C   0  0  0  0  0  0  0  0  0  0  0  0
  149.9224  134.1939  157.5253 N   0  0  0  0  0  0  0  0  0  0  0  0
  149.5636  133.6923  156.2804 C   0  0  0  0  0  0  0  0  0  0  0  0
  149.6425  132.3251  155.7125 C   0  0  0  0  0  0  0  0  0  0  0  0
  150.1315  131.4242  156.3908 O   0  0  0  0  0  0  0  0  0  0  0  0
  149.1183  132.1794  154.4589 N   0  5  0  0  0  0  0  0  0  0  0  0
  148.5922  133.2846  153.7761 C   0  0  0  0  0  0  0  0  0  0  0  0
  148.1375  132.9676  152.5150 N   0  0  0  0  0  0  0  0  0  0  0  0
  148.5021  134.5174  154.2107 N   0  0  0  0  0  0  0  0  0  0  0  0
  148.9981  134.6584  155.4929 C   0  0  0  0  0  0  0  0  0  0  0  0
  151.5780  143.2494  156.4413 H   0  0  0  0  0  0  0  0  0  0  0  0
  151.2577  143.3395  160.2286 H   0  0  0  0  0  0  0  0  0  0  0  0
  152.9921  143.3375  160.5297 H   0  0  0  0  0  0  0  0  0  0  0  0
  152.2081  141.8824  159.9499 H   0  0  0  0  0  0  0  0  0  0  0  0
  153.4171  142.9933  158.0953 H   0  0  0  0  0  0  0  0  0  0  0  0
  151.6961  145.4641  158.6039 H   0  0  0  0  0  0  0  0  0  0  0  0
  152.9954  145.3132  157.4195 H   0  0  0  0  0  0  0  0  0  0  0  0
  153.3675  145.2848  159.1274 H   0  0  0  0  0  0  0  0  0  0  0  0
  149.6440  143.9373  157.0265 H   0  0  0  0  0  0  0  0  0  0  0  0
  150.1463  144.1085  158.5865 H   0  0  0  0  0  0  0  0  0  0  0  0
  150.0045  139.4694  155.2266 H   0  0  0  0  0  0  0  0  0  0  0  0
  150.7387  138.9627  156.7293 H   0  0  0  0  0  0  0  0  0  0  0  0
  148.3875  139.9179  157.7215 H   0  0  0  0  0  0  0  0  0  0  0  0
  147.8360  139.5986  156.0962 H   0  0  0  0  0  0  0  0  0  0  0  0
  147.5029  137.0469  155.4263 H   0  0  0  0  0  0  0  0  0  0  0  0
  149.1706  137.5895  155.1933 H   0  0  0  0  0  0  0  0  0  0  0  0
  149.6855  136.1699  158.2393 H   0  0  0  0  0  0  0  0  0  0  0  0
  148.1788  132.0380  152.1239 H   0  0  0  0  0  0  0  0  0  0  0  0
  147.7007  133.6395  151.9010 H   0  0  0  0  0  0  0  0  0  0  0  0
  149.4238  142.7041  158.0981 H   0  0  0  0  0  0  0  0  0  0  0  0
  1  2  1  0  0  0  0
  1 25  1  0  0  0  0
  1 26  1  0  0  0  0
  1 27  1  0  0  0  0
  2  3  1  0  0  0  0
  2  4  1  0  0  0  0
  2 28  1  0  0  0  0
  3 29  1  0  0  0  0
  3 30  1  0  0  0  0
  3 31  1  0  0  0  0
  4 24  1  0  0  0  0
  4  5  1  0  0  0  0
  4  6  1  0  0  0  0
  5 32  1  0  0  0  0
  5 33  1  0  0  0  0
  5 43  1  0  0  0  0
  6  7  2  0  0  0  0
  6  8  1  0  0  0  0
  8  9  1  0  0  0  0
  9 10  1  0  0  0  0
  9 34  1  0  0  0  0
  9 35  1  0  0  0  0
 10 11  1  0  0  0  0
 10 36  1  0  0  0  0
 10 37  1  0  0  0  0
 11 12  1  0  0  0  0
 12 13  1  0  0  0  0
 12 38  1  0  0  0  0
 12 39  1  0  0  0  0
 13 23  1  0  0  0  0
 13 14  1  0  0  0  0
 14 15  2  0  0  0  0
 14 40  1  0  0  0  0
 15 16  1  0  0  0  0
 16 23  2  0  0  0  0
 16 17  1  0  0  0  0
 17 18  2  0  0  0  0
 17 19  1  0  0  0  0
 19 20  1  0  0  0  0
 20 21  1  0  0  0  0
 20 22  2  0  0  0  0
 21 41  1  0  0  0  0
 21 42  1  0  0  0  0
 22 23  1  0  0  0  0
M  CHG  1   5   1
M  CHG  1  19  -1
M  END
> <s_m_source_file>
AV-unprocessed.smi

> <i_m_source_file_index>
50

> <i_lp_mmshare_version>
43012

> <i_f3d_flags>
0

> <s_epik_input>
W0NIM11bQ0hdKFtDSDNdKVtDQEhdKFtOSDJdKUMoPU8pT1tDSDJdW0NIMl1PW0NIMl1uKFtjSF1uMSljKGMxMiluYyhbTkgyXSlbbkhdYzI9Tw==

> <s_epik_cmdline>
J2VwaWtfcHl0aG9uJywgJy1waCcsICc3LjAnLCAnLXRuJywgJzgnLCAnLW1hJywgJzIwMCcsICctbWV0YWxfYmluZGluZycsICctaW1hZScsICc8aW5maWxlLm1hZT4nLCAnLW9tYWUnLCAnPG91dGZpbGUubWFlPic=

> <r_lp_tautomer_probability>
0.99994

> <r_epik_Ionization_Penalty>
3.77459

> <r_epik_Ionization_Penalty_Charging>
0.215994

> <r_epik_Ionization_Penalty_Neutral>
3.5586

> <r_epik_State_Penalty>
3.75449

> <r_epik_Charging_Adjusted_Penalty>
3.97048

> <i_epik_Tot_Q>
0

> <i_epik_Tot_abs_Q>
2

> <r_epik_Metal_State_Penalty>
0.723824

> <b_epik_Metal_Only>
1

> <s_epik_Chemistry_Notes>
This compound has an ester and may undergo hydrolysis at high or low pH. This compound contains an acetal/aminal-like group ( X-CH(R)-Y where X, Y are N, S, or O) that may be acid/base labile, releasing an aldehyde.

> <s_lp_Force_Field>
OPLS_2005

> <r_lp_Energy>
6.41072

> <b_lp_Chiralities_Consistent>
1

> <s_lp_Variant>
AV-unprocessed.smi:50-5

> <Gold.Version>
5.8.1

> <Gold.Id.Protein>
6NUR|6NUR_protein|mol2

> <Gold.PLP.Fitness>
41.3009

> <Gold.PLP.PLP>
-31.1316

> <Gold.PLP.part.hbond>
-3.3195

> <Gold.PLP.part.metal>
0.0000

> <Gold.PLP.part.buried>
-5.3767

> <Gold.PLP.part.nonpolar>
-24.5795

> <Gold.PLP.part.repulsive>
2.6616

> <Gold.PLP.ligand.clash>
0.0000

> <Gold.PLP.ligand.torsion>
0.7413

> <Gold.PLP.Chemscore.Hbond>
3.7750

> <Gold.PLP.Chemscore.CHOScore>
0.0000

> <Gold.PLP.Chemscore.Metal>
0.0000

> <Gold.Chemscore.Hbonds>
donor molecule, donor type, donor heavy atom, donor atom, acceptor molecule, acceptor atom, score
      L1  H     5    32       P1  8028  2.00
      L1  H    21    41       P1 10747  0.22
      P1  H  6896  6907       L1    15  0.93

> <Gold.PLP.Chemscore.Internal.Correction>
0.3268

> <Gold.Rescore>
     Score         DG    S(hbond)    S(metal)    S(lipo)     H(rot)  DE(clash)    DE(int)     intcor
      6.20      -8.08       2.47        0.00      57.53       4.83       1.04       0.84       ----

> <Gold.Chemscore.Fitness>
6.1998

> <Gold.Chemscore.DG>
-8.0825

> <Gold.Chemscore.ZeroCoef>
-5.4800

> <Gold.Chemscore.Hbond>
2.4668

> <Gold.Chemscore.Metal>
0.0000

> <Gold.Chemscore.Lipo>
57.5323

> <Gold.Chemscore.Internal_Hbond>
0.0000

> <Gold.Chemscore.DEClash>
1.0381

> <Gold.Chemscore.DEInternal>
0.8447

> <Gold.Chemscore.Rot>
4.8312

> <Gold.Chemscore.Internal.Correction>
   9.000000E+99

> <Gold.Chemscore.Hbonds>
donor molecule, donor type, donor heavy atom, donor atom, acceptor molecule, acceptor atom, score
      L1  H     5    32       P1  8028  0.82
      L1  H    21    41       P1 10747  0.22
      P1  H  6896  6907       L1    15  0.70

> <Gold.Chemscore.Hbond.Weighted>
-8.2391

> <Gold.Chemscore.Metal.Weighted>
-0.0000

> <Gold.Chemscore.Lipo.Weighted>
-6.7313

> <Gold.Chemscore.Internal_Hbond.Weighted>
0.0000

> <Gold.Chemscore.DEClash.Weighted>
1.0381

> <Gold.Chemscore.DEInternal.Weighted>
0.8447

> <Gold.Chemscore.Rot.Weighted>
12.3678

> <Gold.Chemscore.Internal.Correction.Weighted>
   9.000000E+99

> <Gold.Protein.RotatedTorsions>
[ 6907 6896 6895 6894 ] final -118.18 input  -60.11 | X-H torsion
[ 7974 7965 7964 7962 ] final  -99.44 input  175.53 | X-H torsion
[ 8008 7997 7996 7995 ] final  111.43 input   59.86 | X-H torsion
[ 10167 10162 10161 10158 ] final  -47.94 input  -65.29 | X-H torsion
[ 10718 10713 10712 10709 ] final   61.90 input   66.30 | X-H torsion
[ 10763 10752 10751 10750 ] final   85.44 input  -60.55 | X-H torsion
[ 11005 11000 10999 10996 ] final  -30.83 input  -57.11 | X-H torsion

> <Gold.Protein.ActiveResidues>
 VAL166  LYS551  ARG553  GLY616  TRP617  ASP618  TYR619  PRO620  LYS621  CYS622 
 ASP623  PHE694  ASN695  SER759  ASP760  ASP761  ALA762  ILE779  LEU786  VAL792 
 PHE793  MET794  SER795  GLU796  ALA797  LYS798  CYS799  TRP800  GLU811  SER814 

> <Gold.Protein.RotatedAtoms>
  150.8198  133.8273  159.3143 H   0  0  0  0  0  0  0  0  0  0  0  0  # atno 6907 bound_to 6896
  151.6034  135.1044  160.0075 H   0  0  0  0  0  0  0  0  0  0  0  0  # atno 6908 bound_to 6896
  152.4287  133.7200  159.6584 H   0  0  0  0  0  0  0  0  0  0  0  0  # atno 6909 bound_to 6896
  145.3076  140.9392  143.2788 H   0  0  0  0  0  0  0  0  0  0  0  0  # atno 7974 bound_to 7965
  156.2123  140.3019  155.9760 H   0  0  0  0  0  0  0  0  0  0  0  0  # atno 8008 bound_to 7997
  155.2693  140.0433  157.3022 H   0  0  0  0  0  0  0  0  0  0  0  0  # atno 8009 bound_to 7997
  154.5717  140.2350  155.8190 H   0  0  0  0  0  0  0  0  0  0  0  0  # atno 8010 bound_to 7997
  140.6753  143.2762  151.3999 H   0  0  0  0  0  0  0  0  0  0  0  0  # atno 10167 bound_to 10162
  157.5862  130.9020  149.9520 H   0  0  0  0  0  0  0  0  0  0  0  0  # atno 10718 bound_to 10713
  153.1475  135.4617  154.9588 H   0  0  0  0  0  0  0  0  0  0  0  0  # atno 10763 bound_to 10752
  154.7798  135.3185  154.8016 H   0  0  0  0  0  0  0  0  0  0  0  0  # atno 10764 bound_to 10752
  153.8528  135.6920  153.4845 H   0  0  0  0  0  0  0  0  0  0  0  0  # atno 10765 bound_to 10752
  140.9416  133.7275  156.1085 H   0  0  0  0  0  0  0  0  0  0  0  0  # atno 11005 bound_to 11000
  144.9042  139.4610  143.6618 LP  0  0  0  0  0  0  0  0  0  0  0  0  # atno 17320 bound_to 7965
  146.3130  139.7814  142.9005 LP  0  0  0  0  0  0  0  0  0  0  0  0  # atno 17321 bound_to 7965
  139.6042  144.1232  152.2231 LP  0  0  0  0  0  0  0  0  0  0  0  0  # atno 17342 bound_to 10162
  140.0625  144.5845  150.7252 LP  0  0  0  0  0  0  0  0  0  0  0  0  # atno 17343 bound_to 10162
  156.0911  130.3663  150.0393 LP  0  0  0  0  0  0  0  0  0  0  0  0  # atno 17370 bound_to 10713
  156.8524  130.9463  151.3624 LP  0  0  0  0  0  0  0  0  0  0  0  0  # atno 17371 bound_to 10713
  140.7725  134.3816  157.5504 LP  0  0  0  0  0  0  0  0  0  0  0  0  # atno 17394 bound_to 11000
  139.8822  134.9031  156.2848 LP  0  0  0  0  0  0  0  0  0  0  0  0  # atno 17395 bound_to 11000

$$$$
