AV-unprocessed.smi:1840|AV-procd|sdf|7493|dock1
  -GOLD-   22720 9193D 1   1.00000     0.00000
 Structure written by MMmdl.
 43 44  0  0  0  0  0  0  0  0  1 V2000
  148.1118  139.3091  157.3573 C   0  0  0  0  0  0  0  0  0  0  0  0
  149.5852  139.5540  157.0041 C   0  0  1  0  0  0  0  0  0  0  0  0
  149.7738  139.7661  155.4873 C   0  0  0  0  0  0  0  0  0  0  0  0
  148.5907  140.3153  154.8470 N   0  0  0  0  0  0  0  0  0  0  0  0
  148.3631  141.6119  154.4358 C   0  0  0  0  0  0  0  0  0  0  0  0
  147.1069  141.6546  153.9025 C   0  0  0  0  0  0  0  0  0  0  0  0
  146.6413  140.3161  154.0275 C   0  0  0  0  0  0  0  0  0  0  0  0
  147.5322  139.5162  154.5908 N   0  0  0  0  0  0  0  0  0  0  0  0
  150.0690  140.7129  157.7538 N   0  0  0  0  0  0  0  0  0  0  0  0
  151.3563  141.0421  157.9352 C   0  0  0  0  0  0  0  0  0  0  0  0
  152.3049  140.3820  157.5107 O   0  0  0  0  0  0  0  0  0  0  0  0
  151.4814  142.1890  158.6183 N   0  0  0  0  0  0  0  0  0  0  0  0
  152.7419  142.8461  158.9707 C   0  0  2  0  0  0  0  0  0  0  0  0
  153.5754  141.9251  159.8851 C   0  0  0  0  0  0  0  0  0  0  0  0
  152.9688  141.7948  161.2930 C   0  0  0  0  0  0  0  0  0  0  0  0
  152.7583  143.1729  161.9374 C   0  0  0  0  0  0  0  0  0  0  0  0
  151.9011  144.0823  161.0431 C   0  0  0  0  0  0  0  0  0  0  0  0
  152.5104  144.2293  159.6335 C   0  0  2  0  0  0  0  0  0  0  0  0
  151.6833  145.1901  158.7624 C   0  0  0  0  0  0  0  0  0  0  0  0
  147.7225  138.4362  156.8327 H   0  0  0  0  0  0  0  0  0  0  0  0
  147.4908  140.1639  157.0871 H   0  0  0  0  0  0  0  0  0  0  0  0
  147.9882  139.1314  158.4263 H   0  0  0  0  0  0  0  0  0  0  0  0
  150.1382  138.6607  157.3004 H   0  0  0  0  0  0  0  0  0  0  0  0
  150.5984  140.4570  155.3073 H   0  0  0  0  0  0  0  0  0  0  0  0
  150.0442  138.8274  155.0001 H   0  0  0  0  0  0  0  0  0  0  0  0
  149.1031  142.3881  154.5630 H   0  0  0  0  0  0  0  0  0  0  0  0
  146.5977  142.5119  153.4883 H   0  0  0  0  0  0  0  0  0  0  0  0
  145.6877  139.9053  153.7308 H   0  0  0  0  0  0  0  0  0  0  0  0
  149.3663  141.3270  158.1387 H   0  0  0  0  0  0  0  0  0  0  0  0
  150.6358  142.6563  158.9105 H   0  0  0  0  0  0  0  0  0  0  0  0
  153.3255  143.0027  158.0617 H   0  0  0  0  0  0  0  0  0  0  0  0
  153.6831  140.9388  159.4322 H   0  0  0  0  0  0  0  0  0  0  0  0
  154.5855  142.3281  159.9714 H   0  0  0  0  0  0  0  0  0  0  0  0
  152.0160  141.2672  161.2380 H   0  0  0  0  0  0  0  0  0  0  0  0
  153.6202  141.1876  161.9218 H   0  0  0  0  0  0  0  0  0  0  0  0
  152.2849  143.0585  162.9129 H   0  0  0  0  0  0  0  0  0  0  0  0
  153.7255  143.6442  162.1168 H   0  0  0  0  0  0  0  0  0  0  0  0
  150.8907  143.6774  160.9724 H   0  0  0  0  0  0  0  0  0  0  0  0
  151.8049  145.0630  161.5100 H   0  0  0  0  0  0  0  0  0  0  0  0
  153.4923  144.6895  159.7552 H   0  0  0  0  0  0  0  0  0  0  0  0
  150.6539  144.8482  158.6568 H   0  0  0  0  0  0  0  0  0  0  0  0
  152.1097  145.2817  157.7631 H   0  0  0  0  0  0  0  0  0  0  0  0
  151.6527  146.1875  159.2011 H   0  0  0  0  0  0  0  0  0  0  0  0
  1  2  1  0  0  0  0
  1 20  1  0  0  0  0
  1 21  1  0  0  0  0
  1 22  1  0  0  0  0
  2  3  1  0  0  0  0
  2  9  1  0  0  0  0
  2 23  1  0  0  0  0
  3  4  1  0  0  0  0
  3 24  1  0  0  0  0
  3 25  1  0  0  0  0
  4  8  1  0  0  0  0
  4  5  1  0  0  0  0
  5  6  2  0  0  0  0
  5 26  1  0  0  0  0
  6  7  1  0  0  0  0
  6 27  1  0  0  0  0
  7  8  2  0  0  0  0
  7 28  1  0  0  0  0
  9 10  1  0  0  0  0
  9 29  1  0  0  0  0
 10 11  2  0  0  0  0
 10 12  1  0  0  0  0
 12 13  1  0  0  0  0
 12 30  1  0  0  0  0
 13 18  1  0  0  0  0
 13 14  1  0  0  0  0
 13 31  1  0  0  0  0
 14 15  1  0  0  0  0
 14 32  1  0  0  0  0
 14 33  1  0  0  0  0
 15 16  1  0  0  0  0
 15 34  1  0  0  0  0
 15 35  1  0  0  0  0
 16 17  1  0  0  0  0
 16 36  1  0  0  0  0
 16 37  1  0  0  0  0
 17 18  1  0  0  0  0
 17 38  1  0  0  0  0
 17 39  1  0  0  0  0
 18 19  1  0  0  0  0
 18 40  1  0  0  0  0
 19 41  1  0  0  0  0
 19 42  1  0  0  0  0
 19 43  1  0  0  0  0
M  END
> <s_m_source_file>
AV-unprocessed.smi

> <i_m_source_file_index>
1840

> <i_lp_mmshare_version>
43012

> <i_f3d_flags>
0

> <s_epik_input>
bjFbY0hdW2NIXVtjSF1uMVtDSDJdW0NAQEhdKFtDSDNdKVtOSF1DKD1PKVtOSF1bQ0BASF0yW0NIMl1bQ0gyXVtDSDJdW0NIMl1bQ0BIXTJbQ0gzXQ==

> <s_epik_cmdline>
J2VwaWtfcHl0aG9uJywgJy1waCcsICc3LjAnLCAnLXRuJywgJzgnLCAnLW1hJywgJzIwMCcsICctbWV0YWxfYmluZGluZycsICctaW1hZScsICc8aW5maWxlLm1hZT4nLCAnLW9tYWUnLCAnPG91dGZpbGUubWFlPic=

> <r_lp_tautomer_probability>
1

> <r_epik_Ionization_Penalty>
7.38659e-05

> <r_epik_Ionization_Penalty_Charging>
0

> <r_epik_Ionization_Penalty_Neutral>
7.38659e-05

> <r_epik_State_Penalty>
-0

> <r_epik_Charging_Adjusted_Penalty>
0

> <i_epik_Tot_Q>
0

> <i_epik_Tot_abs_Q>
0

> <r_epik_Metal_State_Penalty>
-0

> <b_epik_Metal_Only>
0

> <s_lp_Force_Field>
OPLS_2005

> <r_lp_Energy>
6.71394

> <b_lp_Chiralities_Consistent>
1

> <s_lp_Variant>
AV-unprocessed.smi:1840-6

> <Gold.Version>
5.8.1

> <Gold.Id.Protein>
6NUR|6NUR_protein|mol2

> <Gold.PLP.Fitness>
49.9740

> <Gold.PLP.PLP>
-42.9682

> <Gold.PLP.part.hbond>
-1.0000

> <Gold.PLP.part.metal>
0.0000

> <Gold.PLP.part.buried>
-3.0623

> <Gold.PLP.part.nonpolar>
-37.4918

> <Gold.PLP.part.repulsive>
0.2685

> <Gold.PLP.ligand.clash>
0.0000

> <Gold.PLP.ligand.torsion>
0.8547

> <Gold.PLP.Chemscore.Hbond>
0.8882

> <Gold.PLP.Chemscore.CHOScore>
2.0000

> <Gold.PLP.Chemscore.Metal>
0.0000

> <Gold.Chemscore.Hbonds>
donor molecule, donor type, donor heavy atom, donor atom, acceptor molecule, acceptor atom, score
      P1  H  7997  8008       L1    11  0.40
      L1  C     5    26       P1  8028  0.90
      L1  C     7    28       P1 10175  1.00

> <Gold.PLP.Chemscore.Internal.Correction>
0.0508

> <Gold.Rescore>
     Score         DG    S(hbond)    S(metal)    S(lipo)     H(rot)  DE(clash)    DE(int)     intcor
     15.32     -17.57       0.81        0.00     114.36       1.56       0.02       2.24       ----

> <Gold.Chemscore.Fitness>
15.3158

> <Gold.Chemscore.DG>
-17.5733

> <Gold.Chemscore.ZeroCoef>
-5.4800

> <Gold.Chemscore.Hbond>
0.8085

> <Gold.Chemscore.Metal>
0.0000

> <Gold.Chemscore.Lipo>
114.3617

> <Gold.Chemscore.Internal_Hbond>
0.0000

> <Gold.Chemscore.DEClash>
0.0177

> <Gold.Chemscore.DEInternal>
2.2399

> <Gold.Chemscore.Rot>
1.5576

> <Gold.Chemscore.Internal.Correction>
   9.000000E+99

> <Gold.Chemscore.Hbonds>
donor molecule, donor type, donor heavy atom, donor atom, acceptor molecule, acceptor atom, score
      P1  H  7997  8008       L1    11  0.40

> <Gold.Chemscore.Hbond.Weighted>
-2.7005

> <Gold.Chemscore.Metal.Weighted>
-0.0000

> <Gold.Chemscore.Lipo.Weighted>
-13.3803

> <Gold.Chemscore.Internal_Hbond.Weighted>
0.0000

> <Gold.Chemscore.DEClash.Weighted>
0.0177

> <Gold.Chemscore.DEInternal.Weighted>
2.2399

> <Gold.Chemscore.Rot.Weighted>
3.9875

> <Gold.Chemscore.Internal.Correction.Weighted>
   9.000000E+99

> <Gold.Protein.RotatedTorsions>
[ 6907 6896 6895 6894 ] final  -95.14 input  -60.11 | X-H torsion
[ 7974 7965 7964 7962 ] final  -57.16 input  175.53 | X-H torsion
[ 8008 7997 7996 7995 ] final  -59.87 input   59.86 | X-H torsion
[ 10167 10162 10161 10158 ] final  125.79 input  -65.29 | X-H torsion
[ 10718 10713 10712 10709 ] final  -49.16 input   66.30 | X-H torsion
[ 10763 10752 10751 10750 ] final   18.51 input  -60.55 | X-H torsion
[ 11005 11000 10999 10996 ] final -150.71 input  -57.11 | X-H torsion

> <Gold.Protein.ActiveResidues>
 VAL166  LYS551  ARG553  GLY616  TRP617  ASP618  TYR619  PRO620  LYS621  CYS622 
 ASP623  PHE694  ASN695  SER759  ASP760  ASP761  ALA762  ILE779  LEU786  VAL792 
 PHE793  MET794  SER795  GLU796  ALA797  LYS798  CYS799  TRP800  GLU811  SER814 

> <Gold.Protein.RotatedAtoms>
  150.6957  134.1704  159.4209 H   0  0  0  0  0  0  0  0  0  0  0  0  # atno 6907 bound_to 6896
  151.9682  135.0087  160.0560 H   0  0  0  0  0  0  0  0  0  0  0  0  # atno 6908 bound_to 6896
  152.1865  133.4708  159.5022 H   0  0  0  0  0  0  0  0  0  0  0  0  # atno 6909 bound_to 6896
  145.8543  140.8330  142.9970 H   0  0  0  0  0  0  0  0  0  0  0  0  # atno 7974 bound_to 7965
  154.4372  140.1052  156.6184 H   0  0  0  0  0  0  0  0  0  0  0  0  # atno 8008 bound_to 7997
  155.5734  140.3489  155.4502 H   0  0  0  0  0  0  0  0  0  0  0  0  # atno 8009 bound_to 7997
  156.0372  140.1274  157.0184 H   0  0  0  0  0  0  0  0  0  0  0  0  # atno 8010 bound_to 7997
  139.5666  144.6915  151.3893 H   0  0  0  0  0  0  0  0  0  0  0  0  # atno 10167 bound_to 10162
  156.1919  130.4153  149.9360 H   0  0  0  0  0  0  0  0  0  0  0  0  # atno 10718 bound_to 10713
  153.1243  135.6726  153.9283 H   0  0  0  0  0  0  0  0  0  0  0  0  # atno 10763 bound_to 10752
  153.8789  135.3060  155.3446 H   0  0  0  0  0  0  0  0  0  0  0  0  # atno 10764 bound_to 10752
  154.7650  135.4968  153.9617 H   0  0  0  0  0  0  0  0  0  0  0  0  # atno 10765 bound_to 10752
  140.7373  134.3553  157.5155 H   0  0  0  0  0  0  0  0  0  0  0  0  # atno 11005 bound_to 11000
  144.6728  140.0999  143.7461 LP  0  0  0  0  0  0  0  0  0  0  0  0  # atno 17320 bound_to 7965
  145.9322  139.2613  143.1318 LP  0  0  0  0  0  0  0  0  0  0  0  0  # atno 17321 bound_to 7965
  140.6950  143.7771  150.7312 LP  0  0  0  0  0  0  0  0  0  0  0  0  # atno 17342 bound_to 10162
  140.1265  143.4565  152.2281 LP  0  0  0  0  0  0  0  0  0  0  0  0  # atno 17343 bound_to 10162
  156.7097  130.8965  151.3608 LP  0  0  0  0  0  0  0  0  0  0  0  0  # atno 17370 bound_to 10713
  157.6934  130.9257  150.0577 LP  0  0  0  0  0  0  0  0  0  0  0  0  # atno 17371 bound_to 10713
  139.8813  134.9058  156.2908 LP  0  0  0  0  0  0  0  0  0  0  0  0  # atno 17394 bound_to 11000
  140.9868  133.7233  156.0753 LP  0  0  0  0  0  0  0  0  0  0  0  0  # atno 17395 bound_to 11000

$$$$
