AV-unprocessed.smi:2780|AV-procd|sdf|10715|dock3
  -GOLD-   2272015153D 1   1.00000     0.00000
 Structure written by MMmdl.
 47 49  0  0  0  0  0  0  0  0  2 V2000
  145.9479  130.3238  152.8772 C   0  0  0  0  0  0  0  0  0  0  0  0
  145.4205  131.4480  152.0014 C   0  0  0  0  0  0  0  0  0  0  0  0
  144.5926  131.1645  150.9776 C   0  0  0  0  0  0  0  0  0  0  0  0
  143.9485  132.2033  150.0892 C   0  0  0  0  0  0  0  0  0  0  0  0
  143.9312  133.5736  150.7704 C   0  0  0  0  0  0  0  0  0  0  0  0
  145.3169  133.9427  151.3246 C   0  0  1  0  0  0  0  0  0  0  0  0
  145.2697  135.3660  151.9142 C   0  0  0  0  0  0  0  0  0  0  0  0
  145.8457  132.8900  152.3477 C   0  0  2  0  0  0  0  0  0  0  0  0
  147.3811  133.0354  152.5162 C   0  0  0  0  0  0  0  0  0  0  0  0
  147.7554  134.1012  153.4680 N   0  3  0  0  0  0  0  0  0  0  0  0
  148.4556  133.6152  154.6730 C   0  0  0  0  0  0  0  0  0  0  0  0
  149.6021  132.6573  154.3136 C   0  0  0  0  0  0  0  0  0  0  0  0
  150.4114  132.3031  155.4687 N   0  0  0  0  0  0  0  0  0  0  0  0
  150.6462  133.0288  156.5736 C   0  0  0  0  0  0  0  0  0  0  0  0
  151.4585  132.4586  157.4618 N   0  0  0  0  0  0  0  0  0  0  0  0
  151.8071  131.2525  156.8887 N   0  0  0  0  0  0  0  0  0  0  0  0
  151.1575  131.2069  155.7198 C   0  0  0  0  0  0  0  0  0  0  0  0
  151.2797  130.0774  154.7472 C   0  0  0  0  0  0  0  0  0  0  0  0
  150.0462  129.3901  154.2057 C   0  0  0  0  0  0  0  0  0  0  0  0
  150.9634  128.6519  155.1445 C   0  0  0  0  0  0  0  0  0  0  0  0
  145.7519  130.5360  153.9277 H   0  0  0  0  0  0  0  0  0  0  0  0
  147.0192  130.1849  152.7346 H   0  0  0  0  0  0  0  0  0  0  0  0
  145.4643  129.3756  152.6388 H   0  0  0  0  0  0  0  0  0  0  0  0
  144.3387  130.1375  150.7573 H   0  0  0  0  0  0  0  0  0  0  0  0
  144.4937  132.2436  149.1457 H   0  0  0  0  0  0  0  0  0  0  0  0
  142.9287  131.8942  149.8581 H   0  0  0  0  0  0  0  0  0  0  0  0
  143.5904  134.3262  150.0582 H   0  0  0  0  0  0  0  0  0  0  0  0
  143.2035  133.5668  151.5832 H   0  0  0  0  0  0  0  0  0  0  0  0
  146.0005  133.9598  150.4740 H   0  0  0  0  0  0  0  0  0  0  0  0
  144.6067  135.4135  152.7787 H   0  0  0  0  0  0  0  0  0  0  0  0
  144.8986  136.0799  151.1779 H   0  0  0  0  0  0  0  0  0  0  0  0
  146.2495  135.7203  152.2296 H   0  0  0  0  0  0  0  0  0  0  0  0
  145.3737  133.1089  153.3070 H   0  0  0  0  0  0  0  0  0  0  0  0
  147.8060  132.0845  152.8412 H   0  0  0  0  0  0  0  0  0  0  0  0
  147.8620  133.2756  151.5693 H   0  0  0  0  0  0  0  0  0  0  0  0
  148.3519  134.7618  152.9902 H   0  0  0  0  0  0  0  0  0  0  0  0
  148.8569  134.4738  155.2129 H   0  0  0  0  0  0  0  0  0  0  0  0
  147.7452  133.1251  155.3403 H   0  0  0  0  0  0  0  0  0  0  0  0
  149.2135  131.7541  153.8428 H   0  0  0  0  0  0  0  0  0  0  0  0
  150.2585  133.1293  153.5817 H   0  0  0  0  0  0  0  0  0  0  0  0
  150.2125  134.0054  156.7328 H   0  0  0  0  0  0  0  0  0  0  0  0
  152.1151  130.2407  154.0689 H   0  0  0  0  0  0  0  0  0  0  0  0
  149.0782  129.6897  154.6015 H   0  0  0  0  0  0  0  0  0  0  0  0
  150.0536  129.0960  153.1582 H   0  0  0  0  0  0  0  0  0  0  0  0
  151.5854  127.8646  154.7239 H   0  0  0  0  0  0  0  0  0  0  0  0
  150.6036  128.4707  156.1555 H   0  0  0  0  0  0  0  0  0  0  0  0
  146.9137  134.5778  153.7588 H   0  0  0  0  0  0  0  0  0  0  0  0
  1  2  1  0  0  0  0
  1 21  1  0  0  0  0
  1 22  1  0  0  0  0
  1 23  1  0  0  0  0
  2  8  1  0  0  0  0
  2  3  2  0  0  0  0
  3  4  1  0  0  0  0
  3 24  1  0  0  0  0
  4  5  1  0  0  0  0
  4 25  1  0  0  0  0
  4 26  1  0  0  0  0
  5  6  1  0  0  0  0
  5 27  1  0  0  0  0
  5 28  1  0  0  0  0
  6  7  1  0  0  0  0
  6  8  1  0  0  0  0
  6 29  1  0  0  0  0
  7 30  1  0  0  0  0
  7 31  1  0  0  0  0
  7 32  1  0  0  0  0
  8  9  1  0  0  0  0
  8 33  1  0  0  0  0
  9 10  1  0  0  0  0
  9 34  1  0  0  0  0
  9 35  1  0  0  0  0
 10 11  1  0  0  0  0
 10 36  1  0  0  0  0
 10 47  1  0  0  0  0
 11 12  1  0  0  0  0
 11 37  1  0  0  0  0
 11 38  1  0  0  0  0
 12 13  1  0  0  0  0
 12 39  1  0  0  0  0
 12 40  1  0  0  0  0
 13 17  1  0  0  0  0
 13 14  1  0  0  0  0
 14 15  2  0  0  0  0
 14 41  1  0  0  0  0
 15 16  1  0  0  0  0
 16 17  2  0  0  0  0
 17 18  1  0  0  0  0
 18 20  1  0  0  0  0
 18 19  1  0  0  0  0
 18 42  1  0  0  0  0
 19 20  1  0  0  0  0
 19 43  1  0  0  0  0
 19 44  1  0  0  0  0
 20 45  1  0  0  0  0
 20 46  1  0  0  0  0
M  CHG  1  10   1
M  END
> <s_m_source_file>
AV-unprocessed.smi

> <i_m_source_file_index>
2780

> <i_lp_mmshare_version>
43012

> <i_f3d_flags>
0

> <s_epik_input>
W0NIM11DMT1bQ0hdW0NIMl1bQ0gyXVtDQEBIXShbQ0gzXSlbQ0BIXTFbQ0gyXVtOSF1bQ0gyXVtDSDJdbjJbY0hdbm5jMltDSF0zW0NIMl1bQ0gyXTM=

> <s_epik_cmdline>
J2VwaWtfcHl0aG9uJywgJy1waCcsICc3LjAnLCAnLXRuJywgJzgnLCAnLW1hJywgJzIwMCcsICctbWV0YWxfYmluZGluZycsICctaW1hZScsICc8aW5maWxlLm1hZT4nLCAnLW9tYWUnLCAnPG91dGZpbGUubWFlPic=

> <r_lp_tautomer_probability>
1

> <r_epik_Ionization_Penalty>
0.00176214

> <r_epik_Ionization_Penalty_Charging>
0.00175191

> <r_epik_Ionization_Penalty_Neutral>
1.02377e-05

> <r_epik_State_Penalty>
-0

> <r_epik_Charging_Adjusted_Penalty>
0.00175191

> <i_epik_Tot_Q>
1

> <i_epik_Tot_abs_Q>
1

> <r_epik_Metal_State_Penalty>
-0

> <b_epik_Metal_Only>
0

> <s_lp_Force_Field>
OPLS_2005

> <r_lp_Energy>
22.3616

> <b_lp_Chiralities_Consistent>
1

> <s_lp_Variant>
AV-unprocessed.smi:2780-3

> <Gold.Version>
5.8.1

> <Gold.Id.Protein>
6NUR|6NUR_protein|mol2

> <Gold.PLP.Fitness>
47.7858

> <Gold.PLP.PLP>
-40.8183

> <Gold.PLP.part.hbond>
-1.9323

> <Gold.PLP.part.metal>
0.0000

> <Gold.PLP.part.buried>
-5.0395

> <Gold.PLP.part.nonpolar>
-33.7218

> <Gold.PLP.part.repulsive>
0.0000

> <Gold.PLP.ligand.clash>
0.0000

> <Gold.PLP.ligand.torsion>
1.1529

> <Gold.PLP.Chemscore.Hbond>
3.0000

> <Gold.PLP.Chemscore.CHOScore>
0.0000

> <Gold.PLP.Chemscore.Metal>
0.0000

> <Gold.Chemscore.Hbonds>
donor molecule, donor type, donor heavy atom, donor atom, acceptor molecule, acceptor atom, score
      L1  H    10    36       P1  7948  2.00
      P1  H  6896  6907       L1    15  1.00

> <Gold.PLP.Chemscore.Internal.Correction>
0.2734

> <Gold.Rescore>
     Score         DG    S(hbond)    S(metal)    S(lipo)     H(rot)  DE(clash)    DE(int)     intcor
     15.92     -17.05       1.88        0.00      88.54       1.98       0.13       0.99       ----

> <Gold.Chemscore.Fitness>
15.9220

> <Gold.Chemscore.DG>
-17.0505

> <Gold.Chemscore.ZeroCoef>
-5.4800

> <Gold.Chemscore.Hbond>
1.8802

> <Gold.Chemscore.Metal>
0.0000

> <Gold.Chemscore.Lipo>
88.5399

> <Gold.Chemscore.Internal_Hbond>
0.0000

> <Gold.Chemscore.DEClash>
0.1349

> <Gold.Chemscore.DEInternal>
0.9936

> <Gold.Chemscore.Rot>
1.9799

> <Gold.Chemscore.Internal.Correction>
   9.000000E+99

> <Gold.Chemscore.Hbonds>
donor molecule, donor type, donor heavy atom, donor atom, acceptor molecule, acceptor atom, score
      L1  H    10    36       P1  7948  0.60
      P1  H  6896  6907       L1    15  0.91

> <Gold.Chemscore.Hbond.Weighted>
-6.2799

> <Gold.Chemscore.Metal.Weighted>
-0.0000

> <Gold.Chemscore.Lipo.Weighted>
-10.3592

> <Gold.Chemscore.Internal_Hbond.Weighted>
0.0000

> <Gold.Chemscore.DEClash.Weighted>
0.1349

> <Gold.Chemscore.DEInternal.Weighted>
0.9936

> <Gold.Chemscore.Rot.Weighted>
5.0685

> <Gold.Chemscore.Internal.Correction.Weighted>
   9.000000E+99

> <Gold.Protein.RotatedTorsions>
[ 6907 6896 6895 6894 ] final -176.01 input  -60.11 | X-H torsion
[ 7974 7965 7964 7962 ] final  153.24 input  175.53 | X-H torsion
[ 8008 7997 7996 7995 ] final -177.20 input   59.86 | X-H torsion
[ 10167 10162 10161 10158 ] final   45.73 input  -65.29 | X-H torsion
[ 10718 10713 10712 10709 ] final  137.67 input   66.30 | X-H torsion
[ 10763 10752 10751 10750 ] final  136.08 input  -60.55 | X-H torsion
[ 11005 11000 10999 10996 ] final -106.85 input  -57.11 | X-H torsion

> <Gold.Protein.ActiveResidues>
 VAL166  LYS551  ARG553  GLY616  TRP617  ASP618  TYR619  PRO620  LYS621  CYS622 
 ASP623  PHE694  ASN695  SER759  ASP760  ASP761  ALA762  ILE779  LEU786  VAL792 
 PHE793  MET794  SER795  GLU796  ALA797  LYS798  CYS799  TRP800  GLU811  SER814 

> <Gold.Protein.RotatedAtoms>
  151.5978  133.3359  159.3040 H   0  0  0  0  0  0  0  0  0  0  0  0  # atno 6907 bound_to 6896
  150.8225  134.7442  159.6795 H   0  0  0  0  0  0  0  0  0  0  0  0  # atno 6908 bound_to 6896
  152.4317  134.5771  159.9989 H   0  0  0  0  0  0  0  0  0  0  0  0  # atno 6909 bound_to 6896
  144.8168  139.6774  143.6118 H   0  0  0  0  0  0  0  0  0  0  0  0  # atno 7974 bound_to 7965
  156.0041  140.1227  157.0518 H   0  0  0  0  0  0  0  0  0  0  0  0  # atno 8008 bound_to 7997
  154.4252  140.1101  156.5807 H   0  0  0  0  0  0  0  0  0  0  0  0  # atno 8009 bound_to 7997
  155.6171  140.3472  155.4642 H   0  0  0  0  0  0  0  0  0  0  0  0  # atno 8010 bound_to 7997
  140.3211  144.2704  150.6182 H   0  0  0  0  0  0  0  0  0  0  0  0  # atno 10167 bound_to 10162
  157.4335  131.1051  151.0223 H   0  0  0  0  0  0  0  0  0  0  0  0  # atno 10718 bound_to 10713
  153.8507  135.3079  155.3432 H   0  0  0  0  0  0  0  0  0  0  0  0  # atno 10763 bound_to 10752
  154.7892  135.4792  154.0018 H   0  0  0  0  0  0  0  0  0  0  0  0  # atno 10764 bound_to 10752
  153.1520  135.6845  153.8961 H   0  0  0  0  0  0  0  0  0  0  0  0  # atno 10765 bound_to 10752
  141.0984  133.8929  157.1905 H   0  0  0  0  0  0  0  0  0  0  0  0  # atno 11005 bound_to 11000
  146.2472  139.6122  142.9452 LP  0  0  0  0  0  0  0  0  0  0  0  0  # atno 17320 bound_to 7965
  145.5196  141.0432  143.2443 LP  0  0  0  0  0  0  0  0  0  0  0  0  # atno 17321 bound_to 7965
  140.5482  143.2211  151.7971 LP  0  0  0  0  0  0  0  0  0  0  0  0  # atno 17342 bound_to 10162
  139.4874  144.4511  151.9653 LP  0  0  0  0  0  0  0  0  0  0  0  0  # atno 17343 bound_to 10162
  157.1111  130.6022  149.5482 LP  0  0  0  0  0  0  0  0  0  0  0  0  # atno 17370 bound_to 10713
  155.9922  130.4979  150.7330 LP  0  0  0  0  0  0  0  0  0  0  0  0  # atno 17371 bound_to 10713
  139.9827  135.0092  156.9789 LP  0  0  0  0  0  0  0  0  0  0  0  0  # atno 17394 bound_to 11000
  140.5083  134.1027  155.7265 LP  0  0  0  0  0  0  0  0  0  0  0  0  # atno 17395 bound_to 11000

$$$$
