AV-unprocessed.smi:1641|AV-procd|sdf|6564|dock4
  -GOLD-   22720 7253D 1   1.00000     0.00000
 Structure written by MMmdl.
 40 41  0  0  0  0  0  0  0  0  2 V2000
  148.1819  134.8145  158.7297 C   0  0  0  0  0  0  0  0  0  0  0  0
  149.2581  135.1841  157.7674 C   0  0  0  0  0  0  0  0  0  0  0  0
  150.3342  134.4221  157.5561 N   0  0  0  0  0  0  0  0  0  0  0  0
  151.1917  134.9775  156.6173 N   0  0  0  0  0  0  0  0  0  0  0  0
  150.7600  136.1547  156.1423 C   0  0  0  0  0  0  0  0  0  0  0  0
  151.4426  136.8559  155.2220 N   0  5  0  0  0  0  0  0  0  0  0  0
  151.4365  138.2080  155.2610 C   0  0  0  0  0  0  0  0  0  0  0  0
  151.1951  138.9632  154.3166 O   0  0  0  0  0  0  0  0  0  0  0  0
  151.7309  138.7111  156.4681 N   0  0  0  0  0  0  0  0  0  0  0  0
  151.8214  140.1244  156.8179 C   0  0  0  0  0  0  0  0  0  0  0  0
  152.1693  140.2756  158.3075 C   0  0  0  0  0  0  0  0  0  0  0  0
  152.1632  141.6498  158.8071 N   0  0  0  0  0  0  0  0  0  0  0  0
  152.5839  141.6993  160.2010 C   0  0  0  0  0  0  0  0  0  0  0  0
  152.6308  143.1413  160.7370 C   0  0  2  0  0  0  0  0  0  0  0  0
  152.9958  143.1922  162.2241 C   0  0  0  0  0  0  0  0  0  0  0  0
  151.3505  143.7486  160.5726 O   0  0  0  0  0  0  0  0  0  0  0  0
  150.8313  143.7223  159.2418 C   0  0  1  0  0  0  0  0  0  0  0  0
  151.5430  144.7385  158.3323 C   0  0  0  0  0  0  0  0  0  0  0  0
  150.8526  142.2845  158.6839 C   0  0  0  0  0  0  0  0  0  0  0  0
  149.2149  136.6632  156.8229 S   0  0  0  0  0  0  0  0  0  0  0  0
  148.4197  135.2027  159.7202 H   0  0  0  0  0  0  0  0  0  0  0  0
  148.0818  133.7305  158.7913 H   0  0  0  0  0  0  0  0  0  0  0  0
  147.2287  135.2340  158.4075 H   0  0  0  0  0  0  0  0  0  0  0  0
  151.9158  138.0493  157.2075 H   0  0  0  0  0  0  0  0  0  0  0  0
  152.5746  140.6369  156.2174 H   0  0  0  0  0  0  0  0  0  0  0  0
  150.8612  140.5849  156.5876 H   0  0  0  0  0  0  0  0  0  0  0  0
  151.4940  139.6624  158.9062 H   0  0  0  0  0  0  0  0  0  0  0  0
  153.1653  139.8548  158.4551 H   0  0  0  0  0  0  0  0  0  0  0  0
  151.9048  141.1029  160.8127 H   0  0  0  0  0  0  0  0  0  0  0  0
  153.5717  141.2484  160.3032 H   0  0  0  0  0  0  0  0  0  0  0  0
  153.3765  143.7117  160.1824 H   0  0  0  0  0  0  0  0  0  0  0  0
  153.9757  142.7487  162.4027 H   0  0  0  0  0  0  0  0  0  0  0  0
  152.2675  142.6509  162.8287 H   0  0  0  0  0  0  0  0  0  0  0  0
  153.0269  144.2215  162.5823 H   0  0  0  0  0  0  0  0  0  0  0  0
  149.7899  144.0373  159.3141 H   0  0  0  0  0  0  0  0  0  0  0  0
  151.0627  144.7858  157.3549 H   0  0  0  0  0  0  0  0  0  0  0  0
  152.5888  144.4797  158.1673 H   0  0  0  0  0  0  0  0  0  0  0  0
  151.5096  145.7384  158.7653 H   0  0  0  0  0  0  0  0  0  0  0  0
  150.5334  142.3062  157.6425 H   0  0  0  0  0  0  0  0  0  0  0  0
  150.1118  141.6889  159.2197 H   0  0  0  0  0  0  0  0  0  0  0  0
  1  2  1  0  0  0  0
  1 21  1  0  0  0  0
  1 22  1  0  0  0  0
  1 23  1  0  0  0  0
  2 20  1  0  0  0  0
  2  3  2  0  0  0  0
  3  4  1  0  0  0  0
  4  5  2  0  0  0  0
  5  6  1  0  0  0  0
  5 20  1  0  0  0  0
  6  7  1  0  0  0  0
  7  8  2  0  0  0  0
  7  9  1  0  0  0  0
  9 10  1  0  0  0  0
  9 24  1  0  0  0  0
 10 11  1  0  0  0  0
 10 25  1  0  0  0  0
 10 26  1  0  0  0  0
 11 12  1  0  0  0  0
 11 27  1  0  0  0  0
 11 28  1  0  0  0  0
 12 19  1  0  0  0  0
 12 13  1  0  0  0  0
 13 14  1  0  0  0  0
 13 29  1  0  0  0  0
 13 30  1  0  0  0  0
 14 15  1  0  0  0  0
 14 16  1  0  0  0  0
 14 31  1  0  0  0  0
 15 32  1  0  0  0  0
 15 33  1  0  0  0  0
 15 34  1  0  0  0  0
 16 17  1  0  0  0  0
 17 18  1  0  0  0  0
 17 19  1  0  0  0  0
 17 35  1  0  0  0  0
 18 36  1  0  0  0  0
 18 37  1  0  0  0  0
 18 38  1  0  0  0  0
 19 39  1  0  0  0  0
 19 40  1  0  0  0  0
M  CHG  1   6  -1
M  END
> <s_m_source_file>
AV-unprocessed.smi

> <i_m_source_file_index>
1641

> <i_lp_mmshare_version>
43012

> <i_f3d_flags>
0

> <s_epik_input>
W0NIM11jMW5uYyhzMSlbTkhdQyg9TylbTkhdW0NIMl1bQ0gyXU4yW0NIMl1bQ0BASF0oW0NIM10pT1tDQEBIXShbQ0gzXSlbQ0gyXTI=

> <s_epik_cmdline>
J2VwaWtfcHl0aG9uJywgJy1waCcsICc3LjAnLCAnLXRuJywgJzgnLCAnLW1hJywgJzIwMCcsICctbWV0YWxfYmluZGluZycsICctaW1hZScsICc8aW5maWxlLm1hZT4nLCAnLW9tYWUnLCAnPG91dGZpbGUubWFlPic=

> <r_lp_tautomer_probability>
1

> <r_epik_Ionization_Penalty>
3.81681

> <r_epik_Ionization_Penalty_Charging>
3.36369

> <r_epik_Ionization_Penalty_Neutral>
0.45313

> <r_epik_State_Penalty>
3.571

> <r_epik_Charging_Adjusted_Penalty>
6.93469

> <i_epik_Tot_Q>
-1

> <i_epik_Tot_abs_Q>
1

> <r_epik_Metal_State_Penalty>
0.710322

> <b_epik_Metal_Only>
1

> <s_lp_Force_Field>
OPLS_2005

> <r_lp_Energy>
21.0176

> <b_lp_Chiralities_Consistent>
1

> <s_lp_Variant>
AV-unprocessed.smi:1641-9

> <Gold.Version>
5.8.1

> <Gold.Id.Protein>
6NUR|6NUR_protein|mol2

> <Gold.PLP.Fitness>
42.6657

> <Gold.PLP.PLP>
-32.8178

> <Gold.PLP.part.hbond>
-3.1114

> <Gold.PLP.part.metal>
0.0000

> <Gold.PLP.part.buried>
-5.2039

> <Gold.PLP.part.nonpolar>
-24.8226

> <Gold.PLP.part.repulsive>
0.4641

> <Gold.PLP.ligand.clash>
0.0000

> <Gold.PLP.ligand.torsion>
0.7024

> <Gold.PLP.Chemscore.Hbond>
3.7360

> <Gold.PLP.Chemscore.CHOScore>
0.0000

> <Gold.PLP.Chemscore.Metal>
0.0000

> <Gold.Chemscore.Hbonds>
donor molecule, donor type, donor heavy atom, donor atom, acceptor molecule, acceptor atom, score
      P1  H  6896  6907       L1     3  0.60
      P1  H  7989  7998       L1     8  0.81
      P1  H 10752 10763       L1     6  1.85

> <Gold.PLP.Chemscore.Internal.Correction>
0.0447

> <Gold.Rescore>
     Score         DG    S(hbond)    S(metal)    S(lipo)     H(rot)  DE(clash)    DE(int)     intcor
     17.31     -18.30       2.25        0.00      79.58       1.57       0.10       0.88       ----

> <Gold.Chemscore.Fitness>
17.3130

> <Gold.Chemscore.DG>
-18.2968

> <Gold.Chemscore.ZeroCoef>
-5.4800

> <Gold.Chemscore.Hbond>
2.2520

> <Gold.Chemscore.Metal>
0.0000

> <Gold.Chemscore.Lipo>
79.5804

> <Gold.Chemscore.Internal_Hbond>
0.0000

> <Gold.Chemscore.DEClash>
0.0998

> <Gold.Chemscore.DEInternal>
0.8841

> <Gold.Chemscore.Rot>
1.5686

> <Gold.Chemscore.Internal.Correction>
   9.000000E+99

> <Gold.Chemscore.Hbonds>
donor molecule, donor type, donor heavy atom, donor atom, acceptor molecule, acceptor atom, score
      P1  H  6896  6907       L1     3  0.11
      P1  H  7989  7998       L1     8  0.78
      P1  H 10752 10763       L1     6  0.35

> <Gold.Chemscore.Hbond.Weighted>
-7.5216

> <Gold.Chemscore.Metal.Weighted>
-0.0000

> <Gold.Chemscore.Lipo.Weighted>
-9.3109

> <Gold.Chemscore.Internal_Hbond.Weighted>
0.0000

> <Gold.Chemscore.DEClash.Weighted>
0.0998

> <Gold.Chemscore.DEInternal.Weighted>
0.8841

> <Gold.Chemscore.Rot.Weighted>
4.0157

> <Gold.Chemscore.Internal.Correction.Weighted>
   9.000000E+99

> <Gold.Protein.RotatedTorsions>
[ 6907 6896 6895 6894 ] final -102.70 input  -60.11 | X-H torsion
[ 7974 7965 7964 7962 ] final  -83.26 input  175.53 | X-H torsion
[ 8008 7997 7996 7995 ] final    6.98 input   59.86 | X-H torsion
[ 10167 10162 10161 10158 ] final  -90.85 input  -65.29 | X-H torsion
[ 10718 10713 10712 10709 ] final -174.62 input   66.30 | X-H torsion
[ 10763 10752 10751 10750 ] final   67.76 input  -60.55 | X-H torsion
[ 11005 11000 10999 10996 ] final  -96.38 input  -57.11 | X-H torsion

> <Gold.Protein.ActiveResidues>
 VAL166  LYS551  ARG553  GLY616  TRP617  ASP618  TYR619  PRO620  LYS621  CYS622 
 ASP623  PHE694  ASN695  SER759  ASP760  ASP761  ALA762  ILE779  LEU786  VAL792 
 PHE793  MET794  SER795  GLU796  ALA797  LYS798  CYS799  TRP800  GLU811  SER814 

> <Gold.Protein.RotatedAtoms>
  150.7208  134.0541  159.3808 H   0  0  0  0  0  0  0  0  0  0  0  0  # atno 6907 bound_to 6896
  151.8518  135.0552  160.0469 H   0  0  0  0  0  0  0  0  0  0  0  0  # atno 6908 bound_to 6896
  152.2784  133.5411  159.5519 H   0  0  0  0  0  0  0  0  0  0  0  0  # atno 6909 bound_to 6896
  145.5224  140.9530  143.1648 H   0  0  0  0  0  0  0  0  0  0  0  0  # atno 7974 bound_to 7965
  154.7480  140.2761  155.6317 H   0  0  0  0  0  0  0  0  0  0  0  0  # atno 8008 bound_to 7997
  156.2889  140.2684  156.2152 H   0  0  0  0  0  0  0  0  0  0  0  0  # atno 8009 bound_to 7997
  155.0173  140.0371  157.2413 H   0  0  0  0  0  0  0  0  0  0  0  0  # atno 8010 bound_to 7997
  140.3508  143.2892  151.9728 H   0  0  0  0  0  0  0  0  0  0  0  0  # atno 10167 bound_to 10162
  156.7878  130.9507  151.3120 H   0  0  0  0  0  0  0  0  0  0  0  0  # atno 10718 bound_to 10713
  153.0201  135.5272  154.7029 H   0  0  0  0  0  0  0  0  0  0  0  0  # atno 10763 bound_to 10752
  154.6133  135.2880  155.0411 H   0  0  0  0  0  0  0  0  0  0  0  0  # atno 10764 bound_to 10752
  154.1424  135.6576  153.4997 H   0  0  0  0  0  0  0  0  0  0  0  0  # atno 10765 bound_to 10752
  141.1413  133.8093  157.0563 H   0  0  0  0  0  0  0  0  0  0  0  0  # atno 11005 bound_to 11000
  144.7669  139.6824  143.7211 LP  0  0  0  0  0  0  0  0  0  0  0  0  # atno 17320 bound_to 7965
  146.2097  139.5445  142.9689 LP  0  0  0  0  0  0  0  0  0  0  0  0  # atno 17321 bound_to 7965
  139.4827  144.6078  151.7490 LP  0  0  0  0  0  0  0  0  0  0  0  0  # atno 17342 bound_to 10162
  140.5221  144.0863  150.6026 LP  0  0  0  0  0  0  0  0  0  0  0  0  # atno 17343 bound_to 10162
  157.6615  130.8970  149.9840 LP  0  0  0  0  0  0  0  0  0  0  0  0  # atno 17370 bound_to 10713
  156.1178  130.3647  149.9939 LP  0  0  0  0  0  0  0  0  0  0  0  0  # atno 17371 bound_to 10713
  140.0600  134.9760  157.1287 LP  0  0  0  0  0  0  0  0  0  0  0  0  # atno 17394 bound_to 11000
  140.3863  134.2233  155.7168 LP  0  0  0  0  0  0  0  0  0  0  0  0  # atno 17395 bound_to 11000

$$$$
