AV-unprocessed.smi:3277|AV-procd|sdf|12538|dock4
  -GOLD-   2272018453D 1   1.00000     0.00000
 Structure written by MMmdl.
 35 37  0  0  0  0  0  0  0  0  1 V2000
  154.2306  136.3280  163.2750 C   0  0  0  0  0  0  0  0  0  0  0  0
  154.7251  137.3224  162.3359 N   0  0  0  0  0  0  0  0  0  0  0  0
  154.3353  137.4102  161.0557 C   0  0  0  0  0  0  0  0  0  0  0  0
  153.5055  136.6558  160.5484 O   0  0  0  0  0  0  0  0  0  0  0  0
  154.9759  138.5181  160.2178 C   0  0  0  0  0  0  0  0  0  0  0  0
  153.9128  139.5134  159.8810 C   0  0  0  0  0  0  0  0  0  0  0  0
  154.0628  140.8318  160.0292 N   0  0  0  0  0  0  0  0  0  0  0  0
  152.9251  141.5589  159.6594 C   0  0  0  0  0  0  0  0  0  0  0  0
  152.8760  143.0626  159.7763 C   0  0  2  0  0  0  0  0  0  0  0  0
  151.9590  143.6078  160.8935 C   0  0  0  0  0  0  0  0  0  0  0  0
  151.1429  144.6873  160.1553 C   0  0  2  0  0  0  0  0  0  0  0  0
  150.1166  144.0065  159.2284 C   0  0  0  0  0  0  0  0  0  0  0  0
  150.9922  143.4867  158.0725 C   0  0  0  0  0  0  0  0  0  0  0  0
  152.4166  143.8613  158.5306 C   0  0  1  0  0  0  0  0  0  0  0  0
  152.1567  145.2308  159.1533 C   0  0  0  0  0  0  0  0  0  0  0  0
  151.9056  140.7550  159.2117 C   0  0  0  0  0  0  0  0  0  0  0  0
  152.3352  139.0670  159.2433 S   0  0  0  0  0  0  0  0  0  0  0  0
  154.7225  136.4507  164.2400 H   0  0  0  0  0  0  0  0  0  0  0  0
  154.4334  135.3184  162.9147 H   0  0  0  0  0  0  0  0  0  0  0  0
  153.1552  136.4357  163.4236 H   0  0  0  0  0  0  0  0  0  0  0  0
  155.4112  137.9799  162.6766 H   0  0  0  0  0  0  0  0  0  0  0  0
  155.7760  139.0047  160.7772 H   0  0  0  0  0  0  0  0  0  0  0  0
  155.4083  138.1126  159.3024 H   0  0  0  0  0  0  0  0  0  0  0  0
  153.8870  143.4045  160.0060 H   0  0  0  0  0  0  0  0  0  0  0  0
  151.3095  142.8508  161.3342 H   0  0  0  0  0  0  0  0  0  0  0  0
  152.5520  144.0398  161.7005 H   0  0  0  0  0  0  0  0  0  0  0  0
  150.7037  145.4321  160.8196 H   0  0  0  0  0  0  0  0  0  0  0  0
  149.5751  143.2043  159.7314 H   0  0  0  0  0  0  0  0  0  0  0  0
  149.3833  144.7248  158.8598 H   0  0  0  0  0  0  0  0  0  0  0  0
  150.8547  142.4264  157.8695 H   0  0  0  0  0  0  0  0  0  0  0  0
  150.7452  144.0160  157.1511 H   0  0  0  0  0  0  0  0  0  0  0  0
  153.1455  143.8587  157.7197 H   0  0  0  0  0  0  0  0  0  0  0  0
  151.7302  145.9530  158.4547 H   0  0  0  0  0  0  0  0  0  0  0  0
  153.0376  145.6703  159.6247 H   0  0  0  0  0  0  0  0  0  0  0  0
  150.9262  141.0543  158.8688 H   0  0  0  0  0  0  0  0  0  0  0  0
  1  2  1  0  0  0  0
  1 18  1  0  0  0  0
  1 19  1  0  0  0  0
  1 20  1  0  0  0  0
  2  3  1  0  0  0  0
  2 21  1  0  0  0  0
  3  4  2  0  0  0  0
  3  5  1  0  0  0  0
  5  6  1  0  0  0  0
  5 22  1  0  0  0  0
  5 23  1  0  0  0  0
  6 17  1  0  0  0  0
  6  7  2  0  0  0  0
  7  8  1  0  0  0  0
  8  9  1  0  0  0  0
  8 16  2  0  0  0  0
  9 14  1  0  0  0  0
  9 10  1  0  0  0  0
  9 24  1  0  0  0  0
 10 11  1  0  0  0  0
 10 25  1  0  0  0  0
 10 26  1  0  0  0  0
 11 15  1  0  0  0  0
 11 12  1  0  0  0  0
 11 27  1  0  0  0  0
 12 13  1  0  0  0  0
 12 28  1  0  0  0  0
 12 29  1  0  0  0  0
 13 14  1  0  0  0  0
 13 30  1  0  0  0  0
 13 31  1  0  0  0  0
 14 15  1  0  0  0  0
 14 32  1  0  0  0  0
 15 33  1  0  0  0  0
 15 34  1  0  0  0  0
 16 17  1  0  0  0  0
 16 35  1  0  0  0  0
M  END
> <s_m_source_file>
AV-unprocessed.smi

> <i_m_source_file_index>
3277

> <i_lp_mmshare_version>
43012

> <i_f3d_flags>
0

> <s_epik_input>
W0NIM11bTkhdQyg9TylbQ0gyXWMxbmMoW2NIXXMxKVtDQEhdKFtDSDJdW0NAQEhdMjMpW0NAQEhdKFtDSDJdMylbQ0gyXVtDSDJdMg==

> <s_epik_cmdline>
J2VwaWtfcHl0aG9uJywgJy1waCcsICc3LjAnLCAnLXRuJywgJzgnLCAnLW1hJywgJzIwMCcsICctbWV0YWxfYmluZGluZycsICctaW1hZScsICc8aW5maWxlLm1hZT4nLCAnLW9tYWUnLCAnPG91dGZpbGUubWFlPic=

> <r_lp_tautomer_probability>
1

> <r_epik_Ionization_Penalty>
8.50008e-05

> <r_epik_Ionization_Penalty_Charging>
0

> <r_epik_Ionization_Penalty_Neutral>
8.50008e-05

> <r_epik_State_Penalty>
-0

> <r_epik_Charging_Adjusted_Penalty>
0

> <i_epik_Tot_Q>
0

> <i_epik_Tot_abs_Q>
0

> <r_epik_Metal_State_Penalty>
-0

> <b_epik_Metal_Only>
0

> <s_lp_Force_Field>
OPLS_2005

> <r_lp_Energy>
46.0194

> <b_lp_Chiralities_Consistent>
1

> <s_lp_Variant>
AV-unprocessed.smi:3277-3

> <Gold.Version>
5.8.1

> <Gold.Id.Protein>
6NUR|6NUR_protein|mol2

> <Gold.PLP.Fitness>
41.7429

> <Gold.PLP.PLP>
-40.4196

> <Gold.PLP.part.hbond>
-0.5698

> <Gold.PLP.part.metal>
0.0000

> <Gold.PLP.part.buried>
-6.4267

> <Gold.PLP.part.nonpolar>
-34.1716

> <Gold.PLP.part.repulsive>
0.0000

> <Gold.PLP.ligand.clash>
0.0000

> <Gold.PLP.ligand.torsion>
0.3644

> <Gold.PLP.Chemscore.Hbond>
0.6825

> <Gold.PLP.Chemscore.CHOScore>
0.0000

> <Gold.PLP.Chemscore.Metal>
0.0000

> <Gold.Chemscore.Hbonds>
donor molecule, donor type, donor heavy atom, donor atom, acceptor molecule, acceptor atom, score
      P1  H  6896  6908       L1     4  0.57

> <Gold.PLP.Chemscore.Internal.Correction>
0.0047

> <Gold.Rescore>
     Score         DG    S(hbond)    S(metal)    S(lipo)     H(rot)  DE(clash)    DE(int)     intcor
     17.97     -19.42       0.99        0.00     121.92       1.41       0.06       1.39       ----

> <Gold.Chemscore.Fitness>
17.9747

> <Gold.Chemscore.DG>
-19.4242

> <Gold.Chemscore.ZeroCoef>
-5.4800

> <Gold.Chemscore.Hbond>
0.9863

> <Gold.Chemscore.Metal>
0.0000

> <Gold.Chemscore.Lipo>
121.9245

> <Gold.Chemscore.Internal_Hbond>
0.0000

> <Gold.Chemscore.DEClash>
0.0556

> <Gold.Chemscore.DEInternal>
1.3939

> <Gold.Chemscore.Rot>
1.4122

> <Gold.Chemscore.Internal.Correction>
   9.000000E+99

> <Gold.Chemscore.Hbonds>
donor molecule, donor type, donor heavy atom, donor atom, acceptor molecule, acceptor atom, score
      P1  H  6896  6908       L1     4  0.56

> <Gold.Chemscore.Hbond.Weighted>
-3.2942

> <Gold.Chemscore.Metal.Weighted>
-0.0000

> <Gold.Chemscore.Lipo.Weighted>
-14.2652

> <Gold.Chemscore.Internal_Hbond.Weighted>
0.0000

> <Gold.Chemscore.DEClash.Weighted>
0.0556

> <Gold.Chemscore.DEInternal.Weighted>
1.3939

> <Gold.Chemscore.Rot.Weighted>
3.6151

> <Gold.Chemscore.Internal.Correction.Weighted>
   9.000000E+99

> <Gold.Protein.RotatedTorsions>
[ 6907 6896 6895 6894 ] final  -82.26 input  -60.11 | X-H torsion
[ 7974 7965 7964 7962 ] final  114.27 input  175.53 | X-H torsion
[ 8008 7997 7996 7995 ] final -120.70 input   59.86 | X-H torsion
[ 10167 10162 10161 10158 ] final  134.98 input  -65.29 | X-H torsion
[ 10718 10713 10712 10709 ] final  138.02 input   66.30 | X-H torsion
[ 10763 10752 10751 10750 ] final  -34.01 input  -60.55 | X-H torsion
[ 11005 11000 10999 10996 ] final   53.61 input  -57.11 | X-H torsion

> <Gold.Protein.ActiveResidues>
 VAL166  LYS551  ARG553  GLY616  TRP617  ASP618  TYR619  PRO620  LYS621  CYS622 
 ASP623  PHE694  ASN695  SER759  ASP760  ASP761  ALA762  ILE779  LEU786  VAL792 
 PHE793  MET794  SER795  GLU796  ALA797  LYS798  CYS799  TRP800  GLU811  SER814 

> <Gold.Protein.RotatedAtoms>
  150.6900  134.3693  159.4984 H   0  0  0  0  0  0  0  0  0  0  0  0  # atno 6907 bound_to 6896
  152.1511  134.8985  160.0557 H   0  0  0  0  0  0  0  0  0  0  0  0  # atno 6908 bound_to 6896
  152.0082  133.3816  159.4246 H   0  0  0  0  0  0  0  0  0  0  0  0  # atno 6909 bound_to 6896
  145.2065  139.2926  143.4290 H   0  0  0  0  0  0  0  0  0  0  0  0  # atno 7974 bound_to 7965
  155.1360  140.0401  157.2787 H   0  0  0  0  0  0  0  0  0  0  0  0  # atno 8008 bound_to 7997
  154.6508  140.2568  155.7190 H   0  0  0  0  0  0  0  0  0  0  0  0  # atno 8009 bound_to 7997
  156.2576  140.2837  156.0940 H   0  0  0  0  0  0  0  0  0  0  0  0  # atno 8010 bound_to 7997
  139.5235  144.6540  151.5218 H   0  0  0  0  0  0  0  0  0  0  0  0  # atno 10167 bound_to 10162
  157.4298  131.1047  151.0262 H   0  0  0  0  0  0  0  0  0  0  0  0  # atno 10718 bound_to 10713
  153.8396  135.6859  153.4804 H   0  0  0  0  0  0  0  0  0  0  0  0  # atno 10763 bound_to 10752
  153.1461  135.4637  154.9567 H   0  0  0  0  0  0  0  0  0  0  0  0  # atno 10764 bound_to 10752
  154.7851  135.3282  154.7851 H   0  0  0  0  0  0  0  0  0  0  0  0  # atno 10765 bound_to 10752
  140.0753  134.5413  155.9003 H   0  0  0  0  0  0  0  0  0  0  0  0  # atno 11005 bound_to 11000
  146.3406  140.2327  142.8593 LP  0  0  0  0  0  0  0  0  0  0  0  0  # atno 17320 bound_to 7965
  144.9897  140.8535  143.5347 LP  0  0  0  0  0  0  0  0  0  0  0  0  # atno 17321 bound_to 7965
  140.6357  143.8988  150.6645 LP  0  0  0  0  0  0  0  0  0  0  0  0  # atno 17342 bound_to 10162
  140.2307  143.3738  152.1568 LP  0  0  0  0  0  0  0  0  0  0  0  0  # atno 17343 bound_to 10162
  157.1163  130.6043  149.5494 LP  0  0  0  0  0  0  0  0  0  0  0  0  # atno 17370 bound_to 10713
  155.9909  130.4962  150.7277 LP  0  0  0  0  0  0  0  0  0  0  0  0  # atno 17371 bound_to 10713
  141.2027  133.6627  156.6022 LP  0  0  0  0  0  0  0  0  0  0  0  0  # atno 17394 bound_to 11000
  140.3567  134.7723  157.4505 LP  0  0  0  0  0  0  0  0  0  0  0  0  # atno 17395 bound_to 11000

$$$$
