AV-unprocessed.smi:109|AV-procd|sdf|1047|dock2
  -GOLD-   2262018 93D 1   1.00000     0.00000
 Structure written by MMmdl.
 58 61  0  0  0  0  0  0  0  0  1 V2000
  150.3893  136.9907  158.8848 O   0  0  0  0  0  0  0  0  0  0  0  0
  149.1647  137.6465  158.6355 C   0  0  0  0  0  0  0  0  0  0  0  0
  148.1752  136.6721  157.9739 C   0  0  0  0  0  0  0  0  0  0  0  0
  147.9862  135.3426  158.7446 C   0  0  2  0  0  0  0  0  0  0  0  0
  147.3597  134.3545  157.8640 N   0  0  0  0  0  0  0  0  0  0  0  0
  147.8514  134.0744  156.6363 C   0  0  0  0  0  0  0  0  0  0  0  0
  149.1866  134.0774  156.3857 N   0  0  0  0  0  0  0  0  0  0  0  0
  149.6391  133.7959  155.1600 C   0  0  0  0  0  0  0  0  0  0  0  0
  148.9425  133.4889  154.0630 N   0  0  0  0  0  0  0  0  0  0  0  0
  147.6006  133.4885  154.3104 C   0  0  0  0  0  0  0  0  0  0  0  0
  146.9807  133.7689  155.5592 C   0  0  0  0  0  0  0  0  0  0  0  0
  145.6016  133.6676  155.4328 N   0  0  0  0  0  0  0  0  0  0  0  0
  145.4228  133.3397  154.1813 C   0  0  0  0  0  0  0  0  0  0  0  0
  146.5743  133.2104  153.4338 N   0  0  0  0  0  0  0  0  0  0  0  0
  146.7294  132.8410  151.9892 C   0  0  2  0  0  0  0  0  0  0  0  0
  146.2501  133.9128  151.2341 O   0  0  0  0  0  0  0  0  0  0  0  0
  145.1048  133.5303  150.4770 C   0  0  2  0  0  0  0  0  0  0  0  0
  144.0920  134.6870  150.4462 C   0  0  0  0  0  0  0  0  0  0  0  0
  144.4023  135.5921  149.4088 O   0  0  0  0  0  0  0  0  0  0  0  0
  144.5963  132.2394  151.1298 C   0  0  1  0  0  0  0  0  0  0  0  0
  143.9746  131.4025  150.1752 O   0  0  0  0  0  0  0  0  0  0  0  0
  145.8842  131.6046  151.6271 C   0  0  2  0  0  0  0  0  0  0  0  0
  145.6310  130.7314  152.7135 O   0  0  0  0  0  0  0  0  0  0  0  0
  147.1360  135.4885  160.0397 C   0  0  0  0  0  0  0  0  0  0  0  0
  147.6863  136.5610  161.0131 C   0  0  0  0  0  0  0  0  0  0  0  0
  146.8566  136.6642  162.3035 C   0  0  0  0  0  0  0  0  0  0  0  0
  146.7589  135.3112  163.0186 C   0  0  0  0  0  0  0  0  0  0  0  0
  146.1878  134.2449  162.0769 C   0  0  0  0  0  0  0  0  0  0  0  0
  147.0220  134.1364  160.7913 C   0  0  0  0  0  0  0  0  0  0  0  0
  147.8017  132.7015  151.8482 H   0  0  0  0  0  0  0  0  0  0  0  0
  145.4659  133.3209  149.4683 H   0  0  0  0  0  0  0  0  0  0  0  0
  143.9196  132.4605  151.9568 H   0  0  0  0  0  0  0  0  0  0  0  0
  146.3951  131.0745  150.8217 H   0  0  0  0  0  0  0  0  0  0  0  0
  151.0452  137.3500  158.3072 H   0  0  0  0  0  0  0  0  0  0  0  0
  148.7764  138.0249  159.5811 H   0  0  0  0  0  0  0  0  0  0  0  0
  149.3483  138.5051  157.9891 H   0  0  0  0  0  0  0  0  0  0  0  0
  147.2236  137.1957  157.8990 H   0  0  0  0  0  0  0  0  0  0  0  0
  148.4924  136.4619  156.9513 H   0  0  0  0  0  0  0  0  0  0  0  0
  148.9723  135.0032  159.0612 H   0  0  0  0  0  0  0  0  0  0  0  0
  146.6391  133.7929  158.2946 H   0  0  0  0  0  0  0  0  0  0  0  0
  150.7124  133.8184  155.0426 H   0  0  0  0  0  0  0  0  0  0  0  0
  144.4373  133.1805  153.7713 H   0  0  0  0  0  0  0  0  0  0  0  0
  143.0736  134.3206  150.3191 H   0  0  0  0  0  0  0  0  0  0  0  0
  144.1218  135.2332  151.3892 H   0  0  0  0  0  0  0  0  0  0  0  0
  144.8798  135.1289  148.7376 H   0  0  0  0  0  0  0  0  0  0  0  0
  143.4552  131.9428  149.5993 H   0  0  0  0  0  0  0  0  0  0  0  0
  145.8807  129.8562  152.4585 H   0  0  0  0  0  0  0  0  0  0  0  0
  146.1298  135.7943  159.7481 H   0  0  0  0  0  0  0  0  0  0  0  0
  148.7234  136.3337  161.2631 H   0  0  0  0  0  0  0  0  0  0  0  0
  147.6866  137.5454  160.5480 H   0  0  0  0  0  0  0  0  0  0  0  0
  147.2992  137.4045  162.9707 H   0  0  0  0  0  0  0  0  0  0  0  0
  145.8549  137.0243  162.0647 H   0  0  0  0  0  0  0  0  0  0  0  0
  147.7468  135.0056  163.3651 H   0  0  0  0  0  0  0  0  0  0  0  0
  146.1318  135.4011  163.9061 H   0  0  0  0  0  0  0  0  0  0  0  0
  146.1596  133.2798  162.5835 H   0  0  0  0  0  0  0  0  0  0  0  0
  145.1558  134.4919  161.8244 H   0  0  0  0  0  0  0  0  0  0  0  0
  146.5672  133.3762  160.1559 H   0  0  0  0  0  0  0  0  0  0  0  0
  148.0194  133.7697  161.0371 H   0  0  0  0  0  0  0  0  0  0  0  0
  1  2  1  0  0  0  0
  1 34  1  0  0  0  0
  2  3  1  0  0  0  0
  2 35  1  0  0  0  0
  2 36  1  0  0  0  0
  3  4  1  0  0  0  0
  3 37  1  0  0  0  0
  3 38  1  0  0  0  0
  4  5  1  0  0  0  0
  4 24  1  0  0  0  0
  4 39  1  0  0  0  0
  5  6  1  0  0  0  0
  5 40  1  0  0  0  0
  6 11  1  0  0  0  0
  6  7  2  0  0  0  0
  7  8  1  0  0  0  0
  8  9  2  0  0  0  0
  8 41  1  0  0  0  0
  9 10  1  0  0  0  0
 10 14  1  0  0  0  0
 10 11  2  0  0  0  0
 11 12  1  0  0  0  0
 12 13  2  0  0  0  0
 13 14  1  0  0  0  0
 13 42  1  0  0  0  0
 14 15  1  0  0  0  0
 15 30  1  0  0  0  0
 15 22  1  0  0  0  0
 15 16  1  0  0  0  0
 16 17  1  0  0  0  0
 17 31  1  0  0  0  0
 17 18  1  0  0  0  0
 17 20  1  0  0  0  0
 18 19  1  0  0  0  0
 18 43  1  0  0  0  0
 18 44  1  0  0  0  0
 19 45  1  0  0  0  0
 20 32  1  0  0  0  0
 20 21  1  0  0  0  0
 20 22  1  0  0  0  0
 21 46  1  0  0  0  0
 22 33  1  0  0  0  0
 22 23  1  0  0  0  0
 23 47  1  0  0  0  0
 24 29  1  0  0  0  0
 24 25  1  0  0  0  0
 24 48  1  0  0  0  0
 25 26  1  0  0  0  0
 25 49  1  0  0  0  0
 25 50  1  0  0  0  0
 26 27  1  0  0  0  0
 26 51  1  0  0  0  0
 26 52  1  0  0  0  0
 27 28  1  0  0  0  0
 27 53  1  0  0  0  0
 27 54  1  0  0  0  0
 28 29  1  0  0  0  0
 28 55  1  0  0  0  0
 28 56  1  0  0  0  0
 29 57  1  0  0  0  0
 29 58  1  0  0  0  0
M  END
> <s_m_source_file>
AV-unprocessed.smi

> <i_m_source_file_index>
109

> <i_lp_mmshare_version>
43012

> <i_f3d_flags>
0

> <s_epik_input>
W0NIMl0xW0NIMl1bQ0gyXVtDSDJdW0NIMl1bQ0hdMVtDQEhdKFtDSDJdW0NIMl1bT0hdKVtOSF1jKG5bY0hdbjIpYyhjMjMpbltjSF1uM1tDQEBIXTRPW0NASF0oW0NIMl1bT0hdKVtDQEBIXShbT0hdKVtDQEhdNFtPSF0=

> <s_epik_cmdline>
J2VwaWtfcHl0aG9uJywgJy1waCcsICc3LjAnLCAnLXRuJywgJzgnLCAnLW1hJywgJzIwMCcsICctbWV0YWxfYmluZGluZycsICctaW1hZScsICc8aW5maWxlLm1hZT4nLCAnLW9tYWUnLCAnPG91dGZpbGUubWFlPic=

> <r_lp_tautomer_probability>
1

> <r_epik_Ionization_Penalty>
0.000793976

> <r_epik_Ionization_Penalty_Charging>
0

> <r_epik_Ionization_Penalty_Neutral>
0.000793976

> <r_epik_State_Penalty>
-0

> <r_epik_Charging_Adjusted_Penalty>
0

> <i_epik_Tot_Q>
0

> <i_epik_Tot_abs_Q>
0

> <r_epik_Metal_State_Penalty>
-0

> <b_epik_Metal_Only>
0

> <s_epik_Chemistry_Notes>
This compound contains an acetal/aminal-like group ( X-CH(R)-Y where X, Y are N, S, or O) that may be acid/base labile, releasing an aldehyde.

> <s_lp_Force_Field>
OPLS_2005

> <r_lp_Energy>
53.0649

> <b_lp_Chiralities_Consistent>
1

> <s_lp_Variant>
AV-unprocessed.smi:109-17

> <Gold.Version>
5.8.1

> <Gold.Id.Protein>
6NUR|6NUR_protein|mol2

> <Gold.PLP.Fitness>
50.8335

> <Gold.PLP.PLP>
-43.3257

> <Gold.PLP.part.hbond>
-4.0567

> <Gold.PLP.part.metal>
0.0000

> <Gold.PLP.part.buried>
-8.8386

> <Gold.PLP.part.nonpolar>
-32.8299

> <Gold.PLP.part.repulsive>
0.4437

> <Gold.PLP.ligand.clash>
0.0000

> <Gold.PLP.ligand.torsion>
0.9120

> <Gold.PLP.Chemscore.Hbond>
2.0000

> <Gold.PLP.Chemscore.CHOScore>
0.9450

> <Gold.PLP.Chemscore.Metal>
0.0000

> <Gold.Chemscore.Hbonds>
donor molecule, donor type, donor heavy atom, donor atom, acceptor molecule, acceptor atom, score
      L1  H    19    45       P1  7921  1.00
      P1  H  6896  6907       L1     1  0.42
      L1  C    13    42       P1 10957  0.91

> <Gold.PLP.Chemscore.Internal.Correction>
0.4968

> <Gold.Rescore>
     Score         DG    S(hbond)    S(metal)    S(lipo)     H(rot)  DE(clash)    DE(int)     intcor
      7.31      -8.04       1.96        0.00      85.45       5.47       0.10       0.63       ----

> <Gold.Chemscore.Fitness>
7.3119

> <Gold.Chemscore.DG>
-8.0417

> <Gold.Chemscore.ZeroCoef>
-5.4800

> <Gold.Chemscore.Hbond>
1.9633

> <Gold.Chemscore.Metal>
0.0000

> <Gold.Chemscore.Lipo>
85.4500

> <Gold.Chemscore.Internal_Hbond>
0.0000

> <Gold.Chemscore.DEClash>
0.1045

> <Gold.Chemscore.DEInternal>
0.6253

> <Gold.Chemscore.Rot>
5.4662

> <Gold.Chemscore.Internal.Correction>
   9.000000E+99

> <Gold.Chemscore.Hbonds>
donor molecule, donor type, donor heavy atom, donor atom, acceptor molecule, acceptor atom, score
      L1  H    19    45       P1  7921  0.99
      P1  H  6896  6907       L1     1  0.32

> <Gold.Chemscore.Hbond.Weighted>
-6.5576

> <Gold.Chemscore.Metal.Weighted>
-0.0000

> <Gold.Chemscore.Lipo.Weighted>
-9.9976

> <Gold.Chemscore.Internal_Hbond.Weighted>
0.0000

> <Gold.Chemscore.DEClash.Weighted>
0.1045

> <Gold.Chemscore.DEInternal.Weighted>
0.6253

> <Gold.Chemscore.Rot.Weighted>
13.9935

> <Gold.Chemscore.Internal.Correction.Weighted>
   9.000000E+99

> <Gold.Protein.RotatedTorsions>
[ 6907 6896 6895 6894 ] final  -26.49 input  -60.11 | X-H torsion
[ 7974 7965 7964 7962 ] final -135.20 input  175.53 | X-H torsion
[ 8008 7997 7996 7995 ] final  148.69 input   59.86 | X-H torsion
[ 10167 10162 10161 10158 ] final -167.16 input  -65.29 | X-H torsion
[ 10718 10713 10712 10709 ] final -117.15 input   66.30 | X-H torsion
[ 10763 10752 10751 10750 ] final  136.21 input  -60.55 | X-H torsion
[ 11005 11000 10999 10996 ] final  -88.41 input  -57.11 | X-H torsion

> <Gold.Protein.ActiveResidues>
 VAL166  LYS551  ARG553  GLY616  TRP617  ASP618  TYR619  PRO620  LYS621  CYS622 
 ASP623  PHE694  ASN695  SER759  ASP760  ASP761  ALA762  ILE779  LEU786  VAL792 
 PHE793  MET794  SER795  GLU796  ALA797  LYS798  CYS799  TRP800  GLU811  SER814 

> <Gold.Protein.RotatedAtoms>
  151.1603  135.0270  159.8706 H   0  0  0  0  0  0  0  0  0  0  0  0  # atno 6907 bound_to 6896
  152.5451  134.1287  159.8440 H   0  0  0  0  0  0  0  0  0  0  0  0  # atno 6908 bound_to 6896
  151.1381  133.4944  159.2630 H   0  0  0  0  0  0  0  0  0  0  0  0  # atno 6909 bound_to 6896
  144.9035  140.6802  143.5070 H   0  0  0  0  0  0  0  0  0  0  0  0  # atno 7974 bound_to 7965
  156.2782  140.2122  156.5738 H   0  0  0  0  0  0  0  0  0  0  0  0  # atno 8008 bound_to 7997
  154.7114  140.0512  157.0576 H   0  0  0  0  0  0  0  0  0  0  0  0  # atno 8009 bound_to 7997
  155.0601  140.3165  155.4666 H   0  0  0  0  0  0  0  0  0  0  0  0  # atno 8010 bound_to 7997
  139.6068  144.0897  152.1801 H   0  0  0  0  0  0  0  0  0  0  0  0  # atno 10167 bound_to 10162
  156.1014  130.6175  150.9128 H   0  0  0  0  0  0  0  0  0  0  0  0  # atno 10718 bound_to 10713
  153.8527  135.3077  155.3433 H   0  0  0  0  0  0  0  0  0  0  0  0  # atno 10763 bound_to 10752
  154.7884  135.4796  154.0000 H   0  0  0  0  0  0  0  0  0  0  0  0  # atno 10764 bound_to 10752
  153.1508  135.6843  153.8978 H   0  0  0  0  0  0  0  0  0  0  0  0  # atno 10765 bound_to 10752
  141.1602  133.7568  156.9447 H   0  0  0  0  0  0  0  0  0  0  0  0  # atno 11005 bound_to 11000
  145.3576  139.1690  143.4401 LP  0  0  0  0  0  0  0  0  0  0  0  0  # atno 17320 bound_to 7965
  146.3121  140.3635  142.8667 LP  0  0  0  0  0  0  0  0  0  0  0  0  # atno 17321 bound_to 7965
  140.0506  144.5935  150.7339 LP  0  0  0  0  0  0  0  0  0  0  0  0  # atno 17342 bound_to 10162
  140.7290  143.2668  151.4018 LP  0  0  0  0  0  0  0  0  0  0  0  0  # atno 17343 bound_to 10162
  157.6184  131.0931  150.8667 LP  0  0  0  0  0  0  0  0  0  0  0  0  # atno 17370 bound_to 10713
  156.8795  130.5174  149.5292 LP  0  0  0  0  0  0  0  0  0  0  0  0  # atno 17371 bound_to 10713
  140.1297  134.9363  157.2320 LP  0  0  0  0  0  0  0  0  0  0  0  0  # atno 17394 bound_to 11000
  140.2968  134.3177  155.7300 LP  0  0  0  0  0  0  0  0  0  0  0  0  # atno 17395 bound_to 11000

$$$$
