AV-unprocessed.smi:2019|AV-procd|sdf|8171|dock8
  -GOLD-   2272010423D 1   1.00000     0.00000
 Structure written by MMmdl.
 36 37  0  0  0  0  0  0  0  0  1 V2000
  151.4025  140.9654  157.5241 O   0  0  0  0  0  0  0  0  0  0  0  0
  150.9990  142.1094  157.3105 C   0  0  0  0  0  0  0  0  0  0  0  0
  151.7481  143.3254  157.8728 C   0  0  0  0  0  0  0  0  0  0  0  0
  152.1259  143.1700  159.2873 N   0  0  0  0  0  0  0  0  0  0  0  0
  152.8863  142.0336  159.6284 C   0  0  0  0  0  0  0  0  0  0  0  0
  153.2822  141.7962  160.8890 C   0  0  0  0  0  0  0  0  0  0  0  0
  152.9087  142.7443  161.9117 C   0  0  0  0  0  0  0  0  0  0  0  0
  152.1790  143.8330  161.5970 C   0  0  0  0  0  0  0  0  0  0  0  0
  151.7426  144.0956  160.2206 C   0  0  0  0  0  0  0  0  0  0  0  0
  151.0756  145.0873  159.9246 O   0  0  0  0  0  0  0  0  0  0  0  0
  149.9101  142.3790  156.5729 N   0  0  0  0  0  0  0  0  0  0  0  0
  149.0312  141.3816  155.9578 C   0  0  2  0  0  0  0  0  0  0  0  0
  148.3905  140.5576  157.0985 C   0  0  0  0  0  0  0  0  0  0  0  0
  147.0806  139.8568  156.6981 C   0  0  0  0  0  0  0  0  0  0  0  0
  147.2297  138.7681  155.6244 C   0  0  0  0  0  0  0  0  0  0  0  0
  147.7412  139.2978  154.2738 C   0  0  0  0  0  0  0  0  0  0  0  0
  149.1780  139.5392  154.2880 N   0  0  0  0  0  0  0  0  0  0  0  0
  149.8380  140.4351  155.0377 C   0  0  0  0  0  0  0  0  0  0  0  0
  151.0668  140.4961  154.9940 O   0  0  0  0  0  0  0  0  0  0  0  0
  152.6314  143.4933  157.2552 H   0  0  0  0  0  0  0  0  0  0  0  0
  151.1372  144.2215  157.7470 H   0  0  0  0  0  0  0  0  0  0  0  0
  153.1178  141.3706  158.8075 H   0  0  0  0  0  0  0  0  0  0  0  0
  153.8612  140.9175  161.1321 H   0  0  0  0  0  0  0  0  0  0  0  0
  153.2148  142.5787  162.9344 H   0  0  0  0  0  0  0  0  0  0  0  0
  151.9076  144.5309  162.3755 H   0  0  0  0  0  0  0  0  0  0  0  0
  149.6496  143.3470  156.4529 H   0  0  0  0  0  0  0  0  0  0  0  0
  148.2570  141.8937  155.3835 H   0  0  0  0  0  0  0  0  0  0  0  0
  149.0988  139.8320  157.5030 H   0  0  0  0  0  0  0  0  0  0  0  0
  148.1526  141.2247  157.9285 H   0  0  0  0  0  0  0  0  0  0  0  0
  146.6428  139.4057  157.5892 H   0  0  0  0  0  0  0  0  0  0  0  0
  146.3599  140.6026  156.3600 H   0  0  0  0  0  0  0  0  0  0  0  0
  147.8774  137.9676  155.9852 H   0  0  0  0  0  0  0  0  0  0  0  0
  146.2518  138.3120  155.4674 H   0  0  0  0  0  0  0  0  0  0  0  0
  147.5491  138.5529  153.5013 H   0  0  0  0  0  0  0  0  0  0  0  0
  147.2037  140.1981  153.9725 H   0  0  0  0  0  0  0  0  0  0  0  0
  149.7347  138.9455  153.6900 H   0  0  0  0  0  0  0  0  0  0  0  0
  1  2  2  0  0  0  0
  2  3  1  0  0  0  0
  2 11  1  0  0  0  0
  3  4  1  0  0  0  0
  3 20  1  0  0  0  0
  3 21  1  0  0  0  0
  4  9  1  0  0  0  0
  4  5  1  0  0  0  0
  5  6  2  0  0  0  0
  5 22  1  0  0  0  0
  6  7  1  0  0  0  0
  6 23  1  0  0  0  0
  7  8  2  0  0  0  0
  7 24  1  0  0  0  0
  8  9  1  0  0  0  0
  8 25  1  0  0  0  0
  9 10  2  0  0  0  0
 11 12  1  0  0  0  0
 11 26  1  0  0  0  0
 12 18  1  0  0  0  0
 12 13  1  0  0  0  0
 12 27  1  0  0  0  0
 13 14  1  0  0  0  0
 13 28  1  0  0  0  0
 13 29  1  0  0  0  0
 14 15  1  0  0  0  0
 14 30  1  0  0  0  0
 14 31  1  0  0  0  0
 15 16  1  0  0  0  0
 15 32  1  0  0  0  0
 15 33  1  0  0  0  0
 16 17  1  0  0  0  0
 16 34  1  0  0  0  0
 16 35  1  0  0  0  0
 17 18  1  0  0  0  0
 17 36  1  0  0  0  0
 18 19  2  0  0  0  0
M  END
> <s_m_source_file>
AV-unprocessed.smi

> <i_m_source_file_index>
2019

> <i_lp_mmshare_version>
43012

> <i_f3d_flags>
0

> <s_epik_input>
Tz1jMVtjSF1bY0hdW2NIXVtjSF1uMVtDSDJdQyg9TylbTkhdW0NAQEhdMltDSDJdW0NIMl1bQ0gyXVtDSDJdW05IXUMyPU8=

> <s_epik_cmdline>
J2VwaWtfcHl0aG9uJywgJy1waCcsICc3LjAnLCAnLXRuJywgJzgnLCAnLW1hJywgJzIwMCcsICctbWV0YWxfYmluZGluZycsICctaW1hZScsICc8aW5maWxlLm1hZT4nLCAnLW9tYWUnLCAnPG91dGZpbGUubWFlPic=

> <r_lp_tautomer_probability>
1

> <r_epik_Ionization_Penalty>
3.70786e-07

> <r_epik_Ionization_Penalty_Charging>
3.17464e-07

> <r_epik_Ionization_Penalty_Neutral>
5.33217e-08

> <r_epik_State_Penalty>
-0

> <r_epik_Charging_Adjusted_Penalty>
3.17464e-07

> <i_epik_Tot_Q>
0

> <i_epik_Tot_abs_Q>
0

> <r_epik_Metal_State_Penalty>
-0

> <b_epik_Metal_Only>
0

> <s_lp_Force_Field>
OPLS_2005

> <r_lp_Energy>
20.44

> <b_lp_Chiralities_Consistent>
1

> <s_lp_Variant>
AV-unprocessed.smi:2019-1

> <Gold.Version>
5.8.1

> <Gold.Id.Protein>
6NUR|6NUR_protein|mol2

> <Gold.PLP.Fitness>
43.9664

> <Gold.PLP.PLP>
-38.3908

> <Gold.PLP.part.hbond>
-2.4677

> <Gold.PLP.part.metal>
0.0000

> <Gold.PLP.part.buried>
-6.1107

> <Gold.PLP.part.nonpolar>
-30.6820

> <Gold.PLP.part.repulsive>
0.3609

> <Gold.PLP.ligand.clash>
0.0000

> <Gold.PLP.ligand.torsion>
0.2127

> <Gold.PLP.Chemscore.Hbond>
2.0000

> <Gold.PLP.Chemscore.CHOScore>
0.0000

> <Gold.PLP.Chemscore.Metal>
0.0000

> <Gold.Chemscore.Hbonds>
donor molecule, donor type, donor heavy atom, donor atom, acceptor molecule, acceptor atom, score
      L1  H    11    26       P1  8028  1.00
      P1  H  7989  7998       L1    19  1.00

> <Gold.PLP.Chemscore.Internal.Correction>
0.0010

> <Gold.Rescore>
     Score         DG    S(hbond)    S(metal)    S(lipo)     H(rot)  DE(clash)    DE(int)     intcor
     10.29     -15.93       1.96        0.00      68.20       1.59       0.04       5.60       ----

> <Gold.Chemscore.Fitness>
10.2888

> <Gold.Chemscore.DG>
-15.9307

> <Gold.Chemscore.ZeroCoef>
-5.4800

> <Gold.Chemscore.Hbond>
1.9615

> <Gold.Chemscore.Metal>
0.0000

> <Gold.Chemscore.Lipo>
68.2028

> <Gold.Chemscore.Internal_Hbond>
0.0000

> <Gold.Chemscore.DEClash>
0.0437

> <Gold.Chemscore.DEInternal>
5.5982

> <Gold.Chemscore.Rot>
1.5939

> <Gold.Chemscore.Internal.Correction>
   9.000000E+99

> <Gold.Chemscore.Hbonds>
donor molecule, donor type, donor heavy atom, donor atom, acceptor molecule, acceptor atom, score
      L1  H    11    26       P1  8028  0.99
      P1  H  7989  7998       L1    19  0.81

> <Gold.Chemscore.Hbond.Weighted>
-6.5514

> <Gold.Chemscore.Metal.Weighted>
-0.0000

> <Gold.Chemscore.Lipo.Weighted>
-7.9797

> <Gold.Chemscore.Internal_Hbond.Weighted>
0.0000

> <Gold.Chemscore.DEClash.Weighted>
0.0437

> <Gold.Chemscore.DEInternal.Weighted>
5.5982

> <Gold.Chemscore.Rot.Weighted>
4.0804

> <Gold.Chemscore.Internal.Correction.Weighted>
   9.000000E+99

> <Gold.Protein.RotatedTorsions>
[ 6907 6896 6895 6894 ] final  -99.01 input  -60.11 | X-H torsion
[ 7974 7965 7964 7962 ] final   66.16 input  175.53 | X-H torsion
[ 8008 7997 7996 7995 ] final -160.91 input   59.86 | X-H torsion
[ 10167 10162 10161 10158 ] final   54.49 input  -65.29 | X-H torsion
[ 10718 10713 10712 10709 ] final  -21.55 input   66.30 | X-H torsion
[ 10763 10752 10751 10750 ] final   44.54 input  -60.55 | X-H torsion
[ 11005 11000 10999 10996 ] final -140.47 input  -57.11 | X-H torsion

> <Gold.Protein.ActiveResidues>
 VAL166  LYS551  ARG553  GLY616  TRP617  ASP618  TYR619  PRO620  LYS621  CYS622 
 ASP623  PHE694  ASN695  SER759  ASP760  ASP761  ALA762  ILE779  LEU786  VAL792 
 PHE793  MET794  SER795  GLU796  ALA797  LYS798  CYS799  TRP800  GLU811  SER814 

> <Gold.Protein.RotatedAtoms>
  150.7065  134.1107  159.3998 H   0  0  0  0  0  0  0  0  0  0  0  0  # atno 6907 bound_to 6896
  151.9093  135.0343  160.0522 H   0  0  0  0  0  0  0  0  0  0  0  0  # atno 6908 bound_to 6896
  152.2349  133.5052  159.5273 H   0  0  0  0  0  0  0  0  0  0  0  0  # atno 6909 bound_to 6896
  145.8299  139.3133  143.0993 H   0  0  0  0  0  0  0  0  0  0  0  0  # atno 7974 bound_to 7965
  155.7845  140.0869  157.2042 H   0  0  0  0  0  0  0  0  0  0  0  0  # atno 8008 bound_to 7997
  154.3988  140.1501  156.3148 H   0  0  0  0  0  0  0  0  0  0  0  0  # atno 8009 bound_to 7997
  155.8621  140.3429  155.5766 H   0  0  0  0  0  0  0  0  0  0  0  0  # atno 8010 bound_to 7997
  140.2295  144.3702  150.6420 H   0  0  0  0  0  0  0  0  0  0  0  0  # atno 10167 bound_to 10162
  156.5166  130.4622  149.6619 H   0  0  0  0  0  0  0  0  0  0  0  0  # atno 10718 bound_to 10713
  152.9839  135.6067  154.3291 H   0  0  0  0  0  0  0  0  0  0  0  0  # atno 10763 bound_to 10752
  154.2995  135.2773  155.2619 H   0  0  0  0  0  0  0  0  0  0  0  0  # atno 10764 bound_to 10752
  154.4878  135.5900  153.6493 H   0  0  0  0  0  0  0  0  0  0  0  0  # atno 10765 bound_to 10752
  140.8420  134.2391  157.4805 H   0  0  0  0  0  0  0  0  0  0  0  0  # atno 11005 bound_to 11000
  145.9582  140.8856  143.0224 LP  0  0  0  0  0  0  0  0  0  0  0  0  # atno 17320 bound_to 7965
  144.6740  140.1775  143.7409 LP  0  0  0  0  0  0  0  0  0  0  0  0  # atno 17321 bound_to 7965
  140.6195  143.2175  151.6722 LP  0  0  0  0  0  0  0  0  0  0  0  0  # atno 17342 bound_to 10162
  139.5115  144.3507  152.0654 LP  0  0  0  0  0  0  0  0  0  0  0  0  # atno 17343 bound_to 10162
  156.3189  130.7270  151.2178 LP  0  0  0  0  0  0  0  0  0  0  0  0  # atno 17370 bound_to 10713
  157.7443  131.0461  150.4876 LP  0  0  0  0  0  0  0  0  0  0  0  0  # atno 17371 bound_to 10713
  139.8703  134.9640  156.4480 LP  0  0  0  0  0  0  0  0  0  0  0  0  # atno 17394 bound_to 11000
  140.8885  133.7865  155.9545 LP  0  0  0  0  0  0  0  0  0  0  0  0  # atno 17395 bound_to 11000

$$$$
