AV-unprocessed.smi:37|AV-procd|sdf|304|dock1
  -GOLD-   2262016113D 1   1.00000     0.00000
 Structure written by MMmdl.
 44 45  0  0  0  0  0  0  0  0  1 V2000
  146.6327  135.2868  162.5728 C   0  0  0  0  0  0  0  0  0  0  0  0
  147.3621  134.9515  161.2646 C   0  0  0  0  0  0  0  0  0  0  0  0
  147.9107  136.1972  160.5725 C   0  0  0  0  0  0  0  0  0  0  0  0
  147.6277  137.3289  160.9657 O   0  0  0  0  0  0  0  0  0  0  0  0
  148.6923  135.9007  159.5247 O   0  0  0  0  0  0  0  0  0  0  0  0
  149.2298  136.9399  158.7241 C   0  0  0  0  0  0  0  0  0  0  0  0
  150.0530  136.3575  157.5621 C   0  0  1  0  0  0  0  0  0  0  0  0
  149.4368  135.1677  157.0766 O   0  0  0  0  0  0  0  0  0  0  0  0
  149.7945  135.0240  155.7379 C   0  0  1  0  0  0  0  0  0  0  0  0
  148.9321  133.9603  155.0799 N   0  0  0  0  0  0  0  0  0  0  0  0
  148.0868  134.2560  154.0151 C   0  0  0  0  0  0  0  0  0  0  0  0
  147.3484  133.3220  153.3704 C   0  0  0  0  0  0  0  0  0  0  0  0
  146.5537  133.6916  152.3517 F   0  0  0  0  0  0  0  0  0  0  0  0
  147.4293  131.9163  153.7515 C   0  0  0  0  0  0  0  0  0  0  0  0
  146.7897  130.9998  153.2395 O   0  0  0  0  0  0  0  0  0  0  0  0
  148.3403  131.6516  154.7769 N   0  0  0  0  0  0  0  0  0  0  0  0
  149.1171  132.6038  155.4400 C   0  0  0  0  0  0  0  0  0  0  0  0
  149.9261  132.2377  156.2912 O   0  0  0  0  0  0  0  0  0  0  0  0
  149.5986  136.4500  155.2015 C   0  0  1  0  0  0  0  0  0  0  0  0
  147.6566  136.9335  155.0827 Br  0  0  0  0  0  0  0  0  0  0  0  0
  150.2649  137.2505  156.3200 C   0  0  1  0  0  0  0  0  0  0  0  0
  149.7554  138.5739  156.4538 O   0  0  0  0  0  0  0  0  0  0  0  0
  149.9987  139.4965  155.5077 C   0  0  0  0  0  0  0  0  0  0  0  0
  150.5439  139.2858  154.4227 O   0  0  0  0  0  0  0  0  0  0  0  0
  149.5030  140.8830  155.9233 C   0  0  0  0  0  0  0  0  0  0  0  0
  148.5864  141.5444  154.8834 C   0  0  0  0  0  0  0  0  0  0  0  0
  148.4578  130.6872  155.0519 H   0  0  0  0  0  0  0  0  0  0  0  0
  146.2219  134.3839  163.0244 H   0  0  0  0  0  0  0  0  0  0  0  0
  145.8052  135.9756  162.3993 H   0  0  0  0  0  0  0  0  0  0  0  0
  147.3038  135.7430  163.3016 H   0  0  0  0  0  0  0  0  0  0  0  0
  148.1874  134.2671  161.4625 H   0  0  0  0  0  0  0  0  0  0  0  0
  146.6823  134.4400  160.5830 H   0  0  0  0  0  0  0  0  0  0  0  0
  148.4233  137.5596  158.3292 H   0  0  0  0  0  0  0  0  0  0  0  0
  149.8591  137.5824  159.3410 H   0  0  0  0  0  0  0  0  0  0  0  0
  151.0351  136.0820  157.9486 H   0  0  0  0  0  0  0  0  0  0  0  0
  150.8197  134.6602  155.6390 H   0  0  0  0  0  0  0  0  0  0  0  0
  148.0066  135.2708  153.6572 H   0  0  0  0  0  0  0  0  0  0  0  0
  150.0672  136.5944  154.2280 H   0  0  0  0  0  0  0  0  0  0  0  0
  151.3397  137.2883  156.1338 H   0  0  0  0  0  0  0  0  0  0  0  0
  148.9738  140.7892  156.8718 H   0  0  0  0  0  0  0  0  0  0  0  0
  150.3688  141.5195  156.1079 H   0  0  0  0  0  0  0  0  0  0  0  0
  148.2560  142.5231  155.2313 H   0  0  0  0  0  0  0  0  0  0  0  0
  147.6958  140.9426  154.6977 H   0  0  0  0  0  0  0  0  0  0  0  0
  149.1017  141.6894  153.9332 H   0  0  0  0  0  0  0  0  0  0  0  0
  1  2  1  0  0  0  0
  1 28  1  0  0  0  0
  1 29  1  0  0  0  0
  1 30  1  0  0  0  0
  2  3  1  0  0  0  0
  2 31  1  0  0  0  0
  2 32  1  0  0  0  0
  3  4  2  0  0  0  0
  3  5  1  0  0  0  0
  5  6  1  0  0  0  0
  6  7  1  0  0  0  0
  6 33  1  0  0  0  0
  6 34  1  0  0  0  0
  7 21  1  0  0  0  0
  7  8  1  0  0  0  0
  7 35  1  0  0  0  0
  8  9  1  0  0  0  0
  9 10  1  0  0  0  0
  9 19  1  0  0  0  0
  9 36  1  0  0  0  0
 10 17  1  0  0  0  0
 10 11  1  0  0  0  0
 11 12  2  0  0  0  0
 11 37  1  0  0  0  0
 12 13  1  0  0  0  0
 12 14  1  0  0  0  0
 14 15  2  0  0  0  0
 14 16  1  0  0  0  0
 16 27  1  0  0  0  0
 16 17  1  0  0  0  0
 17 18  2  0  0  0  0
 19 20  1  0  0  0  0
 19 21  1  0  0  0  0
 19 38  1  0  0  0  0
 21 22  1  0  0  0  0
 21 39  1  0  0  0  0
 22 23  1  0  0  0  0
 23 24  2  0  0  0  0
 23 25  1  0  0  0  0
 25 26  1  0  0  0  0
 25 40  1  0  0  0  0
 25 41  1  0  0  0  0
 26 42  1  0  0  0  0
 26 43  1  0  0  0  0
 26 44  1  0  0  0  0
M  END
> <s_m_source_file>
AV-unprocessed.smi

> <i_m_source_file_index>
37

> <i_lp_mmshare_version>
43012

> <i_f3d_flags>
0

> <s_epik_input>
W0NIM11bQ0gyXUMoPU8pT1tDSDJdW0NAQEhdMU9bQ0BASF0objJbY0hdYyhGKWMoPU8pW25IXWMyPU8pW0NAQEhdKEJyKVtDQEhdMU9DKD1PKVtDSDJdW0NIM10=

> <s_epik_cmdline>
J2VwaWtfcHl0aG9uJywgJy1waCcsICc3LjAnLCAnLXRuJywgJzgnLCAnLW1hJywgJzIwMCcsICctbWV0YWxfYmluZGluZycsICctaW1hZScsICc8aW5maWxlLm1hZT4nLCAnLW9tYWUnLCAnPG91dGZpbGUubWFlPic=

> <r_lp_tautomer_probability>
0.999537

> <r_epik_Ionization_Penalty>
0.104106

> <r_epik_Ionization_Penalty_Charging>
0.104106

> <r_epik_Ionization_Penalty_Neutral>
3.94675e-16

> <r_epik_State_Penalty>
0.0940182

> <r_epik_Charging_Adjusted_Penalty>
0.198124

> <i_epik_Tot_Q>
0

> <i_epik_Tot_abs_Q>
0

> <r_epik_Metal_State_Penalty>
3.05314

> <b_epik_Metal_Only>
0

> <s_epik_Chemistry_Notes>
This compound has an ester and may undergo hydrolysis at high or low pH. This compound contains an acetal/aminal-like group ( X-CH(R)-Y where X, Y are N, S, or O) that may be acid/base labile, releasing an aldehyde.

> <s_lp_Force_Field>
OPLS_2005

> <r_lp_Energy>
30.4871

> <b_lp_Chiralities_Consistent>
1

> <s_lp_Variant>
AV-unprocessed.smi:37-2

> <Gold.Version>
5.8.1

> <Gold.Id.Protein>
6NUR|6NUR_protein|mol2

> <Gold.PLP.Fitness>
49.3038

> <Gold.PLP.PLP>
-40.3972

> <Gold.PLP.part.hbond>
-5.1315

> <Gold.PLP.part.metal>
0.0000

> <Gold.PLP.part.buried>
-6.3239

> <Gold.PLP.part.nonpolar>
-31.2362

> <Gold.PLP.part.repulsive>
0.1884

> <Gold.PLP.ligand.clash>
2.8113

> <Gold.PLP.ligand.torsion>
0.5155

> <Gold.PLP.Chemscore.Hbond>
3.1453

> <Gold.PLP.Chemscore.CHOScore>
0.9873

> <Gold.PLP.Chemscore.Metal>
0.0000

> <Gold.Chemscore.Hbonds>
donor molecule, donor type, donor heavy atom, donor atom, acceptor molecule, acceptor atom, score
      P1  H  6931  6943       L1     4  0.80
      P1  H  6934  6947       L1     4  0.91
      P1  H  7989  7998       L1    24  0.76
      L1  C    11    37       P1  7948  0.97

> <Gold.PLP.Chemscore.Internal.Correction>
0.3509

> <Gold.Rescore>
     Score         DG    S(hbond)    S(metal)    S(lipo)     H(rot)  DE(clash)    DE(int)     intcor
     10.85     -12.85       2.76        0.00      57.08       3.33       0.08       1.92       ----

> <Gold.Chemscore.Fitness>
10.8515

> <Gold.Chemscore.DG>
-12.8514

> <Gold.Chemscore.ZeroCoef>
-5.4800

> <Gold.Chemscore.Hbond>
2.7599

> <Gold.Chemscore.Metal>
0.0000

> <Gold.Chemscore.Lipo>
57.0833

> <Gold.Chemscore.Internal_Hbond>
0.0000

> <Gold.Chemscore.DEClash>
0.0825

> <Gold.Chemscore.DEInternal>
1.9174

> <Gold.Chemscore.Rot>
3.3303

> <Gold.Chemscore.Internal.Correction>
   9.000000E+99

> <Gold.Chemscore.Hbonds>
donor molecule, donor type, donor heavy atom, donor atom, acceptor molecule, acceptor atom, score
      P1  H  6931  6943       L1     4  0.73
      P1  H  6934  6947       L1     4  0.90
      P1  H  7989  7998       L1    24  0.72

> <Gold.Chemscore.Hbond.Weighted>
-9.2182

> <Gold.Chemscore.Metal.Weighted>
-0.0000

> <Gold.Chemscore.Lipo.Weighted>
-6.6787

> <Gold.Chemscore.Internal_Hbond.Weighted>
0.0000

> <Gold.Chemscore.DEClash.Weighted>
0.0825

> <Gold.Chemscore.DEInternal.Weighted>
1.9174

> <Gold.Chemscore.Rot.Weighted>
8.5256

> <Gold.Chemscore.Internal.Correction.Weighted>
   9.000000E+99

> <Gold.Protein.RotatedTorsions>
[ 6907 6896 6895 6894 ] final  149.67 input  -60.11 | X-H torsion
[ 7974 7965 7964 7962 ] final  -55.41 input  175.53 | X-H torsion
[ 8008 7997 7996 7995 ] final  152.49 input   59.86 | X-H torsion
[ 10167 10162 10161 10158 ] final   80.01 input  -65.29 | X-H torsion
[ 10718 10713 10712 10709 ] final  140.74 input   66.30 | X-H torsion
[ 10763 10752 10751 10750 ] final   43.98 input  -60.55 | X-H torsion
[ 11005 11000 10999 10996 ] final   72.85 input  -57.11 | X-H torsion

> <Gold.Protein.ActiveResidues>
 VAL166  LYS551  ARG553  GLY616  TRP617  ASP618  TYR619  PRO620  LYS621  CYS622 
 ASP623  PHE694  ASN695  SER759  ASP760  ASP761  ALA762  ILE779  LEU786  VAL792 
 PHE793  MET794  SER795  GLU796  ALA797  LYS798  CYS799  TRP800  GLU811  SER814 

> <Gold.Protein.RotatedAtoms>
  152.1248  133.4374  159.4692 H   0  0  0  0  0  0  0  0  0  0  0  0  # atno 6907 bound_to 6896
  150.6874  134.2491  159.4513 H   0  0  0  0  0  0  0  0  0  0  0  0  # atno 6908 bound_to 6896
  152.0371  134.9733  160.0624 H   0  0  0  0  0  0  0  0  0  0  0  0  # atno 6909 bound_to 6896
  145.8744  140.8192  142.9871 H   0  0  0  0  0  0  0  0  0  0  0  0  # atno 7974 bound_to 7965
  156.2627  140.2019  156.6341 H   0  0  0  0  0  0  0  0  0  0  0  0  # atno 8008 bound_to 7997
  154.6660  140.0555  157.0139 H   0  0  0  0  0  0  0  0  0  0  0  0  # atno 8009 bound_to 7997
  155.1206  140.3224  155.4501 H   0  0  0  0  0  0  0  0  0  0  0  0  # atno 8010 bound_to 7997
  139.9543  144.6005  150.8132 H   0  0  0  0  0  0  0  0  0  0  0  0  # atno 10167 bound_to 10162
  157.3999  131.1015  151.0562 H   0  0  0  0  0  0  0  0  0  0  0  0  # atno 10718 bound_to 10713
  152.9850  135.6084  154.3200 H   0  0  0  0  0  0  0  0  0  0  0  0  # atno 10763 bound_to 10752
  154.2910  135.2775  155.2656 H   0  0  0  0  0  0  0  0  0  0  0  0  # atno 10764 bound_to 10752
  154.4951  135.5881  153.6545 H   0  0  0  0  0  0  0  0  0  0  0  0  # atno 10765 bound_to 10752
  139.9470  134.7295  156.0956 H   0  0  0  0  0  0  0  0  0  0  0  0  # atno 11005 bound_to 11000
  144.6726  140.1288  143.7445 LP  0  0  0  0  0  0  0  0  0  0  0  0  # atno 17320 bound_to 7965
  145.9098  139.2480  143.1444 LP  0  0  0  0  0  0  0  0  0  0  0  0  # atno 17321 bound_to 7965
  140.7573  143.3084  151.2905 LP  0  0  0  0  0  0  0  0  0  0  0  0  # atno 17342 bound_to 10162
  139.6604  144.0200  152.2688 LP  0  0  0  0  0  0  0  0  0  0  0  0  # atno 17343 bound_to 10162
  157.1565  130.6207  149.5597 LP  0  0  0  0  0  0  0  0  0  0  0  0  # atno 17370 bound_to 10713
  155.9820  130.4831  150.6860 LP  0  0  0  0  0  0  0  0  0  0  0  0  # atno 17371 bound_to 10713
  141.1123  133.6639  156.3008 LP  0  0  0  0  0  0  0  0  0  0  0  0  # atno 17394 bound_to 11000
  140.5811  134.5745  157.5479 LP  0  0  0  0  0  0  0  0  0  0  0  0  # atno 17395 bound_to 11000

$$$$
