AV-unprocessed.smi:3014|AV-procd|sdf|11466|dock7
  -GOLD-   2272016403D 1   1.00000     0.00000
 Structure written by MMmdl.
 45 46  0  0  0  0  0  0  0  0  1 V2000
  152.8818  144.3396  159.7110 C   0  0  0  0  0  0  0  0  0  0  0  0
  152.8855  142.9172  159.1331 C   0  0  2  0  0  0  0  0  0  0  0  0
  151.8125  142.7529  158.0396 C   0  0  0  0  0  0  0  0  0  0  0  0
  151.8027  141.3277  157.4647 C   0  0  0  0  0  0  0  0  0  0  0  0
  151.6232  140.2782  158.5740 C   0  0  0  0  0  0  0  0  0  0  0  0
  152.6903  140.4225  159.6732 C   0  0  1  0  0  0  0  0  0  0  0  0
  153.9480  140.0948  159.0961 O   0  0  0  0  0  0  0  0  0  0  0  0
  155.0714  140.3125  159.9413 C   0  0  0  0  0  0  0  0  0  0  0  0
  155.0597  139.2994  161.0889 C   0  0  0  0  0  0  0  0  0  0  0  0
  155.1962  138.1041  160.8292 O   0  0  0  0  0  0  0  0  0  0  0  0
  154.9107  139.7983  162.3313 N   0  0  0  0  0  0  0  0  0  0  0  0
  154.8327  139.0928  163.5594 C   0  0  0  0  0  0  0  0  0  0  0  0
  154.5080  137.7227  163.4622 C   0  0  0  0  0  0  0  0  0  0  0  0
  154.4291  136.9957  164.6655 C   0  0  0  0  0  0  0  0  0  0  0  0
  154.6544  137.5758  165.8619 N   0  0  0  0  0  0  0  0  0  0  0  0
  154.9584  138.8793  165.8657 C   0  0  0  0  0  0  0  0  0  0  0  0
  155.1980  139.4837  167.1029 N   0  0  0  0  0  0  0  0  0  0  0  0
  154.9345  140.9047  167.3120 C   0  0  0  0  0  0  0  0  0  0  0  0
  155.7469  138.7237  168.2221 C   0  0  0  0  0  0  0  0  0  0  0  0
  155.0539  139.6502  164.7748 N   0  0  0  0  0  0  0  0  0  0  0  0
  152.6956  141.8592  160.2389 C   0  0  0  0  0  0  0  0  0  0  0  0
  151.9295  144.5709  160.1892 H   0  0  0  0  0  0  0  0  0  0  0  0
  153.0505  145.0808  158.9294 H   0  0  0  0  0  0  0  0  0  0  0  0
  153.6679  144.4629  160.4563 H   0  0  0  0  0  0  0  0  0  0  0  0
  153.8620  142.7545  158.6743 H   0  0  0  0  0  0  0  0  0  0  0  0
  150.8289  142.9838  158.4510 H   0  0  0  0  0  0  0  0  0  0  0  0
  151.9862  143.4687  157.2354 H   0  0  0  0  0  0  0  0  0  0  0  0
  151.0035  141.2303  156.7295 H   0  0  0  0  0  0  0  0  0  0  0  0
  152.7354  141.1426  156.9305 H   0  0  0  0  0  0  0  0  0  0  0  0
  150.6320  140.3882  159.0156 H   0  0  0  0  0  0  0  0  0  0  0  0
  151.6588  139.2751  158.1476 H   0  0  0  0  0  0  0  0  0  0  0  0
  152.4594  139.7122  160.4690 H   0  0  0  0  0  0  0  0  0  0  0  0
  156.0052  140.2041  159.3898 H   0  0  0  0  0  0  0  0  0  0  0  0
  155.0430  141.3208  160.3562 H   0  0  0  0  0  0  0  0  0  0  0  0
  154.8269  140.8023  162.3971 H   0  0  0  0  0  0  0  0  0  0  0  0
  154.3272  137.2452  162.5103 H   0  0  0  0  0  0  0  0  0  0  0  0
  154.1850  135.9438  164.6670 H   0  0  0  0  0  0  0  0  0  0  0  0
  153.8915  141.1359  167.0926 H   0  0  0  0  0  0  0  0  0  0  0  0
  155.5649  141.5071  166.6571 H   0  0  0  0  0  0  0  0  0  0  0  0
  155.1323  141.2097  168.3397 H   0  0  0  0  0  0  0  0  0  0  0  0
  156.7066  138.2839  167.9488 H   0  0  0  0  0  0  0  0  0  0  0  0
  155.0674  137.9188  168.5042 H   0  0  0  0  0  0  0  0  0  0  0  0
  155.9068  139.3490  169.1005 H   0  0  0  0  0  0  0  0  0  0  0  0
  153.4674  141.9707  160.9999 H   0  0  0  0  0  0  0  0  0  0  0  0
  151.7489  142.0402  160.7498 H   0  0  0  0  0  0  0  0  0  0  0  0
  1  2  1  0  0  0  0
  1 22  1  0  0  0  0
  1 23  1  0  0  0  0
  1 24  1  0  0  0  0
  2 21  1  0  0  0  0
  2  3  1  0  0  0  0
  2 25  1  0  0  0  0
  3  4  1  0  0  0  0
  3 26  1  0  0  0  0
  3 27  1  0  0  0  0
  4  5  1  0  0  0  0
  4 28  1  0  0  0  0
  4 29  1  0  0  0  0
  5  6  1  0  0  0  0
  5 30  1  0  0  0  0
  5 31  1  0  0  0  0
  6  7  1  0  0  0  0
  6 21  1  0  0  0  0
  6 32  1  0  0  0  0
  7  8  1  0  0  0  0
  8  9  1  0  0  0  0
  8 33  1  0  0  0  0
  8 34  1  0  0  0  0
  9 10  2  0  0  0  0
  9 11  1  0  0  0  0
 11 12  1  0  0  0  0
 11 35  1  0  0  0  0
 12 20  1  0  0  0  0
 12 13  2  0  0  0  0
 13 14  1  0  0  0  0
 13 36  1  0  0  0  0
 14 15  2  0  0  0  0
 14 37  1  0  0  0  0
 15 16  1  0  0  0  0
 16 17  1  0  0  0  0
 16 20  2  0  0  0  0
 17 18  1  0  0  0  0
 17 19  1  0  0  0  0
 18 38  1  0  0  0  0
 18 39  1  0  0  0  0
 18 40  1  0  0  0  0
 19 41  1  0  0  0  0
 19 42  1  0  0  0  0
 19 43  1  0  0  0  0
 21 44  1  0  0  0  0
 21 45  1  0  0  0  0
M  END
> <s_m_source_file>
AV-unprocessed.smi

> <i_m_source_file_index>
3014

> <i_lp_mmshare_version>
43012

> <i_f3d_flags>
0

> <s_epik_input>
W0NIM11bQ0BASF0xW0NIMl1bQ0gyXVtDSDJdW0NASF0oW0NIMl0xKU9bQ0gyXUMoPU8pW05IXWMyW2NIXVtjSF1uYyhuMilOKFtDSDNdKVtDSDNd

> <s_epik_cmdline>
J2VwaWtfcHl0aG9uJywgJy1waCcsICc3LjAnLCAnLXRuJywgJzgnLCAnLW1hJywgJzIwMCcsICctbWV0YWxfYmluZGluZycsICctaW1hZScsICc8aW5maWxlLm1hZT4nLCAnLW9tYWUnLCAnPG91dGZpbGUubWFlPic=

> <r_lp_tautomer_probability>
1

> <r_epik_Ionization_Penalty>
0.000308195

> <r_epik_Ionization_Penalty_Charging>
0

> <r_epik_Ionization_Penalty_Neutral>
0.000308195

> <r_epik_State_Penalty>
-0

> <r_epik_Charging_Adjusted_Penalty>
0

> <i_epik_Tot_Q>
0

> <i_epik_Tot_abs_Q>
0

> <r_epik_Metal_State_Penalty>
-0

> <b_epik_Metal_Only>
0

> <s_lp_Force_Field>
OPLS_2005

> <r_lp_Energy>
6.70314

> <b_lp_Chiralities_Consistent>
1

> <s_lp_Variant>
AV-unprocessed.smi:3014-1

> <Gold.Version>
5.8.1

> <Gold.Id.Protein>
6NUR|6NUR_protein|mol2

> <Gold.PLP.Fitness>
41.9002

> <Gold.PLP.PLP>
-40.2812

> <Gold.PLP.part.hbond>
-2.0000

> <Gold.PLP.part.metal>
0.0000

> <Gold.PLP.part.buried>
-5.3882

> <Gold.PLP.part.nonpolar>
-31.6203

> <Gold.PLP.part.repulsive>
0.1012

> <Gold.PLP.ligand.clash>
0.0740

> <Gold.PLP.ligand.torsion>
0.4995

> <Gold.PLP.Chemscore.Hbond>
0.8882

> <Gold.PLP.Chemscore.CHOScore>
0.0000

> <Gold.PLP.Chemscore.Metal>
0.0000

> <Gold.Chemscore.Hbonds>
donor molecule, donor type, donor heavy atom, donor atom, acceptor molecule, acceptor atom, score
      P1  H  7997  8010       L1     7  0.66

> <Gold.PLP.Chemscore.Internal.Correction>
0.0276

> <Gold.Rescore>
     Score         DG    S(hbond)    S(metal)    S(lipo)     H(rot)  DE(clash)    DE(int)     intcor
     11.12     -13.61       0.22        0.00      94.37       1.43       0.26       2.22       ----

> <Gold.Chemscore.Fitness>
11.1205

> <Gold.Chemscore.DG>
-13.6084

> <Gold.Chemscore.ZeroCoef>
-5.4800

> <Gold.Chemscore.Hbond>
0.2248

> <Gold.Chemscore.Metal>
0.0000

> <Gold.Chemscore.Lipo>
94.3664

> <Gold.Chemscore.Internal_Hbond>
0.0000

> <Gold.Chemscore.DEClash>
0.2645

> <Gold.Chemscore.DEInternal>
2.2234

> <Gold.Chemscore.Rot>
1.4310

> <Gold.Chemscore.Internal.Correction>
   9.000000E+99

> <Gold.Chemscore.Hbonds>
donor molecule, donor type, donor heavy atom, donor atom, acceptor molecule, acceptor atom, score
      P1  H  7997  8010       L1     7  0.09

> <Gold.Chemscore.Hbond.Weighted>
-0.7507

> <Gold.Chemscore.Metal.Weighted>
-0.0000

> <Gold.Chemscore.Lipo.Weighted>
-11.0409

> <Gold.Chemscore.Internal_Hbond.Weighted>
0.0000

> <Gold.Chemscore.DEClash.Weighted>
0.2645

> <Gold.Chemscore.DEInternal.Weighted>
2.2234

> <Gold.Chemscore.Rot.Weighted>
3.6632

> <Gold.Chemscore.Internal.Correction.Weighted>
   9.000000E+99

> <Gold.Protein.RotatedTorsions>
[ 6907 6896 6895 6894 ] final  178.14 input  -60.11 | X-H torsion
[ 7974 7965 7964 7962 ] final  119.74 input  175.53 | X-H torsion
[ 8008 7997 7996 7995 ] final    5.18 input   59.86 | X-H torsion
[ 10167 10162 10161 10158 ] final   72.04 input  -65.29 | X-H torsion
[ 10718 10713 10712 10709 ] final   50.75 input   66.30 | X-H torsion
[ 10763 10752 10751 10750 ] final   51.93 input  -60.55 | X-H torsion
[ 11005 11000 10999 10996 ] final  136.75 input  -57.11 | X-H torsion

> <Gold.Protein.ActiveResidues>
 VAL166  LYS551  ARG553  GLY616  TRP617  ASP618  TYR619  PRO620  LYS621  CYS622 
 ASP623  PHE694  ASN695  SER759  ASP760  ASP761  ALA762  ILE779  LEU786  VAL792 
 PHE793  MET794  SER795  GLU796  ALA797  LYS798  CYS799  TRP800  GLU811  SER814 

> <Gold.Protein.RotatedAtoms>
  151.6927  133.3311  159.3246 H   0  0  0  0  0  0  0  0  0  0  0  0  # atno 6907 bound_to 6896
  150.7771  134.6684  159.6387 H   0  0  0  0  0  0  0  0  0  0  0  0  # atno 6908 bound_to 6896
  152.3817  134.6583  160.0192 H   0  0  0  0  0  0  0  0  0  0  0  0  # atno 6909 bound_to 6896
  145.1396  139.3276  143.4623 H   0  0  0  0  0  0  0  0  0  0  0  0  # atno 7974 bound_to 7965
  154.7251  140.2719  155.6506 H   0  0  0  0  0  0  0  0  0  0  0  0  # atno 8008 bound_to 7997
  156.2834  140.2726  156.1860 H   0  0  0  0  0  0  0  0  0  0  0  0  # atno 8009 bound_to 7997
  155.0455  140.0371  157.2515 H   0  0  0  0  0  0  0  0  0  0  0  0  # atno 8010 bound_to 7997
  140.0395  144.5400  150.7445 H   0  0  0  0  0  0  0  0  0  0  0  0  # atno 10167 bound_to 10162
  157.4915  130.8379  149.8208 H   0  0  0  0  0  0  0  0  0  0  0  0  # atno 10718 bound_to 10713
  152.9787  135.5829  154.4495 H   0  0  0  0  0  0  0  0  0  0  0  0  # atno 10763 bound_to 10752
  154.4086  135.2769  155.2053 H   0  0  0  0  0  0  0  0  0  0  0  0  # atno 10764 bound_to 10752
  154.3853  135.6137  153.5867 H   0  0  0  0  0  0  0  0  0  0  0  0  # atno 10765 bound_to 10752
  140.0067  134.9456  157.0190 H   0  0  0  0  0  0  0  0  0  0  0  0  # atno 11005 bound_to 11000
  146.3506  140.1427  142.8594 LP  0  0  0  0  0  0  0  0  0  0  0  0  # atno 17320 bound_to 7965
  145.0547  140.9044  143.4974 LP  0  0  0  0  0  0  0  0  0  0  0  0  # atno 17321 bound_to 7965
  140.7266  143.2643  151.4098 LP  0  0  0  0  0  0  0  0  0  0  0  0  # atno 17342 bound_to 10162
  139.6023  144.1270  152.2211 LP  0  0  0  0  0  0  0  0  0  0  0  0  # atno 17343 bound_to 10162
  156.0176  130.3807  150.2062 LP  0  0  0  0  0  0  0  0  0  0  0  0  # atno 17370 bound_to 10713
  157.0250  130.9990  151.3328 LP  0  0  0  0  0  0  0  0  0  0  0  0  # atno 17371 bound_to 10713
  140.4628  134.1466  155.7193 LP  0  0  0  0  0  0  0  0  0  0  0  0  # atno 17394 bound_to 11000
  141.1682  133.8661  157.1651 LP  0  0  0  0  0  0  0  0  0  0  0  0  # atno 17395 bound_to 11000

$$$$
