AV-unprocessed.smi:1400|AV-procd|sdf|5686|dock2
  -GOLD-   22720 5313D 1   1.00000     0.00000
 Structure written by MMmdl.
 34 35  0  0  0  0  0  0  0  0  1 V2000
  149.5780  136.1581  156.8246 C   0  0  0  0  0  0  0  0  0  0  0  0
  150.6864  136.8634  156.0394 C   0  0  0  0  0  0  0  0  0  0  0  0
  151.8439  136.4746  156.1968 O   0  0  0  0  0  0  0  0  0  0  0  0
  150.3620  137.8764  155.2001 N   0  0  0  0  0  0  0  0  0  0  0  0
  148.9964  138.3997  155.0773 C   0  0  0  0  0  0  0  0  0  0  0  0
  148.9428  139.8029  155.7092 C   0  0  0  0  0  0  0  0  0  0  0  0
  149.9903  140.7450  155.0769 C   0  0  0  0  0  0  0  0  0  0  0  0
  150.0572  141.9926  155.8337 N   0  0  0  0  0  0  0  0  0  0  0  0
  150.7411  142.1867  156.9711 C   0  0  0  0  0  0  0  0  0  0  0  0
  151.4111  141.3135  157.5234 O   0  0  0  0  0  0  0  0  0  0  0  0
  150.5924  143.4472  157.4152 N   0  0  0  0  0  0  0  0  0  0  0  0
  151.1451  144.0393  158.5814 C   0  0  0  0  0  0  0  0  0  0  0  0
  151.0740  145.3436  158.8723 N   0  0  0  0  0  0  0  0  0  0  0  0
  151.7049  145.6462  160.0816 C   0  0  0  0  0  0  0  0  0  0  0  0
  152.2551  144.5527  160.7027 C   0  0  0  0  0  0  0  0  0  0  0  0
  152.0007  143.0902  159.7881 S   0  0  0  0  0  0  0  0  0  0  0  0
  151.3871  140.0894  155.0288 C   0  0  0  0  0  0  0  0  0  0  0  0
  151.3182  138.6758  154.4241 C   0  0  0  0  0  0  0  0  0  0  0  0
  148.8335  135.7354  156.1492 H   0  0  0  0  0  0  0  0  0  0  0  0
  149.0862  136.8514  157.5072 H   0  0  0  0  0  0  0  0  0  0  0  0
  149.9890  135.3408  157.4182 H   0  0  0  0  0  0  0  0  0  0  0  0
  148.7224  138.4521  154.0227 H   0  0  0  0  0  0  0  0  0  0  0  0
  148.2523  137.7538  155.5449 H   0  0  0  0  0  0  0  0  0  0  0  0
  147.9433  140.2244  155.5962 H   0  0  0  0  0  0  0  0  0  0  0  0
  149.1226  139.7164  156.7821 H   0  0  0  0  0  0  0  0  0  0  0  0
  149.6836  140.9374  154.0472 H   0  0  0  0  0  0  0  0  0  0  0  0
  149.5392  142.7732  155.4575 H   0  0  0  0  0  0  0  0  0  0  0  0
  150.0126  144.0545  156.8550 H   0  0  0  0  0  0  0  0  0  0  0  0
  151.7153  146.6697  160.4262 H   0  0  0  0  0  0  0  0  0  0  0  0
  152.7924  144.5195  161.6388 H   0  0  0  0  0  0  0  0  0  0  0  0
  152.0715  140.7098  154.4491 H   0  0  0  0  0  0  0  0  0  0  0  0
  151.8036  140.0265  156.0355 H   0  0  0  0  0  0  0  0  0  0  0  0
  152.3158  138.2416  154.3783 H   0  0  0  0  0  0  0  0  0  0  0  0
  150.9797  138.7317  153.3884 H   0  0  0  0  0  0  0  0  0  0  0  0
  1  2  1  0  0  0  0
  1 19  1  0  0  0  0
  1 20  1  0  0  0  0
  1 21  1  0  0  0  0
  2  3  2  0  0  0  0
  2  4  1  0  0  0  0
  4 18  1  0  0  0  0
  4  5  1  0  0  0  0
  5  6  1  0  0  0  0
  5 22  1  0  0  0  0
  5 23  1  0  0  0  0
  6  7  1  0  0  0  0
  6 24  1  0  0  0  0
  6 25  1  0  0  0  0
  7  8  1  0  0  0  0
  7 17  1  0  0  0  0
  7 26  1  0  0  0  0
  8  9  1  0  0  0  0
  8 27  1  0  0  0  0
  9 10  2  0  0  0  0
  9 11  1  0  0  0  0
 11 12  1  0  0  0  0
 11 28  1  0  0  0  0
 12 16  1  0  0  0  0
 12 13  2  0  0  0  0
 13 14  1  0  0  0  0
 14 15  2  0  0  0  0
 14 29  1  0  0  0  0
 15 16  1  0  0  0  0
 15 30  1  0  0  0  0
 17 18  1  0  0  0  0
 17 31  1  0  0  0  0
 17 32  1  0  0  0  0
 18 33  1  0  0  0  0
 18 34  1  0  0  0  0
M  END
> <s_m_source_file>
AV-unprocessed.smi

> <i_m_source_file_index>
1400

> <i_lp_mmshare_version>
43012

> <i_f3d_flags>
0

> <s_epik_input>
W0NIM11DKD1PKU4xW0NIMl1bQ0gyXVtDSF0oW0NIMl1bQ0gyXTEpW05IXUMoPU8pW05IXWMybltjSF1bY0hdczI=

> <s_epik_cmdline>
J2VwaWtfcHl0aG9uJywgJy1waCcsICc3LjAnLCAnLXRuJywgJzgnLCAnLW1hJywgJzIwMCcsICctbWV0YWxfYmluZGluZycsICctaW1hZScsICc8aW5maWxlLm1hZT4nLCAnLW9tYWUnLCAnPG91dGZpbGUubWFlPic=

> <r_lp_tautomer_probability>
1

> <r_epik_Ionization_Penalty>
0.000151384

> <r_epik_Ionization_Penalty_Charging>
0

> <r_epik_Ionization_Penalty_Neutral>
0.000151384

> <r_epik_State_Penalty>
-0

> <r_epik_Charging_Adjusted_Penalty>
0

> <i_epik_Tot_Q>
0

> <i_epik_Tot_abs_Q>
0

> <r_epik_Metal_State_Penalty>
0.0312905

> <b_epik_Metal_Only>
0

> <s_lp_Force_Field>
OPLS_2005

> <r_lp_Energy>
21.754

> <b_lp_Chiralities_Consistent>
1

> <s_lp_Variant>
AV-unprocessed.smi:1400-1

> <Gold.Version>
5.8.1

> <Gold.Id.Protein>
6NUR|6NUR_protein|mol2

> <Gold.PLP.Fitness>
40.0684

> <Gold.PLP.PLP>
-31.7488

> <Gold.PLP.part.hbond>
-3.3824

> <Gold.PLP.part.metal>
0.0000

> <Gold.PLP.part.buried>
-2.2977

> <Gold.PLP.part.nonpolar>
-26.1603

> <Gold.PLP.part.repulsive>
0.3192

> <Gold.PLP.ligand.clash>
0.0000

> <Gold.PLP.ligand.torsion>
0.2993

> <Gold.PLP.Chemscore.Hbond>
2.9672

> <Gold.PLP.Chemscore.CHOScore>
0.0000

> <Gold.PLP.Chemscore.Metal>
0.0000

> <Gold.Chemscore.Hbonds>
donor molecule, donor type, donor heavy atom, donor atom, acceptor molecule, acceptor atom, score
      L1  H     8    27       P1  8028  0.92
      L1  H    11    28       P1  8028  1.00
      P1  H 10752 10763       L1     3  1.00

> <Gold.PLP.Chemscore.Internal.Correction>
0.0165

> <Gold.Rescore>
     Score         DG    S(hbond)    S(metal)    S(lipo)     H(rot)  DE(clash)    DE(int)     intcor
     16.00     -20.27       2.82        0.00      67.74       1.00       1.49       2.77       ----

> <Gold.Chemscore.Fitness>
16.0046

> <Gold.Chemscore.DG>
-20.2711

> <Gold.Chemscore.ZeroCoef>
-5.4800

> <Gold.Chemscore.Hbond>
2.8218

> <Gold.Chemscore.Metal>
0.0000

> <Gold.Chemscore.Lipo>
67.7446

> <Gold.Chemscore.Internal_Hbond>
0.0000

> <Gold.Chemscore.DEClash>
1.4920

> <Gold.Chemscore.DEInternal>
2.7745

> <Gold.Chemscore.Rot>
1.0000

> <Gold.Chemscore.Internal.Correction>
   9.000000E+99

> <Gold.Chemscore.Hbonds>
donor molecule, donor type, donor heavy atom, donor atom, acceptor molecule, acceptor atom, score
      L1  H     8    27       P1  8028  0.83
      L1  H    11    28       P1  8028  0.97
      P1  H 10752 10763       L1     3  0.96

> <Gold.Chemscore.Hbond.Weighted>
-9.4250

> <Gold.Chemscore.Metal.Weighted>
-0.0000

> <Gold.Chemscore.Lipo.Weighted>
-7.9261

> <Gold.Chemscore.Internal_Hbond.Weighted>
0.0000

> <Gold.Chemscore.DEClash.Weighted>
1.4920

> <Gold.Chemscore.DEInternal.Weighted>
2.7745

> <Gold.Chemscore.Rot.Weighted>
2.5600

> <Gold.Chemscore.Internal.Correction.Weighted>
   9.000000E+99

> <Gold.Protein.RotatedTorsions>
[ 6907 6896 6895 6894 ] final   48.92 input  -60.11 | X-H torsion
[ 7974 7965 7964 7962 ] final -113.03 input  175.53 | X-H torsion
[ 8008 7997 7996 7995 ] final  168.93 input   59.86 | X-H torsion
[ 10167 10162 10161 10158 ] final  172.40 input  -65.29 | X-H torsion
[ 10718 10713 10712 10709 ] final   92.39 input   66.30 | X-H torsion
[ 10763 10752 10751 10750 ] final   80.29 input  -60.55 | X-H torsion
[ 11005 11000 10999 10996 ] final -160.13 input  -57.11 | X-H torsion

> <Gold.Protein.ActiveResidues>
 VAL166  LYS551  ARG553  GLY616  TRP617  ASP618  TYR619  PRO620  LYS621  CYS622 
 ASP623  PHE694  ASN695  SER759  ASP760  ASP761  ALA762  ILE779  LEU786  VAL792 
 PHE793  MET794  SER795  GLU796  ALA797  LYS798  CYS799  TRP800  GLU811  SER814 

> <Gold.Protein.RotatedAtoms>
  152.2850  134.7786  160.0388 H   0  0  0  0  0  0  0  0  0  0  0  0  # atno 6907 bound_to 6896
  151.8352  133.3409  159.3634 H   0  0  0  0  0  0  0  0  0  0  0  0  # atno 6908 bound_to 6896
  150.7205  134.5373  159.5774 H   0  0  0  0  0  0  0  0  0  0  0  0  # atno 6909 bound_to 6896
  145.1369  140.8756  143.3725 H   0  0  0  0  0  0  0  0  0  0  0  0  # atno 7974 bound_to 7965
  156.1503  140.1577  156.8781 H   0  0  0  0  0  0  0  0  0  0  0  0  # atno 8008 bound_to 7997
  154.5065  140.0812  156.7941 H   0  0  0  0  0  0  0  0  0  0  0  0  # atno 8009 bound_to 7997
  155.3909  140.3410  155.4253 H   0  0  0  0  0  0  0  0  0  0  0  0  # atno 8010 bound_to 7997
  139.5075  144.3378  152.0048 H   0  0  0  0  0  0  0  0  0  0  0  0  # atno 10167 bound_to 10162
  157.6958  131.0441  150.3874 H   0  0  0  0  0  0  0  0  0  0  0  0  # atno 10718 bound_to 10713
  153.1021  135.4808  154.8885 H   0  0  0  0  0  0  0  0  0  0  0  0  # atno 10763 bound_to 10752
  154.7390  135.3078  154.8763 H   0  0  0  0  0  0  0  0  0  0  0  0  # atno 10764 bound_to 10752
  153.9377  135.6837  153.4798 H   0  0  0  0  0  0  0  0  0  0  0  0  # atno 10765 bound_to 10752
  140.6349  134.4612  157.5231 H   0  0  0  0  0  0  0  0  0  0  0  0  # atno 11005 bound_to 11000
  145.0575  139.3132  143.5897 LP  0  0  0  0  0  0  0  0  0  0  0  0  # atno 17320 bound_to 7965
  146.3509  140.0005  142.8676 LP  0  0  0  0  0  0  0  0  0  0  0  0  # atno 17321 bound_to 7965
  140.2817  144.3852  150.6117 LP  0  0  0  0  0  0  0  0  0  0  0  0  # atno 17342 bound_to 10162
  140.6013  143.2167  151.7066 LP  0  0  0  0  0  0  0  0  0  0  0  0  # atno 17343 bound_to 10162
  156.4282  130.3966  149.6778 LP  0  0  0  0  0  0  0  0  0  0  0  0  # atno 17370 bound_to 10713
  156.4005  130.7672  151.2680 LP  0  0  0  0  0  0  0  0  0  0  0  0  # atno 17371 bound_to 10713
  139.9102  134.8361  156.1556 LP  0  0  0  0  0  0  0  0  0  0  0  0  # atno 17394 bound_to 11000
  141.0649  133.6824  156.2025 LP  0  0  0  0  0  0  0  0  0  0  0  0  # atno 17395 bound_to 11000

$$$$
