AV-unprocessed.smi:517|AV-procd|sdf|2789|dock4
  -GOLD-   2262023263D 1   1.00000     0.00000
 Structure written by MMmdl.
 35 36  0  0  0  0  0  0  0  0  1 V2000
  152.1128  144.3297  159.1820 C   0  0  0  0  0  0  0  0  0  0  0  0
  152.2021  143.0944  160.0807 C   0  0  0  0  0  0  0  0  0  0  0  0
  151.1672  142.1903  159.7328 O   0  0  0  0  0  0  0  0  0  0  0  0
  151.2292  141.7860  158.3749 C   0  0  0  0  0  0  0  0  0  0  0  0
  150.0712  140.8324  158.0486 C   0  0  0  0  0  0  0  0  0  0  0  0
  149.8247  140.7233  156.6163 N   0  0  0  0  0  0  0  0  0  0  0  0
  150.5900  140.1469  155.6496 C   0  0  0  0  0  0  0  0  0  0  0  0
  151.9046  139.4673  155.9280 C   0  0  1  0  0  0  0  0  0  0  0  0
  151.8421  137.9570  155.6587 C   0  0  0  0  0  0  0  0  0  0  0  0
  152.9549  140.0159  155.1592 O   0  0  0  0  0  0  0  0  0  0  0  0
  150.1117  140.2437  154.4066 N   0  0  0  0  0  0  0  0  0  0  0  0
  148.9167  140.9095  154.5848 C   0  0  0  0  0  0  0  0  0  0  0  0
  147.9351  141.3016  153.6465 C   0  0  0  0  0  0  0  0  0  0  0  0
  146.7741  141.9806  154.0700 C   0  0  0  0  0  0  0  0  0  0  0  0
  146.5796  142.2781  155.4344 C   0  0  0  0  0  0  0  0  0  0  0  0
  147.5472  141.8989  156.3846 C   0  0  0  0  0  0  0  0  0  0  0  0
  148.7044  141.2204  155.9567 C   0  0  0  0  0  0  0  0  0  0  0  0
  152.8774  145.0600  159.4471 H   0  0  0  0  0  0  0  0  0  0  0  0
  151.1404  144.8134  159.2760 H   0  0  0  0  0  0  0  0  0  0  0  0
  152.2567  144.0634  158.1348 H   0  0  0  0  0  0  0  0  0  0  0  0
  153.1765  142.6188  159.9610 H   0  0  0  0  0  0  0  0  0  0  0  0
  152.1041  143.3886  161.1266 H   0  0  0  0  0  0  0  0  0  0  0  0
  151.1828  142.6621  157.7261 H   0  0  0  0  0  0  0  0  0  0  0  0
  152.1781  141.2854  158.1772 H   0  0  0  0  0  0  0  0  0  0  0  0
  150.3041  139.8383  158.4317 H   0  0  0  0  0  0  0  0  0  0  0  0
  149.1591  141.1314  158.5629 H   0  0  0  0  0  0  0  0  0  0  0  0
  152.1833  139.5970  156.9707 H   0  0  0  0  0  0  0  0  0  0  0  0
  151.0597  137.4866  156.2528 H   0  0  0  0  0  0  0  0  0  0  0  0
  152.7854  137.4722  155.9118 H   0  0  0  0  0  0  0  0  0  0  0  0
  151.6313  137.7454  154.6096 H   0  0  0  0  0  0  0  0  0  0  0  0
  152.6770  140.8575  154.8322 H   0  0  0  0  0  0  0  0  0  0  0  0
  148.0753  141.0778  152.5992 H   0  0  0  0  0  0  0  0  0  0  0  0
  146.0293  142.2740  153.3448 H   0  0  0  0  0  0  0  0  0  0  0  0
  145.6873  142.7981  155.7507 H   0  0  0  0  0  0  0  0  0  0  0  0
  147.3997  142.1254  157.4299 H   0  0  0  0  0  0  0  0  0  0  0  0
  1  2  1  0  0  0  0
  1 18  1  0  0  0  0
  1 19  1  0  0  0  0
  1 20  1  0  0  0  0
  2  3  1  0  0  0  0
  2 21  1  0  0  0  0
  2 22  1  0  0  0  0
  3  4  1  0  0  0  0
  4  5  1  0  0  0  0
  4 23  1  0  0  0  0
  4 24  1  0  0  0  0
  5  6  1  0  0  0  0
  5 25  1  0  0  0  0
  5 26  1  0  0  0  0
  6 17  1  0  0  0  0
  6  7  1  0  0  0  0
  7  8  1  0  0  0  0
  7 11  2  0  0  0  0
  8  9  1  0  0  0  0
  8 10  1  0  0  0  0
  8 27  1  0  0  0  0
  9 28  1  0  0  0  0
  9 29  1  0  0  0  0
  9 30  1  0  0  0  0
 10 31  1  0  0  0  0
 11 12  1  0  0  0  0
 12 17  2  0  0  0  0
 12 13  1  0  0  0  0
 13 14  2  0  0  0  0
 13 32  1  0  0  0  0
 14 15  1  0  0  0  0
 14 33  1  0  0  0  0
 15 16  2  0  0  0  0
 15 34  1  0  0  0  0
 16 17  1  0  0  0  0
 16 35  1  0  0  0  0
M  END
> <s_m_source_file>
AV-unprocessed.smi

> <i_m_source_file_index>
517

> <i_lp_mmshare_version>
43012

> <i_f3d_flags>
0

> <s_epik_input>
W0NIM11bQ0gyXU9bQ0gyXVtDSDJdbihjKG4xKVtDQEhdKFtDSDNdKVtPSF0pYyhjMTIpW2NIXVtjSF1bY0hdW2NIXTI=

> <s_epik_cmdline>
J2VwaWtfcHl0aG9uJywgJy1waCcsICc3LjAnLCAnLXRuJywgJzgnLCAnLW1hJywgJzIwMCcsICctbWV0YWxfYmluZGluZycsICctaW1hZScsICc8aW5maWxlLm1hZT4nLCAnLW9tYWUnLCAnPG91dGZpbGUubWFlPic=

> <r_epik_Ionization_Penalty>
0.0517997

> <r_epik_Ionization_Penalty_Charging>
0

> <r_epik_Ionization_Penalty_Neutral>
0.0517997

> <r_epik_State_Penalty>
0.0443961

> <r_epik_Charging_Adjusted_Penalty>
0.0443961

> <i_epik_Tot_Q>
0

> <i_epik_Tot_abs_Q>
0

> <r_epik_Metal_State_Penalty>
4.60999e-05

> <b_epik_Metal_Only>
0

> <s_lp_Force_Field>
OPLS_2005

> <r_lp_Energy>
6.29619

> <b_lp_Chiralities_Consistent>
1

> <s_lp_Variant>
AV-unprocessed.smi:517-2

> <Gold.Version>
5.8.1

> <Gold.Id.Protein>
6NUR|6NUR_protein|mol2

> <Gold.PLP.Fitness>
41.3741

> <Gold.PLP.PLP>
-35.9603

> <Gold.PLP.part.hbond>
-3.6173

> <Gold.PLP.part.metal>
0.0000

> <Gold.PLP.part.buried>
-2.3803

> <Gold.PLP.part.nonpolar>
-30.0208

> <Gold.PLP.part.repulsive>
0.1132

> <Gold.PLP.ligand.clash>
0.0000

> <Gold.PLP.ligand.torsion>
0.2370

> <Gold.PLP.Chemscore.Hbond>
1.9500

> <Gold.PLP.Chemscore.CHOScore>
0.0000

> <Gold.PLP.Chemscore.Metal>
0.0000

> <Gold.Chemscore.Hbonds>
donor molecule, donor type, donor heavy atom, donor atom, acceptor molecule, acceptor atom, score
      P1  H  7989  7998       L1    11  0.99
      P1  H  7997  8009       L1    10  1.00

> <Gold.PLP.Chemscore.Internal.Correction>
0.0377

> <Gold.Rescore>
     Score         DG    S(hbond)    S(metal)    S(lipo)     H(rot)  DE(clash)    DE(int)     intcor
     12.62     -13.22       1.05        0.00      82.36       2.11       0.21       0.39       ----

> <Gold.Chemscore.Fitness>
12.6225

> <Gold.Chemscore.DG>
-13.2232

> <Gold.Chemscore.ZeroCoef>
-5.4800

> <Gold.Chemscore.Hbond>
1.0468

> <Gold.Chemscore.Metal>
0.0000

> <Gold.Chemscore.Lipo>
82.3606

> <Gold.Chemscore.Internal_Hbond>
0.0000

> <Gold.Chemscore.DEClash>
0.2126

> <Gold.Chemscore.DEInternal>
0.3881

> <Gold.Chemscore.Rot>
2.1052

> <Gold.Chemscore.Internal.Correction>
   9.000000E+99

> <Gold.Chemscore.Hbonds>
donor molecule, donor type, donor heavy atom, donor atom, acceptor molecule, acceptor atom, score
      P1  H  7989  7998       L1    11  0.28
      P1  H  7997  8009       L1    10  0.63

> <Gold.Chemscore.Hbond.Weighted>
-3.4965

> <Gold.Chemscore.Metal.Weighted>
-0.0000

> <Gold.Chemscore.Lipo.Weighted>
-9.6362

> <Gold.Chemscore.Internal_Hbond.Weighted>
0.0000

> <Gold.Chemscore.DEClash.Weighted>
0.2126

> <Gold.Chemscore.DEInternal.Weighted>
0.3881

> <Gold.Chemscore.Rot.Weighted>
5.3894

> <Gold.Chemscore.Internal.Correction.Weighted>
   9.000000E+99

> <Gold.Protein.RotatedTorsions>
[ 6907 6896 6895 6894 ] final -120.37 input  -60.11 | X-H torsion
[ 7974 7965 7964 7962 ] final   91.69 input  175.53 | X-H torsion
[ 8008 7997 7996 7995 ] final -134.71 input   59.86 | X-H torsion
[ 10167 10162 10161 10158 ] final   77.67 input  -65.29 | X-H torsion
[ 10718 10713 10712 10709 ] final  110.30 input   66.30 | X-H torsion
[ 10763 10752 10751 10750 ] final -139.31 input  -60.55 | X-H torsion
[ 11005 11000 10999 10996 ] final  116.86 input  -57.11 | X-H torsion

> <Gold.Protein.ActiveResidues>
 VAL166  LYS551  ARG553  GLY616  TRP617  ASP618  TYR619  PRO620  LYS621  CYS622 
 ASP623  PHE694  ASN695  SER759  ASP760  ASP761  ALA762  ILE779  LEU786  VAL792 
 PHE793  MET794  SER795  GLU796  ALA797  LYS798  CYS799  TRP800  GLU811  SER814 

> <Gold.Protein.RotatedAtoms>
  150.8387  133.7970  159.3068 H   0  0  0  0  0  0  0  0  0  0  0  0  # atno 6907 bound_to 6896
  151.5678  135.1062  159.9997 H   0  0  0  0  0  0  0  0  0  0  0  0  # atno 6908 bound_to 6896
  152.4455  133.7486  159.6737 H   0  0  0  0  0  0  0  0  0  0  0  0  # atno 6909 bound_to 6896
  145.5023  139.2276  143.2770 H   0  0  0  0  0  0  0  0  0  0  0  0  # atno 7974 bound_to 7965
  155.3666  140.0486  157.3046 H   0  0  0  0  0  0  0  0  0  0  0  0  # atno 8008 bound_to 7997
  154.5151  140.2205  155.9044 H   0  0  0  0  0  0  0  0  0  0  0  0  # atno 8009 bound_to 7997
  156.1627  140.3113  155.8841 H   0  0  0  0  0  0  0  0  0  0  0  0  # atno 8010 bound_to 7997
  139.9791  144.5839  150.7917 H   0  0  0  0  0  0  0  0  0  0  0  0  # atno 10167 bound_to 10162
  157.6501  131.0930  150.6581 H   0  0  0  0  0  0  0  0  0  0  0  0  # atno 10718 bound_to 10713
  154.8613  135.3586  154.5525 H   0  0  0  0  0  0  0  0  0  0  0  0  # atno 10763 bound_to 10752
  153.6143  135.7008  153.5339 H   0  0  0  0  0  0  0  0  0  0  0  0  # atno 10764 bound_to 10752
  153.3182  135.4159  155.1355 H   0  0  0  0  0  0  0  0  0  0  0  0  # atno 10765 bound_to 10752
  139.9055  134.9603  156.7262 H   0  0  0  0  0  0  0  0  0  0  0  0  # atno 11005 bound_to 11000
  146.2218  140.5824  142.9014 LP  0  0  0  0  0  0  0  0  0  0  0  0  # atno 17320 bound_to 7965
  144.7773  140.5767  143.6629 LP  0  0  0  0  0  0  0  0  0  0  0  0  # atno 17321 bound_to 7965
  140.7495  143.2940  151.3253 LP  0  0  0  0  0  0  0  0  0  0  0  0  # atno 17342 bound_to 10162
  139.6423  144.0516  152.2564 LP  0  0  0  0  0  0  0  0  0  0  0  0  # atno 17343 bound_to 10162
  156.6893  130.4590  149.5604 LP  0  0  0  0  0  0  0  0  0  0  0  0  # atno 17370 bound_to 10713
  156.1873  130.6537  151.1021 LP  0  0  0  0  0  0  0  0  0  0  0  0  # atno 17371 bound_to 10713
  140.6961  133.9347  155.7996 LP  0  0  0  0  0  0  0  0  0  0  0  0  # atno 17394 bound_to 11000
  141.0406  134.0627  157.3907 LP  0  0  0  0  0  0  0  0  0  0  0  0  # atno 17395 bound_to 11000

$$$$
