AV-unprocessed.smi:1247|AV-procd|sdf|5243|dock10
  -GOLD-   22720 4353D 1   1.00000     0.00000
 Structure written by MMmdl.
 46 47  0  0  0  0  0  0  0  0  1 V2000
  153.7330  141.8688  160.8221 C   0  0  0  0  0  0  0  0  0  0  0  0
  152.7883  142.4581  159.8164 C   0  0  0  0  0  0  0  0  0  0  0  0
  152.1046  141.7914  158.7586 C   0  0  0  0  0  0  0  0  0  0  0  0
  151.3942  142.8039  158.1737 C   0  0  0  0  0  0  0  0  0  0  0  0
  150.5513  142.7527  157.1081 N   0  0  0  0  0  0  0  0  0  0  0  0
  150.1742  141.6828  156.3859 C   0  0  0  0  0  0  0  0  0  0  0  0
  150.5538  140.5264  156.5711 O   0  0  0  0  0  0  0  0  0  0  0  0
  149.3162  142.0309  155.4161 N   0  0  0  0  0  0  0  0  0  0  0  0
  148.7206  141.1092  154.4559 C   0  0  0  0  0  0  0  0  0  0  0  0
  147.6247  141.7984  153.6213 C   0  0  0  0  0  0  0  0  0  0  0  0
  146.6429  142.5545  154.3970 N   0  0  0  0  0  0  0  0  0  0  0  0
  145.6116  141.7023  154.9838 C   0  0  0  0  0  0  0  0  0  0  0  0
  144.5721  142.5171  155.7776 C   0  0  2  0  0  0  0  0  0  0  0  0
  143.4405  141.6389  156.3218 C   0  0  0  0  0  0  0  0  0  0  0  0
  144.0009  143.5052  154.9245 O   0  0  0  0  0  0  0  0  0  0  0  0
  144.9659  144.3922  154.3658 C   0  0  2  0  0  0  0  0  0  0  0  0
  144.2332  145.4076  153.4825 C   0  0  0  0  0  0  0  0  0  0  0  0
  146.0007  143.5720  153.5728 C   0  0  0  0  0  0  0  0  0  0  0  0
  151.6502  143.9755  158.8508 N   0  0  0  0  0  0  0  0  0  0  0  0
  151.1343  145.3093  158.6119 C   0  0  0  0  0  0  0  0  0  0  0  0
  152.5137  143.7567  159.8660 N   0  0  0  0  0  0  0  0  0  0  0  0
  153.8550  140.7965  160.6672 H   0  0  0  0  0  0  0  0  0  0  0  0
  153.3672  142.0172  161.8384 H   0  0  0  0  0  0  0  0  0  0  0  0
  154.7191  142.3284  160.7506 H   0  0  0  0  0  0  0  0  0  0  0  0
  152.1428  140.7456  158.4933 H   0  0  0  0  0  0  0  0  0  0  0  0
  150.1615  143.6398  156.8257 H   0  0  0  0  0  0  0  0  0  0  0  0
  149.0570  143.0030  155.3336 H   0  0  0  0  0  0  0  0  0  0  0  0
  149.5244  140.7464  153.8163 H   0  0  0  0  0  0  0  0  0  0  0  0
  148.3156  140.2386  154.9746 H   0  0  0  0  0  0  0  0  0  0  0  0
  148.1147  142.4808  152.9252 H   0  0  0  0  0  0  0  0  0  0  0  0
  147.1145  141.0578  153.0034 H   0  0  0  0  0  0  0  0  0  0  0  0
  145.1080  141.1387  154.1967 H   0  0  0  0  0  0  0  0  0  0  0  0
  146.0629  140.9705  155.6530 H   0  0  0  0  0  0  0  0  0  0  0  0
  145.0626  143.0154  156.6157 H   0  0  0  0  0  0  0  0  0  0  0  0
  143.8276  140.8699  156.9908 H   0  0  0  0  0  0  0  0  0  0  0  0
  142.9037  141.1413  155.5138 H   0  0  0  0  0  0  0  0  0  0  0  0
  142.7204  142.2351  156.8824 H   0  0  0  0  0  0  0  0  0  0  0  0
  145.4657  144.9273  155.1752 H   0  0  0  0  0  0  0  0  0  0  0  0
  144.9317  146.1173  153.0385 H   0  0  0  0  0  0  0  0  0  0  0  0
  143.5059  145.9759  154.0628 H   0  0  0  0  0  0  0  0  0  0  0  0
  143.6985  144.9120  152.6717 H   0  0  0  0  0  0  0  0  0  0  0  0
  146.7557  144.2450  153.1645 H   0  0  0  0  0  0  0  0  0  0  0  0
  145.5115  143.0990  152.7195 H   0  0  0  0  0  0  0  0  0  0  0  0
  150.0512  145.3102  158.7379 H   0  0  0  0  0  0  0  0  0  0  0  0
  151.3760  145.6190  157.5947 H   0  0  0  0  0  0  0  0  0  0  0  0
  151.5725  146.0223  159.3118 H   0  0  0  0  0  0  0  0  0  0  0  0
  1  2  1  0  0  0  0
  1 22  1  0  0  0  0
  1 23  1  0  0  0  0
  1 24  1  0  0  0  0
  2 21  2  0  0  0  0
  2  3  1  0  0  0  0
  3  4  2  0  0  0  0
  3 25  1  0  0  0  0
  4  5  1  0  0  0  0
  4 19  1  0  0  0  0
  5  6  1  0  0  0  0
  5 26  1  0  0  0  0
  6  7  2  0  0  0  0
  6  8  1  0  0  0  0
  8  9  1  0  0  0  0
  8 27  1  0  0  0  0
  9 10  1  0  0  0  0
  9 28  1  0  0  0  0
  9 29  1  0  0  0  0
 10 11  1  0  0  0  0
 10 30  1  0  0  0  0
 10 31  1  0  0  0  0
 11 18  1  0  0  0  0
 11 12  1  0  0  0  0
 12 13  1  0  0  0  0
 12 32  1  0  0  0  0
 12 33  1  0  0  0  0
 13 14  1  0  0  0  0
 13 15  1  0  0  0  0
 13 34  1  0  0  0  0
 14 35  1  0  0  0  0
 14 36  1  0  0  0  0
 14 37  1  0  0  0  0
 15 16  1  0  0  0  0
 16 17  1  0  0  0  0
 16 18  1  0  0  0  0
 16 38  1  0  0  0  0
 17 39  1  0  0  0  0
 17 40  1  0  0  0  0
 17 41  1  0  0  0  0
 18 42  1  0  0  0  0
 18 43  1  0  0  0  0
 19 20  1  0  0  0  0
 19 21  1  0  0  0  0
 20 44  1  0  0  0  0
 20 45  1  0  0  0  0
 20 46  1  0  0  0  0
M  END
> <s_m_source_file>
AV-unprocessed.smi

> <i_m_source_file_index>
1247

> <i_lp_mmshare_version>
43012

> <i_f3d_flags>
0

> <s_epik_input>
W0NIM11jMVtjSF1jKG4objEpW0NIM10pW05IXUMoPU8pW05IXVtDSDJdW0NIMl1OMltDSDJdW0NAQEhdKFtDSDNdKU9bQ0BASF0oW0NIM10pW0NIMl0y

> <s_epik_cmdline>
J2VwaWtfcHl0aG9uJywgJy1waCcsICc3LjAnLCAnLXRuJywgJzgnLCAnLW1hJywgJzIwMCcsICctbWV0YWxfYmluZGluZycsICctaW1hZScsICc8aW5maWxlLm1hZT4nLCAnLW9tYWUnLCAnPG91dGZpbGUubWFlPic=

> <r_lp_tautomer_probability>
1

> <r_epik_Ionization_Penalty>
0.233972

> <r_epik_Ionization_Penalty_Charging>
0

> <r_epik_Ionization_Penalty_Neutral>
0.233972

> <r_epik_State_Penalty>
0.224627

> <r_epik_Charging_Adjusted_Penalty>
0.224627

> <i_epik_Tot_Q>
0

> <i_epik_Tot_abs_Q>
0

> <r_epik_Metal_State_Penalty>
0.224624

> <b_epik_Metal_Only>
0

> <s_lp_Force_Field>
OPLS_2005

> <r_lp_Energy>
19.816

> <b_lp_Chiralities_Consistent>
1

> <s_lp_Variant>
AV-unprocessed.smi:1247-1

> <Gold.Version>
5.8.1

> <Gold.Id.Protein>
6NUR|6NUR_protein|mol2

> <Gold.PLP.Fitness>
48.3020

> <Gold.PLP.PLP>
-42.8561

> <Gold.PLP.part.hbond>
-2.0000

> <Gold.PLP.part.metal>
0.0000

> <Gold.PLP.part.buried>
-8.2672

> <Gold.PLP.part.nonpolar>
-32.3959

> <Gold.PLP.part.repulsive>
0.5355

> <Gold.PLP.ligand.clash>
0.0000

> <Gold.PLP.ligand.torsion>
0.2834

> <Gold.PLP.Chemscore.Hbond>
2.0000

> <Gold.PLP.Chemscore.CHOScore>
0.0000

> <Gold.PLP.Chemscore.Metal>
0.0000

> <Gold.Chemscore.Hbonds>
donor molecule, donor type, donor heavy atom, donor atom, acceptor molecule, acceptor atom, score
      L1  H     5    26       P1  8028  1.00
      L1  H     8    27       P1  8028  1.00

> <Gold.PLP.Chemscore.Internal.Correction>
0.0127

> <Gold.Rescore>
     Score         DG    S(hbond)    S(metal)    S(lipo)     H(rot)  DE(clash)    DE(int)     intcor
     16.76     -18.39       1.96        0.00      86.84       1.48       0.20       1.42       ----

> <Gold.Chemscore.Fitness>
16.7643

> <Gold.Chemscore.DG>
-18.3868

> <Gold.Chemscore.ZeroCoef>
-5.4800

> <Gold.Chemscore.Hbond>
1.9595

> <Gold.Chemscore.Metal>
0.0000

> <Gold.Chemscore.Lipo>
86.8433

> <Gold.Chemscore.Internal_Hbond>
0.0000

> <Gold.Chemscore.DEClash>
0.2015

> <Gold.Chemscore.DEInternal>
1.4210

> <Gold.Chemscore.Rot>
1.4838

> <Gold.Chemscore.Internal.Correction>
   9.000000E+99

> <Gold.Chemscore.Hbonds>
donor molecule, donor type, donor heavy atom, donor atom, acceptor molecule, acceptor atom, score
      L1  H     5    26       P1  8028  0.89
      L1  H     8    27       P1  8028  1.00

> <Gold.Chemscore.Hbond.Weighted>
-6.5446

> <Gold.Chemscore.Metal.Weighted>
-0.0000

> <Gold.Chemscore.Lipo.Weighted>
-10.1607

> <Gold.Chemscore.Internal_Hbond.Weighted>
0.0000

> <Gold.Chemscore.DEClash.Weighted>
0.2015

> <Gold.Chemscore.DEInternal.Weighted>
1.4210

> <Gold.Chemscore.Rot.Weighted>
3.7985

> <Gold.Chemscore.Internal.Correction.Weighted>
   9.000000E+99

> <Gold.Protein.RotatedTorsions>
[ 6907 6896 6895 6894 ] final  140.23 input  -60.11 | X-H torsion
[ 7974 7965 7964 7962 ] final  143.82 input  175.53 | X-H torsion
[ 8008 7997 7996 7995 ] final  -65.13 input   59.86 | X-H torsion
[ 10167 10162 10161 10158 ] final  -81.90 input  -65.29 | X-H torsion
[ 10718 10713 10712 10709 ] final   -2.07 input   66.30 | X-H torsion
[ 10763 10752 10751 10750 ] final  -93.54 input  -60.55 | X-H torsion
[ 11005 11000 10999 10996 ] final  -19.23 input  -57.11 | X-H torsion

> <Gold.Protein.ActiveResidues>
 VAL166  LYS551  ARG553  GLY616  TRP617  ASP618  TYR619  PRO620  LYS621  CYS622 
 ASP623  PHE694  ASN695  SER759  ASP760  ASP761  ALA762  ILE779  LEU786  VAL792 
 PHE793  MET794  SER795  GLU796  ALA797  LYS798  CYS799  TRP800  GLU811  SER814 

> <Gold.Protein.RotatedAtoms>
  152.2455  133.5171  159.5294 H   0  0  0  0  0  0  0  0  0  0  0  0  # atno 6907 bound_to 6896
  150.7077  134.1031  159.3982 H   0  0  0  0  0  0  0  0  0  0  0  0  # atno 6908 bound_to 6896
  151.8951  135.0401  160.0552 H   0  0  0  0  0  0  0  0  0  0  0  0  # atno 6909 bound_to 6896
  144.8888  139.5588  143.5808 H   0  0  0  0  0  0  0  0  0  0  0  0  # atno 7974 bound_to 7965
  154.4653  140.0939  156.7003 H   0  0  0  0  0  0  0  0  0  0  0  0  # atno 8008 bound_to 7997
  155.4876  140.3469  155.4331 H   0  0  0  0  0  0  0  0  0  0  0  0  # atno 8009 bound_to 7997
  156.0945  140.1406  156.9537 H   0  0  0  0  0  0  0  0  0  0  0  0  # atno 8010 bound_to 7997
  140.4370  143.2528  151.8680 H   0  0  0  0  0  0  0  0  0  0  0  0  # atno 10167 bound_to 10162
  156.7963  130.5378  149.5728 H   0  0  0  0  0  0  0  0  0  0  0  0  # atno 10718 bound_to 10713
  154.6969  135.5191  153.8470 H   0  0  0  0  0  0  0  0  0  0  0  0  # atno 10763 bound_to 10752
  153.0674  135.6589  154.0334 H   0  0  0  0  0  0  0  0  0  0  0  0  # atno 10764 bound_to 10752
  154.0199  135.2994  155.3362 H   0  0  0  0  0  0  0  0  0  0  0  0  # atno 10765 bound_to 10752
  140.8346  133.7971  155.9795 H   0  0  0  0  0  0  0  0  0  0  0  0  # atno 11005 bound_to 11000
  146.3041  139.7522  142.9069 LP  0  0  0  0  0  0  0  0  0  0  0  0  # atno 17320 bound_to 7965
  145.3820  141.0359  143.3172 LP  0  0  0  0  0  0  0  0  0  0  0  0  # atno 17321 bound_to 7965
  139.4787  144.5272  151.8718 LP  0  0  0  0  0  0  0  0  0  0  0  0  # atno 17342 bound_to 10162
  140.4362  144.2048  150.5889 LP  0  0  0  0  0  0  0  0  0  0  0  0  # atno 17343 bound_to 10162
  156.1128  130.6053  151.0074 LP  0  0  0  0  0  0  0  0  0  0  0  0  # atno 17370 bound_to 10713
  157.6576  131.0886  150.7912 LP  0  0  0  0  0  0  0  0  0  0  0  0  # atno 17371 bound_to 10713
  140.8961  134.2436  157.5068 LP  0  0  0  0  0  0  0  0  0  0  0  0  # atno 17394 bound_to 11000
  139.8704  134.9684  156.4631 LP  0  0  0  0  0  0  0  0  0  0  0  0  # atno 17395 bound_to 11000

$$$$
