AV-unprocessed.smi:2197|AV-procd|sdf|8909|dock6
  -GOLD-   2272012123D 1   1.00000     0.00000
 Structure written by MMmdl.
 28 28  0  0  0  0  0  0  0  0  1 V2000
  151.9431  145.4132  159.8982 C   0  0  0  0  0  0  0  0  0  0  0  0
  151.8572  144.1035  159.1076 C   0  0  0  0  0  0  0  0  0  0  0  0
  151.8689  144.3317  157.5874 C   0  0  0  0  0  0  0  0  0  0  0  0
  150.9289  143.4476  156.9083 N   0  0  0  0  0  0  0  0  0  0  0  0
  150.9743  142.1068  156.9342 C   0  0  0  0  0  0  0  0  0  0  0  0
  151.8173  141.4732  157.5709 O   0  0  0  0  0  0  0  0  0  0  0  0
  149.8880  141.3789  156.1290 C   0  0  0  0  0  0  0  0  0  0  0  0
  150.2580  139.9995  155.7790 N   0  0  0  0  0  0  0  0  0  0  0  0
  150.2854  139.5961  154.4515 C   0  0  0  0  0  0  0  0  0  0  0  0
  150.6081  138.3405  154.0604 C   0  0  0  0  0  0  0  0  0  0  0  0
  150.9515  137.3239  155.0490 C   0  0  0  0  0  0  0  0  0  0  0  0
  151.2590  136.1616  154.7941 O   0  0  0  0  0  0  0  0  0  0  0  0
  150.9099  137.7676  156.3734 N   0  0  0  0  0  0  0  0  0  0  0  0
  150.5775  139.0598  156.7834 C   0  0  0  0  0  0  0  0  0  0  0  0
  150.5690  139.3457  157.9802 O   0  0  0  0  0  0  0  0  0  0  0  0
  151.1369  137.0977  157.0939 H   0  0  0  0  0  0  0  0  0  0  0  0
  151.9412  145.2199  160.9711 H   0  0  0  0  0  0  0  0  0  0  0  0
  151.0964  146.0628  159.6758 H   0  0  0  0  0  0  0  0  0  0  0  0
  152.8570  145.9578  159.6597 H   0  0  0  0  0  0  0  0  0  0  0  0
  152.6921  143.4599  159.3873 H   0  0  0  0  0  0  0  0  0  0  0  0
  150.9488  143.5728  159.3961 H   0  0  0  0  0  0  0  0  0  0  0  0
  151.6429  145.3737  157.3537 H   0  0  0  0  0  0  0  0  0  0  0  0
  152.8649  144.1339  157.1904 H   0  0  0  0  0  0  0  0  0  0  0  0
  150.1991  143.8873  156.3663 H   0  0  0  0  0  0  0  0  0  0  0  0
  148.9686  141.3886  156.7161 H   0  0  0  0  0  0  0  0  0  0  0  0
  149.6574  141.9432  155.2227 H   0  0  0  0  0  0  0  0  0  0  0  0
  150.0338  140.3143  153.6841 H   0  0  0  0  0  0  0  0  0  0  0  0
  150.6109  138.0866  153.0101 H   0  0  0  0  0  0  0  0  0  0  0  0
  1  2  1  0  0  0  0
  1 17  1  0  0  0  0
  1 18  1  0  0  0  0
  1 19  1  0  0  0  0
  2  3  1  0  0  0  0
  2 20  1  0  0  0  0
  2 21  1  0  0  0  0
  3  4  1  0  0  0  0
  3 22  1  0  0  0  0
  3 23  1  0  0  0  0
  4  5  1  0  0  0  0
  4 24  1  0  0  0  0
  5  6  2  0  0  0  0
  5  7  1  0  0  0  0
  7  8  1  0  0  0  0
  7 25  1  0  0  0  0
  7 26  1  0  0  0  0
  8 14  1  0  0  0  0
  8  9  1  0  0  0  0
  9 10  2  0  0  0  0
  9 27  1  0  0  0  0
 10 11  1  0  0  0  0
 10 28  1  0  0  0  0
 11 12  2  0  0  0  0
 11 13  1  0  0  0  0
 13 16  1  0  0  0  0
 13 14  1  0  0  0  0
 14 15  2  0  0  0  0
M  END
> <s_m_source_file>
AV-unprocessed.smi

> <i_m_source_file_index>
2197

> <i_lp_mmshare_version>
43012

> <i_f3d_flags>
0

> <s_epik_input>
W0NIM11bQ0gyXVtDSDJdW05IXUMoPU8pW0NIMl1uMVtjSF1bY0hdYyg9TylbbkhdYzE9Tw==

> <s_epik_cmdline>
J2VwaWtfcHl0aG9uJywgJy1waCcsICc3LjAnLCAnLXRuJywgJzgnLCAnLW1hJywgJzIwMCcsICctbWV0YWxfYmluZGluZycsICctaW1hZScsICc8aW5maWxlLm1hZT4nLCAnLW9tYWUnLCAnPG91dGZpbGUubWFlPic=

> <r_lp_tautomer_probability>
0.999537

> <r_epik_Ionization_Penalty>
0.00328917

> <r_epik_Ionization_Penalty_Charging>
0.00328916

> <r_epik_Ionization_Penalty_Neutral>
1.81689e-08

> <r_epik_State_Penalty>
0.00232387

> <r_epik_Charging_Adjusted_Penalty>
0.00561303

> <i_epik_Tot_Q>
0

> <i_epik_Tot_abs_Q>
0

> <r_epik_Metal_State_Penalty>
0.365275

> <b_epik_Metal_Only>
0

> <s_lp_Force_Field>
OPLS_2005

> <r_lp_Energy>
1.80706

> <b_lp_Chiralities_Consistent>
1

> <s_lp_Variant>
AV-unprocessed.smi:2197-1

> <Gold.Version>
5.8.1

> <Gold.Id.Protein>
6NUR|6NUR_protein|mol2

> <Gold.PLP.Fitness>
38.6479

> <Gold.PLP.PLP>
-30.8656

> <Gold.PLP.part.hbond>
-2.0000

> <Gold.PLP.part.metal>
0.0000

> <Gold.PLP.part.buried>
-2.3897

> <Gold.PLP.part.nonpolar>
-25.7375

> <Gold.PLP.part.repulsive>
0.2172

> <Gold.PLP.ligand.clash>
0.0000

> <Gold.PLP.ligand.torsion>
0.6004

> <Gold.PLP.Chemscore.Hbond>
2.0000

> <Gold.PLP.Chemscore.CHOScore>
0.9914

> <Gold.PLP.Chemscore.Metal>
0.0000

> <Gold.Chemscore.Hbonds>
donor molecule, donor type, donor heavy atom, donor atom, acceptor molecule, acceptor atom, score
      L1  H     4    24       P1  8028  1.00
      P1  H 10752 10765       L1    12  1.00
      L1  C     9    27       P1  7957  0.90

> <Gold.PLP.Chemscore.Internal.Correction>
0.0090

> <Gold.Rescore>
     Score         DG    S(hbond)    S(metal)    S(lipo)     H(rot)  DE(clash)    DE(int)     intcor
     12.28     -13.71       1.95        0.00      59.33       2.05       0.08       1.35       ----

> <Gold.Chemscore.Fitness>
12.2780

> <Gold.Chemscore.DG>
-13.7067

> <Gold.Chemscore.ZeroCoef>
-5.4800

> <Gold.Chemscore.Hbond>
1.9538

> <Gold.Chemscore.Metal>
0.0000

> <Gold.Chemscore.Lipo>
59.3299

> <Gold.Chemscore.Internal_Hbond>
0.0000

> <Gold.Chemscore.DEClash>
0.0757

> <Gold.Chemscore.DEInternal>
1.3529

> <Gold.Chemscore.Rot>
2.0471

> <Gold.Chemscore.Internal.Correction>
   9.000000E+99

> <Gold.Chemscore.Hbonds>
donor molecule, donor type, donor heavy atom, donor atom, acceptor molecule, acceptor atom, score
      L1  H     4    24       P1  8028  1.00
      P1  H 10752 10765       L1    12  1.00

> <Gold.Chemscore.Hbond.Weighted>
-6.5257

> <Gold.Chemscore.Metal.Weighted>
-0.0000

> <Gold.Chemscore.Lipo.Weighted>
-6.9416

> <Gold.Chemscore.Internal_Hbond.Weighted>
0.0000

> <Gold.Chemscore.DEClash.Weighted>
0.0757

> <Gold.Chemscore.DEInternal.Weighted>
1.3529

> <Gold.Chemscore.Rot.Weighted>
5.2406

> <Gold.Chemscore.Internal.Correction.Weighted>
   9.000000E+99

> <Gold.Protein.RotatedTorsions>
[ 6907 6896 6895 6894 ] final  -35.06 input  -60.11 | X-H torsion
[ 7974 7965 7964 7962 ] final -172.07 input  175.53 | X-H torsion
[ 8008 7997 7996 7995 ] final  -71.98 input   59.86 | X-H torsion
[ 10167 10162 10161 10158 ] final   77.06 input  -65.29 | X-H torsion
[ 10718 10713 10712 10709 ] final   -0.89 input   66.30 | X-H torsion
[ 10763 10752 10751 10750 ] final  176.98 input  -60.55 | X-H torsion
[ 11005 11000 10999 10996 ] final -110.94 input  -57.11 | X-H torsion

> <Gold.Protein.ActiveResidues>
 VAL166  LYS551  ARG553  GLY616  TRP617  ASP618  TYR619  PRO620  LYS621  CYS622 
 ASP623  PHE694  ASN695  SER759  ASP760  ASP761  ALA762  ILE779  LEU786  VAL792 
 PHE793  MET794  SER795  GLU796  ALA797  LYS798  CYS799  TRP800  GLU811  SER814 

> <Gold.Protein.RotatedAtoms>
  151.0446  134.9631  159.8179 H   0  0  0  0  0  0  0  0  0  0  0  0  # atno 6907 bound_to 6896
  152.5370  134.2615  159.8947 H   0  0  0  0  0  0  0  0  0  0  0  0  # atno 6908 bound_to 6896
  151.2628  133.4251  159.2651 H   0  0  0  0  0  0  0  0  0  0  0  0  # atno 6909 bound_to 6896
  144.7150  140.1827  143.6356 H   0  0  0  0  0  0  0  0  0  0  0  0  # atno 7974 bound_to 7965
  154.5130  140.0805  156.8026 H   0  0  0  0  0  0  0  0  0  0  0  0  # atno 8008 bound_to 7997
  155.3743  140.3424  155.4226 H   0  0  0  0  0  0  0  0  0  0  0  0  # atno 8009 bound_to 7997
  156.1595  140.1584  156.8624 H   0  0  0  0  0  0  0  0  0  0  0  0  # atno 8010 bound_to 7997
  139.9855  144.5795  150.7863 H   0  0  0  0  0  0  0  0  0  0  0  0  # atno 10167 bound_to 10162
  156.8137  130.5433  149.5705 H   0  0  0  0  0  0  0  0  0  0  0  0  # atno 10718 bound_to 10713
  154.4884  135.2778  155.1516 H   0  0  0  0  0  0  0  0  0  0  0  0  # atno 10763 bound_to 10752
  154.3198  135.6212  153.5506 H   0  0  0  0  0  0  0  0  0  0  0  0  # atno 10764 bound_to 10752
  152.9884  135.5740  154.5300 H   0  0  0  0  0  0  0  0  0  0  0  0  # atno 10765 bound_to 10752
  141.0763  133.9295  157.2382 H   0  0  0  0  0  0  0  0  0  0  0  0  # atno 11005 bound_to 11000
  145.8842  139.2339  143.1588 LP  0  0  0  0  0  0  0  0  0  0  0  0  # atno 17320 bound_to 7965
  145.9966  140.8557  143.0039 LP  0  0  0  0  0  0  0  0  0  0  0  0  # atno 17321 bound_to 7965
  140.7473  143.2905  151.3344 LP  0  0  0  0  0  0  0  0  0  0  0  0  # atno 17342 bound_to 10162
  139.6378  144.0597  152.2530 LP  0  0  0  0  0  0  0  0  0  0  0  0  # atno 17343 bound_to 10162
  156.1029  130.5982  150.9923 LP  0  0  0  0  0  0  0  0  0  0  0  0  # atno 17370 bound_to 10713
  157.6492  131.0899  150.8087 LP  0  0  0  0  0  0  0  0  0  0  0  0  # atno 17371 bound_to 10713
  139.9576  135.0162  156.9170 LP  0  0  0  0  0  0  0  0  0  0  0  0  # atno 17394 bound_to 11000
  140.5566  134.0576  155.7385 LP  0  0  0  0  0  0  0  0  0  0  0  0  # atno 17395 bound_to 11000

$$$$
