AV-unprocessed.smi:177|AV-procd|sdf|1439|dock2
  -GOLD-   2262019223D 1   1.00000     0.00000
 Structure written by MMmdl.
 61 65  0  0  0  0  0  0  0  0  1 V2000
  152.1416  145.2826  158.9688 C   0  0  0  0  0  0  0  0  0  0  0  0
  151.9883  144.4060  157.8629 O   0  0  0  0  0  0  0  0  0  0  0  0
  151.4136  143.1469  158.1891 C   0  0  2  0  0  0  0  0  0  0  0  0
  152.4707  142.3437  158.9630 C   0  0  0  0  0  0  0  0  0  0  0  0
  151.9478  140.9477  159.3344 C   0  0  0  0  0  0  0  0  0  0  0  0
  151.4682  140.1618  158.1018 C   0  0  2  0  0  0  0  0  0  0  0  0
  152.5907  139.8062  157.2984 O   0  0  0  0  0  0  0  0  0  0  0  0
  152.2220  138.9685  156.2079 C   0  0  0  0  0  0  0  0  0  0  0  0
  151.2399  139.7115  155.2887 C   0  0  0  0  0  0  0  0  0  0  0  0
  150.0985  140.2062  156.0591 N   0  0  0  0  0  0  0  0  0  0  0  0
  149.0031  140.6312  155.3741 C   0  0  0  0  0  0  0  0  0  0  0  0
  148.8773  140.3291  154.0536 N   0  0  0  0  0  0  0  0  0  0  0  0
  147.8172  140.7506  153.3591 C   0  0  0  0  0  0  0  0  0  0  0  0
  146.7811  141.4769  153.7796 N   0  0  0  0  0  0  0  0  0  0  0  0
  146.8955  141.7828  155.1033 C   0  0  0  0  0  0  0  0  0  0  0  0
  147.9583  141.3959  155.9691 C   0  0  0  0  0  0  0  0  0  0  0  0
  147.7088  141.8623  157.2546 N   0  0  0  0  0  0  0  0  0  0  0  0
  146.5750  142.4990  157.1506 C   0  0  0  0  0  0  0  0  0  0  0  0
  146.0256  142.5199  155.8887 N   0  0  0  0  0  0  0  0  0  0  0  0
  144.7730  143.1496  155.4960 C   0  0  0  0  0  0  0  0  0  0  0  0
  143.5807  142.9647  156.4840 C   0  0  0  0  0  0  0  0  0  0  0  0
  142.2454  143.4468  155.8411 C   0  0  0  0  0  0  0  0  0  0  0  0
  141.7659  142.5991  154.8168 O   0  0  0  0  0  0  0  0  0  0  0  0
  143.4849  141.4983  156.9788 C   0  0  0  0  0  0  0  0  0  0  0  0
  142.5433  141.3397  158.1843 C   0  0  0  0  0  0  0  0  0  0  0  0
  142.9866  142.1673  159.2516 O   0  0  0  0  0  0  0  0  0  0  0  0
  142.9602  143.5505  158.9250 C   0  0  0  0  0  0  0  0  0  0  0  0
  143.8908  143.8344  157.7293 C   0  0  0  0  0  0  0  0  0  0  0  0
  150.4562  140.9722  157.2569 C   0  0  2  0  0  0  0  0  0  0  0  0
  150.9944  142.3827  156.9184 C   0  0  0  0  0  0  0  0  0  0  0  0
  152.6257  146.2009  158.6371 H   0  0  0  0  0  0  0  0  0  0  0  0
  152.7687  144.8373  159.7419 H   0  0  0  0  0  0  0  0  0  0  0  0
  151.1831  145.5552  159.4095 H   0  0  0  0  0  0  0  0  0  0  0  0
  150.5479  143.2925  158.8383 H   0  0  0  0  0  0  0  0  0  0  0  0
  153.3758  142.2481  158.3615 H   0  0  0  0  0  0  0  0  0  0  0  0
  152.7569  142.8814  159.8674 H   0  0  0  0  0  0  0  0  0  0  0  0
  152.7214  140.3846  159.8573 H   0  0  0  0  0  0  0  0  0  0  0  0
  151.1193  141.0533  160.0356 H   0  0  0  0  0  0  0  0  0  0  0  0
  150.9933  139.2437  158.4533 H   0  0  0  0  0  0  0  0  0  0  0  0
  153.1180  138.6913  155.6530 H   0  0  0  0  0  0  0  0  0  0  0  0
  151.7799  138.0430  156.5802 H   0  0  0  0  0  0  0  0  0  0  0  0
  151.7437  140.5435  154.7959 H   0  0  0  0  0  0  0  0  0  0  0  0
  150.8989  139.0334  154.5053 H   0  0  0  0  0  0  0  0  0  0  0  0
  147.7974  140.4673  152.3171 H   0  0  0  0  0  0  0  0  0  0  0  0
  146.1095  142.9847  157.9958 H   0  0  0  0  0  0  0  0  0  0  0  0
  144.9778  144.2113  155.3515 H   0  0  0  0  0  0  0  0  0  0  0  0
  144.5009  142.7677  154.5110 H   0  0  0  0  0  0  0  0  0  0  0  0
  141.4482  143.5139  156.5787 H   0  0  0  0  0  0  0  0  0  0  0  0
  142.3629  144.4515  155.4333 H   0  0  0  0  0  0  0  0  0  0  0  0
  142.3145  142.7073  154.0548 H   0  0  0  0  0  0  0  0  0  0  0  0
  143.1703  140.8296  156.1774 H   0  0  0  0  0  0  0  0  0  0  0  0
  144.4754  141.1558  157.2809 H   0  0  0  0  0  0  0  0  0  0  0  0
  141.5119  141.5773  157.9212 H   0  0  0  0  0  0  0  0  0  0  0  0
  142.5496  140.3040  158.5241 H   0  0  0  0  0  0  0  0  0  0  0  0
  141.9365  143.8705  158.7300 H   0  0  0  0  0  0  0  0  0  0  0  0
  143.2964  144.1160  159.7942 H   0  0  0  0  0  0  0  0  0  0  0  0
  144.9141  143.6473  158.0581 H   0  0  0  0  0  0  0  0  0  0  0  0
  143.8489  144.8935  157.4721 H   0  0  0  0  0  0  0  0  0  0  0  0
  149.5718  141.1040  157.8775 H   0  0  0  0  0  0  0  0  0  0  0  0
  150.2292  142.9411  156.3798 H   0  0  0  0  0  0  0  0  0  0  0  0
  151.8520  142.3123  156.2489 H   0  0  0  0  0  0  0  0  0  0  0  0
  1  2  1  0  0  0  0
  1 31  1  0  0  0  0
  1 32  1  0  0  0  0
  1 33  1  0  0  0  0
  2  3  1  0  0  0  0
  3 30  1  0  0  0  0
  3  4  1  0  0  0  0
  3 34  1  0  0  0  0
  4  5  1  0  0  0  0
  4 35  1  0  0  0  0
  4 36  1  0  0  0  0
  5  6  1  0  0  0  0
  5 37  1  0  0  0  0
  5 38  1  0  0  0  0
  6 29  1  0  0  0  0
  6  7  1  0  0  0  0
  6 39  1  0  0  0  0
  7  8  1  0  0  0  0
  8  9  1  0  0  0  0
  8 40  1  0  0  0  0
  8 41  1  0  0  0  0
  9 10  1  0  0  0  0
  9 42  1  0  0  0  0
  9 43  1  0  0  0  0
 10 11  1  0  0  0  0
 10 29  1  0  0  0  0
 11 16  1  0  0  0  0
 11 12  2  0  0  0  0
 12 13  1  0  0  0  0
 13 14  2  0  0  0  0
 13 44  1  0  0  0  0
 14 15  1  0  0  0  0
 15 19  1  0  0  0  0
 15 16  2  0  0  0  0
 16 17  1  0  0  0  0
 17 18  2  0  0  0  0
 18 19  1  0  0  0  0
 18 45  1  0  0  0  0
 19 20  1  0  0  0  0
 20 21  1  0  0  0  0
 20 46  1  0  0  0  0
 20 47  1  0  0  0  0
 21 28  1  0  0  0  0
 21 22  1  0  0  0  0
 21 24  1  0  0  0  0
 22 23  1  0  0  0  0
 22 48  1  0  0  0  0
 22 49  1  0  0  0  0
 23 50  1  0  0  0  0
 24 25  1  0  0  0  0
 24 51  1  0  0  0  0
 24 52  1  0  0  0  0
 25 26  1  0  0  0  0
 25 53  1  0  0  0  0
 25 54  1  0  0  0  0
 26 27  1  0  0  0  0
 27 28  1  0  0  0  0
 27 55  1  0  0  0  0
 27 56  1  0  0  0  0
 28 57  1  0  0  0  0
 28 58  1  0  0  0  0
 29 30  1  0  0  0  0
 29 59  1  0  0  0  0
 30 60  1  0  0  0  0
 30 61  1  0  0  0  0
M  END
> <s_m_source_file>
AV-unprocessed.smi

> <i_m_source_file_index>
177

> <i_lp_mmshare_version>
43012

> <i_f3d_flags>
0

> <s_epik_input>
W0NIM11PW0NASF0oW0NIMl1bQ0gyXTEpW0NIMl1bQ0BIXShbQ0BASF0xMilOKFtDSDJdW0NIMl1PMiljKG5bY0hdbjMpYyhjMzQpbltjSF1uNFtDSDJdQzUoW0NIMl1bT0hdKVtDSDJdW0NIMl1PW0NIMl1bQ0gyXTU=

> <s_epik_cmdline>
J2VwaWtfcHl0aG9uJywgJy1waCcsICc3LjAnLCAnLXRuJywgJzgnLCAnLW1hJywgJzIwMCcsICctbWV0YWxfYmluZGluZycsICctaW1hZScsICc8aW5maWxlLm1hZT4nLCAnLW9tYWUnLCAnPG91dGZpbGUubWFlPic=

> <r_lp_tautomer_probability>
1

> <r_epik_Ionization_Penalty>
0.0065899

> <r_epik_Ionization_Penalty_Charging>
0

> <r_epik_Ionization_Penalty_Neutral>
0.0065899

> <r_epik_State_Penalty>
0.00470042

> <r_epik_Charging_Adjusted_Penalty>
0.00470042

> <i_epik_Tot_Q>
0

> <i_epik_Tot_abs_Q>
0

> <r_epik_Metal_State_Penalty>
-0

> <b_epik_Metal_Only>
0

> <s_lp_Force_Field>
OPLS_2005

> <r_lp_Energy>
44.7828

> <b_lp_Chiralities_Consistent>
1

> <s_lp_Variant>
AV-unprocessed.smi:177-3

> <Gold.Version>
5.8.1

> <Gold.Id.Protein>
6NUR|6NUR_protein|mol2

> <Gold.PLP.Fitness>
45.2286

> <Gold.PLP.PLP>
-38.8314

> <Gold.PLP.part.hbond>
-2.0000

> <Gold.PLP.part.metal>
0.0000

> <Gold.PLP.part.buried>
-6.4739

> <Gold.PLP.part.nonpolar>
-32.6721

> <Gold.PLP.part.repulsive>
1.3897

> <Gold.PLP.ligand.clash>
0.0000

> <Gold.PLP.ligand.torsion>
0.9885

> <Gold.PLP.Chemscore.Hbond>
1.7500

> <Gold.PLP.Chemscore.CHOScore>
0.8737

> <Gold.PLP.Chemscore.Metal>
0.0000

> <Gold.Chemscore.Hbonds>
donor molecule, donor type, donor heavy atom, donor atom, acceptor molecule, acceptor atom, score
      L1  H    23    50       P1 10174  1.00
      P1  H  7997  8010       L1     7  0.70
      L1  C    13    44       P1  7957  0.88

> <Gold.PLP.Chemscore.Internal.Correction>
0.5033

> <Gold.Rescore>
     Score         DG    S(hbond)    S(metal)    S(lipo)     H(rot)  DE(clash)    DE(int)     intcor
     10.73     -13.06       1.16        0.00      88.02       2.58       0.07       2.26       ----

> <Gold.Chemscore.Fitness>
10.7320

> <Gold.Chemscore.DG>
-13.0616

> <Gold.Chemscore.ZeroCoef>
-5.4800

> <Gold.Chemscore.Hbond>
1.1645

> <Gold.Chemscore.Metal>
0.0000

> <Gold.Chemscore.Lipo>
88.0193

> <Gold.Chemscore.Internal_Hbond>
0.0000

> <Gold.Chemscore.DEClash>
0.0691

> <Gold.Chemscore.DEInternal>
2.2605

> <Gold.Chemscore.Rot>
2.5806

> <Gold.Chemscore.Internal.Correction>
   9.000000E+99

> <Gold.Chemscore.Hbonds>
donor molecule, donor type, donor heavy atom, donor atom, acceptor molecule, acceptor atom, score
      L1  H    23    50       P1 10174  0.89
      P1  H  7997  8010       L1     7  0.07

> <Gold.Chemscore.Hbond.Weighted>
-3.8896

> <Gold.Chemscore.Metal.Weighted>
-0.0000

> <Gold.Chemscore.Lipo.Weighted>
-10.2983

> <Gold.Chemscore.Internal_Hbond.Weighted>
0.0000

> <Gold.Chemscore.DEClash.Weighted>
0.0691

> <Gold.Chemscore.DEInternal.Weighted>
2.2605

> <Gold.Chemscore.Rot.Weighted>
6.6062

> <Gold.Chemscore.Internal.Correction.Weighted>
   9.000000E+99

> <Gold.Protein.RotatedTorsions>
[ 6907 6896 6895 6894 ] final   83.39 input  -60.11 | X-H torsion
[ 7974 7965 7964 7962 ] final   25.56 input  175.53 | X-H torsion
[ 8008 7997 7996 7995 ] final   61.00 input   59.86 | X-H torsion
[ 10167 10162 10161 10158 ] final  120.24 input  -65.29 | X-H torsion
[ 10718 10713 10712 10709 ] final  169.92 input   66.30 | X-H torsion
[ 10763 10752 10751 10750 ] final   59.03 input  -60.55 | X-H torsion
[ 11005 11000 10999 10996 ] final   -6.45 input  -57.11 | X-H torsion

> <Gold.Protein.ActiveResidues>
 VAL166  LYS551  ARG553  GLY616  TRP617  ASP618  TYR619  PRO620  LYS621  CYS622 
 ASP623  PHE694  ASN695  SER759  ASP760  ASP761  ALA762  ILE779  LEU786  VAL792 
 PHE793  MET794  SER795  GLU796  ALA797  LYS798  CYS799  TRP800  GLU811  SER814 

> <Gold.Protein.RotatedAtoms>
  152.5326  134.2903  159.9040 H   0  0  0  0  0  0  0  0  0  0  0  0  # atno 6907 bound_to 6896
  151.2855  133.4183  159.2637 H   0  0  0  0  0  0  0  0  0  0  0  0  # atno 6908 bound_to 6896
  151.0246  134.9510  159.8135 H   0  0  0  0  0  0  0  0  0  0  0  0  # atno 6909 bound_to 6896
  146.1882  139.7449  142.8851 H   0  0  0  0  0  0  0  0  0  0  0  0  # atno 7974 bound_to 7965
  155.5914  140.3493  155.4567 H   0  0  0  0  0  0  0  0  0  0  0  0  # atno 8008 bound_to 7997
  156.0298  140.1272  157.0295 H   0  0  0  0  0  0  0  0  0  0  0  0  # atno 8009 bound_to 7997
  154.4348  140.1045  156.6069 H   0  0  0  0  0  0  0  0  0  0  0  0  # atno 8010 bound_to 7997
  139.5995  144.7052  151.3097 H   0  0  0  0  0  0  0  0  0  0  0  0  # atno 10167 bound_to 10162
  157.0157  131.0217  151.2790 H   0  0  0  0  0  0  0  0  0  0  0  0  # atno 10718 bound_to 10713
  152.9885  135.5586  154.5648 H   0  0  0  0  0  0  0  0  0  0  0  0  # atno 10763 bound_to 10752
  154.5060  135.2800  155.1384 H   0  0  0  0  0  0  0  0  0  0  0  0  # atno 10764 bound_to 10752
  154.2795  135.6347  153.5394 H   0  0  0  0  0  0  0  0  0  0  0  0  # atno 10765 bound_to 10752
  140.7021  133.8981  155.8690 H   0  0  0  0  0  0  0  0  0  0  0  0  # atno 11005 bound_to 11000
  145.3873  141.0367  143.3143 LP  0  0  0  0  0  0  0  0  0  0  0  0  # atno 17320 bound_to 7965
  144.8437  139.5431  143.6888 LP  0  0  0  0  0  0  0  0  0  0  0  0  # atno 17321 bound_to 7965
  140.7238  143.7061  150.7806 LP  0  0  0  0  0  0  0  0  0  0  0  0  # atno 17342 bound_to 10162
  140.0634  143.5132  152.2616 LP  0  0  0  0  0  0  0  0  0  0  0  0  # atno 17343 bound_to 10162
  157.5287  130.8044  149.7892 LP  0  0  0  0  0  0  0  0  0  0  0  0  # atno 17370 bound_to 10713
  156.0120  130.3829  150.2233 LP  0  0  0  0  0  0  0  0  0  0  0  0  # atno 17371 bound_to 10713
  141.0155  134.0961  157.4177 LP  0  0  0  0  0  0  0  0  0  0  0  0  # atno 17394 bound_to 11000
  139.8894  135.0105  156.6676 LP  0  0  0  0  0  0  0  0  0  0  0  0  # atno 17395 bound_to 11000

$$$$
