AV-unprocessed.smi:2028|AV-procd|sdf|8221|dock10
  -GOLD-   2272010493D 1   1.00000     0.00000
 Structure written by MMmdl.
 38 39  0  0  0  0  0  0  0  0  1 V2000
  148.6262  133.8768  154.0728 C   0  0  0  0  0  0  0  0  0  0  0  0
  149.3812  134.6200  155.1887 C   0  0  0  0  0  0  0  0  0  0  0  0
  148.3831  135.0053  156.3006 C   0  0  0  0  0  0  0  0  0  0  0  0
  150.4877  133.6989  155.7450 C   0  0  0  0  0  0  0  0  0  0  0  0
  149.9585  135.8240  154.5807 N   0  0  0  0  0  0  0  0  0  0  0  0
  150.8137  136.7099  155.1230 C   0  0  0  0  0  0  0  0  0  0  0  0
  151.2837  136.6125  156.2561 O   0  0  0  0  0  0  0  0  0  0  0  0
  151.1849  137.9075  154.2475 C   0  0  0  0  0  0  0  0  0  0  0  0
  150.7230  139.1783  154.8989 C   0  0  0  0  0  0  0  0  0  0  0  0
  149.6670  139.9651  154.5087 C   0  0  0  0  0  0  0  0  0  0  0  0
  149.4805  141.3632  155.5315 S   0  0  0  0  0  0  0  0  0  0  0  0
  150.8698  140.8164  156.4750 C   0  0  0  0  0  0  0  0  0  0  0  0
  151.4411  141.4789  157.6017 N   0  0  0  0  0  0  0  0  0  0  0  0
  150.9777  142.7933  158.0358 C   0  0  0  0  0  0  0  0  0  0  0  0
  151.6586  143.0558  159.3835 C   0  0  0  0  0  0  0  0  0  0  0  0
  152.7793  142.0222  159.4789 C   0  0  0  0  0  0  0  0  0  0  0  0
  152.4468  141.0324  158.3748 C   0  0  0  0  0  0  0  0  0  0  0  0
  153.0641  139.9755  158.2523 O   0  0  0  0  0  0  0  0  0  0  0  0
  151.3931  139.6714  156.0244 N   0  0  0  0  0  0  0  0  0  0  0  0
  148.1614  132.9638  154.4468 H   0  0  0  0  0  0  0  0  0  0  0  0
  149.2960  133.5934  153.2597 H   0  0  0  0  0  0  0  0  0  0  0  0
  147.8356  134.4957  153.6465 H   0  0  0  0  0  0  0  0  0  0  0  0
  147.6124  135.6800  155.9254 H   0  0  0  0  0  0  0  0  0  0  0  0
  148.8742  135.5008  157.1381 H   0  0  0  0  0  0  0  0  0  0  0  0
  147.8803  134.1239  156.6999 H   0  0  0  0  0  0  0  0  0  0  0  0
  150.0691  132.7592  156.1068 H   0  0  0  0  0  0  0  0  0  0  0  0
  151.0188  134.1521  156.5820 H   0  0  0  0  0  0  0  0  0  0  0  0
  151.2246  133.4552  154.9790 H   0  0  0  0  0  0  0  0  0  0  0  0
  149.6472  136.0231  153.6410 H   0  0  0  0  0  0  0  0  0  0  0  0
  152.2655  137.9197  154.1005 H   0  0  0  0  0  0  0  0  0  0  0  0
  150.7415  137.7956  153.2568 H   0  0  0  0  0  0  0  0  0  0  0  0
  148.9935  139.8102  153.6788 H   0  0  0  0  0  0  0  0  0  0  0  0
  151.2767  143.5409  157.2994 H   0  0  0  0  0  0  0  0  0  0  0  0
  149.8910  142.8245  158.1301 H   0  0  0  0  0  0  0  0  0  0  0  0
  152.0344  144.0770  159.4551 H   0  0  0  0  0  0  0  0  0  0  0  0
  150.9484  142.9085  160.1984 H   0  0  0  0  0  0  0  0  0  0  0  0
  153.7528  142.4715  159.2797 H   0  0  0  0  0  0  0  0  0  0  0  0
  152.8103  141.5366  160.4548 H   0  0  0  0  0  0  0  0  0  0  0  0
  1  2  1  0  0  0  0
  1 20  1  0  0  0  0
  1 21  1  0  0  0  0
  1 22  1  0  0  0  0
  2  3  1  0  0  0  0
  2  4  1  0  0  0  0
  2  5  1  0  0  0  0
  3 23  1  0  0  0  0
  3 24  1  0  0  0  0
  3 25  1  0  0  0  0
  4 26  1  0  0  0  0
  4 27  1  0  0  0  0
  4 28  1  0  0  0  0
  5  6  1  0  0  0  0
  5 29  1  0  0  0  0
  6  7  2  0  0  0  0
  6  8  1  0  0  0  0
  8  9  1  0  0  0  0
  8 30  1  0  0  0  0
  8 31  1  0  0  0  0
  9 19  1  0  0  0  0
  9 10  2  0  0  0  0
 10 11  1  0  0  0  0
 10 32  1  0  0  0  0
 11 12  1  0  0  0  0
 12 13  1  0  0  0  0
 12 19  2  0  0  0  0
 13 17  1  0  0  0  0
 13 14  1  0  0  0  0
 14 15  1  0  0  0  0
 14 33  1  0  0  0  0
 14 34  1  0  0  0  0
 15 16  1  0  0  0  0
 15 35  1  0  0  0  0
 15 36  1  0  0  0  0
 16 17  1  0  0  0  0
 16 37  1  0  0  0  0
 16 38  1  0  0  0  0
 17 18  2  0  0  0  0
M  END
> <s_m_source_file>
AV-unprocessed.smi

> <i_m_source_file_index>
2028

> <i_lp_mmshare_version>
43012

> <i_f3d_flags>
0

> <s_epik_input>
W0NIM11DKFtDSDNdKShbQ0gzXSlbTkhdQyg9TylbQ0gyXWMxW2NIXXNjKG4xKU4yW0NIMl1bQ0gyXVtDSDJdQzI9Tw==

> <s_epik_cmdline>
J2VwaWtfcHl0aG9uJywgJy1waCcsICc3LjAnLCAnLXRuJywgJzgnLCAnLW1hJywgJzIwMCcsICctbWV0YWxfYmluZGluZycsICctaW1hZScsICc8aW5maWxlLm1hZT4nLCAnLW9tYWUnLCAnPG91dGZpbGUubWFlPic=

> <r_lp_tautomer_probability>
1

> <r_epik_Ionization_Penalty>
2.98188e-05

> <r_epik_Ionization_Penalty_Charging>
0

> <r_epik_Ionization_Penalty_Neutral>
2.98188e-05

> <r_epik_State_Penalty>
-0

> <r_epik_Charging_Adjusted_Penalty>
0

> <i_epik_Tot_Q>
0

> <i_epik_Tot_abs_Q>
0

> <r_epik_Metal_State_Penalty>
-0

> <b_epik_Metal_Only>
0

> <s_lp_Force_Field>
OPLS_2005

> <r_lp_Energy>
17.4642

> <b_lp_Chiralities_Consistent>
1

> <s_lp_Variant>
AV-unprocessed.smi:2028-1

> <Gold.Version>
5.8.1

> <Gold.Id.Protein>
6NUR|6NUR_protein|mol2

> <Gold.PLP.Fitness>
44.3317

> <Gold.PLP.PLP>
-35.8218

> <Gold.PLP.part.hbond>
-2.0469

> <Gold.PLP.part.metal>
0.0000

> <Gold.PLP.part.buried>
-2.9737

> <Gold.PLP.part.nonpolar>
-30.5823

> <Gold.PLP.part.repulsive>
0.0621

> <Gold.PLP.ligand.clash>
0.0000

> <Gold.PLP.ligand.torsion>
0.2524

> <Gold.PLP.Chemscore.Hbond>
2.0000

> <Gold.PLP.Chemscore.CHOScore>
0.9997

> <Gold.PLP.Chemscore.Metal>
0.0000

> <Gold.Chemscore.Hbonds>
donor molecule, donor type, donor heavy atom, donor atom, acceptor molecule, acceptor atom, score
      L1  H     5    29       P1  7948  1.00
      P1  H  7997  8008       L1    18  1.00
      L1  C    10    32       P1  7957  0.75

> <Gold.PLP.Chemscore.Internal.Correction>
0.0156

> <Gold.Rescore>
     Score         DG    S(hbond)    S(metal)    S(lipo)     H(rot)  DE(clash)    DE(int)     intcor
     14.85     -16.61       1.80        0.00      75.29       1.44       0.09       1.67       ----

> <Gold.Chemscore.Fitness>
14.8476

> <Gold.Chemscore.DG>
-16.6120

> <Gold.Chemscore.ZeroCoef>
-5.4800

> <Gold.Chemscore.Hbond>
1.7968

> <Gold.Chemscore.Metal>
0.0000

> <Gold.Chemscore.Lipo>
75.2939

> <Gold.Chemscore.Internal_Hbond>
0.0000

> <Gold.Chemscore.DEClash>
0.0901

> <Gold.Chemscore.DEInternal>
1.6742

> <Gold.Chemscore.Rot>
1.4371

> <Gold.Chemscore.Internal.Correction>
   9.000000E+99

> <Gold.Chemscore.Hbonds>
donor molecule, donor type, donor heavy atom, donor atom, acceptor molecule, acceptor atom, score
      L1  H     5    29       P1  7948  0.30
      P1  H  7997  8008       L1    18  0.88

> <Gold.Chemscore.Hbond.Weighted>
-6.0014

> <Gold.Chemscore.Metal.Weighted>
-0.0000

> <Gold.Chemscore.Lipo.Weighted>
-8.8094

> <Gold.Chemscore.Internal_Hbond.Weighted>
0.0000

> <Gold.Chemscore.DEClash.Weighted>
0.0901

> <Gold.Chemscore.DEInternal.Weighted>
1.6742

> <Gold.Chemscore.Rot.Weighted>
3.6789

> <Gold.Chemscore.Internal.Correction.Weighted>
   9.000000E+99

> <Gold.Protein.RotatedTorsions>
[ 6907 6896 6895 6894 ] final -136.31 input  -60.11 | X-H torsion
[ 7974 7965 7964 7962 ] final  -47.55 input  175.53 | X-H torsion
[ 8008 7997 7996 7995 ] final  -84.67 input   59.86 | X-H torsion
[ 10167 10162 10161 10158 ] final   -0.18 input  -65.29 | X-H torsion
[ 10718 10713 10712 10709 ] final -154.78 input   66.30 | X-H torsion
[ 10763 10752 10751 10750 ] final  -23.46 input  -60.55 | X-H torsion
[ 11005 11000 10999 10996 ] final   40.52 input  -57.11 | X-H torsion

> <Gold.Protein.ActiveResidues>
 VAL166  LYS551  ARG553  GLY616  TRP617  ASP618  TYR619  PRO620  LYS621  CYS622 
 ASP623  PHE694  ASN695  SER759  ASP760  ASP761  ALA762  ILE779  LEU786  VAL792 
 PHE793  MET794  SER795  GLU796  ALA797  LYS798  CYS799  TRP800  GLU811  SER814 

> <Gold.Protein.RotatedAtoms>
  151.0085  133.5988  159.2685 H   0  0  0  0  0  0  0  0  0  0  0  0  # atno 6907 bound_to 6896
  151.3148  135.0802  159.9295 H   0  0  0  0  0  0  0  0  0  0  0  0  # atno 6908 bound_to 6896
  152.5293  133.9743  159.7831 H   0  0  0  0  0  0  0  0  0  0  0  0  # atno 6909 bound_to 6896
  145.9605  140.7484  142.9460 H   0  0  0  0  0  0  0  0  0  0  0  0  # atno 7974 bound_to 7965
  154.6323  140.0602  156.9747 H   0  0  0  0  0  0  0  0  0  0  0  0  # atno 8008 bound_to 7997
  155.1646  140.3285  155.4386 H   0  0  0  0  0  0  0  0  0  0  0  0  # atno 8009 bound_to 7997
  156.2489  140.1925  156.6751 H   0  0  0  0  0  0  0  0  0  0  0  0  # atno 8010 bound_to 7997
  140.6756  143.6925  150.8016 H   0  0  0  0  0  0  0  0  0  0  0  0  # atno 10167 bound_to 10162
  156.5039  130.8404  151.2620 H   0  0  0  0  0  0  0  0  0  0  0  0  # atno 10718 bound_to 10713
  153.6681  135.6973  153.5156 H   0  0  0  0  0  0  0  0  0  0  0  0  # atno 10763 bound_to 10752
  153.2579  135.4254  155.0863 H   0  0  0  0  0  0  0  0  0  0  0  0  # atno 10764 bound_to 10752
  154.8434  135.3547  154.6226 H   0  0  0  0  0  0  0  0  0  0  0  0  # atno 10765 bound_to 10752
  140.1923  134.3972  155.8140 H   0  0  0  0  0  0  0  0  0  0  0  0  # atno 11005 bound_to 11000
  144.6814  140.2583  143.7322 LP  0  0  0  0  0  0  0  0  0  0  0  0  # atno 17320 bound_to 7965
  145.8047  139.1978  143.2028 LP  0  0  0  0  0  0  0  0  0  0  0  0  # atno 17321 bound_to 7965
  140.0618  143.5147  152.2624 LP  0  0  0  0  0  0  0  0  0  0  0  0  # atno 17342 bound_to 10162
  139.6047  144.7593  151.3090 LP  0  0  0  0  0  0  0  0  0  0  0  0  # atno 17343 bound_to 10162
  157.7459  130.9972  150.2809 LP  0  0  0  0  0  0  0  0  0  0  0  0  # atno 17370 bound_to 10713
  156.3306  130.3800  149.7494 LP  0  0  0  0  0  0  0  0  0  0  0  0  # atno 17371 bound_to 10713
  141.2226  133.7052  156.8116 LP  0  0  0  0  0  0  0  0  0  0  0  0  # atno 17394 bound_to 11000
  140.2146  134.8802  157.3312 LP  0  0  0  0  0  0  0  0  0  0  0  0  # atno 17395 bound_to 11000

$$$$
