AV-unprocessed.smi:168|AV-procd|sdf|1396|dock2
  -GOLD-   2262019143D 1   1.00000     0.00000
 Structure written by MMmdl.
 62 66  0  0  0  0  0  0  0  0  1 V2000
  153.4038  139.9687  158.7958 C   0  0  0  0  0  0  0  0  0  0  0  0
  151.9361  139.9448  159.2571 C   0  0  0  0  0  0  0  0  0  0  0  0
  151.3978  138.5094  159.1334 C   0  0  0  0  0  0  0  0  0  0  0  0
  151.0663  140.9372  158.4676 C   0  0  2  0  0  0  0  0  0  0  0  0
  151.3209  140.9276  157.0295 N   0  0  0  0  0  0  0  0  0  0  0  0
  150.4997  140.0720  156.2459 C   0  0  0  0  0  0  0  0  0  0  0  0
  150.8344  139.9531  154.9364 N   0  0  0  0  0  0  0  0  0  0  0  0
  150.1373  139.1667  154.1123 C   0  0  0  0  0  0  0  0  0  0  0  0
  149.0689  138.4172  154.3823 N   0  0  0  0  0  0  0  0  0  0  0  0
  148.7089  138.5322  155.6916 C   0  0  0  0  0  0  0  0  0  0  0  0
  149.3637  139.3228  156.6804 C   0  0  0  0  0  0  0  0  0  0  0  0
  148.7146  139.1704  157.9010 N   0  0  0  0  0  0  0  0  0  0  0  0
  147.7440  138.3357  157.6506 C   0  0  0  0  0  0  0  0  0  0  0  0
  147.6471  137.9260  156.3410 N   0  0  0  0  0  0  0  0  0  0  0  0
  146.7028  136.9898  155.8032 C   0  0  0  0  0  0  0  0  0  0  0  0
  146.7761  135.4998  156.1577 C   0  0  0  0  0  0  0  0  0  0  0  0
  146.3617  135.1264  154.7162 C   0  0  0  0  0  0  0  0  0  0  0  0
  147.1634  133.9937  154.0480 C   0  0  0  0  0  0  0  0  0  0  0  0
  148.5061  134.3513  153.7858 O   0  0  0  0  0  0  0  0  0  0  0  0
  144.8804  134.7456  154.5104 C   0  0  0  0  0  0  0  0  0  0  0  0
  144.4300  133.7410  155.3964 O   0  0  0  0  0  0  0  0  0  0  0  0
  146.7574  136.5700  154.3291 C   0  0  0  0  0  0  0  0  0  0  0  0
  150.9749  142.3366  156.9319 C   0  0  0  0  0  0  0  0  0  0  0  0
  151.3743  142.4540  158.4118 C   0  0  0  0  0  0  0  0  0  0  0  0
  152.8311  142.9099  158.6582 C   0  0  0  0  0  0  0  0  0  0  0  0
  153.0500  144.4011  158.3491 C   0  0  0  0  0  0  0  0  0  0  0  0
  152.0960  145.2823  159.1657 C   0  0  0  0  0  0  0  0  0  0  0  0
  150.6384  144.8394  158.9844 C   0  0  0  0  0  0  0  0  0  0  0  0
  150.4702  143.3403  159.2831 C   0  0  0  0  0  0  0  0  0  0  0  0
  153.4873  139.7630  157.7282 H   0  0  0  0  0  0  0  0  0  0  0  0
  153.9951  139.2217  159.3259 H   0  0  0  0  0  0  0  0  0  0  0  0
  153.8692  140.9349  158.9858 H   0  0  0  0  0  0  0  0  0  0  0  0
  151.9183  140.2099  160.3149 H   0  0  0  0  0  0  0  0  0  0  0  0
  151.4196  138.1702  158.0974 H   0  0  0  0  0  0  0  0  0  0  0  0
  150.3707  138.4225  159.4819 H   0  0  0  0  0  0  0  0  0  0  0  0
  151.9966  137.8137  159.7219 H   0  0  0  0  0  0  0  0  0  0  0  0
  150.0076  140.7934  158.6840 H   0  0  0  0  0  0  0  0  0  0  0  0
  150.4848  139.1355  153.0903 H   0  0  0  0  0  0  0  0  0  0  0  0
  147.0639  138.0004  158.4200 H   0  0  0  0  0  0  0  0  0  0  0  0
  145.7193  137.3914  156.0498 H   0  0  0  0  0  0  0  0  0  0  0  0
  147.7888  135.1879  156.4166 H   0  0  0  0  0  0  0  0  0  0  0  0
  146.0711  135.1918  156.9305 H   0  0  0  0  0  0  0  0  0  0  0  0
  147.1748  133.1035  154.6780 H   0  0  0  0  0  0  0  0  0  0  0  0
  146.7072  133.7024  153.1012 H   0  0  0  0  0  0  0  0  0  0  0  0
  148.5111  135.1276  153.2466 H   0  0  0  0  0  0  0  0  0  0  0  0
  144.2360  135.6151  154.6439 H   0  0  0  0  0  0  0  0  0  0  0  0
  144.7130  134.3872  153.4941 H   0  0  0  0  0  0  0  0  0  0  0  0
  143.9994  133.0671  154.8930 H   0  0  0  0  0  0  0  0  0  0  0  0
  146.0379  137.0863  153.6927 H   0  0  0  0  0  0  0  0  0  0  0  0
  147.7626  136.6486  153.9130 H   0  0  0  0  0  0  0  0  0  0  0  0
  151.6090  142.8914  156.2404 H   0  0  0  0  0  0  0  0  0  0  0  0
  149.9161  142.5272  156.7523 H   0  0  0  0  0  0  0  0  0  0  0  0
  153.1209  142.7290  159.6920 H   0  0  0  0  0  0  0  0  0  0  0  0
  153.5235  142.3226  158.0539 H   0  0  0  0  0  0  0  0  0  0  0  0
  154.0830  144.6775  158.5616 H   0  0  0  0  0  0  0  0  0  0  0  0
  152.8964  144.5841  157.2853 H   0  0  0  0  0  0  0  0  0  0  0  0
  152.3636  145.2225  160.2213 H   0  0  0  0  0  0  0  0  0  0  0  0
  152.2098  146.3274  158.8758 H   0  0  0  0  0  0  0  0  0  0  0  0
  149.9891  145.4240  159.6369 H   0  0  0  0  0  0  0  0  0  0  0  0
  150.3172  145.0469  157.9631 H   0  0  0  0  0  0  0  0  0  0  0  0
  149.4240  143.0686  159.1390 H   0  0  0  0  0  0  0  0  0  0  0  0
  150.6760  143.1598  160.3389 H   0  0  0  0  0  0  0  0  0  0  0  0
  1  2  1  0  0  0  0
  1 30  1  0  0  0  0
  1 31  1  0  0  0  0
  1 32  1  0  0  0  0
  2  3  1  0  0  0  0
  2  4  1  0  0  0  0
  2 33  1  0  0  0  0
  3 34  1  0  0  0  0
  3 35  1  0  0  0  0
  3 36  1  0  0  0  0
  4 24  1  0  0  0  0
  4  5  1  0  0  0  0
  4 37  1  0  0  0  0
  5  6  1  0  0  0  0
  5 23  1  0  0  0  0
  6 11  1  0  0  0  0
  6  7  2  0  0  0  0
  7  8  1  0  0  0  0
  8  9  2  0  0  0  0
  8 38  1  0  0  0  0
  9 10  1  0  0  0  0
 10 14  1  0  0  0  0
 10 11  2  0  0  0  0
 11 12  1  0  0  0  0
 12 13  2  0  0  0  0
 13 14  1  0  0  0  0
 13 39  1  0  0  0  0
 14 15  1  0  0  0  0
 15 22  1  0  0  0  0
 15 16  1  0  0  0  0
 15 40  1  0  0  0  0
 16 17  1  0  0  0  0
 16 41  1  0  0  0  0
 16 42  1  0  0  0  0
 17 18  1  0  0  0  0
 17 20  1  0  0  0  0
 17 22  1  0  0  0  0
 18 19  1  0  0  0  0
 18 43  1  0  0  0  0
 18 44  1  0  0  0  0
 19 45  1  0  0  0  0
 20 21  1  0  0  0  0
 20 46  1  0  0  0  0
 20 47  1  0  0  0  0
 21 48  1  0  0  0  0
 22 49  1  0  0  0  0
 22 50  1  0  0  0  0
 23 24  1  0  0  0  0
 23 51  1  0  0  0  0
 23 52  1  0  0  0  0
 24 29  1  0  0  0  0
 24 25  1  0  0  0  0
 25 26  1  0  0  0  0
 25 53  1  0  0  0  0
 25 54  1  0  0  0  0
 26 27  1  0  0  0  0
 26 55  1  0  0  0  0
 26 56  1  0  0  0  0
 27 28  1  0  0  0  0
 27 57  1  0  0  0  0
 27 58  1  0  0  0  0
 28 29  1  0  0  0  0
 28 59  1  0  0  0  0
 28 60  1  0  0  0  0
 29 61  1  0  0  0  0
 29 62  1  0  0  0  0
M  END
> <s_m_source_file>
AV-unprocessed.smi

> <i_m_source_file_index>
168

> <i_lp_mmshare_version>
43012

> <i_f3d_flags>
0

> <s_epik_input>
W0NIMl0xW0NIMl1bQ0gyXVtDSDJdW0NIMl1DMTJbQ0BIXShbQ0hdKFtDSDNdKVtDSDNdKU4oW0NIMl0yKWMobltjSF1uMyljKGMzNCluW2NIXW40W0NIXShbQ0gyXTUpW0NIMl1DNShbQ0gyXVtPSF0pW0NIMl1bT0hd

> <s_epik_cmdline>
J2VwaWtfcHl0aG9uJywgJy1waCcsICc3LjAnLCAnLXRuJywgJzgnLCAnLW1hJywgJzIwMCcsICctbWV0YWxfYmluZGluZycsICctaW1hZScsICc8aW5maWxlLm1hZT4nLCAnLW9tYWUnLCAnPG91dGZpbGUubWFlPic=

> <r_lp_tautomer_probability>
1

> <r_epik_Ionization_Penalty>
0.00324652

> <r_epik_Ionization_Penalty_Charging>
0

> <r_epik_Ionization_Penalty_Neutral>
0.00324652

> <r_epik_State_Penalty>
0.00223464

> <r_epik_Charging_Adjusted_Penalty>
0.00223464

> <i_epik_Tot_Q>
0

> <i_epik_Tot_abs_Q>
0

> <r_epik_Metal_State_Penalty>
-0

> <b_epik_Metal_Only>
0

> <s_lp_Force_Field>
OPLS_2005

> <r_lp_Energy>
66.0346

> <b_lp_Chiralities_Consistent>
1

> <s_lp_Variant>
AV-unprocessed.smi:168-1

> <Gold.Version>
5.8.1

> <Gold.Id.Protein>
6NUR|6NUR_protein|mol2

> <Gold.PLP.Fitness>
45.1749

> <Gold.PLP.PLP>
-35.7219

> <Gold.PLP.part.hbond>
-3.0000

> <Gold.PLP.part.metal>
0.0000

> <Gold.PLP.part.buried>
-5.2730

> <Gold.PLP.part.nonpolar>
-26.7817

> <Gold.PLP.part.repulsive>
0.2626

> <Gold.PLP.ligand.clash>
0.0112

> <Gold.PLP.ligand.torsion>
1.1724

> <Gold.PLP.Chemscore.Hbond>
2.6500

> <Gold.PLP.Chemscore.CHOScore>
1.0000

> <Gold.PLP.Chemscore.Metal>
0.0000

> <Gold.Chemscore.Hbonds>
donor molecule, donor type, donor heavy atom, donor atom, acceptor molecule, acceptor atom, score
      L1  H    19    45       P1  7948  1.00
      L1  H    21    48       P1 10957  0.96
      P1  H  7989  7998       L1     7  0.60
      L1  C     8    38       P1  7957  1.00

> <Gold.PLP.Chemscore.Internal.Correction>
0.8590

> <Gold.Rescore>
     Score         DG    S(hbond)    S(metal)    S(lipo)     H(rot)  DE(clash)    DE(int)     intcor
     11.76     -16.38       1.97        0.00     105.19       3.12       0.13       4.49       ----

> <Gold.Chemscore.Fitness>
11.7645

> <Gold.Chemscore.DG>
-16.3824

> <Gold.Chemscore.ZeroCoef>
-5.4800

> <Gold.Chemscore.Hbond>
1.9694

> <Gold.Chemscore.Metal>
0.0000

> <Gold.Chemscore.Lipo>
105.1868

> <Gold.Chemscore.Internal_Hbond>
0.0000

> <Gold.Chemscore.DEClash>
0.1277

> <Gold.Chemscore.DEInternal>
4.4902

> <Gold.Chemscore.Rot>
3.1181

> <Gold.Chemscore.Internal.Correction>
   9.000000E+99

> <Gold.Chemscore.Hbonds>
donor molecule, donor type, donor heavy atom, donor atom, acceptor molecule, acceptor atom, score
      L1  H    19    45       P1  7948  0.84
      L1  H    21    48       P1 10957  0.92
      P1  H  7989  7998       L1     7  0.04

> <Gold.Chemscore.Hbond.Weighted>
-6.5778

> <Gold.Chemscore.Metal.Weighted>
-0.0000

> <Gold.Chemscore.Lipo.Weighted>
-12.3069

> <Gold.Chemscore.Internal_Hbond.Weighted>
0.0000

> <Gold.Chemscore.DEClash.Weighted>
0.1277

> <Gold.Chemscore.DEInternal.Weighted>
4.4902

> <Gold.Chemscore.Rot.Weighted>
7.9823

> <Gold.Chemscore.Internal.Correction.Weighted>
   9.000000E+99

> <Gold.Protein.RotatedTorsions>
[ 6907 6896 6895 6894 ] final -154.00 input  -60.11 | X-H torsion
[ 7974 7965 7964 7962 ] final   68.50 input  175.53 | X-H torsion
[ 8008 7997 7996 7995 ] final  -41.16 input   59.86 | X-H torsion
[ 10167 10162 10161 10158 ] final -103.85 input  -65.29 | X-H torsion
[ 10718 10713 10712 10709 ] final  -99.43 input   66.30 | X-H torsion
[ 10763 10752 10751 10750 ] final -135.18 input  -60.55 | X-H torsion
[ 11005 11000 10999 10996 ] final   86.34 input  -57.11 | X-H torsion

> <Gold.Protein.ActiveResidues>
 VAL166  LYS551  ARG553  GLY616  TRP617  ASP618  TYR619  PRO620  LYS621  CYS622 
 ASP623  PHE694  ASN695  SER759  ASP760  ASP761  ALA762  ILE779  LEU786  VAL792 
 PHE793  MET794  SER795  GLU796  ALA797  LYS798  CYS799  TRP800  GLU811  SER814 

> <Gold.Protein.RotatedAtoms>
  151.2509  133.4350  159.2611 H   0  0  0  0  0  0  0  0  0  0  0  0  # atno 6907 bound_to 6896
  151.0618  134.9742  159.8274 H   0  0  0  0  0  0  0  0  0  0  0  0  # atno 6908 bound_to 6896
  152.5399  134.2459  159.8933 H   0  0  0  0  0  0  0  0  0  0  0  0  # atno 6909 bound_to 6896
  145.8019  139.2986  143.1150 H   0  0  0  0  0  0  0  0  0  0  0  0  # atno 7974 bound_to 7965
  154.4006  140.1506  156.3146 H   0  0  0  0  0  0  0  0  0  0  0  0  # atno 8008 bound_to 7997
  155.8585  140.3454  155.5719 H   0  0  0  0  0  0  0  0  0  0  0  0  # atno 8009 bound_to 7997
  155.7906  140.0856  157.2001 H   0  0  0  0  0  0  0  0  0  0  0  0  # atno 8010 bound_to 7997
  140.2156  143.3714  152.1013 H   0  0  0  0  0  0  0  0  0  0  0  0  # atno 10167 bound_to 10162
  156.0134  130.5282  150.6668 H   0  0  0  0  0  0  0  0  0  0  0  0  # atno 10718 bound_to 10713
  154.8707  135.3711  154.4857 H   0  0  0  0  0  0  0  0  0  0  0  0  # atno 10763 bound_to 10752
  153.5507  135.7025  153.5597 H   0  0  0  0  0  0  0  0  0  0  0  0  # atno 10764 bound_to 10752
  153.3718  135.4019  155.1758 H   0  0  0  0  0  0  0  0  0  0  0  0  # atno 10765 bound_to 10752
  139.8947  134.8348  156.2706 H   0  0  0  0  0  0  0  0  0  0  0  0  # atno 11005 bound_to 11000
  145.9869  140.8635  143.0086 LP  0  0  0  0  0  0  0  0  0  0  0  0  # atno 17320 bound_to 7965
  144.6768  140.2160  143.7372 LP  0  0  0  0  0  0  0  0  0  0  0  0  # atno 17321 bound_to 7965
  139.5163  144.6976  151.5587 LP  0  0  0  0  0  0  0  0  0  0  0  0  # atno 17342 bound_to 10162
  140.6292  143.9109  150.6591 LP  0  0  0  0  0  0  0  0  0  0  0  0  # atno 17343 bound_to 10162
  157.4399  131.0860  151.0954 LP  0  0  0  0  0  0  0  0  0  0  0  0  # atno 17370 bound_to 10713
  157.1501  130.6180  149.5580 LP  0  0  0  0  0  0  0  0  0  0  0  0  # atno 17371 bound_to 10713
  141.0103  133.7099  156.1101 LP  0  0  0  0  0  0  0  0  0  0  0  0  # atno 17394 bound_to 11000
  140.7377  134.4185  157.5558 LP  0  0  0  0  0  0  0  0  0  0  0  0  # atno 17395 bound_to 11000

$$$$
