AV-unprocessed.smi:2941|AV-procd|sdf|11265|dock5
  -GOLD-   2272016153D 1   1.00000     0.00000
 Structure written by MMmdl.
 35 36  0  0  0  0  0  0  0  0  2 V2000
  146.3547  138.7293  151.3996 C   0  0  0  0  0  0  0  0  0  0  0  0
  146.6275  140.0362  151.8742 O   0  0  0  0  0  0  0  0  0  0  0  0
  146.8103  140.0764  153.2791 C   0  0  0  0  0  0  0  0  0  0  0  0
  147.6635  141.3033  153.6335 C   0  0  0  0  0  0  0  0  0  0  0  0
  148.0493  141.2965  155.0507 N   0  0  0  0  0  0  0  0  0  0  0  0
  149.4214  141.1571  155.3347 C   0  0  0  0  0  0  0  0  0  0  0  0
  149.8960  141.1382  156.5945 C   0  0  0  0  0  0  0  0  0  0  0  0
  151.3489  140.9781  156.8473 C   0  0  0  0  0  0  0  0  0  0  0  0
  152.0763  140.4090  156.0318 O   0  0  0  0  0  0  0  0  0  0  0  0
  151.9076  141.5515  158.1090 C   0  0  0  0  0  0  0  0  0  0  0  0
  151.4521  142.8183  158.5451 C   0  0  0  0  0  0  0  0  0  0  0  0
  151.9613  143.4010  159.7203 C   0  0  0  0  0  0  0  0  0  0  0  0
  151.5164  144.6155  160.1214 F   0  0  0  0  0  0  0  0  0  0  0  0
  152.9340  142.7236  160.4764 C   0  0  0  0  0  0  0  0  0  0  0  0
  153.3941  141.4623  160.0565 C   0  0  0  0  0  0  0  0  0  0  0  0
  152.8885  140.8710  158.8806 C   0  0  0  0  0  0  0  0  0  0  0  0
  153.3565  139.6329  158.5347 O   0  5  0  0  0  0  0  0  0  0  0  0
  148.9364  141.2527  157.6760 C   0  0  0  0  0  0  0  0  0  0  0  0
  147.6206  141.3742  157.4108 C   0  0  0  0  0  0  0  0  0  0  0  0
  146.6597  141.4785  158.4584 C   0  0  0  0  0  0  0  0  0  0  0  0
  145.8929  141.5528  159.3224 N   0  0  0  0  0  0  0  0  0  0  0  0
  147.1051  141.3985  156.0347 C   0  0  0  0  0  0  0  0  0  0  0  0
  145.9046  141.4999  155.7758 O   0  0  0  0  0  0  0  0  0  0  0  0
  146.2245  138.7521  150.3177 H   0  0  0  0  0  0  0  0  0  0  0  0
  145.4391  138.3327  151.8403 H   0  0  0  0  0  0  0  0  0  0  0  0
  147.1759  138.0480  151.6254 H   0  0  0  0  0  0  0  0  0  0  0  0
  145.8416  140.1305  153.7784 H   0  0  0  0  0  0  0  0  0  0  0  0
  147.3057  139.1645  153.6164 H   0  0  0  0  0  0  0  0  0  0  0  0
  148.5535  141.3221  153.0027 H   0  0  0  0  0  0  0  0  0  0  0  0
  147.1226  142.2177  153.3841 H   0  0  0  0  0  0  0  0  0  0  0  0
  150.0535  141.0657  154.4620 H   0  0  0  0  0  0  0  0  0  0  0  0
  150.7118  143.3593  157.9736 H   0  0  0  0  0  0  0  0  0  0  0  0
  153.3262  143.1692  161.3784 H   0  0  0  0  0  0  0  0  0  0  0  0
  154.1381  140.9448  160.6449 H   0  0  0  0  0  0  0  0  0  0  0  0
  149.2649  141.2272  158.7052 H   0  0  0  0  0  0  0  0  0  0  0  0
  1  2  1  0  0  0  0
  1 24  1  0  0  0  0
  1 25  1  0  0  0  0
  1 26  1  0  0  0  0
  2  3  1  0  0  0  0
  3  4  1  0  0  0  0
  3 27  1  0  0  0  0
  3 28  1  0  0  0  0
  4  5  1  0  0  0  0
  4 29  1  0  0  0  0
  4 30  1  0  0  0  0
  5 22  1  0  0  0  0
  5  6  1  0  0  0  0
  6  7  2  0  0  0  0
  6 31  1  0  0  0  0
  7  8  1  0  0  0  0
  7 18  1  0  0  0  0
  8  9  2  0  0  0  0
  8 10  1  0  0  0  0
 10 16  1  0  0  0  0
 10 11  2  0  0  0  0
 11 12  1  0  0  0  0
 11 32  1  0  0  0  0
 12 13  1  0  0  0  0
 12 14  2  0  0  0  0
 14 15  1  0  0  0  0
 14 33  1  0  0  0  0
 15 16  2  0  0  0  0
 15 34  1  0  0  0  0
 16 17  1  0  0  0  0
 18 19  2  0  0  0  0
 18 35  1  0  0  0  0
 19 20  1  0  0  0  0
 19 22  1  0  0  0  0
 20 21  3  0  0  0  0
 22 23  2  0  0  0  0
M  CHG  1  17  -1
M  END
> <s_m_source_file>
AV-unprocessed.smi

> <i_m_source_file_index>
2941

> <i_lp_mmshare_version>
43012

> <i_f3d_flags>
0

> <s_epik_input>
W0NIM11PW0NIMl1bQ0gyXW4xW2NIXWMoW2NIXWMoQyNOKWMxPU8pQyg9TyljMltjSF1jKEYpW2NIXVtjSF1jMltPSF0=

> <s_epik_cmdline>
J2VwaWtfcHl0aG9uJywgJy1waCcsICc3LjAnLCAnLXRuJywgJzgnLCAnLW1hJywgJzIwMCcsICctbWV0YWxfYmluZGluZycsICctaW1hZScsICc8aW5maWxlLm1hZT4nLCAnLW9tYWUnLCAnPG91dGZpbGUubWFlPic=

> <r_epik_Ionization_Penalty>
0.585622

> <r_epik_Ionization_Penalty_Charging>
0.585622

> <r_epik_Ionization_Penalty_Neutral>
1.08437e-11

> <r_epik_State_Penalty>
0.598756

> <r_epik_Charging_Adjusted_Penalty>
1.18438

> <i_epik_Tot_Q>
-1

> <i_epik_Tot_abs_Q>
1

> <r_epik_Metal_State_Penalty>
0.598756

> <b_epik_Metal_Only>
0

> <s_lp_Force_Field>
OPLS_2005

> <r_lp_Energy>
22.2584

> <b_lp_Chiralities_Consistent>
1

> <s_lp_Variant>
AV-unprocessed.smi:2941-2

> <Gold.Version>
5.8.1

> <Gold.Id.Protein>
6NUR|6NUR_protein|mol2

> <Gold.PLP.Fitness>
50.6020

> <Gold.PLP.PLP>
-42.3705

> <Gold.PLP.part.hbond>
-2.8999

> <Gold.PLP.part.metal>
0.0000

> <Gold.PLP.part.buried>
-3.8258

> <Gold.PLP.part.nonpolar>
-37.8533

> <Gold.PLP.part.repulsive>
1.9747

> <Gold.PLP.ligand.clash>
0.0000

> <Gold.PLP.ligand.torsion>
1.1314

> <Gold.PLP.Chemscore.Hbond>
2.9263

> <Gold.PLP.Chemscore.CHOScore>
0.0000

> <Gold.PLP.Chemscore.Metal>
0.0000

> <Gold.Chemscore.Hbonds>
donor molecule, donor type, donor heavy atom, donor atom, acceptor molecule, acceptor atom, score
      P1  H  6934  6946       L1    21  0.94
      P1  H  7997  8008       L1    17  2.00

> <Gold.PLP.Chemscore.Internal.Correction>
1.7156

> <Gold.Rescore>
     Score         DG    S(hbond)    S(metal)    S(lipo)     H(rot)  DE(clash)    DE(int)     intcor
     11.74     -17.18       1.03        0.00     102.90       1.47       1.24       4.20       ----

> <Gold.Chemscore.Fitness>
11.7443

> <Gold.Chemscore.DG>
-17.1822

> <Gold.Chemscore.ZeroCoef>
-5.4800

> <Gold.Chemscore.Hbond>
1.0294

> <Gold.Chemscore.Metal>
0.0000

> <Gold.Chemscore.Lipo>
102.8991

> <Gold.Chemscore.Internal_Hbond>
0.0000

> <Gold.Chemscore.DEClash>
1.2371

> <Gold.Chemscore.DEInternal>
4.2008

> <Gold.Chemscore.Rot>
1.4747

> <Gold.Chemscore.Internal.Correction>
   9.000000E+99

> <Gold.Chemscore.Hbonds>
donor molecule, donor type, donor heavy atom, donor atom, acceptor molecule, acceptor atom, score
      P1  H  6934  6946       L1    21  0.24
      P1  H  7997  8008       L1    17  0.43

> <Gold.Chemscore.Hbond.Weighted>
-3.4383

> <Gold.Chemscore.Metal.Weighted>
-0.0000

> <Gold.Chemscore.Lipo.Weighted>
-12.0392

> <Gold.Chemscore.Internal_Hbond.Weighted>
0.0000

> <Gold.Chemscore.DEClash.Weighted>
1.2371

> <Gold.Chemscore.DEInternal.Weighted>
4.2008

> <Gold.Chemscore.Rot.Weighted>
3.7754

> <Gold.Chemscore.Internal.Correction.Weighted>
   9.000000E+99

> <Gold.Protein.RotatedTorsions>
[ 6907 6896 6895 6894 ] final   32.33 input  -60.11 | X-H torsion
[ 7974 7965 7964 7962 ] final  128.95 input  175.53 | X-H torsion
[ 8008 7997 7996 7995 ] final -100.30 input   59.86 | X-H torsion
[ 10167 10162 10161 10158 ] final   17.20 input  -65.29 | X-H torsion
[ 10718 10713 10712 10709 ] final  140.53 input   66.30 | X-H torsion
[ 10763 10752 10751 10750 ] final   -7.53 input  -60.55 | X-H torsion
[ 11005 11000 10999 10996 ] final  105.16 input  -57.11 | X-H torsion

> <Gold.Protein.ActiveResidues>
 VAL166  LYS551  ARG553  GLY616  TRP617  ASP618  TYR619  PRO620  LYS621  CYS622 
 ASP623  PHE694  ASN695  SER759  ASP760  ASP761  ALA762  ILE779  LEU786  VAL792 
 PHE793  MET794  SER795  GLU796  ALA797  LYS798  CYS799  TRP800  GLU811  SER814 

> <Gold.Protein.RotatedAtoms>
  152.0729  134.9521  160.0574 H   0  0  0  0  0  0  0  0  0  0  0  0  # atno 6907 bound_to 6896
  152.0840  133.4162  159.4522 H   0  0  0  0  0  0  0  0  0  0  0  0  # atno 6908 bound_to 6896
  150.6836  134.2869  159.4694 H   0  0  0  0  0  0  0  0  0  0  0  0  # atno 6909 bound_to 6896
  145.0340  139.4021  143.5135 H   0  0  0  0  0  0  0  0  0  0  0  0  # atno 7974 bound_to 7965
  154.8267  140.0442  157.1448 H   0  0  0  0  0  0  0  0  0  0  0  0  # atno 8008 bound_to 7997
  154.9198  140.3025  155.5202 H   0  0  0  0  0  0  0  0  0  0  0  0  # atno 8009 bound_to 7997
  156.2984  140.2342  156.4247 H   0  0  0  0  0  0  0  0  0  0  0  0  # atno 8010 bound_to 7997
  140.5743  143.9103  150.6737 H   0  0  0  0  0  0  0  0  0  0  0  0  # atno 10167 bound_to 10162
  157.4022  131.1018  151.0540 H   0  0  0  0  0  0  0  0  0  0  0  0  # atno 10718 bound_to 10713
  153.4276  135.7011  153.6252 H   0  0  0  0  0  0  0  0  0  0  0  0  # atno 10763 bound_to 10752
  153.4680  135.3721  155.2376 H   0  0  0  0  0  0  0  0  0  0  0  0  # atno 10764 bound_to 10752
  154.8724  135.4036  154.3654 H   0  0  0  0  0  0  0  0  0  0  0  0  # atno 10765 bound_to 10752
  139.8799  134.9326  156.5472 H   0  0  0  0  0  0  0  0  0  0  0  0  # atno 11005 bound_to 11000
  146.3502  139.9905  142.8686 LP  0  0  0  0  0  0  0  0  0  0  0  0  # atno 17320 bound_to 7965
  145.1734  140.9732  143.4308 LP  0  0  0  0  0  0  0  0  0  0  0  0  # atno 17321 bound_to 7965
  140.2586  143.3540  152.1343 LP  0  0  0  0  0  0  0  0  0  0  0  0  # atno 17342 bound_to 10162
  139.5134  144.6932  151.5703 LP  0  0  0  0  0  0  0  0  0  0  0  0  # atno 17343 bound_to 10162
  157.1535  130.6194  149.5589 LP  0  0  0  0  0  0  0  0  0  0  0  0  # atno 17370 bound_to 10713
  155.9826  130.4841  150.6891 LP  0  0  0  0  0  0  0  0  0  0  0  0  # atno 17371 bound_to 10713
  140.8267  133.8311  155.8945 LP  0  0  0  0  0  0  0  0  0  0  0  0  # atno 17394 bound_to 11000
  140.9367  134.1952  157.4826 LP  0  0  0  0  0  0  0  0  0  0  0  0  # atno 17395 bound_to 11000

$$$$
