AV-unprocessed.smi:110|AV-procd|sdf|1072|dock10
  -GOLD-   2262018153D 1   1.00000     0.00000
 Structure written by MMmdl.
 46 50  0  0  0  0  0  0  0  0  1 V2000
  144.1375  142.1029  154.8724 O   0  0  0  0  0  0  0  0  0  0  0  0
  145.3552  142.6302  154.3882 C   0  0  0  0  0  0  0  0  0  0  0  0
  146.5575  141.7372  154.7437 C   0  0  2  0  0  0  0  0  0  0  0  0
  147.7532  142.2447  154.1724 O   0  0  0  0  0  0  0  0  0  0  0  0
  148.7243  141.2443  154.2011 C   0  0  1  0  0  0  0  0  0  0  0  0
  149.5314  141.3934  155.4557 N   0  0  0  0  0  0  0  0  0  0  0  0
  149.3456  142.2413  156.5270 C   0  0  0  0  0  0  0  0  0  0  0  0
  150.2359  142.1418  157.4767 N   0  0  0  0  0  0  0  0  0  0  0  0
  151.1271  141.1805  157.0146 C   0  0  0  0  0  0  0  0  0  0  0  0
  152.3173  140.5878  157.5257 C   0  0  0  0  0  0  0  0  0  0  0  0
  152.8784  140.8901  158.7199 N   0  0  0  0  0  0  0  0  0  0  0  0
  153.6248  139.8534  159.4471 C   0  0  0  0  0  0  0  0  0  0  0  0
  153.7312  140.3017  160.9168 C   0  0  0  0  0  0  0  0  0  0  0  0
  153.1191  141.6633  160.8442 C   0  0  0  0  0  0  0  0  0  0  0  0
  153.0082  142.6033  161.8833 C   0  0  0  0  0  0  0  0  0  0  0  0
  152.4143  143.8498  161.5917 C   0  0  0  0  0  0  0  0  0  0  0  0
  151.9570  144.1351  160.2842 C   0  0  0  0  0  0  0  0  0  0  0  0
  152.0805  143.1756  159.2552 C   0  0  0  0  0  0  0  0  0  0  0  0
  152.6548  141.9238  159.5586 C   0  0  0  0  0  0  0  0  0  0  0  0
  152.9027  139.6136  156.7830 N   0  0  0  0  0  0  0  0  0  0  0  0
  152.3876  139.2685  155.6000 C   0  0  0  0  0  0  0  0  0  0  0  0
  151.3023  139.7488  154.9908 N   0  0  0  0  0  0  0  0  0  0  0  0
  150.6891  140.7048  155.7468 C   0  0  0  0  0  0  0  0  0  0  0  0
  147.9853  139.8877  154.1982 C   0  0  2  0  0  0  0  0  0  0  0  0
  148.2417  139.1656  153.0109 O   0  0  0  0  0  0  0  0  0  0  0  0
  146.5079  140.2756  154.2836 C   0  0  1  0  0  0  0  0  0  0  0  0
  145.8376  139.4880  155.2477 O   0  0  0  0  0  0  0  0  0  0  0  0
  146.6911  141.7668  155.8267 H   0  0  0  0  0  0  0  0  0  0  0  0
  149.4524  141.3713  153.3986 H   0  0  0  0  0  0  0  0  0  0  0  0
  148.2943  139.2881  155.0562 H   0  0  0  0  0  0  0  0  0  0  0  0
  146.0255  140.1755  153.3106 H   0  0  0  0  0  0  0  0  0  0  0  0
  143.8237  141.4565  154.2584 H   0  0  0  0  0  0  0  0  0  0  0  0
  145.2891  142.7704  153.3089 H   0  0  0  0  0  0  0  0  0  0  0  0
  145.4896  143.6179  154.8300 H   0  0  0  0  0  0  0  0  0  0  0  0
  148.5245  142.9400  156.5929 H   0  0  0  0  0  0  0  0  0  0  0  0
  153.1270  138.8859  159.3679 H   0  0  0  0  0  0  0  0  0  0  0  0
  154.6177  139.7551  159.0067 H   0  0  0  0  0  0  0  0  0  0  0  0
  153.1526  139.6604  161.5822 H   0  0  0  0  0  0  0  0  0  0  0  0
  154.7638  140.3477  161.2630 H   0  0  0  0  0  0  0  0  0  0  0  0
  153.3724  142.3804  162.8753 H   0  0  0  0  0  0  0  0  0  0  0  0
  152.3165  144.5930  162.3691 H   0  0  0  0  0  0  0  0  0  0  0  0
  151.5145  145.0965  160.0692 H   0  0  0  0  0  0  0  0  0  0  0  0
  151.7442  143.4077  158.2558 H   0  0  0  0  0  0  0  0  0  0  0  0
  152.9199  138.4946  155.0670 H   0  0  0  0  0  0  0  0  0  0  0  0
  148.9259  139.6103  152.5342 H   0  0  0  0  0  0  0  0  0  0  0  0
  144.9182  139.4680  155.0306 H   0  0  0  0  0  0  0  0  0  0  0  0
  1  2  1  0  0  0  0
  1 32  1  0  0  0  0
  2  3  1  0  0  0  0
  2 33  1  0  0  0  0
  2 34  1  0  0  0  0
  3 28  1  0  0  0  0
  3 26  1  0  0  0  0
  3  4  1  0  0  0  0
  4  5  1  0  0  0  0
  5 29  1  0  0  0  0
  5  6  1  0  0  0  0
  5 24  1  0  0  0  0
  6 23  1  0  0  0  0
  6  7  1  0  0  0  0
  7  8  2  0  0  0  0
  7 35  1  0  0  0  0
  8  9  1  0  0  0  0
  9 23  2  0  0  0  0
  9 10  1  0  0  0  0
 10 11  1  0  0  0  0
 10 20  2  0  0  0  0
 11 19  1  0  0  0  0
 11 12  1  0  0  0  0
 12 13  1  0  0  0  0
 12 36  1  0  0  0  0
 12 37  1  0  0  0  0
 13 14  1  0  0  0  0
 13 38  1  0  0  0  0
 13 39  1  0  0  0  0
 14 19  2  0  0  0  0
 14 15  1  0  0  0  0
 15 16  2  0  0  0  0
 15 40  1  0  0  0  0
 16 17  1  0  0  0  0
 16 41  1  0  0  0  0
 17 18  2  0  0  0  0
 17 42  1  0  0  0  0
 18 19  1  0  0  0  0
 18 43  1  0  0  0  0
 20 21  1  0  0  0  0
 21 22  2  0  0  0  0
 21 44  1  0  0  0  0
 22 23  1  0  0  0  0
 24 30  1  0  0  0  0
 24 25  1  0  0  0  0
 24 26  1  0  0  0  0
 25 45  1  0  0  0  0
 26 31  1  0  0  0  0
 26 27  1  0  0  0  0
 27 46  1  0  0  0  0
M  END
> <s_m_source_file>
AV-unprocessed.smi

> <i_m_source_file_index>
110

> <i_lp_mmshare_version>
43012

> <i_f3d_flags>
0

> <s_epik_input>
W09IXVtDSDJdW0NASF0xT1tDQEhdKFtDQEhdKFtPSF0pW0NAQEhdMVtPSF0pbihbY0hdbjIpYyhjMjMpbltjSF1uYzNOKFtDSDJdW0NIMl00KWMoYzQ1KVtjSF1bY0hdW2NIXVtjSF01

> <s_epik_cmdline>
J2VwaWtfcHl0aG9uJywgJy1waCcsICc3LjAnLCAnLXRuJywgJzgnLCAnLW1hJywgJzIwMCcsICctbWV0YWxfYmluZGluZycsICctaW1hZScsICc8aW5maWxlLm1hZT4nLCAnLW9tYWUnLCAnPG91dGZpbGUubWFlPic=

> <r_lp_tautomer_probability>
1

> <r_epik_Ionization_Penalty>
0.00068475

> <r_epik_Ionization_Penalty_Charging>
0

> <r_epik_Ionization_Penalty_Neutral>
0.00068475

> <r_epik_State_Penalty>
0.000417442

> <r_epik_Charging_Adjusted_Penalty>
0.000417442

> <i_epik_Tot_Q>
0

> <i_epik_Tot_abs_Q>
0

> <r_epik_Metal_State_Penalty>
-0

> <b_epik_Metal_Only>
0

> <s_epik_Chemistry_Notes>
This compound contains an acetal/aminal-like group ( X-CH(R)-Y where X, Y are N, S, or O) that may be acid/base labile, releasing an aldehyde.

> <s_lp_Force_Field>
OPLS_2005

> <r_lp_Energy>
55.1552

> <b_lp_Chiralities_Consistent>
1

> <s_lp_Variant>
AV-unprocessed.smi:110-10

> <Gold.Version>
5.8.1

> <Gold.Id.Protein>
6NUR|6NUR_protein|mol2

> <Gold.PLP.Fitness>
64.9303

> <Gold.PLP.PLP>
-52.0263

> <Gold.PLP.part.hbond>
-4.9693

> <Gold.PLP.part.metal>
0.0000

> <Gold.PLP.part.buried>
-3.1662

> <Gold.PLP.part.nonpolar>
-45.5801

> <Gold.PLP.part.repulsive>
0.7819

> <Gold.PLP.ligand.clash>
0.0000

> <Gold.PLP.ligand.torsion>
0.3929

> <Gold.PLP.Chemscore.Hbond>
3.8500

> <Gold.PLP.Chemscore.CHOScore>
0.6868

> <Gold.PLP.Chemscore.Metal>
0.0000

> <Gold.Chemscore.Hbonds>
donor molecule, donor type, donor heavy atom, donor atom, acceptor molecule, acceptor atom, score
      L1  H     1    32       P1 10175  1.00
      L1  H    25    45       P1  7957  0.99
      P1  H  7989  7998       L1    22  0.80
      P1  H  7997  8009       L1    20  1.00
      L1  C     7    35       P1  8028  0.69

> <Gold.PLP.Chemscore.Internal.Correction>
0.0794

> <Gold.Rescore>
     Score         DG    S(hbond)    S(metal)    S(lipo)     H(rot)  DE(clash)    DE(int)     intcor
     14.41     -17.65       2.45        0.00     108.16       3.38       1.49       1.75       ----

> <Gold.Chemscore.Fitness>
14.4095

> <Gold.Chemscore.DG>
-17.6504

> <Gold.Chemscore.ZeroCoef>
-5.4800

> <Gold.Chemscore.Hbond>
2.4483

> <Gold.Chemscore.Metal>
0.0000

> <Gold.Chemscore.Lipo>
108.1643

> <Gold.Chemscore.Internal_Hbond>
0.0000

> <Gold.Chemscore.DEClash>
1.4891

> <Gold.Chemscore.DEInternal>
1.7519

> <Gold.Chemscore.Rot>
3.3837

> <Gold.Chemscore.Internal.Correction>
   9.000000E+99

> <Gold.Chemscore.Hbonds>
donor molecule, donor type, donor heavy atom, donor atom, acceptor molecule, acceptor atom, score
      L1  H     1    32       P1 10175  0.24
      L1  H    25    45       P1  7957  0.93
      P1  H  7989  7998       L1    22  0.11
      P1  H  7997  8009       L1    20  0.31

> <Gold.Chemscore.Hbond.Weighted>
-8.1774

> <Gold.Chemscore.Metal.Weighted>
-0.0000

> <Gold.Chemscore.Lipo.Weighted>
-12.6552

> <Gold.Chemscore.Internal_Hbond.Weighted>
0.0000

> <Gold.Chemscore.DEClash.Weighted>
1.4891

> <Gold.Chemscore.DEInternal.Weighted>
1.7519

> <Gold.Chemscore.Rot.Weighted>
8.6622

> <Gold.Chemscore.Internal.Correction.Weighted>
   9.000000E+99

> <Gold.Protein.RotatedTorsions>
[ 6907 6896 6895 6894 ] final   80.63 input  -60.11 | X-H torsion
[ 7974 7965 7964 7962 ] final  168.04 input  175.53 | X-H torsion
[ 8008 7997 7996 7995 ] final  170.13 input   59.86 | X-H torsion
[ 10167 10162 10161 10158 ] final -139.72 input  -65.29 | X-H torsion
[ 10718 10713 10712 10709 ] final   61.01 input   66.30 | X-H torsion
[ 10763 10752 10751 10750 ] final   -9.19 input  -60.55 | X-H torsion
[ 11005 11000 10999 10996 ] final   26.14 input  -57.11 | X-H torsion

> <Gold.Protein.ActiveResidues>
 VAL166  LYS551  ARG553  GLY616  TRP617  ASP618  TYR619  PRO620  LYS621  CYS622 
 ASP623  PHE694  ASN695  SER759  ASP760  ASP761  ALA762  ILE779  LEU786  VAL792 
 PHE793  MET794  SER795  GLU796  ALA797  LYS798  CYS799  TRP800  GLU811  SER814 

> <Gold.Protein.RotatedAtoms>
  152.5241  134.3327  159.9188 H   0  0  0  0  0  0  0  0  0  0  0  0  # atno 6907 bound_to 6896
  151.3277  133.4007  159.2667 H   0  0  0  0  0  0  0  0  0  0  0  0  # atno 6908 bound_to 6896
  150.9907  134.9259  159.7955 H   0  0  0  0  0  0  0  0  0  0  0  0  # atno 6909 bound_to 6896
  144.7403  139.8848  143.6399 H   0  0  0  0  0  0  0  0  0  0  0  0  # atno 7974 bound_to 7965
  156.1394  140.1546  156.8944 H   0  0  0  0  0  0  0  0  0  0  0  0  # atno 8008 bound_to 7997
  154.4974  140.0834  156.7765 H   0  0  0  0  0  0  0  0  0  0  0  0  # atno 8009 bound_to 7997
  155.4108  140.3418  155.4266 H   0  0  0  0  0  0  0  0  0  0  0  0  # atno 8010 bound_to 7997
  139.8352  143.7394  152.2665 H   0  0  0  0  0  0  0  0  0  0  0  0  # atno 10167 bound_to 10162
  157.5796  130.8971  149.9408 H   0  0  0  0  0  0  0  0  0  0  0  0  # atno 10718 bound_to 10713
  153.4512  135.7015  153.6108 H   0  0  0  0  0  0  0  0  0  0  0  0  # atno 10763 bound_to 10752
  153.4441  135.3773  155.2246 H   0  0  0  0  0  0  0  0  0  0  0  0  # atno 10764 bound_to 10752
  154.8728  135.3981  154.3925 H   0  0  0  0  0  0  0  0  0  0  0  0  # atno 10765 bound_to 10752
  140.3402  134.2341  155.7691 H   0  0  0  0  0  0  0  0  0  0  0  0  # atno 11005 bound_to 11000
  146.1185  139.4199  143.0243 LP  0  0  0  0  0  0  0  0  0  0  0  0  # atno 17320 bound_to 7965
  145.7340  141.0032  143.1336 LP  0  0  0  0  0  0  0  0  0  0  0  0  # atno 17321 bound_to 7965
  139.7614  144.7505  151.0358 LP  0  0  0  0  0  0  0  0  0  0  0  0  # atno 17342 bound_to 10162
  140.7803  143.4747  151.0099 LP  0  0  0  0  0  0  0  0  0  0  0  0  # atno 17343 bound_to 10162
  156.0842  130.3670  150.0521 LP  0  0  0  0  0  0  0  0  0  0  0  0  # atno 17370 bound_to 10713
  156.8662  130.9508  151.3613 LP  0  0  0  0  0  0  0  0  0  0  0  0  # atno 17371 bound_to 10713
  141.2040  133.7897  157.0308 LP  0  0  0  0  0  0  0  0  0  0  0  0  # atno 17394 bound_to 11000
  140.0787  134.9660  157.1589 LP  0  0  0  0  0  0  0  0  0  0  0  0  # atno 17395 bound_to 11000

$$$$
