AV-unprocessed.smi:3350|AV-procd|sdf|12946|dock9
  -GOLD-   2272019383D 1   1.00000     0.00000
 Structure written by MMmdl.
 41 42  0  0  0  0  0  0  0  0  1 V2000
  151.0622  136.1011  156.1884 C   0  0  0  0  0  0  0  0  0  0  0  0
  150.0586  137.0009  155.4548 C   0  0  1  0  0  0  0  0  0  0  0  0
  150.7776  138.1044  154.6486 C   0  0  0  0  0  0  0  0  0  0  0  0
  149.9352  139.2625  154.4054 N   0  0  0  0  0  0  0  0  0  0  0  0
  148.6705  139.3020  153.8559 C   0  0  0  0  0  0  0  0  0  0  0  0
  148.2705  140.6072  153.8515 C   0  0  0  0  0  0  0  0  0  0  0  0
  149.3751  141.3008  154.4206 C   0  0  0  0  0  0  0  0  0  0  0  0
  150.3716  140.4939  154.7472 N   0  0  0  0  0  0  0  0  0  0  0  0
  149.2313  136.1739  154.5766 N   0  0  0  0  0  0  0  0  0  0  0  0
  148.3056  135.2922  154.9815 C   0  0  0  0  0  0  0  0  0  0  0  0
  148.0685  135.0282  156.1602 O   0  0  0  0  0  0  0  0  0  0  0  0
  147.6474  134.7549  153.9456 N   0  0  0  0  0  0  0  0  0  0  0  0
  146.5421  133.8054  154.0519 C   0  0  1  0  0  0  0  0  0  0  0  0
  145.2904  134.5166  154.5946 C   0  0  0  0  0  0  0  0  0  0  0  0
  146.2802  133.1552  152.6804 C   0  0  1  0  0  0  0  0  0  0  0  0
  145.0577  132.2378  152.6283 C   0  0  0  0  0  0  0  0  0  0  0  0
  144.6772  132.2397  151.1567 C   0  0  0  0  0  0  0  0  0  0  0  0
  145.3970  133.4657  150.5863 C   0  0  0  0  0  0  0  0  0  0  0  0
  145.9487  134.1370  151.7109 O   0  0  0  0  0  0  0  0  0  0  0  0
  151.6782  136.6818  156.8758 H   0  0  0  0  0  0  0  0  0  0  0  0
  151.7296  135.5957  155.4895 H   0  0  0  0  0  0  0  0  0  0  0  0
  150.5499  135.3364  156.7734 H   0  0  0  0  0  0  0  0  0  0  0  0
  149.4347  137.4727  156.2162 H   0  0  0  0  0  0  0  0  0  0  0  0
  151.6677  138.4408  155.1827 H   0  0  0  0  0  0  0  0  0  0  0  0
  151.1211  137.7154  153.6890 H   0  0  0  0  0  0  0  0  0  0  0  0
  148.1630  138.4069  153.5274 H   0  0  0  0  0  0  0  0  0  0  0  0
  147.3310  141.0057  153.4984 H   0  0  0  0  0  0  0  0  0  0  0  0
  149.4814  142.3597  154.6046 H   0  0  0  0  0  0  0  0  0  0  0  0
  149.3474  136.3139  153.5838 H   0  0  0  0  0  0  0  0  0  0  0  0
  147.9148  135.0371  153.0141 H   0  0  0  0  0  0  0  0  0  0  0  0
  146.8235  133.0157  154.7512 H   0  0  0  0  0  0  0  0  0  0  0  0
  144.4570  133.8214  154.6981 H   0  0  0  0  0  0  0  0  0  0  0  0
  144.9713  135.3209  153.9309 H   0  0  0  0  0  0  0  0  0  0  0  0
  145.4747  134.9506  155.5780 H   0  0  0  0  0  0  0  0  0  0  0  0
  147.1639  132.6102  152.3420 H   0  0  0  0  0  0  0  0  0  0  0  0
  145.2613  131.2375  153.0116 H   0  0  0  0  0  0  0  0  0  0  0  0
  144.2435  132.6640  153.2162 H   0  0  0  0  0  0  0  0  0  0  0  0
  145.0191  131.3317  150.6585 H   0  0  0  0  0  0  0  0  0  0  0  0
  143.5960  132.3057  151.0302 H   0  0  0  0  0  0  0  0  0  0  0  0
  146.2039  133.1603  149.9190 H   0  0  0  0  0  0  0  0  0  0  0  0
  144.7275  134.1231  150.0314 H   0  0  0  0  0  0  0  0  0  0  0  0
  1  2  1  0  0  0  0
  1 20  1  0  0  0  0
  1 21  1  0  0  0  0
  1 22  1  0  0  0  0
  2  3  1  0  0  0  0
  2  9  1  0  0  0  0
  2 23  1  0  0  0  0
  3  4  1  0  0  0  0
  3 24  1  0  0  0  0
  3 25  1  0  0  0  0
  4  8  1  0  0  0  0
  4  5  1  0  0  0  0
  5  6  2  0  0  0  0
  5 26  1  0  0  0  0
  6  7  1  0  0  0  0
  6 27  1  0  0  0  0
  7  8  2  0  0  0  0
  7 28  1  0  0  0  0
  9 10  1  0  0  0  0
  9 29  1  0  0  0  0
 10 11  2  0  0  0  0
 10 12  1  0  0  0  0
 12 13  1  0  0  0  0
 12 30  1  0  0  0  0
 13 14  1  0  0  0  0
 13 15  1  0  0  0  0
 13 31  1  0  0  0  0
 14 32  1  0  0  0  0
 14 33  1  0  0  0  0
 14 34  1  0  0  0  0
 15 19  1  0  0  0  0
 15 16  1  0  0  0  0
 15 35  1  0  0  0  0
 16 17  1  0  0  0  0
 16 36  1  0  0  0  0
 16 37  1  0  0  0  0
 17 18  1  0  0  0  0
 17 38  1  0  0  0  0
 17 39  1  0  0  0  0
 18 19  1  0  0  0  0
 18 40  1  0  0  0  0
 18 41  1  0  0  0  0
M  END
> <s_m_source_file>
AV-unprocessed.smi

> <i_m_source_file_index>
3350

> <i_lp_mmshare_version>
43012

> <i_f3d_flags>
0

> <s_epik_input>
bjFbY0hdW2NIXVtjSF1uMVtDSDJdW0NAQEhdKFtDSDNdKVtOSF1DKD1PKVtOSF1bQ0BIXShbQ0gzXSlbQ0BASF0yW0NIMl1bQ0gyXVtDSDJdTzI=

> <s_epik_cmdline>
J2VwaWtfcHl0aG9uJywgJy1waCcsICc3LjAnLCAnLXRuJywgJzgnLCAnLW1hJywgJzIwMCcsICctbWV0YWxfYmluZGluZycsICctaW1hZScsICc8aW5maWxlLm1hZT4nLCAnLW9tYWUnLCAnPG91dGZpbGUubWFlPic=

> <r_lp_tautomer_probability>
1

> <r_epik_Ionization_Penalty>
6.42349e-05

> <r_epik_Ionization_Penalty_Charging>
0

> <r_epik_Ionization_Penalty_Neutral>
6.42349e-05

> <r_epik_State_Penalty>
-0

> <r_epik_Charging_Adjusted_Penalty>
0

> <i_epik_Tot_Q>
0

> <i_epik_Tot_abs_Q>
0

> <r_epik_Metal_State_Penalty>
-0

> <b_epik_Metal_Only>
0

> <s_lp_Force_Field>
OPLS_2005

> <r_lp_Energy>
15.5841

> <b_lp_Chiralities_Consistent>
1

> <s_lp_Variant>
AV-unprocessed.smi:3350-8

> <Gold.Version>
5.8.1

> <Gold.Id.Protein>
6NUR|6NUR_protein|mol2

> <Gold.PLP.Fitness>
41.4110

> <Gold.PLP.PLP>
-29.3467

> <Gold.PLP.part.hbond>
-3.0000

> <Gold.PLP.part.metal>
0.0000

> <Gold.PLP.part.buried>
-1.2520

> <Gold.PLP.part.nonpolar>
-25.2665

> <Gold.PLP.part.repulsive>
0.3381

> <Gold.PLP.ligand.clash>
0.0000

> <Gold.PLP.ligand.torsion>
0.5631

> <Gold.PLP.Chemscore.Hbond>
2.9440

> <Gold.PLP.Chemscore.CHOScore>
1.4385

> <Gold.PLP.Chemscore.Metal>
0.0000

> <Gold.Chemscore.Hbonds>
donor molecule, donor type, donor heavy atom, donor atom, acceptor molecule, acceptor atom, score
      L1  H     9    29       P1  7948  1.00
      L1  H    12    30       P1  7948  0.99
      P1  H  7989  7998       L1     8  0.99
      L1  C     5    26       P1  7948  0.23
      L1  C     7    28       P1  8028  0.73

> <Gold.PLP.Chemscore.Internal.Correction>
0.0429

> <Gold.Rescore>
     Score         DG    S(hbond)    S(metal)    S(lipo)     H(rot)  DE(clash)    DE(int)     intcor
     14.56     -16.50       2.51        0.00      62.40       1.82       0.02       1.92       ----

> <Gold.Chemscore.Fitness>
14.5576

> <Gold.Chemscore.DG>
-16.5007

> <Gold.Chemscore.ZeroCoef>
-5.4800

> <Gold.Chemscore.Hbond>
2.5085

> <Gold.Chemscore.Metal>
0.0000

> <Gold.Chemscore.Lipo>
62.3995

> <Gold.Chemscore.Internal_Hbond>
0.0000

> <Gold.Chemscore.DEClash>
0.0216

> <Gold.Chemscore.DEInternal>
1.9215

> <Gold.Chemscore.Rot>
1.8197

> <Gold.Chemscore.Internal.Correction>
   9.000000E+99

> <Gold.Chemscore.Hbonds>
donor molecule, donor type, donor heavy atom, donor atom, acceptor molecule, acceptor atom, score
      L1  H     9    29       P1  7948  0.82
      L1  H    12    30       P1  7948  0.92
      P1  H  7989  7998       L1     8  0.15

> <Gold.Chemscore.Hbond.Weighted>
-8.3783

> <Gold.Chemscore.Metal.Weighted>
-0.0000

> <Gold.Chemscore.Lipo.Weighted>
-7.3007

> <Gold.Chemscore.Internal_Hbond.Weighted>
0.0000

> <Gold.Chemscore.DEClash.Weighted>
0.0216

> <Gold.Chemscore.DEInternal.Weighted>
1.9215

> <Gold.Chemscore.Rot.Weighted>
4.6583

> <Gold.Chemscore.Internal.Correction.Weighted>
   9.000000E+99

> <Gold.Protein.RotatedTorsions>
[ 6907 6896 6895 6894 ] final -107.80 input  -60.11 | X-H torsion
[ 7974 7965 7964 7962 ] final  -86.89 input  175.53 | X-H torsion
[ 8008 7997 7996 7995 ] final   97.66 input   59.86 | X-H torsion
[ 10167 10162 10161 10158 ] final   -5.43 input  -65.29 | X-H torsion
[ 10718 10713 10712 10709 ] final  139.90 input   66.30 | X-H torsion
[ 10763 10752 10751 10750 ] final  159.07 input  -60.55 | X-H torsion
[ 11005 11000 10999 10996 ] final  -57.58 input  -57.11 | X-H torsion

> <Gold.Protein.ActiveResidues>
 VAL166  LYS551  ARG553  GLY616  TRP617  ASP618  TYR619  PRO620  LYS621  CYS622 
 ASP623  PHE694  ASN695  SER759  ASP760  ASP761  ALA762  ILE779  LEU786  VAL792 
 PHE793  MET794  SER795  GLU796  ALA797  LYS798  CYS799  TRP800  GLU811  SER814 

> <Gold.Protein.RotatedAtoms>
  150.7465  133.9773  159.3564 H   0  0  0  0  0  0  0  0  0  0  0  0  # atno 6907 bound_to 6896
  151.7711  135.0784  160.0369 H   0  0  0  0  0  0  0  0  0  0  0  0  # atno 6908 bound_to 6896
  152.3338  133.5952  159.5864 H   0  0  0  0  0  0  0  0  0  0  0  0  # atno 6909 bound_to 6896
  145.4739  140.9559  143.1902 H   0  0  0  0  0  0  0  0  0  0  0  0  # atno 7974 bound_to 7965
  156.0925  140.3255  155.7834 H   0  0  0  0  0  0  0  0  0  0  0  0  # atno 8008 bound_to 7997
  155.4973  140.0566  157.2962 H   0  0  0  0  0  0  0  0  0  0  0  0  # atno 8009 bound_to 7997
  154.4646  140.1983  156.0168 H   0  0  0  0  0  0  0  0  0  0  0  0  # atno 8010 bound_to 7997
  140.6963  143.6309  150.8524 H   0  0  0  0  0  0  0  0  0  0  0  0  # atno 10167 bound_to 10162
  157.4092  131.1026  151.0471 H   0  0  0  0  0  0  0  0  0  0  0  0  # atno 10718 bound_to 10713
  154.2260  135.2780  155.2907 H   0  0  0  0  0  0  0  0  0  0  0  0  # atno 10763 bound_to 10752
  154.5663  135.5632  153.7057 H   0  0  0  0  0  0  0  0  0  0  0  0  # atno 10764 bound_to 10752
  153.0031  135.6310  154.2400 H   0  0  0  0  0  0  0  0  0  0  0  0  # atno 10765 bound_to 10752
  141.1171  133.6610  156.4791 H   0  0  0  0  0  0  0  0  0  0  0  0  # atno 11005 bound_to 11000
  144.7929  139.6292  143.7105 LP  0  0  0  0  0  0  0  0  0  0  0  0  # atno 17320 bound_to 7965
  146.2381  139.5945  142.9510 LP  0  0  0  0  0  0  0  0  0  0  0  0  # atno 17321 bound_to 7965
  140.0027  143.5727  152.2869 LP  0  0  0  0  0  0  0  0  0  0  0  0  # atno 17342 bound_to 10162
  139.6422  144.7655  151.2316 LP  0  0  0  0  0  0  0  0  0  0  0  0  # atno 17343 bound_to 10162
  157.1442  130.6156  149.5564 LP  0  0  0  0  0  0  0  0  0  0  0  0  # atno 17370 bound_to 10713
  155.9845  130.4871  150.6989 LP  0  0  0  0  0  0  0  0  0  0  0  0  # atno 17371 bound_to 10713
  140.4615  134.6836  157.5088 LP  0  0  0  0  0  0  0  0  0  0  0  0  # atno 17394 bound_to 11000
  140.0100  134.6705  155.9395 LP  0  0  0  0  0  0  0  0  0  0  0  0  # atno 17395 bound_to 11000

$$$$
