AV-unprocessed.smi:53|AV-procd|sdf|522|dock5
  -GOLD-   2262016393D 1   1.00000     0.00000
 Structure written by MMmdl.
 30 31  0  0  0  0  0  0  0  0  1 V2000
  145.4818  137.5869  154.4708 N   0  0  0  0  0  0  0  0  0  0  0  0
  145.2906  136.5133  153.6914 C   0  0  0  0  0  0  0  0  0  0  0  0
  144.8700  136.6741  152.3179 C   0  0  0  0  0  0  0  0  0  0  0  0
  144.6962  135.5452  151.5957 C   0  0  0  0  0  0  0  0  0  0  0  0
  144.9067  134.2825  152.1353 N   0  0  0  0  0  0  0  0  0  0  0  0
  144.7121  133.0136  151.3248 C   0  0  1  0  0  0  0  0  0  0  0  0
  144.1775  133.3317  150.0718 O   0  0  0  0  0  0  0  0  0  0  0  0
  145.1579  133.1443  149.0547 C   0  0  2  0  0  0  0  0  0  0  0  0
  144.4658  132.8923  147.7067 C   0  0  0  0  0  0  0  0  0  0  0  0
  144.2142  134.1192  147.0556 O   0  0  0  0  0  0  0  0  0  0  0  0
  145.9272  131.9361  149.5867 C   0  0  1  0  0  0  0  0  0  0  0  0
  147.1828  131.7536  148.9584 O   0  0  0  0  0  0  0  0  0  0  0  0
  146.0298  132.2395  151.0781 C   0  0  1  0  0  0  0  0  0  0  0  0
  147.1963  132.9871  151.3906 O   0  0  0  0  0  0  0  0  0  0  0  0
  145.3255  134.1593  153.4819 C   0  0  0  0  0  0  0  0  0  0  0  0
  145.5430  133.0609  153.9924 O   0  0  0  0  0  0  0  0  0  0  0  0
  145.4940  135.3131  154.1988 N   0  0  0  0  0  0  0  0  0  0  0  0
  143.9586  132.4301  151.8572 H   0  0  0  0  0  0  0  0  0  0  0  0
  145.8217  134.0097  149.0044 H   0  0  0  0  0  0  0  0  0  0  0  0
  145.3290  131.0341  149.4476 H   0  0  0  0  0  0  0  0  0  0  0  0
  146.0356  131.3265  151.6742 H   0  0  0  0  0  0  0  0  0  0  0  0
  145.7766  137.4707  155.4294 H   0  0  0  0  0  0  0  0  0  0  0  0
  145.3306  138.5123  154.0956 H   0  0  0  0  0  0  0  0  0  0  0  0
  144.6936  137.6366  151.8590 H   0  0  0  0  0  0  0  0  0  0  0  0
  144.3835  135.6595  150.5693 H   0  0  0  0  0  0  0  0  0  0  0  0
  145.1137  132.3044  147.0560 H   0  0  0  0  0  0  0  0  0  0  0  0
  143.5392  132.3319  147.8342 H   0  0  0  0  0  0  0  0  0  0  0  0
  144.9239  134.7128  147.2478 H   0  0  0  0  0  0  0  0  0  0  0  0
  147.7798  131.3765  149.5864 H   0  0  0  0  0  0  0  0  0  0  0  0
  147.9274  132.6009  150.9324 H   0  0  0  0  0  0  0  0  0  0  0  0
  1  2  1  0  0  0  0
  1 22  1  0  0  0  0
  1 23  1  0  0  0  0
  2 17  2  0  0  0  0
  2  3  1  0  0  0  0
  3  4  2  0  0  0  0
  3 24  1  0  0  0  0
  4  5  1  0  0  0  0
  4 25  1  0  0  0  0
  5  6  1  0  0  0  0
  5 15  1  0  0  0  0
  6 18  1  0  0  0  0
  6 13  1  0  0  0  0
  6  7  1  0  0  0  0
  7  8  1  0  0  0  0
  8 19  1  0  0  0  0
  8  9  1  0  0  0  0
  8 11  1  0  0  0  0
  9 10  1  0  0  0  0
  9 26  1  0  0  0  0
  9 27  1  0  0  0  0
 10 28  1  0  0  0  0
 11 20  1  0  0  0  0
 11 12  1  0  0  0  0
 11 13  1  0  0  0  0
 12 29  1  0  0  0  0
 13 21  1  0  0  0  0
 13 14  1  0  0  0  0
 14 30  1  0  0  0  0
 15 16  2  0  0  0  0
 15 17  1  0  0  0  0
M  END
> <s_m_source_file>
AV-unprocessed.smi

> <i_m_source_file_index>
53

> <i_lp_mmshare_version>
43012

> <i_f3d_flags>
0

> <s_epik_input>
W05IMl1jMVtjSF1bY0hdbihjKD1PKW4xKVtDQEBIXTJPW0NASF0oW0NIMl1bT0hdKVtDQEBIXShbT0hdKVtDQEBIXTJbT0hd

> <s_epik_cmdline>
J2VwaWtfcHl0aG9uJywgJy1waCcsICc3LjAnLCAnLXRuJywgJzgnLCAnLW1hJywgJzIwMCcsICctbWV0YWxfYmluZGluZycsICctaW1hZScsICc8aW5maWxlLm1hZT4nLCAnLW9tYWUnLCAnPG91dGZpbGUubWFlPic=

> <r_lp_tautomer_probability>
0.99996

> <r_epik_Ionization_Penalty>
0.00069087

> <r_epik_Ionization_Penalty_Charging>
2.61959e-08

> <r_epik_Ionization_Penalty_Neutral>
0.000690844

> <r_epik_State_Penalty>
1.15523e-05

> <r_epik_Charging_Adjusted_Penalty>
1.15785e-05

> <i_epik_Tot_Q>
0

> <i_epik_Tot_abs_Q>
0

> <r_epik_Metal_State_Penalty>
-0

> <b_epik_Metal_Only>
0

> <s_epik_Chemistry_Notes>
This compound contains an acetal/aminal-like group ( X-CH(R)-Y where X, Y are N, S, or O) that may be acid/base labile, releasing an aldehyde.

> <s_lp_Force_Field>
OPLS_2005

> <r_lp_Energy>
37.6612

> <b_lp_Chiralities_Consistent>
1

> <s_lp_Variant>
AV-unprocessed.smi:53-10

> <Gold.Version>
5.8.1

> <Gold.Id.Protein>
6NUR|6NUR_protein|mol2

> <Gold.PLP.Fitness>
39.7120

> <Gold.PLP.PLP>
-28.3347

> <Gold.PLP.part.hbond>
-5.7567

> <Gold.PLP.part.metal>
0.0000

> <Gold.PLP.part.buried>
-3.5916

> <Gold.PLP.part.nonpolar>
-18.6714

> <Gold.PLP.part.repulsive>
0.3346

> <Gold.PLP.ligand.clash>
0.0000

> <Gold.PLP.ligand.torsion>
0.3507

> <Gold.PLP.Chemscore.Hbond>
4.0000

> <Gold.PLP.Chemscore.CHOScore>
0.0000

> <Gold.PLP.Chemscore.Metal>
0.0000

> <Gold.Chemscore.Hbonds>
donor molecule, donor type, donor heavy atom, donor atom, acceptor molecule, acceptor atom, score
      L1  H    10    28       P1  7921  0.21
      L1  H    12    29       P1 10747  0.78
      L1  H    14    30       P1 10747  0.75
      P1  H 10192 10197       L1    10  0.03

> <Gold.PLP.Chemscore.Internal.Correction>
0.0786

> <Gold.Rescore>
     Score         DG    S(hbond)    S(metal)    S(lipo)     H(rot)  DE(clash)    DE(int)     intcor
     14.08     -14.99       3.83        0.00      52.96       3.71       0.27       0.64       ----

> <Gold.Chemscore.Fitness>
14.0801

> <Gold.Chemscore.DG>
-14.9883

> <Gold.Chemscore.ZeroCoef>
-5.4800

> <Gold.Chemscore.Hbond>
3.8347

> <Gold.Chemscore.Metal>
0.0000

> <Gold.Chemscore.Lipo>
52.9630

> <Gold.Chemscore.Internal_Hbond>
0.0000

> <Gold.Chemscore.DEClash>
0.2696

> <Gold.Chemscore.DEInternal>
0.6386

> <Gold.Chemscore.Rot>
3.7095

> <Gold.Chemscore.Internal.Correction>
   9.000000E+99

> <Gold.Chemscore.Hbonds>
donor molecule, donor type, donor heavy atom, donor atom, acceptor molecule, acceptor atom, score
      L1  H    10    28       P1  7921  0.21
      L1  H    12    29       P1 10747  0.77
      L1  H    14    30       P1 10747  0.71
      P1  H 10192 10197       L1    10  0.07

> <Gold.Chemscore.Hbond.Weighted>
-12.8080

> <Gold.Chemscore.Metal.Weighted>
-0.0000

> <Gold.Chemscore.Lipo.Weighted>
-6.1967

> <Gold.Chemscore.Internal_Hbond.Weighted>
0.0000

> <Gold.Chemscore.DEClash.Weighted>
0.2696

> <Gold.Chemscore.DEInternal.Weighted>
0.6386

> <Gold.Chemscore.Rot.Weighted>
9.4964

> <Gold.Chemscore.Internal.Correction.Weighted>
   9.000000E+99

> <Gold.Protein.RotatedTorsions>
[ 6907 6896 6895 6894 ] final -171.82 input  -60.11 | X-H torsion
[ 7974 7965 7964 7962 ] final -168.10 input  175.53 | X-H torsion
[ 8008 7997 7996 7995 ] final -139.74 input   59.86 | X-H torsion
[ 10167 10162 10161 10158 ] final  -71.86 input  -65.29 | X-H torsion
[ 10718 10713 10712 10709 ] final -143.11 input   66.30 | X-H torsion
[ 10763 10752 10751 10750 ] final   26.12 input  -60.55 | X-H torsion
[ 11005 11000 10999 10996 ] final -121.24 input  -57.11 | X-H torsion

> <Gold.Protein.ActiveResidues>
 VAL166  LYS551  ARG553  GLY616  TRP617  ASP618  TYR619  PRO620  LYS621  CYS622 
 ASP623  PHE694  ASN695  SER759  ASP760  ASP761  ALA762  ILE779  LEU786  VAL792 
 PHE793  MET794  SER795  GLU796  ALA797  LYS798  CYS799  TRP800  GLU811  SER814 

> <Gold.Protein.RotatedAtoms>
  151.5301  133.3450  159.2916 H   0  0  0  0  0  0  0  0  0  0  0  0  # atno 6907 bound_to 6896
  150.8599  134.7950  159.7085 H   0  0  0  0  0  0  0  0  0  0  0  0  # atno 6908 bound_to 6896
  152.4621  134.5168  159.9822 H   0  0  0  0  0  0  0  0  0  0  0  0  # atno 6909 bound_to 6896
  144.7209  140.2420  143.6290 H   0  0  0  0  0  0  0  0  0  0  0  0  # atno 7974 bound_to 7965
  155.4499  140.0538  157.3002 H   0  0  0  0  0  0  0  0  0  0  0  0  # atno 8008 bound_to 7997
  154.4782  140.2070  155.9784 H   0  0  0  0  0  0  0  0  0  0  0  0  # atno 8009 bound_to 7997
  156.1164  140.3195  155.8150 H   0  0  0  0  0  0  0  0  0  0  0  0  # atno 8010 bound_to 7997
  140.5239  143.2328  151.7381 H   0  0  0  0  0  0  0  0  0  0  0  0  # atno 10167 bound_to 10162
  156.3540  130.7703  151.1860 H   0  0  0  0  0  0  0  0  0  0  0  0  # atno 10718 bound_to 10713
  153.0644  135.6567  154.0388 H   0  0  0  0  0  0  0  0  0  0  0  0  # atno 10763 bound_to 10752
  154.0048  135.2933  155.3400 H   0  0  0  0  0  0  0  0  0  0  0  0  # atno 10764 bound_to 10752
  154.6996  135.5250  153.8576 H   0  0  0  0  0  0  0  0  0  0  0  0  # atno 10765 bound_to 10752
  141.0085  134.0300  157.3445 H   0  0  0  0  0  0  0  0  0  0  0  0  # atno 11005 bound_to 11000
  145.8311  139.2086  143.1882 LP  0  0  0  0  0  0  0  0  0  0  0  0  # atno 17320 bound_to 7965
  146.0430  140.8146  142.9819 LP  0  0  0  0  0  0  0  0  0  0  0  0  # atno 17321 bound_to 7965
  139.4932  144.4214  151.9973 LP  0  0  0  0  0  0  0  0  0  0  0  0  # atno 17342 bound_to 10162
  140.3312  144.3314  150.5987 LP  0  0  0  0  0  0  0  0  0  0  0  0  # atno 17343 bound_to 10162
  157.7465  131.0419  150.4670 LP  0  0  0  0  0  0  0  0  0  0  0  0  # atno 17370 bound_to 10713
  156.4870  130.4086  149.6428 LP  0  0  0  0  0  0  0  0  0  0  0  0  # atno 17371 bound_to 10713
  139.9076  135.0183  156.7555 LP  0  0  0  0  0  0  0  0  0  0  0  0  # atno 17394 bound_to 11000
  140.6773  133.9506  155.7890 LP  0  0  0  0  0  0  0  0  0  0  0  0  # atno 17395 bound_to 11000

$$$$
