AV-unprocessed.smi:3169|AV-procd|sdf|12104|dock3
  -GOLD-   2272017543D 1   1.00000     0.00000
 Structure written by MMmdl.
 36 37  0  0  0  0  0  0  0  0  2 V2000
  146.1414  138.9726  153.9815 O   0  0  0  0  0  0  0  0  0  0  0  0
  147.0164  138.4209  153.3135 C   0  0  0  0  0  0  0  0  0  0  0  0
  146.7851  137.4067  152.4682 N   0  0  0  0  0  0  0  0  0  0  0  0
  145.4751  136.8171  152.2194 C   0  0  0  0  0  0  0  0  0  0  0  0
  145.5081  135.8579  151.0182 C   0  0  0  0  0  0  0  0  0  0  0  0
  144.7752  134.6218  151.2946 N   0  0  0  0  0  0  0  0  0  0  0  0
  144.5678  133.5682  150.4421 C   0  0  0  0  0  0  0  0  0  0  0  0
  143.8279  132.6451  151.1358 C   0  0  0  0  0  0  0  0  0  0  0  0
  143.6143  133.1752  152.3803 N   0  3  0  0  0  0  0  0  0  0  0  0
  144.1907  134.3779  152.4746 C   0  0  0  0  0  0  0  0  0  0  0  0
  148.3119  138.7605  153.3432 N   0  0  0  0  0  0  0  0  0  0  0  0
  148.8721  139.8431  154.1437 C   0  0  0  0  0  0  0  0  0  0  0  0
  149.9811  139.3335  155.0782 C   0  0  1  0  0  0  0  0  0  0  0  0
  149.8392  137.8602  155.4552 C   0  0  0  0  0  0  0  0  0  0  0  0
  151.2647  137.4992  155.8041 C   0  0  0  0  0  0  0  0  0  0  0  0
  152.0493  138.2845  154.7570 C   0  0  0  0  0  0  0  0  0  0  0  0
  151.2549  139.4262  154.4438 O   0  0  0  0  0  0  0  0  0  0  0  0
  147.5672  137.0216  151.9585 H   0  0  0  0  0  0  0  0  0  0  0  0
  145.1253  136.2995  153.1144 H   0  0  0  0  0  0  0  0  0  0  0  0
  144.7671  137.6249  152.0324 H   0  0  0  0  0  0  0  0  0  0  0  0
  145.0618  136.3240  150.1388 H   0  0  0  0  0  0  0  0  0  0  0  0
  146.5329  135.5910  150.7552 H   0  0  0  0  0  0  0  0  0  0  0  0
  144.9515  133.5542  149.4321 H   0  0  0  0  0  0  0  0  0  0  0  0
  143.4469  131.6770  150.8444 H   0  0  0  0  0  0  0  0  0  0  0  0
  144.1847  135.0247  153.3342 H   0  0  0  0  0  0  0  0  0  0  0  0
  148.9552  138.2510  152.7551 H   0  0  0  0  0  0  0  0  0  0  0  0
  149.2589  140.6275  153.4909 H   0  0  0  0  0  0  0  0  0  0  0  0
  148.0684  140.2940  154.7264 H   0  0  0  0  0  0  0  0  0  0  0  0
  150.0158  139.9288  155.9924 H   0  0  0  0  0  0  0  0  0  0  0  0
  149.1420  137.6968  156.2773 H   0  0  0  0  0  0  0  0  0  0  0  0
  149.5049  137.2716  154.5994 H   0  0  0  0  0  0  0  0  0  0  0  0
  151.5069  137.8592  156.8051 H   0  0  0  0  0  0  0  0  0  0  0  0
  151.4591  136.4268  155.7683 H   0  0  0  0  0  0  0  0  0  0  0  0
  153.0394  138.5727  155.1110 H   0  0  0  0  0  0  0  0  0  0  0  0
  152.1740  137.6916  153.8502 H   0  0  0  0  0  0  0  0  0  0  0  0
  143.0947  132.7251  153.1235 H   0  0  0  0  0  0  0  0  0  0  0  0
  1  2  2  0  0  0  0
  2  3  1  0  0  0  0
  2 11  1  0  0  0  0
  3  4  1  0  0  0  0
  3 18  1  0  0  0  0
  4  5  1  0  0  0  0
  4 19  1  0  0  0  0
  4 20  1  0  0  0  0
  5  6  1  0  0  0  0
  5 21  1  0  0  0  0
  5 22  1  0  0  0  0
  6 10  1  0  0  0  0
  6  7  1  0  0  0  0
  7  8  2  0  0  0  0
  7 23  1  0  0  0  0
  8  9  1  0  0  0  0
  8 24  1  0  0  0  0
  9 10  2  0  0  0  0
  9 36  1  0  0  0  0
 10 25  1  0  0  0  0
 11 12  1  0  0  0  0
 11 26  1  0  0  0  0
 12 13  1  0  0  0  0
 12 27  1  0  0  0  0
 12 28  1  0  0  0  0
 13 17  1  0  0  0  0
 13 14  1  0  0  0  0
 13 29  1  0  0  0  0
 14 15  1  0  0  0  0
 14 30  1  0  0  0  0
 14 31  1  0  0  0  0
 15 16  1  0  0  0  0
 15 32  1  0  0  0  0
 15 33  1  0  0  0  0
 16 17  1  0  0  0  0
 16 34  1  0  0  0  0
 16 35  1  0  0  0  0
M  CHG  1   9   1
M  END
> <s_m_source_file>
AV-unprocessed.smi

> <i_m_source_file_index>
3169

> <i_lp_mmshare_version>
43012

> <i_f3d_flags>
0

> <s_epik_input>
TzFbQ0gyXVtDSDJdW0NIMl1bQ0BIXTFbQ0gyXVtOSF1DKD1PKVtOSF1bQ0gyXVtDSDJdbjJbY0hdW2NIXW5bY0hdMg==

> <s_epik_cmdline>
J2VwaWtfcHl0aG9uJywgJy1waCcsICc3LjAnLCAnLXRuJywgJzgnLCAnLW1hJywgJzIwMCcsICctbWV0YWxfYmluZGluZycsICctaW1hZScsICc8aW5maWxlLm1hZT4nLCAnLW9tYWUnLCAnPG91dGZpbGUubWFlPic=

> <r_lp_tautomer_probability>
1

> <r_epik_Ionization_Penalty>
0.256136

> <r_epik_Ionization_Penalty_Charging>
0

> <r_epik_Ionization_Penalty_Neutral>
0.256136

> <r_epik_State_Penalty>
0.247629

> <r_epik_Charging_Adjusted_Penalty>
0.247629

> <i_epik_Tot_Q>
1

> <i_epik_Tot_abs_Q>
1

> <r_epik_Metal_State_Penalty>
0.537113

> <b_epik_Metal_Only>
0

> <s_lp_Force_Field>
OPLS_2005

> <r_lp_Energy>
16.1594

> <b_lp_Chiralities_Consistent>
1

> <s_lp_Variant>
AV-unprocessed.smi:3169-2

> <Gold.Version>
5.8.1

> <Gold.Id.Protein>
6NUR|6NUR_protein|mol2

> <Gold.PLP.Fitness>
45.5418

> <Gold.PLP.PLP>
-30.3867

> <Gold.PLP.part.hbond>
-5.0000

> <Gold.PLP.part.metal>
0.0000

> <Gold.PLP.part.buried>
-3.7044

> <Gold.PLP.part.nonpolar>
-23.2768

> <Gold.PLP.part.repulsive>
0.3908

> <Gold.PLP.ligand.clash>
0.0000

> <Gold.PLP.ligand.torsion>
0.7918

> <Gold.PLP.Chemscore.Hbond>
4.5733

> <Gold.PLP.Chemscore.CHOScore>
1.0000

> <Gold.PLP.Chemscore.Metal>
0.0000

> <Gold.Chemscore.Hbonds>
donor molecule, donor type, donor heavy atom, donor atom, acceptor molecule, acceptor atom, score
      L1  H     3    18       P1  7948  1.00
      L1  H     9    36       P1 10957  2.00
      L1  H    11    26       P1  7948  0.46
      P1  H  7989  7998       L1    17  1.00
      L1  C     7    23       P1  7921  1.00

> <Gold.PLP.Chemscore.Internal.Correction>
0.0187

> <Gold.Rescore>
     Score         DG    S(hbond)    S(metal)    S(lipo)     H(rot)  DE(clash)    DE(int)     intcor
     14.90     -15.72       2.94        0.00      54.48       2.33       0.14       0.68       ----

> <Gold.Chemscore.Fitness>
14.8986

> <Gold.Chemscore.DG>
-15.7165

> <Gold.Chemscore.ZeroCoef>
-5.4800

> <Gold.Chemscore.Hbond>
2.9412

> <Gold.Chemscore.Metal>
0.0000

> <Gold.Chemscore.Lipo>
54.4837

> <Gold.Chemscore.Internal_Hbond>
0.0000

> <Gold.Chemscore.DEClash>
0.1407

> <Gold.Chemscore.DEInternal>
0.6772

> <Gold.Chemscore.Rot>
2.3288

> <Gold.Chemscore.Internal.Correction>
   9.000000E+99

> <Gold.Chemscore.Hbonds>
donor molecule, donor type, donor heavy atom, donor atom, acceptor molecule, acceptor atom, score
      L1  H     3    18       P1  7948  0.95
      L1  H     9    36       P1 10957  0.30
      L1  H    11    26       P1  7948  0.46
      P1  H  7989  7998       L1    17  0.98

> <Gold.Chemscore.Hbond.Weighted>
-9.8236

> <Gold.Chemscore.Metal.Weighted>
-0.0000

> <Gold.Chemscore.Lipo.Weighted>
-6.3746

> <Gold.Chemscore.Internal_Hbond.Weighted>
0.0000

> <Gold.Chemscore.DEClash.Weighted>
0.1407

> <Gold.Chemscore.DEInternal.Weighted>
0.6772

> <Gold.Chemscore.Rot.Weighted>
5.9617

> <Gold.Chemscore.Internal.Correction.Weighted>
   9.000000E+99

> <Gold.Protein.RotatedTorsions>
[ 6907 6896 6895 6894 ] final   86.96 input  -60.11 | X-H torsion
[ 7974 7965 7964 7962 ] final  -41.06 input  175.53 | X-H torsion
[ 8008 7997 7996 7995 ] final -168.03 input   59.86 | X-H torsion
[ 10167 10162 10161 10158 ] final   35.37 input  -65.29 | X-H torsion
[ 10718 10713 10712 10709 ] final  -20.94 input   66.30 | X-H torsion
[ 10763 10752 10751 10750 ] final   75.02 input  -60.55 | X-H torsion
[ 11005 11000 10999 10996 ] final  107.51 input  -57.11 | X-H torsion

> <Gold.Protein.ActiveResidues>
 VAL166  LYS551  ARG553  GLY616  TRP617  ASP618  TYR619  PRO620  LYS621  CYS622 
 ASP623  PHE694  ASN695  SER759  ASP760  ASP761  ALA762  ILE779  LEU786  VAL792 
 PHE793  MET794  SER795  GLU796  ALA797  LYS798  CYS799  TRP800  GLU811  SER814 

> <Gold.Protein.RotatedAtoms>
  152.5403  134.2351  159.8839 H   0  0  0  0  0  0  0  0  0  0  0  0  # atno 6907 bound_to 6896
  151.2321  133.4438  159.2611 H   0  0  0  0  0  0  0  0  0  0  0  0  # atno 6908 bound_to 6896
  151.0706  134.9809  159.8362 H   0  0  0  0  0  0  0  0  0  0  0  0  # atno 6909 bound_to 6896
  146.0246  140.6807  142.9161 H   0  0  0  0  0  0  0  0  0  0  0  0  # atno 7974 bound_to 7965
  155.8858  140.1016  157.1453 H   0  0  0  0  0  0  0  0  0  0  0  0  # atno 8008 bound_to 7997
  154.4010  140.1320  156.4318 H   0  0  0  0  0  0  0  0  0  0  0  0  # atno 8009 bound_to 7997
  155.7590  140.3463  155.5191 H   0  0  0  0  0  0  0  0  0  0  0  0  # atno 8010 bound_to 7997
  140.4228  144.1435  150.6150 H   0  0  0  0  0  0  0  0  0  0  0  0  # atno 10167 bound_to 10162
  156.5250  130.4641  149.6577 H   0  0  0  0  0  0  0  0  0  0  0  0  # atno 10718 bound_to 10713
  153.0626  135.5004  154.8128 H   0  0  0  0  0  0  0  0  0  0  0  0  # atno 10763 bound_to 10752
  154.6906  135.2984  154.9488 H   0  0  0  0  0  0  0  0  0  0  0  0  # atno 10764 bound_to 10752
  154.0244  135.6738  153.4828 H   0  0  0  0  0  0  0  0  0  0  0  0  # atno 10765 bound_to 10752
  139.8829  134.9403  156.5830 H   0  0  0  0  0  0  0  0  0  0  0  0  # atno 11005 bound_to 11000
  144.7004  140.3627  143.7160 LP  0  0  0  0  0  0  0  0  0  0  0  0  # atno 17320 bound_to 7965
  145.7138  139.1691  143.2524 LP  0  0  0  0  0  0  0  0  0  0  0  0  # atno 17321 bound_to 7965
  140.4514  143.2485  151.9342 LP  0  0  0  0  0  0  0  0  0  0  0  0  # atno 17342 bound_to 10162
  139.4783  144.5558  151.8316 LP  0  0  0  0  0  0  0  0  0  0  0  0  # atno 17343 bound_to 10162
  156.3113  130.7231  151.2124 LP  0  0  0  0  0  0  0  0  0  0  0  0  # atno 17370 bound_to 10713
  157.7431  131.0480  150.4974 LP  0  0  0  0  0  0  0  0  0  0  0  0  # atno 17371 bound_to 10713
  140.8012  133.8503  155.8729 LP  0  0  0  0  0  0  0  0  0  0  0  0  # atno 17394 bound_to 11000
  140.9590  134.1680  157.4669 LP  0  0  0  0  0  0  0  0  0  0  0  0  # atno 17395 bound_to 11000

$$$$
