AV-unprocessed.smi:2831|AV-procd|sdf|10908|dock2
  -GOLD-   2272015353D 1   1.00000     0.00000
 Structure written by MMmdl.
 30 31  0  0  0  0  0  0  0  0  1 V2000
  148.0253  129.3940  153.5685 C   0  0  0  0  0  0  0  0  0  0  0  0
  148.5973  130.7361  153.8740 C   0  0  0  0  0  0  0  0  0  0  0  0
  149.6453  130.9077  154.6889 N   0  0  0  0  0  0  0  0  0  0  0  0
  149.9929  132.2445  154.8247 N   0  0  0  0  0  0  0  0  0  0  0  0
  149.1924  133.0445  154.1069 C   0  0  0  0  0  0  0  0  0  0  0  0
  149.3191  134.4583  154.0671 N   0  0  0  0  0  0  0  0  0  0  0  0
  149.8575  135.2737  154.9907 C   0  0  0  0  0  0  0  0  0  0  0  0
  150.3565  134.9092  156.0555 O   0  0  0  0  0  0  0  0  0  0  0  0
  149.7830  136.5575  154.6021 N   0  0  0  0  0  0  0  0  0  0  0  0
  150.2724  137.7357  155.3276 C   0  0  1  0  0  0  0  0  0  0  0  0
  149.5620  137.8600  156.6929 C   0  0  0  0  0  0  0  0  0  0  0  0
  151.7923  137.6201  155.5181 C   0  0  0  0  0  0  0  0  0  0  0  0
  152.3768  138.7616  154.6904 C   0  0  0  0  0  0  0  0  0  0  0  0
  151.3465  139.7310  154.7066 O   0  0  0  0  0  0  0  0  0  0  0  0
  150.1363  139.0258  154.4897 C   0  0  0  0  0  0  0  0  0  0  0  0
  147.9383  132.2202  153.1962 S   0  0  0  0  0  0  0  0  0  0  0  0
  148.7921  128.6234  153.6536 H   0  0  0  0  0  0  0  0  0  0  0  0
  147.6261  129.3767  152.5542 H   0  0  0  0  0  0  0  0  0  0  0  0
  147.2196  129.1663  154.2664 H   0  0  0  0  0  0  0  0  0  0  0  0
  148.9525  134.9018  153.2381 H   0  0  0  0  0  0  0  0  0  0  0  0
  149.3489  136.7427  153.7099 H   0  0  0  0  0  0  0  0  0  0  0  0
  149.9455  138.7087  157.2605 H   0  0  0  0  0  0  0  0  0  0  0  0
  149.7091  136.9646  157.2979 H   0  0  0  0  0  0  0  0  0  0  0  0
  148.4881  138.0097  156.5809 H   0  0  0  0  0  0  0  0  0  0  0  0
  152.0634  137.7622  156.5651 H   0  0  0  0  0  0  0  0  0  0  0  0
  152.2015  136.6557  155.2137 H   0  0  0  0  0  0  0  0  0  0  0  0
  153.3058  139.1521  155.1063 H   0  0  0  0  0  0  0  0  0  0  0  0
  152.5652  138.4439  153.6636 H   0  0  0  0  0  0  0  0  0  0  0  0
  150.0568  138.8084  153.4230 H   0  0  0  0  0  0  0  0  0  0  0  0
  149.2723  139.6296  154.7689 H   0  0  0  0  0  0  0  0  0  0  0  0
  1  2  1  0  0  0  0
  1 17  1  0  0  0  0
  1 18  1  0  0  0  0
  1 19  1  0  0  0  0
  2 16  1  0  0  0  0
  2  3  2  0  0  0  0
  3  4  1  0  0  0  0
  4  5  2  0  0  0  0
  5  6  1  0  0  0  0
  5 16  1  0  0  0  0
  6  7  1  0  0  0  0
  6 20  1  0  0  0  0
  7  8  2  0  0  0  0
  7  9  1  0  0  0  0
  9 10  1  0  0  0  0
  9 21  1  0  0  0  0
 10 15  1  0  0  0  0
 10 11  1  0  0  0  0
 10 12  1  0  0  0  0
 11 22  1  0  0  0  0
 11 23  1  0  0  0  0
 11 24  1  0  0  0  0
 12 13  1  0  0  0  0
 12 25  1  0  0  0  0
 12 26  1  0  0  0  0
 13 14  1  0  0  0  0
 13 27  1  0  0  0  0
 13 28  1  0  0  0  0
 14 15  1  0  0  0  0
 15 29  1  0  0  0  0
 15 30  1  0  0  0  0
M  END
> <s_m_source_file>
AV-unprocessed.smi

> <i_m_source_file_index>
2831

> <i_lp_mmshare_version>
43012

> <i_f3d_flags>
0

> <s_epik_input>
W0NIM11jMW5uYyhzMSlbTkhdQyg9TylbTkhdW0NAQF0yKFtDSDNdKVtDSDJdW0NIMl1PW0NIMl0y

> <s_epik_cmdline>
J2VwaWtfcHl0aG9uJywgJy1waCcsICc3LjAnLCAnLXRuJywgJzgnLCAnLW1hJywgJzIwMCcsICctbWV0YWxfYmluZGluZycsICctaW1hZScsICc8aW5maWxlLm1hZT4nLCAnLW9tYWUnLCAnPG91dGZpbGUubWFlPic=

> <r_lp_tautomer_probability>
1

> <r_epik_Ionization_Penalty>
0.00277018

> <r_epik_Ionization_Penalty_Charging>
0

> <r_epik_Ionization_Penalty_Neutral>
0.00277018

> <r_epik_State_Penalty>
-0

> <r_epik_Charging_Adjusted_Penalty>
0

> <i_epik_Tot_Q>
0

> <i_epik_Tot_abs_Q>
0

> <r_epik_Metal_State_Penalty>
0.356997

> <b_epik_Metal_Only>
0

> <s_lp_Force_Field>
OPLS_2005

> <r_lp_Energy>
15.109

> <b_lp_Chiralities_Consistent>
1

> <s_lp_Variant>
AV-unprocessed.smi:2831-1

> <Gold.Version>
5.8.1

> <Gold.Id.Protein>
6NUR|6NUR_protein|mol2

> <Gold.PLP.Fitness>
33.6912

> <Gold.PLP.PLP>
-25.1234

> <Gold.PLP.part.hbond>
-3.0000

> <Gold.PLP.part.metal>
0.0000

> <Gold.PLP.part.buried>
-5.1457

> <Gold.PLP.part.nonpolar>
-17.9899

> <Gold.PLP.part.repulsive>
0.1881

> <Gold.PLP.ligand.clash>
0.0000

> <Gold.PLP.ligand.torsion>
0.1549

> <Gold.PLP.Chemscore.Hbond>
2.9500

> <Gold.PLP.Chemscore.CHOScore>
0.0000

> <Gold.PLP.Chemscore.Metal>
0.0000

> <Gold.Chemscore.Hbonds>
donor molecule, donor type, donor heavy atom, donor atom, acceptor molecule, acceptor atom, score
      L1  H     6    20       P1  7948  0.95
      L1  H     9    21       P1  7948  1.00
      P1  H  7989  7998       L1    14  1.00

> <Gold.PLP.Chemscore.Internal.Correction>
0.0275

> <Gold.Rescore>
     Score         DG    S(hbond)    S(metal)    S(lipo)     H(rot)  DE(clash)    DE(int)     intcor
     13.42     -15.04       2.05        0.00      45.20       1.00       0.32       1.31       ----

> <Gold.Chemscore.Fitness>
13.4162

> <Gold.Chemscore.DG>
-15.0423

> <Gold.Chemscore.ZeroCoef>
-5.4800

> <Gold.Chemscore.Hbond>
2.0460

> <Gold.Chemscore.Metal>
0.0000

> <Gold.Chemscore.Lipo>
45.2033

> <Gold.Chemscore.Internal_Hbond>
0.0000

> <Gold.Chemscore.DEClash>
0.3158

> <Gold.Chemscore.DEInternal>
1.3103

> <Gold.Chemscore.Rot>
1.0000

> <Gold.Chemscore.Internal.Correction>
   9.000000E+99

> <Gold.Chemscore.Hbonds>
donor molecule, donor type, donor heavy atom, donor atom, acceptor molecule, acceptor atom, score
      L1  H     6    20       P1  7948  0.21
      L1  H     9    21       P1  7948  0.89
      P1  H  7989  7998       L1    14  0.57

> <Gold.Chemscore.Hbond.Weighted>
-6.8335

> <Gold.Chemscore.Metal.Weighted>
-0.0000

> <Gold.Chemscore.Lipo.Weighted>
-5.2888

> <Gold.Chemscore.Internal_Hbond.Weighted>
0.0000

> <Gold.Chemscore.DEClash.Weighted>
0.3158

> <Gold.Chemscore.DEInternal.Weighted>
1.3103

> <Gold.Chemscore.Rot.Weighted>
2.5600

> <Gold.Chemscore.Internal.Correction.Weighted>
   9.000000E+99

> <Gold.Protein.RotatedTorsions>
[ 6907 6896 6895 6894 ] final -145.00 input  -60.11 | X-H torsion
[ 7974 7965 7964 7962 ] final  -17.80 input  175.53 | X-H torsion
[ 8008 7997 7996 7995 ] final -117.60 input   59.86 | X-H torsion
[ 10167 10162 10161 10158 ] final   52.33 input  -65.29 | X-H torsion
[ 10718 10713 10712 10709 ] final -151.37 input   66.30 | X-H torsion
[ 10763 10752 10751 10750 ] final  -31.93 input  -60.55 | X-H torsion
[ 11005 11000 10999 10996 ] final   66.84 input  -57.11 | X-H torsion

> <Gold.Protein.ActiveResidues>
 VAL166  LYS551  ARG553  GLY616  TRP617  ASP618  TYR619  PRO620  LYS621  CYS622 
 ASP623  PHE694  ASN695  SER759  ASP760  ASP761  ALA762  ILE779  LEU786  VAL792 
 PHE793  MET794  SER795  GLU796  ALA797  LYS798  CYS799  TRP800  GLU811  SER814 

> <Gold.Protein.RotatedAtoms>
  151.1218  133.5099  159.2601 H   0  0  0  0  0  0  0  0  0  0  0  0  # atno 6907 bound_to 6896
  151.1854  135.0378  159.8820 H   0  0  0  0  0  0  0  0  0  0  0  0  # atno 6908 bound_to 6896
  152.5456  134.1065  159.8393 H   0  0  0  0  0  0  0  0  0  0  0  0  # atno 6909 bound_to 6896
  146.1923  140.3831  142.8453 H   0  0  0  0  0  0  0  0  0  0  0  0  # atno 7974 bound_to 7965
  155.0864  140.0394  157.2655 H   0  0  0  0  0  0  0  0  0  0  0  0  # atno 8008 bound_to 7997
  154.6866  140.2644  155.6829 H   0  0  0  0  0  0  0  0  0  0  0  0  # atno 8009 bound_to 7997
  156.2714  140.2768  156.1430 H   0  0  0  0  0  0  0  0  0  0  0  0  # atno 8010 bound_to 7997
  140.2525  144.3463  150.6343 H   0  0  0  0  0  0  0  0  0  0  0  0  # atno 10167 bound_to 10162
  156.4583  130.8201  151.2432 H   0  0  0  0  0  0  0  0  0  0  0  0  # atno 10718 bound_to 10713
  153.8055  135.6886  153.4849 H   0  0  0  0  0  0  0  0  0  0  0  0  # atno 10763 bound_to 10752
  153.1661  135.4561  154.9837 H   0  0  0  0  0  0  0  0  0  0  0  0  # atno 10764 bound_to 10752
  154.7989  135.3330  154.7540 H   0  0  0  0  0  0  0  0  0  0  0  0  # atno 10765 bound_to 10752
  139.9807  134.6748  156.0267 H   0  0  0  0  0  0  0  0  0  0  0  0  # atno 11005 bound_to 11000
  144.8511  140.7003  143.6167 LP  0  0  0  0  0  0  0  0  0  0  0  0  # atno 17320 bound_to 7965
  145.3753  139.1649  143.4310 LP  0  0  0  0  0  0  0  0  0  0  0  0  # atno 17321 bound_to 7965
  140.6029  143.2167  151.7037 LP  0  0  0  0  0  0  0  0  0  0  0  0  # atno 17342 bound_to 10162
  139.5042  144.3764  152.0419 LP  0  0  0  0  0  0  0  0  0  0  0  0  # atno 17343 bound_to 10162
  157.7499  131.0115  150.3349 LP  0  0  0  0  0  0  0  0  0  0  0  0  # atno 17370 bound_to 10713
  156.3743  130.3869  149.7151 LP  0  0  0  0  0  0  0  0  0  0  0  0  # atno 17371 bound_to 10713
  141.1480  133.6553  156.3925 LP  0  0  0  0  0  0  0  0  0  0  0  0  # atno 17394 bound_to 11000
  140.5102  134.6402  157.5281 LP  0  0  0  0  0  0  0  0  0  0  0  0  # atno 17395 bound_to 11000

$$$$
