AV-unprocessed.smi:1667|AV-procd|sdf|6678|dock7
  -GOLD-   22720 7393D 1   1.00000     0.00000
 Structure written by MMmdl.
 46 48  0  0  0  0  0  0  0  0  2 V2000
  147.0309  133.6803  151.1243 C   0  0  0  0  0  0  0  0  0  0  0  0
  146.7175  133.8057  152.6111 C   0  0  0  0  0  0  0  0  0  0  0  0
  146.0193  132.9588  153.1672 O   0  0  0  0  0  0  0  0  0  0  0  0
  147.2404  134.8737  153.2367 N   0  0  0  0  0  0  0  0  0  0  0  0
  147.0791  135.2358  154.6448 C   0  0  2  0  0  0  0  0  0  0  0  0
  145.5921  135.3541  155.0313 C   0  0  0  0  0  0  0  0  0  0  0  0
  147.8761  136.4523  155.0320 C   0  0  0  0  0  0  0  0  0  0  0  0
  148.6225  137.2248  154.1903 N   0  3  0  0  0  0  0  0  0  0  0  0
  149.2334  138.2550  154.9033 C   0  0  0  0  0  0  0  0  0  0  0  0
  150.0707  139.2833  154.4814 C   0  0  0  0  0  0  0  0  0  0  0  0
  150.5207  140.1793  155.4732 C   0  0  0  0  0  0  0  0  0  0  0  0
  150.1372  140.0339  156.8224 C   0  0  0  0  0  0  0  0  0  0  0  0
  149.2894  138.9857  157.2375 C   0  0  0  0  0  0  0  0  0  0  0  0
  148.8512  138.1027  156.2508 C   0  0  0  0  0  0  0  0  0  0  0  0
  148.0302  136.9696  156.2879 N   0  0  0  0  0  0  0  0  0  0  0  0
  147.4785  136.5359  157.5826 C   0  0  0  0  0  0  0  0  0  0  0  0
  148.5572  136.0948  158.5951 C   0  0  2  0  0  0  0  0  0  0  0  0
  149.4836  135.2269  157.9739 O   0  0  0  0  0  0  0  0  0  0  0  0
  147.9288  135.4701  159.8301 C   0  0  0  0  0  0  0  0  0  0  0  0
  148.0763  134.0896  160.0900 C   0  0  0  0  0  0  0  0  0  0  0  0
  147.4859  133.5153  161.2325 C   0  0  0  0  0  0  0  0  0  0  0  0
  146.7436  134.3173  162.1205 C   0  0  0  0  0  0  0  0  0  0  0  0
  146.5901  135.6933  161.8643 C   0  0  0  0  0  0  0  0  0  0  0  0
  145.8738  136.4646  162.7158 F   0  0  0  0  0  0  0  0  0  0  0  0
  147.1804  136.2680  160.7220 C   0  0  0  0  0  0  0  0  0  0  0  0
  147.4787  134.3961  155.2128 H   0  0  0  0  0  0  0  0  0  0  0  0
  146.8352  134.6217  150.6100 H   0  0  0  0  0  0  0  0  0  0  0  0
  146.4164  132.9067  150.6627 H   0  0  0  0  0  0  0  0  0  0  0  0
  148.0789  133.4180  150.9791 H   0  0  0  0  0  0  0  0  0  0  0  0
  147.7940  135.5070  152.6777 H   0  0  0  0  0  0  0  0  0  0  0  0
  145.4798  135.5147  156.1039 H   0  0  0  0  0  0  0  0  0  0  0  0
  145.0508  134.4418  154.7797 H   0  0  0  0  0  0  0  0  0  0  0  0
  145.0980  136.1806  154.5200 H   0  0  0  0  0  0  0  0  0  0  0  0
  150.3645  139.3963  153.4482 H   0  0  0  0  0  0  0  0  0  0  0  0
  151.1719  140.9948  155.1935 H   0  0  0  0  0  0  0  0  0  0  0  0
  150.5012  140.7405  157.5541 H   0  0  0  0  0  0  0  0  0  0  0  0
  149.0017  138.8837  158.2733 H   0  0  0  0  0  0  0  0  0  0  0  0
  146.8811  137.3541  157.9871 H   0  0  0  0  0  0  0  0  0  0  0  0
  146.7839  135.7175  157.3946 H   0  0  0  0  0  0  0  0  0  0  0  0
  149.1278  136.9681  158.9115 H   0  0  0  0  0  0  0  0  0  0  0  0
  149.2782  135.1801  157.0524 H   0  0  0  0  0  0  0  0  0  0  0  0
  148.6411  133.4661  159.4122 H   0  0  0  0  0  0  0  0  0  0  0  0
  147.6018  132.4593  161.4273 H   0  0  0  0  0  0  0  0  0  0  0  0
  146.2909  133.8768  162.9967 H   0  0  0  0  0  0  0  0  0  0  0  0
  147.0549  137.3243  160.5342 H   0  0  0  0  0  0  0  0  0  0  0  0
  148.7072  137.0508  153.1972 H   0  0  0  0  0  0  0  0  0  0  0  0
  1  2  1  0  0  0  0
  1 27  1  0  0  0  0
  1 28  1  0  0  0  0
  1 29  1  0  0  0  0
  2  3  2  0  0  0  0
  2  4  1  0  0  0  0
  4  5  1  0  0  0  0
  4 30  1  0  0  0  0
  5 26  1  0  0  0  0
  5  6  1  0  0  0  0
  5  7  1  0  0  0  0
  6 31  1  0  0  0  0
  6 32  1  0  0  0  0
  6 33  1  0  0  0  0
  7 15  1  0  0  0  0
  7  8  2  0  0  0  0
  8  9  1  0  0  0  0
  8 46  1  0  0  0  0
  9 14  2  0  0  0  0
  9 10  1  0  0  0  0
 10 11  2  0  0  0  0
 10 34  1  0  0  0  0
 11 12  1  0  0  0  0
 11 35  1  0  0  0  0
 12 13  2  0  0  0  0
 12 36  1  0  0  0  0
 13 14  1  0  0  0  0
 13 37  1  0  0  0  0
 14 15  1  0  0  0  0
 15 16  1  0  0  0  0
 16 17  1  0  0  0  0
 16 38  1  0  0  0  0
 16 39  1  0  0  0  0
 17 18  1  0  0  0  0
 17 19  1  0  0  0  0
 17 40  1  0  0  0  0
 18 41  1  0  0  0  0
 19 25  1  0  0  0  0
 19 20  2  0  0  0  0
 20 21  1  0  0  0  0
 20 42  1  0  0  0  0
 21 22  2  0  0  0  0
 21 43  1  0  0  0  0
 22 23  1  0  0  0  0
 22 44  1  0  0  0  0
 23 24  1  0  0  0  0
 23 25  2  0  0  0  0
 25 45  1  0  0  0  0
M  CHG  1   8   1
M  END
> <s_m_source_file>
AV-unprocessed.smi

> <i_m_source_file_index>
1667

> <i_lp_mmshare_version>
43012

> <i_f3d_flags>
0

> <s_epik_input>
W0NIM11DKD1PKVtOSF1bQ0BASF0oW0NIM10pYyhuMSluKGMoYzEyKVtjSF1bY0hdW2NIXVtjSF0yKVtDSDJdW0NASF0oW09IXSljM1tjSF1bY0hdW2NIXWMoRilbY0hdMw==

> <s_epik_cmdline>
J2VwaWtfcHl0aG9uJywgJy1waCcsICc3LjAnLCAnLXRuJywgJzgnLCAnLW1hJywgJzIwMCcsICctbWV0YWxfYmluZGluZycsICctaW1hZScsICc8aW5maWxlLm1hZT4nLCAnLW9tYWUnLCAnPG91dGZpbGUubWFlPic=

> <r_epik_Ionization_Penalty>
0.950383

> <r_epik_Ionization_Penalty_Charging>
0.950379

> <r_epik_Ionization_Penalty_Neutral>
3.60962e-06

> <r_epik_State_Penalty>
0.994584

> <r_epik_Charging_Adjusted_Penalty>
1.94496

> <i_epik_Tot_Q>
1

> <i_epik_Tot_abs_Q>
1

> <r_epik_Metal_State_Penalty>
1.10485

> <b_epik_Metal_Only>
0

> <s_lp_Force_Field>
OPLS_2005

> <r_lp_Energy>
9.34024

> <b_lp_Chiralities_Consistent>
1

> <s_lp_Variant>
AV-unprocessed.smi:1667-6

> <Gold.Version>
5.8.1

> <Gold.Id.Protein>
6NUR|6NUR_protein|mol2

> <Gold.PLP.Fitness>
48.2215

> <Gold.PLP.PLP>
-36.7458

> <Gold.PLP.part.hbond>
-3.0000

> <Gold.PLP.part.metal>
0.0000

> <Gold.PLP.part.buried>
-4.9516

> <Gold.PLP.part.nonpolar>
-29.9639

> <Gold.PLP.part.repulsive>
0.0887

> <Gold.PLP.ligand.clash>
0.0000

> <Gold.PLP.ligand.torsion>
0.3328

> <Gold.PLP.Chemscore.Hbond>
4.0000

> <Gold.PLP.Chemscore.CHOScore>
0.0000

> <Gold.PLP.Chemscore.Metal>
0.0000

> <Gold.Chemscore.Hbonds>
donor molecule, donor type, donor heavy atom, donor atom, acceptor molecule, acceptor atom, score
      L1  H     4    30       P1  7948  1.00
      L1  H     8    46       P1  7948  2.00
      P1  H  6896  6908       L1    18  0.84

> <Gold.PLP.Chemscore.Internal.Correction>
0.1413

> <Gold.Rescore>
     Score         DG    S(hbond)    S(metal)    S(lipo)     H(rot)  DE(clash)    DE(int)     intcor
     18.32     -18.67       2.88        0.00      85.95       2.53       0.03       0.33       ----

> <Gold.Chemscore.Fitness>
18.3202

> <Gold.Chemscore.DG>
-18.6733

> <Gold.Chemscore.ZeroCoef>
-5.4800

> <Gold.Chemscore.Hbond>
2.8810

> <Gold.Chemscore.Metal>
0.0000

> <Gold.Chemscore.Lipo>
85.9536

> <Gold.Chemscore.Internal_Hbond>
0.0000

> <Gold.Chemscore.DEClash>
0.0280

> <Gold.Chemscore.DEInternal>
0.3250

> <Gold.Chemscore.Rot>
2.5335

> <Gold.Chemscore.Internal.Correction>
   9.000000E+99

> <Gold.Chemscore.Hbonds>
donor molecule, donor type, donor heavy atom, donor atom, acceptor molecule, acceptor atom, score
      L1  H     4    30       P1  7948  0.97
      L1  H     8    46       P1  7948  0.97
      P1  H  6896  6908       L1    18  0.64

> <Gold.Chemscore.Hbond.Weighted>
-9.6224

> <Gold.Chemscore.Metal.Weighted>
-0.0000

> <Gold.Chemscore.Lipo.Weighted>
-10.0566

> <Gold.Chemscore.Internal_Hbond.Weighted>
0.0000

> <Gold.Chemscore.DEClash.Weighted>
0.0280

> <Gold.Chemscore.DEInternal.Weighted>
0.3250

> <Gold.Chemscore.Rot.Weighted>
6.4856

> <Gold.Chemscore.Internal.Correction.Weighted>
   9.000000E+99

> <Gold.Protein.RotatedTorsions>
[ 6907 6896 6895 6894 ] final  144.82 input  -60.11 | X-H torsion
[ 7974 7965 7964 7962 ] final -119.49 input  175.53 | X-H torsion
[ 8008 7997 7996 7995 ] final  -13.23 input   59.86 | X-H torsion
[ 10167 10162 10161 10158 ] final  -72.08 input  -65.29 | X-H torsion
[ 10718 10713 10712 10709 ] final -160.15 input   66.30 | X-H torsion
[ 10763 10752 10751 10750 ] final -168.75 input  -60.55 | X-H torsion
[ 11005 11000 10999 10996 ] final  179.23 input  -57.11 | X-H torsion

> <Gold.Protein.ActiveResidues>
 VAL166  LYS551  ARG553  GLY616  TRP617  ASP618  TYR619  PRO620  LYS621  CYS622 
 ASP623  PHE694  ASN695  SER759  ASP760  ASP761  ALA762  ILE779  LEU786  VAL792 
 PHE793  MET794  SER795  GLU796  ALA797  LYS798  CYS799  TRP800  GLU811  SER814 

> <Gold.Protein.RotatedAtoms>
  152.1888  133.4758  159.4996 H   0  0  0  0  0  0  0  0  0  0  0  0  # atno 6907 bound_to 6896
  150.6947  134.1739  159.4232 H   0  0  0  0  0  0  0  0  0  0  0  0  # atno 6908 bound_to 6896
  151.9653  135.0103  160.0600 H   0  0  0  0  0  0  0  0  0  0  0  0  # atno 6909 bound_to 6896
  145.0619  140.8296  143.4147 H   0  0  0  0  0  0  0  0  0  0  0  0  # atno 7974 bound_to 7965
  154.5310  140.2255  155.8805 H   0  0  0  0  0  0  0  0  0  0  0  0  # atno 8008 bound_to 7997
  156.1763  140.3110  155.9029 H   0  0  0  0  0  0  0  0  0  0  0  0  # atno 8009 bound_to 7997
  155.3452  140.0452  157.3036 H   0  0  0  0  0  0  0  0  0  0  0  0  # atno 8010 bound_to 7997
  140.5221  143.2330  151.7412 H   0  0  0  0  0  0  0  0  0  0  0  0  # atno 10167 bound_to 10162
  156.5781  130.8717  151.2857 H   0  0  0  0  0  0  0  0  0  0  0  0  # atno 10718 bound_to 10713
  154.6596  135.2923  154.9883 H   0  0  0  0  0  0  0  0  0  0  0  0  # atno 10763 bound_to 10752
  154.0948  135.6585  153.4862 H   0  0  0  0  0  0  0  0  0  0  0  0  # atno 10764 bound_to 10752
  153.0422  135.5228  154.7541 H   0  0  0  0  0  0  0  0  0  0  0  0  # atno 10765 bound_to 10752
  140.4038  134.6753  157.4577 H   0  0  0  0  0  0  0  0  0  0  0  0  # atno 11005 bound_to 11000
  145.1398  139.2579  143.5496 LP  0  0  0  0  0  0  0  0  0  0  0  0  # atno 17320 bound_to 7965
  146.3525  140.1072  142.8605 LP  0  0  0  0  0  0  0  0  0  0  0  0  # atno 17321 bound_to 7965
  139.4926  144.4239  151.9947 LP  0  0  0  0  0  0  0  0  0  0  0  0  # atno 17342 bound_to 10162
  140.3337  144.3286  150.5982 LP  0  0  0  0  0  0  0  0  0  0  0  0  # atno 17343 bound_to 10162
  157.7333  130.9728  150.1970 LP  0  0  0  0  0  0  0  0  0  0  0  0  # atno 17370 bound_to 10713
  156.2655  130.3716  149.8085 LP  0  0  0  0  0  0  0  0  0  0  0  0  # atno 17371 bound_to 10713
  140.0317  134.6397  155.9098 LP  0  0  0  0  0  0  0  0  0  0  0  0  # atno 17394 bound_to 11000
  141.1847  133.6553  156.5166 LP  0  0  0  0  0  0  0  0  0  0  0  0  # atno 17395 bound_to 11000

$$$$
