AV-unprocessed.smi:1672|AV-procd|sdf|6708|dock10
  -GOLD-   22720 7453D 1   1.00000     0.00000
 Structure written by MMmdl.
 49 51  0  0  0  0  0  0  0  0  3 V2000
  151.5055  144.9973  160.1354 C   0  0  0  0  0  0  0  0  0  0  0  0
  152.5439  144.4493  159.1409 C   0  0  2  0  0  0  0  0  0  0  0  0
  151.9969  144.3420  157.7059 C   0  0  0  0  0  0  0  0  0  0  0  0
  151.0165  143.1670  157.5423 C   0  0  0  0  0  0  0  0  0  0  0  0
  151.6426  141.8836  157.9573 N   0  3  2  0  0  0  0  0  0  0  0  0
  150.7822  140.6996  157.7026 C   0  0  0  0  0  0  0  0  0  0  0  0
  150.3363  140.5899  156.2287 C   0  0  1  0  0  0  0  0  0  0  0  0
  151.4781  140.4058  155.4174 O   0  0  0  0  0  0  0  0  0  0  0  0
  149.3785  139.4104  155.9580 C   0  0  0  0  0  0  0  0  0  0  0  0
  147.9620  139.7423  156.1808 N   0  0  0  0  0  0  0  0  0  0  0  0
  147.0270  139.1678  156.9950 C   0  0  0  0  0  0  0  0  0  0  0  0
  147.2138  138.0019  157.9108 C   0  0  0  0  0  0  0  0  0  0  0  0
  146.8387  138.2908  159.2393 O   0  0  0  0  0  0  0  0  0  0  0  0
  145.8661  139.8616  156.8264 N   0  3  0  0  0  0  0  0  0  0  0  0
  146.0509  140.8742  155.8847 C   0  0  0  0  0  0  0  0  0  0  0  0
  145.1670  141.8245  155.3826 C   0  0  0  0  0  0  0  0  0  0  0  0
  145.6775  142.7152  154.4156 C   0  0  0  0  0  0  0  0  0  0  0  0
  147.0174  142.6401  153.9831 C   0  0  0  0  0  0  0  0  0  0  0  0
  147.9046  141.6732  154.5009 C   0  0  0  0  0  0  0  0  0  0  0  0
  147.3928  140.7985  155.4593 C   0  0  0  0  0  0  0  0  0  0  0  0
  152.1180  141.9383  159.3638 C   0  0  0  0  0  0  0  0  0  0  0  0
  153.1205  143.0880  159.5705 C   0  0  0  0  0  0  0  0  0  0  0  0
  150.6407  144.3418  160.2329 H   0  0  0  0  0  0  0  0  0  0  0  0
  151.1429  145.9764  159.8207 H   0  0  0  0  0  0  0  0  0  0  0  0
  151.9415  145.1155  161.1276 H   0  0  0  0  0  0  0  0  0  0  0  0
  153.3656  145.1668  159.1273 H   0  0  0  0  0  0  0  0  0  0  0  0
  151.5155  145.2761  157.4141 H   0  0  0  0  0  0  0  0  0  0  0  0
  152.8307  144.2048  157.0156 H   0  0  0  0  0  0  0  0  0  0  0  0
  150.1130  143.3407  158.1281 H   0  0  0  0  0  0  0  0  0  0  0  0
  150.7044  143.1182  156.5001 H   0  0  0  0  0  0  0  0  0  0  0  0
  151.3222  139.7881  157.9639 H   0  0  0  0  0  0  0  0  0  0  0  0
  149.9212  140.7460  158.3702 H   0  0  0  0  0  0  0  0  0  0  0  0
  149.8522  141.5121  155.9116 H   0  0  0  0  0  0  0  0  0  0  0  0
  152.2502  140.4691  155.9592 H   0  0  0  0  0  0  0  0  0  0  0  0
  149.4848  139.0501  154.9337 H   0  0  0  0  0  0  0  0  0  0  0  0
  149.6290  138.5687  156.6041 H   0  0  0  0  0  0  0  0  0  0  0  0
  146.6156  137.1633  157.5530 H   0  0  0  0  0  0  0  0  0  0  0  0
  148.2547  137.6793  157.8908 H   0  0  0  0  0  0  0  0  0  0  0  0
  145.9924  137.9021  159.4026 H   0  0  0  0  0  0  0  0  0  0  0  0
  144.1387  141.8817  155.7090 H   0  0  0  0  0  0  0  0  0  0  0  0
  145.0279  143.4692  153.9949 H   0  0  0  0  0  0  0  0  0  0  0  0
  147.3715  143.3373  153.2373 H   0  0  0  0  0  0  0  0  0  0  0  0
  148.9277  141.6226  154.1586 H   0  0  0  0  0  0  0  0  0  0  0  0
  151.2650  142.0456  160.0353 H   0  0  0  0  0  0  0  0  0  0  0  0
  152.6039  140.9969  159.6231 H   0  0  0  0  0  0  0  0  0  0  0  0
  154.0187  142.8811  158.9871 H   0  0  0  0  0  0  0  0  0  0  0  0
  153.4400  143.1240  160.6126 H   0  0  0  0  0  0  0  0  0  0  0  0
  152.4679  141.7594  157.3878 H   0  0  0  0  0  0  0  0  0  0  0  0
  145.0072  139.6503  157.3182 H   0  0  0  0  0  0  0  0  0  0  0  0
  1  2  1  0  0  0  0
  1 23  1  0  0  0  0
  1 24  1  0  0  0  0
  1 25  1  0  0  0  0
  2 22  1  0  0  0  0
  2  3  1  0  0  0  0
  2 26  1  0  0  0  0
  3  4  1  0  0  0  0
  3 27  1  0  0  0  0
  3 28  1  0  0  0  0
  4  5  1  0  0  0  0
  4 29  1  0  0  0  0
  4 30  1  0  0  0  0
  5  6  1  0  0  0  0
  5 21  1  0  0  0  0
  5 48  1  0  0  0  0
  6  7  1  0  0  0  0
  6 31  1  0  0  0  0
  6 32  1  0  0  0  0
  7  8  1  0  0  0  0
  7  9  1  0  0  0  0
  7 33  1  0  0  0  0
  8 34  1  0  0  0  0
  9 10  1  0  0  0  0
  9 35  1  0  0  0  0
  9 36  1  0  0  0  0
 10 20  1  0  0  0  0
 10 11  1  0  0  0  0
 11 12  1  0  0  0  0
 11 14  2  0  0  0  0
 12 13  1  0  0  0  0
 12 37  1  0  0  0  0
 12 38  1  0  0  0  0
 13 39  1  0  0  0  0
 14 15  1  0  0  0  0
 14 49  1  0  0  0  0
 15 20  2  0  0  0  0
 15 16  1  0  0  0  0
 16 17  2  0  0  0  0
 16 40  1  0  0  0  0
 17 18  1  0  0  0  0
 17 41  1  0  0  0  0
 18 19  2  0  0  0  0
 18 42  1  0  0  0  0
 19 20  1  0  0  0  0
 19 43  1  0  0  0  0
 21 22  1  0  0  0  0
 21 44  1  0  0  0  0
 21 45  1  0  0  0  0
 22 46  1  0  0  0  0
 22 47  1  0  0  0  0
M  CHG  1   5   1
M  CHG  1  14   1
M  END
> <s_m_source_file>
AV-unprocessed.smi

> <i_m_source_file_index>
1672

> <i_lp_mmshare_version>
43012

> <i_f3d_flags>
0

> <s_epik_input>
W0NIM11bQ0hdMVtDSDJdW0NIMl1OKFtDSDJdW0NIMl0xKVtDSDJdW0NASF0oW09IXSlbQ0gyXW4oYyhuMilbQ0gyXVtPSF0pYyhjMjMpW2NIXVtjSF1bY0hdW2NIXTM=

> <s_epik_cmdline>
J2VwaWtfcHl0aG9uJywgJy1waCcsICc3LjAnLCAnLXRuJywgJzgnLCAnLW1hJywgJzIwMCcsICctbWV0YWxfYmluZGluZycsICctaW1hZScsICc8aW5maWxlLm1hZT4nLCAnLW9tYWUnLCAnPG91dGZpbGUubWFlPic=

> <r_epik_Ionization_Penalty>
1.51642

> <r_epik_Ionization_Penalty_Charging>
1.51557

> <r_epik_Ionization_Penalty_Neutral>
0.000856474

> <r_epik_State_Penalty>
1.6048

> <r_epik_Charging_Adjusted_Penalty>
3.12037

> <i_epik_Tot_Q>
2

> <i_epik_Tot_abs_Q>
2

> <r_epik_Metal_State_Penalty>
5.65673

> <b_epik_Metal_Only>
0

> <s_lp_Force_Field>
OPLS_2005

> <r_lp_Energy>
31.8272

> <b_lp_Chiralities_Consistent>
1

> <s_lp_Variant>
AV-unprocessed.smi:1672-8

> <Gold.Version>
5.8.1

> <Gold.Id.Protein>
6NUR|6NUR_protein|mol2

> <Gold.PLP.Fitness>
43.4990

> <Gold.PLP.PLP>
-40.0463

> <Gold.PLP.part.hbond>
-2.0000

> <Gold.PLP.part.metal>
0.0000

> <Gold.PLP.part.buried>
-5.6328

> <Gold.PLP.part.nonpolar>
-33.9430

> <Gold.PLP.part.repulsive>
0.0883

> <Gold.PLP.ligand.clash>
0.0000

> <Gold.PLP.ligand.torsion>
0.3737

> <Gold.PLP.Chemscore.Hbond>
1.3920

> <Gold.PLP.Chemscore.CHOScore>
0.0000

> <Gold.PLP.Chemscore.Metal>
0.0000

> <Gold.Chemscore.Hbonds>
donor molecule, donor type, donor heavy atom, donor atom, acceptor molecule, acceptor atom, score
      P1  H  6934  6947       L1    13  0.50
      P1  H  7989  7998       L1     8  0.88

> <Gold.PLP.Chemscore.Internal.Correction>
0.0241

> <Gold.Rescore>
     Score         DG    S(hbond)    S(metal)    S(lipo)     H(rot)  DE(clash)    DE(int)     intcor
     15.02     -15.58       1.35        0.00     112.56       2.96       0.02       0.54       ----

> <Gold.Chemscore.Fitness>
15.0233

> <Gold.Chemscore.DG>
-15.5808

> <Gold.Chemscore.ZeroCoef>
-5.4800

> <Gold.Chemscore.Hbond>
1.3464

> <Gold.Chemscore.Metal>
0.0000

> <Gold.Chemscore.Lipo>
112.5614

> <Gold.Chemscore.Internal_Hbond>
0.0000

> <Gold.Chemscore.DEClash>
0.0164

> <Gold.Chemscore.DEInternal>
0.5411

> <Gold.Chemscore.Rot>
2.9555

> <Gold.Chemscore.Internal.Correction>
   9.000000E+99

> <Gold.Chemscore.Hbonds>
donor molecule, donor type, donor heavy atom, donor atom, acceptor molecule, acceptor atom, score
      P1  H  6934  6947       L1    13  0.13
      P1  H  7989  7998       L1     8  0.81

> <Gold.Chemscore.Hbond.Weighted>
-4.4971

> <Gold.Chemscore.Metal.Weighted>
-0.0000

> <Gold.Chemscore.Lipo.Weighted>
-13.1697

> <Gold.Chemscore.Internal_Hbond.Weighted>
0.0000

> <Gold.Chemscore.DEClash.Weighted>
0.0164

> <Gold.Chemscore.DEInternal.Weighted>
0.5411

> <Gold.Chemscore.Rot.Weighted>
7.5660

> <Gold.Chemscore.Internal.Correction.Weighted>
   9.000000E+99

> <Gold.Protein.RotatedTorsions>
[ 6907 6896 6895 6894 ] final  144.96 input  -60.11 | X-H torsion
[ 7974 7965 7964 7962 ] final -146.18 input  175.53 | X-H torsion
[ 8008 7997 7996 7995 ] final -145.11 input   59.86 | X-H torsion
[ 10167 10162 10161 10158 ] final -143.74 input  -65.29 | X-H torsion
[ 10718 10713 10712 10709 ] final  -87.64 input   66.30 | X-H torsion
[ 10763 10752 10751 10750 ] final -145.89 input  -60.55 | X-H torsion
[ 11005 11000 10999 10996 ] final   45.67 input  -57.11 | X-H torsion

> <Gold.Protein.ActiveResidues>
 VAL166  LYS551  ARG553  GLY616  TRP617  ASP618  TYR619  PRO620  LYS621  CYS622 
 ASP623  PHE694  ASN695  SER759  ASP760  ASP761  ALA762  ILE779  LEU786  VAL792 
 PHE793  MET794  SER795  GLU796  ALA797  LYS798  CYS799  TRP800  GLU811  SER814 

> <Gold.Protein.RotatedAtoms>
  152.1870  133.4746  159.4987 H   0  0  0  0  0  0  0  0  0  0  0  0  # atno 6907 bound_to 6896
  150.6944  134.1761  159.4240 H   0  0  0  0  0  0  0  0  0  0  0  0  # atno 6908 bound_to 6896
  151.9674  135.0093  160.0601 H   0  0  0  0  0  0  0  0  0  0  0  0  # atno 6909 bound_to 6896
  144.8177  140.5489  143.5599 H   0  0  0  0  0  0  0  0  0  0  0  0  # atno 7974 bound_to 7965
  155.5378  140.0605  157.2876 H   0  0  0  0  0  0  0  0  0  0  0  0  # atno 8008 bound_to 7997
  154.4462  140.1924  156.0604 H   0  0  0  0  0  0  0  0  0  0  0  0  # atno 8009 bound_to 7997
  156.0606  140.3273  155.7461 H   0  0  0  0  0  0  0  0  0  0  0  0  # atno 8010 bound_to 7997
  139.7965  143.7893  152.2654 H   0  0  0  0  0  0  0  0  0  0  0  0  # atno 10167 bound_to 10162
  155.9985  130.4807  150.4898 H   0  0  0  0  0  0  0  0  0  0  0  0  # atno 10718 bound_to 10713
  154.8362  135.3401  154.6575 H   0  0  0  0  0  0  0  0  0  0  0  0  # atno 10763 bound_to 10752
  153.7190  135.6959  153.5022 H   0  0  0  0  0  0  0  0  0  0  0  0  # atno 10764 bound_to 10752
  153.2395  135.4389  155.0636 H   0  0  0  0  0  0  0  0  0  0  0  0  # atno 10765 bound_to 10752
  140.1438  134.4548  155.8430 H   0  0  0  0  0  0  0  0  0  0  0  0  # atno 11005 bound_to 11000
  145.5177  139.1477  143.3570 LP  0  0  0  0  0  0  0  0  0  0  0  0  # atno 17320 bound_to 7965
  146.2481  140.5318  142.8905 LP  0  0  0  0  0  0  0  0  0  0  0  0  # atno 17321 bound_to 7965
  139.8000  144.7378  150.9838 LP  0  0  0  0  0  0  0  0  0  0  0  0  # atno 17342 bound_to 10162
  140.7820  143.4355  151.0630 LP  0  0  0  0  0  0  0  0  0  0  0  0  # atno 17343 bound_to 10162
  157.2895  131.0623  151.2144 LP  0  0  0  0  0  0  0  0  0  0  0  0  # atno 17370 bound_to 10713
  157.3161  130.6914  149.6243 LP  0  0  0  0  0  0  0  0  0  0  0  0  # atno 17371 bound_to 10713
  141.2190  133.6844  156.7297 LP  0  0  0  0  0  0  0  0  0  0  0  0  # atno 17394 bound_to 11000
  140.2688  134.8408  157.3828 LP  0  0  0  0  0  0  0  0  0  0  0  0  # atno 17395 bound_to 11000

$$$$
