AV-unprocessed.smi:261|AV-procd|sdf|1984|dock8
  -GOLD-   2262021163D 1   1.00000     0.00000
 Structure written by MMmdl.
 51 54  0  0  0  0  0  0  0  0  1 V2000
  153.6206  131.8454  163.3485 C   0  0  0  0  0  0  0  0  0  0  0  0
  155.0065  131.9056  163.0539 O   0  0  0  0  0  0  0  0  0  0  0  0
  155.5282  133.2265  163.0503 C   0  0  2  0  0  0  0  0  0  0  0  0
  154.9520  134.1118  164.1596 C   0  0  0  0  0  0  0  0  0  0  0  0
  155.1026  135.5452  163.6223 C   0  0  1  0  0  0  0  0  0  0  0  0
  156.4396  136.1785  164.0468 C   0  0  0  0  0  0  0  0  0  0  0  0
  156.6391  136.3357  165.3573 N   0  0  0  0  0  0  0  0  0  0  0  0
  157.2833  136.5079  163.2146 O   0  0  0  0  0  0  0  0  0  0  0  0
  155.0160  135.3715  162.1699 N   0  0  0  0  0  0  0  0  0  0  0  0
  154.6525  136.3655  161.3131 C   0  0  0  0  0  0  0  0  0  0  0  0
  154.1263  136.0181  160.1082 N   0  0  0  0  0  0  0  0  0  0  0  0
  153.7476  136.9514  159.2319 C   0  0  0  0  0  0  0  0  0  0  0  0
  153.8053  138.2774  159.3510 N   0  0  0  0  0  0  0  0  0  0  0  0
  154.3314  138.6406  160.5549 C   0  0  0  0  0  0  0  0  0  0  0  0
  154.7777  137.7619  161.5852 C   0  0  0  0  0  0  0  0  0  0  0  0
  155.2476  138.5128  162.6584 N   0  0  0  0  0  0  0  0  0  0  0  0
  155.0807  139.7526  162.2898 C   0  0  0  0  0  0  0  0  0  0  0  0
  154.5294  139.9210  161.0415 N   0  0  0  0  0  0  0  0  0  0  0  0
  154.2251  141.1817  160.3847 C   0  0  0  0  0  0  0  0  0  0  0  0
  152.8631  141.1996  159.6548 C   0  0  2  0  0  0  0  0  0  0  0  0
  152.9947  140.7154  158.3319 O   0  0  0  0  0  0  0  0  0  0  0  0
  152.1266  142.5594  159.6660 C   0  0  2  0  0  0  0  0  0  0  0  0
  152.7930  143.6879  158.8822 C   0  0  0  0  0  0  0  0  0  0  0  0
  152.0784  144.9087  159.4284 C   0  0  0  0  0  0  0  0  0  0  0  0
  151.6965  144.4993  160.8555 C   0  0  0  0  0  0  0  0  0  0  0  0
  151.9832  143.1088  160.9673 O   0  0  0  0  0  0  0  0  0  0  0  0
  155.1113  133.9709  161.7813 C   0  0  0  0  0  0  0  0  0  0  0  0
  156.6182  133.2124  163.1112 H   0  0  0  0  0  0  0  0  0  0  0  0
  154.2756  136.1545  163.9913 H   0  0  0  0  0  0  0  0  0  0  0  0
  153.2980  130.8045  163.3689 H   0  0  0  0  0  0  0  0  0  0  0  0
  153.0273  132.3623  162.5941 H   0  0  0  0  0  0  0  0  0  0  0  0
  153.4049  132.2824  164.3242 H   0  0  0  0  0  0  0  0  0  0  0  0
  153.8928  133.8876  164.2948 H   0  0  0  0  0  0  0  0  0  0  0  0
  155.4428  133.9547  165.1211 H   0  0  0  0  0  0  0  0  0  0  0  0
  157.5023  136.7387  165.6912 H   0  0  0  0  0  0  0  0  0  0  0  0
  155.9269  136.0426  166.0103 H   0  0  0  0  0  0  0  0  0  0  0  0
  153.3387  136.5820  158.3032 H   0  0  0  0  0  0  0  0  0  0  0  0
  155.3508  140.5829  162.9255 H   0  0  0  0  0  0  0  0  0  0  0  0
  154.2599  141.9734  161.1340 H   0  0  0  0  0  0  0  0  0  0  0  0
  155.0238  141.4025  159.6756 H   0  0  0  0  0  0  0  0  0  0  0  0
  152.2199  140.4834  160.1673 H   0  0  0  0  0  0  0  0  0  0  0  0
  152.2207  140.2187  158.1159 H   0  0  0  0  0  0  0  0  0  0  0  0
  151.1211  142.4100  159.2679 H   0  0  0  0  0  0  0  0  0  0  0  0
  153.8565  143.7524  159.1141 H   0  0  0  0  0  0  0  0  0  0  0  0
  152.6844  143.5784  157.8029 H   0  0  0  0  0  0  0  0  0  0  0  0
  152.7004  145.8036  159.3991 H   0  0  0  0  0  0  0  0  0  0  0  0
  151.1776  145.1058  158.8458 H   0  0  0  0  0  0  0  0  0  0  0  0
  152.2705  145.0486  161.6020 H   0  0  0  0  0  0  0  0  0  0  0  0
  150.6372  144.6784  161.0435 H   0  0  0  0  0  0  0  0  0  0  0  0
  155.8389  133.8152  160.9843 H   0  0  0  0  0  0  0  0  0  0  0  0
  154.1340  133.6302  161.4356 H   0  0  0  0  0  0  0  0  0  0  0  0
  1  2  1  0  0  0  0
  1 30  1  0  0  0  0
  1 31  1  0  0  0  0
  1 32  1  0  0  0  0
  2  3  1  0  0  0  0
  3 28  1  0  0  0  0
  3 27  1  0  0  0  0
  3  4  1  0  0  0  0
  4  5  1  0  0  0  0
  4 33  1  0  0  0  0
  4 34  1  0  0  0  0
  5 29  1  0  0  0  0
  5  6  1  0  0  0  0
  5  9  1  0  0  0  0
  6  7  1  0  0  0  0
  6  8  2  0  0  0  0
  7 35  1  0  0  0  0
  7 36  1  0  0  0  0
  9 10  1  0  0  0  0
  9 27  1  0  0  0  0
 10 15  1  0  0  0  0
 10 11  2  0  0  0  0
 11 12  1  0  0  0  0
 12 13  2  0  0  0  0
 12 37  1  0  0  0  0
 13 14  1  0  0  0  0
 14 18  1  0  0  0  0
 14 15  2  0  0  0  0
 15 16  1  0  0  0  0
 16 17  2  0  0  0  0
 17 18  1  0  0  0  0
 17 38  1  0  0  0  0
 18 19  1  0  0  0  0
 19 20  1  0  0  0  0
 19 39  1  0  0  0  0
 19 40  1  0  0  0  0
 20 21  1  0  0  0  0
 20 22  1  0  0  0  0
 20 41  1  0  0  0  0
 21 42  1  0  0  0  0
 22 26  1  0  0  0  0
 22 23  1  0  0  0  0
 22 43  1  0  0  0  0
 23 24  1  0  0  0  0
 23 44  1  0  0  0  0
 23 45  1  0  0  0  0
 24 25  1  0  0  0  0
 24 46  1  0  0  0  0
 24 47  1  0  0  0  0
 25 26  1  0  0  0  0
 25 48  1  0  0  0  0
 25 49  1  0  0  0  0
 27 50  1  0  0  0  0
 27 51  1  0  0  0  0
M  END
> <s_m_source_file>
AV-unprocessed.smi

> <i_m_source_file_index>
261

> <i_lp_mmshare_version>
43012

> <i_f3d_flags>
0

> <s_epik_input>
W0NIM11PW0NASF0xW0NIMl1bQ0BASF0oQyg9TylbTkgyXSlOKFtDSDJdMSljKG5bY0hdbjIpYyhjMjMpbltjSF1uM1tDSDJdW0NASF0oW09IXSlbQ0BASF00W0NIMl1bQ0gyXVtDSDJdTzQ=

> <s_epik_cmdline>
J2VwaWtfcHl0aG9uJywgJy1waCcsICc3LjAnLCAnLXRuJywgJzgnLCAnLW1hJywgJzIwMCcsICctbWV0YWxfYmluZGluZycsICctaW1hZScsICc8aW5maWxlLm1hZT4nLCAnLW9tYWUnLCAnPG91dGZpbGUubWFlPic=

> <r_lp_tautomer_probability>
1

> <r_epik_Ionization_Penalty>
0.000713824

> <r_epik_Ionization_Penalty_Charging>
0

> <r_epik_Ionization_Penalty_Neutral>
0.000713824

> <r_epik_State_Penalty>
0.000402132

> <r_epik_Charging_Adjusted_Penalty>
0.000402132

> <i_epik_Tot_Q>
0

> <i_epik_Tot_abs_Q>
0

> <r_epik_Metal_State_Penalty>
-0

> <b_epik_Metal_Only>
0

> <s_lp_Force_Field>
OPLS_2005

> <r_lp_Energy>
44.2831

> <b_lp_Chiralities_Consistent>
1

> <s_lp_Variant>
AV-unprocessed.smi:261-2

> <Gold.Version>
5.8.1

> <Gold.Id.Protein>
6NUR|6NUR_protein|mol2

> <Gold.PLP.Fitness>
49.7563

> <Gold.PLP.PLP>
-47.0544

> <Gold.PLP.part.hbond>
-2.9465

> <Gold.PLP.part.metal>
0.0000

> <Gold.PLP.part.buried>
-4.3030

> <Gold.PLP.part.nonpolar>
-39.5237

> <Gold.PLP.part.repulsive>
0.1620

> <Gold.PLP.ligand.clash>
0.0000

> <Gold.PLP.ligand.torsion>
0.9794

> <Gold.PLP.Chemscore.Hbond>
1.4968

> <Gold.PLP.Chemscore.CHOScore>
0.0000

> <Gold.PLP.Chemscore.Metal>
0.0000

> <Gold.Chemscore.Hbonds>
donor molecule, donor type, donor heavy atom, donor atom, acceptor molecule, acceptor atom, score
      P1  H  6896  6909       L1    11  0.71
      P1  H  7997  8010       L1    21  0.46

> <Gold.PLP.Chemscore.Internal.Correction>
0.1705

> <Gold.Rescore>
     Score         DG    S(hbond)    S(metal)    S(lipo)     H(rot)  DE(clash)    DE(int)     intcor
     10.58     -12.22       0.87        0.00     102.52       3.18       0.07       1.57       ----

> <Gold.Chemscore.Fitness>
10.5817

> <Gold.Chemscore.DG>
-12.2182

> <Gold.Chemscore.ZeroCoef>
-5.4800

> <Gold.Chemscore.Hbond>
0.8660

> <Gold.Chemscore.Metal>
0.0000

> <Gold.Chemscore.Lipo>
102.5175

> <Gold.Chemscore.Internal_Hbond>
0.0000

> <Gold.Chemscore.DEClash>
0.0678

> <Gold.Chemscore.DEInternal>
1.5687

> <Gold.Chemscore.Rot>
3.1831

> <Gold.Chemscore.Internal.Correction>
   9.000000E+99

> <Gold.Chemscore.Hbonds>
donor molecule, donor type, donor heavy atom, donor atom, acceptor molecule, acceptor atom, score
      P1  H  6896  6909       L1    11  0.21
      P1  H  7997  8010       L1    21  0.33

> <Gold.Chemscore.Hbond.Weighted>
-2.8923

> <Gold.Chemscore.Metal.Weighted>
-0.0000

> <Gold.Chemscore.Lipo.Weighted>
-11.9945

> <Gold.Chemscore.Internal_Hbond.Weighted>
0.0000

> <Gold.Chemscore.DEClash.Weighted>
0.0678

> <Gold.Chemscore.DEInternal.Weighted>
1.5687

> <Gold.Chemscore.Rot.Weighted>
8.1486

> <Gold.Chemscore.Internal.Correction.Weighted>
   9.000000E+99

> <Gold.Protein.RotatedTorsions>
[ 6907 6896 6895 6894 ] final  179.91 input  -60.11 | X-H torsion
[ 7974 7965 7964 7962 ] final -160.40 input  175.53 | X-H torsion
[ 8008 7997 7996 7995 ] final   32.34 input   59.86 | X-H torsion
[ 10167 10162 10161 10158 ] final -146.29 input  -65.29 | X-H torsion
[ 10718 10713 10712 10709 ] final -166.72 input   66.30 | X-H torsion
[ 10763 10752 10751 10750 ] final -113.73 input  -60.55 | X-H torsion
[ 11005 11000 10999 10996 ] final -152.50 input  -57.11 | X-H torsion

> <Gold.Protein.ActiveResidues>
 VAL166  LYS551  ARG553  GLY616  TRP617  ASP618  TYR619  PRO620  LYS621  CYS622 
 ASP623  PHE694  ASN695  SER759  ASP760  ASP761  ALA762  ILE779  LEU786  VAL792 
 PHE793  MET794  SER795  GLU796  ALA797  LYS798  CYS799  TRP800  GLU811  SER814 

> <Gold.Protein.RotatedAtoms>
  151.6641  133.3316  159.3180 H   0  0  0  0  0  0  0  0  0  0  0  0  # atno 6907 bound_to 6896
  150.7899  134.6919  159.6511 H   0  0  0  0  0  0  0  0  0  0  0  0  # atno 6908 bound_to 6896
  152.3977  134.6342  160.0135 H   0  0  0  0  0  0  0  0  0  0  0  0  # atno 6909 bound_to 6896
  144.7429  140.3548  143.6108 H   0  0  0  0  0  0  0  0  0  0  0  0  # atno 7974 bound_to 7965
  155.1209  140.3248  155.4497 H   0  0  0  0  0  0  0  0  0  0  0  0  # atno 8008 bound_to 7997
  156.2663  140.2027  156.6279 H   0  0  0  0  0  0  0  0  0  0  0  0  # atno 8009 bound_to 7997
  154.6684  140.0539  157.0126 H   0  0  0  0  0  0  0  0  0  0  0  0  # atno 8010 bound_to 7997
  139.7727  143.8214  152.2627 H   0  0  0  0  0  0  0  0  0  0  0  0  # atno 10167 bound_to 10162
  156.6720  130.9088  151.3045 H   0  0  0  0  0  0  0  0  0  0  0  0  # atno 10718 bound_to 10713
  154.8409  135.4443  154.1396 H   0  0  0  0  0  0  0  0  0  0  0  0  # atno 10763 bound_to 10752
  153.2584  135.6933  153.7610 H   0  0  0  0  0  0  0  0  0  0  0  0  # atno 10764 bound_to 10752
  153.6896  135.3389  155.3174 H   0  0  0  0  0  0  0  0  0  0  0  0  # atno 10765 bound_to 10752
  140.7182  134.3756  157.5187 H   0  0  0  0  0  0  0  0  0  0  0  0  # atno 11005 bound_to 11000
  145.7239  139.1717  143.2469 LP  0  0  0  0  0  0  0  0  0  0  0  0  # atno 17320 bound_to 7965
  146.1257  140.7252  142.9436 LP  0  0  0  0  0  0  0  0  0  0  0  0  # atno 17321 bound_to 7965
  139.8253  144.7278  150.9519 LP  0  0  0  0  0  0  0  0  0  0  0  0  # atno 17342 bound_to 10162
  140.7815  143.4120  151.0977 LP  0  0  0  0  0  0  0  0  0  0  0  0  # atno 17343 bound_to 10162
  157.7074  130.9400  150.0975 LP  0  0  0  0  0  0  0  0  0  0  0  0  # atno 17370 bound_to 10713
  156.1931  130.3656  149.8884 LP  0  0  0  0  0  0  0  0  0  0  0  0  # atno 17371 bound_to 10713
  139.8854  134.8937  156.2642 LP  0  0  0  0  0  0  0  0  0  0  0  0  # atno 17394 bound_to 11000
  141.0026  133.7142  156.0984 LP  0  0  0  0  0  0  0  0  0  0  0  0  # atno 17395 bound_to 11000

$$$$
