AV-unprocessed.smi:2750|AV-procd|sdf|10589|dock6
  -GOLD-   2272015 43D 1   1.00000     0.00000
 Structure written by MMmdl.
 25 26  0  0  0  0  0  0  0  0  2 V2000
  148.6234  136.6801  161.1330 O   0  0  0  0  0  0  0  0  0  0  0  0
  148.0658  136.8442  160.0260 C   0  0  0  0  0  0  0  0  0  0  0  0
  146.9519  137.3849  159.8466 O   0  5  0  0  0  0  0  0  0  0  0  0
  148.8176  136.3522  158.7872 C   0  0  0  0  0  0  0  0  0  0  0  0
  150.0564  137.0772  158.5707 N   0  0  0  0  0  0  0  0  0  0  0  0
  150.2512  138.2614  157.8904 C   0  0  0  0  0  0  0  0  0  0  0  0
  151.5997  138.4570  157.9750 C   0  0  0  0  0  0  0  0  0  0  0  0
  152.4329  139.5557  157.3868 C   0  0  0  0  0  0  0  0  0  0  0  0
  152.3272  139.6269  155.8497 C   0  0  2  0  0  0  0  0  0  0  0  0
  151.0342  140.0995  155.3834 N   0  0  0  0  0  0  0  0  0  0  0  0
  150.4157  139.2068  154.5991 C   0  0  0  0  0  0  0  0  0  0  0  0
  149.3162  139.3492  154.0695 O   0  0  0  0  0  0  0  0  0  0  0  0
  151.2053  138.1321  154.4956 N   0  0  0  0  0  0  0  0  0  0  0  0
  152.3344  138.2607  155.1903 C   0  0  0  0  0  0  0  0  0  0  0  0
  153.2372  137.4329  155.2967 O   0  0  0  0  0  0  0  0  0  0  0  0
  152.1605  137.4054  158.6998 N   0  0  0  0  0  0  0  0  0  0  0  0
  151.2226  136.5832  159.0520 N   0  0  0  0  0  0  0  0  0  0  0  0
  149.0486  135.2933  158.9070 H   0  0  0  0  0  0  0  0  0  0  0  0
  148.1887  136.4424  157.8998 H   0  0  0  0  0  0  0  0  0  0  0  0
  149.4557  138.8158  157.4150 H   0  0  0  0  0  0  0  0  0  0  0  0
  152.1266  140.5123  157.8117 H   0  0  0  0  0  0  0  0  0  0  0  0
  153.4752  139.4233  157.6820 H   0  0  0  0  0  0  0  0  0  0  0  0
  153.1165  140.2521  155.4296 H   0  0  0  0  0  0  0  0  0  0  0  0
  150.6571  141.0019  155.6358 H   0  0  0  0  0  0  0  0  0  0  0  0
  150.9662  137.3105  153.9602 H   0  0  0  0  0  0  0  0  0  0  0  0
  1  2  2  0  0  0  0
  2  3  1  0  0  0  0
  2  4  1  0  0  0  0
  4  5  1  0  0  0  0
  4 18  1  0  0  0  0
  4 19  1  0  0  0  0
  5 17  1  0  0  0  0
  5  6  1  0  0  0  0
  6  7  2  0  0  0  0
  6 20  1  0  0  0  0
  7  8  1  0  0  0  0
  7 16  1  0  0  0  0
  8  9  1  0  0  0  0
  8 21  1  0  0  0  0
  8 22  1  0  0  0  0
  9 14  1  0  0  0  0
  9 10  1  0  0  0  0
  9 23  1  0  0  0  0
 10 11  1  0  0  0  0
 10 24  1  0  0  0  0
 11 12  2  0  0  0  0
 11 13  1  0  0  0  0
 13 14  1  0  0  0  0
 13 25  1  0  0  0  0
 14 15  2  0  0  0  0
 16 17  2  0  0  0  0
M  CHG  1   3  -1
M  END
> <s_m_source_file>
AV-unprocessed.smi

> <i_m_source_file_index>
2750

> <i_lp_mmshare_version>
43012

> <i_f3d_flags>
0

> <s_epik_input>
Tz1DKFtPSF0pW0NIMl1uMVtjSF1jKG5uMSlbQ0gyXVtDQEBIXTJbTkhdQyg9TylbTkhdQzI9Tw==

> <s_epik_cmdline>
J2VwaWtfcHl0aG9uJywgJy1waCcsICc3LjAnLCAnLXRuJywgJzgnLCAnLW1hJywgJzIwMCcsICctbWV0YWxfYmluZGluZycsICctaW1hZScsICc8aW5maWxlLm1hZT4nLCAnLW9tYWUnLCAnPG91dGZpbGUubWFlPic=

> <r_lp_tautomer_probability>
1

> <r_epik_Ionization_Penalty>
0.019671

> <r_epik_Ionization_Penalty_Charging>
2.66176e-05

> <r_epik_Ionization_Penalty_Neutral>
0.0196444

> <r_epik_State_Penalty>
0.0155882

> <r_epik_Charging_Adjusted_Penalty>
0.0156148

> <i_epik_Tot_Q>
-1

> <i_epik_Tot_abs_Q>
1

> <r_epik_Metal_State_Penalty>
0.396229

> <b_epik_Metal_Only>
0

> <s_lp_Force_Field>
OPLS_2005

> <r_lp_Energy>
13.3356

> <b_lp_Chiralities_Consistent>
1

> <s_lp_Variant>
AV-unprocessed.smi:2750-1

> <Gold.Version>
5.8.1

> <Gold.Id.Protein>
6NUR|6NUR_protein|mol2

> <Gold.PLP.Fitness>
38.3938

> <Gold.PLP.PLP>
-23.2384

> <Gold.PLP.part.hbond>
-4.0000

> <Gold.PLP.part.metal>
0.0000

> <Gold.PLP.part.buried>
-5.4779

> <Gold.PLP.part.nonpolar>
-14.7167

> <Gold.PLP.part.repulsive>
0.8234

> <Gold.PLP.ligand.clash>
0.0000

> <Gold.PLP.ligand.torsion>
0.4910

> <Gold.PLP.Chemscore.Hbond>
5.3690

> <Gold.PLP.Chemscore.CHOScore>
0.0000

> <Gold.PLP.Chemscore.Metal>
0.0000

> <Gold.Chemscore.Hbonds>
donor molecule, donor type, donor heavy atom, donor atom, acceptor molecule, acceptor atom, score
      P1  H  6896  6909       L1    17  0.96
      P1  H  6931  6943       L1     1  2.00
      P1  H  6934  6947       L1     3  2.00
      P1  H 10752 10765       L1    15  0.14

> <Gold.PLP.Chemscore.Internal.Correction>
0.0305

> <Gold.Rescore>
     Score         DG    S(hbond)    S(metal)    S(lipo)     H(rot)  DE(clash)    DE(int)     intcor
     13.45     -14.03       3.97        0.00      21.71       2.84       0.13       0.46       ----

> <Gold.Chemscore.Fitness>
13.4476

> <Gold.Chemscore.DG>
-14.0318

> <Gold.Chemscore.ZeroCoef>
-5.4800

> <Gold.Chemscore.Hbond>
3.9730

> <Gold.Chemscore.Metal>
0.0000

> <Gold.Chemscore.Lipo>
21.7149

> <Gold.Chemscore.Internal_Hbond>
0.0000

> <Gold.Chemscore.DEClash>
0.1291

> <Gold.Chemscore.DEInternal>
0.4552

> <Gold.Chemscore.Rot>
2.8354

> <Gold.Chemscore.Internal.Correction>
   9.000000E+99

> <Gold.Chemscore.Hbonds>
donor molecule, donor type, donor heavy atom, donor atom, acceptor molecule, acceptor atom, score
      P1  H  6896  6909       L1    17  0.88
      P1  H  6931  6943       L1     1  0.82
      P1  H  6934  6947       L1     3  0.29
      P1  H 10752 10765       L1    15  0.14

> <Gold.Chemscore.Hbond.Weighted>
-13.2697

> <Gold.Chemscore.Metal.Weighted>
-0.0000

> <Gold.Chemscore.Lipo.Weighted>
-2.5406

> <Gold.Chemscore.Internal_Hbond.Weighted>
0.0000

> <Gold.Chemscore.DEClash.Weighted>
0.1291

> <Gold.Chemscore.DEInternal.Weighted>
0.4552

> <Gold.Chemscore.Rot.Weighted>
7.2586

> <Gold.Chemscore.Internal.Correction.Weighted>
   9.000000E+99

> <Gold.Protein.RotatedTorsions>
[ 6907 6896 6895 6894 ] final   95.01 input  -60.11 | X-H torsion
[ 7974 7965 7964 7962 ] final  -27.19 input  175.53 | X-H torsion
[ 8008 7997 7996 7995 ] final  131.42 input   59.86 | X-H torsion
[ 10167 10162 10161 10158 ] final   79.26 input  -65.29 | X-H torsion
[ 10718 10713 10712 10709 ] final  -39.86 input   66.30 | X-H torsion
[ 10763 10752 10751 10750 ] final  168.86 input  -60.55 | X-H torsion
[ 11005 11000 10999 10996 ] final   76.92 input  -57.11 | X-H torsion

> <Gold.Protein.ActiveResidues>
 VAL166  LYS551  ARG553  GLY616  TRP617  ASP618  TYR619  PRO620  LYS621  CYS622 
 ASP623  PHE694  ASN695  SER759  ASP760  ASP761  ALA762  ILE779  LEU786  VAL792 
 PHE793  MET794  SER795  GLU796  ALA797  LYS798  CYS799  TRP800  GLU811  SER814 

> <Gold.Protein.RotatedAtoms>
  152.5446  134.1105  159.8356 H   0  0  0  0  0  0  0  0  0  0  0  0  # atno 6907 bound_to 6896
  151.1172  133.5122  159.2611 H   0  0  0  0  0  0  0  0  0  0  0  0  # atno 6908 bound_to 6896
  151.1818  135.0374  159.8850 H   0  0  0  0  0  0  0  0  0  0  0  0  # atno 6909 bound_to 6896
  146.1374  140.5119  142.8666 H   0  0  0  0  0  0  0  0  0  0  0  0  # atno 7974 bound_to 7965
  156.2969  140.2571  156.2923 H   0  0  0  0  0  0  0  0  0  0  0  0  # atno 8008 bound_to 7997
  154.9497  140.0394  157.2157 H   0  0  0  0  0  0  0  0  0  0  0  0  # atno 8009 bound_to 7997
  154.8047  140.2834  155.5900 H   0  0  0  0  0  0  0  0  0  0  0  0  # atno 8010 bound_to 7997
  139.9622  144.5953  150.8061 H   0  0  0  0  0  0  0  0  0  0  0  0  # atno 10167 bound_to 10162
  156.2877  130.4224  149.8270 H   0  0  0  0  0  0  0  0  0  0  0  0  # atno 10718 bound_to 10713
  154.3748  135.2753  155.2245 H   0  0  0  0  0  0  0  0  0  0  0  0  # atno 10763 bound_to 10752
  154.4377  135.5962  153.6113 H   0  0  0  0  0  0  0  0  0  0  0  0  # atno 10764 bound_to 10752
  152.9837  135.6011  154.3983 H   0  0  0  0  0  0  0  0  0  0  0  0  # atno 10765 bound_to 10752
  139.9277  134.7641  156.1457 H   0  0  0  0  0  0  0  0  0  0  0  0  # atno 11005 bound_to 11000
  144.7755  140.5730  143.6641 LP  0  0  0  0  0  0  0  0  0  0  0  0  # atno 17320 bound_to 7965
  145.5124  139.1479  143.3597 LP  0  0  0  0  0  0  0  0  0  0  0  0  # atno 17321 bound_to 7965
  140.7549  143.3036  151.3017 LP  0  0  0  0  0  0  0  0  0  0  0  0  # atno 17342 bound_to 10162
  139.6545  144.0302  152.2650 LP  0  0  0  0  0  0  0  0  0  0  0  0  # atno 17343 bound_to 10162
  156.5695  130.8418  151.3352 LP  0  0  0  0  0  0  0  0  0  0  0  0  # atno 17370 bound_to 10713
  157.7333  130.9729  150.1973 LP  0  0  0  0  0  0  0  0  0  0  0  0  # atno 17371 bound_to 10713
  141.0845  133.6740  156.2407 LP  0  0  0  0  0  0  0  0  0  0  0  0  # atno 17394 bound_to 11000
  140.6290  134.5283  157.5557 LP  0  0  0  0  0  0  0  0  0  0  0  0  # atno 17395 bound_to 11000

$$$$
