AV-unprocessed.smi:3331|AV-procd|sdf|12827|dock6
  -GOLD-   2272019203D 1   1.00000     0.00000
 Structure written by MMmdl.
 46 47  0  0  0  0  0  0  0  0  1 V2000
  153.9998  141.6418  161.4577 C   0  0  0  0  0  0  0  0  0  0  0  0
  153.4217  141.8370  160.0495 C   0  0  2  0  0  0  0  0  0  0  0  0
  152.9063  143.2795  159.8413 C   0  0  0  0  0  0  0  0  0  0  0  0
  152.1998  143.4655  158.4786 C   0  0  2  0  0  0  0  0  0  0  0  0
  151.5830  144.8649  158.3493 C   0  0  0  0  0  0  0  0  0  0  0  0
  151.1476  142.3563  158.2647 C   0  0  0  0  0  0  0  0  0  0  0  0
  151.8172  141.0551  158.3826 N   0  0  0  0  0  0  0  0  0  0  0  0
  152.0789  140.2737  157.3046 C   0  0  0  0  0  0  0  0  0  0  0  0
  152.7742  139.2591  157.3921 O   0  0  0  0  0  0  0  0  0  0  0  0
  151.4863  140.6323  155.9206 C   0  0  1  0  0  0  0  0  0  0  0  0
  151.8757  139.5614  154.8893 C   0  0  0  0  0  0  0  0  0  0  0  0
  150.0202  140.7733  155.9504 N   0  0  0  0  0  0  0  0  0  0  0  0
  149.4653  141.2955  154.7044 C   0  0  0  0  0  0  0  0  0  0  0  0
  148.1172  140.6204  154.4081 C   0  0  0  0  0  0  0  0  0  0  0  0
  147.0133  141.5588  154.5061 N   0  0  0  0  0  0  0  0  0  0  0  0
  146.8206  142.7337  153.8100 C   0  0  0  0  0  0  0  0  0  0  0  0
  145.6305  143.2601  154.2236 C   0  0  0  0  0  0  0  0  0  0  0  0
  145.1633  142.3227  155.1869 C   0  0  0  0  0  0  0  0  0  0  0  0
  145.9937  141.3064  155.3551 N   0  0  0  0  0  0  0  0  0  0  0  0
  152.2909  140.8315  159.7538 C   0  0  0  0  0  0  0  0  0  0  0  0
  153.2404  141.7997  162.2243 H   0  0  0  0  0  0  0  0  0  0  0  0
  154.8151  142.3406  161.6473 H   0  0  0  0  0  0  0  0  0  0  0  0
  154.3945  140.6332  161.5826 H   0  0  0  0  0  0  0  0  0  0  0  0
  154.2275  141.6588  159.3355 H   0  0  0  0  0  0  0  0  0  0  0  0
  152.2059  143.5256  160.6409 H   0  0  0  0  0  0  0  0  0  0  0  0
  153.7326  143.9855  159.9310 H   0  0  0  0  0  0  0  0  0  0  0  0
  152.9526  143.3659  157.6947 H   0  0  0  0  0  0  0  0  0  0  0  0
  150.8173  145.0329  159.1074 H   0  0  0  0  0  0  0  0  0  0  0  0
  151.1190  145.0002  157.3719 H   0  0  0  0  0  0  0  0  0  0  0  0
  152.3416  145.6399  158.4639 H   0  0  0  0  0  0  0  0  0  0  0  0
  150.3569  142.4312  159.0128 H   0  0  0  0  0  0  0  0  0  0  0  0
  150.6528  142.4902  157.3017 H   0  0  0  0  0  0  0  0  0  0  0  0
  151.8767  141.5911  155.5819 H   0  0  0  0  0  0  0  0  0  0  0  0
  152.9576  139.4394  154.8263 H   0  0  0  0  0  0  0  0  0  0  0  0
  151.5214  139.8311  153.8939 H   0  0  0  0  0  0  0  0  0  0  0  0
  151.4475  138.5900  155.1407 H   0  0  0  0  0  0  0  0  0  0  0  0
  149.5610  139.9063  156.1889 H   0  0  0  0  0  0  0  0  0  0  0  0
  149.3265  142.3766  154.7371 H   0  0  0  0  0  0  0  0  0  0  0  0
  150.1711  141.0942  153.8981 H   0  0  0  0  0  0  0  0  0  0  0  0
  148.1246  140.2042  153.3999 H   0  0  0  0  0  0  0  0  0  0  0  0
  147.9385  139.7870  155.0889 H   0  0  0  0  0  0  0  0  0  0  0  0
  147.5352  143.0890  153.0821 H   0  0  0  0  0  0  0  0  0  0  0  0
  145.1632  144.1734  153.8868 H   0  0  0  0  0  0  0  0  0  0  0  0
  144.2515  142.3501  155.7652 H   0  0  0  0  0  0  0  0  0  0  0  0
  152.6128  139.8094  159.9434 H   0  0  0  0  0  0  0  0  0  0  0  0
  151.4636  140.9911  160.4472 H   0  0  0  0  0  0  0  0  0  0  0  0
  1  2  1  0  0  0  0
  1 21  1  0  0  0  0
  1 22  1  0  0  0  0
  1 23  1  0  0  0  0
  2 20  1  0  0  0  0
  2  3  1  0  0  0  0
  2 24  1  0  0  0  0
  3  4  1  0  0  0  0
  3 25  1  0  0  0  0
  3 26  1  0  0  0  0
  4  5  1  0  0  0  0
  4  6  1  0  0  0  0
  4 27  1  0  0  0  0
  5 28  1  0  0  0  0
  5 29  1  0  0  0  0
  5 30  1  0  0  0  0
  6  7  1  0  0  0  0
  6 31  1  0  0  0  0
  6 32  1  0  0  0  0
  7  8  1  0  0  0  0
  7 20  1  0  0  0  0
  8  9  2  0  0  0  0
  8 10  1  0  0  0  0
 10 11  1  0  0  0  0
 10 12  1  0  0  0  0
 10 33  1  0  0  0  0
 11 34  1  0  0  0  0
 11 35  1  0  0  0  0
 11 36  1  0  0  0  0
 12 13  1  0  0  0  0
 12 37  1  0  0  0  0
 13 14  1  0  0  0  0
 13 38  1  0  0  0  0
 13 39  1  0  0  0  0
 14 15  1  0  0  0  0
 14 40  1  0  0  0  0
 14 41  1  0  0  0  0
 15 19  1  0  0  0  0
 15 16  1  0  0  0  0
 16 17  2  0  0  0  0
 16 42  1  0  0  0  0
 17 18  1  0  0  0  0
 17 43  1  0  0  0  0
 18 19  2  0  0  0  0
 18 44  1  0  0  0  0
 20 45  1  0  0  0  0
 20 46  1  0  0  0  0
M  END
> <s_m_source_file>
AV-unprocessed.smi

> <i_m_source_file_index>
3331

> <i_lp_mmshare_version>
43012

> <i_f3d_flags>
0

> <s_epik_input>
W0NIM11bQ0BASF0xW0NIMl1bQ0BASF0oW0NIM10pW0NIMl1OKFtDSDJdMSlDKD1PKVtDQEhdKFtDSDNdKVtOSF1bQ0gyXVtDSDJdbjJbY0hdW2NIXVtjSF1uMg==

> <s_epik_cmdline>
J2VwaWtfcHl0aG9uJywgJy1waCcsICc3LjAnLCAnLXRuJywgJzgnLCAnLW1hJywgJzIwMCcsICctbWV0YWxfYmluZGluZycsICctaW1hZScsICc8aW5maWxlLm1hZT4nLCAnLW9tYWUnLCAnPG91dGZpbGUubWFlPic=

> <r_lp_tautomer_probability>
1

> <r_epik_Ionization_Penalty>
0.767994

> <r_epik_Ionization_Penalty_Charging>
0

> <r_epik_Ionization_Penalty_Neutral>
0.767994

> <r_epik_State_Penalty>
0.795453

> <r_epik_Charging_Adjusted_Penalty>
0.795453

> <i_epik_Tot_Q>
0

> <i_epik_Tot_abs_Q>
0

> <r_epik_Metal_State_Penalty>
0.794784

> <b_epik_Metal_Only>
0

> <s_lp_Force_Field>
OPLS_2005

> <r_lp_Energy>
28.4318

> <b_lp_Chiralities_Consistent>
1

> <s_lp_Variant>
AV-unprocessed.smi:3331-11

> <Gold.Version>
5.8.1

> <Gold.Id.Protein>
6NUR|6NUR_protein|mol2

> <Gold.PLP.Fitness>
49.1023

> <Gold.PLP.PLP>
-47.4005

> <Gold.PLP.part.hbond>
-1.0000

> <Gold.PLP.part.metal>
0.0000

> <Gold.PLP.part.buried>
-1.7142

> <Gold.PLP.part.nonpolar>
-43.2856

> <Gold.PLP.part.repulsive>
0.1007

> <Gold.PLP.ligand.clash>
0.0000

> <Gold.PLP.ligand.torsion>
0.6891

> <Gold.PLP.Chemscore.Hbond>
1.0000

> <Gold.PLP.Chemscore.CHOScore>
0.0000

> <Gold.PLP.Chemscore.Metal>
0.0000

> <Gold.Chemscore.Hbonds>
donor molecule, donor type, donor heavy atom, donor atom, acceptor molecule, acceptor atom, score
      P1  H  7997  8009       L1     9  1.00

> <Gold.PLP.Chemscore.Internal.Correction>
0.0801

> <Gold.Rescore>
     Score         DG    S(hbond)    S(metal)    S(lipo)     H(rot)  DE(clash)    DE(int)     intcor
     15.65     -16.73       0.57        0.00     116.16       1.66       0.66       0.42       ----

> <Gold.Chemscore.Fitness>
15.6462

> <Gold.Chemscore.DG>
-16.7277

> <Gold.Chemscore.ZeroCoef>
-5.4800

> <Gold.Chemscore.Hbond>
0.5745

> <Gold.Chemscore.Metal>
0.0000

> <Gold.Chemscore.Lipo>
116.1629

> <Gold.Chemscore.Internal_Hbond>
0.0000

> <Gold.Chemscore.DEClash>
0.6607

> <Gold.Chemscore.DEInternal>
0.4208

> <Gold.Chemscore.Rot>
1.6649

> <Gold.Chemscore.Internal.Correction>
   9.000000E+99

> <Gold.Chemscore.Hbonds>
donor molecule, donor type, donor heavy atom, donor atom, acceptor molecule, acceptor atom, score
      P1  H  7997  8009       L1     9  0.24

> <Gold.Chemscore.Hbond.Weighted>
-1.9187

> <Gold.Chemscore.Metal.Weighted>
-0.0000

> <Gold.Chemscore.Lipo.Weighted>
-13.5911

> <Gold.Chemscore.Internal_Hbond.Weighted>
0.0000

> <Gold.Chemscore.DEClash.Weighted>
0.6607

> <Gold.Chemscore.DEInternal.Weighted>
0.4208

> <Gold.Chemscore.Rot.Weighted>
4.2621

> <Gold.Chemscore.Internal.Correction.Weighted>
   9.000000E+99

> <Gold.Protein.RotatedTorsions>
[ 6907 6896 6895 6894 ] final    4.10 input  -60.11 | X-H torsion
[ 7974 7965 7964 7962 ] final  -81.75 input  175.53 | X-H torsion
[ 8008 7997 7996 7995 ] final  154.19 input   59.86 | X-H torsion
[ 10167 10162 10161 10158 ] final  -42.62 input  -65.29 | X-H torsion
[ 10718 10713 10712 10709 ] final  114.32 input   66.30 | X-H torsion
[ 10763 10752 10751 10750 ] final -157.44 input  -60.55 | X-H torsion
[ 11005 11000 10999 10996 ] final   81.65 input  -57.11 | X-H torsion

> <Gold.Protein.ActiveResidues>
 VAL166  LYS551  ARG553  GLY616  TRP617  ASP618  TYR619  PRO620  LYS621  CYS622 
 ASP623  PHE694  ASN695  SER759  ASP760  ASP761  ALA762  ILE779  LEU786  VAL792 
 PHE793  MET794  SER795  GLU796  ALA797  LYS798  CYS799  TRP800  GLU811  SER814 

> <Gold.Protein.RotatedAtoms>
  151.6358  135.1018  160.0130 H   0  0  0  0  0  0  0  0  0  0  0  0  # atno 6907 bound_to 6896
  152.4081  133.6917  159.6383 H   0  0  0  0  0  0  0  0  0  0  0  0  # atno 6908 bound_to 6896
  150.7974  133.8589  159.3267 H   0  0  0  0  0  0  0  0  0  0  0  0  # atno 6909 bound_to 6896
  145.5425  140.9508  143.1543 H   0  0  0  0  0  0  0  0  0  0  0  0  # atno 7974 bound_to 7965
  156.2544  140.1973  156.6608 H   0  0  0  0  0  0  0  0  0  0  0  0  # atno 8008 bound_to 7997
  154.6466  140.0577  156.9932 H   0  0  0  0  0  0  0  0  0  0  0  0  # atno 8009 bound_to 7997
  155.1482  140.3249  155.4440 H   0  0  0  0  0  0  0  0  0  0  0  0  # atno 8010 bound_to 7997
  140.6963  143.3027  151.3235 H   0  0  0  0  0  0  0  0  0  0  0  0  # atno 10167 bound_to 10162
  157.6288  131.0997  150.7168 H   0  0  0  0  0  0  0  0  0  0  0  0  # atno 10718 bound_to 10713
  154.7636  135.3124  154.8330 H   0  0  0  0  0  0  0  0  0  0  0  0  # atno 10763 bound_to 10752
  153.9085  135.6808  153.4756 H   0  0  0  0  0  0  0  0  0  0  0  0  # atno 10764 bound_to 10752
  153.1239  135.4810  154.9173 H   0  0  0  0  0  0  0  0  0  0  0  0  # atno 10765 bound_to 10752
  139.9091  134.8012  156.2069 H   0  0  0  0  0  0  0  0  0  0  0  0  # atno 11005 bound_to 11000
  144.7570  139.7050  143.7250 LP  0  0  0  0  0  0  0  0  0  0  0  0  # atno 17320 bound_to 7965
  146.1971  139.5245  142.9767 LP  0  0  0  0  0  0  0  0  0  0  0  0  # atno 17321 bound_to 7965
  139.6422  144.0519  152.2563 LP  0  0  0  0  0  0  0  0  0  0  0  0  # atno 17342 bound_to 10162
  140.0028  144.6281  150.7715 LP  0  0  0  0  0  0  0  0  0  0  0  0  # atno 17343 bound_to 10162
  156.7512  130.4769  149.5456 LP  0  0  0  0  0  0  0  0  0  0  0  0  # atno 17370 bound_to 10713
  156.1477  130.6288  151.0554 LP  0  0  0  0  0  0  0  0  0  0  0  0  # atno 17371 bound_to 10713
  141.0489  133.6899  156.1736 LP  0  0  0  0  0  0  0  0  0  0  0  0  # atno 17394 bound_to 11000
  140.6840  134.4737  157.5589 LP  0  0  0  0  0  0  0  0  0  0  0  0  # atno 17395 bound_to 11000

$$$$
