AV-unprocessed.smi:1236|AV-procd|sdf|5181|dock1
  -GOLD-   22720 4263D 1   1.00000     0.00000
 Structure written by MMmdl.
 40 41  0  0  0  0  0  0  0  0  2 V2000
  149.2079  139.7823  154.2172 C   0  0  0  0  0  0  0  0  0  0  0  0
  148.1449  140.7072  154.8256 C   0  0  2  0  0  0  0  0  0  0  0  0
  147.1889  141.2524  153.7387 C   0  0  0  0  0  0  0  0  0  0  0  0
  145.8537  141.6261  154.2704 N   0  3  0  0  0  0  0  0  0  0  0  0
  145.4788  140.8729  155.4893 C   0  0  0  0  0  0  0  0  0  0  0  0
  144.0533  141.2501  155.9283 C   0  0  0  0  0  0  0  0  0  0  0  0
  143.9711  142.6548  156.1373 O   0  0  0  0  0  0  0  0  0  0  0  0
  144.2549  143.3884  154.9519 C   0  0  0  0  0  0  0  0  0  0  0  0
  145.6896  143.0831  154.4917 C   0  0  0  0  0  0  0  0  0  0  0  0
  148.8143  141.7927  155.5451 N   0  0  0  0  0  0  0  0  0  0  0  0
  149.7040  141.6481  156.5393 C   0  0  0  0  0  0  0  0  0  0  0  0
  150.0488  140.5533  156.9850 O   0  0  0  0  0  0  0  0  0  0  0  0
  150.1451  142.8398  156.9782 N   0  0  0  0  0  0  0  0  0  0  0  0
  151.0380  143.1015  158.0515 C   0  0  0  0  0  0  0  0  0  0  0  0
  151.3184  144.4678  158.2782 C   0  0  0  0  0  0  0  0  0  0  0  0
  152.1888  144.8325  159.3237 C   0  0  0  0  0  0  0  0  0  0  0  0
  152.7568  143.8197  160.1167 C   0  0  0  0  0  0  0  0  0  0  0  0
  152.4248  142.4839  159.8248 C   0  0  0  0  0  0  0  0  0  0  0  0
  151.5892  142.1324  158.8245 N   0  0  0  0  0  0  0  0  0  0  0  0
  148.7454  138.9348  153.7105 H   0  0  0  0  0  0  0  0  0  0  0  0
  149.8688  139.3824  154.9871 H   0  0  0  0  0  0  0  0  0  0  0  0
  149.8254  140.3088  153.4886 H   0  0  0  0  0  0  0  0  0  0  0  0
  147.5764  140.1065  155.5370 H   0  0  0  0  0  0  0  0  0  0  0  0
  147.6536  142.1323  153.2906 H   0  0  0  0  0  0  0  0  0  0  0  0
  147.0700  140.5293  152.9302 H   0  0  0  0  0  0  0  0  0  0  0  0
  145.5289  139.8008  155.2949 H   0  0  0  0  0  0  0  0  0  0  0  0
  146.1898  141.0897  156.2882 H   0  0  0  0  0  0  0  0  0  0  0  0
  143.3213  140.9386  155.1813 H   0  0  0  0  0  0  0  0  0  0  0  0
  143.7985  140.7393  156.8569 H   0  0  0  0  0  0  0  0  0  0  0  0
  143.5338  143.1386  154.1715 H   0  0  0  0  0  0  0  0  0  0  0  0
  144.1447  144.4527  155.1592 H   0  0  0  0  0  0  0  0  0  0  0  0
  146.4039  143.4255  155.2420 H   0  0  0  0  0  0  0  0  0  0  0  0
  145.9007  143.6340  153.5755 H   0  0  0  0  0  0  0  0  0  0  0  0
  148.5941  142.7315  155.2452 H   0  0  0  0  0  0  0  0  0  0  0  0
  149.7899  143.6556  156.5016 H   0  0  0  0  0  0  0  0  0  0  0  0
  150.8739  145.2338  157.6593 H   0  0  0  0  0  0  0  0  0  0  0  0
  152.4158  145.8713  159.5131 H   0  0  0  0  0  0  0  0  0  0  0  0
  153.4290  144.0601  160.9270 H   0  0  0  0  0  0  0  0  0  0  0  0
  152.8391  141.6764  160.4096 H   0  0  0  0  0  0  0  0  0  0  0  0
  145.1841  141.3634  153.5610 H   0  0  0  0  0  0  0  0  0  0  0  0
  1  2  1  0  0  0  0
  1 20  1  0  0  0  0
  1 21  1  0  0  0  0
  1 22  1  0  0  0  0
  2  3  1  0  0  0  0
  2 10  1  0  0  0  0
  2 23  1  0  0  0  0
  3  4  1  0  0  0  0
  3 24  1  0  0  0  0
  3 25  1  0  0  0  0
  4  9  1  0  0  0  0
  4  5  1  0  0  0  0
  4 40  1  0  0  0  0
  5  6  1  0  0  0  0
  5 26  1  0  0  0  0
  5 27  1  0  0  0  0
  6  7  1  0  0  0  0
  6 28  1  0  0  0  0
  6 29  1  0  0  0  0
  7  8  1  0  0  0  0
  8  9  1  0  0  0  0
  8 30  1  0  0  0  0
  8 31  1  0  0  0  0
  9 32  1  0  0  0  0
  9 33  1  0  0  0  0
 10 11  1  0  0  0  0
 10 34  1  0  0  0  0
 11 12  2  0  0  0  0
 11 13  1  0  0  0  0
 13 14  1  0  0  0  0
 13 35  1  0  0  0  0
 14 19  1  0  0  0  0
 14 15  2  0  0  0  0
 15 16  1  0  0  0  0
 15 36  1  0  0  0  0
 16 17  2  0  0  0  0
 16 37  1  0  0  0  0
 17 18  1  0  0  0  0
 17 38  1  0  0  0  0
 18 19  2  0  0  0  0
 18 39  1  0  0  0  0
M  CHG  1   4   1
M  END
> <s_m_source_file>
AV-unprocessed.smi

> <i_m_source_file_index>
1236

> <i_lp_mmshare_version>
43012

> <i_f3d_flags>
0

> <s_epik_input>
W0NIMl0xW0NIMl1PW0NIMl1bQ0gyXU4xW0NIMl1bQ0BASF0oW0NIM10pW05IXUMoPU8pW05IXWMyW2NIXVtjSF1bY0hdW2NIXW4y

> <s_epik_cmdline>
J2VwaWtfcHl0aG9uJywgJy1waCcsICc3LjAnLCAnLXRuJywgJzgnLCAnLW1hJywgJzIwMCcsICctbWV0YWxfYmluZGluZycsICctaW1hZScsICc8aW5maWxlLm1hZT4nLCAnLW9tYWUnLCAnPG91dGZpbGUubWFlPic=

> <r_epik_Ionization_Penalty>
0.602564

> <r_epik_Ionization_Penalty_Charging>
0.602531

> <r_epik_Ionization_Penalty_Neutral>
3.36306e-05

> <r_epik_State_Penalty>
0.617039

> <r_epik_Charging_Adjusted_Penalty>
1.21957

> <i_epik_Tot_Q>
1

> <i_epik_Tot_abs_Q>
1

> <r_epik_Metal_State_Penalty>
0.617041

> <b_epik_Metal_Only>
0

> <s_lp_Force_Field>
OPLS_2005

> <r_lp_Energy>
24.2739

> <b_lp_Chiralities_Consistent>
1

> <s_lp_Variant>
AV-unprocessed.smi:1236-3

> <Gold.Version>
5.8.1

> <Gold.Id.Protein>
6NUR|6NUR_protein|mol2

> <Gold.PLP.Fitness>
46.1738

> <Gold.PLP.PLP>
-36.0335

> <Gold.PLP.part.hbond>
-3.0000

> <Gold.PLP.part.metal>
0.0000

> <Gold.PLP.part.buried>
-5.1231

> <Gold.PLP.part.nonpolar>
-29.7372

> <Gold.PLP.part.repulsive>
0.2485

> <Gold.PLP.ligand.clash>
0.0000

> <Gold.PLP.ligand.torsion>
0.7811

> <Gold.PLP.Chemscore.Hbond>
3.8945

> <Gold.PLP.Chemscore.CHOScore>
0.0000

> <Gold.PLP.Chemscore.Metal>
0.0000

> <Gold.Chemscore.Hbonds>
donor molecule, donor type, donor heavy atom, donor atom, acceptor molecule, acceptor atom, score
      L1  H     4    40       P1 10175  1.98
      L1  H    10    34       P1  8028  0.89
      L1  H    13    35       P1  8028  1.00

> <Gold.PLP.Chemscore.Internal.Correction>
0.0191

> <Gold.Rescore>
     Score         DG    S(hbond)    S(metal)    S(lipo)     H(rot)  DE(clash)    DE(int)     intcor
     16.71     -19.00       2.55        0.00      76.86       1.56       0.02       2.26       ----

> <Gold.Chemscore.Fitness>
16.7119

> <Gold.Chemscore.DG>
-18.9985

> <Gold.Chemscore.ZeroCoef>
-5.4800

> <Gold.Chemscore.Hbond>
2.5496

> <Gold.Chemscore.Metal>
0.0000

> <Gold.Chemscore.Lipo>
76.8596

> <Gold.Chemscore.Internal_Hbond>
0.0000

> <Gold.Chemscore.DEClash>
0.0224

> <Gold.Chemscore.DEInternal>
2.2643

> <Gold.Chemscore.Rot>
1.5584

> <Gold.Chemscore.Internal.Correction>
   9.000000E+99

> <Gold.Chemscore.Hbonds>
donor molecule, donor type, donor heavy atom, donor atom, acceptor molecule, acceptor atom, score
      L1  H     4    40       P1 10175  0.24
      L1  H    10    34       P1  8028  0.81
      L1  H    13    35       P1  8028  0.99

> <Gold.Chemscore.Hbond.Weighted>
-8.5156

> <Gold.Chemscore.Metal.Weighted>
-0.0000

> <Gold.Chemscore.Lipo.Weighted>
-8.9926

> <Gold.Chemscore.Internal_Hbond.Weighted>
0.0000

> <Gold.Chemscore.DEClash.Weighted>
0.0224

> <Gold.Chemscore.DEInternal.Weighted>
2.2643

> <Gold.Chemscore.Rot.Weighted>
3.9896

> <Gold.Chemscore.Internal.Correction.Weighted>
   9.000000E+99

> <Gold.Protein.RotatedTorsions>
[ 6907 6896 6895 6894 ] final  145.11 input  -60.11 | X-H torsion
[ 7974 7965 7964 7962 ] final  -25.18 input  175.53 | X-H torsion
[ 8008 7997 7996 7995 ] final  118.88 input   59.86 | X-H torsion
[ 10167 10162 10161 10158 ] final   -3.80 input  -65.29 | X-H torsion
[ 10718 10713 10712 10709 ] final  -32.13 input   66.30 | X-H torsion
[ 10763 10752 10751 10750 ] final  147.85 input  -60.55 | X-H torsion
[ 11005 11000 10999 10996 ] final -154.43 input  -57.11 | X-H torsion

> <Gold.Protein.ActiveResidues>
 VAL166  LYS551  ARG553  GLY616  TRP617  ASP618  TYR619  PRO620  LYS621  CYS622 
 ASP623  PHE694  ASN695  SER759  ASP760  ASP761  ALA762  ILE779  LEU786  VAL792 
 PHE793  MET794  SER795  GLU796  ALA797  LYS798  CYS799  TRP800  GLU811  SER814 

> <Gold.Protein.RotatedAtoms>
  152.1851  133.4734  159.4978 H   0  0  0  0  0  0  0  0  0  0  0  0  # atno 6907 bound_to 6896
  150.6941  134.1784  159.4248 H   0  0  0  0  0  0  0  0  0  0  0  0  # atno 6908 bound_to 6896
  151.9696  135.0083  160.0603 H   0  0  0  0  0  0  0  0  0  0  0  0  # atno 6909 bound_to 6896
  146.1507  140.4852  142.8612 H   0  0  0  0  0  0  0  0  0  0  0  0  # atno 7974 bound_to 7965
  156.2568  140.2865  156.0904 H   0  0  0  0  0  0  0  0  0  0  0  0  # atno 8008 bound_to 7997
  155.1469  140.0396  157.2829 H   0  0  0  0  0  0  0  0  0  0  0  0  # atno 8009 bound_to 7997
  154.6489  140.2540  155.7243 H   0  0  0  0  0  0  0  0  0  0  0  0  # atno 8010 bound_to 7997
  140.6904  143.6498  150.8360 H   0  0  0  0  0  0  0  0  0  0  0  0  # atno 10167 bound_to 10162
  156.3786  130.4352  149.7487 H   0  0  0  0  0  0  0  0  0  0  0  0  # atno 10718 bound_to 10713
  154.0452  135.2886  155.3349 H   0  0  0  0  0  0  0  0  0  0  0  0  # atno 10763 bound_to 10752
  154.6904  135.5228  153.8388 H   0  0  0  0  0  0  0  0  0  0  0  0  # atno 10764 bound_to 10752
  153.0583  135.6604  154.0653 H   0  0  0  0  0  0  0  0  0  0  0  0  # atno 10765 bound_to 10752
  140.6974  134.3975  157.5213 H   0  0  0  0  0  0  0  0  0  0  0  0  # atno 11005 bound_to 11000
  144.7901  140.6014  143.6547 LP  0  0  0  0  0  0  0  0  0  0  0  0  # atno 17320 bound_to 7965
  145.4829  139.1494  143.3752 LP  0  0  0  0  0  0  0  0  0  0  0  0  # atno 17321 bound_to 7965
  140.0210  143.5542  152.2800 LP  0  0  0  0  0  0  0  0  0  0  0  0  # atno 17342 bound_to 10162
  139.6301  144.7643  151.2555 LP  0  0  0  0  0  0  0  0  0  0  0  0  # atno 17343 bound_to 10162
  156.4586  130.7941  151.2961 LP  0  0  0  0  0  0  0  0  0  0  0  0  # atno 17370 bound_to 10713
  157.7490  131.0073  150.3184 LP  0  0  0  0  0  0  0  0  0  0  0  0  # atno 17371 bound_to 10713
  139.8906  134.8800  156.2360 LP  0  0  0  0  0  0  0  0  0  0  0  0  # atno 17394 bound_to 11000
  141.0192  133.7051  156.1240 LP  0  0  0  0  0  0  0  0  0  0  0  0  # atno 17395 bound_to 11000

$$$$
