AV-unprocessed.smi:21|AV-procd|sdf|142|dock4
  -GOLD-   2262015343D 1   1.00000     0.00000
 Structure written by MMmdl.
 62 65  0  0  0  0  0  0  0  0  2 V2000
  145.6913  132.4954  150.5722 C   0  0  0  0  0  0  0  0  0  0  0  0
  146.1038  133.8211  150.8654 O   0  0  0  0  0  0  0  0  0  0  0  0
  145.1103  134.8035  150.6015 C   0  0  2  0  0  0  0  0  0  0  0  0
  145.6450  136.1673  151.0172 C   0  0  0  0  0  0  0  0  0  0  0  0
  145.4217  136.2045  152.5339 C   0  0  1  0  0  0  0  0  0  0  0  0
  145.3887  137.6311  153.1353 C   0  0  0  0  0  0  0  0  0  0  0  0
  146.6062  138.3905  152.8436 N   0  0  0  0  0  0  0  0  0  0  0  0
  146.5662  139.3727  151.7677 C   0  0  0  0  0  0  0  0  0  0  0  0
  147.6096  138.4370  153.7638 C   0  0  0  0  0  0  0  0  0  0  0  0
  147.9519  137.2822  154.3945 N   0  0  0  0  0  0  0  0  0  0  0  0
  148.9285  137.2638  155.3048 C   0  0  0  0  0  0  0  0  0  0  0  0
  149.6825  138.2740  155.7370 N   0  0  0  0  0  0  0  0  0  0  0  0
  149.3464  139.4409  155.1184 C   0  0  0  0  0  0  0  0  0  0  0  0
  148.3340  139.6132  154.1293 C   0  0  0  0  0  0  0  0  0  0  0  0
  148.2803  140.9520  153.7532 N   0  0  0  0  0  0  0  0  0  0  0  0
  149.2073  141.5301  154.4653 C   0  0  0  0  0  0  0  0  0  0  0  0
  149.9026  140.6942  155.3064 N   0  0  0  0  0  0  0  0  0  0  0  0
  150.9805  141.0745  156.2036 C   0  0  0  0  0  0  0  0  0  0  0  0
  150.5847  142.2021  157.1883 C   0  0  1  0  0  0  0  0  0  0  0  0
  149.2737  141.8411  157.9252 C   0  0  0  0  0  0  0  0  0  0  0  0
  148.4316  142.9711  158.0215 O   0  0  0  0  0  0  0  0  0  0  0  0
  151.7477  142.5944  158.1428 C   0  0  2  0  0  0  0  0  0  0  0  0
  152.2522  141.4972  159.0720 C   0  0  0  0  0  0  0  0  0  0  0  0
  152.8437  142.3019  160.2200 C   0  0  0  0  0  0  0  0  0  0  0  0
  151.9015  143.3491  160.3844 O   0  0  0  0  0  0  0  0  0  0  0  0
  151.4599  143.7675  159.0968 C   0  0  0  0  0  0  0  0  0  0  0  0
  144.2127  135.3657  152.7792 N   0  3  1  0  0  0  0  0  0  0  0  0
  143.0262  136.0298  153.3697 C   0  0  0  0  0  0  0  0  0  0  0  0
  143.9015  134.6320  151.5285 C   0  0  0  0  0  0  0  0  0  0  0  0
  144.8329  134.7988  149.5459 H   0  0  0  0  0  0  0  0  0  0  0  0
  146.2420  135.6574  153.0008 H   0  0  0  0  0  0  0  0  0  0  0  0
  146.5051  131.8049  150.7927 H   0  0  0  0  0  0  0  0  0  0  0  0
  145.4389  132.3861  149.5167 H   0  0  0  0  0  0  0  0  0  0  0  0
  144.8300  132.1961  151.1690 H   0  0  0  0  0  0  0  0  0  0  0  0
  146.6879  136.3169  150.7352 H   0  0  0  0  0  0  0  0  0  0  0  0
  145.0553  136.9486  150.5353 H   0  0  0  0  0  0  0  0  0  0  0  0
  144.4974  138.1657  152.8078 H   0  0  0  0  0  0  0  0  0  0  0  0
  145.3093  137.5667  154.2207 H   0  0  0  0  0  0  0  0  0  0  0  0
  147.5520  139.5020  151.3196 H   0  0  0  0  0  0  0  0  0  0  0  0
  146.2173  140.3369  152.1383 H   0  0  0  0  0  0  0  0  0  0  0  0
  145.8866  139.0510  150.9784 H   0  0  0  0  0  0  0  0  0  0  0  0
  149.1361  136.3019  155.7501 H   0  0  0  0  0  0  0  0  0  0  0  0
  149.4138  142.5884  154.3947 H   0  0  0  0  0  0  0  0  0  0  0  0
  151.2831  140.1800  156.7491 H   0  0  0  0  0  0  0  0  0  0  0  0
  151.8440  141.3772  155.6107 H   0  0  0  0  0  0  0  0  0  0  0  0
  150.3785  143.0923  156.5914 H   0  0  0  0  0  0  0  0  0  0  0  0
  148.7356  141.0478  157.4063 H   0  0  0  0  0  0  0  0  0  0  0  0
  149.4645  141.4861  158.9370 H   0  0  0  0  0  0  0  0  0  0  0  0
  148.5562  143.5057  157.2521 H   0  0  0  0  0  0  0  0  0  0  0  0
  152.5986  142.9158  157.5414 H   0  0  0  0  0  0  0  0  0  0  0  0
  151.4366  140.8825  159.4506 H   0  0  0  0  0  0  0  0  0  0  0  0
  152.9810  140.8385  158.5998 H   0  0  0  0  0  0  0  0  0  0  0  0
  152.9602  141.7163  161.1320 H   0  0  0  0  0  0  0  0  0  0  0  0
  153.8146  142.7189  159.9470 H   0  0  0  0  0  0  0  0  0  0  0  0
  152.0183  144.6532  158.7910 H   0  0  0  0  0  0  0  0  0  0  0  0
  150.4079  144.0478  159.1406 H   0  0  0  0  0  0  0  0  0  0  0  0
  142.6622  136.8360  152.7316 H   0  0  0  0  0  0  0  0  0  0  0  0
  143.2488  136.4344  154.3569 H   0  0  0  0  0  0  0  0  0  0  0  0
  142.2175  135.3086  153.4934 H   0  0  0  0  0  0  0  0  0  0  0  0
  143.0320  135.0844  151.0486 H   0  0  0  0  0  0  0  0  0  0  0  0
  143.6518  133.5914  151.7332 H   0  0  0  0  0  0  0  0  0  0  0  0
  144.5042  134.6695  153.4506 H   0  0  0  0  0  0  0  0  0  0  0  0
  1  2  1  0  0  0  0
  1 32  1  0  0  0  0
  1 33  1  0  0  0  0
  1 34  1  0  0  0  0
  2  3  1  0  0  0  0
  3 30  1  0  0  0  0
  3 29  1  0  0  0  0
  3  4  1  0  0  0  0
  4  5  1  0  0  0  0
  4 35  1  0  0  0  0
  4 36  1  0  0  0  0
  5 31  1  0  0  0  0
  5  6  1  0  0  0  0
  5 27  1  0  0  0  0
  6  7  1  0  0  0  0
  6 37  1  0  0  0  0
  6 38  1  0  0  0  0
  7  8  1  0  0  0  0
  7  9  1  0  0  0  0
  8 39  1  0  0  0  0
  8 40  1  0  0  0  0
  8 41  1  0  0  0  0
  9 14  1  0  0  0  0
  9 10  2  0  0  0  0
 10 11  1  0  0  0  0
 11 12  2  0  0  0  0
 11 42  1  0  0  0  0
 12 13  1  0  0  0  0
 13 17  1  0  0  0  0
 13 14  2  0  0  0  0
 14 15  1  0  0  0  0
 15 16  2  0  0  0  0
 16 17  1  0  0  0  0
 16 43  1  0  0  0  0
 17 18  1  0  0  0  0
 18 19  1  0  0  0  0
 18 44  1  0  0  0  0
 18 45  1  0  0  0  0
 19 20  1  0  0  0  0
 19 22  1  0  0  0  0
 19 46  1  0  0  0  0
 20 21  1  0  0  0  0
 20 47  1  0  0  0  0
 20 48  1  0  0  0  0
 21 49  1  0  0  0  0
 22 26  1  0  0  0  0
 22 23  1  0  0  0  0
 22 50  1  0  0  0  0
 23 24  1  0  0  0  0
 23 51  1  0  0  0  0
 23 52  1  0  0  0  0
 24 25  1  0  0  0  0
 24 53  1  0  0  0  0
 24 54  1  0  0  0  0
 25 26  1  0  0  0  0
 26 55  1  0  0  0  0
 26 56  1  0  0  0  0
 27 28  1  0  0  0  0
 27 29  1  0  0  0  0
 27 62  1  0  0  0  0
 28 57  1  0  0  0  0
 28 58  1  0  0  0  0
 28 59  1  0  0  0  0
 29 60  1  0  0  0  0
 29 61  1  0  0  0  0
M  CHG  1  27   1
M  END
> <s_m_source_file>
AV-unprocessed.smi

> <i_m_source_file_index>
21

> <i_lp_mmshare_version>
43012

> <i_f3d_flags>
0

> <s_epik_input>
W0NIM11PW0NASF0xW0NIMl1bQ0BIXShOKFtDSDNdKVtDSDJdMSlbQ0gyXU4oW0NIM10pYyhuW2NIXW4yKWMoYzIzKW5bY0hdbjNbQ0gyXVtDQEhdKFtDSDJdW09IXSlbQ0BASF00W0NIMl1bQ0gyXU9bQ0gyXTQ=

> <s_epik_cmdline>
J2VwaWtfcHl0aG9uJywgJy1waCcsICc3LjAnLCAnLXRuJywgJzgnLCAnLW1hJywgJzIwMCcsICctbWV0YWxfYmluZGluZycsICctaW1hZScsICc8aW5maWxlLm1hZT4nLCAnLW9tYWUnLCAnPG91dGZpbGUubWFlPic=

> <r_lp_tautomer_probability>
1

> <r_epik_Ionization_Penalty>
0.0157465

> <r_epik_Ionization_Penalty_Charging>
0.015354

> <r_epik_Ionization_Penalty_Neutral>
0.000392529

> <r_epik_State_Penalty>
0.0120612

> <r_epik_Charging_Adjusted_Penalty>
0.0274152

> <i_epik_Tot_Q>
1

> <i_epik_Tot_abs_Q>
1

> <r_epik_Metal_State_Penalty>
0.0121253

> <b_epik_Metal_Only>
0

> <s_lp_Force_Field>
OPLS_2005

> <r_lp_Energy>
62.7223

> <b_lp_Chiralities_Consistent>
1

> <s_lp_Variant>
AV-unprocessed.smi:21-22

> <Gold.Version>
5.8.1

> <Gold.Id.Protein>
6NUR|6NUR_protein|mol2

> <Gold.PLP.Fitness>
50.4011

> <Gold.PLP.PLP>
-47.1395

> <Gold.PLP.part.hbond>
-2.0000

> <Gold.PLP.part.metal>
0.0000

> <Gold.PLP.part.buried>
-3.9314

> <Gold.PLP.part.nonpolar>
-43.6411

> <Gold.PLP.part.repulsive>
1.9227

> <Gold.PLP.ligand.clash>
0.0000

> <Gold.PLP.ligand.torsion>
1.3859

> <Gold.PLP.Chemscore.Hbond>
0.8000

> <Gold.PLP.Chemscore.CHOScore>
1.0000

> <Gold.PLP.Chemscore.Metal>
0.0000

> <Gold.Chemscore.Hbonds>
donor molecule, donor type, donor heavy atom, donor atom, acceptor molecule, acceptor atom, score
      L1  H    21    49       P1  8028  0.80
      L1  C    16    43       P1  8028  1.00

> <Gold.PLP.Chemscore.Internal.Correction>
0.6335

> <Gold.Rescore>
     Score         DG    S(hbond)    S(metal)    S(lipo)     H(rot)  DE(clash)    DE(int)     intcor
      9.00     -10.74       0.04        0.00     111.02       3.08       0.35       1.38       ----

> <Gold.Chemscore.Fitness>
9.0049

> <Gold.Chemscore.DG>
-10.7355

> <Gold.Chemscore.ZeroCoef>
-5.4800

> <Gold.Chemscore.Hbond>
0.0420

> <Gold.Chemscore.Metal>
0.0000

> <Gold.Chemscore.Lipo>
111.0199

> <Gold.Chemscore.Internal_Hbond>
0.0000

> <Gold.Chemscore.DEClash>
0.3458

> <Gold.Chemscore.DEInternal>
1.3848

> <Gold.Chemscore.Rot>
3.0758

> <Gold.Chemscore.Internal.Correction>
   9.000000E+99

> <Gold.Chemscore.Hbonds>
donor molecule, donor type, donor heavy atom, donor atom, acceptor molecule, acceptor atom, score
      L1  H    21    49       P1  8028  0.11

> <Gold.Chemscore.Hbond.Weighted>
-0.1403

> <Gold.Chemscore.Metal.Weighted>
-0.0000

> <Gold.Chemscore.Lipo.Weighted>
-12.9893

> <Gold.Chemscore.Internal_Hbond.Weighted>
0.0000

> <Gold.Chemscore.DEClash.Weighted>
0.3458

> <Gold.Chemscore.DEInternal.Weighted>
1.3848

> <Gold.Chemscore.Rot.Weighted>
7.8741

> <Gold.Chemscore.Internal.Correction.Weighted>
   9.000000E+99

> <Gold.Protein.RotatedTorsions>
[ 6907 6896 6895 6894 ] final  -94.82 input  -60.11 | X-H torsion
[ 7974 7965 7964 7962 ] final -126.74 input  175.53 | X-H torsion
[ 8008 7997 7996 7995 ] final   57.47 input   59.86 | X-H torsion
[ 10167 10162 10161 10158 ] final -135.25 input  -65.29 | X-H torsion
[ 10718 10713 10712 10709 ] final   77.69 input   66.30 | X-H torsion
[ 10763 10752 10751 10750 ] final   28.09 input  -60.55 | X-H torsion
[ 11005 11000 10999 10996 ] final -151.97 input  -57.11 | X-H torsion

> <Gold.Protein.ActiveResidues>
 VAL166  LYS551  ARG553  GLY616  TRP617  ASP618  TYR619  PRO620  LYS621  CYS622 
 ASP623  PHE694  ASN695  SER759  ASP760  ASP761  ALA762  ILE779  LEU786  VAL792 
 PHE793  MET794  SER795  GLU796  ALA797  LYS798  CYS799  TRP800  GLU811  SER814 

> <Gold.Protein.RotatedAtoms>
  150.6950  134.1754  159.4227 H   0  0  0  0  0  0  0  0  0  0  0  0  # atno 6907 bound_to 6896
  151.9730  135.0065  160.0563 H   0  0  0  0  0  0  0  0  0  0  0  0  # atno 6908 bound_to 6896
  152.1824  133.4681  159.5002 H   0  0  0  0  0  0  0  0  0  0  0  0  # atno 6909 bound_to 6896
  144.9842  140.7670  143.4593 H   0  0  0  0  0  0  0  0  0  0  0  0  # atno 7974 bound_to 7965
  155.5342  140.3483  155.4433 H   0  0  0  0  0  0  0  0  0  0  0  0  # atno 8008 bound_to 7997
  156.0697  140.1360  156.9870 H   0  0  0  0  0  0  0  0  0  0  0  0  # atno 8009 bound_to 7997
  154.4521  140.0968  156.6625 H   0  0  0  0  0  0  0  0  0  0  0  0  # atno 8010 bound_to 7997
  139.8797  143.6854  152.2629 H   0  0  0  0  0  0  0  0  0  0  0  0  # atno 10167 bound_to 10162
  157.6719  130.9833  150.1677 H   0  0  0  0  0  0  0  0  0  0  0  0  # atno 10718 bound_to 10713
  153.0514  135.6521  154.0685 H   0  0  0  0  0  0  0  0  0  0  0  0  # atno 10763 bound_to 10752
  154.0372  135.2906  155.3361 H   0  0  0  0  0  0  0  0  0  0  0  0  # atno 10764 bound_to 10752
  154.6804  135.5322  153.8322 H   0  0  0  0  0  0  0  0  0  0  0  0  # atno 10765 bound_to 10752
  140.7239  134.3697  157.5179 H   0  0  0  0  0  0  0  0  0  0  0  0  # atno 11005 bound_to 11000
  145.2377  139.2086  143.5009 LP  0  0  0  0  0  0  0  0  0  0  0  0  # atno 17320 bound_to 7965
  146.3416  140.2266  142.8592 LP  0  0  0  0  0  0  0  0  0  0  0  0  # atno 17321 bound_to 7965
  139.7207  144.7603  151.0960 LP  0  0  0  0  0  0  0  0  0  0  0  0  # atno 17342 bound_to 10162
  140.7746  143.5211  150.9535 LP  0  0  0  0  0  0  0  0  0  0  0  0  # atno 17343 bound_to 10162
  156.2439  130.3693  149.8307 LP  0  0  0  0  0  0  0  0  0  0  0  0  # atno 17370 bound_to 10713
  156.6099  130.8582  151.3452 LP  0  0  0  0  0  0  0  0  0  0  0  0  # atno 17371 bound_to 10713
  139.8842  134.8973  156.2720 LP  0  0  0  0  0  0  0  0  0  0  0  0  # atno 17394 bound_to 11000
  140.9980  133.7168  156.0916 LP  0  0  0  0  0  0  0  0  0  0  0  0  # atno 17395 bound_to 11000

$$$$
