AV-unprocessed.smi:3285|AV-procd|sdf|12587|dock8
  -GOLD-   2272018513D 1   1.00000     0.00000
 Structure written by MMmdl.
 45 46  0  0  0  0  0  0  0  0  2 V2000
  154.3198  136.3054  161.6576 C   0  0  0  0  0  0  0  0  0  0  0  0
  154.7667  136.9773  162.9241 C   0  0  0  0  0  0  0  0  0  0  0  0
  154.7765  136.2967  164.0577 N   0  0  0  0  0  0  0  0  0  0  0  0
  155.2350  137.1855  165.0345 O   0  0  0  0  0  0  0  0  0  0  0  0
  155.4884  138.3804  164.4431 C   0  0  0  0  0  0  0  0  0  0  0  0
  155.9915  139.4712  165.3270 C   0  0  0  0  0  0  0  0  0  0  0  0
  155.2135  138.3176  163.1046 C   0  0  0  0  0  0  0  0  0  0  0  0
  155.3496  139.3970  162.0652 C   0  0  0  0  0  0  0  0  0  0  0  0
  154.0396  139.6018  161.2934 C   0  0  0  0  0  0  0  0  0  0  0  0
  154.1974  140.6344  160.2482 N   0  3  0  0  0  0  0  0  0  0  0  0
  153.1152  141.6417  160.1869 C   0  0  1  0  0  0  0  0  0  0  0  0
  153.1845  142.5524  161.4256 C   0  0  0  0  0  0  0  0  0  0  0  0
  152.1056  143.6461  161.3900 C   0  0  0  0  0  0  0  0  0  0  0  0
  152.1987  144.4850  160.1005 C   0  0  2  0  0  0  0  0  0  0  0  0
  151.1822  145.6385  160.0936 C   0  0  0  0  0  0  0  0  0  0  0  0
  152.1263  143.5928  158.8349 C   0  0  2  0  0  0  0  0  0  0  0  0
  150.7273  143.0080  158.5528 C   0  0  0  0  0  0  0  0  0  0  0  0
  153.2030  142.4882  158.8968 C   0  0  0  0  0  0  0  0  0  0  0  0
  155.1385  136.2436  160.9409 H   0  0  0  0  0  0  0  0  0  0  0  0
  153.5078  136.8602  161.1876 H   0  0  0  0  0  0  0  0  0  0  0  0
  153.9622  135.2914  161.8409 H   0  0  0  0  0  0  0  0  0  0  0  0
  156.7675  140.0504  164.8271 H   0  0  0  0  0  0  0  0  0  0  0  0
  156.4154  139.0664  166.2463 H   0  0  0  0  0  0  0  0  0  0  0  0
  155.1833  140.1504  165.5973 H   0  0  0  0  0  0  0  0  0  0  0  0
  155.6467  140.3391  162.5271 H   0  0  0  0  0  0  0  0  0  0  0  0
  156.1471  139.1493  161.3636 H   0  0  0  0  0  0  0  0  0  0  0  0
  153.7314  138.6598  160.8403 H   0  0  0  0  0  0  0  0  0  0  0  0
  153.2476  139.9040  161.9801 H   0  0  0  0  0  0  0  0  0  0  0  0
  155.0600  141.1235  160.4402 H   0  0  0  0  0  0  0  0  0  0  0  0
  152.1623  141.1115  160.2120 H   0  0  0  0  0  0  0  0  0  0  0  0
  153.0709  141.9590  162.3334 H   0  0  0  0  0  0  0  0  0  0  0  0
  154.1681  143.0207  161.4853 H   0  0  0  0  0  0  0  0  0  0  0  0
  151.1173  143.1932  161.4757 H   0  0  0  0  0  0  0  0  0  0  0  0
  152.2188  144.2923  162.2613 H   0  0  0  0  0  0  0  0  0  0  0  0
  153.1850  144.9519  160.0983 H   0  0  0  0  0  0  0  0  0  0  0  0
  150.1579  145.2767  160.1850 H   0  0  0  0  0  0  0  0  0  0  0  0
  151.2526  146.2198  159.1739 H   0  0  0  0  0  0  0  0  0  0  0  0
  151.3617  146.3193  160.9261 H   0  0  0  0  0  0  0  0  0  0  0  0
  152.3707  144.2231  157.9785 H   0  0  0  0  0  0  0  0  0  0  0  0
  150.3554  142.4075  159.3823 H   0  0  0  0  0  0  0  0  0  0  0  0
  150.7434  142.3701  157.6687 H   0  0  0  0  0  0  0  0  0  0  0  0
  149.9971  143.7940  158.3604 H   0  0  0  0  0  0  0  0  0  0  0  0
  154.1887  142.9526  158.8409 H   0  0  0  0  0  0  0  0  0  0  0  0
  153.1201  141.8567  158.0123 H   0  0  0  0  0  0  0  0  0  0  0  0
  154.2775  140.1871  159.3462 H   0  0  0  0  0  0  0  0  0  0  0  0
  1  2  1  0  0  0  0
  1 19  1  0  0  0  0
  1 20  1  0  0  0  0
  1 21  1  0  0  0  0
  2  7  1  0  0  0  0
  2  3  2  0  0  0  0
  3  4  1  0  0  0  0
  4  5  1  0  0  0  0
  5  6  1  0  0  0  0
  5  7  2  0  0  0  0
  6 22  1  0  0  0  0
  6 23  1  0  0  0  0
  6 24  1  0  0  0  0
  7  8  1  0  0  0  0
  8  9  1  0  0  0  0
  8 25  1  0  0  0  0
  8 26  1  0  0  0  0
  9 10  1  0  0  0  0
  9 27  1  0  0  0  0
  9 28  1  0  0  0  0
 10 11  1  0  0  0  0
 10 29  1  0  0  0  0
 10 45  1  0  0  0  0
 11 18  1  0  0  0  0
 11 12  1  0  0  0  0
 11 30  1  0  0  0  0
 12 13  1  0  0  0  0
 12 31  1  0  0  0  0
 12 32  1  0  0  0  0
 13 14  1  0  0  0  0
 13 33  1  0  0  0  0
 13 34  1  0  0  0  0
 14 15  1  0  0  0  0
 14 16  1  0  0  0  0
 14 35  1  0  0  0  0
 15 36  1  0  0  0  0
 15 37  1  0  0  0  0
 15 38  1  0  0  0  0
 16 17  1  0  0  0  0
 16 18  1  0  0  0  0
 16 39  1  0  0  0  0
 17 40  1  0  0  0  0
 17 41  1  0  0  0  0
 17 42  1  0  0  0  0
 18 43  1  0  0  0  0
 18 44  1  0  0  0  0
M  CHG  1  10   1
M  END
> <s_m_source_file>
AV-unprocessed.smi

> <i_m_source_file_index>
3285

> <i_lp_mmshare_version>
43012

> <i_f3d_flags>
0

> <s_epik_input>
W0NIM11jMW5vYyhbQ0gzXSljMVtDSDJdW0NIMl1bTkhdW0NAQEhdMltDSDJdW0NIMl1bQ0BASF0oW0NIM10pW0NAQEhdKFtDSDNdKVtDSDJdMg==

> <s_epik_cmdline>
J2VwaWtfcHl0aG9uJywgJy1waCcsICc3LjAnLCAnLXRuJywgJzgnLCAnLW1hJywgJzIwMCcsICctbWV0YWxfYmluZGluZycsICctaW1hZScsICc8aW5maWxlLm1hZT4nLCAnLW9tYWUnLCAnPG91dGZpbGUubWFlPic=

> <r_lp_tautomer_probability>
1

> <r_epik_Ionization_Penalty>
0.000204615

> <r_epik_Ionization_Penalty_Charging>
0.000204615

> <r_epik_Ionization_Penalty_Neutral>
9.28663e-11

> <r_epik_State_Penalty>
-0

> <r_epik_Charging_Adjusted_Penalty>
0.000204615

> <i_epik_Tot_Q>
1

> <i_epik_Tot_abs_Q>
1

> <r_epik_Metal_State_Penalty>
-0

> <b_epik_Metal_Only>
0

> <s_lp_Force_Field>
OPLS_2005

> <r_lp_Energy>
12.1842

> <b_lp_Chiralities_Consistent>
1

> <s_lp_Variant>
AV-unprocessed.smi:3285-8

> <Gold.Version>
5.8.1

> <Gold.Id.Protein>
6NUR|6NUR_protein|mol2

> <Gold.PLP.Fitness>
38.9659

> <Gold.PLP.PLP>
-39.8035

> <Gold.PLP.part.hbond>
0.0000

> <Gold.PLP.part.metal>
0.0000

> <Gold.PLP.part.buried>
-5.4097

> <Gold.PLP.part.nonpolar>
-34.4079

> <Gold.PLP.part.repulsive>
0.2230

> <Gold.PLP.ligand.clash>
0.0000

> <Gold.PLP.ligand.torsion>
0.4255

> <Gold.PLP.Chemscore.Hbond>
0.0000

> <Gold.PLP.Chemscore.CHOScore>
0.0000

> <Gold.PLP.Chemscore.Metal>
0.0000

> <Gold.PLP.Chemscore.Internal.Correction>
0.0135

> <Gold.Rescore>
     Score         DG    S(hbond)    S(metal)    S(lipo)     H(rot)  DE(clash)    DE(int)     intcor
     17.40     -17.92       0.00        0.00     135.75       1.35       0.12       0.40       ----

> <Gold.Chemscore.Fitness>
17.3981

> <Gold.Chemscore.DG>
-17.9160

> <Gold.Chemscore.ZeroCoef>
-5.4800

> <Gold.Chemscore.Hbond>
0.0000

> <Gold.Chemscore.Metal>
0.0000

> <Gold.Chemscore.Lipo>
135.7518

> <Gold.Chemscore.Internal_Hbond>
0.0000

> <Gold.Chemscore.DEClash>
0.1178

> <Gold.Chemscore.DEInternal>
0.4001

> <Gold.Chemscore.Rot>
1.3465

> <Gold.Chemscore.Internal.Correction>
   9.000000E+99

> <Gold.Chemscore.Hbond.Weighted>
-0.0000

> <Gold.Chemscore.Metal.Weighted>
-0.0000

> <Gold.Chemscore.Lipo.Weighted>
-15.8830

> <Gold.Chemscore.Internal_Hbond.Weighted>
0.0000

> <Gold.Chemscore.DEClash.Weighted>
0.1178

> <Gold.Chemscore.DEInternal.Weighted>
0.4001

> <Gold.Chemscore.Rot.Weighted>
3.4470

> <Gold.Chemscore.Internal.Correction.Weighted>
   9.000000E+99

> <Gold.Protein.RotatedTorsions>
[ 6907 6896 6895 6894 ] final  -57.89 input  -60.11 | X-H torsion
[ 7974 7965 7964 7962 ] final   97.11 input  175.53 | X-H torsion
[ 8008 7997 7996 7995 ] final  -30.69 input   59.86 | X-H torsion
[ 10167 10162 10161 10158 ] final   94.22 input  -65.29 | X-H torsion
[ 10718 10713 10712 10709 ] final  -45.72 input   66.30 | X-H torsion
[ 10763 10752 10751 10750 ] final   58.20 input  -60.55 | X-H torsion
[ 11005 11000 10999 10996 ] final  -53.54 input  -57.11 | X-H torsion

> <Gold.Protein.ActiveResidues>
 VAL166  LYS551  ARG553  GLY616  TRP617  ASP618  TYR619  PRO620  LYS621  CYS622 
 ASP623  PHE694  ASN695  SER759  ASP760  ASP761  ALA762  ILE779  LEU786  VAL792 
 PHE793  MET794  SER795  GLU796  ALA797  LYS798  CYS799  TRP800  GLU811  SER814 

> <Gold.Protein.RotatedAtoms>
  150.8050  134.7169  159.6635 H   0  0  0  0  0  0  0  0  0  0  0  0  # atno 6907 bound_to 6896
  152.4169  134.6022  160.0013 H   0  0  0  0  0  0  0  0  0  0  0  0  # atno 6908 bound_to 6896
  151.6248  133.3299  159.3132 H   0  0  0  0  0  0  0  0  0  0  0  0  # atno 6909 bound_to 6896
  145.4298  139.2312  143.3150 H   0  0  0  0  0  0  0  0  0  0  0  0  # atno 7974 bound_to 7965
  154.4241  140.1784  156.1447 H   0  0  0  0  0  0  0  0  0  0  0  0  # atno 8008 bound_to 7997
  155.9963  140.3364  155.6777 H   0  0  0  0  0  0  0  0  0  0  0  0  # atno 8009 bound_to 7997
  155.6303  140.0669  157.2641 H   0  0  0  0  0  0  0  0  0  0  0  0  # atno 8010 bound_to 7997
  139.8104  144.6775  150.9647 H   0  0  0  0  0  0  0  0  0  0  0  0  # atno 10167 bound_to 10162
  156.2254  130.4169  149.8940 H   0  0  0  0  0  0  0  0  0  0  0  0  # atno 10718 bound_to 10713
  152.9866  135.5615  154.5514 H   0  0  0  0  0  0  0  0  0  0  0  0  # atno 10763 bound_to 10752
  154.4951  135.2794  155.1468 H   0  0  0  0  0  0  0  0  0  0  0  0  # atno 10764 bound_to 10752
  154.2922  135.6324  153.5443 H   0  0  0  0  0  0  0  0  0  0  0  0  # atno 10765 bound_to 10752
  141.0981  133.6621  156.4187 H   0  0  0  0  0  0  0  0  0  0  0  0  # atno 11005 bound_to 11000
  146.2613  140.5033  142.8852 LP  0  0  0  0  0  0  0  0  0  0  0  0  # atno 17320 bound_to 7965
  144.8190  140.6518  143.6365 LP  0  0  0  0  0  0  0  0  0  0  0  0  # atno 17321 bound_to 7965
  140.7818  143.4190  151.0871 LP  0  0  0  0  0  0  0  0  0  0  0  0  # atno 17342 bound_to 10162
  139.7857  143.8290  152.3144 LP  0  0  0  0  0  0  0  0  0  0  0  0  # atno 17343 bound_to 10162
  156.6572  130.8767  151.3541 LP  0  0  0  0  0  0  0  0  0  0  0  0  # atno 17370 bound_to 10713
  157.7108  130.9438  150.1083 LP  0  0  0  0  0  0  0  0  0  0  0  0  # atno 17371 bound_to 10713
  140.5090  134.6413  157.5277 LP  0  0  0  0  0  0  0  0  0  0  0  0  # atno 17394 bound_to 11000
  139.9824  134.7116  155.9836 LP  0  0  0  0  0  0  0  0  0  0  0  0  # atno 17395 bound_to 11000

$$$$
