AV-unprocessed.smi:287|AV-procd|sdf|2207|dock3
  -GOLD-   2262022 33D 1   1.00000     0.00000
 Structure written by MMmdl.
 55 58  0  0  0  0  0  0  0  0  1 V2000
  134.1982  137.1307  154.2649 C   0  0  0  0  0  0  0  0  0  0  0  0
  135.5069  137.8361  154.3663 C   0  0  0  0  0  0  0  0  0  0  0  0
  136.7650  137.4453  154.7209 C   0  0  0  0  0  0  0  0  0  0  0  0
  137.6087  138.5933  154.6343 C   0  0  0  0  0  0  0  0  0  0  0  0
  139.1005  138.6410  154.9354 C   0  0  1  0  0  0  0  0  0  0  0  0
  139.8646  139.1153  153.6886 C   0  0  0  0  0  0  0  0  0  0  0  0
  139.4223  139.5692  155.9535 O   0  0  0  0  0  0  0  0  0  0  0  0
  139.6544  137.2779  155.4104 C   0  0  0  0  0  0  0  0  0  0  0  0
  141.0819  137.1273  155.1563 N   0  0  0  0  0  0  0  0  0  0  0  0
  141.5261  136.2337  154.2484 C   0  0  0  0  0  0  0  0  0  0  0  0
  140.7605  135.1274  154.0945 N   0  0  0  0  0  0  0  0  0  0  0  0
  141.1065  134.1902  153.2086 C   0  0  0  0  0  0  0  0  0  0  0  0
  142.1595  134.1650  152.3904 N   0  0  0  0  0  0  0  0  0  0  0  0
  142.9435  135.2711  152.5445 C   0  0  0  0  0  0  0  0  0  0  0  0
  142.7027  136.3454  153.4495 C   0  0  0  0  0  0  0  0  0  0  0  0
  143.7226  137.2835  153.3292 N   0  0  0  0  0  0  0  0  0  0  0  0
  144.5048  136.7956  152.4057 C   0  0  0  0  0  0  0  0  0  0  0  0
  144.1066  135.5913  151.8733 N   0  0  0  0  0  0  0  0  0  0  0  0
  144.7858  134.8051  150.7987 C   0  0  1  0  0  0  0  0  0  0  0  0
  145.5627  133.8169  151.4034 O   0  0  0  0  0  0  0  0  0  0  0  0
  145.4164  132.5914  150.6945 C   0  0  1  0  0  0  0  0  0  0  0  0
  145.7409  131.4118  151.6243 C   0  0  0  0  0  0  0  0  0  0  0  0
  147.0552  131.5346  152.1245 O   0  0  0  0  0  0  0  0  0  0  0  0
  143.9521  132.6405  150.2542 C   0  0  2  0  0  0  0  0  0  0  0  0
  143.6597  131.7594  149.1848 O   0  0  0  0  0  0  0  0  0  0  0  0
  143.7526  134.1111  149.8966 C   0  0  2  0  0  0  0  0  0  0  0  0
  144.0241  134.3722  148.5316 O   0  0  0  0  0  0  0  0  0  0  0  0
  136.7819  139.6032  154.2045 C   0  0  0  0  0  0  0  0  0  0  0  0
  136.9917  141.0456  153.8804 C   0  0  0  0  0  0  0  0  0  0  0  0
  135.5051  139.1546  154.0469 O   0  0  0  0  0  0  0  0  0  0  0  0
  145.4129  135.5290  150.2759 H   0  0  0  0  0  0  0  0  0  0  0  0
  146.0657  132.6001  149.8163 H   0  0  0  0  0  0  0  0  0  0  0  0
  143.3080  132.3855  151.0959 H   0  0  0  0  0  0  0  0  0  0  0  0
  142.7386  134.4450  150.1221 H   0  0  0  0  0  0  0  0  0  0  0  0
  134.3138  136.0653  154.4646 H   0  0  0  0  0  0  0  0  0  0  0  0
  133.7737  137.2438  153.2673 H   0  0  0  0  0  0  0  0  0  0  0  0
  133.4858  137.5338  154.9848 H   0  0  0  0  0  0  0  0  0  0  0  0
  137.0486  136.4467  155.0191 H   0  0  0  0  0  0  0  0  0  0  0  0
  139.7063  138.4382  152.8484 H   0  0  0  0  0  0  0  0  0  0  0  0
  140.9390  139.1644  153.8708 H   0  0  0  0  0  0  0  0  0  0  0  0
  139.5365  140.1074  153.3757 H   0  0  0  0  0  0  0  0  0  0  0  0
  138.9864  140.3859  155.7633 H   0  0  0  0  0  0  0  0  0  0  0  0
  139.5007  137.2062  156.4879 H   0  0  0  0  0  0  0  0  0  0  0  0
  139.1031  136.4533  154.9568 H   0  0  0  0  0  0  0  0  0  0  0  0
  141.6885  137.5710  155.8312 H   0  0  0  0  0  0  0  0  0  0  0  0
  140.4431  133.3405  153.1435 H   0  0  0  0  0  0  0  0  0  0  0  0
  145.3974  137.3095  152.0798 H   0  0  0  0  0  0  0  0  0  0  0  0
  145.0253  131.3443  152.4446 H   0  0  0  0  0  0  0  0  0  0  0  0
  145.6898  130.4729  151.0726 H   0  0  0  0  0  0  0  0  0  0  0  0
  147.6532  131.1644  151.4932 H   0  0  0  0  0  0  0  0  0  0  0  0
  143.6730  132.2519  148.3785 H   0  0  0  0  0  0  0  0  0  0  0  0
  144.9619  134.4152  148.4200 H   0  0  0  0  0  0  0  0  0  0  0  0
  137.8332  141.1698  153.1988 H   0  0  0  0  0  0  0  0  0  0  0  0
  137.2000  141.6176  154.7846 H   0  0  0  0  0  0  0  0  0  0  0  0
  136.1099  141.4762  153.4053 H   0  0  0  0  0  0  0  0  0  0  0  0
  1  2  1  0  0  0  0
  1 35  1  0  0  0  0
  1 36  1  0  0  0  0
  1 37  1  0  0  0  0
  2 30  1  0  0  0  0
  2  3  2  0  0  0  0
  3  4  1  0  0  0  0
  3 38  1  0  0  0  0
  4  5  1  0  0  0  0
  4 28  2  0  0  0  0
  5  6  1  0  0  0  0
  5  7  1  0  0  0  0
  5  8  1  0  0  0  0
  6 39  1  0  0  0  0
  6 40  1  0  0  0  0
  6 41  1  0  0  0  0
  7 42  1  0  0  0  0
  8  9  1  0  0  0  0
  8 43  1  0  0  0  0
  8 44  1  0  0  0  0
  9 10  1  0  0  0  0
  9 45  1  0  0  0  0
 10 15  1  0  0  0  0
 10 11  2  0  0  0  0
 11 12  1  0  0  0  0
 12 13  2  0  0  0  0
 12 46  1  0  0  0  0
 13 14  1  0  0  0  0
 14 18  1  0  0  0  0
 14 15  2  0  0  0  0
 15 16  1  0  0  0  0
 16 17  2  0  0  0  0
 17 18  1  0  0  0  0
 17 47  1  0  0  0  0
 18 19  1  0  0  0  0
 19 31  1  0  0  0  0
 19 26  1  0  0  0  0
 19 20  1  0  0  0  0
 20 21  1  0  0  0  0
 21 32  1  0  0  0  0
 21 22  1  0  0  0  0
 21 24  1  0  0  0  0
 22 23  1  0  0  0  0
 22 48  1  0  0  0  0
 22 49  1  0  0  0  0
 23 50  1  0  0  0  0
 24 33  1  0  0  0  0
 24 25  1  0  0  0  0
 24 26  1  0  0  0  0
 25 51  1  0  0  0  0
 26 34  1  0  0  0  0
 26 27  1  0  0  0  0
 27 52  1  0  0  0  0
 28 29  1  0  0  0  0
 28 30  1  0  0  0  0
 29 53  1  0  0  0  0
 29 54  1  0  0  0  0
 29 55  1  0  0  0  0
M  END
> <s_m_source_file>
AV-unprocessed.smi

> <i_m_source_file_index>
287

> <i_lp_mmshare_version>
43012

> <i_f3d_flags>
0

> <s_epik_input>
W0NIM11jMVtjSF1jKGMobzEpW0NIM10pW0NAQF0oW0NIM10pKFtPSF0pW0NIMl1bTkhdYyhuW2NIXW4yKWMoYzIzKW5bY0hdbjNbQ0BASF00T1tDQEhdKFtDSDJdW09IXSlbQ0BASF0oW09IXSlbQ0BIXTRbT0hd

> <s_epik_cmdline>
J2VwaWtfcHl0aG9uJywgJy1waCcsICc3LjAnLCAnLXRuJywgJzgnLCAnLW1hJywgJzIwMCcsICctbWV0YWxfYmluZGluZycsICctaW1hZScsICc8aW5maWxlLm1hZT4nLCAnLW9tYWUnLCAnPG91dGZpbGUubWFlPic=

> <r_lp_tautomer_probability>
1

> <r_epik_Ionization_Penalty>
0.000992612

> <r_epik_Ionization_Penalty_Charging>
0

> <r_epik_Ionization_Penalty_Neutral>
0.000992612

> <r_epik_State_Penalty>
-0

> <r_epik_Charging_Adjusted_Penalty>
0

> <i_epik_Tot_Q>
0

> <i_epik_Tot_abs_Q>
0

> <r_epik_Metal_State_Penalty>
-0

> <b_epik_Metal_Only>
0

> <s_epik_Chemistry_Notes>
This compound contains an acetal/aminal-like group ( X-CH(R)-Y where X, Y are N, S, or O) that may be acid/base labile, releasing an aldehyde.

> <s_lp_Force_Field>
OPLS_2005

> <r_lp_Energy>
44.3809

> <b_lp_Chiralities_Consistent>
1

> <s_lp_Variant>
AV-unprocessed.smi:287-31

> <Gold.Version>
5.8.1

> <Gold.Id.Protein>
6NUR|6NUR_protein|mol2

> <Gold.PLP.Fitness>
52.8231

> <Gold.PLP.PLP>
-44.2526

> <Gold.PLP.part.hbond>
-4.8913

> <Gold.PLP.part.metal>
0.0000

> <Gold.PLP.part.buried>
-4.4732

> <Gold.PLP.part.nonpolar>
-37.2295

> <Gold.PLP.part.repulsive>
1.3088

> <Gold.PLP.ligand.clash>
0.0000

> <Gold.PLP.ligand.torsion>
1.3118

> <Gold.PLP.Chemscore.Hbond>
3.7021

> <Gold.PLP.Chemscore.CHOScore>
0.0000

> <Gold.PLP.Chemscore.Metal>
0.0000

> <Gold.Chemscore.Hbonds>
donor molecule, donor type, donor heavy atom, donor atom, acceptor molecule, acceptor atom, score
      L1  H    23    50       P1 10747  1.00
      L1  H    27    52       P1  7921  0.82
      P1  H 10785 10796       L1    25  0.85
      P1  H 11000 11005       L1    11  0.99

> <Gold.PLP.Chemscore.Internal.Correction>
0.0877

> <Gold.Rescore>
     Score         DG    S(hbond)    S(metal)    S(lipo)     H(rot)  DE(clash)    DE(int)     intcor
     11.95     -17.13       4.63        0.00      82.76       5.27       2.63       2.55       ----

> <Gold.Chemscore.Fitness>
11.9485

> <Gold.Chemscore.DG>
-17.1270

> <Gold.Chemscore.ZeroCoef>
-5.4800

> <Gold.Chemscore.Hbond>
4.6251

> <Gold.Chemscore.Metal>
0.0000

> <Gold.Chemscore.Lipo>
82.7602

> <Gold.Chemscore.Internal_Hbond>
0.0000

> <Gold.Chemscore.DEClash>
2.6264

> <Gold.Chemscore.DEInternal>
2.5520

> <Gold.Chemscore.Rot>
5.2672

> <Gold.Chemscore.Internal.Correction>
   9.000000E+99

> <Gold.Chemscore.Hbonds>
donor molecule, donor type, donor heavy atom, donor atom, acceptor molecule, acceptor atom, score
      L1  H    23    50       P1 10747  1.00
      L1  H    27    52       P1  7921  0.75
      P1  H 10785 10796       L1    25  0.42
      P1  H 11000 11005       L1    11  0.65

> <Gold.Chemscore.Hbond.Weighted>
-15.4480

> <Gold.Chemscore.Metal.Weighted>
-0.0000

> <Gold.Chemscore.Lipo.Weighted>
-9.6829

> <Gold.Chemscore.Internal_Hbond.Weighted>
0.0000

> <Gold.Chemscore.DEClash.Weighted>
2.6264

> <Gold.Chemscore.DEInternal.Weighted>
2.5520

> <Gold.Chemscore.Rot.Weighted>
13.4839

> <Gold.Chemscore.Internal.Correction.Weighted>
   9.000000E+99

> <Gold.Protein.RotatedTorsions>
[ 6907 6896 6895 6894 ] final -124.55 input  -60.11 | X-H torsion
[ 7974 7965 7964 7962 ] final  -91.97 input  175.53 | X-H torsion
[ 8008 7997 7996 7995 ] final  -76.96 input   59.86 | X-H torsion
[ 10167 10162 10161 10158 ] final -158.43 input  -65.29 | X-H torsion
[ 10718 10713 10712 10709 ] final   96.76 input   66.30 | X-H torsion
[ 10763 10752 10751 10750 ] final   76.62 input  -60.55 | X-H torsion
[ 11005 11000 10999 10996 ] final   47.56 input  -57.11 | X-H torsion

> <Gold.Protein.ActiveResidues>
 VAL166  LYS551  ARG553  GLY616  TRP617  ASP618  TYR619  PRO620  LYS621  CYS622 
 ASP623  PHE694  ASN695  SER759  ASP760  ASP761  ALA762  ILE779  LEU786  VAL792 
 PHE793  MET794  SER795  GLU796  ALA797  LYS798  CYS799  TRP800  GLU811  SER814 

> <Gold.Protein.RotatedAtoms>
  150.8780  133.7412  159.2940 H   0  0  0  0  0  0  0  0  0  0  0  0  # atno 6907 bound_to 6896
  151.5003  135.1060  159.9836 H   0  0  0  0  0  0  0  0  0  0  0  0  # atno 6908 bound_to 6896
  152.4740  133.8050  159.7029 H   0  0  0  0  0  0  0  0  0  0  0  0  # atno 6909 bound_to 6896
  145.4060  140.9541  143.2260 H   0  0  0  0  0  0  0  0  0  0  0  0  # atno 7974 bound_to 7965
  154.5552  140.0718  156.8732 H   0  0  0  0  0  0  0  0  0  0  0  0  # atno 8008 bound_to 7997
  155.2916  140.3378  155.4234 H   0  0  0  0  0  0  0  0  0  0  0  0  # atno 8009 bound_to 7997
  156.1996  140.1716  156.7913 H   0  0  0  0  0  0  0  0  0  0  0  0  # atno 8010 bound_to 7997
  139.6693  143.9774  152.2274 H   0  0  0  0  0  0  0  0  0  0  0  0  # atno 10167 bound_to 10162
  157.6922  131.0588  150.4541 H   0  0  0  0  0  0  0  0  0  0  0  0  # atno 10718 bound_to 10713
  153.0739  135.4944  154.8362 H   0  0  0  0  0  0  0  0  0  0  0  0  # atno 10763 bound_to 10752
  154.7060  135.3010  154.9272 H   0  0  0  0  0  0  0  0  0  0  0  0  # atno 10764 bound_to 10752
  153.9981  135.6770  153.4810 H   0  0  0  0  0  0  0  0  0  0  0  0  # atno 10765 bound_to 10752
  140.1268  134.4758  155.8553 H   0  0  0  0  0  0  0  0  0  0  0  0  # atno 11005 bound_to 11000
  144.8341  139.5579  143.6930 LP  0  0  0  0  0  0  0  0  0  0  0  0  # atno 17320 bound_to 7965
  146.2728  139.6678  142.9284 LP  0  0  0  0  0  0  0  0  0  0  0  0  # atno 17321 bound_to 7965
  139.9534  144.6605  150.8149 LP  0  0  0  0  0  0  0  0  0  0  0  0  # atno 17342 bound_to 10162
  140.7611  143.3168  151.2715 LP  0  0  0  0  0  0  0  0  0  0  0  0  # atno 17343 bound_to 10162
  156.4890  130.4091  149.6417 LP  0  0  0  0  0  0  0  0  0  0  0  0  # atno 17370 bound_to 10713
  156.3435  130.7394  151.2343 LP  0  0  0  0  0  0  0  0  0  0  0  0  # atno 17371 bound_to 10713
  141.2162  133.6781  156.6993 LP  0  0  0  0  0  0  0  0  0  0  0  0  # atno 17394 bound_to 11000
  140.2894  134.8253  157.4003 LP  0  0  0  0  0  0  0  0  0  0  0  0  # atno 17395 bound_to 11000

$$$$
