AV-unprocessed.smi:1617|AV-procd|sdf|6484|dock8
  -GOLD-   22720 7143D 1   1.00000     0.00000
 Structure written by MMmdl.
 47 49  0  0  0  0  0  0  0  0  1 V2000
  146.6120  138.3001  154.9837 O   0  0  0  0  0  0  0  0  0  0  0  0
  147.3577  137.8421  154.1184 C   0  0  0  0  0  0  0  0  0  0  0  0
  148.6733  138.0955  154.0107 N   0  0  0  0  0  0  0  0  0  0  0  0
  149.4792  138.9512  154.8094 C   0  0  0  0  0  0  0  0  0  0  0  0
  150.8904  139.0052  154.7501 C   0  0  0  0  0  0  0  0  0  0  0  0
  151.5781  139.8843  155.6088 C   0  0  0  0  0  0  0  0  0  0  0  0
  150.8429  140.6899  156.5153 C   0  0  0  0  0  0  0  0  0  0  0  0
  151.4729  141.5875  157.4088 N   0  0  0  0  0  0  0  0  0  0  0  0
  151.1455  143.0088  157.3227 C   0  0  0  0  0  0  0  0  0  0  0  0
  152.1533  143.8492  158.1254 C   0  0  0  0  0  0  0  0  0  0  0  0
  152.2204  143.3731  159.4643 O   0  0  0  0  0  0  0  0  0  0  0  0
  152.6785  142.0270  159.5187 C   0  0  0  0  0  0  0  0  0  0  0  0
  151.6928  141.1101  158.7745 C   0  0  0  0  0  0  0  0  0  0  0  0
  149.4910  140.6209  156.5750 N   0  0  0  0  0  0  0  0  0  0  0  0
  148.8361  139.7763  155.7518 C   0  0  0  0  0  0  0  0  0  0  0  0
  146.9473  136.9980  153.1598 N   0  0  0  0  0  0  0  0  0  0  0  0
  145.5724  136.5266  152.9757 C   0  0  2  0  0  0  0  0  0  0  0  0
  144.6524  137.7686  152.9434 C   0  0  0  0  0  0  0  0  0  0  0  0
  143.3050  137.5250  152.2414 C   0  0  0  0  0  0  0  0  0  0  0  0
  142.3816  136.5154  152.9403 C   0  0  0  0  0  0  0  0  0  0  0  0
  142.9677  135.0955  153.0238 C   0  0  0  0  0  0  0  0  0  0  0  0
  143.9659  134.9758  154.0784 N   0  0  0  0  0  0  0  0  0  0  0  0
  145.1468  135.6086  154.1458 C   0  0  0  0  0  0  0  0  0  0  0  0
  145.8747  135.4628  155.1278 O   0  0  0  0  0  0  0  0  0  0  0  0
  149.1672  137.5797  153.2971 H   0  0  0  0  0  0  0  0  0  0  0  0
  151.4609  138.3850  154.0767 H   0  0  0  0  0  0  0  0  0  0  0  0
  152.6545  139.9222  155.5460 H   0  0  0  0  0  0  0  0  0  0  0  0
  151.1664  143.3424  156.2849 H   0  0  0  0  0  0  0  0  0  0  0  0
  150.1355  143.1687  157.7025 H   0  0  0  0  0  0  0  0  0  0  0  0
  153.1421  143.8145  157.6650 H   0  0  0  0  0  0  0  0  0  0  0  0
  151.8449  144.8946  158.1351 H   0  0  0  0  0  0  0  0  0  0  0  0
  153.6784  141.9532  159.0879 H   0  0  0  0  0  0  0  0  0  0  0  0
  152.7590  141.7214  160.5618 H   0  0  0  0  0  0  0  0  0  0  0  0
  150.7354  141.0881  159.2966 H   0  0  0  0  0  0  0  0  0  0  0  0
  152.0876  140.0944  158.7893 H   0  0  0  0  0  0  0  0  0  0  0  0
  147.7601  139.7651  155.8471 H   0  0  0  0  0  0  0  0  0  0  0  0
  147.6292  136.6733  152.4904 H   0  0  0  0  0  0  0  0  0  0  0  0
  145.5061  135.9848  152.0304 H   0  0  0  0  0  0  0  0  0  0  0  0
  144.4889  138.1610  153.9488 H   0  0  0  0  0  0  0  0  0  0  0  0
  145.1546  138.5689  152.3976 H   0  0  0  0  0  0  0  0  0  0  0  0
  142.7785  138.4767  152.1625 H   0  0  0  0  0  0  0  0  0  0  0  0
  143.4852  137.2013  151.2156 H   0  0  0  0  0  0  0  0  0  0  0  0
  142.1171  136.8728  153.9366 H   0  0  0  0  0  0  0  0  0  0  0  0
  141.4461  136.4700  152.3818 H   0  0  0  0  0  0  0  0  0  0  0  0
  142.1688  134.3914  153.2574 H   0  0  0  0  0  0  0  0  0  0  0  0
  143.3823  134.7813  152.0650 H   0  0  0  0  0  0  0  0  0  0  0  0
  143.7241  134.3751  154.8534 H   0  0  0  0  0  0  0  0  0  0  0  0
  1  2  2  0  0  0  0
  2  3  1  0  0  0  0
  2 16  1  0  0  0  0
  3  4  1  0  0  0  0
  3 25  1  0  0  0  0
  4 15  1  0  0  0  0
  4  5  2  0  0  0  0
  5  6  1  0  0  0  0
  5 26  1  0  0  0  0
  6  7  2  0  0  0  0
  6 27  1  0  0  0  0
  7  8  1  0  0  0  0
  7 14  1  0  0  0  0
  8 13  1  0  0  0  0
  8  9  1  0  0  0  0
  9 10  1  0  0  0  0
  9 28  1  0  0  0  0
  9 29  1  0  0  0  0
 10 11  1  0  0  0  0
 10 30  1  0  0  0  0
 10 31  1  0  0  0  0
 11 12  1  0  0  0  0
 12 13  1  0  0  0  0
 12 32  1  0  0  0  0
 12 33  1  0  0  0  0
 13 34  1  0  0  0  0
 13 35  1  0  0  0  0
 14 15  2  0  0  0  0
 15 36  1  0  0  0  0
 16 17  1  0  0  0  0
 16 37  1  0  0  0  0
 17 23  1  0  0  0  0
 17 18  1  0  0  0  0
 17 38  1  0  0  0  0
 18 19  1  0  0  0  0
 18 39  1  0  0  0  0
 18 40  1  0  0  0  0
 19 20  1  0  0  0  0
 19 41  1  0  0  0  0
 19 42  1  0  0  0  0
 20 21  1  0  0  0  0
 20 43  1  0  0  0  0
 20 44  1  0  0  0  0
 21 22  1  0  0  0  0
 21 45  1  0  0  0  0
 21 46  1  0  0  0  0
 22 23  1  0  0  0  0
 22 47  1  0  0  0  0
 23 24  2  0  0  0  0
M  END
> <s_m_source_file>
AV-unprocessed.smi

> <i_m_source_file_index>
1617

> <i_lp_mmshare_version>
43012

> <i_f3d_flags>
0

> <s_epik_input>
Tz1DMVtOSF1bQ0gyXVtDSDJdW0NIMl1bQ0gyXVtDQEhdMVtOSF1DKD1PKVtOSF1jMltjSF1bY0hdYyhuW2NIXTIpTjNbQ0gyXVtDSDJdT1tDSDJdW0NIMl0z

> <s_epik_cmdline>
J2VwaWtfcHl0aG9uJywgJy1waCcsICc3LjAnLCAnLXRuJywgJzgnLCAnLW1hJywgJzIwMCcsICctbWV0YWxfYmluZGluZycsICctaW1hZScsICc8aW5maWxlLm1hZT4nLCAnLW9tYWUnLCAnPG91dGZpbGUubWFlPic=

> <r_lp_tautomer_probability>
1

> <r_epik_Ionization_Penalty>
0.00171733

> <r_epik_Ionization_Penalty_Charging>
0

> <r_epik_Ionization_Penalty_Neutral>
0.00171733

> <r_epik_State_Penalty>
0.00113787

> <r_epik_Charging_Adjusted_Penalty>
0.00113787

> <i_epik_Tot_Q>
0

> <i_epik_Tot_abs_Q>
0

> <r_epik_Metal_State_Penalty>
-0

> <b_epik_Metal_Only>
0

> <s_lp_Force_Field>
OPLS_2005

> <r_lp_Energy>
27.2722

> <b_lp_Chiralities_Consistent>
1

> <s_lp_Variant>
AV-unprocessed.smi:1617-1

> <Gold.Version>
5.8.1

> <Gold.Id.Protein>
6NUR|6NUR_protein|mol2

> <Gold.PLP.Fitness>
38.7487

> <Gold.PLP.PLP>
-33.3531

> <Gold.PLP.part.hbond>
-2.1158

> <Gold.PLP.part.metal>
0.0000

> <Gold.PLP.part.buried>
-3.3834

> <Gold.PLP.part.nonpolar>
-27.9767

> <Gold.PLP.part.repulsive>
0.1307

> <Gold.PLP.ligand.clash>
0.0000

> <Gold.PLP.ligand.torsion>
0.4027

> <Gold.PLP.Chemscore.Hbond>
1.9120

> <Gold.PLP.Chemscore.CHOScore>
0.0000

> <Gold.PLP.Chemscore.Metal>
0.0000

> <Gold.Chemscore.Hbonds>
donor molecule, donor type, donor heavy atom, donor atom, acceptor molecule, acceptor atom, score
      L1  H     3    25       P1  7948  0.91
      L1  H    16    37       P1  7948  0.99

> <Gold.PLP.Chemscore.Internal.Correction>
0.4650

> <Gold.Rescore>
     Score         DG    S(hbond)    S(metal)    S(lipo)     H(rot)  DE(clash)    DE(int)     intcor
     14.58     -18.09       1.82        0.00      83.47       1.27       0.07       3.44       ----

> <Gold.Chemscore.Fitness>
14.5839

> <Gold.Chemscore.DG>
-18.0944

> <Gold.Chemscore.ZeroCoef>
-5.4800

> <Gold.Chemscore.Hbond>
1.8250

> <Gold.Chemscore.Metal>
0.0000

> <Gold.Chemscore.Lipo>
83.4708

> <Gold.Chemscore.Internal_Hbond>
0.0000

> <Gold.Chemscore.DEClash>
0.0698

> <Gold.Chemscore.DEInternal>
3.4407

> <Gold.Chemscore.Rot>
1.2684

> <Gold.Chemscore.Internal.Correction>
   9.000000E+99

> <Gold.Chemscore.Hbonds>
donor molecule, donor type, donor heavy atom, donor atom, acceptor molecule, acceptor atom, score
      L1  H     3    25       P1  7948  0.86
      L1  H    16    37       P1  7948  0.92

> <Gold.Chemscore.Hbond.Weighted>
-6.0954

> <Gold.Chemscore.Metal.Weighted>
-0.0000

> <Gold.Chemscore.Lipo.Weighted>
-9.7661

> <Gold.Chemscore.Internal_Hbond.Weighted>
0.0000

> <Gold.Chemscore.DEClash.Weighted>
0.0698

> <Gold.Chemscore.DEInternal.Weighted>
3.4407

> <Gold.Chemscore.Rot.Weighted>
3.2471

> <Gold.Chemscore.Internal.Correction.Weighted>
   9.000000E+99

> <Gold.Protein.RotatedTorsions>
[ 6907 6896 6895 6894 ] final -172.08 input  -60.11 | X-H torsion
[ 7974 7965 7964 7962 ] final   -0.08 input  175.53 | X-H torsion
[ 8008 7997 7996 7995 ] final   24.87 input   59.86 | X-H torsion
[ 10167 10162 10161 10158 ] final  167.98 input  -65.29 | X-H torsion
[ 10718 10713 10712 10709 ] final  -76.09 input   66.30 | X-H torsion
[ 10763 10752 10751 10750 ] final -149.17 input  -60.55 | X-H torsion
[ 11005 11000 10999 10996 ] final -154.89 input  -57.11 | X-H torsion

> <Gold.Protein.ActiveResidues>
 VAL166  LYS551  ARG553  GLY616  TRP617  ASP618  TYR619  PRO620  LYS621  CYS622 
 ASP623  PHE694  ASN695  SER759  ASP760  ASP761  ALA762  ILE779  LEU786  VAL792 
 PHE793  MET794  SER795  GLU796  ALA797  LYS798  CYS799  TRP800  GLU811  SER814 

> <Gold.Protein.RotatedAtoms>
  151.5341  133.3444  159.2923 H   0  0  0  0  0  0  0  0  0  0  0  0  # atno 6907 bound_to 6896
  150.8575  134.7921  159.7068 H   0  0  0  0  0  0  0  0  0  0  0  0  # atno 6908 bound_to 6896
  152.4604  134.5205  159.9832 H   0  0  0  0  0  0  0  0  0  0  0  0  # atno 6909 bound_to 6896
  146.2430  140.1215  142.8340 H   0  0  0  0  0  0  0  0  0  0  0  0  # atno 7974 bound_to 7965
  155.0029  140.3127  155.4860 H   0  0  0  0  0  0  0  0  0  0  0  0  # atno 8008 bound_to 7997
  156.2922  140.2228  156.5081 H   0  0  0  0  0  0  0  0  0  0  0  0  # atno 8009 bound_to 7997
  154.7602  140.0459  157.0955 H   0  0  0  0  0  0  0  0  0  0  0  0  # atno 8010 bound_to 7997
  139.4957  144.3863  151.9566 H   0  0  0  0  0  0  0  0  0  0  0  0  # atno 10167 bound_to 10162
  156.0186  130.4457  150.3141 H   0  0  0  0  0  0  0  0  0  0  0  0  # atno 10718 bound_to 10713
  154.8192  135.3316  154.7088 H   0  0  0  0  0  0  0  0  0  0  0  0  # atno 10763 bound_to 10752
  153.7723  135.6924  153.4908 H   0  0  0  0  0  0  0  0  0  0  0  0  # atno 10764 bound_to 10752
  153.2036  135.4507  155.0244 H   0  0  0  0  0  0  0  0  0  0  0  0  # atno 10765 bound_to 10752
  140.6924  134.4027  157.5218 H   0  0  0  0  0  0  0  0  0  0  0  0  # atno 11005 bound_to 11000
  145.0402  140.8939  143.5057 LP  0  0  0  0  0  0  0  0  0  0  0  0  # atno 17320 bound_to 7965
  145.1294  139.2641  143.5547 LP  0  0  0  0  0  0  0  0  0  0  0  0  # atno 17321 bound_to 7965
  140.3300  144.3327  150.5989 LP  0  0  0  0  0  0  0  0  0  0  0  0  # atno 17342 bound_to 10162
  140.5653  143.2187  151.7695 LP  0  0  0  0  0  0  0  0  0  0  0  0  # atno 17343 bound_to 10162
  157.1242  131.0255  151.2996 LP  0  0  0  0  0  0  0  0  0  0  0  0  # atno 17370 bound_to 10713
  157.4603  130.7649  149.7230 LP  0  0  0  0  0  0  0  0  0  0  0  0  # atno 17371 bound_to 10713
  139.8920  134.8766  156.2294 LP  0  0  0  0  0  0  0  0  0  0  0  0  # atno 17394 bound_to 11000
  141.0231  133.7030  156.1301 LP  0  0  0  0  0  0  0  0  0  0  0  0  # atno 17395 bound_to 11000

$$$$
