AV-unprocessed.smi:3232|AV-procd|sdf|12343|dock2
  -GOLD-   2272018203D 1   1.00000     0.00000
 Structure written by MMmdl.
 40 41  0  0  0  0  0  0  0  0  2 V2000
  153.7474  141.1819  160.4237 C   0  0  0  0  0  0  0  0  0  0  0  0
  152.4837  141.2926  159.5604 C   0  0  0  0  0  0  0  0  0  0  0  0
  152.4649  142.5347  158.7505 N   0  3  2  0  0  0  0  0  0  0  0  0
  152.8226  143.7630  159.4916 C   0  0  0  0  0  0  0  0  0  0  0  0
  152.1870  144.9005  158.7026 C   0  0  0  0  0  0  0  0  0  0  0  0
  150.8755  144.2883  158.2259 C   0  0  0  0  0  0  0  0  0  0  0  0
  151.1803  142.7867  158.0496 C   0  0  1  0  0  0  0  0  0  0  0  0
  151.2805  142.3439  156.5745 C   0  0  0  0  0  0  0  0  0  0  0  0
  149.9918  142.4124  155.8964 N   0  0  0  0  0  0  0  0  0  0  0  0
  149.5173  141.4845  155.0498 C   0  0  0  0  0  0  0  0  0  0  0  0
  150.1780  140.5097  154.6892 O   0  0  0  0  0  0  0  0  0  0  0  0
  148.0728  141.6875  154.5624 C   0  0  1  0  0  0  0  0  0  0  0  0
  147.6795  140.7286  153.4203 C   0  0  0  0  0  0  0  0  0  0  0  0
  147.1476  141.5999  155.6865 N   0  0  0  0  0  0  0  0  0  0  0  0
  147.1427  142.2570  156.8485 C   0  0  0  0  0  0  0  0  0  0  0  0
  146.1749  141.8842  157.6740 N   0  0  0  0  0  0  0  0  0  0  0  0
  145.5778  140.9242  156.9074 C   0  0  0  0  0  0  0  0  0  0  0  0
  146.1279  140.7053  155.7132 N   0  0  0  0  0  0  0  0  0  0  0  0
  153.7611  140.2359  160.9653 H   0  0  0  0  0  0  0  0  0  0  0  0
  153.8026  141.9815  161.1625 H   0  0  0  0  0  0  0  0  0  0  0  0
  154.6485  141.2253  159.8111 H   0  0  0  0  0  0  0  0  0  0  0  0
  152.4474  140.4357  158.8864 H   0  0  0  0  0  0  0  0  0  0  0  0
  151.5899  141.2386  160.1840 H   0  0  0  0  0  0  0  0  0  0  0  0
  152.3940  143.7308  160.4948 H   0  0  0  0  0  0  0  0  0  0  0  0
  153.9027  143.8773  159.5880 H   0  0  0  0  0  0  0  0  0  0  0  0
  152.0437  145.8032  159.2973 H   0  0  0  0  0  0  0  0  0  0  0  0
  152.8117  145.1547  157.8454 H   0  0  0  0  0  0  0  0  0  0  0  0
  150.1158  144.4149  158.9987 H   0  0  0  0  0  0  0  0  0  0  0  0
  150.4991  144.7728  157.3243 H   0  0  0  0  0  0  0  0  0  0  0  0
  150.3846  142.2229  158.5404 H   0  0  0  0  0  0  0  0  0  0  0  0
  151.9801  142.9854  156.0379 H   0  0  0  0  0  0  0  0  0  0  0  0
  151.6763  141.3290  156.5049 H   0  0  0  0  0  0  0  0  0  0  0  0
  149.3913  143.1890  156.1335 H   0  0  0  0  0  0  0  0  0  0  0  0
  148.0088  142.7039  154.1706 H   0  0  0  0  0  0  0  0  0  0  0  0
  148.3374  140.8508  152.5592 H   0  0  0  0  0  0  0  0  0  0  0  0
  146.6618  140.9254  153.0818 H   0  0  0  0  0  0  0  0  0  0  0  0
  147.7277  139.6832  153.7286 H   0  0  0  0  0  0  0  0  0  0  0  0
  147.8689  143.0161  157.1007 H   0  0  0  0  0  0  0  0  0  0  0  0
  144.7185  140.3626  157.2431 H   0  0  0  0  0  0  0  0  0  0  0  0
  153.1575  142.4303  158.0227 H   0  0  0  0  0  0  0  0  0  0  0  0
  1  2  1  0  0  0  0
  1 19  1  0  0  0  0
  1 20  1  0  0  0  0
  1 21  1  0  0  0  0
  2  3  1  0  0  0  0
  2 22  1  0  0  0  0
  2 23  1  0  0  0  0
  3  7  1  0  0  0  0
  3  4  1  0  0  0  0
  3 40  1  0  0  0  0
  4  5  1  0  0  0  0
  4 24  1  0  0  0  0
  4 25  1  0  0  0  0
  5  6  1  0  0  0  0
  5 26  1  0  0  0  0
  5 27  1  0  0  0  0
  6  7  1  0  0  0  0
  6 28  1  0  0  0  0
  6 29  1  0  0  0  0
  7  8  1  0  0  0  0
  7 30  1  0  0  0  0
  8  9  1  0  0  0  0
  8 31  1  0  0  0  0
  8 32  1  0  0  0  0
  9 10  1  0  0  0  0
  9 33  1  0  0  0  0
 10 11  2  0  0  0  0
 10 12  1  0  0  0  0
 12 13  1  0  0  0  0
 12 14  1  0  0  0  0
 12 34  1  0  0  0  0
 13 35  1  0  0  0  0
 13 36  1  0  0  0  0
 13 37  1  0  0  0  0
 14 18  1  0  0  0  0
 14 15  1  0  0  0  0
 15 16  2  0  0  0  0
 15 38  1  0  0  0  0
 16 17  1  0  0  0  0
 17 18  2  0  0  0  0
 17 39  1  0  0  0  0
M  CHG  1   3   1
M  END
> <s_m_source_file>
AV-unprocessed.smi

> <i_m_source_file_index>
3232

> <i_lp_mmshare_version>
43012

> <i_f3d_flags>
0

> <s_epik_input>
W0NIM11bQ0gyXU4xW0NIMl1bQ0gyXVtDSDJdW0NASF0xW0NIMl1bTkhdQyg9TylbQ0BIXShbQ0gzXSluMltjSF1uW2NIXW4y

> <s_epik_cmdline>
J2VwaWtfcHl0aG9uJywgJy1waCcsICc3LjAnLCAnLXRuJywgJzgnLCAnLW1hJywgJzIwMCcsICctbWV0YWxfYmluZGluZycsICctaW1hZScsICc8aW5maWxlLm1hZT4nLCAnLW9tYWUnLCAnPG91dGZpbGUubWFlPic=

> <r_lp_tautomer_probability>
1

> <r_epik_Ionization_Penalty>
0.00177695

> <r_epik_Ionization_Penalty_Charging>
0.00176881

> <r_epik_Ionization_Penalty_Neutral>
8.13528e-06

> <r_epik_State_Penalty>
0.00119827

> <r_epik_Charging_Adjusted_Penalty>
0.00296709

> <i_epik_Tot_Q>
1

> <i_epik_Tot_abs_Q>
1

> <r_epik_Metal_State_Penalty>
-0

> <b_epik_Metal_Only>
0

> <s_lp_Force_Field>
OPLS_2005

> <r_lp_Energy>
32.1761

> <b_lp_Chiralities_Consistent>
1

> <s_lp_Variant>
AV-unprocessed.smi:3232-5

> <Gold.Version>
5.8.1

> <Gold.Id.Protein>
6NUR|6NUR_protein|mol2

> <Gold.PLP.Fitness>
41.8217

> <Gold.PLP.PLP>
-34.9037

> <Gold.PLP.part.hbond>
-2.0000

> <Gold.PLP.part.metal>
0.0000

> <Gold.PLP.part.buried>
-3.7575

> <Gold.PLP.part.nonpolar>
-29.2947

> <Gold.PLP.part.repulsive>
0.4212

> <Gold.PLP.ligand.clash>
0.0000

> <Gold.PLP.ligand.torsion>
0.3681

> <Gold.PLP.Chemscore.Hbond>
1.8560

> <Gold.PLP.Chemscore.CHOScore>
0.6481

> <Gold.PLP.Chemscore.Metal>
0.0000

> <Gold.Chemscore.Hbonds>
donor molecule, donor type, donor heavy atom, donor atom, acceptor molecule, acceptor atom, score
      L1  H     9    33       P1  8028  0.90
      P1  H  7989  7998       L1    11  0.93
      L1  C    15    38       P1  8028  0.66

> <Gold.PLP.Chemscore.Internal.Correction>
0.1418

> <Gold.Rescore>
     Score         DG    S(hbond)    S(metal)    S(lipo)     H(rot)  DE(clash)    DE(int)     intcor
     13.51     -15.49       1.70        0.00      91.48       2.49       0.63       1.34       ----

> <Gold.Chemscore.Fitness>
13.5124

> <Gold.Chemscore.DG>
-15.4900

> <Gold.Chemscore.ZeroCoef>
-5.4800

> <Gold.Chemscore.Hbond>
1.6996

> <Gold.Chemscore.Metal>
0.0000

> <Gold.Chemscore.Lipo>
91.4785

> <Gold.Chemscore.Internal_Hbond>
0.0000

> <Gold.Chemscore.DEClash>
0.6337

> <Gold.Chemscore.DEInternal>
1.3439

> <Gold.Chemscore.Rot>
2.4882

> <Gold.Chemscore.Internal.Correction>
   9.000000E+99

> <Gold.Chemscore.Hbonds>
donor molecule, donor type, donor heavy atom, donor atom, acceptor molecule, acceptor atom, score
      L1  H     9    33       P1  8028  0.88
      P1  H  7989  7998       L1    11  0.82

> <Gold.Chemscore.Hbond.Weighted>
-5.6768

> <Gold.Chemscore.Metal.Weighted>
-0.0000

> <Gold.Chemscore.Lipo.Weighted>
-10.7030

> <Gold.Chemscore.Internal_Hbond.Weighted>
0.0000

> <Gold.Chemscore.DEClash.Weighted>
0.6337

> <Gold.Chemscore.DEInternal.Weighted>
1.3439

> <Gold.Chemscore.Rot.Weighted>
6.3697

> <Gold.Chemscore.Internal.Correction.Weighted>
   9.000000E+99

> <Gold.Protein.RotatedTorsions>
[ 6907 6896 6895 6894 ] final -141.00 input  -60.11 | X-H torsion
[ 7974 7965 7964 7962 ] final -167.23 input  175.53 | X-H torsion
[ 8008 7997 7996 7995 ] final  -64.85 input   59.86 | X-H torsion
[ 10167 10162 10161 10158 ] final -160.53 input  -65.29 | X-H torsion
[ 10718 10713 10712 10709 ] final -175.95 input   66.30 | X-H torsion
[ 10763 10752 10751 10750 ] final  -53.17 input  -60.55 | X-H torsion
[ 11005 11000 10999 10996 ] final   20.89 input  -57.11 | X-H torsion

> <Gold.Protein.ActiveResidues>
 VAL166  LYS551  ARG553  GLY616  TRP617  ASP618  TYR619  PRO620  LYS621  CYS622 
 ASP623  PHE694  ASN695  SER759  ASP760  ASP761  ALA762  ILE779  LEU786  VAL792 
 PHE793  MET794  SER795  GLU796  ALA797  LYS798  CYS799  TRP800  GLU811  SER814 

> <Gold.Protein.RotatedAtoms>
  151.0680  133.5489  159.2628 H   0  0  0  0  0  0  0  0  0  0  0  0  # atno 6907 bound_to 6896
  151.2439  135.0598  159.9046 H   0  0  0  0  0  0  0  0  0  0  0  0  # atno 6908 bound_to 6896
  152.5407  134.0451  159.8138 H   0  0  0  0  0  0  0  0  0  0  0  0  # atno 6909 bound_to 6896
  144.7227  140.2549  143.6273 H   0  0  0  0  0  0  0  0  0  0  0  0  # atno 7974 bound_to 7965
  154.4636  140.0945  156.6961 H   0  0  0  0  0  0  0  0  0  0  0  0  # atno 8008 bound_to 7997
  155.4922  140.3471  155.4338 H   0  0  0  0  0  0  0  0  0  0  0  0  # atno 8009 bound_to 7997
  156.0916  140.1399  156.9573 H   0  0  0  0  0  0  0  0  0  0  0  0  # atno 8010 bound_to 7997
  139.6532  144.0045  152.2176 H   0  0  0  0  0  0  0  0  0  0  0  0  # atno 10167 bound_to 10162
  156.8075  130.9574  151.3117 H   0  0  0  0  0  0  0  0  0  0  0  0  # atno 10718 bound_to 10713
  154.1545  135.6485  153.4971 H   0  0  0  0  0  0  0  0  0  0  0  0  # atno 10763 bound_to 10752
  153.0128  135.5346  154.6774 H   0  0  0  0  0  0  0  0  0  0  0  0  # atno 10764 bound_to 10752
  154.6071  135.2950  155.0444 H   0  0  0  0  0  0  0  0  0  0  0  0  # atno 10765 bound_to 10752
  140.3976  134.1752  155.7663 H   0  0  0  0  0  0  0  0  0  0  0  0  # atno 11005 bound_to 11000
  145.8192  139.2036  143.1948 LP  0  0  0  0  0  0  0  0  0  0  0  0  # atno 17320 bound_to 7965
  146.0529  140.8051  142.9773 LP  0  0  0  0  0  0  0  0  0  0  0  0  # atno 17321 bound_to 7965
  139.9765  144.6458  150.7940 LP  0  0  0  0  0  0  0  0  0  0  0  0  # atno 17342 bound_to 10162
  140.7547  143.3033  151.3026 LP  0  0  0  0  0  0  0  0  0  0  0  0  # atno 17343 bound_to 10162
  157.6523  130.8895  149.9657 LP  0  0  0  0  0  0  0  0  0  0  0  0  # atno 17370 bound_to 10713
  156.1064  130.3652  150.0125 LP  0  0  0  0  0  0  0  0  0  0  0  0  # atno 17371 bound_to 10713
  141.1868  133.8294  157.1054 LP  0  0  0  0  0  0  0  0  0  0  0  0  # atno 17394 bound_to 11000
  140.0360  134.9878  157.0872 LP  0  0  0  0  0  0  0  0  0  0  0  0  # atno 17395 bound_to 11000

$$$$
