AV-unprocessed.smi:2568|AV-procd|sdf|10096|dock3
  -GOLD-   2272014113D 1   1.00000     0.00000
 Structure written by MMmdl.
 24 25  0  0  0  0  0  0  0  0  1 V2000
  153.1865  137.8415  156.2221 C   0  0  0  0  0  0  0  0  0  0  0  0
  152.0338  138.1328  155.3227 C   0  0  0  0  0  0  0  0  0  0  0  0
  151.5916  137.2297  154.4492 N   0  0  0  0  0  0  0  0  0  0  0  0
  150.5691  137.8863  153.8619 N   0  0  0  0  0  0  0  0  0  0  0  0
  150.4557  139.1029  154.3995 C   0  0  0  0  0  0  0  0  0  0  0  0
  149.4132  140.0754  153.9453 C   0  0  2  0  0  0  0  0  0  0  0  0
  149.4969  141.4197  154.6945 C   0  0  0  0  0  0  0  0  0  0  0  0
  148.4084  142.3006  154.2745 N   0  0  0  0  0  0  0  0  0  0  0  0
  147.1088  141.6538  154.4499 C   0  0  0  0  0  0  0  0  0  0  0  0
  147.0808  140.2996  153.7178 C   0  0  0  0  0  0  0  0  0  0  0  0
  148.1428  139.4778  154.1907 O   0  0  0  0  0  0  0  0  0  0  0  0
  151.3686  139.3267  155.3409 N   0  0  0  0  0  0  0  0  0  0  0  0
  149.9997  137.4822  153.1321 H   0  0  0  0  0  0  0  0  0  0  0  0
  153.7025  136.9320  155.9122 H   0  0  0  0  0  0  0  0  0  0  0  0
  152.8391  137.7099  157.2469 H   0  0  0  0  0  0  0  0  0  0  0  0
  153.9001  138.6656  156.2010 H   0  0  0  0  0  0  0  0  0  0  0  0
  149.5358  140.2357  152.8722 H   0  0  0  0  0  0  0  0  0  0  0  0
  149.4373  141.2474  155.7700 H   0  0  0  0  0  0  0  0  0  0  0  0
  150.4588  141.8969  154.5053 H   0  0  0  0  0  0  0  0  0  0  0  0
  148.4368  143.1584  154.8165 H   0  0  0  0  0  0  0  0  0  0  0  0
  146.9115  141.4992  155.5112 H   0  0  0  0  0  0  0  0  0  0  0  0
  146.3153  142.3004  154.0746 H   0  0  0  0  0  0  0  0  0  0  0  0
  146.1338  139.7930  153.9040 H   0  0  0  0  0  0  0  0  0  0  0  0
  147.1612  140.4364  152.6381 H   0  0  0  0  0  0  0  0  0  0  0  0
  1  2  1  0  0  0  0
  1 14  1  0  0  0  0
  1 15  1  0  0  0  0
  1 16  1  0  0  0  0
  2 12  1  0  0  0  0
  2  3  2  0  0  0  0
  3  4  1  0  0  0  0
  4 13  1  0  0  0  0
  4  5  1  0  0  0  0
  5  6  1  0  0  0  0
  5 12  2  0  0  0  0
  6 11  1  0  0  0  0
  6  7  1  0  0  0  0
  6 17  1  0  0  0  0
  7  8  1  0  0  0  0
  7 18  1  0  0  0  0
  7 19  1  0  0  0  0
  8  9  1  0  0  0  0
  8 20  1  0  0  0  0
  9 10  1  0  0  0  0
  9 21  1  0  0  0  0
  9 22  1  0  0  0  0
 10 11  1  0  0  0  0
 10 23  1  0  0  0  0
 10 24  1  0  0  0  0
M  END
> <s_m_source_file>
AV-unprocessed.smi

> <i_m_source_file_index>
2568

> <i_lp_mmshare_version>
43012

> <i_f3d_flags>
0

> <s_epik_input>
W0NIM11jMW5bbkhdYyhuMSlbQ0BASF0yW0NIMl1bTkhdW0NIMl1bQ0gyXU8y

> <s_epik_cmdline>
J2VwaWtfcHl0aG9uJywgJy1waCcsICc3LjAnLCAnLXRuJywgJzgnLCAnLW1hJywgJzIwMCcsICctbWV0YWxfYmluZGluZycsICctaW1hZScsICc8aW5maWxlLm1hZT4nLCAnLW9tYWUnLCAnPG91dGZpbGUubWFlPic=

> <r_lp_tautomer_probability>
0.948284

> <r_epik_Ionization_Penalty>
0.982563

> <r_epik_Ionization_Penalty_Charging>
0

> <r_epik_Ionization_Penalty_Neutral>
0.982563

> <r_epik_State_Penalty>
2.21233

> <r_epik_Charging_Adjusted_Penalty>
2.21233

> <i_epik_Tot_Q>
0

> <i_epik_Tot_abs_Q>
0

> <r_epik_Metal_State_Penalty>
2.51138

> <b_epik_Metal_Only>
0

> <s_lp_Force_Field>
OPLS_2005

> <r_lp_Energy>
12.795

> <b_lp_Chiralities_Consistent>
1

> <s_lp_Variant>
AV-unprocessed.smi:2568-9

> <Gold.Version>
5.8.1

> <Gold.Id.Protein>
6NUR|6NUR_protein|mol2

> <Gold.PLP.Fitness>
29.8507

> <Gold.PLP.PLP>
-21.1165

> <Gold.PLP.part.hbond>
-4.8056

> <Gold.PLP.part.metal>
0.0000

> <Gold.PLP.part.buried>
0.1898

> <Gold.PLP.part.nonpolar>
-16.8887

> <Gold.PLP.part.repulsive>
0.4141

> <Gold.PLP.ligand.clash>
0.0000

> <Gold.PLP.ligand.torsion>
0.0012

> <Gold.PLP.Chemscore.Hbond>
2.9120

> <Gold.PLP.Chemscore.CHOScore>
0.0000

> <Gold.PLP.Chemscore.Metal>
0.0000

> <Gold.Chemscore.Hbonds>
donor molecule, donor type, donor heavy atom, donor atom, acceptor molecule, acceptor atom, score
      L1  H     4    13       P1  7948  1.00
      L1  H     8    20       P1  8028  1.00
      P1  H 10752 10765       L1     3  0.91

> <Gold.PLP.Chemscore.Internal.Correction>
0.0009

> <Gold.Rescore>
     Score         DG    S(hbond)    S(metal)    S(lipo)     H(rot)  DE(clash)    DE(int)     intcor
     12.85     -14.19       2.16        0.00      34.62       1.00       1.34       0.01       ----

> <Gold.Chemscore.Fitness>
12.8471

> <Gold.Chemscore.DG>
-14.1926

> <Gold.Chemscore.ZeroCoef>
-5.4800

> <Gold.Chemscore.Hbond>
2.1622

> <Gold.Chemscore.Metal>
0.0000

> <Gold.Chemscore.Lipo>
34.6220

> <Gold.Chemscore.Internal_Hbond>
0.0000

> <Gold.Chemscore.DEClash>
1.3393

> <Gold.Chemscore.DEInternal>
0.0062

> <Gold.Chemscore.Rot>
1.0000

> <Gold.Chemscore.Internal.Correction>
   9.000000E+99

> <Gold.Chemscore.Hbonds>
donor molecule, donor type, donor heavy atom, donor atom, acceptor molecule, acceptor atom, score
      L1  H     4    13       P1  7948  0.24
      L1  H     8    20       P1  8028  1.00
      P1  H 10752 10765       L1     3  0.64

> <Gold.Chemscore.Hbond.Weighted>
-7.2218

> <Gold.Chemscore.Metal.Weighted>
-0.0000

> <Gold.Chemscore.Lipo.Weighted>
-4.0508

> <Gold.Chemscore.Internal_Hbond.Weighted>
0.0000

> <Gold.Chemscore.DEClash.Weighted>
1.3393

> <Gold.Chemscore.DEInternal.Weighted>
0.0062

> <Gold.Chemscore.Rot.Weighted>
2.5600

> <Gold.Chemscore.Internal.Correction.Weighted>
   9.000000E+99

> <Gold.Protein.RotatedTorsions>
[ 6907 6896 6895 6894 ] final  101.98 input  -60.11 | X-H torsion
[ 7974 7965 7964 7962 ] final -179.11 input  175.53 | X-H torsion
[ 8008 7997 7996 7995 ] final -110.94 input   59.86 | X-H torsion
[ 10167 10162 10161 10158 ] final   19.07 input  -65.29 | X-H torsion
[ 10718 10713 10712 10709 ] final  -97.90 input   66.30 | X-H torsion
[ 10763 10752 10751 10750 ] final  163.42 input  -60.55 | X-H torsion
[ 11005 11000 10999 10996 ] final  -55.14 input  -57.11 | X-H torsion

> <Gold.Protein.ActiveResidues>
 VAL166  LYS551  ARG553  GLY616  TRP617  ASP618  TYR619  PRO620  LYS621  CYS622 
 ASP623  PHE694  ASN695  SER759  ASP760  ASP761  ALA762  ILE779  LEU786  VAL792 
 PHE793  MET794  SER795  GLU796  ALA797  LYS798  CYS799  TRP800  GLU811  SER814 

> <Gold.Protein.RotatedAtoms>
  152.5336  134.0044  159.7909 H   0  0  0  0  0  0  0  0  0  0  0  0  # atno 6907 bound_to 6896
  151.0257  133.5828  159.2673 H   0  0  0  0  0  0  0  0  0  0  0  0  # atno 6908 bound_to 6896
  151.2851  135.0732  159.9237 H   0  0  0  0  0  0  0  0  0  0  0  0  # atno 6909 bound_to 6896
  144.7134  140.0768  143.6427 H   0  0  0  0  0  0  0  0  0  0  0  0  # atno 7974 bound_to 7965
  154.9823  140.0396  157.2283 H   0  0  0  0  0  0  0  0  0  0  0  0  # atno 8008 bound_to 7997
  154.7703  140.2800  155.6120 H   0  0  0  0  0  0  0  0  0  0  0  0  # atno 8009 bound_to 7997
  156.2920  140.2611  156.2504 H   0  0  0  0  0  0  0  0  0  0  0  0  # atno 8010 bound_to 7997
  140.5607  143.9343  150.6640 H   0  0  0  0  0  0  0  0  0  0  0  0  # atno 10167 bound_to 10162
  156.0094  130.5215  150.6444 H   0  0  0  0  0  0  0  0  0  0  0  0  # atno 10718 bound_to 10713
  154.2934  135.2760  155.2644 H   0  0  0  0  0  0  0  0  0  0  0  0  # atno 10763 bound_to 10752
  154.5113  135.5781  153.6611 H   0  0  0  0  0  0  0  0  0  0  0  0  # atno 10764 bound_to 10752
  152.9911  135.6182  154.3100 H   0  0  0  0  0  0  0  0  0  0  0  0  # atno 10765 bound_to 10752
  141.1059  133.6613  156.4425 H   0  0  0  0  0  0  0  0  0  0  0  0  # atno 11005 bound_to 11000
  145.9737  139.2888  143.1084 LP  0  0  0  0  0  0  0  0  0  0  0  0  # atno 17320 bound_to 7965
  145.9088  140.9194  143.0464 LP  0  0  0  0  0  0  0  0  0  0  0  0  # atno 17321 bound_to 7965
  140.2793  143.3401  152.1166 LP  0  0  0  0  0  0  0  0  0  0  0  0  # atno 17342 bound_to 10162
  139.5069  144.6821  151.5981 LP  0  0  0  0  0  0  0  0  0  0  0  0  # atno 17343 bound_to 10162
  157.4217  131.0837  151.1124 LP  0  0  0  0  0  0  0  0  0  0  0  0  # atno 17370 bound_to 10713
  157.1724  130.6273  149.5645 LP  0  0  0  0  0  0  0  0  0  0  0  0  # atno 17371 bound_to 10713
  140.4902  134.6583  157.5207 LP  0  0  0  0  0  0  0  0  0  0  0  0  # atno 17394 bound_to 11000
  139.9930  134.6956  155.9657 LP  0  0  0  0  0  0  0  0  0  0  0  0  # atno 17395 bound_to 11000

$$$$
