AV-unprocessed.smi:1239|AV-procd|sdf|5192|dock3
  -GOLD-   22720 4273D 1   1.00000     0.00000
 Structure written by MMmdl.
 48 49  0  0  0  0  0  0  0  0  2 V2000
  151.4307  134.1945  155.7140 C   0  0  0  0  0  0  0  0  0  0  0  0
  150.6862  135.2316  154.8364 C   0  0  1  0  0  0  0  0  0  0  0  0
  151.7045  136.1762  154.1437 C   0  0  0  0  0  0  0  0  0  0  0  0
  151.4027  137.5855  154.3696 N   0  0  0  0  0  0  0  0  0  0  0  0
  151.7555  138.2669  155.4674 C   0  0  0  0  0  0  0  0  0  0  0  0
  152.3733  137.7594  156.4024 O   0  0  0  0  0  0  0  0  0  0  0  0
  151.3487  139.5463  155.3929 N   0  0  0  0  0  0  0  0  0  0  0  0
  151.5235  140.6095  156.3221 C   0  0  0  0  0  0  0  0  0  0  0  0
  150.9501  141.8975  156.2050 C   0  0  0  0  0  0  0  0  0  0  0  0
  151.2109  142.8561  157.2030 C   0  0  0  0  0  0  0  0  0  0  0  0
  152.0396  142.5127  158.2996 C   0  0  0  0  0  0  0  0  0  0  0  0
  152.3286  143.4409  159.3259 N   0  0  0  0  0  0  0  0  0  0  0  0
  151.9486  144.8411  159.1671 C   0  0  0  0  0  0  0  0  0  0  0  0
  152.9765  142.9980  160.5545 C   0  0  0  0  0  0  0  0  0  0  0  0
  152.5875  141.2776  158.4048 N   0  0  0  0  0  0  0  0  0  0  0  0
  152.3355  140.3625  157.4464 C   0  0  0  0  0  0  0  0  0  0  0  0
  149.7670  134.5684  153.8505 N   0  3  0  0  0  0  0  0  0  0  0  0
  150.3987  133.4354  153.1158 C   0  0  0  0  0  0  0  0  0  0  0  0
  149.4229  132.7875  152.1194 C   0  0  0  0  0  0  0  0  0  0  0  0
  148.2589  132.3528  152.8028 O   0  0  0  0  0  0  0  0  0  0  0  0
  147.5731  133.4466  153.3894 C   0  0  0  0  0  0  0  0  0  0  0  0
  148.4717  134.1225  154.4387 C   0  0  0  0  0  0  0  0  0  0  0  0
  152.1558  134.6601  156.3808 H   0  0  0  0  0  0  0  0  0  0  0  0
  151.9697  133.4718  155.1006 H   0  0  0  0  0  0  0  0  0  0  0  0
  150.7554  133.6472  156.3702 H   0  0  0  0  0  0  0  0  0  0  0  0
  150.0686  135.8410  155.4985 H   0  0  0  0  0  0  0  0  0  0  0  0
  152.7153  135.9599  154.4941 H   0  0  0  0  0  0  0  0  0  0  0  0
  151.6985  136.0412  153.0630 H   0  0  0  0  0  0  0  0  0  0  0  0
  150.8956  138.0721  153.6447 H   0  0  0  0  0  0  0  0  0  0  0  0
  150.8582  139.7999  154.5478 H   0  0  0  0  0  0  0  0  0  0  0  0
  150.3189  142.1813  155.3790 H   0  0  0  0  0  0  0  0  0  0  0  0
  150.7678  143.8354  157.1058 H   0  0  0  0  0  0  0  0  0  0  0  0
  152.4195  145.2686  158.2813 H   0  0  0  0  0  0  0  0  0  0  0  0
  152.2556  145.4371  160.0269 H   0  0  0  0  0  0  0  0  0  0  0  0
  150.8669  144.9350  159.0644 H   0  0  0  0  0  0  0  0  0  0  0  0
  152.3742  142.2380  161.0531 H   0  0  0  0  0  0  0  0  0  0  0  0
  153.1124  143.8242  161.2527 H   0  0  0  0  0  0  0  0  0  0  0  0
  153.9603  142.5795  160.3399 H   0  0  0  0  0  0  0  0  0  0  0  0
  152.8004  139.3972  157.5857 H   0  0  0  0  0  0  0  0  0  0  0  0
  151.2607  133.7721  152.5428 H   0  0  0  0  0  0  0  0  0  0  0  0
  150.7529  132.6895  153.8290 H   0  0  0  0  0  0  0  0  0  0  0  0
  149.1571  133.4850  151.3233 H   0  0  0  0  0  0  0  0  0  0  0  0
  149.8920  131.9266  151.6429 H   0  0  0  0  0  0  0  0  0  0  0  0
  147.2670  134.1582  152.6208 H   0  0  0  0  0  0  0  0  0  0  0  0
  146.6613  133.0780  153.8597 H   0  0  0  0  0  0  0  0  0  0  0  0
  148.6618  133.4356  155.2649 H   0  0  0  0  0  0  0  0  0  0  0  0
  147.9096  134.9645  154.8379 H   0  0  0  0  0  0  0  0  0  0  0  0
  149.5386  135.2658  153.1562 H   0  0  0  0  0  0  0  0  0  0  0  0
  1  2  1  0  0  0  0
  1 23  1  0  0  0  0
  1 24  1  0  0  0  0
  1 25  1  0  0  0  0
  2  3  1  0  0  0  0
  2 17  1  0  0  0  0
  2 26  1  0  0  0  0
  3  4  1  0  0  0  0
  3 27  1  0  0  0  0
  3 28  1  0  0  0  0
  4  5  1  0  0  0  0
  4 29  1  0  0  0  0
  5  6  2  0  0  0  0
  5  7  1  0  0  0  0
  7  8  1  0  0  0  0
  7 30  1  0  0  0  0
  8 16  1  0  0  0  0
  8  9  2  0  0  0  0
  9 10  1  0  0  0  0
  9 31  1  0  0  0  0
 10 11  2  0  0  0  0
 10 32  1  0  0  0  0
 11 12  1  0  0  0  0
 11 15  1  0  0  0  0
 12 13  1  0  0  0  0
 12 14  1  0  0  0  0
 13 33  1  0  0  0  0
 13 34  1  0  0  0  0
 13 35  1  0  0  0  0
 14 36  1  0  0  0  0
 14 37  1  0  0  0  0
 14 38  1  0  0  0  0
 15 16  2  0  0  0  0
 16 39  1  0  0  0  0
 17 22  1  0  0  0  0
 17 18  1  0  0  0  0
 17 48  1  0  0  0  0
 18 19  1  0  0  0  0
 18 40  1  0  0  0  0
 18 41  1  0  0  0  0
 19 20  1  0  0  0  0
 19 42  1  0  0  0  0
 19 43  1  0  0  0  0
 20 21  1  0  0  0  0
 21 22  1  0  0  0  0
 21 44  1  0  0  0  0
 21 45  1  0  0  0  0
 22 46  1  0  0  0  0
 22 47  1  0  0  0  0
M  CHG  1  17   1
M  END
> <s_m_source_file>
AV-unprocessed.smi

> <i_m_source_file_index>
1239

> <i_lp_mmshare_version>
43012

> <i_f3d_flags>
0

> <s_epik_input>
W0NIMl0xW0NIMl1PW0NIMl1bQ0gyXU4xW0NASF0oW0NIM10pW0NIMl1bTkhdQyg9TylbTkhdYzJbY0hdW2NIXWMoTihbQ0gzXSlbQ0gzXSluW2NIXTI=

> <s_epik_cmdline>
J2VwaWtfcHl0aG9uJywgJy1waCcsICc3LjAnLCAnLXRuJywgJzgnLCAnLW1hJywgJzIwMCcsICctbWV0YWxfYmluZGluZycsICctaW1hZScsICc8aW5maWxlLm1hZT4nLCAnLW9tYWUnLCAnPG91dGZpbGUubWFlPic=

> <r_epik_Ionization_Penalty>
1.1428

> <r_epik_Ionization_Penalty_Charging>
0.602531

> <r_epik_Ionization_Penalty_Neutral>
0.540271

> <r_epik_State_Penalty>
1.1888

> <r_epik_Charging_Adjusted_Penalty>
1.79133

> <i_epik_Tot_Q>
1

> <i_epik_Tot_abs_Q>
1

> <r_epik_Metal_State_Penalty>
0.936295

> <b_epik_Metal_Only>
0

> <s_lp_Force_Field>
OPLS_2005

> <r_lp_Energy>
25.9365

> <b_lp_Chiralities_Consistent>
1

> <s_lp_Variant>
AV-unprocessed.smi:1239-8

> <Gold.Version>
5.8.1

> <Gold.Id.Protein>
6NUR|6NUR_protein|mol2

> <Gold.PLP.Fitness>
41.9185

> <Gold.PLP.PLP>
-38.3281

> <Gold.PLP.part.hbond>
-1.0000

> <Gold.PLP.part.metal>
0.0000

> <Gold.PLP.part.buried>
-4.5793

> <Gold.PLP.part.nonpolar>
-32.8816

> <Gold.PLP.part.repulsive>
0.2616

> <Gold.PLP.ligand.clash>
0.0000

> <Gold.PLP.ligand.torsion>
1.2439

> <Gold.PLP.Chemscore.Hbond>
2.0000

> <Gold.PLP.Chemscore.CHOScore>
0.0000

> <Gold.PLP.Chemscore.Metal>
0.0000

> <Gold.Chemscore.Hbonds>
donor molecule, donor type, donor heavy atom, donor atom, acceptor molecule, acceptor atom, score
      L1  H    17    48       P1  7948  0.80

> <Gold.PLP.Chemscore.Internal.Correction>
0.0781

> <Gold.Rescore>
     Score         DG    S(hbond)    S(metal)    S(lipo)     H(rot)  DE(clash)    DE(int)     intcor
     12.34     -14.98       0.98        0.00      85.62       1.48       0.03       2.60       ----

> <Gold.Chemscore.Fitness>
12.3445

> <Gold.Chemscore.DG>
-14.9812

> <Gold.Chemscore.ZeroCoef>
-5.4800

> <Gold.Chemscore.Hbond>
0.9820

> <Gold.Chemscore.Metal>
0.0000

> <Gold.Chemscore.Lipo>
85.6225

> <Gold.Chemscore.Internal_Hbond>
0.0000

> <Gold.Chemscore.DEClash>
0.0323

> <Gold.Chemscore.DEInternal>
2.6044

> <Gold.Chemscore.Rot>
1.4830

> <Gold.Chemscore.Internal.Correction>
   9.000000E+99

> <Gold.Chemscore.Hbonds>
donor molecule, donor type, donor heavy atom, donor atom, acceptor molecule, acceptor atom, score
      L1  H    17    48       P1  7948  0.01

> <Gold.Chemscore.Hbond.Weighted>
-3.2798

> <Gold.Chemscore.Metal.Weighted>
-0.0000

> <Gold.Chemscore.Lipo.Weighted>
-10.0178

> <Gold.Chemscore.Internal_Hbond.Weighted>
0.0000

> <Gold.Chemscore.DEClash.Weighted>
0.0323

> <Gold.Chemscore.DEInternal.Weighted>
2.6044

> <Gold.Chemscore.Rot.Weighted>
3.7964

> <Gold.Chemscore.Internal.Correction.Weighted>
   9.000000E+99

> <Gold.Protein.RotatedTorsions>
[ 6907 6896 6895 6894 ] final   -0.01 input  -60.11 | X-H torsion
[ 7974 7965 7964 7962 ] final    0.56 input  175.53 | X-H torsion
[ 8008 7997 7996 7995 ] final  -44.76 input   59.86 | X-H torsion
[ 10167 10162 10161 10158 ] final   98.08 input  -65.29 | X-H torsion
[ 10718 10713 10712 10709 ] final   -2.80 input   66.30 | X-H torsion
[ 10763 10752 10751 10750 ] final  101.15 input  -60.55 | X-H torsion
[ 11005 11000 10999 10996 ] final   21.96 input  -57.11 | X-H torsion

> <Gold.Protein.ActiveResidues>
 VAL166  LYS551  ARG553  GLY616  TRP617  ASP618  TYR619  PRO620  LYS621  CYS622 
 ASP623  PHE694  ASN695  SER759  ASP760  ASP761  ALA762  ILE779  LEU786  VAL792 
 PHE793  MET794  SER795  GLU796  ALA797  LYS798  CYS799  TRP800  GLU811  SER814 

> <Gold.Protein.RotatedAtoms>
  151.5691  135.1063  159.9990 H   0  0  0  0  0  0  0  0  0  0  0  0  # atno 6907 bound_to 6896
  152.4409  133.7443  159.6669 H   0  0  0  0  0  0  0  0  0  0  0  0  # atno 6908 bound_to 6896
  150.8315  133.8014  159.3120 H   0  0  0  0  0  0  0  0  0  0  0  0  # atno 6909 bound_to 6896
  146.2435  140.1119  142.8343 H   0  0  0  0  0  0  0  0  0  0  0  0  # atno 7974 bound_to 7965
  154.3998  140.1414  156.3736 H   0  0  0  0  0  0  0  0  0  0  0  0  # atno 8008 bound_to 7997
  155.8069  140.3474  155.5414 H   0  0  0  0  0  0  0  0  0  0  0  0  # atno 8009 bound_to 7997
  155.8426  140.0929  157.1715 H   0  0  0  0  0  0  0  0  0  0  0  0  # atno 8010 bound_to 7997
  139.7742  144.6912  151.0113 H   0  0  0  0  0  0  0  0  0  0  0  0  # atno 10167 bound_to 10162
  156.7855  130.5344  149.5744 H   0  0  0  0  0  0  0  0  0  0  0  0  # atno 10718 bound_to 10713
  153.3230  135.4054  155.1433 H   0  0  0  0  0  0  0  0  0  0  0  0  # atno 10763 bound_to 10752
  154.8605  135.3592  154.5571 H   0  0  0  0  0  0  0  0  0  0  0  0  # atno 10764 bound_to 10752
  153.6005  135.7071  153.5445 H   0  0  0  0  0  0  0  0  0  0  0  0  # atno 10765 bound_to 10752
  140.3858  134.1872  155.7663 H   0  0  0  0  0  0  0  0  0  0  0  0  # atno 11005 bound_to 11000
  145.0479  140.8996  143.5013 LP  0  0  0  0  0  0  0  0  0  0  0  0  # atno 17320 bound_to 7965
  145.1212  139.2692  143.5587 LP  0  0  0  0  0  0  0  0  0  0  0  0  # atno 17321 bound_to 7965
  140.7815  143.4555  151.0352 LP  0  0  0  0  0  0  0  0  0  0  0  0  # atno 17342 bound_to 10162
  139.8238  143.7784  152.3178 LP  0  0  0  0  0  0  0  0  0  0  0  0  # atno 17343 bound_to 10162
  156.1192  130.6097  151.0167 LP  0  0  0  0  0  0  0  0  0  0  0  0  # atno 17370 bound_to 10713
  157.6626  131.0878  150.7803 LP  0  0  0  0  0  0  0  0  0  0  0  0  # atno 17371 bound_to 10713
  141.1908  133.8209  157.0905 LP  0  0  0  0  0  0  0  0  0  0  0  0  # atno 17394 bound_to 11000
  140.0444  134.9838  157.1021 LP  0  0  0  0  0  0  0  0  0  0  0  0  # atno 17395 bound_to 11000

$$$$
