AV-unprocessed.smi:1243|AV-procd|sdf|5218|dock5
  -GOLD-   22720 4313D 1   1.00000     0.00000
 Structure written by MMmdl.
 51 52  0  0  0  0  0  0  0  0  2 V2000
  151.9738  145.5643  159.7645 C   0  0  0  0  0  0  0  0  0  0  0  0
  151.4992  144.4439  159.0257 O   0  0  0  0  0  0  0  0  0  0  0  0
  152.0410  143.2008  159.2932 C   0  0  0  0  0  0  0  0  0  0  0  0
  152.8900  143.0788  160.3445 N   0  0  0  0  0  0  0  0  0  0  0  0
  153.4214  141.8666  160.6043 C   0  0  0  0  0  0  0  0  0  0  0  0
  153.1445  140.7222  159.8339 C   0  0  0  0  0  0  0  0  0  0  0  0
  152.2636  140.8459  158.7436 C   0  0  0  0  0  0  0  0  0  0  0  0
  151.6856  142.1085  158.4683 C   0  0  0  0  0  0  0  0  0  0  0  0
  150.8035  142.3416  157.3789 N   0  0  0  0  0  0  0  0  0  0  0  0
  150.5274  141.5258  156.3482 C   0  0  0  0  0  0  0  0  0  0  0  0
  150.9970  140.3991  156.1906 O   0  0  0  0  0  0  0  0  0  0  0  0
  149.6405  142.0870  155.5147 N   0  0  0  0  0  0  0  0  0  0  0  0
  149.0701  141.4602  154.3221 C   0  0  0  0  0  0  0  0  0  0  0  0
  147.5252  141.2878  154.4150 C   0  0  0  0  0  0  0  0  0  0  0  0
  146.8636  142.6783  154.2613 C   0  0  0  0  0  0  0  0  0  0  0  0
  147.0833  140.3941  153.2279 C   0  0  0  0  0  0  0  0  0  0  0  0
  147.1476  140.6341  155.6980 N   0  0  0  0  0  0  0  0  0  0  0  0
  147.8111  139.3441  155.9522 C   0  0  0  0  0  0  0  0  0  0  0  0
  147.5570  138.8820  157.4011 C   0  0  0  0  0  0  0  0  0  0  0  0
  146.1100  138.7440  157.6824 N   0  3  0  0  0  0  0  0  0  0  0  0
  145.4984  137.5240  157.1067 C   0  0  0  0  0  0  0  0  0  0  0  0
  145.3999  139.9948  157.3315 C   0  0  0  0  0  0  0  0  0  0  0  0
  145.7010  140.4286  155.8828 C   0  0  0  0  0  0  0  0  0  0  0  0
  151.4428  146.4598  159.4423 H   0  0  0  0  0  0  0  0  0  0  0  0
  153.0381  145.7320  159.5942 H   0  0  0  0  0  0  0  0  0  0  0  0
  151.7967  145.4423  160.8341 H   0  0  0  0  0  0  0  0  0  0  0  0
  154.0932  141.8086  161.4481 H   0  0  0  0  0  0  0  0  0  0  0  0
  153.6014  139.7729  160.0707 H   0  0  0  0  0  0  0  0  0  0  0  0
  152.0599  139.9805  158.1320 H   0  0  0  0  0  0  0  0  0  0  0  0
  150.2631  143.1925  157.4341 H   0  0  0  0  0  0  0  0  0  0  0  0
  149.3067  143.0129  155.7373 H   0  0  0  0  0  0  0  0  0  0  0  0
  149.3576  142.0522  153.4543 H   0  0  0  0  0  0  0  0  0  0  0  0
  149.5327  140.4882  154.1416 H   0  0  0  0  0  0  0  0  0  0  0  0
  147.1411  143.1314  153.3088 H   0  0  0  0  0  0  0  0  0  0  0  0
  147.1752  143.3738  155.0403 H   0  0  0  0  0  0  0  0  0  0  0  0
  145.7753  142.6253  154.2749 H   0  0  0  0  0  0  0  0  0  0  0  0
  147.5373  140.7293  152.2947 H   0  0  0  0  0  0  0  0  0  0  0  0
  146.0064  140.4194  153.0618 H   0  0  0  0  0  0  0  0  0  0  0  0
  147.3753  139.3530  153.3717 H   0  0  0  0  0  0  0  0  0  0  0  0
  147.4697  138.5870  155.2463 H   0  0  0  0  0  0  0  0  0  0  0  0
  148.8890  139.4244  155.8302 H   0  0  0  0  0  0  0  0  0  0  0  0
  148.0662  137.9375  157.5963 H   0  0  0  0  0  0  0  0  0  0  0  0
  147.9805  139.6087  158.0962 H   0  0  0  0  0  0  0  0  0  0  0  0
  145.5346  137.5230  156.0174 H   0  0  0  0  0  0  0  0  0  0  0  0
  144.4545  137.4416  157.4110 H   0  0  0  0  0  0  0  0  0  0  0  0
  146.0170  136.6334  157.4635 H   0  0  0  0  0  0  0  0  0  0  0  0
  144.3266  139.8677  157.4777 H   0  0  0  0  0  0  0  0  0  0  0  0
  145.7129  140.7804  158.0209 H   0  0  0  0  0  0  0  0  0  0  0  0
  145.1458  141.3468  155.7056 H   0  0  0  0  0  0  0  0  0  0  0  0
  145.3210  139.6902  155.1765 H   0  0  0  0  0  0  0  0  0  0  0  0
  146.0237  138.6382  158.6832 H   0  0  0  0  0  0  0  0  0  0  0  0
  1  2  1  0  0  0  0
  1 24  1  0  0  0  0
  1 25  1  0  0  0  0
  1 26  1  0  0  0  0
  2  3  1  0  0  0  0
  3  8  1  0  0  0  0
  3  4  2  0  0  0  0
  4  5  1  0  0  0  0
  5  6  2  0  0  0  0
  5 27  1  0  0  0  0
  6  7  1  0  0  0  0
  6 28  1  0  0  0  0
  7  8  2  0  0  0  0
  7 29  1  0  0  0  0
  8  9  1  0  0  0  0
  9 10  1  0  0  0  0
  9 30  1  0  0  0  0
 10 11  2  0  0  0  0
 10 12  1  0  0  0  0
 12 13  1  0  0  0  0
 12 31  1  0  0  0  0
 13 14  1  0  0  0  0
 13 32  1  0  0  0  0
 13 33  1  0  0  0  0
 14 15  1  0  0  0  0
 14 16  1  0  0  0  0
 14 17  1  0  0  0  0
 15 34  1  0  0  0  0
 15 35  1  0  0  0  0
 15 36  1  0  0  0  0
 16 37  1  0  0  0  0
 16 38  1  0  0  0  0
 16 39  1  0  0  0  0
 17 23  1  0  0  0  0
 17 18  1  0  0  0  0
 18 19  1  0  0  0  0
 18 40  1  0  0  0  0
 18 41  1  0  0  0  0
 19 20  1  0  0  0  0
 19 42  1  0  0  0  0
 19 43  1  0  0  0  0
 20 21  1  0  0  0  0
 20 22  1  0  0  0  0
 20 51  1  0  0  0  0
 21 44  1  0  0  0  0
 21 45  1  0  0  0  0
 21 46  1  0  0  0  0
 22 23  1  0  0  0  0
 22 47  1  0  0  0  0
 22 48  1  0  0  0  0
 23 49  1  0  0  0  0
 23 50  1  0  0  0  0
M  CHG  1  20   1
M  END
> <s_m_source_file>
AV-unprocessed.smi

> <i_m_source_file_index>
1243

> <i_lp_mmshare_version>
43012

> <i_f3d_flags>
0

> <s_epik_input>
W0NIM11PYzFuW2NIXVtjSF1bY0hdYzFbTkhdQyg9TylbTkhdW0NIMl1DKFtDSDNdKShbQ0gzXSlOMltDSDJdW0NIMl1OKFtDSDNdKVtDSDJdW0NIMl0y

> <s_epik_cmdline>
J2VwaWtfcHl0aG9uJywgJy1waCcsICc3LjAnLCAnLXRuJywgJzgnLCAnLW1hJywgJzIwMCcsICctbWV0YWxfYmluZGluZycsICctaW1hZScsICc8aW5maWxlLm1hZT4nLCAnLW9tYWUnLCAnPG91dGZpbGUubWFlPic=

> <r_lp_tautomer_probability>
1

> <r_epik_Ionization_Penalty>
0.0248754

> <r_epik_Ionization_Penalty_Charging>
0.0238192

> <r_epik_Ionization_Penalty_Neutral>
0.00105626

> <r_epik_State_Penalty>
0.139266

> <r_epik_Charging_Adjusted_Penalty>
0.163085

> <i_epik_Tot_Q>
1

> <i_epik_Tot_abs_Q>
1

> <r_epik_Metal_State_Penalty>
0.139265

> <b_epik_Metal_Only>
0

> <s_lp_Force_Field>
OPLS_2005

> <r_lp_Energy>
29.8064

> <b_lp_Chiralities_Consistent>
1

> <s_lp_Variant>
AV-unprocessed.smi:1243-1

> <Gold.Version>
5.8.1

> <Gold.Id.Protein>
6NUR|6NUR_protein|mol2

> <Gold.PLP.Fitness>
40.4762

> <Gold.PLP.PLP>
-37.8050

> <Gold.PLP.part.hbond>
-1.0000

> <Gold.PLP.part.metal>
0.0000

> <Gold.PLP.part.buried>
-5.4086

> <Gold.PLP.part.nonpolar>
-31.5335

> <Gold.PLP.part.repulsive>
0.3851

> <Gold.PLP.ligand.clash>
0.0000

> <Gold.PLP.ligand.torsion>
0.1864

> <Gold.PLP.Chemscore.Hbond>
1.0000

> <Gold.PLP.Chemscore.CHOScore>
0.0000

> <Gold.PLP.Chemscore.Metal>
0.0000

> <Gold.Chemscore.Hbonds>
donor molecule, donor type, donor heavy atom, donor atom, acceptor molecule, acceptor atom, score
      L1  H    12    31       P1  8028  1.00

> <Gold.PLP.Chemscore.Internal.Correction>
0.0441

> <Gold.Rescore>
     Score         DG    S(hbond)    S(metal)    S(lipo)     H(rot)  DE(clash)    DE(int)     intcor
     12.98     -14.79       1.32        0.00      79.63       1.72       0.33       1.48       ----

> <Gold.Chemscore.Fitness>
12.9772

> <Gold.Chemscore.DG>
-14.7853

> <Gold.Chemscore.ZeroCoef>
-5.4800

> <Gold.Chemscore.Hbond>
1.3158

> <Gold.Chemscore.Metal>
0.0000

> <Gold.Chemscore.Lipo>
79.6331

> <Gold.Chemscore.Internal_Hbond>
0.0000

> <Gold.Chemscore.DEClash>
0.3263

> <Gold.Chemscore.DEInternal>
1.4818

> <Gold.Chemscore.Rot>
1.7213

> <Gold.Chemscore.Internal.Correction>
   9.000000E+99

> <Gold.Chemscore.Hbonds>
donor molecule, donor type, donor heavy atom, donor atom, acceptor molecule, acceptor atom, score
      L1  H    12    31       P1  8028  1.00

> <Gold.Chemscore.Hbond.Weighted>
-4.3947

> <Gold.Chemscore.Metal.Weighted>
-0.0000

> <Gold.Chemscore.Lipo.Weighted>
-9.3171

> <Gold.Chemscore.Internal_Hbond.Weighted>
0.0000

> <Gold.Chemscore.DEClash.Weighted>
0.3263

> <Gold.Chemscore.DEInternal.Weighted>
1.4818

> <Gold.Chemscore.Rot.Weighted>
4.4066

> <Gold.Chemscore.Internal.Correction.Weighted>
   9.000000E+99

> <Gold.Protein.RotatedTorsions>
[ 6907 6896 6895 6894 ] final  -36.53 input  -60.11 | X-H torsion
[ 7974 7965 7964 7962 ] final  162.62 input  175.53 | X-H torsion
[ 8008 7997 7996 7995 ] final  152.57 input   59.86 | X-H torsion
[ 10167 10162 10161 10158 ] final   -7.96 input  -65.29 | X-H torsion
[ 10718 10713 10712 10709 ] final   64.81 input   66.30 | X-H torsion
[ 10763 10752 10751 10750 ] final  -12.50 input  -60.55 | X-H torsion
[ 11005 11000 10999 10996 ] final -145.97 input  -57.11 | X-H torsion

> <Gold.Protein.ActiveResidues>
 VAL166  LYS551  ARG553  GLY616  TRP617  ASP618  TYR619  PRO620  LYS621  CYS622 
 ASP623  PHE694  ASN695  SER759  ASP760  ASP761  ALA762  ILE779  LEU786  VAL792 
 PHE793  MET794  SER795  GLU796  ALA797  LYS798  CYS799  TRP800  GLU811  SER814 

> <Gold.Protein.RotatedAtoms>
  151.0261  134.9505  159.8085 H   0  0  0  0  0  0  0  0  0  0  0  0  # atno 6907 bound_to 6896
  152.5335  134.2841  159.9028 H   0  0  0  0  0  0  0  0  0  0  0  0  # atno 6908 bound_to 6896
  151.2849  133.4150  159.2663 H   0  0  0  0  0  0  0  0  0  0  0  0  # atno 6909 bound_to 6896
  144.7628  139.8065  143.6326 H   0  0  0  0  0  0  0  0  0  0  0  0  # atno 7974 bound_to 7965
  156.2623  140.2017  156.6354 H   0  0  0  0  0  0  0  0  0  0  0  0  # atno 8008 bound_to 7997
  154.6650  140.0556  157.0128 H   0  0  0  0  0  0  0  0  0  0  0  0  # atno 8009 bound_to 7997
  155.1220  140.3225  155.4498 H   0  0  0  0  0  0  0  0  0  0  0  0  # atno 8010 bound_to 7997
  140.7045  143.6022  150.8786 H   0  0  0  0  0  0  0  0  0  0  0  0  # atno 10167 bound_to 10162
  157.6064  130.9180  149.9895 H   0  0  0  0  0  0  0  0  0  0  0  0  # atno 10718 bound_to 10713
  153.4994  135.7017  153.5840 H   0  0  0  0  0  0  0  0  0  0  0  0  # atno 10763 bound_to 10752
  153.3978  135.3880  155.1967 H   0  0  0  0  0  0  0  0  0  0  0  0  # atno 10764 bound_to 10752
  154.8711  135.3874  154.4463 H   0  0  0  0  0  0  0  0  0  0  0  0  # atno 10765 bound_to 10752
  140.7868  134.3015  157.5027 H   0  0  0  0  0  0  0  0  0  0  0  0  # atno 11005 bound_to 11000
  146.1707  139.4857  142.9929 LP  0  0  0  0  0  0  0  0  0  0  0  0  # atno 17320 bound_to 7965
  145.6565  141.0251  143.1732 LP  0  0  0  0  0  0  0  0  0  0  0  0  # atno 17321 bound_to 7965
  139.9747  143.6018  152.2962 LP  0  0  0  0  0  0  0  0  0  0  0  0  # atno 17342 bound_to 10162
  139.6617  144.7662  151.1950 LP  0  0  0  0  0  0  0  0  0  0  0  0  # atno 17343 bound_to 10162
  156.1152  130.3648  149.9980 LP  0  0  0  0  0  0  0  0  0  0  0  0  # atno 17370 bound_to 10713
  156.8071  130.9311  151.3645 LP  0  0  0  0  0  0  0  0  0  0  0  0  # atno 17371 bound_to 10713
  139.8736  134.9351  156.3625 LP  0  0  0  0  0  0  0  0  0  0  0  0  # atno 17394 bound_to 11000
  140.9428  133.7503  156.0169 LP  0  0  0  0  0  0  0  0  0  0  0  0  # atno 17395 bound_to 11000

$$$$
