AV-unprocessed.smi:53|AV-procd|sdf|524|dock6
  -GOLD-   2262016393D 1   1.00000     0.00000
 Structure written by MMmdl.
 30 31  0  0  0  0  0  0  0  0  1 V2000
  153.2153  140.5633  158.7679 N   0  0  0  0  0  0  0  0  0  0  0  0
  152.2523  140.4718  157.8402 C   0  0  0  0  0  0  0  0  0  0  0  0
  150.9307  140.9939  158.1051 C   0  0  0  0  0  0  0  0  0  0  0  0
  150.0149  140.8616  157.1209 C   0  0  0  0  0  0  0  0  0  0  0  0
  150.3119  140.2526  155.9099 N   0  0  0  0  0  0  0  0  0  0  0  0
  149.2590  140.1263  154.8278 C   0  0  1  0  0  0  0  0  0  0  0  0
  148.1213  139.5369  155.3829 O   0  0  0  0  0  0  0  0  0  0  0  0
  146.9602  140.1981  154.8957 C   0  0  1  0  0  0  0  0  0  0  0  0
  145.7541  139.9421  155.8167 C   0  0  0  0  0  0  0  0  0  0  0  0
  144.6331  140.6764  155.3723 O   0  0  0  0  0  0  0  0  0  0  0  0
  147.4088  141.6561  154.7183 C   0  0  1  0  0  0  0  0  0  0  0  0
  147.3280  142.3692  155.9415 O   0  0  0  0  0  0  0  0  0  0  0  0
  148.8440  141.4885  154.2274 C   0  0  1  0  0  0  0  0  0  0  0  0
  149.6779  142.5882  154.5509 O   0  0  0  0  0  0  0  0  0  0  0  0
  151.6190  139.7604  155.6752 C   0  0  0  0  0  0  0  0  0  0  0  0
  151.9373  139.2360  154.6086 O   0  0  0  0  0  0  0  0  0  0  0  0
  152.5331  139.9003  156.6850 N   0  0  0  0  0  0  0  0  0  0  0  0
  149.6510  139.4390  154.0765 H   0  0  0  0  0  0  0  0  0  0  0  0
  146.7502  139.7780  153.9101 H   0  0  0  0  0  0  0  0  0  0  0  0
  146.7946  142.1787  153.9842 H   0  0  0  0  0  0  0  0  0  0  0  0
  148.8363  141.3716  153.1429 H   0  0  0  0  0  0  0  0  0  0  0  0
  154.1382  140.1991  158.5800 H   0  0  0  0  0  0  0  0  0  0  0  0
  153.0136  140.9974  159.6571 H   0  0  0  0  0  0  0  0  0  0  0  0
  150.6546  141.4721  159.0340 H   0  0  0  0  0  0  0  0  0  0  0  0
  149.0226  141.2484  157.3000 H   0  0  0  0  0  0  0  0  0  0  0  0
  145.4970  138.8828  155.8027 H   0  0  0  0  0  0  0  0  0  0  0  0
  145.9767  140.1991  156.8525 H   0  0  0  0  0  0  0  0  0  0  0  0
  144.3195  140.2898  154.5689 H   0  0  0  0  0  0  0  0  0  0  0  0
  147.7969  143.1839  155.8422 H   0  0  0  0  0  0  0  0  0  0  0  0
  149.1310  143.2841  154.8829 H   0  0  0  0  0  0  0  0  0  0  0  0
  1  2  1  0  0  0  0
  1 22  1  0  0  0  0
  1 23  1  0  0  0  0
  2 17  2  0  0  0  0
  2  3  1  0  0  0  0
  3  4  2  0  0  0  0
  3 24  1  0  0  0  0
  4  5  1  0  0  0  0
  4 25  1  0  0  0  0
  5  6  1  0  0  0  0
  5 15  1  0  0  0  0
  6 18  1  0  0  0  0
  6 13  1  0  0  0  0
  6  7  1  0  0  0  0
  7  8  1  0  0  0  0
  8 19  1  0  0  0  0
  8  9  1  0  0  0  0
  8 11  1  0  0  0  0
  9 10  1  0  0  0  0
  9 26  1  0  0  0  0
  9 27  1  0  0  0  0
 10 28  1  0  0  0  0
 11 20  1  0  0  0  0
 11 12  1  0  0  0  0
 11 13  1  0  0  0  0
 12 29  1  0  0  0  0
 13 21  1  0  0  0  0
 13 14  1  0  0  0  0
 14 30  1  0  0  0  0
 15 16  2  0  0  0  0
 15 17  1  0  0  0  0
M  END
> <s_m_source_file>
AV-unprocessed.smi

> <i_m_source_file_index>
53

> <i_lp_mmshare_version>
43012

> <i_f3d_flags>
0

> <s_epik_input>
W05IMl1jMVtjSF1bY0hdbihjKD1PKW4xKVtDQEBIXTJPW0NASF0oW0NIMl1bT0hdKVtDQEBIXShbT0hdKVtDQEBIXTJbT0hd

> <s_epik_cmdline>
J2VwaWtfcHl0aG9uJywgJy1waCcsICc3LjAnLCAnLXRuJywgJzgnLCAnLW1hJywgJzIwMCcsICctbWV0YWxfYmluZGluZycsICctaW1hZScsICc8aW5maWxlLm1hZT4nLCAnLW9tYWUnLCAnPG91dGZpbGUubWFlPic=

> <r_lp_tautomer_probability>
0.99996

> <r_epik_Ionization_Penalty>
0.00069087

> <r_epik_Ionization_Penalty_Charging>
2.61959e-08

> <r_epik_Ionization_Penalty_Neutral>
0.000690844

> <r_epik_State_Penalty>
1.15523e-05

> <r_epik_Charging_Adjusted_Penalty>
1.15785e-05

> <i_epik_Tot_Q>
0

> <i_epik_Tot_abs_Q>
0

> <r_epik_Metal_State_Penalty>
-0

> <b_epik_Metal_Only>
0

> <s_epik_Chemistry_Notes>
This compound contains an acetal/aminal-like group ( X-CH(R)-Y where X, Y are N, S, or O) that may be acid/base labile, releasing an aldehyde.

> <s_lp_Force_Field>
OPLS_2005

> <r_lp_Energy>
39.3068

> <b_lp_Chiralities_Consistent>
1

> <s_lp_Variant>
AV-unprocessed.smi:53-12

> <Gold.Version>
5.8.1

> <Gold.Id.Protein>
6NUR|6NUR_protein|mol2

> <Gold.PLP.Fitness>
36.4155

> <Gold.PLP.PLP>
-21.8870

> <Gold.PLP.part.hbond>
-6.2778

> <Gold.PLP.part.metal>
0.0000

> <Gold.PLP.part.buried>
1.4196

> <Gold.PLP.part.nonpolar>
-16.5047

> <Gold.PLP.part.repulsive>
0.1888

> <Gold.PLP.ligand.clash>
0.0000

> <Gold.PLP.ligand.torsion>
0.1318

> <Gold.PLP.Chemscore.Hbond>
4.9280

> <Gold.PLP.Chemscore.CHOScore>
0.0000

> <Gold.PLP.Chemscore.Metal>
0.0000

> <Gold.Chemscore.Hbonds>
donor molecule, donor type, donor heavy atom, donor atom, acceptor molecule, acceptor atom, score
      L1  H    10    28       P1 10175  0.63
      L1  H    12    29       P1  8028  1.00
      L1  H    14    30       P1  8028  1.00
      P1  H  7989  7998       L1    16  0.76
      P1  H  7997  8010       L1    17  1.00

> <Gold.PLP.Chemscore.Internal.Correction>
0.0081

> <Gold.Rescore>
     Score         DG    S(hbond)    S(metal)    S(lipo)     H(rot)  DE(clash)    DE(int)     intcor
     10.33     -12.05       3.93        0.00      25.26       3.71       1.19       0.53       ----

> <Gold.Chemscore.Fitness>
10.3337

> <Gold.Chemscore.DG>
-12.0503

> <Gold.Chemscore.ZeroCoef>
-5.4800

> <Gold.Chemscore.Hbond>
3.9254

> <Gold.Chemscore.Metal>
0.0000

> <Gold.Chemscore.Lipo>
25.2625

> <Gold.Chemscore.Internal_Hbond>
0.0000

> <Gold.Chemscore.DEClash>
1.1896

> <Gold.Chemscore.DEInternal>
0.5270

> <Gold.Chemscore.Rot>
3.7095

> <Gold.Chemscore.Internal.Correction>
   9.000000E+99

> <Gold.Chemscore.Hbonds>
donor molecule, donor type, donor heavy atom, donor atom, acceptor molecule, acceptor atom, score
      L1  H    10    28       P1 10175  0.59
      L1  H    12    29       P1  8028  0.30
      L1  H    14    30       P1  8028  0.97
      P1  H  7989  7998       L1    16  0.10
      P1  H  7997  8010       L1    17  0.55

> <Gold.Chemscore.Hbond.Weighted>
-13.1110

> <Gold.Chemscore.Metal.Weighted>
-0.0000

> <Gold.Chemscore.Lipo.Weighted>
-2.9557

> <Gold.Chemscore.Internal_Hbond.Weighted>
0.0000

> <Gold.Chemscore.DEClash.Weighted>
1.1896

> <Gold.Chemscore.DEInternal.Weighted>
0.5270

> <Gold.Chemscore.Rot.Weighted>
9.4964

> <Gold.Chemscore.Internal.Correction.Weighted>
   9.000000E+99

> <Gold.Protein.RotatedTorsions>
[ 6907 6896 6895 6894 ] final   16.41 input  -60.11 | X-H torsion
[ 7974 7965 7964 7962 ] final  104.10 input  175.53 | X-H torsion
[ 8008 7997 7996 7995 ] final   72.45 input   59.86 | X-H torsion
[ 10167 10162 10161 10158 ] final  164.04 input  -65.29 | X-H torsion
[ 10718 10713 10712 10709 ] final  128.15 input   66.30 | X-H torsion
[ 10763 10752 10751 10750 ] final    4.72 input  -60.55 | X-H torsion
[ 11005 11000 10999 10996 ] final   86.61 input  -57.11 | X-H torsion

> <Gold.Protein.ActiveResidues>
 VAL166  LYS551  ARG553  GLY616  TRP617  ASP618  TYR619  PRO620  LYS621  CYS622 
 ASP623  PHE694  ASN695  SER759  ASP760  ASP761  ALA762  ILE779  LEU786  VAL792 
 PHE793  MET794  SER795  GLU796  ALA797  LYS798  CYS799  TRP800  GLU811  SER814 

> <Gold.Protein.RotatedAtoms>
  151.8335  135.0614  160.0439 H   0  0  0  0  0  0  0  0  0  0  0  0  # atno 6907 bound_to 6896
  152.2863  133.5513  159.5537 H   0  0  0  0  0  0  0  0  0  0  0  0  # atno 6908 bound_to 6896
  150.7210  134.0409  159.3807 H   0  0  0  0  0  0  0  0  0  0  0  0  # atno 6909 bound_to 6896
  145.3372  139.2471  143.3629 H   0  0  0  0  0  0  0  0  0  0  0  0  # atno 7974 bound_to 7965
  155.7689  140.3485  155.5237 H   0  0  0  0  0  0  0  0  0  0  0  0  # atno 8008 bound_to 7997
  155.8841  140.1007  157.1486 H   0  0  0  0  0  0  0  0  0  0  0  0  # atno 8009 bound_to 7997
  154.4027  140.1317  156.4220 H   0  0  0  0  0  0  0  0  0  0  0  0  # atno 8010 bound_to 7997
  139.4883  144.4276  151.9111 H   0  0  0  0  0  0  0  0  0  0  0  0  # atno 10167 bound_to 10162
  157.5270  131.1098  150.9068 H   0  0  0  0  0  0  0  0  0  0  0  0  # atno 10718 bound_to 10713
  153.2679  135.6929  153.7511 H   0  0  0  0  0  0  0  0  0  0  0  0  # atno 10763 bound_to 10752
  153.6546  135.3371  155.3110 H   0  0  0  0  0  0  0  0  0  0  0  0  # atno 10764 bound_to 10752
  154.8453  135.4462  154.1691 H   0  0  0  0  0  0  0  0  0  0  0  0  # atno 10765 bound_to 10752
  139.8940  134.8367  156.2745 H   0  0  0  0  0  0  0  0  0  0  0  0  # atno 11005 bound_to 11000
  146.3022  140.3962  142.8700 LP  0  0  0  0  0  0  0  0  0  0  0  0  # atno 17320 bound_to 7965
  144.8818  140.7411  143.5982 LP  0  0  0  0  0  0  0  0  0  0  0  0  # atno 17321 bound_to 7965
  140.3722  144.2841  150.5918 LP  0  0  0  0  0  0  0  0  0  0  0  0  # atno 17342 bound_to 10162
  140.5309  143.2244  151.8241 LP  0  0  0  0  0  0  0  0  0  0  0  0  # atno 17343 bound_to 10162
  156.9661  130.5473  149.5288 LP  0  0  0  0  0  0  0  0  0  0  0  0  # atno 17370 bound_to 10713
  156.0394  130.5478  150.8734 LP  0  0  0  0  0  0  0  0  0  0  0  0  # atno 17371 bound_to 10713
  141.0079  133.7113  156.1065 LP  0  0  0  0  0  0  0  0  0  0  0  0  # atno 17394 bound_to 11000
  140.7408  134.4152  157.5555 LP  0  0  0  0  0  0  0  0  0  0  0  0  # atno 17395 bound_to 11000

$$$$
