AV-unprocessed.smi:1858|AV-procd|sdf|7542|dock9
  -GOLD-   22720 9253D 1   1.00000     0.00000
 Structure written by MMmdl.
 48 49  0  0  0  0  0  0  0  0  1 V2000
  139.8603  137.7276  154.2149 C   0  0  0  0  0  0  0  0  0  0  0  0
  141.0430  137.1786  153.5705 N   0  0  0  0  0  0  0  0  0  0  0  0
  141.2599  135.8688  153.3561 C   0  0  0  0  0  0  0  0  0  0  0  0
  140.4366  135.0148  153.6872 O   0  0  0  0  0  0  0  0  0  0  0  0
  142.5479  135.5698  152.7237 C   0  0  0  0  0  0  0  0  0  0  0  0
  142.8268  134.2191  152.2768 C   0  0  0  0  0  0  0  0  0  0  0  0
  144.0212  133.9044  151.7373 C   0  0  0  0  0  0  0  0  0  0  0  0
  145.0833  134.9027  151.5772 C   0  0  0  0  0  0  0  0  0  0  0  0
  146.1860  134.6134  151.1128 O   0  0  0  0  0  0  0  0  0  0  0  0
  144.7690  136.1710  151.9794 N   0  0  0  0  0  0  0  0  0  0  0  0
  145.7477  137.2668  151.9113 C   0  0  0  0  0  0  0  0  0  0  0  0
  146.0729  137.7827  153.3160 C   0  0  0  0  0  0  0  0  0  0  0  0
  145.1825  138.2363  154.0339 O   0  0  0  0  0  0  0  0  0  0  0  0
  147.3637  137.7216  153.6769 N   0  0  0  0  0  0  0  0  0  0  0  0
  147.9472  138.2699  154.8981 C   0  0  0  0  0  0  0  0  0  0  0  0
  147.2782  139.6139  155.2827 C   0  0  0  0  0  0  0  0  0  0  0  0
  147.3063  140.7450  154.2354 C   0  0  0  0  0  0  0  0  0  0  0  0
  148.6921  141.2907  153.8459 C   0  0  0  0  0  0  0  0  0  0  0  0
  149.6370  141.5785  155.0305 C   0  0  0  0  0  0  0  0  0  0  0  0
  150.7279  140.5132  155.2660 C   0  0  0  0  0  0  0  0  0  0  0  0
  150.2623  139.1324  155.7744 C   0  0  0  0  0  0  0  0  0  0  0  0
  149.4841  138.3003  154.7353 C   0  0  0  0  0  0  0  0  0  0  0  0
  143.5185  136.4911  152.5447 C   0  0  0  0  0  0  0  0  0  0  0  0
  139.9449  138.8122  154.2819 H   0  0  0  0  0  0  0  0  0  0  0  0
  139.7503  137.3323  155.2254 H   0  0  0  0  0  0  0  0  0  0  0  0
  138.9610  137.4890  153.6459 H   0  0  0  0  0  0  0  0  0  0  0  0
  141.7554  137.8333  153.2818 H   0  0  0  0  0  0  0  0  0  0  0  0
  142.0776  133.4461  152.3725 H   0  0  0  0  0  0  0  0  0  0  0  0
  144.2028  132.8897  151.4146 H   0  0  0  0  0  0  0  0  0  0  0  0
  146.6754  136.9646  151.4231 H   0  0  0  0  0  0  0  0  0  0  0  0
  145.3511  138.0758  151.2949 H   0  0  0  0  0  0  0  0  0  0  0  0
  148.0110  137.3131  153.0189 H   0  0  0  0  0  0  0  0  0  0  0  0
  147.7350  137.5729  155.7109 H   0  0  0  0  0  0  0  0  0  0  0  0
  146.2299  139.4141  155.5069 H   0  0  0  0  0  0  0  0  0  0  0  0
  147.6756  139.9746  156.2296 H   0  0  0  0  0  0  0  0  0  0  0  0
  146.7797  140.4304  153.3351 H   0  0  0  0  0  0  0  0  0  0  0  0
  146.7201  141.5736  154.6344 H   0  0  0  0  0  0  0  0  0  0  0  0
  149.1734  140.6385  153.1191 H   0  0  0  0  0  0  0  0  0  0  0  0
  148.5274  142.2227  153.3038 H   0  0  0  0  0  0  0  0  0  0  0  0
  150.1522  142.5156  154.8162 H   0  0  0  0  0  0  0  0  0  0  0  0
  149.0767  141.7715  155.9456 H   0  0  0  0  0  0  0  0  0  0  0  0
  151.3130  140.3865  154.3541 H   0  0  0  0  0  0  0  0  0  0  0  0
  151.4265  140.9157  156.0004 H   0  0  0  0  0  0  0  0  0  0  0  0
  151.1635  138.5731  156.0283 H   0  0  0  0  0  0  0  0  0  0  0  0
  149.7164  139.2180  156.7135 H   0  0  0  0  0  0  0  0  0  0  0  0
  149.8312  137.2683  154.8027 H   0  0  0  0  0  0  0  0  0  0  0  0
  149.7663  138.6098  153.7296 H   0  0  0  0  0  0  0  0  0  0  0  0
  143.4315  137.5277  152.8379 H   0  0  0  0  0  0  0  0  0  0  0  0
  1  2  1  0  0  0  0
  1 24  1  0  0  0  0
  1 25  1  0  0  0  0
  1 26  1  0  0  0  0
  2  3  1  0  0  0  0
  2 27  1  0  0  0  0
  3  4  2  0  0  0  0
  3  5  1  0  0  0  0
  5 23  2  0  0  0  0
  5  6  1  0  0  0  0
  6  7  2  0  0  0  0
  6 28  1  0  0  0  0
  7  8  1  0  0  0  0
  7 29  1  0  0  0  0
  8  9  2  0  0  0  0
  8 10  1  0  0  0  0
 10 11  1  0  0  0  0
 10 23  1  0  0  0  0
 11 12  1  0  0  0  0
 11 30  1  0  0  0  0
 11 31  1  0  0  0  0
 12 13  2  0  0  0  0
 12 14  1  0  0  0  0
 14 15  1  0  0  0  0
 14 32  1  0  0  0  0
 15 22  1  0  0  0  0
 15 16  1  0  0  0  0
 15 33  1  0  0  0  0
 16 17  1  0  0  0  0
 16 34  1  0  0  0  0
 16 35  1  0  0  0  0
 17 18  1  0  0  0  0
 17 36  1  0  0  0  0
 17 37  1  0  0  0  0
 18 19  1  0  0  0  0
 18 38  1  0  0  0  0
 18 39  1  0  0  0  0
 19 20  1  0  0  0  0
 19 40  1  0  0  0  0
 19 41  1  0  0  0  0
 20 21  1  0  0  0  0
 20 42  1  0  0  0  0
 20 43  1  0  0  0  0
 21 22  1  0  0  0  0
 21 44  1  0  0  0  0
 21 45  1  0  0  0  0
 22 46  1  0  0  0  0
 22 47  1  0  0  0  0
 23 48  1  0  0  0  0
M  END
> <s_m_source_file>
AV-unprocessed.smi

> <i_m_source_file_index>
1858

> <i_lp_mmshare_version>
43012

> <i_f3d_flags>
0

> <s_epik_input>
W0NIM11bTkhdQyg9TyljMVtjSF1bY0hdYyg9TyluKFtjSF0xKVtDSDJdQyg9TylbTkhdW0NIXTJbQ0gyXVtDSDJdW0NIMl1bQ0gyXVtDSDJdW0NIMl1bQ0gyXTI=

> <s_epik_cmdline>
J2VwaWtfcHl0aG9uJywgJy1waCcsICc3LjAnLCAnLXRuJywgJzgnLCAnLW1hJywgJzIwMCcsICctbWV0YWxfYmluZGluZycsICctaW1hZScsICc8aW5maWxlLm1hZT4nLCAnLW9tYWUnLCAnPG91dGZpbGUubWFlPic=

> <r_lp_tautomer_probability>
1

> <r_epik_Ionization_Penalty>
3.70383e-07

> <r_epik_Ionization_Penalty_Charging>
5.00098e-08

> <r_epik_Ionization_Penalty_Neutral>
3.20374e-07

> <r_epik_State_Penalty>
-0

> <r_epik_Charging_Adjusted_Penalty>
5.00098e-08

> <i_epik_Tot_Q>
0

> <i_epik_Tot_abs_Q>
0

> <r_epik_Metal_State_Penalty>
-0

> <b_epik_Metal_Only>
0

> <s_lp_Force_Field>
OPLS_2005

> <r_lp_Energy>
33.6896

> <b_lp_Chiralities_Consistent>
1

> <s_lp_Variant>
AV-unprocessed.smi:1858-1

> <Gold.Version>
5.8.1

> <Gold.Id.Protein>
6NUR|6NUR_protein|mol2

> <Gold.PLP.Fitness>
41.2799

> <Gold.PLP.PLP>
-35.8200

> <Gold.PLP.part.hbond>
-3.0000

> <Gold.PLP.part.metal>
0.0000

> <Gold.PLP.part.buried>
-5.0072

> <Gold.PLP.part.nonpolar>
-28.5842

> <Gold.PLP.part.repulsive>
0.5289

> <Gold.PLP.ligand.clash>
0.0000

> <Gold.PLP.ligand.torsion>
0.3013

> <Gold.PLP.Chemscore.Hbond>
2.0000

> <Gold.PLP.Chemscore.CHOScore>
0.0000

> <Gold.PLP.Chemscore.Metal>
0.0000

> <Gold.Chemscore.Hbonds>
donor molecule, donor type, donor heavy atom, donor atom, acceptor molecule, acceptor atom, score
      L1  H    14    32       P1  7948  1.00
      P1  H 11000 11005       L1     4  0.68

> <Gold.PLP.Chemscore.Internal.Correction>
0.0626

> <Gold.Rescore>
     Score         DG    S(hbond)    S(metal)    S(lipo)     H(rot)  DE(clash)    DE(int)     intcor
     13.87     -17.04       2.03        0.00      73.18       1.48       0.21       2.96       ----

> <Gold.Chemscore.Fitness>
13.8749

> <Gold.Chemscore.DG>
-17.0436

> <Gold.Chemscore.ZeroCoef>
-5.4800

> <Gold.Chemscore.Hbond>
2.0338

> <Gold.Chemscore.Metal>
0.0000

> <Gold.Chemscore.Lipo>
73.1839

> <Gold.Chemscore.Internal_Hbond>
0.0000

> <Gold.Chemscore.DEClash>
0.2082

> <Gold.Chemscore.DEInternal>
2.9605

> <Gold.Chemscore.Rot>
1.4812

> <Gold.Chemscore.Internal.Correction>
   9.000000E+99

> <Gold.Chemscore.Hbonds>
donor molecule, donor type, donor heavy atom, donor atom, acceptor molecule, acceptor atom, score
      L1  H    14    32       P1  7948  1.00
      P1  H 11000 11005       L1     4  0.66

> <Gold.Chemscore.Hbond.Weighted>
-6.7930

> <Gold.Chemscore.Metal.Weighted>
-0.0000

> <Gold.Chemscore.Lipo.Weighted>
-8.5625

> <Gold.Chemscore.Internal_Hbond.Weighted>
0.0000

> <Gold.Chemscore.DEClash.Weighted>
0.2082

> <Gold.Chemscore.DEInternal.Weighted>
2.9605

> <Gold.Chemscore.Rot.Weighted>
3.7920

> <Gold.Chemscore.Internal.Correction.Weighted>
   9.000000E+99

> <Gold.Protein.RotatedTorsions>
[ 6907 6896 6895 6894 ] final  143.67 input  -60.11 | X-H torsion
[ 7974 7965 7964 7962 ] final -131.18 input  175.53 | X-H torsion
[ 8008 7997 7996 7995 ] final   23.51 input   59.86 | X-H torsion
[ 10167 10162 10161 10158 ] final -134.83 input  -65.29 | X-H torsion
[ 10718 10713 10712 10709 ] final   86.12 input   66.30 | X-H torsion
[ 10763 10752 10751 10750 ] final   -0.07 input  -60.55 | X-H torsion
[ 11005 11000 10999 10996 ] final   40.87 input  -57.11 | X-H torsion

> <Gold.Protein.ActiveResidues>
 VAL166  LYS551  ARG553  GLY616  TRP617  ASP618  TYR619  PRO620  LYS621  CYS622 
 ASP623  PHE694  ASN695  SER759  ASP760  ASP761  ALA762  ILE779  LEU786  VAL792 
 PHE793  MET794  SER795  GLU796  ALA797  LYS798  CYS799  TRP800  GLU811  SER814 

> <Gold.Protein.RotatedAtoms>
  152.2034  133.4857  159.5070 H   0  0  0  0  0  0  0  0  0  0  0  0  # atno 6907 bound_to 6896
  150.6974  134.1561  159.4167 H   0  0  0  0  0  0  0  0  0  0  0  0  # atno 6908 bound_to 6896
  151.9479  135.0183  160.0591 H   0  0  0  0  0  0  0  0  0  0  0  0  # atno 6909 bound_to 6896
  144.9404  140.7232  143.4850 H   0  0  0  0  0  0  0  0  0  0  0  0  # atno 7974 bound_to 7965
  154.9821  140.3103  155.4942 H   0  0  0  0  0  0  0  0  0  0  0  0  # atno 8008 bound_to 7997
  156.2952  140.2264  156.4861 H   0  0  0  0  0  0  0  0  0  0  0  0  # atno 8009 bound_to 7997
  154.7780  140.0448  157.1092 H   0  0  0  0  0  0  0  0  0  0  0  0  # atno 8010 bound_to 7997
  139.8840  143.6804  152.2623 H   0  0  0  0  0  0  0  0  0  0  0  0  # atno 10167 bound_to 10162
  157.6924  131.0203  150.2925 H   0  0  0  0  0  0  0  0  0  0  0  0  # atno 10718 bound_to 10713
  153.3272  135.6973  153.6979 H   0  0  0  0  0  0  0  0  0  0  0  0  # atno 10763 bound_to 10752
  153.5796  135.3500  155.2870 H   0  0  0  0  0  0  0  0  0  0  0  0  # atno 10764 bound_to 10752
  154.8610  135.4292  154.2452 H   0  0  0  0  0  0  0  0  0  0  0  0  # atno 10765 bound_to 10752
  140.1889  134.4011  155.8157 H   0  0  0  0  0  0  0  0  0  0  0  0  # atno 11005 bound_to 11000
  145.3000  139.1853  143.4694 LP  0  0  0  0  0  0  0  0  0  0  0  0  # atno 17320 bound_to 7965
  146.3283  140.2990  142.8619 LP  0  0  0  0  0  0  0  0  0  0  0  0  # atno 17321 bound_to 7965
  139.7170  144.7610  151.1018 LP  0  0  0  0  0  0  0  0  0  0  0  0  # atno 17342 bound_to 10162
  140.7739  143.5257  150.9483 LP  0  0  0  0  0  0  0  0  0  0  0  0  # atno 17343 bound_to 10162
  156.3454  130.3822  149.7374 LP  0  0  0  0  0  0  0  0  0  0  0  0  # atno 17370 bound_to 10713
  156.4869  130.8067  151.3078 LP  0  0  0  0  0  0  0  0  0  0  0  0  # atno 17371 bound_to 10713
  141.2225  133.7036  156.8061 LP  0  0  0  0  0  0  0  0  0  0  0  0  # atno 17394 bound_to 11000
  140.2182  134.8777  157.3349 LP  0  0  0  0  0  0  0  0  0  0  0  0  # atno 17395 bound_to 11000

$$$$
