AV-unprocessed.smi:496|AV-procd|sdf|2723|dock4
  -GOLD-   2262023173D 1   1.00000     0.00000
 Structure written by MMmdl.
 42 44  0  0  0  0  0  0  0  0  3 V2000
  150.9624  138.9081  154.3295 C   0  0  0  0  0  0  0  0  0  0  0  0
  150.8669  139.8630  155.3717 O   0  0  0  0  0  0  0  0  0  0  0  0
  149.5810  140.4532  155.4463 C   0  0  0  0  0  0  0  0  0  0  0  0
  149.3562  140.9766  156.8702 C   0  0  0  0  0  0  0  0  0  0  0  0
  150.4051  140.5061  157.7957 N   0  0  0  0  0  0  0  0  0  0  0  0
  150.6932  139.2582  158.2900 C   0  0  0  0  0  0  0  0  0  0  0  0
  149.9986  137.9521  158.0046 C   0  0  1  0  0  0  0  0  0  0  0  0
  150.9581  136.9889  157.2903 C   0  0  0  0  0  0  0  0  0  0  0  0
  149.5107  137.3302  159.2374 N   0  5  0  0  0  0  0  0  0  0  0  0
  148.9812  136.0765  159.3116 C   0  0  0  0  0  0  0  0  0  0  0  0
  149.1040  135.1220  158.5367 O   0  0  0  0  0  0  0  0  0  0  0  0
  148.1449  135.8908  160.5211 C   0  0  0  0  0  0  0  0  0  0  0  0
  147.6223  134.7463  161.0631 C   0  0  0  0  0  0  0  0  0  0  0  0
  146.8928  135.1344  162.2208 C   0  0  0  0  0  0  0  0  0  0  0  0
  147.0217  136.4904  162.3085 C   0  0  0  0  0  0  0  0  0  0  0  0
  147.7790  136.9671  161.2840 O   0  0  0  0  0  0  0  0  0  0  0  0
  151.7731  139.3992  159.1122 N   0  3  0  0  0  0  0  0  0  0  0  0
  152.1677  140.7341  159.1661 C   0  0  0  0  0  0  0  0  0  0  0  0
  153.1961  141.3513  159.8710 C   0  0  0  0  0  0  0  0  0  0  0  0
  153.3244  142.7462  159.7097 C   0  0  0  0  0  0  0  0  0  0  0  0
  152.4498  143.4716  158.8751 C   0  0  0  0  0  0  0  0  0  0  0  0
  151.4112  142.8333  158.1653 C   0  0  0  0  0  0  0  0  0  0  0  0
  151.2921  141.4526  158.3275 C   0  0  0  0  0  0  0  0  0  0  0  0
  151.9692  138.4914  154.3046 H   0  0  0  0  0  0  0  0  0  0  0  0
  150.7615  139.3615  153.3580 H   0  0  0  0  0  0  0  0  0  0  0  0
  150.2622  138.0860  154.4839 H   0  0  0  0  0  0  0  0  0  0  0  0
  149.5044  141.2688  154.7254 H   0  0  0  0  0  0  0  0  0  0  0  0
  148.8148  139.7179  155.1947 H   0  0  0  0  0  0  0  0  0  0  0  0
  149.3510  142.0669  156.8770 H   0  0  0  0  0  0  0  0  0  0  0  0
  148.3805  140.6737  157.2500 H   0  0  0  0  0  0  0  0  0  0  0  0
  149.1797  138.1734  157.3188 H   0  0  0  0  0  0  0  0  0  0  0  0
  151.3237  137.4231  156.3592 H   0  0  0  0  0  0  0  0  0  0  0  0
  150.4621  136.0502  157.0406 H   0  0  0  0  0  0  0  0  0  0  0  0
  151.8250  136.7538  157.9092 H   0  0  0  0  0  0  0  0  0  0  0  0
  147.7496  133.7481  160.6709 H   0  0  0  0  0  0  0  0  0  0  0  0
  146.3440  134.5015  162.9022 H   0  0  0  0  0  0  0  0  0  0  0  0
  146.6584  137.2363  162.9996 H   0  0  0  0  0  0  0  0  0  0  0  0
  153.8637  140.7956  160.5132 H   0  0  0  0  0  0  0  0  0  0  0  0
  154.1075  143.2699  160.2383 H   0  0  0  0  0  0  0  0  0  0  0  0
  152.5770  144.5401  158.7774 H   0  0  0  0  0  0  0  0  0  0  0  0
  150.7456  143.4003  157.5319 H   0  0  0  0  0  0  0  0  0  0  0  0
  152.1860  138.6227  159.6131 H   0  0  0  0  0  0  0  0  0  0  0  0
  1  2  1  0  0  0  0
  1 24  1  0  0  0  0
  1 25  1  0  0  0  0
  1 26  1  0  0  0  0
  2  3  1  0  0  0  0
  3  4  1  0  0  0  0
  3 27  1  0  0  0  0
  3 28  1  0  0  0  0
  4  5  1  0  0  0  0
  4 29  1  0  0  0  0
  4 30  1  0  0  0  0
  5 23  1  0  0  0  0
  5  6  1  0  0  0  0
  6  7  1  0  0  0  0
  6 17  2  0  0  0  0
  7  8  1  0  0  0  0
  7  9  1  0  0  0  0
  7 31  1  0  0  0  0
  8 32  1  0  0  0  0
  8 33  1  0  0  0  0
  8 34  1  0  0  0  0
  9 10  1  0  0  0  0
 10 11  2  0  0  0  0
 10 12  1  0  0  0  0
 12 16  1  0  0  0  0
 12 13  2  0  0  0  0
 13 14  1  0  0  0  0
 13 35  1  0  0  0  0
 14 15  2  0  0  0  0
 14 36  1  0  0  0  0
 15 16  1  0  0  0  0
 15 37  1  0  0  0  0
 17 18  1  0  0  0  0
 17 42  1  0  0  0  0
 18 23  2  0  0  0  0
 18 19  1  0  0  0  0
 19 20  2  0  0  0  0
 19 38  1  0  0  0  0
 20 21  1  0  0  0  0
 20 39  1  0  0  0  0
 21 22  2  0  0  0  0
 21 40  1  0  0  0  0
 22 23  1  0  0  0  0
 22 41  1  0  0  0  0
M  CHG  1   9  -1
M  CHG  1  17   1
M  END
> <s_m_source_file>
AV-unprocessed.smi

> <i_m_source_file_index>
496

> <i_lp_mmshare_version>
43012

> <i_f3d_flags>
0

> <s_epik_input>
W2NIXTFbY0hdW2NIXVtjSF1jKGMxMiluKFtDSDJdW0NIMl1PW0NIM10pYyhuMilbQ0BIXShbQ0gzXSlbTkhdQyg9TyljM1tjSF1bY0hdW2NIXW8z

> <s_epik_cmdline>
J2VwaWtfcHl0aG9uJywgJy1waCcsICc3LjAnLCAnLXRuJywgJzgnLCAnLW1hJywgJzIwMCcsICctbWV0YWxfYmluZGluZycsICctaW1hZScsICc8aW5maWxlLm1hZT4nLCAnLW9tYWUnLCAnPG91dGZpbGUubWFlPic=

> <r_epik_Ionization_Penalty>
6.2189

> <r_epik_Ionization_Penalty_Charging>
6.2189

> <r_epik_Ionization_Penalty_Neutral>
2.56052e-12

> <r_epik_State_Penalty>
7.14475

> <r_epik_Charging_Adjusted_Penalty>
13.3636

> <i_epik_Tot_Q>
0

> <i_epik_Tot_abs_Q>
2

> <r_epik_Metal_State_Penalty>
3.17915

> <b_epik_Metal_Only>
1

> <s_lp_Force_Field>
OPLS_2005

> <r_lp_Energy>
11.4028

> <b_lp_Chiralities_Consistent>
1

> <s_lp_Variant>
AV-unprocessed.smi:496-8

> <Gold.Version>
5.8.1

> <Gold.Id.Protein>
6NUR|6NUR_protein|mol2

> <Gold.PLP.Fitness>
53.4451

> <Gold.PLP.PLP>
-46.7408

> <Gold.PLP.part.hbond>
-4.3007

> <Gold.PLP.part.metal>
0.0000

> <Gold.PLP.part.buried>
-5.5335

> <Gold.PLP.part.nonpolar>
-37.1135

> <Gold.PLP.part.repulsive>
0.1823

> <Gold.PLP.ligand.clash>
0.0000

> <Gold.PLP.ligand.torsion>
0.7882

> <Gold.PLP.Chemscore.Hbond>
2.7040

> <Gold.PLP.Chemscore.CHOScore>
0.0000

> <Gold.PLP.Chemscore.Metal>
0.0000

> <Gold.Chemscore.Hbonds>
donor molecule, donor type, donor heavy atom, donor atom, acceptor molecule, acceptor atom, score
      P1  H  6896  6907       L1    11  0.75
      P1  H  6931  6943       L1    16  1.00
      P1  H  6934  6947       L1    16  0.55

> <Gold.PLP.Chemscore.Internal.Correction>
0.1686

> <Gold.Rescore>
     Score         DG    S(hbond)    S(metal)    S(lipo)     H(rot)  DE(clash)    DE(int)     intcor
     18.18     -21.54       2.11        0.00     117.08       1.83       0.07       3.29       ----

> <Gold.Chemscore.Fitness>
18.1804

> <Gold.Chemscore.DG>
-21.5412

> <Gold.Chemscore.ZeroCoef>
-5.4800

> <Gold.Chemscore.Hbond>
2.1135

> <Gold.Chemscore.Metal>
0.0000

> <Gold.Chemscore.Lipo>
117.0751

> <Gold.Chemscore.Internal_Hbond>
0.0000

> <Gold.Chemscore.DEClash>
0.0742

> <Gold.Chemscore.DEInternal>
3.2867

> <Gold.Chemscore.Rot>
1.8343

> <Gold.Chemscore.Internal.Correction>
   9.000000E+99

> <Gold.Chemscore.Hbonds>
donor molecule, donor type, donor heavy atom, donor atom, acceptor molecule, acceptor atom, score
      P1  H  6896  6907       L1    11  0.09
      P1  H  6931  6943       L1    16  0.76
      P1  H  6934  6947       L1    16  0.36

> <Gold.Chemscore.Hbond.Weighted>
-7.0592

> <Gold.Chemscore.Metal.Weighted>
-0.0000

> <Gold.Chemscore.Lipo.Weighted>
-13.6978

> <Gold.Chemscore.Internal_Hbond.Weighted>
0.0000

> <Gold.Chemscore.DEClash.Weighted>
0.0742

> <Gold.Chemscore.DEInternal.Weighted>
3.2867

> <Gold.Chemscore.Rot.Weighted>
4.6958

> <Gold.Chemscore.Internal.Correction.Weighted>
   9.000000E+99

> <Gold.Protein.RotatedTorsions>
[ 6907 6896 6895 6894 ] final  -85.25 input  -60.11 | X-H torsion
[ 7974 7965 7964 7962 ] final -149.36 input  175.53 | X-H torsion
[ 8008 7997 7996 7995 ] final   -9.62 input   59.86 | X-H torsion
[ 10167 10162 10161 10158 ] final -109.48 input  -65.29 | X-H torsion
[ 10718 10713 10712 10709 ] final    0.42 input   66.30 | X-H torsion
[ 10763 10752 10751 10750 ] final -136.14 input  -60.55 | X-H torsion
[ 11005 11000 10999 10996 ] final -167.21 input  -57.11 | X-H torsion

> <Gold.Protein.ActiveResidues>
 VAL166  LYS551  ARG553  GLY616  TRP617  ASP618  TYR619  PRO620  LYS621  CYS622 
 ASP623  PHE694  ASN695  SER759  ASP760  ASP761  ALA762  ILE779  LEU786  VAL792 
 PHE793  MET794  SER795  GLU796  ALA797  LYS798  CYS799  TRP800  GLU811  SER814 

> <Gold.Protein.RotatedAtoms>
  150.6871  134.3234  159.4795 H   0  0  0  0  0  0  0  0  0  0  0  0  # atno 6907 bound_to 6896
  152.1107  134.9274  160.0576 H   0  0  0  0  0  0  0  0  0  0  0  0  # atno 6908 bound_to 6896
  152.0518  133.3987  159.4417 H   0  0  0  0  0  0  0  0  0  0  0  0  # atno 6909 bound_to 6896
  144.7972  140.5075  143.5732 H   0  0  0  0  0  0  0  0  0  0  0  0  # atno 7974 bound_to 7965
  154.5630  140.2350  155.8306 H   0  0  0  0  0  0  0  0  0  0  0  0  # atno 8008 bound_to 7997
  156.2045  140.3043  155.9556 H   0  0  0  0  0  0  0  0  0  0  0  0  # atno 8009 bound_to 7997
  155.2853  140.0424  157.3009 H   0  0  0  0  0  0  0  0  0  0  0  0  # atno 8010 bound_to 7997
  140.1548  143.4169  152.1468 H   0  0  0  0  0  0  0  0  0  0  0  0  # atno 10167 bound_to 10162
  156.8331  130.5495  149.5685 H   0  0  0  0  0  0  0  0  0  0  0  0  # atno 10718 bound_to 10713
  154.8689  135.3682  154.5012 H   0  0  0  0  0  0  0  0  0  0  0  0  # atno 10763 bound_to 10752
  153.5653  135.7022  153.5534 H   0  0  0  0  0  0  0  0  0  0  0  0  # atno 10764 bound_to 10752
  153.3591  135.4051  155.1668 H   0  0  0  0  0  0  0  0  0  0  0  0  # atno 10765 bound_to 10752
  140.5558  134.5383  157.5132 H   0  0  0  0  0  0  0  0  0  0  0  0  # atno 11005 bound_to 11000
  145.5643  139.1480  143.3324 LP  0  0  0  0  0  0  0  0  0  0  0  0  # atno 17320 bound_to 7965
  146.2244  140.5778  142.9003 LP  0  0  0  0  0  0  0  0  0  0  0  0  # atno 17321 bound_to 7965
  139.5408  144.7255  151.4739 LP  0  0  0  0  0  0  0  0  0  0  0  0  # atno 17342 bound_to 10162
  140.6680  143.8356  150.6964 LP  0  0  0  0  0  0  0  0  0  0  0  0  # atno 17343 bound_to 10162
  156.0923  130.5905  150.9754 LP  0  0  0  0  0  0  0  0  0  0  0  0  # atno 17370 bound_to 10713
  157.6396  131.0912  150.8278 LP  0  0  0  0  0  0  0  0  0  0  0  0  # atno 17371 bound_to 10713
  139.9432  134.7749  156.0626 LP  0  0  0  0  0  0  0  0  0  0  0  0  # atno 17394 bound_to 11000
  141.1144  133.6632  156.3058 LP  0  0  0  0  0  0  0  0  0  0  0  0  # atno 17395 bound_to 11000

$$$$
