AV-unprocessed.smi:981|AV-procd|sdf|4313|dock3
  -GOLD-   22720 2223D 1   1.00000     0.00000
 Structure written by MMmdl.
 36 37  0  0  0  0  0  0  0  0  1 V2000
  156.1721  140.4978  160.0505 C   0  0  0  0  0  0  0  0  0  0  0  0
  154.9015  140.3507  160.9000 C   0  0  0  0  0  0  0  0  0  0  0  0
  154.2394  138.9720  160.7611 C   0  0  0  0  0  0  0  0  0  0  0  0
  153.9331  141.4668  160.6631 C   0  0  0  0  0  0  0  0  0  0  0  0
  153.4079  141.7537  159.4679 N   0  0  0  0  0  0  0  0  0  0  0  0
  152.5306  142.8417  159.5095 C   0  0  0  0  0  0  0  0  0  0  0  0
  151.8542  143.3056  158.2555 C   0  0  0  0  0  0  0  0  0  0  0  0
  151.5253  142.1431  157.3088 C   0  0  0  0  0  0  0  0  0  0  0  0
  150.3430  142.4468  156.5149 N   0  0  0  0  0  0  0  0  0  0  0  0
  149.9013  141.6989  155.4914 C   0  0  0  0  0  0  0  0  0  0  0  0
  150.4680  140.6761  155.1106 O   0  0  0  0  0  0  0  0  0  0  0  0
  148.7908  142.1596  154.8878 N   0  0  0  0  0  0  0  0  0  0  0  0
  148.0849  141.5901  153.7787 C   0  0  0  0  0  0  0  0  0  0  0  0
  146.6179  141.2767  153.9801 C   0  0  0  0  0  0  0  0  0  0  0  0
  147.6171  140.1559  153.9011 C   0  0  0  0  0  0  0  0  0  0  0  0
  152.3970  143.3810  160.7644 C   0  0  0  0  0  0  0  0  0  0  0  0
  153.3691  142.5399  161.9399 S   0  0  0  0  0  0  0  0  0  0  0  0
  156.6592  141.4554  160.2368 H   0  0  0  0  0  0  0  0  0  0  0  0
  155.9463  140.4406  158.9852 H   0  0  0  0  0  0  0  0  0  0  0  0
  156.8913  139.7114  160.2804 H   0  0  0  0  0  0  0  0  0  0  0  0
  155.2174  140.4350  161.9405 H   0  0  0  0  0  0  0  0  0  0  0  0
  153.3904  138.8747  161.4384 H   0  0  0  0  0  0  0  0  0  0  0  0
  154.9428  138.1728  160.9963 H   0  0  0  0  0  0  0  0  0  0  0  0
  153.8766  138.8069  159.7460 H   0  0  0  0  0  0  0  0  0  0  0  0
  150.9378  143.8416  158.5066 H   0  0  0  0  0  0  0  0  0  0  0  0
  152.4889  144.0261  157.7376 H   0  0  0  0  0  0  0  0  0  0  0  0
  152.3700  141.9514  156.6448 H   0  0  0  0  0  0  0  0  0  0  0  0
  151.3489  141.2301  157.8798 H   0  0  0  0  0  0  0  0  0  0  0  0
  149.8231  143.2767  156.7607 H   0  0  0  0  0  0  0  0  0  0  0  0
  148.4253  143.0351  155.2336 H   0  0  0  0  0  0  0  0  0  0  0  0
  148.3497  141.9258  152.7773 H   0  0  0  0  0  0  0  0  0  0  0  0
  146.1787  141.4893  154.9530 H   0  0  0  0  0  0  0  0  0  0  0  0
  145.9541  141.4176  153.1296 H   0  0  0  0  0  0  0  0  0  0  0  0
  147.6207  139.5487  152.9982 H   0  0  0  0  0  0  0  0  0  0  0  0
  147.8479  139.6224  154.8213 H   0  0  0  0  0  0  0  0  0  0  0  0
  151.7889  144.2205  161.0671 H   0  0  0  0  0  0  0  0  0  0  0  0
  1  2  1  0  0  0  0
  1 18  1  0  0  0  0
  1 19  1  0  0  0  0
  1 20  1  0  0  0  0
  2  3  1  0  0  0  0
  2  4  1  0  0  0  0
  2 21  1  0  0  0  0
  3 22  1  0  0  0  0
  3 23  1  0  0  0  0
  3 24  1  0  0  0  0
  4 17  1  0  0  0  0
  4  5  2  0  0  0  0
  5  6  1  0  0  0  0
  6  7  1  0  0  0  0
  6 16  2  0  0  0  0
  7  8  1  0  0  0  0
  7 25  1  0  0  0  0
  7 26  1  0  0  0  0
  8  9  1  0  0  0  0
  8 27  1  0  0  0  0
  8 28  1  0  0  0  0
  9 10  1  0  0  0  0
  9 29  1  0  0  0  0
 10 11  2  0  0  0  0
 10 12  1  0  0  0  0
 12 13  1  0  0  0  0
 12 30  1  0  0  0  0
 13 15  1  0  0  0  0
 13 14  1  0  0  0  0
 13 31  1  0  0  0  0
 14 15  1  0  0  0  0
 14 32  1  0  0  0  0
 14 33  1  0  0  0  0
 15 34  1  0  0  0  0
 15 35  1  0  0  0  0
 16 17  1  0  0  0  0
 16 36  1  0  0  0  0
M  END
> <s_m_source_file>
AV-unprocessed.smi

> <i_m_source_file_index>
981

> <i_lp_mmshare_version>
43012

> <i_f3d_flags>
0

> <s_epik_input>
W0NIM11bQ0hdKFtDSDNdKWMxbmMoW2NIXXMxKVtDSDJdW0NIMl1bTkhdQyg9TylbTkhdW0NIXTJbQ0gyXVtDSDJdMg==

> <s_epik_cmdline>
J2VwaWtfcHl0aG9uJywgJy1waCcsICc3LjAnLCAnLXRuJywgJzgnLCAnLW1hJywgJzIwMCcsICctbWV0YWxfYmluZGluZycsICctaW1hZScsICc8aW5maWxlLm1hZT4nLCAnLW9tYWUnLCAnPG91dGZpbGUubWFlPic=

> <r_epik_Ionization_Penalty>
0.00156572

> <r_epik_Ionization_Penalty_Charging>
0

> <r_epik_Ionization_Penalty_Neutral>
0.00156572

> <r_epik_State_Penalty>
0.0010059

> <r_epik_Charging_Adjusted_Penalty>
0.0010059

> <i_epik_Tot_Q>
0

> <i_epik_Tot_abs_Q>
0

> <r_epik_Metal_State_Penalty>
-0

> <b_epik_Metal_Only>
0

> <s_lp_Force_Field>
OPLS_2005

> <r_lp_Energy>
12.4684

> <b_lp_Chiralities_Consistent>
1

> <s_lp_Variant>
AV-unprocessed.smi:981-1

> <Gold.Version>
5.8.1

> <Gold.Id.Protein>
6NUR|6NUR_protein|mol2

> <Gold.PLP.Fitness>
45.3572

> <Gold.PLP.PLP>
-38.6413

> <Gold.PLP.part.hbond>
-3.0000

> <Gold.PLP.part.metal>
0.0000

> <Gold.PLP.part.buried>
-4.8658

> <Gold.PLP.part.nonpolar>
-30.0521

> <Gold.PLP.part.repulsive>
0.3626

> <Gold.PLP.ligand.clash>
0.0000

> <Gold.PLP.ligand.torsion>
0.6795

> <Gold.PLP.Chemscore.Hbond>
2.6400

> <Gold.PLP.Chemscore.CHOScore>
0.0000

> <Gold.PLP.Chemscore.Metal>
0.0000

> <Gold.Chemscore.Hbonds>
donor molecule, donor type, donor heavy atom, donor atom, acceptor molecule, acceptor atom, score
      L1  H     9    29       P1  8028  0.66
      L1  H    12    30       P1  8028  0.88
      P1  H  7989  7998       L1    11  0.90

> <Gold.PLP.Chemscore.Internal.Correction>
0.1549

> <Gold.Rescore>
     Score         DG    S(hbond)    S(metal)    S(lipo)     H(rot)  DE(clash)    DE(int)     intcor
     20.86     -21.76       2.34        0.00     109.61       1.70       0.22       0.67       ----

> <Gold.Chemscore.Fitness>
20.8573

> <Gold.Chemscore.DG>
-21.7558

> <Gold.Chemscore.ZeroCoef>
-5.4800

> <Gold.Chemscore.Hbond>
2.3397

> <Gold.Chemscore.Metal>
0.0000

> <Gold.Chemscore.Lipo>
109.6138

> <Gold.Chemscore.Internal_Hbond>
0.0000

> <Gold.Chemscore.DEClash>
0.2248

> <Gold.Chemscore.DEInternal>
0.6737

> <Gold.Chemscore.Rot>
1.7045

> <Gold.Chemscore.Internal.Correction>
   9.000000E+99

> <Gold.Chemscore.Hbonds>
donor molecule, donor type, donor heavy atom, donor atom, acceptor molecule, acceptor atom, score
      L1  H     9    29       P1  8028  0.63
      L1  H    12    30       P1  8028  0.86
      P1  H  7989  7998       L1    11  0.77

> <Gold.Chemscore.Hbond.Weighted>
-7.8146

> <Gold.Chemscore.Metal.Weighted>
-0.0000

> <Gold.Chemscore.Lipo.Weighted>
-12.8248

> <Gold.Chemscore.Internal_Hbond.Weighted>
0.0000

> <Gold.Chemscore.DEClash.Weighted>
0.2248

> <Gold.Chemscore.DEInternal.Weighted>
0.6737

> <Gold.Chemscore.Rot.Weighted>
4.3636

> <Gold.Chemscore.Internal.Correction.Weighted>
   9.000000E+99

> <Gold.Protein.RotatedTorsions>
[ 6907 6896 6895 6894 ] final -122.04 input  -60.11 | X-H torsion
[ 7974 7965 7964 7962 ] final   84.49 input  175.53 | X-H torsion
[ 8008 7997 7996 7995 ] final  -83.68 input   59.86 | X-H torsion
[ 10167 10162 10161 10158 ] final  102.62 input  -65.29 | X-H torsion
[ 10718 10713 10712 10709 ] final   82.06 input   66.30 | X-H torsion
[ 10763 10752 10751 10750 ] final -174.53 input  -60.55 | X-H torsion
[ 11005 11000 10999 10996 ] final  -83.96 input  -57.11 | X-H torsion

> <Gold.Protein.ActiveResidues>
 VAL166  LYS551  ARG553  GLY616  TRP617  ASP618  TYR619  PRO620  LYS621  CYS622 
 ASP623  PHE694  ASN695  SER759  ASP760  ASP761  ALA762  ILE779  LEU786  VAL792 
 PHE793  MET794  SER795  GLU796  ALA797  LYS798  CYS799  TRP800  GLU811  SER814 

> <Gold.Protein.RotatedAtoms>
  150.8539  133.7745  159.3015 H   0  0  0  0  0  0  0  0  0  0  0  0  # atno 6907 bound_to 6896
  151.5408  135.1067  159.9935 H   0  0  0  0  0  0  0  0  0  0  0  0  # atno 6908 bound_to 6896
  152.4574  133.7708  159.6854 H   0  0  0  0  0  0  0  0  0  0  0  0  # atno 6909 bound_to 6896
  145.5980  139.2348  143.2261 H   0  0  0  0  0  0  0  0  0  0  0  0  # atno 7974 bound_to 7965
  154.6217  140.0615  156.9623 H   0  0  0  0  0  0  0  0  0  0  0  0  # atno 8008 bound_to 7997
  155.1807  140.3299  155.4357 H   0  0  0  0  0  0  0  0  0  0  0  0  # atno 8009 bound_to 7997
  156.2435  140.1898  156.6904 H   0  0  0  0  0  0  0  0  0  0  0  0  # atno 8010 bound_to 7997
  139.7334  144.7030  151.0687 H   0  0  0  0  0  0  0  0  0  0  0  0  # atno 10167 bound_to 10162
  157.6848  131.0031  150.2318 H   0  0  0  0  0  0  0  0  0  0  0  0  # atno 10718 bound_to 10713
  154.5951  135.2849  155.0595 H   0  0  0  0  0  0  0  0  0  0  0  0  # atno 10763 bound_to 10752
  154.1881  135.6445  153.5056 H   0  0  0  0  0  0  0  0  0  0  0  0  # atno 10764 bound_to 10752
  153.0135  135.5439  154.6650 H   0  0  0  0  0  0  0  0  0  0  0  0  # atno 10765 bound_to 10752
  141.1654  133.7321  156.8797 H   0  0  0  0  0  0  0  0  0  0  0  0  # atno 11005 bound_to 11000
  146.1597  140.6806  142.9283 LP  0  0  0  0  0  0  0  0  0  0  0  0  # atno 17320 bound_to 7965
  144.7322  140.4705  143.6929 LP  0  0  0  0  0  0  0  0  0  0  0  0  # atno 17321 bound_to 7965
  140.7775  143.5015  150.9765 LP  0  0  0  0  0  0  0  0  0  0  0  0  # atno 17342 bound_to 10162
  139.8703  143.7201  152.3167 LP  0  0  0  0  0  0  0  0  0  0  0  0  # atno 17343 bound_to 10162
  156.2949  130.3750  149.7806 LP  0  0  0  0  0  0  0  0  0  0  0  0  # atno 17370 bound_to 10713
  156.5453  130.8318  151.3282 LP  0  0  0  0  0  0  0  0  0  0  0  0  # atno 17371 bound_to 10713
  140.1723  134.9091  157.2848 LP  0  0  0  0  0  0  0  0  0  0  0  0  # atno 17394 bound_to 11000
  140.2488  134.3708  155.7450 LP  0  0  0  0  0  0  0  0  0  0  0  0  # atno 17395 bound_to 11000

$$$$
