AV-unprocessed.smi:255|AV-procd|sdf|1950|dock9
  -GOLD-   2262021 83D 1   1.00000     0.00000
 Structure written by MMmdl.
 44 47  0  0  0  0  0  0  0  0  1 V2000
  150.7759  142.8801  159.7797 O   0  0  0  0  0  0  0  0  0  0  0  0
  151.8945  143.1494  158.9625 C   0  0  0  0  0  0  0  0  0  0  0  0
  152.9344  142.0217  159.0964 C   0  0  1  0  0  0  0  0  0  0  0  0
  153.5546  141.8987  160.4887 C   0  0  0  0  0  0  0  0  0  0  0  0
  154.1334  140.4849  160.4636 C   0  0  2  0  0  0  0  0  0  0  0  0
  155.3592  140.5152  159.9391 F   0  0  0  0  0  0  0  0  0  0  0  0
  153.2023  139.7104  159.5196 C   0  0  0  0  0  0  0  0  0  0  0  0
  152.3614  140.7026  158.8563 N   0  0  0  0  0  0  0  0  0  0  0  0
  152.0434  140.4162  157.5750 C   0  0  0  0  0  0  0  0  0  0  0  0
  152.8176  139.5677  156.8488 N   0  0  0  0  0  0  0  0  0  0  0  0
  152.4915  139.2890  155.5829 C   0  0  0  0  0  0  0  0  0  0  0  0
  151.4599  139.7427  154.8667 N   0  0  0  0  0  0  0  0  0  0  0  0
  150.6891  140.6032  155.5931 C   0  0  0  0  0  0  0  0  0  0  0  0
  150.9062  140.9845  156.9461 C   0  0  0  0  0  0  0  0  0  0  0  0
  149.9132  141.8600  157.3631 N   0  0  0  0  0  0  0  0  0  0  0  0
  149.1463  141.9856  156.3148 C   0  0  0  0  0  0  0  0  0  0  0  0
  149.5492  141.2841  155.1991 N   0  0  0  0  0  0  0  0  0  0  0  0
  148.8787  141.2404  153.9070 C   0  0  0  0  0  0  0  0  0  0  0  0
  147.3687  140.8883  153.9578 C   0  0  1  0  0  0  0  0  0  0  0  0
  146.9991  140.5142  152.6429 O   0  0  0  0  0  0  0  0  0  0  0  0
  146.9957  139.7376  154.8931 C   0  0  0  0  0  0  0  0  0  0  0  0
  145.5748  140.0866  155.3141 C   0  0  0  0  0  0  0  0  0  0  0  0
  145.6432  141.4919  155.4763 O   0  0  0  0  0  0  0  0  0  0  0  0
  146.4272  142.0250  154.4146 C   0  0  0  0  0  0  0  0  0  0  0  0
  153.7359  142.1927  158.3752 H   0  0  0  0  0  0  0  0  0  0  0  0
  154.2117  140.0351  161.4537 H   0  0  0  0  0  0  0  0  0  0  0  0
  150.7010  141.9444  159.8866 H   0  0  0  0  0  0  0  0  0  0  0  0
  151.5709  143.2628  157.9274 H   0  0  0  0  0  0  0  0  0  0  0  0
  152.3182  144.1047  159.2740 H   0  0  0  0  0  0  0  0  0  0  0  0
  154.3027  142.6644  160.6956 H   0  0  0  0  0  0  0  0  0  0  0  0
  152.7800  141.9658  161.2544 H   0  0  0  0  0  0  0  0  0  0  0  0
  153.7675  139.0921  158.8200 H   0  0  0  0  0  0  0  0  0  0  0  0
  152.5542  139.0460  160.0917 H   0  0  0  0  0  0  0  0  0  0  0  0
  153.1516  138.6051  155.0703 H   0  0  0  0  0  0  0  0  0  0  0  0
  148.2589  142.6017  156.3273 H   0  0  0  0  0  0  0  0  0  0  0  0
  149.0160  142.2096  153.4252 H   0  0  0  0  0  0  0  0  0  0  0  0
  149.4062  140.5176  153.2831 H   0  0  0  0  0  0  0  0  0  0  0  0
  147.7817  140.4576  152.1163 H   0  0  0  0  0  0  0  0  0  0  0  0
  147.0765  138.7521  154.4325 H   0  0  0  0  0  0  0  0  0  0  0  0
  147.6171  139.7327  155.7860 H   0  0  0  0  0  0  0  0  0  0  0  0
  144.8571  139.8372  154.5308 H   0  0  0  0  0  0  0  0  0  0  0  0
  145.2720  139.5889  156.2355 H   0  0  0  0  0  0  0  0  0  0  0  0
  146.9529  142.9078  154.7705 H   0  0  0  0  0  0  0  0  0  0  0  0
  145.7652  142.3528  153.6112 H   0  0  0  0  0  0  0  0  0  0  0  0
  1  2  1  0  0  0  0
  1 27  1  0  0  0  0
  2  3  1  0  0  0  0
  2 28  1  0  0  0  0
  2 29  1  0  0  0  0
  3 25  1  0  0  0  0
  3  8  1  0  0  0  0
  3  4  1  0  0  0  0
  4  5  1  0  0  0  0
  4 30  1  0  0  0  0
  4 31  1  0  0  0  0
  5 26  1  0  0  0  0
  5  6  1  0  0  0  0
  5  7  1  0  0  0  0
  7  8  1  0  0  0  0
  7 32  1  0  0  0  0
  7 33  1  0  0  0  0
  8  9  1  0  0  0  0
  9 14  1  0  0  0  0
  9 10  2  0  0  0  0
 10 11  1  0  0  0  0
 11 12  2  0  0  0  0
 11 34  1  0  0  0  0
 12 13  1  0  0  0  0
 13 17  1  0  0  0  0
 13 14  2  0  0  0  0
 14 15  1  0  0  0  0
 15 16  2  0  0  0  0
 16 17  1  0  0  0  0
 16 35  1  0  0  0  0
 17 18  1  0  0  0  0
 18 19  1  0  0  0  0
 18 36  1  0  0  0  0
 18 37  1  0  0  0  0
 19 24  1  0  0  0  0
 19 20  1  0  0  0  0
 19 21  1  0  0  0  0
 20 38  1  0  0  0  0
 21 22  1  0  0  0  0
 21 39  1  0  0  0  0
 21 40  1  0  0  0  0
 22 23  1  0  0  0  0
 22 41  1  0  0  0  0
 22 42  1  0  0  0  0
 23 24  1  0  0  0  0
 24 43  1  0  0  0  0
 24 44  1  0  0  0  0
M  END
> <s_m_source_file>
AV-unprocessed.smi

> <i_m_source_file_index>
255

> <i_lp_mmshare_version>
43012

> <i_f3d_flags>
0

> <s_epik_input>
W09IXVtDSDJdW0NAQEhdMVtDSDJdW0NASF0oRilbQ0gyXU4xYyhuW2NIXW4yKWMoYzIzKW5bY0hdbjNbQ0gyXVtDQEBdNChbT0hdKVtDSDJdW0NIMl1PW0NIMl00

> <s_epik_cmdline>
J2VwaWtfcHl0aG9uJywgJy1waCcsICc3LjAnLCAnLXRuJywgJzgnLCAnLW1hJywgJzIwMCcsICctbWV0YWxfYmluZGluZycsICctaW1hZScsICc8aW5maWxlLm1hZT4nLCAnLW9tYWUnLCAnPG91dGZpbGUubWFlPic=

> <r_lp_tautomer_probability>
1

> <r_epik_Ionization_Penalty>
0.0058098

> <r_epik_Ionization_Penalty_Charging>
0

> <r_epik_Ionization_Penalty_Neutral>
0.0058098

> <r_epik_State_Penalty>
0.00411166

> <r_epik_Charging_Adjusted_Penalty>
0.00411166

> <i_epik_Tot_Q>
0

> <i_epik_Tot_abs_Q>
0

> <r_epik_Metal_State_Penalty>
-0

> <b_epik_Metal_Only>
0

> <s_lp_Force_Field>
OPLS_2005

> <r_lp_Energy>
51.0345

> <b_lp_Chiralities_Consistent>
1

> <s_lp_Variant>
AV-unprocessed.smi:255-2

> <Gold.Version>
5.8.1

> <Gold.Id.Protein>
6NUR|6NUR_protein|mol2

> <Gold.PLP.Fitness>
49.8670

> <Gold.PLP.PLP>
-41.7331

> <Gold.PLP.part.hbond>
-4.0336

> <Gold.PLP.part.metal>
0.0000

> <Gold.PLP.part.buried>
0.7546

> <Gold.PLP.part.nonpolar>
-37.4292

> <Gold.PLP.part.repulsive>
0.2657

> <Gold.PLP.ligand.clash>
0.0000

> <Gold.PLP.ligand.torsion>
0.7584

> <Gold.PLP.Chemscore.Hbond>
2.6425

> <Gold.PLP.Chemscore.CHOScore>
0.5508

> <Gold.PLP.Chemscore.Metal>
0.0000

> <Gold.Chemscore.Hbonds>
donor molecule, donor type, donor heavy atom, donor atom, acceptor molecule, acceptor atom, score
      L1  H    20    38       P1  7957  0.88
      P1  H  7989  7998       L1    12  0.70
      P1  H  7997  8009       L1    10  0.95
      L1  C    16    35       P1  8028  0.56

> <Gold.PLP.Chemscore.Internal.Correction>
0.0709

> <Gold.Rescore>
     Score         DG    S(hbond)    S(metal)    S(lipo)     H(rot)  DE(clash)    DE(int)     intcor
      7.22     -11.20       1.62        0.00      75.44       3.33       1.61       2.38       ----

> <Gold.Chemscore.Fitness>
7.2177

> <Gold.Chemscore.DG>
-11.2034

> <Gold.Chemscore.ZeroCoef>
-5.4800

> <Gold.Chemscore.Hbond>
1.6212

> <Gold.Chemscore.Metal>
0.0000

> <Gold.Chemscore.Lipo>
75.4396

> <Gold.Chemscore.Internal_Hbond>
0.0000

> <Gold.Chemscore.DEClash>
1.6091

> <Gold.Chemscore.DEInternal>
2.3766

> <Gold.Chemscore.Rot>
3.3273

> <Gold.Chemscore.Internal.Correction>
   9.000000E+99

> <Gold.Chemscore.Hbonds>
donor molecule, donor type, donor heavy atom, donor atom, acceptor molecule, acceptor atom, score
      L1  H    20    38       P1  7957  0.86
      P1  H  7989  7998       L1    12  0.07
      P1  H  7997  8009       L1    10  0.19

> <Gold.Chemscore.Hbond.Weighted>
-5.4149

> <Gold.Chemscore.Metal.Weighted>
-0.0000

> <Gold.Chemscore.Lipo.Weighted>
-8.8264

> <Gold.Chemscore.Internal_Hbond.Weighted>
0.0000

> <Gold.Chemscore.DEClash.Weighted>
1.6091

> <Gold.Chemscore.DEInternal.Weighted>
2.3766

> <Gold.Chemscore.Rot.Weighted>
8.5179

> <Gold.Chemscore.Internal.Correction.Weighted>
   9.000000E+99

> <Gold.Protein.RotatedTorsions>
[ 6907 6896 6895 6894 ] final -172.66 input  -60.11 | X-H torsion
[ 7974 7965 7964 7962 ] final    2.10 input  175.53 | X-H torsion
[ 8008 7997 7996 7995 ] final -178.66 input   59.86 | X-H torsion
[ 10167 10162 10161 10158 ] final   68.62 input  -65.29 | X-H torsion
[ 10718 10713 10712 10709 ] final  -21.95 input   66.30 | X-H torsion
[ 10763 10752 10751 10750 ] final   -2.97 input  -60.55 | X-H torsion
[ 11005 11000 10999 10996 ] final  -37.06 input  -57.11 | X-H torsion

> <Gold.Protein.ActiveResidues>
 VAL166  LYS551  ARG553  GLY616  TRP617  ASP618  TYR619  PRO620  LYS621  CYS622 
 ASP623  PHE694  ASN695  SER759  ASP760  ASP761  ALA762  ILE779  LEU786  VAL792 
 PHE793  MET794  SER795  GLU796  ALA797  LYS798  CYS799  TRP800  GLU811  SER814 

> <Gold.Protein.RotatedAtoms>
  151.5435  133.3429  159.2939 H   0  0  0  0  0  0  0  0  0  0  0  0  # atno 6907 bound_to 6896
  150.8521  134.7852  159.7028 H   0  0  0  0  0  0  0  0  0  0  0  0  # atno 6908 bound_to 6896
  152.4564  134.5289  159.9856 H   0  0  0  0  0  0  0  0  0  0  0  0  # atno 6909 bound_to 6896
  146.2443  140.0887  142.8353 H   0  0  0  0  0  0  0  0  0  0  0  0  # atno 7974 bound_to 7965
  156.0214  140.1262  157.0353 H   0  0  0  0  0  0  0  0  0  0  0  0  # atno 8008 bound_to 7997
  154.4313  140.1068  156.6039 H   0  0  0  0  0  0  0  0  0  0  0  0  # atno 8009 bound_to 7997
  155.5939  140.3469  155.4576 H   0  0  0  0  0  0  0  0  0  0  0  0  # atno 8010 bound_to 7997
  140.0767  144.5106  150.7190 H   0  0  0  0  0  0  0  0  0  0  0  0  # atno 10167 bound_to 10162
  156.5112  130.4610  149.6647 H   0  0  0  0  0  0  0  0  0  0  0  0  # atno 10718 bound_to 10713
  153.3651  135.6992  153.6681 H   0  0  0  0  0  0  0  0  0  0  0  0  # atno 10763 bound_to 10752
  153.5354  135.3583  155.2695 H   0  0  0  0  0  0  0  0  0  0  0  0  # atno 10764 bound_to 10752
  154.8673  135.4191  154.2917 H   0  0  0  0  0  0  0  0  0  0  0  0  # atno 10765 bound_to 10752
  140.9923  133.6998  156.1872 H   0  0  0  0  0  0  0  0  0  0  0  0  # atno 11005 bound_to 11000
  145.0669  140.9128  143.4905 LP  0  0  0  0  0  0  0  0  0  0  0  0  # atno 17320 bound_to 7965
  145.1013  139.2820  143.5684 LP  0  0  0  0  0  0  0  0  0  0  0  0  # atno 17321 bound_to 7965
  140.7098  143.2496  151.4615 LP  0  0  0  0  0  0  0  0  0  0  0  0  # atno 17342 bound_to 10162
  139.5803  144.1724  152.1959 LP  0  0  0  0  0  0  0  0  0  0  0  0  # atno 17343 bound_to 10162
  156.3239  130.7295  151.2212 LP  0  0  0  0  0  0  0  0  0  0  0  0  # atno 17370 bound_to 10713
  157.7450  131.0448  150.4812 LP  0  0  0  0  0  0  0  0  0  0  0  0  # atno 17371 bound_to 10713
  140.7021  134.4553  157.5585 LP  0  0  0  0  0  0  0  0  0  0  0  0  # atno 17394 bound_to 11000
  139.8998  134.8583  156.1945 LP  0  0  0  0  0  0  0  0  0  0  0  0  # atno 17395 bound_to 11000

$$$$
