AV-unprocessed.smi:1381|AV-procd|sdf|5619|dock8
  -GOLD-   22720 5233D 1   1.00000     0.00000
 Structure written by MMmdl.
 42 43  0  0  0  0  0  0  0  0  3 V2000
  147.4473  135.0245  162.7822 C   0  0  0  0  0  0  0  0  0  0  0  0
  147.4476  135.7120  161.4601 C   0  0  0  0  0  0  0  0  0  0  0  0
  147.3164  135.2613  160.1768 C   0  0  0  0  0  0  0  0  0  0  0  0
  147.4125  136.4513  159.4070 C   0  0  0  0  0  0  0  0  0  0  0  0
  147.3213  136.4057  157.9907 N   0  0  0  0  0  0  0  0  0  0  0  0
  146.9323  135.3864  157.2028 C   0  0  0  0  0  0  0  0  0  0  0  0
  146.5873  134.3082  157.7004 O   0  0  0  0  0  0  0  0  0  0  0  0
  146.9783  135.7125  155.8820 N   0  5  0  0  0  0  0  0  0  0  0  0
  147.6647  134.9286  154.8541 C   0  0  0  0  0  0  0  0  0  0  0  0
  146.6573  134.4852  153.7776 C   0  0  0  0  0  0  0  0  0  0  0  0
  147.3392  133.8495  152.6155 N   0  3  1  0  0  0  0  0  0  0  0  0
  148.2393  132.7208  152.9660 C   0  0  0  0  0  0  0  0  0  0  0  0
  147.4393  131.4282  153.2377 C   0  0  2  0  0  0  0  0  0  0  0  0
  148.3560  130.2246  153.4831 C   0  0  0  0  0  0  0  0  0  0  0  0
  146.6177  131.1386  152.1110 O   0  0  0  0  0  0  0  0  0  0  0  0
  145.6704  132.1666  151.8391 C   0  0  2  0  0  0  0  0  0  0  0  0
  144.7854  131.7052  150.6758 C   0  0  0  0  0  0  0  0  0  0  0  0
  146.4283  133.4676  151.5092 C   0  0  0  0  0  0  0  0  0  0  0  0
  147.5832  137.5313  160.1550 N   0  0  0  0  0  0  0  0  0  0  0  0
  147.6075  137.0630  161.4741 O   0  0  0  0  0  0  0  0  0  0  0  0
  147.2763  133.9542  162.6655 H   0  0  0  0  0  0  0  0  0  0  0  0
  146.6628  135.4242  163.4249 H   0  0  0  0  0  0  0  0  0  0  0  0
  148.4031  135.1611  163.2880 H   0  0  0  0  0  0  0  0  0  0  0  0
  147.1764  134.2437  159.8440 H   0  0  0  0  0  0  0  0  0  0  0  0
  147.5762  137.2563  157.5116 H   0  0  0  0  0  0  0  0  0  0  0  0
  148.4674  135.4877  154.3716 H   0  0  0  0  0  0  0  0  0  0  0  0
  148.1339  134.0418  155.2805 H   0  0  0  0  0  0  0  0  0  0  0  0
  145.9332  133.7997  154.2183 H   0  0  0  0  0  0  0  0  0  0  0  0
  146.0796  135.3539  153.4570 H   0  0  0  0  0  0  0  0  0  0  0  0
  148.9211  132.5595  152.1298 H   0  0  0  0  0  0  0  0  0  0  0  0
  148.8606  132.9827  153.8236 H   0  0  0  0  0  0  0  0  0  0  0  0
  146.8042  131.5557  154.1157 H   0  0  0  0  0  0  0  0  0  0  0  0
  149.0014  130.3924  154.3457 H   0  0  0  0  0  0  0  0  0  0  0  0
  148.9941  130.0305  152.6202 H   0  0  0  0  0  0  0  0  0  0  0  0
  147.7729  129.3236  153.6755 H   0  0  0  0  0  0  0  0  0  0  0  0
  145.0373  132.3140  152.7157 H   0  0  0  0  0  0  0  0  0  0  0  0
  144.0331  132.4562  150.4334 H   0  0  0  0  0  0  0  0  0  0  0  0
  144.2635  130.7809  150.9254 H   0  0  0  0  0  0  0  0  0  0  0  0
  145.3765  131.5211  149.7781 H   0  0  0  0  0  0  0  0  0  0  0  0
  145.7375  134.2829  151.2894 H   0  0  0  0  0  0  0  0  0  0  0  0
  147.0278  133.3244  150.6093 H   0  0  0  0  0  0  0  0  0  0  0  0
  147.9243  134.5872  152.2471 H   0  0  0  0  0  0  0  0  0  0  0  0
  1  2  1  0  0  0  0
  1 21  1  0  0  0  0
  1 22  1  0  0  0  0
  1 23  1  0  0  0  0
  2 20  1  0  0  0  0
  2  3  2  0  0  0  0
  3  4  1  0  0  0  0
  3 24  1  0  0  0  0
  4  5  1  0  0  0  0
  4 19  2  0  0  0  0
  5  6  1  0  0  0  0
  5 25  1  0  0  0  0
  6  7  2  0  0  0  0
  6  8  1  0  0  0  0
  8  9  1  0  0  0  0
  9 10  1  0  0  0  0
  9 26  1  0  0  0  0
  9 27  1  0  0  0  0
 10 11  1  0  0  0  0
 10 28  1  0  0  0  0
 10 29  1  0  0  0  0
 11 18  1  0  0  0  0
 11 12  1  0  0  0  0
 11 42  1  0  0  0  0
 12 13  1  0  0  0  0
 12 30  1  0  0  0  0
 12 31  1  0  0  0  0
 13 14  1  0  0  0  0
 13 15  1  0  0  0  0
 13 32  1  0  0  0  0
 14 33  1  0  0  0  0
 14 34  1  0  0  0  0
 14 35  1  0  0  0  0
 15 16  1  0  0  0  0
 16 17  1  0  0  0  0
 16 18  1  0  0  0  0
 16 36  1  0  0  0  0
 17 37  1  0  0  0  0
 17 38  1  0  0  0  0
 17 39  1  0  0  0  0
 18 40  1  0  0  0  0
 18 41  1  0  0  0  0
 19 20  1  0  0  0  0
M  CHG  1   8  -1
M  CHG  1  11   1
M  END
> <s_m_source_file>
AV-unprocessed.smi

> <i_m_source_file_index>
1381

> <i_lp_mmshare_version>
43012

> <i_f3d_flags>
0

> <s_epik_input>
W0NIM11jMVtjSF1jKG5vMSlbTkhdQyg9TylbTkhdW0NIMl1bQ0gyXU4yW0NIMl1bQ0BASF0oW0NIM10pT1tDQEBIXShbQ0gzXSlbQ0gyXTI=

> <s_epik_cmdline>
J2VwaWtfcHl0aG9uJywgJy1waCcsICc3LjAnLCAnLXRuJywgJzgnLCAnLW1hJywgJzIwMCcsICctbWV0YWxfYmluZGluZycsICctaW1hZScsICc8aW5maWxlLm1hZT4nLCAnLW9tYWUnLCAnPG91dGZpbGUubWFlPic=

> <r_epik_Ionization_Penalty>
6.8073

> <r_epik_Ionization_Penalty_Charging>
6.80729

> <r_epik_Ionization_Penalty_Neutral>
5.65391e-06

> <r_epik_State_Penalty>
7.47323

> <r_epik_Charging_Adjusted_Penalty>
14.2805

> <i_epik_Tot_Q>
0

> <i_epik_Tot_abs_Q>
2

> <r_epik_Metal_State_Penalty>
3.40035

> <b_epik_Metal_Only>
1

> <s_lp_Force_Field>
OPLS_2005

> <r_lp_Energy>
13.1386

> <b_lp_Chiralities_Consistent>
1

> <s_lp_Variant>
AV-unprocessed.smi:1381-18

> <Gold.Version>
5.8.1

> <Gold.Id.Protein>
6NUR|6NUR_protein|mol2

> <Gold.PLP.Fitness>
36.8038

> <Gold.PLP.PLP>
-29.8721

> <Gold.PLP.part.hbond>
-5.0000

> <Gold.PLP.part.metal>
0.0000

> <Gold.PLP.part.buried>
-4.4126

> <Gold.PLP.part.nonpolar>
-21.6025

> <Gold.PLP.part.repulsive>
0.5175

> <Gold.PLP.ligand.clash>
0.0000

> <Gold.PLP.ligand.torsion>
0.5281

> <Gold.PLP.Chemscore.Hbond>
2.6500

> <Gold.PLP.Chemscore.CHOScore>
0.0000

> <Gold.PLP.Chemscore.Metal>
0.0000

> <Gold.Chemscore.Hbonds>
donor molecule, donor type, donor heavy atom, donor atom, acceptor molecule, acceptor atom, score
      L1  H    11    42       P1  7948  2.00
      P1  H  6931  6943       L1    20  0.55
      P1  H  6934  6947       L1    19  0.13

> <Gold.PLP.Chemscore.Internal.Correction>
0.0379

> <Gold.Rescore>
     Score         DG    S(hbond)    S(metal)    S(lipo)     H(rot)  DE(clash)    DE(int)     intcor
     12.78     -14.80       1.82        0.00      62.42       1.58       0.04       1.98       ----

> <Gold.Chemscore.Fitness>
12.7838

> <Gold.Chemscore.DG>
-14.8033

> <Gold.Chemscore.ZeroCoef>
-5.4800

> <Gold.Chemscore.Hbond>
1.8154

> <Gold.Chemscore.Metal>
0.0000

> <Gold.Chemscore.Lipo>
62.4155

> <Gold.Chemscore.Internal_Hbond>
0.0000

> <Gold.Chemscore.DEClash>
0.0383

> <Gold.Chemscore.DEInternal>
1.9813

> <Gold.Chemscore.Rot>
1.5792

> <Gold.Chemscore.Internal.Correction>
   9.000000E+99

> <Gold.Chemscore.Hbonds>
donor molecule, donor type, donor heavy atom, donor atom, acceptor molecule, acceptor atom, score
      L1  H    11    42       P1  7948  0.39
      P1  H  6931  6943       L1    20  0.03

> <Gold.Chemscore.Hbond.Weighted>
-6.0636

> <Gold.Chemscore.Metal.Weighted>
-0.0000

> <Gold.Chemscore.Lipo.Weighted>
-7.3026

> <Gold.Chemscore.Internal_Hbond.Weighted>
0.0000

> <Gold.Chemscore.DEClash.Weighted>
0.0383

> <Gold.Chemscore.DEInternal.Weighted>
1.9813

> <Gold.Chemscore.Rot.Weighted>
4.0428

> <Gold.Chemscore.Internal.Correction.Weighted>
   9.000000E+99

> <Gold.Protein.RotatedTorsions>
[ 6907 6896 6895 6894 ] final -162.02 input  -60.11 | X-H torsion
[ 7974 7965 7964 7962 ] final -131.55 input  175.53 | X-H torsion
[ 8008 7997 7996 7995 ] final   -9.74 input   59.86 | X-H torsion
[ 10167 10162 10161 10158 ] final  -29.69 input  -65.29 | X-H torsion
[ 10718 10713 10712 10709 ] final  -43.67 input   66.30 | X-H torsion
[ 10763 10752 10751 10750 ] final  -86.99 input  -60.55 | X-H torsion
[ 11005 11000 10999 10996 ] final   91.50 input  -57.11 | X-H torsion

> <Gold.Protein.ActiveResidues>
 VAL166  LYS551  ARG553  GLY616  TRP617  ASP618  TYR619  PRO620  LYS621  CYS622 
 ASP623  PHE694  ASN695  SER759  ASP760  ASP761  ALA762  ILE779  LEU786  VAL792 
 PHE793  MET794  SER795  GLU796  ALA797  LYS798  CYS799  TRP800  GLU811  SER814 

> <Gold.Protein.RotatedAtoms>
  151.3738  133.3845  159.2702 H   0  0  0  0  0  0  0  0  0  0  0  0  # atno 6907 bound_to 6896
  150.9630  134.9016  159.7752 H   0  0  0  0  0  0  0  0  0  0  0  0  # atno 6908 bound_to 6896
  152.5156  134.3698  159.9366 H   0  0  0  0  0  0  0  0  0  0  0  0  # atno 6909 bound_to 6896
  144.9369  140.7194  143.4871 H   0  0  0  0  0  0  0  0  0  0  0  0  # atno 7974 bound_to 7965
  154.5619  140.2347  155.8323 H   0  0  0  0  0  0  0  0  0  0  0  0  # atno 8008 bound_to 7997
  156.2036  140.3046  155.9538 H   0  0  0  0  0  0  0  0  0  0  0  0  # atno 8009 bound_to 7997
  155.2873  140.0425  157.3011 H   0  0  0  0  0  0  0  0  0  0  0  0  # atno 8010 bound_to 7997
  140.7258  143.3908  151.1433 H   0  0  0  0  0  0  0  0  0  0  0  0  # atno 10167 bound_to 10162
  156.2466  130.4184  149.8698 H   0  0  0  0  0  0  0  0  0  0  0  0  # atno 10718 bound_to 10713
  154.6287  135.5429  153.7655 H   0  0  0  0  0  0  0  0  0  0  0  0  # atno 10763 bound_to 10752
  153.0273  135.6430  154.1334 H   0  0  0  0  0  0  0  0  0  0  0  0  # atno 10764 bound_to 10752
  154.1265  135.2917  155.3176 H   0  0  0  0  0  0  0  0  0  0  0  0  # atno 10765 bound_to 10752
  139.8838  134.8678  156.3437 H   0  0  0  0  0  0  0  0  0  0  0  0  # atno 11005 bound_to 11000
  145.3053  139.1837  143.4668 LP  0  0  0  0  0  0  0  0  0  0  0  0  # atno 17320 bound_to 7965
  146.3270  140.3049  142.8623 LP  0  0  0  0  0  0  0  0  0  0  0  0  # atno 17321 bound_to 7965
  139.7513  143.8774  152.3077 LP  0  0  0  0  0  0  0  0  0  0  0  0  # atno 17342 bound_to 10162
  139.8629  144.7108  150.9078 LP  0  0  0  0  0  0  0  0  0  0  0  0  # atno 17343 bound_to 10162
  156.6262  130.8647  151.3486 LP  0  0  0  0  0  0  0  0  0  0  0  0  # atno 17370 bound_to 10713
  157.7197  130.9543  150.1391 LP  0  0  0  0  0  0  0  0  0  0  0  0  # atno 17371 bound_to 10713
  140.9641  133.7369  156.0442 LP  0  0  0  0  0  0  0  0  0  0  0  0  # atno 17394 bound_to 11000
  140.7953  134.3571  157.5454 LP  0  0  0  0  0  0  0  0  0  0  0  0  # atno 17395 bound_to 11000

$$$$
