AV-unprocessed.smi:1911|AV-procd|sdf|7738|dock4
  -GOLD-   22720 9473D 1   1.00000     0.00000
 Structure written by MMmdl.
 51 53  0  0  0  0  0  0  0  0  1 V2000
  147.1775  129.1583  151.1798 N   0  0  0  0  0  0  0  0  0  0  0  0
  146.9637  128.8490  152.4612 C   0  0  0  0  0  0  0  0  0  0  0  0
  145.9751  128.2169  152.8276 O   0  0  0  0  0  0  0  0  0  0  0  0
  148.0143  129.3112  153.4786 C   0  0  0  0  0  0  0  0  0  0  0  0
  148.3286  130.7574  153.4250 N   0  0  0  0  0  0  0  0  0  0  0  0
  149.3494  131.0667  154.4320 C   0  0  0  0  0  0  0  0  0  0  0  0
  149.7989  132.5335  154.3182 C   0  0  0  0  0  0  0  0  0  0  0  0
  148.6072  133.4914  154.4796 C   0  0  0  0  0  0  0  0  0  0  0  0
  149.0114  134.8734  154.2400 N   0  0  0  0  0  0  0  0  0  0  0  0
  149.3516  135.7554  155.1906 C   0  0  0  0  0  0  0  0  0  0  0  0
  149.3579  135.4897  156.3922 O   0  0  0  0  0  0  0  0  0  0  0  0
  149.6613  136.9485  154.6544 N   0  0  0  0  0  0  0  0  0  0  0  0
  150.0685  138.1398  155.3137 C   0  0  0  0  0  0  0  0  0  0  0  0
  150.3347  139.3654  154.6600 C   0  0  0  0  0  0  0  0  0  0  0  0
  150.7171  140.4805  155.4303 C   0  0  0  0  0  0  0  0  0  0  0  0
  150.8145  140.3484  156.8358 C   0  0  0  0  0  0  0  0  0  0  0  0
  151.2023  141.4373  157.6413 N   0  0  0  0  0  0  0  0  0  0  0  0
  151.3037  142.7885  157.1127 C   0  0  0  0  0  0  0  0  0  0  0  0
  151.8580  143.6152  158.2717 C   0  0  0  0  0  0  0  0  0  0  0  0
  152.7517  142.6192  159.0114 C   0  0  0  0  0  0  0  0  0  0  0  0
  152.0556  141.2680  158.8093 C   0  0  0  0  0  0  0  0  0  0  0  0
  150.5506  139.1760  157.4599 N   0  0  0  0  0  0  0  0  0  0  0  0
  150.1836  138.1108  156.7175 C   0  0  0  0  0  0  0  0  0  0  0  0
  147.5078  133.0895  153.4868 C   0  0  0  0  0  0  0  0  0  0  0  0
  147.1419  131.6014  153.6282 C   0  0  0  0  0  0  0  0  0  0  0  0
  146.5098  128.8719  150.4787 H   0  0  0  0  0  0  0  0  0  0  0  0
  148.0032  129.6755  150.9155 H   0  0  0  0  0  0  0  0  0  0  0  0
  147.6947  129.0430  154.4875 H   0  0  0  0  0  0  0  0  0  0  0  0
  148.9205  128.7373  153.2792 H   0  0  0  0  0  0  0  0  0  0  0  0
  148.9684  130.8653  155.4349 H   0  0  0  0  0  0  0  0  0  0  0  0
  150.2180  130.4224  154.2882 H   0  0  0  0  0  0  0  0  0  0  0  0
  150.5560  132.7434  155.0745 H   0  0  0  0  0  0  0  0  0  0  0  0
  150.2769  132.6920  153.3501 H   0  0  0  0  0  0  0  0  0  0  0  0
  148.2073  133.4004  155.4915 H   0  0  0  0  0  0  0  0  0  0  0  0
  149.0328  135.1789  153.2781 H   0  0  0  0  0  0  0  0  0  0  0  0
  149.5364  137.0303  153.6560 H   0  0  0  0  0  0  0  0  0  0  0  0
  150.2441  139.4791  153.5911 H   0  0  0  0  0  0  0  0  0  0  0  0
  150.9321  141.4148  154.9337 H   0  0  0  0  0  0  0  0  0  0  0  0
  151.9939  142.7978  156.2678 H   0  0  0  0  0  0  0  0  0  0  0  0
  150.3370  143.1640  156.7753 H   0  0  0  0  0  0  0  0  0  0  0  0
  152.3918  144.5063  157.9407 H   0  0  0  0  0  0  0  0  0  0  0  0
  151.0421  143.9318  158.9232 H   0  0  0  0  0  0  0  0  0  0  0  0
  153.7356  142.5964  158.5411 H   0  0  0  0  0  0  0  0  0  0  0  0
  152.8898  142.8707  160.0633 H   0  0  0  0  0  0  0  0  0  0  0  0
  151.4314  141.0218  159.6689 H   0  0  0  0  0  0  0  0  0  0  0  0
  152.7866  140.4700  158.6741 H   0  0  0  0  0  0  0  0  0  0  0  0
  149.9799  137.2024  157.2660 H   0  0  0  0  0  0  0  0  0  0  0  0
  146.6200  133.7028  153.6457 H   0  0  0  0  0  0  0  0  0  0  0  0
  147.8376  133.2832  152.4647 H   0  0  0  0  0  0  0  0  0  0  0  0
  146.3707  131.3744  152.8923 H   0  0  0  0  0  0  0  0  0  0  0  0
  146.7071  131.4093  154.6106 H   0  0  0  0  0  0  0  0  0  0  0  0
  1  2  1  0  0  0  0
  1 26  1  0  0  0  0
  1 27  1  0  0  0  0
  2  3  2  0  0  0  0
  2  4  1  0  0  0  0
  4  5  1  0  0  0  0
  4 28  1  0  0  0  0
  4 29  1  0  0  0  0
  5 25  1  0  0  0  0
  5  6  1  0  0  0  0
  6  7  1  0  0  0  0
  6 30  1  0  0  0  0
  6 31  1  0  0  0  0
  7  8  1  0  0  0  0
  7 32  1  0  0  0  0
  7 33  1  0  0  0  0
  8  9  1  0  0  0  0
  8 24  1  0  0  0  0
  8 34  1  0  0  0  0
  9 10  1  0  0  0  0
  9 35  1  0  0  0  0
 10 11  2  0  0  0  0
 10 12  1  0  0  0  0
 12 13  1  0  0  0  0
 12 36  1  0  0  0  0
 13 23  1  0  0  0  0
 13 14  2  0  0  0  0
 14 15  1  0  0  0  0
 14 37  1  0  0  0  0
 15 16  2  0  0  0  0
 15 38  1  0  0  0  0
 16 17  1  0  0  0  0
 16 22  1  0  0  0  0
 17 21  1  0  0  0  0
 17 18  1  0  0  0  0
 18 19  1  0  0  0  0
 18 39  1  0  0  0  0
 18 40  1  0  0  0  0
 19 20  1  0  0  0  0
 19 41  1  0  0  0  0
 19 42  1  0  0  0  0
 20 21  1  0  0  0  0
 20 43  1  0  0  0  0
 20 44  1  0  0  0  0
 21 45  1  0  0  0  0
 21 46  1  0  0  0  0
 22 23  2  0  0  0  0
 23 47  1  0  0  0  0
 24 25  1  0  0  0  0
 24 48  1  0  0  0  0
 24 49  1  0  0  0  0
 25 50  1  0  0  0  0
 25 51  1  0  0  0  0
M  END
> <s_m_source_file>
AV-unprocessed.smi

> <i_m_source_file_index>
1911

> <i_lp_mmshare_version>
43012

> <i_f3d_flags>
0

> <s_epik_input>
W05IMl1DKD1PKVtDSDJdTjFbQ0gyXVtDSDJdW0NIXShbQ0gyXVtDSDJdMSlbTkhdQyg9TylbTkhdYzJbY0hdW2NIXWMobltjSF0yKU4zW0NIMl1bQ0gyXVtDSDJdW0NIMl0z

> <s_epik_cmdline>
J2VwaWtfcHl0aG9uJywgJy1waCcsICc3LjAnLCAnLXRuJywgJzgnLCAnLW1hJywgJzIwMCcsICctbWV0YWxfYmluZGluZycsICctaW1hZScsICc8aW5maWxlLm1hZT4nLCAnLW9tYWUnLCAnPG91dGZpbGUubWFlPic=

> <r_lp_tautomer_probability>
1

> <r_epik_Ionization_Penalty>
0.268698

> <r_epik_Ionization_Penalty_Charging>
0

> <r_epik_Ionization_Penalty_Neutral>
0.268698

> <r_epik_State_Penalty>
0.247497

> <r_epik_Charging_Adjusted_Penalty>
0.247497

> <i_epik_Tot_Q>
0

> <i_epik_Tot_abs_Q>
0

> <r_epik_Metal_State_Penalty>
0.244803

> <b_epik_Metal_Only>
0

> <s_lp_Force_Field>
OPLS_2005

> <r_lp_Energy>
37.3051

> <b_lp_Chiralities_Consistent>
1

> <s_lp_Variant>
AV-unprocessed.smi:1911-1

> <Gold.Version>
5.8.1

> <Gold.Id.Protein>
6NUR|6NUR_protein|mol2

> <Gold.PLP.Fitness>
47.4425

> <Gold.PLP.PLP>
-39.6502

> <Gold.PLP.part.hbond>
-3.0000

> <Gold.PLP.part.metal>
0.0000

> <Gold.PLP.part.buried>
-5.9180

> <Gold.PLP.part.nonpolar>
-31.7735

> <Gold.PLP.part.repulsive>
0.3469

> <Gold.PLP.ligand.clash>
0.0000

> <Gold.PLP.ligand.torsion>
0.6840

> <Gold.PLP.Chemscore.Hbond>
2.9913

> <Gold.PLP.Chemscore.CHOScore>
0.0000

> <Gold.PLP.Chemscore.Metal>
0.0000

> <Gold.Chemscore.Hbonds>
donor molecule, donor type, donor heavy atom, donor atom, acceptor molecule, acceptor atom, score
      L1  H     1    27       P1 10747  1.00
      L1  H     9    35       P1  7948  1.00
      L1  H    12    36       P1  7948  1.00

> <Gold.PLP.Chemscore.Internal.Correction>
0.1866

> <Gold.Rescore>
     Score         DG    S(hbond)    S(metal)    S(lipo)     H(rot)  DE(clash)    DE(int)     intcor
     18.48     -20.56       2.66        0.00      94.19       1.89       0.05       2.04       ----

> <Gold.Chemscore.Fitness>
18.4758

> <Gold.Chemscore.DG>
-20.5625

> <Gold.Chemscore.ZeroCoef>
-5.4800

> <Gold.Chemscore.Hbond>
2.6617

> <Gold.Chemscore.Metal>
0.0000

> <Gold.Chemscore.Lipo>
94.1864

> <Gold.Chemscore.Internal_Hbond>
0.0000

> <Gold.Chemscore.DEClash>
0.0510

> <Gold.Chemscore.DEInternal>
2.0357

> <Gold.Chemscore.Rot>
1.8857

> <Gold.Chemscore.Internal.Correction>
   9.000000E+99

> <Gold.Chemscore.Hbonds>
donor molecule, donor type, donor heavy atom, donor atom, acceptor molecule, acceptor atom, score
      L1  H     1    27       P1 10747  0.81
      L1  H     9    35       P1  7948  0.30
      L1  H    12    36       P1  7948  0.79

> <Gold.Chemscore.Hbond.Weighted>
-8.8902

> <Gold.Chemscore.Metal.Weighted>
-0.0000

> <Gold.Chemscore.Lipo.Weighted>
-11.0198

> <Gold.Chemscore.Internal_Hbond.Weighted>
0.0000

> <Gold.Chemscore.DEClash.Weighted>
0.0510

> <Gold.Chemscore.DEInternal.Weighted>
2.0357

> <Gold.Chemscore.Rot.Weighted>
4.8275

> <Gold.Chemscore.Internal.Correction.Weighted>
   9.000000E+99

> <Gold.Protein.RotatedTorsions>
[ 6907 6896 6895 6894 ] final   57.36 input  -60.11 | X-H torsion
[ 7974 7965 7964 7962 ] final  -47.08 input  175.53 | X-H torsion
[ 8008 7997 7996 7995 ] final   82.93 input   59.86 | X-H torsion
[ 10167 10162 10161 10158 ] final -105.38 input  -65.29 | X-H torsion
[ 10718 10713 10712 10709 ] final   98.26 input   66.30 | X-H torsion
[ 10763 10752 10751 10750 ] final   17.61 input  -60.55 | X-H torsion
[ 11005 11000 10999 10996 ] final   -7.94 input  -57.11 | X-H torsion

> <Gold.Protein.ActiveResidues>
 VAL166  LYS551  ARG553  GLY616  TRP617  ASP618  TYR619  PRO620  LYS621  CYS622 
 ASP623  PHE694  ASN695  SER759  ASP760  ASP761  ALA762  ILE779  LEU786  VAL792 
 PHE793  MET794  SER795  GLU796  ALA797  LYS798  CYS799  TRP800  GLU811  SER814 

> <Gold.Protein.RotatedAtoms>
  152.3724  134.6714  160.0171 H   0  0  0  0  0  0  0  0  0  0  0  0  # atno 6907 bound_to 6896
  151.7003  133.3305  159.3273 H   0  0  0  0  0  0  0  0  0  0  0  0  # atno 6908 bound_to 6896
  150.7684  134.6557  159.6357 H   0  0  0  0  0  0  0  0  0  0  0  0  # atno 6909 bound_to 6896
  145.9653  140.7438  142.9437 H   0  0  0  0  0  0  0  0  0  0  0  0  # atno 7974 bound_to 7965
  155.9172  140.3423  155.6144 H   0  0  0  0  0  0  0  0  0  0  0  0  # atno 8008 bound_to 7997
  155.7317  140.0796  157.2304 H   0  0  0  0  0  0  0  0  0  0  0  0  # atno 8009 bound_to 7997
  154.4064  140.1587  156.2504 H   0  0  0  0  0  0  0  0  0  0  0  0  # atno 8010 bound_to 7997
  140.1992  143.3832  152.1144 H   0  0  0  0  0  0  0  0  0  0  0  0  # atno 10167 bound_to 10162
  157.6898  131.0635  150.4770 H   0  0  0  0  0  0  0  0  0  0  0  0  # atno 10718 bound_to 10713
  153.1323  135.6743  153.9158 H   0  0  0  0  0  0  0  0  0  0  0  0  # atno 10763 bound_to 10752
  153.8640  135.3078  155.3440 H   0  0  0  0  0  0  0  0  0  0  0  0  # atno 10764 bound_to 10752
  154.7718  135.4935  153.9746 H   0  0  0  0  0  0  0  0  0  0  0  0  # atno 10765 bound_to 10752
  140.7182  133.8851  155.8801 H   0  0  0  0  0  0  0  0  0  0  0  0  # atno 11005 bound_to 11000
  144.6824  140.2658  143.7312 LP  0  0  0  0  0  0  0  0  0  0  0  0  # atno 17320 bound_to 7965
  145.7983  139.1954  143.2063 LP  0  0  0  0  0  0  0  0  0  0  0  0  # atno 17321 bound_to 7965
  139.5224  144.7059  151.5357 LP  0  0  0  0  0  0  0  0  0  0  0  0  # atno 17342 bound_to 10162
  140.6402  143.8903  150.6685 LP  0  0  0  0  0  0  0  0  0  0  0  0  # atno 17343 bound_to 10162
  156.5104  130.4138  149.6304 LP  0  0  0  0  0  0  0  0  0  0  0  0  # atno 17370 bound_to 10713
  156.3246  130.7299  151.2217 LP  0  0  0  0  0  0  0  0  0  0  0  0  # atno 17371 bound_to 10713
  141.0026  134.1129  157.4302 LP  0  0  0  0  0  0  0  0  0  0  0  0  # atno 17394 bound_to 11000
  139.8854  135.0072  156.6436 LP  0  0  0  0  0  0  0  0  0  0  0  0  # atno 17395 bound_to 11000

$$$$
