AV-unprocessed.smi:2485|AV-procd|sdf|9789|dock9
  -GOLD-   2272013423D 1   1.00000     0.00000
 Structure written by MMmdl.
 39 40  0  0  0  0  0  0  0  0  1 V2000
  143.4885  132.7076  151.0578 C   0  0  0  0  0  0  0  0  0  0  0  0
  145.0047  132.8951  150.8784 C   0  0  0  0  0  0  0  0  0  0  0  0
  145.5174  132.1101  149.6614 C   0  0  0  0  0  0  0  0  0  0  0  0
  145.3965  134.3762  150.8206 C   0  0  0  0  0  0  0  0  0  0  0  0
  145.6470  134.7233  152.2747 C   0  0  2  0  0  0  0  0  0  0  0  0
  146.5351  135.8768  152.4050 N   0  0  0  0  0  0  0  0  0  0  0  0
  146.2282  137.0213  153.0312 C   0  0  0  0  0  0  0  0  0  0  0  0
  145.1343  137.2397  153.5521 O   0  0  0  0  0  0  0  0  0  0  0  0
  147.2650  137.8765  153.0131 N   0  0  0  0  0  0  0  0  0  0  0  0
  147.3409  139.1720  153.5889 C   0  0  0  0  0  0  0  0  0  0  0  0
  148.6441  139.6943  153.7308 C   0  0  0  0  0  0  0  0  0  0  0  0
  148.7924  140.9720  154.2970 C   0  0  0  0  0  0  0  0  0  0  0  0
  147.6207  141.6442  154.6844 C   0  0  0  0  0  0  0  0  0  0  0  0
  146.3919  141.1055  154.5298 N   0  0  0  0  0  0  0  0  0  0  0  0
  146.2583  139.8888  153.9903 N   0  0  0  0  0  0  0  0  0  0  0  0
  146.2386  133.4100  152.8330 C   0  0  0  0  0  0  0  0  0  0  0  0
  147.7635  133.2671  152.6430 C   0  0  0  0  0  0  0  0  0  0  0  0
  145.8501  133.1723  154.3009 C   0  0  0  0  0  0  0  0  0  0  0  0
  145.6368  132.3802  152.0494 O   0  0  0  0  0  0  0  0  0  0  0  0
  142.9380  133.0972  150.2010 H   0  0  0  0  0  0  0  0  0  0  0  0
  143.1240  133.2218  151.9475 H   0  0  0  0  0  0  0  0  0  0  0  0
  143.2331  131.6530  151.1641 H   0  0  0  0  0  0  0  0  0  0  0  0
  145.0762  132.4833  148.7366 H   0  0  0  0  0  0  0  0  0  0  0  0
  145.2720  131.0510  149.7440 H   0  0  0  0  0  0  0  0  0  0  0  0
  146.6011  132.1878  149.5685 H   0  0  0  0  0  0  0  0  0  0  0  0
  146.3145  134.5025  150.2440 H   0  0  0  0  0  0  0  0  0  0  0  0
  144.6334  135.0042  150.3595 H   0  0  0  0  0  0  0  0  0  0  0  0
  144.6828  134.9310  152.7433 H   0  0  0  0  0  0  0  0  0  0  0  0
  147.4569  135.7852  152.0043 H   0  0  0  0  0  0  0  0  0  0  0  0
  148.0995  137.5605  152.5423 H   0  0  0  0  0  0  0  0  0  0  0  0
  149.5109  139.1314  153.4155 H   0  0  0  0  0  0  0  0  0  0  0  0
  149.7663  141.4191  154.4297 H   0  0  0  0  0  0  0  0  0  0  0  0
  147.6682  142.6286  155.1257 H   0  0  0  0  0  0  0  0  0  0  0  0
  148.3133  133.9889  153.2475 H   0  0  0  0  0  0  0  0  0  0  0  0
  148.0548  133.4118  151.6026 H   0  0  0  0  0  0  0  0  0  0  0  0
  148.1011  132.2735  152.9392 H   0  0  0  0  0  0  0  0  0  0  0  0
  146.2856  133.9291  154.9535 H   0  0  0  0  0  0  0  0  0  0  0  0
  146.1968  132.1986  154.6479 H   0  0  0  0  0  0  0  0  0  0  0  0
  144.7684  133.2009  154.4341 H   0  0  0  0  0  0  0  0  0  0  0  0
  1  2  1  0  0  0  0
  1 20  1  0  0  0  0
  1 21  1  0  0  0  0
  1 22  1  0  0  0  0
  2 19  1  0  0  0  0
  2  3  1  0  0  0  0
  2  4  1  0  0  0  0
  3 23  1  0  0  0  0
  3 24  1  0  0  0  0
  3 25  1  0  0  0  0
  4  5  1  0  0  0  0
  4 26  1  0  0  0  0
  4 27  1  0  0  0  0
  5  6  1  0  0  0  0
  5 16  1  0  0  0  0
  5 28  1  0  0  0  0
  6  7  1  0  0  0  0
  6 29  1  0  0  0  0
  7  8  2  0  0  0  0
  7  9  1  0  0  0  0
  9 10  1  0  0  0  0
  9 30  1  0  0  0  0
 10 15  1  0  0  0  0
 10 11  2  0  0  0  0
 11 12  1  0  0  0  0
 11 31  1  0  0  0  0
 12 13  2  0  0  0  0
 12 32  1  0  0  0  0
 13 14  1  0  0  0  0
 13 33  1  0  0  0  0
 14 15  2  0  0  0  0
 16 17  1  0  0  0  0
 16 18  1  0  0  0  0
 16 19  1  0  0  0  0
 17 34  1  0  0  0  0
 17 35  1  0  0  0  0
 17 36  1  0  0  0  0
 18 37  1  0  0  0  0
 18 38  1  0  0  0  0
 18 39  1  0  0  0  0
M  END
> <s_m_source_file>
AV-unprocessed.smi

> <i_m_source_file_index>
2485

> <i_lp_mmshare_version>
43012

> <i_f3d_flags>
0

> <s_epik_input>
W0NIM11DMShbQ0gzXSlbQ0gyXVtDQEhdKEMoTzEpKFtDSDNdKVtDSDNdKVtOSF1DKD1PKVtOSF1jMltjSF1bY0hdW2NIXW5uMg==

> <s_epik_cmdline>
J2VwaWtfcHl0aG9uJywgJy1waCcsICc3LjAnLCAnLXRuJywgJzgnLCAnLW1hJywgJzIwMCcsICctbWV0YWxfYmluZGluZycsICctaW1hZScsICc8aW5maWxlLm1hZT4nLCAnLW9tYWUnLCAnPG91dGZpbGUubWFlPic=

> <r_lp_tautomer_probability>
1

> <r_epik_Ionization_Penalty>
0.00480341

> <r_epik_Ionization_Penalty_Charging>
0

> <r_epik_Ionization_Penalty_Neutral>
0.00480341

> <r_epik_State_Penalty>
-0

> <r_epik_Charging_Adjusted_Penalty>
0

> <i_epik_Tot_Q>
0

> <i_epik_Tot_abs_Q>
0

> <r_epik_Metal_State_Penalty>
-0

> <b_epik_Metal_Only>
0

> <s_lp_Force_Field>
OPLS_2005

> <r_lp_Energy>
24.1207

> <b_lp_Chiralities_Consistent>
1

> <s_lp_Variant>
AV-unprocessed.smi:2485-2

> <Gold.Version>
5.8.1

> <Gold.Id.Protein>
6NUR|6NUR_protein|mol2

> <Gold.PLP.Fitness>
36.7308

> <Gold.PLP.PLP>
-27.9717

> <Gold.PLP.part.hbond>
-1.8262

> <Gold.PLP.part.metal>
0.0000

> <Gold.PLP.part.buried>
-1.4738

> <Gold.PLP.part.nonpolar>
-25.9252

> <Gold.PLP.part.repulsive>
0.8735

> <Gold.PLP.ligand.clash>
0.0000

> <Gold.PLP.ligand.torsion>
0.0659

> <Gold.PLP.Chemscore.Hbond>
1.9600

> <Gold.PLP.Chemscore.CHOScore>
1.0000

> <Gold.PLP.Chemscore.Metal>
0.0000

> <Gold.Chemscore.Hbonds>
donor molecule, donor type, donor heavy atom, donor atom, acceptor molecule, acceptor atom, score
      L1  H     6    29       P1  7948  1.00
      L1  H     9    30       P1  7948  0.96
      L1  C    13    33       P1  8028  1.00

> <Gold.PLP.Chemscore.Internal.Correction>
0.0111

> <Gold.Rescore>
     Score         DG    S(hbond)    S(metal)    S(lipo)     H(rot)  DE(clash)    DE(int)     intcor
     15.48     -16.85       1.93        0.00      63.89       1.00       0.06       1.31       ----

> <Gold.Chemscore.Fitness>
15.4803

> <Gold.Chemscore.DG>
-16.8495

> <Gold.Chemscore.ZeroCoef>
-5.4800

> <Gold.Chemscore.Hbond>
1.9326

> <Gold.Chemscore.Metal>
0.0000

> <Gold.Chemscore.Lipo>
63.8856

> <Gold.Chemscore.Internal_Hbond>
0.0000

> <Gold.Chemscore.DEClash>
0.0576

> <Gold.Chemscore.DEInternal>
1.3116

> <Gold.Chemscore.Rot>
1.0000

> <Gold.Chemscore.Internal.Correction>
   9.000000E+99

> <Gold.Chemscore.Hbonds>
donor molecule, donor type, donor heavy atom, donor atom, acceptor molecule, acceptor atom, score
      L1  H     6    29       P1  7948  0.92
      L1  H     9    30       P1  7948  0.92

> <Gold.Chemscore.Hbond.Weighted>
-6.4549

> <Gold.Chemscore.Metal.Weighted>
-0.0000

> <Gold.Chemscore.Lipo.Weighted>
-7.4746

> <Gold.Chemscore.Internal_Hbond.Weighted>
0.0000

> <Gold.Chemscore.DEClash.Weighted>
0.0576

> <Gold.Chemscore.DEInternal.Weighted>
1.3116

> <Gold.Chemscore.Rot.Weighted>
2.5600

> <Gold.Chemscore.Internal.Correction.Weighted>
   9.000000E+99

> <Gold.Protein.RotatedTorsions>
[ 6907 6896 6895 6894 ] final  -69.96 input  -60.11 | X-H torsion
[ 7974 7965 7964 7962 ] final -102.17 input  175.53 | X-H torsion
[ 8008 7997 7996 7995 ] final  -77.60 input   59.86 | X-H torsion
[ 10167 10162 10161 10158 ] final  -21.44 input  -65.29 | X-H torsion
[ 10718 10713 10712 10709 ] final   55.50 input   66.30 | X-H torsion
[ 10763 10752 10751 10750 ] final -174.99 input  -60.55 | X-H torsion
[ 11005 11000 10999 10996 ] final  103.92 input  -57.11 | X-H torsion

> <Gold.Protein.ActiveResidues>
 VAL166  LYS551  ARG553  GLY616  TRP617  ASP618  TYR619  PRO620  LYS621  CYS622 
 ASP623  PHE694  ASN695  SER759  ASP760  ASP761  ALA762  ILE779  LEU786  VAL792 
 PHE793  MET794  SER795  GLU796  ALA797  LYS798  CYS799  TRP800  GLU811  SER814 

> <Gold.Protein.RotatedAtoms>
  150.7280  134.5521  159.5799 H   0  0  0  0  0  0  0  0  0  0  0  0  # atno 6907 bound_to 6896
  152.3006  134.7613  160.0367 H   0  0  0  0  0  0  0  0  0  0  0  0  # atno 6908 bound_to 6896
  151.8195  133.3357  159.3616 H   0  0  0  0  0  0  0  0  0  0  0  0  # atno 6909 bound_to 6896
  145.2721  140.9302  143.2980 H   0  0  0  0  0  0  0  0  0  0  0  0  # atno 7974 bound_to 7965
  154.5611  140.0708  156.8820 H   0  0  0  0  0  0  0  0  0  0  0  0  # atno 8008 bound_to 7997
  155.2810  140.3371  155.4240 H   0  0  0  0  0  0  0  0  0  0  0  0  # atno 8009 bound_to 7997
  156.2043  140.1734  156.7819 H   0  0  0  0  0  0  0  0  0  0  0  0  # atno 8010 bound_to 7997
  140.7282  143.4628  151.0356 H   0  0  0  0  0  0  0  0  0  0  0  0  # atno 10167 bound_to 10162
  157.5350  130.8657  149.8740 H   0  0  0  0  0  0  0  0  0  0  0  0  # atno 10718 bound_to 10713
  154.5897  135.2844  155.0648 H   0  0  0  0  0  0  0  0  0  0  0  0  # atno 10763 bound_to 10752
  154.1953  135.6434  153.5075 H   0  0  0  0  0  0  0  0  0  0  0  0  # atno 10764 bound_to 10752
  153.0117  135.5456  154.6579 H   0  0  0  0  0  0  0  0  0  0  0  0  # atno 10765 bound_to 10752
  139.8787  134.9281  156.5283 H   0  0  0  0  0  0  0  0  0  0  0  0  # atno 11005 bound_to 11000
  144.9326  139.4281  143.6488 LP  0  0  0  0  0  0  0  0  0  0  0  0  # atno 17320 bound_to 7965
  146.3243  139.8244  142.8920 LP  0  0  0  0  0  0  0  0  0  0  0  0  # atno 17321 bound_to 7965
  139.8314  143.7686  152.3180 LP  0  0  0  0  0  0  0  0  0  0  0  0  # atno 17342 bound_to 10162
  139.7803  144.7446  151.0097 LP  0  0  0  0  0  0  0  0  0  0  0  0  # atno 17343 bound_to 10162
  156.0451  130.3729  150.1337 LP  0  0  0  0  0  0  0  0  0  0  0  0  # atno 17370 bound_to 10713
  156.9519  130.9777  151.3496 LP  0  0  0  0  0  0  0  0  0  0  0  0  # atno 17371 bound_to 10713
  140.8399  133.8213  155.9065 LP  0  0  0  0  0  0  0  0  0  0  0  0  # atno 17394 bound_to 11000
  140.9247  134.2097  157.4903 LP  0  0  0  0  0  0  0  0  0  0  0  0  # atno 17395 bound_to 11000

$$$$
