AV-unprocessed.smi:332|AV-procd|sdf|2352|dock5
  -GOLD-   2262022263D 1   1.00000     0.00000
 Structure written by MMmdl.
 42 44  0  0  0  0  0  0  0  0  1 V2000
  149.9811  141.6685  156.5178 C   0  0  0  0  0  0  0  0  0  0  0  0
  151.1898  141.8268  157.4550 C   0  0  2  0  0  0  0  0  0  0  0  0
  151.3114  140.6087  158.2543 N   0  0  0  0  0  0  0  0  0  0  0  0
  152.1551  139.5917  158.0182 C   0  0  0  0  0  0  0  0  0  0  0  0
  152.9210  139.5531  157.0547 O   0  0  0  0  0  0  0  0  0  0  0  0
  152.1174  138.4376  159.0288 C   0  0  0  0  0  0  0  0  0  0  0  0
  153.2082  138.5089  160.0149 N   0  0  0  0  0  0  0  0  0  0  0  0
  153.6278  139.7918  160.4190 C   0  0  0  0  0  0  0  0  0  0  0  0
  154.6107  139.9677  161.3162 C   0  0  0  0  0  0  0  0  0  0  0  0
  155.2448  138.7960  161.8726 C   0  0  0  0  0  0  0  0  0  0  0  0
  154.8491  137.5640  161.4955 C   0  0  0  0  0  0  0  0  0  0  0  0
  153.7738  137.3670  160.5163 C   0  0  0  0  0  0  0  0  0  0  0  0
  153.4044  136.2448  160.1679 O   0  0  0  0  0  0  0  0  0  0  0  0
  151.0601  143.0672  158.3758 C   0  0  2  0  0  0  0  0  0  0  0  0
  151.4438  144.3939  157.6750 C   0  0  0  0  0  0  0  0  0  0  0  0
  152.5007  145.0007  158.6145 C   0  0  1  0  0  0  0  0  0  0  0  0
  151.8265  145.4587  159.9202 C   0  0  0  0  0  0  0  0  0  0  0  0
  151.5061  144.1246  160.6186 C   0  0  0  0  0  0  0  0  0  0  0  0
  152.0087  143.0795  159.6042 C   0  0  2  0  0  0  0  0  0  0  0  0
  153.2611  143.7602  159.0636 C   0  0  0  0  0  0  0  0  0  0  0  0
  149.8665  142.5293  155.8596 H   0  0  0  0  0  0  0  0  0  0  0  0
  149.0540  141.5576  157.0815 H   0  0  0  0  0  0  0  0  0  0  0  0
  150.0909  140.7889  155.8826 H   0  0  0  0  0  0  0  0  0  0  0  0
  152.0745  141.9480  156.8282 H   0  0  0  0  0  0  0  0  0  0  0  0
  150.7192  140.5452  159.0696 H   0  0  0  0  0  0  0  0  0  0  0  0
  151.1538  138.4244  159.5417 H   0  0  0  0  0  0  0  0  0  0  0  0
  152.1585  137.5002  158.4727 H   0  0  0  0  0  0  0  0  0  0  0  0
  153.0985  140.6156  159.9624 H   0  0  0  0  0  0  0  0  0  0  0  0
  154.9156  140.9591  161.6170 H   0  0  0  0  0  0  0  0  0  0  0  0
  156.0387  138.9077  162.5963 H   0  0  0  0  0  0  0  0  0  0  0  0
  155.3339  136.6990  161.9241 H   0  0  0  0  0  0  0  0  0  0  0  0
  150.0268  143.1200  158.7232 H   0  0  0  0  0  0  0  0  0  0  0  0
  151.8861  144.2162  156.6938 H   0  0  0  0  0  0  0  0  0  0  0  0
  150.5852  145.0514  157.5344 H   0  0  0  0  0  0  0  0  0  0  0  0
  153.1123  145.7710  158.1439 H   0  0  0  0  0  0  0  0  0  0  0  0
  152.5115  146.0534  160.5257 H   0  0  0  0  0  0  0  0  0  0  0  0
  150.9341  146.0579  159.7355 H   0  0  0  0  0  0  0  0  0  0  0  0
  152.0543  144.0448  161.5584 H   0  0  0  0  0  0  0  0  0  0  0  0
  150.4448  144.0137  160.8437 H   0  0  0  0  0  0  0  0  0  0  0  0
  152.1821  142.1066  160.0632 H   0  0  0  0  0  0  0  0  0  0  0  0
  153.7335  143.2174  158.2434 H   0  0  0  0  0  0  0  0  0  0  0  0
  154.0081  143.9648  159.8327 H   0  0  0  0  0  0  0  0  0  0  0  0
  1  2  1  0  0  0  0
  1 21  1  0  0  0  0
  1 22  1  0  0  0  0
  1 23  1  0  0  0  0
  2  3  1  0  0  0  0
  2 14  1  0  0  0  0
  2 24  1  0  0  0  0
  3  4  1  0  0  0  0
  3 25  1  0  0  0  0
  4  5  2  0  0  0  0
  4  6  1  0  0  0  0
  6  7  1  0  0  0  0
  6 26  1  0  0  0  0
  6 27  1  0  0  0  0
  7 12  1  0  0  0  0
  7  8  1  0  0  0  0
  8  9  2  0  0  0  0
  8 28  1  0  0  0  0
  9 10  1  0  0  0  0
  9 29  1  0  0  0  0
 10 11  2  0  0  0  0
 10 30  1  0  0  0  0
 11 12  1  0  0  0  0
 11 31  1  0  0  0  0
 12 13  2  0  0  0  0
 14 19  1  0  0  0  0
 14 15  1  0  0  0  0
 14 32  1  0  0  0  0
 15 16  1  0  0  0  0
 15 33  1  0  0  0  0
 15 34  1  0  0  0  0
 16 20  1  0  0  0  0
 16 17  1  0  0  0  0
 16 35  1  0  0  0  0
 17 18  1  0  0  0  0
 17 36  1  0  0  0  0
 17 37  1  0  0  0  0
 18 19  1  0  0  0  0
 18 38  1  0  0  0  0
 18 39  1  0  0  0  0
 19 20  1  0  0  0  0
 19 40  1  0  0  0  0
 20 41  1  0  0  0  0
 20 42  1  0  0  0  0
M  END
> <s_m_source_file>
AV-unprocessed.smi

> <i_m_source_file_index>
332

> <i_lp_mmshare_version>
43012

> <i_f3d_flags>
0

> <s_epik_input>
W0NIMl0xW0NIMl1bQ0BIXShbQ0gyXTIpW0NAQEhdKFtDSDJdW0NAQEhdMTIpW0NASF0oW0NIM10pW05IXUMoPU8pW0NIMl1uM1tjSF1bY0hdW2NIXVtjSF1jMz1P

> <s_epik_cmdline>
J2VwaWtfcHl0aG9uJywgJy1waCcsICc3LjAnLCAnLXRuJywgJzgnLCAnLW1hJywgJzIwMCcsICctbWV0YWxfYmluZGluZycsICctaW1hZScsICc8aW5maWxlLm1hZT4nLCAnLW9tYWUnLCAnPG91dGZpbGUubWFlPic=

> <r_lp_tautomer_probability>
1

> <r_epik_Ionization_Penalty>
4.05802e-07

> <r_epik_Ionization_Penalty_Charging>
3.84175e-07

> <r_epik_Ionization_Penalty_Neutral>
2.16269e-08

> <r_epik_State_Penalty>
-0

> <r_epik_Charging_Adjusted_Penalty>
3.84175e-07

> <i_epik_Tot_Q>
0

> <i_epik_Tot_abs_Q>
0

> <r_epik_Metal_State_Penalty>
-0

> <b_epik_Metal_Only>
0

> <s_lp_Force_Field>
OPLS_2005

> <r_lp_Energy>
59.6993

> <b_lp_Chiralities_Consistent>
1

> <s_lp_Variant>
AV-unprocessed.smi:332-1

> <Gold.Version>
5.8.1

> <Gold.Id.Protein>
6NUR|6NUR_protein|mol2

> <Gold.PLP.Fitness>
47.6567

> <Gold.PLP.PLP>
-44.1357

> <Gold.PLP.part.hbond>
-2.0000

> <Gold.PLP.part.metal>
0.0000

> <Gold.PLP.part.buried>
-4.9501

> <Gold.PLP.part.nonpolar>
-36.8112

> <Gold.PLP.part.repulsive>
0.1201

> <Gold.PLP.ligand.clash>
0.0000

> <Gold.PLP.ligand.torsion>
1.2534

> <Gold.PLP.Chemscore.Hbond>
2.0000

> <Gold.PLP.Chemscore.CHOScore>
0.0000

> <Gold.PLP.Chemscore.Metal>
0.0000

> <Gold.Chemscore.Hbonds>
donor molecule, donor type, donor heavy atom, donor atom, acceptor molecule, acceptor atom, score
      P1  H  6896  6907       L1    13  1.00
      P1  H  7997  8009       L1     5  1.00

> <Gold.PLP.Chemscore.Internal.Correction>
0.0277

> <Gold.Rescore>
     Score         DG    S(hbond)    S(metal)    S(lipo)     H(rot)  DE(clash)    DE(int)     intcor
     22.95     -24.13       1.99        0.00     136.15       1.54       0.25       0.93       ----

> <Gold.Chemscore.Fitness>
22.9509

> <Gold.Chemscore.DG>
-24.1291

> <Gold.Chemscore.ZeroCoef>
-5.4800

> <Gold.Chemscore.Hbond>
1.9944

> <Gold.Chemscore.Metal>
0.0000

> <Gold.Chemscore.Lipo>
136.1512

> <Gold.Chemscore.Internal_Hbond>
0.0000

> <Gold.Chemscore.DEClash>
0.2521

> <Gold.Chemscore.DEInternal>
0.9261

> <Gold.Chemscore.Rot>
1.5398

> <Gold.Chemscore.Internal.Correction>
   9.000000E+99

> <Gold.Chemscore.Hbonds>
donor molecule, donor type, donor heavy atom, donor atom, acceptor molecule, acceptor atom, score
      P1  H  6896  6907       L1    13  0.96
      P1  H  7997  8009       L1     5  0.99

> <Gold.Chemscore.Hbond.Weighted>
-6.6613

> <Gold.Chemscore.Metal.Weighted>
-0.0000

> <Gold.Chemscore.Lipo.Weighted>
-15.9297

> <Gold.Chemscore.Internal_Hbond.Weighted>
0.0000

> <Gold.Chemscore.DEClash.Weighted>
0.2521

> <Gold.Chemscore.DEInternal.Weighted>
0.9261

> <Gold.Chemscore.Rot.Weighted>
3.9419

> <Gold.Chemscore.Internal.Correction.Weighted>
   9.000000E+99

> <Gold.Protein.RotatedTorsions>
[ 6907 6896 6895 6894 ] final   22.18 input  -60.11 | X-H torsion
[ 7974 7965 7964 7962 ] final -179.23 input  175.53 | X-H torsion
[ 8008 7997 7996 7995 ] final  175.10 input   59.86 | X-H torsion
[ 10167 10162 10161 10158 ] final   -3.51 input  -65.29 | X-H torsion
[ 10718 10713 10712 10709 ] final -124.78 input   66.30 | X-H torsion
[ 10763 10752 10751 10750 ] final   68.72 input  -60.55 | X-H torsion
[ 11005 11000 10999 10996 ] final  -15.39 input  -57.11 | X-H torsion

> <Gold.Protein.ActiveResidues>
 VAL166  LYS551  ARG553  GLY616  TRP617  ASP618  TYR619  PRO620  LYS621  CYS622 
 ASP623  PHE694  ASN695  SER759  ASP760  ASP761  ALA762  ILE779  LEU786  VAL792 
 PHE793  MET794  SER795  GLU796  ALA797  LYS798  CYS799  TRP800  GLU811  SER814 

> <Gold.Protein.RotatedAtoms>
  151.9232  135.0289  160.0523 H   0  0  0  0  0  0  0  0  0  0  0  0  # atno 6907 bound_to 6896
  152.2182  133.4958  159.5156 H   0  0  0  0  0  0  0  0  0  0  0  0  # atno 6908 bound_to 6896
  150.6993  134.1294  159.4107 H   0  0  0  0  0  0  0  0  0  0  0  0  # atno 6909 bound_to 6896
  144.7135  140.0749  143.6428 H   0  0  0  0  0  0  0  0  0  0  0  0  # atno 7974 bound_to 7965
  156.0906  140.1417  156.9597 H   0  0  0  0  0  0  0  0  0  0  0  0  # atno 8008 bound_to 7997
  154.4639  140.0933  156.7016 H   0  0  0  0  0  0  0  0  0  0  0  0  # atno 8009 bound_to 7997
  155.4926  140.3448  155.4359 H   0  0  0  0  0  0  0  0  0  0  0  0  # atno 8010 bound_to 7997
  140.6893  143.6531  150.8332 H   0  0  0  0  0  0  0  0  0  0  0  0  # atno 10167 bound_to 10162
  156.1617  130.6606  151.0059 H   0  0  0  0  0  0  0  0  0  0  0  0  # atno 10718 bound_to 10713
  153.0250  135.5237  154.7178 H   0  0  0  0  0  0  0  0  0  0  0  0  # atno 10763 bound_to 10752
  154.6242  135.2892  155.0294 H   0  0  0  0  0  0  0  0  0  0  0  0  # atno 10764 bound_to 10752
  154.1269  135.6599  153.4966 H   0  0  0  0  0  0  0  0  0  0  0  0  # atno 10765 bound_to 10752
  140.7962  133.8249  155.9426 H   0  0  0  0  0  0  0  0  0  0  0  0  # atno 11005 bound_to 11000
  145.9752  139.2899  143.1075 LP  0  0  0  0  0  0  0  0  0  0  0  0  # atno 17320 bound_to 7965
  145.9072  140.9204  143.0472 LP  0  0  0  0  0  0  0  0  0  0  0  0  # atno 17321 bound_to 7965
  140.0242  143.5511  152.2788 LP  0  0  0  0  0  0  0  0  0  0  0  0  # atno 17342 bound_to 10162
  139.6280  144.7640  151.2597 LP  0  0  0  0  0  0  0  0  0  0  0  0  # atno 17343 bound_to 10162
  157.6737  131.0855  150.7547 LP  0  0  0  0  0  0  0  0  0  0  0  0  # atno 17370 bound_to 10713
  156.7610  130.4798  149.5437 LP  0  0  0  0  0  0  0  0  0  0  0  0  # atno 17371 bound_to 10713
  140.9341  134.1985  157.4844 LP  0  0  0  0  0  0  0  0  0  0  0  0  # atno 17394 bound_to 11000
  139.8726  134.9845  156.5241 LP  0  0  0  0  0  0  0  0  0  0  0  0  # atno 17395 bound_to 11000

$$$$
