AV-unprocessed.smi:861|AV-procd|sdf|3975|dock5
  -GOLD-   22720 1453D 1   1.00000     0.00000
 Structure written by MMmdl.
 45 46  0  0  0  0  0  0  0  0  3 V2000
  145.2398  144.6635  152.6936 C   0  0  0  0  0  0  0  0  0  0  0  0
  144.8038  143.8636  153.9327 C   0  0  0  0  0  0  0  0  0  0  0  0
  144.0563  144.7730  154.9198 C   0  0  0  0  0  0  0  0  0  0  0  0
  145.9891  143.1625  154.6278 C   0  0  0  0  0  0  0  0  0  0  0  0
  146.2586  141.7353  154.1124 C   0  0  0  0  0  0  0  0  0  0  0  0
  147.6942  141.3651  154.1911 N   0  3  2  0  0  0  0  0  0  0  0  0
  147.9476  139.9241  153.9448 C   0  0  0  0  0  0  0  0  0  0  0  0
  149.4529  139.6236  154.0200 C   0  0  0  0  0  0  0  0  0  0  0  0
  149.9559  140.0334  155.2851 O   0  0  0  0  0  0  0  0  0  0  0  0
  149.8167  141.4348  155.4953 C   0  0  2  0  0  0  0  0  0  0  0  0
  150.4573  141.7779  156.8488 C   0  0  0  0  0  0  0  0  0  0  0  0
  149.9955  143.0630  157.3521 N   0  0  0  0  0  0  0  0  0  0  0  0
  150.6673  143.6997  158.4040 C   0  0  0  0  0  0  0  0  0  0  0  0
  151.8128  143.1751  159.0466 C   0  0  0  0  0  0  0  0  0  0  0  0
  152.3929  143.9205  160.0871 C   0  0  0  0  0  0  0  0  0  0  0  0
  151.7928  145.1470  160.4230 C   0  0  0  0  0  0  0  0  0  0  0  0
  150.6966  145.6308  159.7973 N   0  0  0  0  0  0  0  0  0  0  0  0
  150.1645  144.8940  158.8061 N   0  3  0  0  0  0  0  0  0  0  0  0
  148.3154  141.7867  155.4701 C   0  0  0  0  0  0  0  0  0  0  0  0
  145.9718  145.4292  152.9529 H   0  0  0  0  0  0  0  0  0  0  0  0
  144.3882  145.1642  152.2319 H   0  0  0  0  0  0  0  0  0  0  0  0
  145.6826  144.0214  151.9329 H   0  0  0  0  0  0  0  0  0  0  0  0
  144.0998  143.0973  153.6057 H   0  0  0  0  0  0  0  0  0  0  0  0
  144.7018  145.5692  155.2924 H   0  0  0  0  0  0  0  0  0  0  0  0
  143.6932  144.2089  155.7794 H   0  0  0  0  0  0  0  0  0  0  0  0
  143.1913  145.2396  154.4474 H   0  0  0  0  0  0  0  0  0  0  0  0
  146.8789  143.7833  154.5225 H   0  0  0  0  0  0  0  0  0  0  0  0
  145.7848  143.1060  155.6979 H   0  0  0  0  0  0  0  0  0  0  0  0
  145.6819  141.0400  154.7243 H   0  0  0  0  0  0  0  0  0  0  0  0
  145.9076  141.6109  153.0875 H   0  0  0  0  0  0  0  0  0  0  0  0
  147.4125  139.3262  154.6842 H   0  0  0  0  0  0  0  0  0  0  0  0
  147.5728  139.6310  152.9648 H   0  0  0  0  0  0  0  0  0  0  0  0
  149.6291  138.5546  153.9003 H   0  0  0  0  0  0  0  0  0  0  0  0
  149.9936  140.1273  153.2170 H   0  0  0  0  0  0  0  0  0  0  0  0
  150.3321  141.9817  154.7030 H   0  0  0  0  0  0  0  0  0  0  0  0
  150.1989  141.0118  157.5807 H   0  0  0  0  0  0  0  0  0  0  0  0
  151.5442  141.7832  156.7556 H   0  0  0  0  0  0  0  0  0  0  0  0
  149.2927  143.5666  156.8294 H   0  0  0  0  0  0  0  0  0  0  0  0
  152.2456  142.2281  158.7608 H   0  0  0  0  0  0  0  0  0  0  0  0
  153.2685  143.5658  160.6105 H   0  0  0  0  0  0  0  0  0  0  0  0
  152.2011  145.7576  161.2150 H   0  0  0  0  0  0  0  0  0  0  0  0
  148.1901  142.8628  155.5991 H   0  0  0  0  0  0  0  0  0  0  0  0
  147.7991  141.3022  156.3008 H   0  0  0  0  0  0  0  0  0  0  0  0
  148.1667  141.8795  153.4612 H   0  0  0  0  0  0  0  0  0  0  0  0
  149.3370  145.2536  158.3299 H   0  0  0  0  0  0  0  0  0  0  0  0
  1  2  1  0  0  0  0
  1 20  1  0  0  0  0
  1 21  1  0  0  0  0
  1 22  1  0  0  0  0
  2  3  1  0  0  0  0
  2  4  1  0  0  0  0
  2 23  1  0  0  0  0
  3 24  1  0  0  0  0
  3 25  1  0  0  0  0
  3 26  1  0  0  0  0
  4  5  1  0  0  0  0
  4 27  1  0  0  0  0
  4 28  1  0  0  0  0
  5  6  1  0  0  0  0
  5 29  1  0  0  0  0
  5 30  1  0  0  0  0
  6 19  1  0  0  0  0
  6  7  1  0  0  0  0
  6 44  1  0  0  0  0
  7  8  1  0  0  0  0
  7 31  1  0  0  0  0
  7 32  1  0  0  0  0
  8  9  1  0  0  0  0
  8 33  1  0  0  0  0
  8 34  1  0  0  0  0
  9 10  1  0  0  0  0
 10 11  1  0  0  0  0
 10 19  1  0  0  0  0
 10 35  1  0  0  0  0
 11 12  1  0  0  0  0
 11 36  1  0  0  0  0
 11 37  1  0  0  0  0
 12 13  1  0  0  0  0
 12 38  1  0  0  0  0
 13 18  1  0  0  0  0
 13 14  2  0  0  0  0
 14 15  1  0  0  0  0
 14 39  1  0  0  0  0
 15 16  2  0  0  0  0
 15 40  1  0  0  0  0
 16 17  1  0  0  0  0
 16 41  1  0  0  0  0
 17 18  2  0  0  0  0
 18 45  1  0  0  0  0
 19 42  1  0  0  0  0
 19 43  1  0  0  0  0
M  CHG  1   6   1
M  CHG  1  18   1
M  END
> <s_m_source_file>
AV-unprocessed.smi

> <i_m_source_file_index>
861

> <i_lp_mmshare_version>
43012

> <i_f3d_flags>
0

> <s_epik_input>
W0NIM11bQ0hdKFtDSDNdKVtDSDJdW0NIMl1OMVtDSDJdW0NIMl1PW0NASF0oW0NIMl0xKVtDSDJdW05IXWMyW2NIXVtjSF1bY0hdbm4y

> <s_epik_cmdline>
J2VwaWtfcHl0aG9uJywgJy1waCcsICc3LjAnLCAnLXRuJywgJzgnLCAnLW1hJywgJzIwMCcsICctbWV0YWxfYmluZGluZycsICctaW1hZScsICc8aW5maWxlLm1hZT4nLCAnLW9tYWUnLCAnPG91dGZpbGUubWFlPic=

> <r_lp_tautomer_probability>
0.966961

> <r_epik_Ionization_Penalty>
2.478

> <r_epik_Ionization_Penalty_Charging>
2.47799

> <r_epik_Ionization_Penalty_Neutral>
3.15286e-06

> <r_epik_State_Penalty>
2.10794

> <r_epik_Charging_Adjusted_Penalty>
4.58594

> <i_epik_Tot_Q>
2

> <i_epik_Tot_abs_Q>
2

> <r_epik_Metal_State_Penalty>
2.11378

> <b_epik_Metal_Only>
0

> <s_lp_Force_Field>
OPLS_2005

> <r_lp_Energy>
32.9485

> <b_lp_Chiralities_Consistent>
1

> <s_lp_Variant>
AV-unprocessed.smi:861-10

> <Gold.Version>
5.8.1

> <Gold.Id.Protein>
6NUR|6NUR_protein|mol2

> <Gold.PLP.Fitness>
49.3429

> <Gold.PLP.PLP>
-39.2004

> <Gold.PLP.part.hbond>
-3.8989

> <Gold.PLP.part.metal>
0.0000

> <Gold.PLP.part.buried>
-0.3489

> <Gold.PLP.part.nonpolar>
-36.9416

> <Gold.PLP.part.repulsive>
0.5975

> <Gold.PLP.ligand.clash>
0.0000

> <Gold.PLP.ligand.torsion>
0.9621

> <Gold.PLP.Chemscore.Hbond>
4.0000

> <Gold.PLP.Chemscore.CHOScore>
0.0000

> <Gold.PLP.Chemscore.Metal>
0.0000

> <Gold.Chemscore.Hbonds>
donor molecule, donor type, donor heavy atom, donor atom, acceptor molecule, acceptor atom, score
      L1  H    12    38       P1  8028  2.00
      L1  H    18    45       P1  8029  2.00

> <Gold.PLP.Chemscore.Internal.Correction>
0.0667

> <Gold.Rescore>
     Score         DG    S(hbond)    S(metal)    S(lipo)     H(rot)  DE(clash)    DE(int)     intcor
     16.26     -17.63       1.60        0.00      96.99       1.78       0.56       0.81       ----

> <Gold.Chemscore.Fitness>
16.2580

> <Gold.Chemscore.DG>
-17.6306

> <Gold.Chemscore.ZeroCoef>
-5.4800

> <Gold.Chemscore.Hbond>
1.6015

> <Gold.Chemscore.Metal>
0.0000

> <Gold.Chemscore.Lipo>
96.9884

> <Gold.Chemscore.Internal_Hbond>
0.0000

> <Gold.Chemscore.DEClash>
0.5631

> <Gold.Chemscore.DEInternal>
0.8094

> <Gold.Chemscore.Rot>
1.7759

> <Gold.Chemscore.Internal.Correction>
   9.000000E+99

> <Gold.Chemscore.Hbonds>
donor molecule, donor type, donor heavy atom, donor atom, acceptor molecule, acceptor atom, score
      L1  H    12    38       P1  8028  0.87
      L1  H    18    45       P1  8029  0.70

> <Gold.Chemscore.Hbond.Weighted>
-5.3492

> <Gold.Chemscore.Metal.Weighted>
-0.0000

> <Gold.Chemscore.Lipo.Weighted>
-11.3476

> <Gold.Chemscore.Internal_Hbond.Weighted>
0.0000

> <Gold.Chemscore.DEClash.Weighted>
0.5631

> <Gold.Chemscore.DEInternal.Weighted>
0.8094

> <Gold.Chemscore.Rot.Weighted>
4.5462

> <Gold.Chemscore.Internal.Correction.Weighted>
   9.000000E+99

> <Gold.Protein.RotatedTorsions>
[ 6907 6896 6895 6894 ] final   -1.14 input  -60.11 | X-H torsion
[ 7974 7965 7964 7962 ] final -167.56 input  175.53 | X-H torsion
[ 8008 7997 7996 7995 ] final  149.83 input   59.86 | X-H torsion
[ 10167 10162 10161 10158 ] final -164.89 input  -65.29 | X-H torsion
[ 10718 10713 10712 10709 ] final   -5.05 input   66.30 | X-H torsion
[ 10763 10752 10751 10750 ] final -148.24 input  -60.55 | X-H torsion
[ 11005 11000 10999 10996 ] final  148.78 input  -57.11 | X-H torsion

> <Gold.Protein.ActiveResidues>
 VAL166  LYS551  ARG553  GLY616  TRP617  ASP618  TYR619  PRO620  LYS621  CYS622 
 ASP623  PHE694  ASN695  SER759  ASP760  ASP761  ALA762  ILE779  LEU786  VAL792 
 PHE793  MET794  SER795  GLU796  ALA797  LYS798  CYS799  TRP800  GLU811  SER814 

> <Gold.Protein.RotatedAtoms>
  151.5508  135.1067  159.9948 H   0  0  0  0  0  0  0  0  0  0  0  0  # atno 6907 bound_to 6896
  152.4492  133.7592  159.6747 H   0  0  0  0  0  0  0  0  0  0  0  0  # atno 6908 bound_to 6896
  150.8416  133.7860  159.3083 H   0  0  0  0  0  0  0  0  0  0  0  0  # atno 6909 bound_to 6896
  144.7220  140.2501  143.6280 H   0  0  0  0  0  0  0  0  0  0  0  0  # atno 7974 bound_to 7965
  156.2740  140.2091  156.5920 H   0  0  0  0  0  0  0  0  0  0  0  0  # atno 8008 bound_to 7997
  154.6974  140.0524  157.0448 H   0  0  0  0  0  0  0  0  0  0  0  0  # atno 8009 bound_to 7997
  155.0781  140.3184  155.4612 H   0  0  0  0  0  0  0  0  0  0  0  0  # atno 8010 bound_to 7997
  139.6219  144.0607  152.1940 H   0  0  0  0  0  0  0  0  0  0  0  0  # atno 10167 bound_to 10162
  156.7522  130.5243  149.5801 H   0  0  0  0  0  0  0  0  0  0  0  0  # atno 10718 bound_to 10713
  154.8244  135.3339  154.6942 H   0  0  0  0  0  0  0  0  0  0  0  0  # atno 10763 bound_to 10752
  153.7571  135.6935  153.4938 H   0  0  0  0  0  0  0  0  0  0  0  0  # atno 10764 bound_to 10752
  153.2136  135.4473  155.0358 H   0  0  0  0  0  0  0  0  0  0  0  0  # atno 10765 bound_to 10752
  140.0988  134.8996  157.1764 H   0  0  0  0  0  0  0  0  0  0  0  0  # atno 11005 bound_to 11000
  145.8236  139.2055  143.1923 LP  0  0  0  0  0  0  0  0  0  0  0  0  # atno 17320 bound_to 7965
  146.0492  140.8087  142.9790 LP  0  0  0  0  0  0  0  0  0  0  0  0  # atno 17321 bound_to 7965
  140.0251  144.6123  150.7534 LP  0  0  0  0  0  0  0  0  0  0  0  0  # atno 17342 bound_to 10162
  140.7387  143.2782  151.3678 LP  0  0  0  0  0  0  0  0  0  0  0  0  # atno 17343 bound_to 10162
  156.1394  130.6234  151.0445 LP  0  0  0  0  0  0  0  0  0  0  0  0  # atno 17370 bound_to 10713
  157.6772  131.0847  150.7464 LP  0  0  0  0  0  0  0  0  0  0  0  0  # atno 17371 bound_to 10713
  140.3248  134.2875  155.7239 LP  0  0  0  0  0  0  0  0  0  0  0  0  # atno 17394 bound_to 11000
  141.2100  133.7733  156.9962 LP  0  0  0  0  0  0  0  0  0  0  0  0  # atno 17395 bound_to 11000

$$$$
