AV-unprocessed.smi:3226|AV-procd|sdf|12315|dock7
  -GOLD-   2272018163D 1   1.00000     0.00000
 Structure written by MMmdl.
 41 43  0  0  0  0  0  0  0  0  2 V2000
  151.3101  139.5853  158.0902 C   0  0  0  0  0  0  0  0  0  0  0  0
  152.3433  139.7105  156.9648 C   0  0  0  0  0  0  0  0  0  0  0  0
  151.9883  138.8893  155.7635 C   0  0  0  0  0  0  0  0  0  0  0  0
  152.7547  137.8942  155.3013 N   0  0  0  0  0  0  0  0  0  0  0  0
  152.0772  137.3732  154.2174 N   0  0  0  0  0  0  0  0  0  0  0  0
  150.9637  138.0991  154.1385 C   0  0  0  0  0  0  0  0  0  0  0  0
  150.8456  139.0625  155.0656 N   0  0  0  0  0  0  0  0  0  0  0  0
  149.7608  140.0132  155.2434 C   0  0  0  0  0  0  0  0  0  0  0  0
  150.2684  141.4189  155.6041 C   0  0  0  0  0  0  0  0  0  0  0  0
  149.3114  142.1411  156.4667 N   0  3  0  0  0  0  0  0  0  0  0  0
  149.8067  142.3933  157.8336 C   0  0  0  0  0  0  0  0  0  0  0  0
  151.2699  142.8745  157.8176 C   0  0  2  0  0  0  0  0  0  0  0  0
  152.0633  142.5202  159.1127 C   0  0  0  0  0  0  0  0  0  0  0  0
  152.6481  143.8841  159.5470 C   0  0  2  0  0  0  0  0  0  0  0  0
  151.4960  144.7570  159.9962 C   0  0  0  0  0  0  0  0  0  0  0  0
  150.7922  145.0753  158.9088 C   0  0  0  0  0  0  0  0  0  0  0  0
  151.4670  144.4126  157.7243 C   0  0  1  0  0  0  0  0  0  0  0  0
  152.9304  144.5025  158.1740 C   0  0  0  0  0  0  0  0  0  0  0  0
  151.5959  140.1925  158.9492 H   0  0  0  0  0  0  0  0  0  0  0  0
  151.2192  138.5524  158.4280 H   0  0  0  0  0  0  0  0  0  0  0  0
  150.3255  139.9176  157.7606 H   0  0  0  0  0  0  0  0  0  0  0  0
  152.4591  140.7549  156.6770 H   0  0  0  0  0  0  0  0  0  0  0  0
  153.3192  139.3874  157.3293 H   0  0  0  0  0  0  0  0  0  0  0  0
  150.2145  137.9255  153.3799 H   0  0  0  0  0  0  0  0  0  0  0  0
  149.1682  140.0446  154.3280 H   0  0  0  0  0  0  0  0  0  0  0  0
  149.0979  139.6417  156.0253 H   0  0  0  0  0  0  0  0  0  0  0  0
  151.2202  141.3339  156.1300 H   0  0  0  0  0  0  0  0  0  0  0  0
  150.4551  142.0010  154.7009 H   0  0  0  0  0  0  0  0  0  0  0  0
  149.0943  143.0285  156.0354 H   0  0  0  0  0  0  0  0  0  0  0  0
  149.1614  143.1203  158.3281 H   0  0  0  0  0  0  0  0  0  0  0  0
  149.7350  141.4683  158.4073 H   0  0  0  0  0  0  0  0  0  0  0  0
  151.7736  142.4080  156.9689 H   0  0  0  0  0  0  0  0  0  0  0  0
  151.4329  142.0877  159.8914 H   0  0  0  0  0  0  0  0  0  0  0  0
  152.8572  141.8047  158.8946 H   0  0  0  0  0  0  0  0  0  0  0  0
  153.4946  143.8527  160.2333 H   0  0  0  0  0  0  0  0  0  0  0  0
  151.2903  145.0284  161.0211 H   0  0  0  0  0  0  0  0  0  0  0  0
  149.8874  145.6626  158.8551 H   0  0  0  0  0  0  0  0  0  0  0  0
  151.2525  144.8706  156.7584 H   0  0  0  0  0  0  0  0  0  0  0  0
  153.2957  145.5298  158.2365 H   0  0  0  0  0  0  0  0  0  0  0  0
  153.6216  143.9206  157.5607 H   0  0  0  0  0  0  0  0  0  0  0  0
  148.4629  141.5970  156.5318 H   0  0  0  0  0  0  0  0  0  0  0  0
  1  2  1  0  0  0  0
  1 19  1  0  0  0  0
  1 20  1  0  0  0  0
  1 21  1  0  0  0  0
  2  3  1  0  0  0  0
  2 22  1  0  0  0  0
  2 23  1  0  0  0  0
  3  7  1  0  0  0  0
  3  4  2  0  0  0  0
  4  5  1  0  0  0  0
  5  6  2  0  0  0  0
  6  7  1  0  0  0  0
  6 24  1  0  0  0  0
  7  8  1  0  0  0  0
  8  9  1  0  0  0  0
  8 25  1  0  0  0  0
  8 26  1  0  0  0  0
  9 10  1  0  0  0  0
  9 27  1  0  0  0  0
  9 28  1  0  0  0  0
 10 11  1  0  0  0  0
 10 29  1  0  0  0  0
 10 41  1  0  0  0  0
 11 12  1  0  0  0  0
 11 30  1  0  0  0  0
 11 31  1  0  0  0  0
 12 17  1  0  0  0  0
 12 13  1  0  0  0  0
 12 32  1  0  0  0  0
 13 14  1  0  0  0  0
 13 33  1  0  0  0  0
 13 34  1  0  0  0  0
 14 18  1  0  0  0  0
 14 15  1  0  0  0  0
 14 35  1  0  0  0  0
 15 16  2  0  0  0  0
 15 36  1  0  0  0  0
 16 17  1  0  0  0  0
 16 37  1  0  0  0  0
 17 18  1  0  0  0  0
 17 38  1  0  0  0  0
 18 39  1  0  0  0  0
 18 40  1  0  0  0  0
M  CHG  1  10   1
M  END
> <s_m_source_file>
AV-unprocessed.smi

> <i_m_source_file_index>
3226

> <i_lp_mmshare_version>
43012

> <i_f3d_flags>
0

> <s_epik_input>
W0NIM11bQ0gyXWMxbm5bY0hdbjFbQ0gyXVtDSDJdW05IXVtDSDJdW0NASF0oW0NIMl1bQ0BASF0yMylbQ0BASF0oW0NIMl0zKVtDSF09W0NIXTI=

> <s_epik_cmdline>
J2VwaWtfcHl0aG9uJywgJy1waCcsICc3LjAnLCAnLXRuJywgJzgnLCAnLW1hJywgJzIwMCcsICctbWV0YWxfYmluZGluZycsICctaW1hZScsICc8aW5maWxlLm1hZT4nLCAnLW9tYWUnLCAnPG91dGZpbGUubWFlPic=

> <r_lp_tautomer_probability>
1

> <r_epik_Ionization_Penalty>
0.00175008

> <r_epik_Ionization_Penalty_Charging>
0.00173932

> <r_epik_Ionization_Penalty_Neutral>
1.07546e-05

> <r_epik_State_Penalty>
-0

> <r_epik_Charging_Adjusted_Penalty>
0.00173932

> <i_epik_Tot_Q>
1

> <i_epik_Tot_abs_Q>
1

> <r_epik_Metal_State_Penalty>
-0

> <b_epik_Metal_Only>
0

> <s_lp_Force_Field>
OPLS_2005

> <r_lp_Energy>
64.9624

> <b_lp_Chiralities_Consistent>
1

> <s_lp_Variant>
AV-unprocessed.smi:3226-3

> <Gold.Version>
5.8.1

> <Gold.Id.Protein>
6NUR|6NUR_protein|mol2

> <Gold.PLP.Fitness>
53.5684

> <Gold.PLP.PLP>
-44.5524

> <Gold.PLP.part.hbond>
-3.0000

> <Gold.PLP.part.metal>
0.0000

> <Gold.PLP.part.buried>
-5.0618

> <Gold.PLP.part.nonpolar>
-37.8788

> <Gold.PLP.part.repulsive>
0.2287

> <Gold.PLP.ligand.clash>
0.0000

> <Gold.PLP.ligand.torsion>
1.2543

> <Gold.PLP.Chemscore.Hbond>
2.7904

> <Gold.PLP.Chemscore.CHOScore>
1.0320

> <Gold.PLP.Chemscore.Metal>
0.0000

> <Gold.Chemscore.Hbonds>
donor molecule, donor type, donor heavy atom, donor atom, acceptor molecule, acceptor atom, score
      L1  H    10    29       P1  8028  2.00
      P1  H 10752 10763       L1     5  0.82
      L1  C     6    24       P1  7948  0.94
      L1  C     6    24       P1  7949  0.03

> <Gold.PLP.Chemscore.Internal.Correction>
0.0576

> <Gold.Rescore>
     Score         DG    S(hbond)    S(metal)    S(lipo)     H(rot)  DE(clash)    DE(int)     intcor
     16.32     -18.52       1.47        0.00     114.72       2.06       0.07       2.13       ----

> <Gold.Chemscore.Fitness>
16.3203

> <Gold.Chemscore.DG>
-18.5199

> <Gold.Chemscore.ZeroCoef>
-5.4800

> <Gold.Chemscore.Hbond>
1.4663

> <Gold.Chemscore.Metal>
0.0000

> <Gold.Chemscore.Lipo>
114.7192

> <Gold.Chemscore.Internal_Hbond>
0.0000

> <Gold.Chemscore.DEClash>
0.0656

> <Gold.Chemscore.DEInternal>
2.1339

> <Gold.Chemscore.Rot>
2.0623

> <Gold.Chemscore.Internal.Correction>
   9.000000E+99

> <Gold.Chemscore.Hbonds>
donor molecule, donor type, donor heavy atom, donor atom, acceptor molecule, acceptor atom, score
      L1  H    10    29       P1  8028  1.00
      P1  H 10752 10763       L1     5  0.21

> <Gold.Chemscore.Hbond.Weighted>
-4.8974

> <Gold.Chemscore.Metal.Weighted>
-0.0000

> <Gold.Chemscore.Lipo.Weighted>
-13.4221

> <Gold.Chemscore.Internal_Hbond.Weighted>
0.0000

> <Gold.Chemscore.DEClash.Weighted>
0.0656

> <Gold.Chemscore.DEInternal.Weighted>
2.1339

> <Gold.Chemscore.Rot.Weighted>
5.2796

> <Gold.Chemscore.Internal.Correction.Weighted>
   9.000000E+99

> <Gold.Protein.RotatedTorsions>
[ 6907 6896 6895 6894 ] final -172.43 input  -60.11 | X-H torsion
[ 7974 7965 7964 7962 ] final  139.83 input  175.53 | X-H torsion
[ 8008 7997 7996 7995 ] final -160.09 input   59.86 | X-H torsion
[ 10167 10162 10161 10158 ] final  162.00 input  -65.29 | X-H torsion
[ 10718 10713 10712 10709 ] final  157.32 input   66.30 | X-H torsion
[ 10763 10752 10751 10750 ] final   20.41 input  -60.55 | X-H torsion
[ 11005 11000 10999 10996 ] final  122.14 input  -57.11 | X-H torsion

> <Gold.Protein.ActiveResidues>
 VAL166  LYS551  ARG553  GLY616  TRP617  ASP618  TYR619  PRO620  LYS621  CYS622 
 ASP623  PHE694  ASN695  SER759  ASP760  ASP761  ALA762  ILE779  LEU786  VAL792 
 PHE793  MET794  SER795  GLU796  ALA797  LYS798  CYS799  TRP800  GLU811  SER814 

> <Gold.Protein.RotatedAtoms>
  151.5399  133.3434  159.2933 H   0  0  0  0  0  0  0  0  0  0  0  0  # atno 6907 bound_to 6896
  150.8542  134.7878  159.7043 H   0  0  0  0  0  0  0  0  0  0  0  0  # atno 6908 bound_to 6896
  152.4580  134.5257  159.9847 H   0  0  0  0  0  0  0  0  0  0  0  0  # atno 6909 bound_to 6896
  144.9242  139.5128  143.5648 H   0  0  0  0  0  0  0  0  0  0  0  0  # atno 7974 bound_to 7965
  155.7723  140.0853  157.2101 H   0  0  0  0  0  0  0  0  0  0  0  0  # atno 8008 bound_to 7997
  154.3995  140.1523  156.3013 H   0  0  0  0  0  0  0  0  0  0  0  0  # atno 8009 bound_to 7997
  155.8735  140.3424  155.5840 H   0  0  0  0  0  0  0  0  0  0  0  0  # atno 8010 bound_to 7997
  139.4855  144.4481  151.8865 H   0  0  0  0  0  0  0  0  0  0  0  0  # atno 10167 bound_to 10162
  157.1930  131.0659  151.2068 H   0  0  0  0  0  0  0  0  0  0  0  0  # atno 10718 bound_to 10713
  153.1080  135.6689  153.9552 H   0  0  0  0  0  0  0  0  0  0  0  0  # atno 10763 bound_to 10752
  153.9104  135.3026  155.3450 H   0  0  0  0  0  0  0  0  0  0  0  0  # atno 10764 bound_to 10752
  154.7500  135.5039  153.9349 H   0  0  0  0  0  0  0  0  0  0  0  0  # atno 10765 bound_to 10752
  139.9255  134.9640  156.8064 H   0  0  0  0  0  0  0  0  0  0  0  0  # atno 11005 bound_to 11000
  146.3218  139.8145  142.8939 LP  0  0  0  0  0  0  0  0  0  0  0  0  # atno 17320 bound_to 7965
  145.3246  141.0252  143.3481 LP  0  0  0  0  0  0  0  0  0  0  0  0  # atno 17321 bound_to 7965
  140.3936  144.2583  150.5898 LP  0  0  0  0  0  0  0  0  0  0  0  0  # atno 17342 bound_to 10162
  140.5123  143.2287  151.8517 LP  0  0  0  0  0  0  0  0  0  0  0  0  # atno 17343 bound_to 10162
  157.3842  130.7247  149.6651 LP  0  0  0  0  0  0  0  0  0  0  0  0  # atno 17370 bound_to 10713
  155.9709  130.4164  150.4229 LP  0  0  0  0  0  0  0  0  0  0  0  0  # atno 17371 bound_to 10713
  140.6348  133.9872  155.7679 LP  0  0  0  0  0  0  0  0  0  0  0  0  # atno 17394 bound_to 11000
  141.0810  134.0063  157.3386 LP  0  0  0  0  0  0  0  0  0  0  0  0  # atno 17395 bound_to 11000

$$$$
