AV-unprocessed.smi:655|AV-procd|sdf|3216|dock4
  -GOLD-   22720 0153D 1   1.00000     0.00000
 Structure written by MMmdl.
 34 35  0  0  0  0  0  0  0  0  2 V2000
  152.9709  143.0794  160.2466 C   0  0  0  0  0  0  0  0  0  0  0  0
  152.5011  142.4878  158.9101 C   0  0  2  0  0  0  0  0  0  0  0  0
  151.8922  143.5659  157.9970 C   0  0  0  0  0  0  0  0  0  0  0  0
  151.4289  142.9749  156.6530 C   0  0  0  0  0  0  0  0  0  0  0  0
  150.4453  141.7902  156.8098 C   0  0  1  0  0  0  0  0  0  0  0  0
  149.2513  142.3201  157.3563 O   0  0  0  0  0  0  0  0  0  0  0  0
  150.1032  141.2193  155.4036 C   0  0  0  0  0  0  0  0  0  0  0  0
  150.3931  139.7842  155.2333 N   0  0  0  0  0  0  0  0  0  0  0  0
  149.3071  138.8903  155.2464 C   0  0  0  0  0  0  0  0  0  0  0  0
  149.4697  137.5621  155.0927 C   0  0  0  0  0  0  0  0  0  0  0  0
  148.1138  136.4915  155.1024 Cl  0  0  0  0  0  0  0  0  0  0  0  0
  150.8283  137.0542  154.9161 C   0  0  0  0  0  0  0  0  0  0  0  0
  151.0121  135.8473  154.7649 O   0  0  0  0  0  0  0  0  0  0  0  0
  151.8500  137.9593  154.9295 N   0  5  0  0  0  0  0  0  0  0  0  0
  151.6653  139.3058  155.0915 C   0  0  0  0  0  0  0  0  0  0  0  0
  152.6073  140.0980  155.1173 O   0  0  0  0  0  0  0  0  0  0  0  0
  151.0262  140.7390  157.7890 C   0  0  0  0  0  0  0  0  0  0  0  0
  151.4923  141.3464  159.1239 C   0  0  0  0  0  0  0  0  0  0  0  0
  152.1391  143.5125  160.8033 H   0  0  0  0  0  0  0  0  0  0  0  0
  153.7117  143.8636  160.0900 H   0  0  0  0  0  0  0  0  0  0  0  0
  153.4289  142.3143  160.8740 H   0  0  0  0  0  0  0  0  0  0  0  0
  153.3770  142.0744  158.4078 H   0  0  0  0  0  0  0  0  0  0  0  0
  151.0506  144.0452  158.4989 H   0  0  0  0  0  0  0  0  0  0  0  0
  152.6245  144.3527  157.8122 H   0  0  0  0  0  0  0  0  0  0  0  0
  150.9799  143.7604  156.0433 H   0  0  0  0  0  0  0  0  0  0  0  0
  152.3109  142.6394  156.1060 H   0  0  0  0  0  0  0  0  0  0  0  0
  148.9974  143.0751  156.8477 H   0  0  0  0  0  0  0  0  0  0  0  0
  149.0654  141.4392  155.1463 H   0  0  0  0  0  0  0  0  0  0  0  0
  150.6795  141.7637  154.6540 H   0  0  0  0  0  0  0  0  0  0  0  0
  148.3385  139.3494  155.3796 H   0  0  0  0  0  0  0  0  0  0  0  0
  150.2915  139.9597  157.9944 H   0  0  0  0  0  0  0  0  0  0  0  0
  151.8761  140.2426  157.3192 H   0  0  0  0  0  0  0  0  0  0  0  0
  151.9403  140.5649  159.7385 H   0  0  0  0  0  0  0  0  0  0  0  0
  150.6292  141.7144  159.6805 H   0  0  0  0  0  0  0  0  0  0  0  0
  1  2  1  0  0  0  0
  1 19  1  0  0  0  0
  1 20  1  0  0  0  0
  1 21  1  0  0  0  0
  2 18  1  0  0  0  0
  2  3  1  0  0  0  0
  2 22  1  0  0  0  0
  3  4  1  0  0  0  0
  3 23  1  0  0  0  0
  3 24  1  0  0  0  0
  4  5  1  0  0  0  0
  4 25  1  0  0  0  0
  4 26  1  0  0  0  0
  5  6  1  0  0  0  0
  5  7  1  0  0  0  0
  5 17  1  0  0  0  0
  6 27  1  0  0  0  0
  7  8  1  0  0  0  0
  7 28  1  0  0  0  0
  7 29  1  0  0  0  0
  8 15  1  0  0  0  0
  8  9  1  0  0  0  0
  9 10  2  0  0  0  0
  9 30  1  0  0  0  0
 10 11  1  0  0  0  0
 10 12  1  0  0  0  0
 12 13  2  0  0  0  0
 12 14  1  0  0  0  0
 14 15  1  0  0  0  0
 15 16  2  0  0  0  0
 17 18  1  0  0  0  0
 17 31  1  0  0  0  0
 17 32  1  0  0  0  0
 18 33  1  0  0  0  0
 18 34  1  0  0  0  0
M  CHG  1  14  -1
M  END
> <s_m_source_file>
AV-unprocessed.smi

> <i_m_source_file_index>
655

> <i_lp_mmshare_version>
43012

> <i_f3d_flags>
0

> <s_epik_input>
W0NIMl0xW0NIMl1bQ0BIXShbQ0gzXSlbQ0gyXVtDSDJdW0NAQF0xKFtPSF0pW0NIMl1uMltjSF1jKENsKWMoPU8pW25IXWMyPU8=

> <s_epik_cmdline>
J2VwaWtfcHl0aG9uJywgJy1waCcsICc3LjAnLCAnLXRuJywgJzgnLCAnLW1hJywgJzIwMCcsICctbWV0YWxfYmluZGluZycsICctaW1hZScsICc8aW5maWxlLm1hZT4nLCAnLW9tYWUnLCAnPG91dGZpbGUubWFlPic=

> <r_epik_Ionization_Penalty>
2.34257

> <r_epik_Ionization_Penalty_Charging>
1.00552e-07

> <r_epik_Ionization_Penalty_Neutral>
2.34257

> <r_epik_State_Penalty>
2.4963

> <r_epik_Charging_Adjusted_Penalty>
2.4963

> <i_epik_Tot_Q>
-1

> <i_epik_Tot_abs_Q>
1

> <r_epik_Metal_State_Penalty>
0.0381881

> <b_epik_Metal_Only>
0

> <s_lp_Force_Field>
OPLS_2005

> <r_lp_Energy>
26.568

> <b_lp_Chiralities_Consistent>
1

> <s_lp_Variant>
AV-unprocessed.smi:655-3

> <Gold.Version>
5.8.1

> <Gold.Id.Protein>
6NUR|6NUR_protein|mol2

> <Gold.PLP.Fitness>
38.4463

> <Gold.PLP.PLP>
-31.6317

> <Gold.PLP.part.hbond>
-4.0000

> <Gold.PLP.part.metal>
0.0000

> <Gold.PLP.part.buried>
-2.5843

> <Gold.PLP.part.nonpolar>
-25.8978

> <Gold.PLP.part.repulsive>
0.2507

> <Gold.PLP.ligand.clash>
0.0000

> <Gold.PLP.ligand.torsion>
1.3107

> <Gold.PLP.Chemscore.Hbond>
3.1266

> <Gold.PLP.Chemscore.CHOScore>
0.0000

> <Gold.PLP.Chemscore.Metal>
0.0000

> <Gold.Chemscore.Hbonds>
donor molecule, donor type, donor heavy atom, donor atom, acceptor molecule, acceptor atom, score
      L1  H     6    27       P1  8028  1.00
      P1  H  7989  7998       L1    16  0.08
      P1  H  7997  8010       L1    16  1.00
      P1  H 10752 10763       L1    13  1.00

> <Gold.PLP.Chemscore.Internal.Correction>
0.0564

> <Gold.Rescore>
     Score         DG    S(hbond)    S(metal)    S(lipo)     H(rot)  DE(clash)    DE(int)     intcor
     16.25     -19.64       2.84        0.00      79.49       1.81       1.98       1.42       ----

> <Gold.Chemscore.Fitness>
16.2459

> <Gold.Chemscore.DG>
-19.6432

> <Gold.Chemscore.ZeroCoef>
-5.4800

> <Gold.Chemscore.Hbond>
2.8427

> <Gold.Chemscore.Metal>
0.0000

> <Gold.Chemscore.Lipo>
79.4887

> <Gold.Chemscore.Internal_Hbond>
0.0000

> <Gold.Chemscore.DEClash>
1.9792

> <Gold.Chemscore.DEInternal>
1.4181

> <Gold.Chemscore.Rot>
1.8092

> <Gold.Chemscore.Internal.Correction>
   9.000000E+99

> <Gold.Chemscore.Hbonds>
donor molecule, donor type, donor heavy atom, donor atom, acceptor molecule, acceptor atom, score
      L1  H     6    27       P1  8028  0.87
      P1  H  7997  8010       L1    16  0.97
      P1  H 10752 10763       L1    13  0.60

> <Gold.Chemscore.Hbond.Weighted>
-9.4946

> <Gold.Chemscore.Metal.Weighted>
-0.0000

> <Gold.Chemscore.Lipo.Weighted>
-9.3002

> <Gold.Chemscore.Internal_Hbond.Weighted>
0.0000

> <Gold.Chemscore.DEClash.Weighted>
1.9792

> <Gold.Chemscore.DEInternal.Weighted>
1.4181

> <Gold.Chemscore.Rot.Weighted>
4.6316

> <Gold.Chemscore.Internal.Correction.Weighted>
   9.000000E+99

> <Gold.Protein.RotatedTorsions>
[ 6907 6896 6895 6894 ] final  163.02 input  -60.11 | X-H torsion
[ 7974 7965 7964 7962 ] final    9.90 input  175.53 | X-H torsion
[ 8008 7997 7996 7995 ] final  100.36 input   59.86 | X-H torsion
[ 10167 10162 10161 10158 ] final -115.22 input  -65.29 | X-H torsion
[ 10718 10713 10712 10709 ] final   72.43 input   66.30 | X-H torsion
[ 10763 10752 10751 10750 ] final   56.23 input  -60.55 | X-H torsion
[ 11005 11000 10999 10996 ] final -100.62 input  -57.11 | X-H torsion

> <Gold.Protein.ActiveResidues>
 VAL166  LYS551  ARG553  GLY616  TRP617  ASP618  TYR619  PRO620  LYS621  CYS622 
 ASP623  PHE694  ASN695  SER759  ASP760  ASP761  ALA762  ILE779  LEU786  VAL792 
 PHE793  MET794  SER795  GLU796  ALA797  LYS798  CYS799  TRP800  GLU811  SER814 

> <Gold.Protein.RotatedAtoms>
  151.9316  133.3612  159.3932 H   0  0  0  0  0  0  0  0  0  0  0  0  # atno 6907 bound_to 6896
  150.7016  134.4532  159.5355 H   0  0  0  0  0  0  0  0  0  0  0  0  # atno 6908 bound_to 6896
  152.2173  134.8446  160.0541 H   0  0  0  0  0  0  0  0  0  0  0  0  # atno 6909 bound_to 6896
  146.2397  139.9715  142.8446 H   0  0  0  0  0  0  0  0  0  0  0  0  # atno 7974 bound_to 7965
  156.1196  140.3214  155.8189 H   0  0  0  0  0  0  0  0  0  0  0  0  # atno 8008 bound_to 7997
  155.4528  140.0533  157.3016 H   0  0  0  0  0  0  0  0  0  0  0  0  # atno 8009 bound_to 7997
  154.4818  140.2056  155.9761 H   0  0  0  0  0  0  0  0  0  0  0  0  # atno 8010 bound_to 7997
  140.0924  143.4687  152.1862 H   0  0  0  0  0  0  0  0  0  0  0  0  # atno 10167 bound_to 10162
  157.6501  130.9578  150.0928 H   0  0  0  0  0  0  0  0  0  0  0  0  # atno 10718 bound_to 10713
  152.9829  135.5683  154.5195 H   0  0  0  0  0  0  0  0  0  0  0  0  # atno 10763 bound_to 10752
  154.4686  135.2784  155.1662 H   0  0  0  0  0  0  0  0  0  0  0  0  # atno 10764 bound_to 10752
  154.3219  135.6267  153.5565 H   0  0  0  0  0  0  0  0  0  0  0  0  # atno 10765 bound_to 10752
  141.1263  133.8413  157.1126 H   0  0  0  0  0  0  0  0  0  0  0  0  # atno 11005 bound_to 11000
  145.1677  140.9705  143.4340 LP  0  0  0  0  0  0  0  0  0  0  0  0  # atno 17320 bound_to 7965
  145.0057  139.3556  143.6145 LP  0  0  0  0  0  0  0  0  0  0  0  0  # atno 17321 bound_to 7965
  139.5717  144.7466  151.3873 LP  0  0  0  0  0  0  0  0  0  0  0  0  # atno 17342 bound_to 10162
  140.7021  143.7605  150.7421 LP  0  0  0  0  0  0  0  0  0  0  0  0  # atno 17343 bound_to 10162
  156.1872  130.3653  149.8957 LP  0  0  0  0  0  0  0  0  0  0  0  0  # atno 17370 bound_to 10713
  156.6894  130.8890  151.3586 LP  0  0  0  0  0  0  0  0  0  0  0  0  # atno 17371 bound_to 10713
  140.0266  134.9921  157.0697 LP  0  0  0  0  0  0  0  0  0  0  0  0  # atno 17394 bound_to 11000
  140.4353  134.1737  155.7170 LP  0  0  0  0  0  0  0  0  0  0  0  0  # atno 17395 bound_to 11000

$$$$
