AV-unprocessed.smi:509|AV-procd|sdf|2760|dock3
  -GOLD-   2262023223D 1   1.00000     0.00000
 Structure written by MMmdl.
 46 48  0  0  0  0  0  0  0  0  2 V2000
  150.6274  135.9707  154.9965 C   0  0  0  0  0  0  0  0  0  0  0  0
  151.7041  136.6042  155.6636 O   0  0  0  0  0  0  0  0  0  0  0  0
  151.2858  137.7187  156.4348 C   0  0  0  0  0  0  0  0  0  0  0  0
  151.2970  138.9797  155.5604 C   0  0  0  0  0  0  0  0  0  0  0  0
  150.7999  140.1494  156.2839 N   0  0  0  0  0  0  0  0  0  0  0  0
  149.7342  140.9490  155.9982 C   0  0  0  0  0  0  0  0  0  0  0  0
  148.8893  140.7249  154.9089 N   0  0  0  0  0  0  0  0  0  0  0  0
  148.4377  141.7197  153.9365 C   0  0  0  0  0  0  0  0  0  0  0  0
  146.9164  141.6395  153.7124 C   0  0  0  0  0  0  0  0  0  0  0  0
  146.5309  140.2789  153.2841 N   0  3  0  0  0  0  0  0  0  0  0  0
  147.0399  139.2312  154.1931 C   0  0  0  0  0  0  0  0  0  0  0  0
  148.5554  139.3902  154.4147 C   0  0  0  0  0  0  0  0  0  0  0  0
  149.5945  141.9957  156.8153 N   0  0  0  0  0  0  0  0  0  0  0  0
  150.6400  141.8399  157.7113 C   0  0  0  0  0  0  0  0  0  0  0  0
  151.3791  140.7481  157.4071 C   0  0  0  0  0  0  0  0  0  0  0  0
  152.5794  140.3705  158.1650 C   0  0  0  0  0  0  0  0  0  0  0  0
  153.2592  139.3927  157.8504 O   0  0  0  0  0  0  0  0  0  0  0  0
  152.8622  141.2002  159.2174 N   0  0  0  0  0  0  0  0  0  0  0  0
  154.0560  140.8578  160.0138 C   0  0  0  0  0  0  0  0  0  0  0  0
  152.1408  142.3326  159.5556 C   0  0  0  0  0  0  0  0  0  0  0  0
  152.4813  143.0583  160.4937 O   0  0  0  0  0  0  0  0  0  0  0  0
  151.0287  142.6429  158.8141 N   0  0  0  0  0  0  0  0  0  0  0  0
  150.2346  143.8295  159.1459 C   0  0  0  0  0  0  0  0  0  0  0  0
  151.0020  135.1285  154.4149 H   0  0  0  0  0  0  0  0  0  0  0  0
  150.1282  136.6576  154.3121 H   0  0  0  0  0  0  0  0  0  0  0  0
  149.8938  135.5888  155.7078 H   0  0  0  0  0  0  0  0  0  0  0  0
  150.2804  137.5468  156.8212 H   0  0  0  0  0  0  0  0  0  0  0  0
  151.9468  137.8504  157.2928 H   0  0  0  0  0  0  0  0  0  0  0  0
  152.3024  139.1540  155.1933 H   0  0  0  0  0  0  0  0  0  0  0  0
  150.6967  138.8301  154.6643 H   0  0  0  0  0  0  0  0  0  0  0  0
  148.7356  142.7217  154.2425 H   0  0  0  0  0  0  0  0  0  0  0  0
  148.9557  141.5403  152.9933 H   0  0  0  0  0  0  0  0  0  0  0  0
  146.3812  141.8879  154.6297 H   0  0  0  0  0  0  0  0  0  0  0  0
  146.6030  142.3572  152.9541 H   0  0  0  0  0  0  0  0  0  0  0  0
  145.5245  140.2159  153.2274 H   0  0  0  0  0  0  0  0  0  0  0  0
  146.5116  139.2997  155.1445 H   0  0  0  0  0  0  0  0  0  0  0  0
  146.8156  138.2502  153.7742 H   0  0  0  0  0  0  0  0  0  0  0  0
  149.0966  139.2055  153.4857 H   0  0  0  0  0  0  0  0  0  0  0  0
  148.8975  138.6387  155.1275 H   0  0  0  0  0  0  0  0  0  0  0  0
  154.0954  141.3360  160.9931 H   0  0  0  0  0  0  0  0  0  0  0  0
  154.9589  141.1454  159.4734 H   0  0  0  0  0  0  0  0  0  0  0  0
  154.1128  139.7863  160.2139 H   0  0  0  0  0  0  0  0  0  0  0  0
  149.9264  143.8095  160.1923 H   0  0  0  0  0  0  0  0  0  0  0  0
  149.3268  143.9104  158.5481 H   0  0  0  0  0  0  0  0  0  0  0  0
  150.8186  144.7355  158.9797 H   0  0  0  0  0  0  0  0  0  0  0  0
  146.9219  140.1151  152.3674 H   0  0  0  0  0  0  0  0  0  0  0  0
  1  2  1  0  0  0  0
  1 24  1  0  0  0  0
  1 25  1  0  0  0  0
  1 26  1  0  0  0  0
  2  3  1  0  0  0  0
  3  4  1  0  0  0  0
  3 27  1  0  0  0  0
  3 28  1  0  0  0  0
  4  5  1  0  0  0  0
  4 29  1  0  0  0  0
  4 30  1  0  0  0  0
  5 15  1  0  0  0  0
  5  6  1  0  0  0  0
  6  7  1  0  0  0  0
  6 13  2  0  0  0  0
  7 12  1  0  0  0  0
  7  8  1  0  0  0  0
  8  9  1  0  0  0  0
  8 31  1  0  0  0  0
  8 32  1  0  0  0  0
  9 10  1  0  0  0  0
  9 33  1  0  0  0  0
  9 34  1  0  0  0  0
 10 11  1  0  0  0  0
 10 35  1  0  0  0  0
 10 46  1  0  0  0  0
 11 12  1  0  0  0  0
 11 36  1  0  0  0  0
 11 37  1  0  0  0  0
 12 38  1  0  0  0  0
 12 39  1  0  0  0  0
 13 14  1  0  0  0  0
 14 22  1  0  0  0  0
 14 15  2  0  0  0  0
 15 16  1  0  0  0  0
 16 17  2  0  0  0  0
 16 18  1  0  0  0  0
 18 19  1  0  0  0  0
 18 20  1  0  0  0  0
 19 40  1  0  0  0  0
 19 41  1  0  0  0  0
 19 42  1  0  0  0  0
 20 21  2  0  0  0  0
 20 22  1  0  0  0  0
 22 23  1  0  0  0  0
 23 43  1  0  0  0  0
 23 44  1  0  0  0  0
 23 45  1  0  0  0  0
M  CHG  1  10   1
M  END
> <s_m_source_file>
AV-unprocessed.smi

> <i_m_source_file_index>
509

> <i_lp_mmshare_version>
43012

> <i_f3d_flags>
0

> <s_epik_input>
W0NIM11uMWMoPU8pbihbQ0gzXSljKD1PKWMoYzEyKW4oW0NIMl1bQ0gyXU9bQ0gzXSljKG4yKU4zW0NIMl1bQ0gyXVtOSF1bQ0gyXVtDSDJdMw==

> <s_epik_cmdline>
J2VwaWtfcHl0aG9uJywgJy1waCcsICc3LjAnLCAnLXRuJywgJzgnLCAnLW1hJywgJzIwMCcsICctbWV0YWxfYmluZGluZycsICctaW1hZScsICc8aW5maWxlLm1hZT4nLCAnLW9tYWUnLCAnPG91dGZpbGUubWFlPic=

> <r_epik_Ionization_Penalty>
0.00857468

> <r_epik_Ionization_Penalty_Charging>
0.00857162

> <r_epik_Ionization_Penalty_Neutral>
3.06002e-06

> <r_epik_State_Penalty>
0.00646614

> <r_epik_Charging_Adjusted_Penalty>
0.0150378

> <i_epik_Tot_Q>
1

> <i_epik_Tot_abs_Q>
1

> <r_epik_Metal_State_Penalty>
0.00646904

> <b_epik_Metal_Only>
0

> <s_lp_Force_Field>
OPLS_2005

> <r_lp_Energy>
52.9694

> <b_lp_Chiralities_Consistent>
1

> <s_lp_Variant>
AV-unprocessed.smi:509-1

> <Gold.Version>
5.8.1

> <Gold.Id.Protein>
6NUR|6NUR_protein|mol2

> <Gold.PLP.Fitness>
48.5305

> <Gold.PLP.PLP>
-37.7629

> <Gold.PLP.part.hbond>
-3.0000

> <Gold.PLP.part.metal>
0.0000

> <Gold.PLP.part.buried>
-5.0650

> <Gold.PLP.part.nonpolar>
-30.9093

> <Gold.PLP.part.repulsive>
0.8176

> <Gold.PLP.ligand.clash>
0.0137

> <Gold.PLP.ligand.torsion>
0.7869

> <Gold.PLP.Chemscore.Hbond>
4.0000

> <Gold.PLP.Chemscore.CHOScore>
0.0000

> <Gold.PLP.Chemscore.Metal>
0.0000

> <Gold.Chemscore.Hbonds>
donor molecule, donor type, donor heavy atom, donor atom, acceptor molecule, acceptor atom, score
      L1  H    10    35       P1 10175  2.00
      P1  H  7997  8008       L1    17  1.00
      P1  H 10752 10764       L1     2  0.95

> <Gold.PLP.Chemscore.Internal.Correction>
0.3550

> <Gold.Rescore>
     Score         DG    S(hbond)    S(metal)    S(lipo)     H(rot)  DE(clash)    DE(int)     intcor
     13.46     -16.28       2.29        0.00      59.94       1.51       0.04       2.78       ----

> <Gold.Chemscore.Fitness>
13.4626

> <Gold.Chemscore.DG>
-16.2829

> <Gold.Chemscore.ZeroCoef>
-5.4800

> <Gold.Chemscore.Hbond>
2.2909

> <Gold.Chemscore.Metal>
0.0000

> <Gold.Chemscore.Lipo>
59.9434

> <Gold.Chemscore.Internal_Hbond>
0.0000

> <Gold.Chemscore.DEClash>
0.0408

> <Gold.Chemscore.DEInternal>
2.7796

> <Gold.Chemscore.Rot>
1.5086

> <Gold.Chemscore.Internal.Correction>
   9.000000E+99

> <Gold.Chemscore.Hbonds>
donor molecule, donor type, donor heavy atom, donor atom, acceptor molecule, acceptor atom, score
      L1  H    10    35       P1 10175  0.95
      P1  H  7997  8008       L1    17  0.38
      P1  H 10752 10764       L1     2  0.21

> <Gold.Chemscore.Hbond.Weighted>
-7.6516

> <Gold.Chemscore.Metal.Weighted>
-0.0000

> <Gold.Chemscore.Lipo.Weighted>
-7.0134

> <Gold.Chemscore.Internal_Hbond.Weighted>
0.0000

> <Gold.Chemscore.DEClash.Weighted>
0.0408

> <Gold.Chemscore.DEInternal.Weighted>
2.7796

> <Gold.Chemscore.Rot.Weighted>
3.8620

> <Gold.Chemscore.Internal.Correction.Weighted>
   9.000000E+99

> <Gold.Protein.RotatedTorsions>
[ 6907 6896 6895 6894 ] final  129.65 input  -60.11 | X-H torsion
[ 7974 7965 7964 7962 ] final -116.46 input  175.53 | X-H torsion
[ 8008 7997 7996 7995 ] final  -62.63 input   59.86 | X-H torsion
[ 10167 10162 10161 10158 ] final   28.99 input  -65.29 | X-H torsion
[ 10718 10713 10712 10709 ] final  -30.19 input   66.30 | X-H torsion
[ 10763 10752 10751 10750 ] final  -28.52 input  -60.55 | X-H torsion
[ 11005 11000 10999 10996 ] final  -64.27 input  -57.11 | X-H torsion

> <Gold.Protein.ActiveResidues>
 VAL166  LYS551  ARG553  GLY616  TRP617  ASP618  TYR619  PRO620  LYS621  CYS622 
 ASP623  PHE694  ASN695  SER759  ASP760  ASP761  ALA762  ILE779  LEU786  VAL792 
 PHE793  MET794  SER795  GLU796  ALA797  LYS798  CYS799  TRP800  GLU811  SER814 

> <Gold.Protein.RotatedAtoms>
  152.3603  133.6289  159.6010 H   0  0  0  0  0  0  0  0  0  0  0  0  # atno 6907 bound_to 6896
  150.7597  133.9433  159.3472 H   0  0  0  0  0  0  0  0  0  0  0  0  # atno 6908 bound_to 6896
  151.7272  135.0883  160.0345 H   0  0  0  0  0  0  0  0  0  0  0  0  # atno 6909 bound_to 6896
  145.0965  140.8524  143.3951 H   0  0  0  0  0  0  0  0  0  0  0  0  # atno 7974 bound_to 7965
  154.4510  140.0992  156.6617 H   0  0  0  0  0  0  0  0  0  0  0  0  # atno 8008 bound_to 7997
  155.5286  140.3481  155.4403 H   0  0  0  0  0  0  0  0  0  0  0  0  # atno 8009 bound_to 7997
  156.0680  140.1342  156.9851 H   0  0  0  0  0  0  0  0  0  0  0  0  # atno 8010 bound_to 7997
  140.4805  144.0623  150.6264 H   0  0  0  0  0  0  0  0  0  0  0  0  # atno 10167 bound_to 10162
  156.4030  130.4394  149.7308 H   0  0  0  0  0  0  0  0  0  0  0  0  # atno 10718 bound_to 10713
  153.7497  135.6927  153.4948 H   0  0  0  0  0  0  0  0  0  0  0  0  # atno 10763 bound_to 10752
  153.2012  135.4436  155.0267 H   0  0  0  0  0  0  0  0  0  0  0  0  # atno 10764 bound_to 10752
  154.8192  135.3413  154.7018 H   0  0  0  0  0  0  0  0  0  0  0  0  # atno 10765 bound_to 10752
  141.1419  133.6663  156.5807 H   0  0  0  0  0  0  0  0  0  0  0  0  # atno 11005 bound_to 11000
  145.1005  139.2826  143.5689 LP  0  0  0  0  0  0  0  0  0  0  0  0  # atno 17320 bound_to 7965
  146.3530  140.0570  142.8632 LP  0  0  0  0  0  0  0  0  0  0  0  0  # atno 17321 bound_to 7965
  140.3864  143.2775  152.0111 LP  0  0  0  0  0  0  0  0  0  0  0  0  # atno 17342 bound_to 10162
  139.4832  144.6113  151.7428 LP  0  0  0  0  0  0  0  0  0  0  0  0  # atno 17343 bound_to 10162
  156.4317  130.7818  151.2838 LP  0  0  0  0  0  0  0  0  0  0  0  0  # atno 17370 bound_to 10713
  157.7504  131.0152  150.3494 LP  0  0  0  0  0  0  0  0  0  0  0  0  # atno 17371 bound_to 10713
  140.3840  134.7499  157.4679 LP  0  0  0  0  0  0  0  0  0  0  0  0  # atno 17394 bound_to 11000
  140.0616  134.5987  155.8742 LP  0  0  0  0  0  0  0  0  0  0  0  0  # atno 17395 bound_to 11000

$$$$
