AV-unprocessed.smi:218|AV-procd|sdf|1677|dock1
  -GOLD-   2262020103D 1   1.00000     0.00000
 Structure written by MMmdl.
 54 57  0  0  0  0  0  0  0  0  1 V2000
  151.6483  145.7928  160.0433 C   0  0  0  0  0  0  0  0  0  0  0  0
  151.7413  144.4104  159.3865 C   0  0  0  0  0  0  0  0  0  0  0  0
  150.3452  143.7975  159.1803 C   0  0  0  0  0  0  0  0  0  0  0  0
  152.5200  143.5897  160.2592 O   0  0  0  0  0  0  0  0  0  0  0  0
  152.7376  142.2604  159.9515 C   0  0  0  0  0  0  0  0  0  0  0  0
  153.5449  141.4987  160.8202 C   0  0  0  0  0  0  0  0  0  0  0  0
  153.7711  140.1377  160.5250 C   0  0  0  0  0  0  0  0  0  0  0  0
  154.6261  139.2715  161.4353 C   0  0  0  0  0  0  0  0  0  0  0  0
  154.7606  137.8820  161.0100 N   0  0  0  0  0  0  0  0  0  0  0  0
  154.6569  136.8810  161.9115 C   0  0  0  0  0  0  0  0  0  0  0  0
  154.2823  137.1274  163.1945 N   0  0  0  0  0  0  0  0  0  0  0  0
  154.1830  136.1202  164.0676 C   0  0  0  0  0  0  0  0  0  0  0  0
  154.4027  134.8180  163.8689 N   0  0  0  0  0  0  0  0  0  0  0  0
  154.7744  134.5680  162.5800 C   0  0  0  0  0  0  0  0  0  0  0  0
  154.9250  135.5360  161.5495 C   0  0  0  0  0  0  0  0  0  0  0  0
  155.3212  134.9124  160.3734 N   0  0  0  0  0  0  0  0  0  0  0  0
  155.3972  133.6487  160.6960 C   0  0  0  0  0  0  0  0  0  0  0  0
  155.0811  133.3545  162.0057 N   0  0  0  0  0  0  0  0  0  0  0  0
  155.0607  132.0320  162.7021 C   0  0  1  0  0  0  0  0  0  0  0  0
  155.8397  132.1450  163.8585 O   0  0  0  0  0  0  0  0  0  0  0  0
  155.0437  131.9784  165.0307 C   0  0  1  0  0  0  0  0  0  0  0  0
  155.5472  132.9188  166.1372 C   0  0  0  0  0  0  0  0  0  0  0  0
  156.8629  132.5757  166.5164 O   0  0  0  0  0  0  0  0  0  0  0  0
  153.6121  132.2475  164.5618 C   0  0  2  0  0  0  0  0  0  0  0  0
  152.6282  131.6289  165.3684 O   0  0  0  0  0  0  0  0  0  0  0  0
  153.6268  131.7090  163.1386 C   0  0  2  0  0  0  0  0  0  0  0  0
  153.3785  130.3169  163.0628 O   0  0  0  0  0  0  0  0  0  0  0  0
  153.1892  139.5957  159.3621 C   0  0  0  0  0  0  0  0  0  0  0  0
  152.4021  140.4366  158.5521 C   0  0  0  0  0  0  0  0  0  0  0  0
  152.1770  141.7374  158.8328 N   0  0  0  0  0  0  0  0  0  0  0  0
  155.4897  131.3339  161.9817 H   0  0  0  0  0  0  0  0  0  0  0  0
  155.1487  130.9364  165.3386 H   0  0  0  0  0  0  0  0  0  0  0  0
  153.4269  133.3224  164.5358 H   0  0  0  0  0  0  0  0  0  0  0  0
  152.8981  132.2148  162.5032 H   0  0  0  0  0  0  0  0  0  0  0  0
  151.0721  146.4835  159.4272 H   0  0  0  0  0  0  0  0  0  0  0  0
  152.6396  146.2237  160.1853 H   0  0  0  0  0  0  0  0  0  0  0  0
  151.1677  145.7352  161.0204 H   0  0  0  0  0  0  0  0  0  0  0  0
  152.2374  144.5431  158.4239 H   0  0  0  0  0  0  0  0  0  0  0  0
  149.7277  144.4380  158.5502 H   0  0  0  0  0  0  0  0  0  0  0  0
  149.8288  143.6691  160.1318 H   0  0  0  0  0  0  0  0  0  0  0  0
  150.3979  142.8212  158.6993 H   0  0  0  0  0  0  0  0  0  0  0  0
  153.9756  141.9529  161.7004 H   0  0  0  0  0  0  0  0  0  0  0  0
  155.6169  139.7139  161.5470 H   0  0  0  0  0  0  0  0  0  0  0  0
  154.1761  139.2780  162.4281 H   0  0  0  0  0  0  0  0  0  0  0  0
  155.1464  137.7442  160.0870 H   0  0  0  0  0  0  0  0  0  0  0  0
  153.8841  136.3977  165.0676 H   0  0  0  0  0  0  0  0  0  0  0  0
  155.6864  132.8954  159.9782 H   0  0  0  0  0  0  0  0  0  0  0  0
  155.5569  133.9481  165.7781 H   0  0  0  0  0  0  0  0  0  0  0  0
  154.8938  132.8882  167.0093 H   0  0  0  0  0  0  0  0  0  0  0  0
  157.3301  132.2804  165.7492 H   0  0  0  0  0  0  0  0  0  0  0  0
  151.7881  132.0041  165.1505 H   0  0  0  0  0  0  0  0  0  0  0  0
  153.6209  129.9246  163.8878 H   0  0  0  0  0  0  0  0  0  0  0  0
  153.3364  138.5593  159.0965 H   0  0  0  0  0  0  0  0  0  0  0  0
  151.9395  140.0537  157.6546 H   0  0  0  0  0  0  0  0  0  0  0  0
  1  2  1  0  0  0  0
  1 35  1  0  0  0  0
  1 36  1  0  0  0  0
  1 37  1  0  0  0  0
  2  3  1  0  0  0  0
  2  4  1  0  0  0  0
  2 38  1  0  0  0  0
  3 39  1  0  0  0  0
  3 40  1  0  0  0  0
  3 41  1  0  0  0  0
  4  5  1  0  0  0  0
  5 30  1  0  0  0  0
  5  6  2  0  0  0  0
  6  7  1  0  0  0  0
  6 42  1  0  0  0  0
  7  8  1  0  0  0  0
  7 28  2  0  0  0  0
  8  9  1  0  0  0  0
  8 43  1  0  0  0  0
  8 44  1  0  0  0  0
  9 10  1  0  0  0  0
  9 45  1  0  0  0  0
 10 15  1  0  0  0  0
 10 11  2  0  0  0  0
 11 12  1  0  0  0  0
 12 13  2  0  0  0  0
 12 46  1  0  0  0  0
 13 14  1  0  0  0  0
 14 18  1  0  0  0  0
 14 15  2  0  0  0  0
 15 16  1  0  0  0  0
 16 17  2  0  0  0  0
 17 18  1  0  0  0  0
 17 47  1  0  0  0  0
 18 19  1  0  0  0  0
 19 31  1  0  0  0  0
 19 26  1  0  0  0  0
 19 20  1  0  0  0  0
 20 21  1  0  0  0  0
 21 32  1  0  0  0  0
 21 22  1  0  0  0  0
 21 24  1  0  0  0  0
 22 23  1  0  0  0  0
 22 48  1  0  0  0  0
 22 49  1  0  0  0  0
 23 50  1  0  0  0  0
 24 33  1  0  0  0  0
 24 25  1  0  0  0  0
 24 26  1  0  0  0  0
 25 51  1  0  0  0  0
 26 34  1  0  0  0  0
 26 27  1  0  0  0  0
 27 52  1  0  0  0  0
 28 29  1  0  0  0  0
 28 53  1  0  0  0  0
 29 30  2  0  0  0  0
 29 54  1  0  0  0  0
M  END
> <s_m_source_file>
AV-unprocessed.smi

> <i_m_source_file_index>
218

> <i_lp_mmshare_version>
43012

> <i_f3d_flags>
0

> <s_epik_input>
W0NIM11bQ0hdKFtDSDNdKU9jMVtjSF1jKFtjSF1bY0hdbjEpW0NIMl1bTkhdYyhuW2NIXW4yKWMoYzIzKW5bY0hdbjNbQ0BASF00T1tDQEhdKFtDSDJdW09IXSlbQ0BASF0oW09IXSlbQ0BIXTRbT0hd

> <s_epik_cmdline>
J2VwaWtfcHl0aG9uJywgJy1waCcsICc3LjAnLCAnLXRuJywgJzgnLCAnLW1hJywgJzIwMCcsICctbWV0YWxfYmluZGluZycsICctaW1hZScsICc8aW5maWxlLm1hZT4nLCAnLW9tYWUnLCAnPG91dGZpbGUubWFlPic=

> <r_lp_tautomer_probability>
1

> <r_epik_Ionization_Penalty>
0.00457014

> <r_epik_Ionization_Penalty_Charging>
0

> <r_epik_Ionization_Penalty_Neutral>
0.00457014

> <r_epik_State_Penalty>
-0

> <r_epik_Charging_Adjusted_Penalty>
0

> <i_epik_Tot_Q>
0

> <i_epik_Tot_abs_Q>
0

> <r_epik_Metal_State_Penalty>
-0

> <b_epik_Metal_Only>
0

> <s_epik_Chemistry_Notes>
This compound contains an acetal/aminal-like group ( X-CH(R)-Y where X, Y are N, S, or O) that may be acid/base labile, releasing an aldehyde.

> <s_lp_Force_Field>
OPLS_2005

> <r_lp_Energy>
38.234

> <b_lp_Chiralities_Consistent>
1

> <s_lp_Variant>
AV-unprocessed.smi:218-16

> <Gold.Version>
5.8.1

> <Gold.Id.Protein>
6NUR|6NUR_protein|mol2

> <Gold.PLP.Fitness>
49.0471

> <Gold.PLP.PLP>
-49.3717

> <Gold.PLP.part.hbond>
-0.8434

> <Gold.PLP.part.metal>
0.0000

> <Gold.PLP.part.buried>
-7.6322

> <Gold.PLP.part.nonpolar>
-40.6375

> <Gold.PLP.part.repulsive>
0.0909

> <Gold.PLP.ligand.clash>
0.0000

> <Gold.PLP.ligand.torsion>
0.1970

> <Gold.PLP.Chemscore.Hbond>
0.0000

> <Gold.PLP.Chemscore.CHOScore>
0.0000

> <Gold.PLP.Chemscore.Metal>
0.0000

> <Gold.PLP.Chemscore.Internal.Correction>
0.0693

> <Gold.Rescore>
     Score         DG    S(hbond)    S(metal)    S(lipo)     H(rot)  DE(clash)    DE(int)     intcor
      0.85      -4.49       0.00        0.00      98.83       4.90       0.01       3.63       ----

> <Gold.Chemscore.Fitness>
0.8491

> <Gold.Chemscore.DG>
-4.4917

> <Gold.Chemscore.ZeroCoef>
-5.4800

> <Gold.Chemscore.Hbond>
0.0000

> <Gold.Chemscore.Metal>
0.0000

> <Gold.Chemscore.Lipo>
98.8307

> <Gold.Chemscore.Internal_Hbond>
0.0000

> <Gold.Chemscore.DEClash>
0.0121

> <Gold.Chemscore.DEInternal>
3.6304

> <Gold.Chemscore.Rot>
4.9029

> <Gold.Chemscore.Internal.Correction>
   9.000000E+99

> <Gold.Chemscore.Hbond.Weighted>
-0.0000

> <Gold.Chemscore.Metal.Weighted>
-0.0000

> <Gold.Chemscore.Lipo.Weighted>
-11.5632

> <Gold.Chemscore.Internal_Hbond.Weighted>
0.0000

> <Gold.Chemscore.DEClash.Weighted>
0.0121

> <Gold.Chemscore.DEInternal.Weighted>
3.6304

> <Gold.Chemscore.Rot.Weighted>
12.5515

> <Gold.Chemscore.Internal.Correction.Weighted>
   9.000000E+99

> <Gold.Protein.RotatedTorsions>
[ 6907 6896 6895 6894 ] final  -45.05 input  -60.11 | X-H torsion
[ 7974 7965 7964 7962 ] final  -30.26 input  175.53 | X-H torsion
[ 8008 7997 7996 7995 ] final  176.89 input   59.86 | X-H torsion
[ 10167 10162 10161 10158 ] final  -84.66 input  -65.29 | X-H torsion
[ 10718 10713 10712 10709 ] final   24.39 input   66.30 | X-H torsion
[ 10763 10752 10751 10750 ] final  -86.71 input  -60.55 | X-H torsion
[ 11005 11000 10999 10996 ] final   11.43 input  -57.11 | X-H torsion

> <Gold.Protein.ActiveResidues>
 VAL166  LYS551  ARG553  GLY616  TRP617  ASP618  TYR619  PRO620  LYS621  CYS622 
 ASP623  PHE694  ASN695  SER759  ASP760  ASP761  ALA762  ILE779  LEU786  VAL792 
 PHE793  MET794  SER795  GLU796  ALA797  LYS798  CYS799  TRP800  GLU811  SER814 

> <Gold.Protein.RotatedAtoms>
  150.9261  134.8678  159.7520 H   0  0  0  0  0  0  0  0  0  0  0  0  # atno 6907 bound_to 6896
  152.5016  134.4147  159.9470 H   0  0  0  0  0  0  0  0  0  0  0  0  # atno 6908 bound_to 6896
  151.4177  133.3668  159.2787 H   0  0  0  0  0  0  0  0  0  0  0  0  # atno 6909 bound_to 6896
  146.1156  140.5517  142.8758 H   0  0  0  0  0  0  0  0  0  0  0  0  # atno 7974 bound_to 7965
  156.0716  140.1372  156.9821 H   0  0  0  0  0  0  0  0  0  0  0  0  # atno 8008 bound_to 7997
  154.4535  140.0970  156.6740 H   0  0  0  0  0  0  0  0  0  0  0  0  # atno 8009 bound_to 7997
  155.5219  140.3456  155.4410 H   0  0  0  0  0  0  0  0  0  0  0  0  # atno 8010 bound_to 7997
  140.4111  143.2622  151.9016 H   0  0  0  0  0  0  0  0  0  0  0  0  # atno 10167 bound_to 10162
  157.1791  130.6794  149.6106 H   0  0  0  0  0  0  0  0  0  0  0  0  # atno 10718 bound_to 10713
  154.6255  135.5439  153.7622 H   0  0  0  0  0  0  0  0  0  0  0  0  # atno 10763 bound_to 10752
  153.0259  135.6423  154.1378 H   0  0  0  0  0  0  0  0  0  0  0  0  # atno 10764 bound_to 10752
  154.1311  135.2914  155.3165 H   0  0  0  0  0  0  0  0  0  0  0  0  # atno 10765 bound_to 10752
  140.5034  134.0724  155.7799 H   0  0  0  0  0  0  0  0  0  0  0  0  # atno 11005 bound_to 11000
  144.7550  140.5285  143.6775 LP  0  0  0  0  0  0  0  0  0  0  0  0  # atno 17320 bound_to 7965
  145.5573  139.1478  143.3361 LP  0  0  0  0  0  0  0  0  0  0  0  0  # atno 17321 bound_to 7965
  139.4782  144.5536  151.8348 LP  0  0  0  0  0  0  0  0  0  0  0  0  # atno 17342 bound_to 10162
  140.4637  144.1686  150.5909 LP  0  0  0  0  0  0  0  0  0  0  0  0  # atno 17343 bound_to 10162
  155.9727  130.4653  150.6248 LP  0  0  0  0  0  0  0  0  0  0  0  0  # atno 17370 bound_to 10713
  157.3970  131.0804  151.1343 LP  0  0  0  0  0  0  0  0  0  0  0  0  # atno 17371 bound_to 10713
  141.1424  133.9115  157.2295 LP  0  0  0  0  0  0  0  0  0  0  0  0  # atno 17394 bound_to 11000
  139.9700  135.0131  156.9488 LP  0  0  0  0  0  0  0  0  0  0  0  0  # atno 17395 bound_to 11000

$$$$
