AV-unprocessed.smi:1487|AV-procd|sdf|6015|dock3
  -GOLD-   22720 6113D 1   1.00000     0.00000
 Structure written by MMmdl.
 49 51  0  0  0  0  0  0  0  0  3 V2000
  152.1723  140.7694  157.3824 C   0  0  0  0  0  0  0  0  0  0  0  0
  151.0866  140.6549  156.3257 C   0  0  0  0  0  0  0  0  0  0  0  0
  150.1737  141.7232  156.1777 C   0  0  0  0  0  0  0  0  0  0  0  0
  149.1936  141.5897  155.2014 C   0  0  0  0  0  0  0  0  0  0  0  0
  148.1663  142.4528  154.8154 N   0  3  0  0  0  0  0  0  0  0  0  0
  147.4507  141.8852  153.8056 C   0  0  0  0  0  0  0  0  0  0  0  0
  148.0083  140.6730  153.5371 N   0  0  0  0  0  0  0  0  0  0  0  0
  147.6087  139.6597  152.5499 C   0  0  0  0  0  0  0  0  0  0  0  0
  146.8158  138.4895  153.1667 C   0  0  2  0  0  0  0  0  0  0  0  0
  147.7616  137.5625  153.6603 O   0  0  0  0  0  0  0  0  0  0  0  0
  145.8813  137.7785  152.1611 C   0  0  0  0  0  0  0  0  0  0  0  0
  146.0540  136.3026  152.1361 N   0  3  1  0  0  0  0  0  0  0  0  0
  145.4777  135.6158  153.3243 C   0  0  0  0  0  0  0  0  0  0  0  0
  145.7939  134.1105  153.3040 C   0  0  0  0  0  0  0  0  0  0  0  0
  145.2938  133.4603  152.0082 C   0  0  0  0  0  0  0  0  0  0  0  0
  145.8769  134.2021  150.7971 C   0  0  1  0  0  0  0  0  0  0  0  0
  145.3347  133.6654  149.6099 O   0  0  0  0  0  0  0  0  0  0  0  0
  145.5569  135.7062  150.8685 C   0  0  0  0  0  0  0  0  0  0  0  0
  149.0977  140.4434  154.3878 C   0  0  0  0  0  0  0  0  0  0  0  0
  149.9889  139.3807  154.5232 C   0  0  0  0  0  0  0  0  0  0  0  0
  150.9952  139.4988  155.5084 C   0  0  0  0  0  0  0  0  0  0  0  0
  151.9835  138.3568  155.6748 C   0  0  0  0  0  0  0  0  0  0  0  0
  152.1172  141.7218  157.9105 H   0  0  0  0  0  0  0  0  0  0  0  0
  153.1603  140.6990  156.9266 H   0  0  0  0  0  0  0  0  0  0  0  0
  152.0735  139.9731  158.1205 H   0  0  0  0  0  0  0  0  0  0  0  0
  150.2360  142.6057  156.7978 H   0  0  0  0  0  0  0  0  0  0  0  0
  146.5925  142.3174  153.3110 H   0  0  0  0  0  0  0  0  0  0  0  0
  147.0484  140.1375  151.7462 H   0  0  0  0  0  0  0  0  0  0  0  0
  148.5263  139.2842  152.0947 H   0  0  0  0  0  0  0  0  0  0  0  0
  146.2482  138.8759  154.0125 H   0  0  0  0  0  0  0  0  0  0  0  0
  147.9865  136.9543  152.9728 H   0  0  0  0  0  0  0  0  0  0  0  0
  144.8359  138.0015  152.3767 H   0  0  0  0  0  0  0  0  0  0  0  0
  146.0811  138.1837  151.1677 H   0  0  0  0  0  0  0  0  0  0  0  0
  145.8765  136.0419  154.2435 H   0  0  0  0  0  0  0  0  0  0  0  0
  144.3979  135.7709  153.3476 H   0  0  0  0  0  0  0  0  0  0  0  0
  146.8702  133.9602  153.3985 H   0  0  0  0  0  0  0  0  0  0  0  0
  145.3367  133.6218  154.1649 H   0  0  0  0  0  0  0  0  0  0  0  0
  145.5759  132.4069  151.9834 H   0  0  0  0  0  0  0  0  0  0  0  0
  144.2033  133.4940  151.9803 H   0  0  0  0  0  0  0  0  0  0  0  0
  146.9584  134.0614  150.7685 H   0  0  0  0  0  0  0  0  0  0  0  0
  145.9166  133.8669  148.8927 H   0  0  0  0  0  0  0  0  0  0  0  0
  144.4806  135.8714  150.7896 H   0  0  0  0  0  0  0  0  0  0  0  0
  146.0186  136.2116  150.0189 H   0  0  0  0  0  0  0  0  0  0  0  0
  149.9235  138.4978  153.9051 H   0  0  0  0  0  0  0  0  0  0  0  0
  151.7729  137.5417  154.9818 H   0  0  0  0  0  0  0  0  0  0  0  0
  151.9369  137.9533  156.6866 H   0  0  0  0  0  0  0  0  0  0  0  0
  153.0006  138.7005  155.4850 H   0  0  0  0  0  0  0  0  0  0  0  0
  147.0494  136.1330  152.1499 H   0  0  0  0  0  0  0  0  0  0  0  0
  147.9625  143.3604  155.2145 H   0  0  0  0  0  0  0  0  0  0  0  0
  1  2  1  0  0  0  0
  1 23  1  0  0  0  0
  1 24  1  0  0  0  0
  1 25  1  0  0  0  0
  2 21  1  0  0  0  0
  2  3  2  0  0  0  0
  3  4  1  0  0  0  0
  3 26  1  0  0  0  0
  4 19  2  0  0  0  0
  4  5  1  0  0  0  0
  5  6  2  0  0  0  0
  5 49  1  0  0  0  0
  6  7  1  0  0  0  0
  6 27  1  0  0  0  0
  7  8  1  0  0  0  0
  7 19  1  0  0  0  0
  8  9  1  0  0  0  0
  8 28  1  0  0  0  0
  8 29  1  0  0  0  0
  9 10  1  0  0  0  0
  9 11  1  0  0  0  0
  9 30  1  0  0  0  0
 10 31  1  0  0  0  0
 11 12  1  0  0  0  0
 11 32  1  0  0  0  0
 11 33  1  0  0  0  0
 12 18  1  0  0  0  0
 12 13  1  0  0  0  0
 12 48  1  0  0  0  0
 13 14  1  0  0  0  0
 13 34  1  0  0  0  0
 13 35  1  0  0  0  0
 14 15  1  0  0  0  0
 14 36  1  0  0  0  0
 14 37  1  0  0  0  0
 15 16  1  0  0  0  0
 15 38  1  0  0  0  0
 15 39  1  0  0  0  0
 16 17  1  0  0  0  0
 16 18  1  0  0  0  0
 16 40  1  0  0  0  0
 17 41  1  0  0  0  0
 18 42  1  0  0  0  0
 18 43  1  0  0  0  0
 19 20  1  0  0  0  0
 20 21  2  0  0  0  0
 20 44  1  0  0  0  0
 21 22  1  0  0  0  0
 22 45  1  0  0  0  0
 22 46  1  0  0  0  0
 22 47  1  0  0  0  0
M  CHG  1   5   1
M  CHG  1  12   1
M  END
> <s_m_source_file>
AV-unprocessed.smi

> <i_m_source_file_index>
1487

> <i_lp_mmshare_version>
43012

> <i_f3d_flags>
0

> <s_epik_input>
W0NIM11jKFtjSF0xKWMoW0NIM10pW2NIXWMoYzEyKW4oW2NIXW4yKVtDSDJdW0NASF0oW09IXSlbQ0gyXU4zW0NIMl1bQ0gyXVtDSDJdW0NAQEhdKFtPSF0pW0NIMl0z

> <s_epik_cmdline>
J2VwaWtfcHl0aG9uJywgJy1waCcsICc3LjAnLCAnLXRuJywgJzgnLCAnLW1hJywgJzIwMCcsICctbWV0YWxfYmluZGluZycsICctaW1hZScsICc8aW5maWxlLm1hZT4nLCAnLW9tYWUnLCAnPG91dGZpbGUubWFlPic=

> <r_epik_Ionization_Penalty>
1.1857

> <r_epik_Ionization_Penalty_Charging>
1.1857

> <r_epik_Ionization_Penalty_Neutral>
1.75578e-06

> <r_epik_State_Penalty>
1.26953

> <r_epik_Charging_Adjusted_Penalty>
2.45524

> <i_epik_Tot_Q>
2

> <i_epik_Tot_abs_Q>
2

> <r_epik_Metal_State_Penalty>
5.28243

> <b_epik_Metal_Only>
0

> <s_lp_Force_Field>
OPLS_2005

> <r_lp_Energy>
33.096

> <b_lp_Chiralities_Consistent>
1

> <s_lp_Variant>
AV-unprocessed.smi:1487-9

> <Gold.Version>
5.8.1

> <Gold.Id.Protein>
6NUR|6NUR_protein|mol2

> <Gold.PLP.Fitness>
52.2471

> <Gold.PLP.PLP>
-37.0448

> <Gold.PLP.part.hbond>
-3.9448

> <Gold.PLP.part.metal>
0.0000

> <Gold.PLP.part.buried>
2.0873

> <Gold.PLP.part.nonpolar>
-35.4545

> <Gold.PLP.part.repulsive>
0.2162

> <Gold.PLP.ligand.clash>
0.0000

> <Gold.PLP.ligand.torsion>
1.3942

> <Gold.PLP.Chemscore.Hbond>
5.9840

> <Gold.PLP.Chemscore.CHOScore>
0.0000

> <Gold.PLP.Chemscore.Metal>
0.0000

> <Gold.Chemscore.Hbonds>
donor molecule, donor type, donor heavy atom, donor atom, acceptor molecule, acceptor atom, score
      L1  H     5    49       P1  8028  1.47
      L1  H    10    31       P1  7948  1.00
      L1  H    12    48       P1  7948  2.00
      L1  H    17    41       P1  7921  0.73

> <Gold.PLP.Chemscore.Internal.Correction>
0.0386

> <Gold.Rescore>
     Score         DG    S(hbond)    S(metal)    S(lipo)     H(rot)  DE(clash)    DE(int)     intcor
     17.11     -21.43       3.64        0.00      92.45       2.74       1.57       2.75       ----

> <Gold.Chemscore.Fitness>
17.1085

> <Gold.Chemscore.DG>
-21.4313

> <Gold.Chemscore.ZeroCoef>
-5.4800

> <Gold.Chemscore.Hbond>
3.6361

> <Gold.Chemscore.Metal>
0.0000

> <Gold.Chemscore.Lipo>
92.4546

> <Gold.Chemscore.Internal_Hbond>
0.0000

> <Gold.Chemscore.DEClash>
1.5687

> <Gold.Chemscore.DEInternal>
2.7540

> <Gold.Chemscore.Rot>
2.7384

> <Gold.Chemscore.Internal.Correction>
   9.000000E+99

> <Gold.Chemscore.Hbonds>
donor molecule, donor type, donor heavy atom, donor atom, acceptor molecule, acceptor atom, score
      L1  H     5    49       P1  8028  0.52
      L1  H    10    31       P1  7948  0.98
      L1  H    12    48       P1  7948  1.00
      L1  H    17    41       P1  7921  0.10

> <Gold.Chemscore.Hbond.Weighted>
-12.1445

> <Gold.Chemscore.Metal.Weighted>
-0.0000

> <Gold.Chemscore.Lipo.Weighted>
-10.8172

> <Gold.Chemscore.Internal_Hbond.Weighted>
0.0000

> <Gold.Chemscore.DEClash.Weighted>
1.5687

> <Gold.Chemscore.DEInternal.Weighted>
2.7540

> <Gold.Chemscore.Rot.Weighted>
7.0103

> <Gold.Chemscore.Internal.Correction.Weighted>
   9.000000E+99

> <Gold.Protein.RotatedTorsions>
[ 6907 6896 6895 6894 ] final  -10.67 input  -60.11 | X-H torsion
[ 7974 7965 7964 7962 ] final   61.80 input  175.53 | X-H torsion
[ 8008 7997 7996 7995 ] final  -84.60 input   59.86 | X-H torsion
[ 10167 10162 10161 10158 ] final  -52.33 input  -65.29 | X-H torsion
[ 10718 10713 10712 10709 ] final   84.76 input   66.30 | X-H torsion
[ 10763 10752 10751 10750 ] final   63.43 input  -60.55 | X-H torsion
[ 11005 11000 10999 10996 ] final  -15.12 input  -57.11 | X-H torsion

> <Gold.Protein.ActiveResidues>
 VAL166  LYS551  ARG553  GLY616  TRP617  ASP618  TYR619  PRO620  LYS621  CYS622 
 ASP623  PHE694  ASN695  SER759  ASP760  ASP761  ALA762  ILE779  LEU786  VAL792 
 PHE793  MET794  SER795  GLU796  ALA797  LYS798  CYS799  TRP800  GLU811  SER814 

> <Gold.Protein.RotatedAtoms>
  151.3982  135.0967  159.9547 H   0  0  0  0  0  0  0  0  0  0  0  0  # atno 6907 bound_to 6896
  152.5058  133.8913  159.7406 H   0  0  0  0  0  0  0  0  0  0  0  0  # atno 6908 bound_to 6896
  150.9382  133.6631  159.2825 H   0  0  0  0  0  0  0  0  0  0  0  0  # atno 6909 bound_to 6896
  145.8806  139.3441  143.0708 H   0  0  0  0  0  0  0  0  0  0  0  0  # atno 7974 bound_to 7965
  154.6316  140.0603  156.9739 H   0  0  0  0  0  0  0  0  0  0  0  0  # atno 8008 bound_to 7997
  155.1656  140.3286  155.4384 H   0  0  0  0  0  0  0  0  0  0  0  0  # atno 8009 bound_to 7997
  156.2486  140.1923  156.6761 H   0  0  0  0  0  0  0  0  0  0  0  0  # atno 8010 bound_to 7997
  140.6543  143.2587  151.4633 H   0  0  0  0  0  0  0  0  0  0  0  0  # atno 10167 bound_to 10162
  157.6903  131.0147  150.2721 H   0  0  0  0  0  0  0  0  0  0  0  0  # atno 10718 bound_to 10713
  153.0017  135.5429  154.6350 H   0  0  0  0  0  0  0  0  0  0  0  0  # atno 10763 bound_to 10752
  154.5619  135.2834  155.0913 H   0  0  0  0  0  0  0  0  0  0  0  0  # atno 10764 bound_to 10752
  154.2112  135.6467  153.5168 H   0  0  0  0  0  0  0  0  0  0  0  0  # atno 10765 bound_to 10752
  140.7934  133.8270  155.9401 H   0  0  0  0  0  0  0  0  0  0  0  0  # atno 11005 bound_to 11000
  145.9028  140.9232  143.0494 LP  0  0  0  0  0  0  0  0  0  0  0  0  # atno 17320 bound_to 7965
  144.6727  140.1055  143.7458 LP  0  0  0  0  0  0  0  0  0  0  0  0  # atno 17321 bound_to 7965
  139.5762  144.1813  152.1907 LP  0  0  0  0  0  0  0  0  0  0  0  0  # atno 17342 bound_to 10162
  140.1124  144.5445  150.6916 LP  0  0  0  0  0  0  0  0  0  0  0  0  # atno 17343 bound_to 10162
  156.3282  130.3796  149.7514 LP  0  0  0  0  0  0  0  0  0  0  0  0  # atno 17370 bound_to 10713
  156.5062  130.8151  151.3151 LP  0  0  0  0  0  0  0  0  0  0  0  0  # atno 17371 bound_to 10713
  140.9366  134.1953  157.4827 LP  0  0  0  0  0  0  0  0  0  0  0  0  # atno 17394 bound_to 11000
  139.8729  134.9855  156.5284 LP  0  0  0  0  0  0  0  0  0  0  0  0  # atno 17395 bound_to 11000

$$$$
