AV-unprocessed.smi:102|AV-procd|sdf|975|dock8
  -GOLD-   2262017533D 1   1.00000     0.00000
 Structure written by MMmdl.
 43 44  0  0  0  0  0  0  0  0  2 V2000
  153.0011  142.3424  161.8636 C   0  0  0  0  0  0  0  0  0  0  0  0
  153.2103  141.6317  160.5330 C   0  0  0  0  0  0  0  0  0  0  0  0
  154.1398  140.8423  160.3637 O   0  0  0  0  0  0  0  0  0  0  0  0
  152.2874  141.9709  159.6210 O   0  0  0  0  0  0  0  0  0  0  0  0
  152.2174  141.2562  158.3984 C   0  0  0  0  0  0  0  0  0  0  0  0
  151.0996  141.8432  157.5257 C   0  0  2  0  0  0  0  0  0  0  0  0
  149.8204  141.6148  158.1050 O   0  0  0  0  0  0  0  0  0  0  0  0
  148.8421  141.7005  157.1107 C   0  0  2  0  0  0  0  0  0  0  0  0
  147.8562  140.5664  157.3034 N   0  0  0  0  0  0  0  0  0  0  0  0
  148.2928  139.2529  157.3405 C   0  0  0  0  0  0  0  0  0  0  0  0
  147.4253  138.2313  157.4863 C   0  0  0  0  0  0  0  0  0  0  0  0
  147.8797  136.9666  157.5156 F   0  0  0  0  0  0  0  0  0  0  0  0
  145.9955  138.5091  157.6082 C   0  0  0  0  0  0  0  0  0  0  0  0
  145.2088  137.5738  157.7466 O   0  0  0  0  0  0  0  0  0  0  0  0
  145.5927  139.8121  157.5609 N   0  5  0  0  0  0  0  0  0  0  0  0
  146.4663  140.8494  157.4033 C   0  0  0  0  0  0  0  0  0  0  0  0
  146.1078  142.0248  157.3298 O   0  0  0  0  0  0  0  0  0  0  0  0
  149.5595  141.6411  155.7446 C   0  0  2  0  0  0  0  0  0  0  0  0
  148.9387  140.7540  154.8175 O   0  0  0  0  0  0  0  0  0  0  0  0
  147.8297  141.1260  154.1599 C   0  0  0  0  0  0  0  0  0  0  0  0
  147.2522  139.9958  153.3190 C   0  0  0  0  0  0  0  0  0  0  0  0
  147.3071  142.2402  154.1896 O   0  0  0  0  0  0  0  0  0  0  0  0
  150.9745  141.2210  156.1331 C   0  0  2  0  0  0  0  0  0  0  0  0
  151.0950  139.8032  156.2426 O   0  0  0  0  0  0  0  0  0  0  0  0
  152.0019  139.1263  155.5170 C   0  0  0  0  0  0  0  0  0  0  0  0
  151.8427  137.6175  155.6501 C   0  0  0  0  0  0  0  0  0  0  0  0
  152.8775  139.6179  154.8053 O   0  0  0  0  0  0  0  0  0  0  0  0
  151.9865  142.1766  162.2267 H   0  0  0  0  0  0  0  0  0  0  0  0
  153.1578  143.4149  161.7481 H   0  0  0  0  0  0  0  0  0  0  0  0
  153.7007  141.9691  162.6118 H   0  0  0  0  0  0  0  0  0  0  0  0
  153.1747  141.3478  157.8836 H   0  0  0  0  0  0  0  0  0  0  0  0
  152.0423  140.1950  158.5824 H   0  0  0  0  0  0  0  0  0  0  0  0
  151.2423  142.9195  157.4131 H   0  0  0  0  0  0  0  0  0  0  0  0
  148.2846  142.6264  157.2572 H   0  0  0  0  0  0  0  0  0  0  0  0
  149.3450  139.0303  157.2477 H   0  0  0  0  0  0  0  0  0  0  0  0
  149.5764  142.6615  155.3584 H   0  0  0  0  0  0  0  0  0  0  0  0
  147.0596  139.1220  153.9420 H   0  0  0  0  0  0  0  0  0  0  0  0
  147.9532  139.7141  152.5333 H   0  0  0  0  0  0  0  0  0  0  0  0
  146.3153  140.3030  152.8542 H   0  0  0  0  0  0  0  0  0  0  0  0
  151.7211  141.6341  155.4535 H   0  0  0  0  0  0  0  0  0  0  0  0
  150.8992  137.3674  156.1362 H   0  0  0  0  0  0  0  0  0  0  0  0
  152.6582  137.2039  156.2430 H   0  0  0  0  0  0  0  0  0  0  0  0
  151.8569  137.1488  154.6659 H   0  0  0  0  0  0  0  0  0  0  0  0
  1  2  1  0  0  0  0
  1 28  1  0  0  0  0
  1 29  1  0  0  0  0
  1 30  1  0  0  0  0
  2  3  2  0  0  0  0
  2  4  1  0  0  0  0
  4  5  1  0  0  0  0
  5  6  1  0  0  0  0
  5 31  1  0  0  0  0
  5 32  1  0  0  0  0
  6 23  1  0  0  0  0
  6  7  1  0  0  0  0
  6 33  1  0  0  0  0
  7  8  1  0  0  0  0
  8  9  1  0  0  0  0
  8 18  1  0  0  0  0
  8 34  1  0  0  0  0
  9 16  1  0  0  0  0
  9 10  1  0  0  0  0
 10 11  2  0  0  0  0
 10 35  1  0  0  0  0
 11 12  1  0  0  0  0
 11 13  1  0  0  0  0
 13 14  2  0  0  0  0
 13 15  1  0  0  0  0
 15 16  1  0  0  0  0
 16 17  2  0  0  0  0
 18 19  1  0  0  0  0
 18 23  1  0  0  0  0
 18 36  1  0  0  0  0
 19 20  1  0  0  0  0
 20 21  1  0  0  0  0
 20 22  2  0  0  0  0
 21 37  1  0  0  0  0
 21 38  1  0  0  0  0
 21 39  1  0  0  0  0
 23 24  1  0  0  0  0
 23 40  1  0  0  0  0
 24 25  1  0  0  0  0
 25 26  1  0  0  0  0
 25 27  2  0  0  0  0
 26 41  1  0  0  0  0
 26 42  1  0  0  0  0
 26 43  1  0  0  0  0
M  CHG  1  15  -1
M  END
> <s_m_source_file>
AV-unprocessed.smi

> <i_m_source_file_index>
102

> <i_lp_mmshare_version>
43012

> <i_f3d_flags>
0

> <s_epik_input>
W0NIM11DKD1PKU9bQ0gyXVtDQEBIXTFPW0NASF0oW0NAQEhdKE9DKD1PKVtDSDNdKVtDQEhdMU9DKD1PKVtDSDNdKW4yW2NIXWMoRiljKD1PKVtuSF1jMj1P

> <s_epik_cmdline>
J2VwaWtfcHl0aG9uJywgJy1waCcsICc3LjAnLCAnLXRuJywgJzgnLCAnLW1hJywgJzIwMCcsICctbWV0YWxfYmluZGluZycsICctaW1hZScsICc8aW5maWxlLm1hZT4nLCAnLW9tYWUnLCAnPG91dGZpbGUubWFlPic=

> <r_epik_Ionization_Penalty>
1.40304

> <r_epik_Ionization_Penalty_Charging>
1.43915e-08

> <r_epik_Ionization_Penalty_Neutral>
1.40304

> <r_epik_State_Penalty>
1.48536

> <r_epik_Charging_Adjusted_Penalty>
1.48536

> <i_epik_Tot_Q>
-1

> <i_epik_Tot_abs_Q>
1

> <r_epik_Metal_State_Penalty>
0.00663881

> <b_epik_Metal_Only>
0

> <s_epik_Chemistry_Notes>
This compound has an ester and may undergo hydrolysis at high or low pH. This compound contains an acetal/aminal-like group ( X-CH(R)-Y where X, Y are N, S, or O) that may be acid/base labile, releasing an aldehyde.

> <s_lp_Force_Field>
OPLS_2005

> <r_lp_Energy>
23.9264

> <b_lp_Chiralities_Consistent>
1

> <s_lp_Variant>
AV-unprocessed.smi:102-31

> <Gold.Version>
5.8.1

> <Gold.Id.Protein>
6NUR|6NUR_protein|mol2

> <Gold.PLP.Fitness>
37.2125

> <Gold.PLP.PLP>
-35.1657

> <Gold.PLP.part.hbond>
-1.9829

> <Gold.PLP.part.metal>
0.0000

> <Gold.PLP.part.buried>
-6.3187

> <Gold.PLP.part.nonpolar>
-27.2506

> <Gold.PLP.part.repulsive>
0.4671

> <Gold.PLP.ligand.clash>
0.0000

> <Gold.PLP.ligand.torsion>
1.0970

> <Gold.PLP.Chemscore.Hbond>
1.3563

> <Gold.PLP.Chemscore.CHOScore>
0.0000

> <Gold.PLP.Chemscore.Metal>
0.0000

> <Gold.Chemscore.Hbonds>
donor molecule, donor type, donor heavy atom, donor atom, acceptor molecule, acceptor atom, score
      P1  H  7989  7998       L1    27  0.32
      P1  H  7997  8010       L1    27  1.00

> <Gold.PLP.Chemscore.Internal.Correction>
0.1719

> <Gold.Rescore>
     Score         DG    S(hbond)    S(metal)    S(lipo)     H(rot)  DE(clash)    DE(int)     intcor
      3.93      -5.08       1.00        0.00      55.55       4.00       0.00       1.15       ----

> <Gold.Chemscore.Fitness>
3.9261

> <Gold.Chemscore.DG>
-5.0821

> <Gold.Chemscore.ZeroCoef>
-5.4800

> <Gold.Chemscore.Hbond>
0.9970

> <Gold.Chemscore.Metal>
0.0000

> <Gold.Chemscore.Lipo>
55.5517

> <Gold.Chemscore.Internal_Hbond>
0.0000

> <Gold.Chemscore.DEClash>
0.0029

> <Gold.Chemscore.DEInternal>
1.1531

> <Gold.Chemscore.Rot>
3.9951

> <Gold.Chemscore.Internal.Correction>
   9.000000E+99

> <Gold.Chemscore.Hbonds>
donor molecule, donor type, donor heavy atom, donor atom, acceptor molecule, acceptor atom, score
      P1  H  7989  7998       L1    27  0.09
      P1  H  7997  8010       L1    27  0.76

> <Gold.Chemscore.Hbond.Weighted>
-3.3299

> <Gold.Chemscore.Metal.Weighted>
-0.0000

> <Gold.Chemscore.Lipo.Weighted>
-6.4996

> <Gold.Chemscore.Internal_Hbond.Weighted>
0.0000

> <Gold.Chemscore.DEClash.Weighted>
0.0029

> <Gold.Chemscore.DEInternal.Weighted>
1.1531

> <Gold.Chemscore.Rot.Weighted>
10.2274

> <Gold.Chemscore.Internal.Correction.Weighted>
   9.000000E+99

> <Gold.Protein.RotatedTorsions>
[ 6907 6896 6895 6894 ] final   44.69 input  -60.11 | X-H torsion
[ 7974 7965 7964 7962 ] final  173.49 input  175.53 | X-H torsion
[ 8008 7997 7996 7995 ] final  102.61 input   59.86 | X-H torsion
[ 10167 10162 10161 10158 ] final    8.60 input  -65.29 | X-H torsion
[ 10718 10713 10712 10709 ] final    6.86 input   66.30 | X-H torsion
[ 10763 10752 10751 10750 ] final  -70.43 input  -60.55 | X-H torsion
[ 11005 11000 10999 10996 ] final -176.22 input  -57.11 | X-H torsion

> <Gold.Protein.ActiveResidues>
 VAL166  LYS551  ARG553  GLY616  TRP617  ASP618  TYR619  PRO620  LYS621  CYS622 
 ASP623  PHE694  ASN695  SER759  ASP760  ASP761  ALA762  ILE779  LEU786  VAL792 
 PHE793  MET794  SER795  GLU796  ALA797  LYS798  CYS799  TRP800  GLU811  SER814 

> <Gold.Protein.RotatedAtoms>
  152.2355  134.8280  160.0467 H   0  0  0  0  0  0  0  0  0  0  0  0  # atno 6907 bound_to 6896
  151.9013  133.3534  159.3840 H   0  0  0  0  0  0  0  0  0  0  0  0  # atno 6908 bound_to 6896
  150.7038  134.4751  159.5488 H   0  0  0  0  0  0  0  0  0  0  0  0  # atno 6909 bound_to 6896
  144.7242  139.9656  143.6436 H   0  0  0  0  0  0  0  0  0  0  0  0  # atno 7974 bound_to 7965
  156.1408  140.3178  155.8493 H   0  0  0  0  0  0  0  0  0  0  0  0  # atno 8008 bound_to 7997
  155.4157  140.0509  157.3046 H   0  0  0  0  0  0  0  0  0  0  0  0  # atno 8009 bound_to 7997
  154.4975  140.2116  155.9428 H   0  0  0  0  0  0  0  0  0  0  0  0  # atno 8010 bound_to 7997
  140.6305  143.8005  150.7289 H   0  0  0  0  0  0  0  0  0  0  0  0  # atno 10167 bound_to 10162
  156.9284  130.5816  149.5649 H   0  0  0  0  0  0  0  0  0  0  0  0  # atno 10718 bound_to 10713
  154.4176  135.5994  153.5990 H   0  0  0  0  0  0  0  0  0  0  0  0  # atno 10763 bound_to 10752
  152.9792  135.5944  154.3994 H   0  0  0  0  0  0  0  0  0  0  0  0  # atno 10764 bound_to 10752
  154.3815  135.2841  155.2187 H   0  0  0  0  0  0  0  0  0  0  0  0  # atno 10765 bound_to 10752
  140.4545  134.6312  157.4816 H   0  0  0  0  0  0  0  0  0  0  0  0  # atno 11005 bound_to 11000
  146.0603  139.3597  143.0585 LP  0  0  0  0  0  0  0  0  0  0  0  0  # atno 17320 bound_to 7965
  145.8101  140.9730  143.0953 LP  0  0  0  0  0  0  0  0  0  0  0  0  # atno 17321 bound_to 7965
  140.1615  143.4271  152.2063 LP  0  0  0  0  0  0  0  0  0  0  0  0  # atno 17342 bound_to 10162
  139.5519  144.7344  151.4408 LP  0  0  0  0  0  0  0  0  0  0  0  0  # atno 17343 bound_to 10162
  156.0459  130.5535  150.8878 LP  0  0  0  0  0  0  0  0  0  0  0  0  # atno 17370 bound_to 10713
  157.5863  131.0945  150.9191 LP  0  0  0  0  0  0  0  0  0  0  0  0  # atno 17371 bound_to 10713
  139.9985  134.6873  155.9569 LP  0  0  0  0  0  0  0  0  0  0  0  0  # atno 17394 bound_to 11000
  141.1649  133.6537  156.4446 LP  0  0  0  0  0  0  0  0  0  0  0  0  # atno 17395 bound_to 11000

$$$$
