AV-unprocessed.smi:2079|AV-procd|sdf|8477|dock6
  -GOLD-   2272011183D 1   1.00000     0.00000
 Structure written by MMmdl.
 42 43  0  0  0  0  0  0  0  0  2 V2000
  153.3216  139.6089  157.9788 C   0  0  0  0  0  0  0  0  0  0  0  0
  152.7055  139.0264  156.7532 C   0  0  0  0  0  0  0  0  0  0  0  0
  151.9366  137.9178  156.5353 C   0  0  0  0  0  0  0  0  0  0  0  0
  151.7057  137.9592  155.1346 C   0  0  0  0  0  0  0  0  0  0  0  0
  150.9343  136.9564  154.4935 N   0  0  0  0  0  0  0  0  0  0  0  0
  150.7403  135.6898  154.8991 C   0  0  0  0  0  0  0  0  0  0  0  0
  151.2167  135.1887  155.9180 O   0  0  0  0  0  0  0  0  0  0  0  0
  149.9532  135.0169  154.0470 N   0  0  0  0  0  0  0  0  0  0  0  0
  149.5479  133.6260  154.2132 C   0  0  0  0  0  0  0  0  0  0  0  0
  148.8898  133.0728  152.9333 C   0  0  0  0  0  0  0  0  0  0  0  0
  147.6793  133.8303  152.5158 N   0  3  2  0  0  0  0  0  0  0  0  0
  146.8840  134.2955  153.6847 C   0  0  0  0  0  0  0  0  0  0  0  0
  145.7675  135.2608  153.2566 C   0  0  0  0  0  0  0  0  0  0  0  0
  144.8612  134.6217  152.1988 C   0  0  0  0  0  0  0  0  0  0  0  0
  145.7067  134.1348  151.0142 C   0  0  0  0  0  0  0  0  0  0  0  0
  146.8402  133.1846  151.4568 C   0  0  2  0  0  0  0  0  0  0  0  0
  146.3102  131.7891  151.8513 C   0  0  0  0  0  0  0  0  0  0  0  0
  152.2772  139.0016  154.5508 N   0  0  0  0  0  0  0  0  0  0  0  0
  152.9220  139.6901  155.5851 O   0  0  0  0  0  0  0  0  0  0  0  0
  152.9082  139.1509  158.8776 H   0  0  0  0  0  0  0  0  0  0  0  0
  153.1393  140.6826  158.0318 H   0  0  0  0  0  0  0  0  0  0  0  0
  154.3996  139.4476  157.9821 H   0  0  0  0  0  0  0  0  0  0  0  0
  151.5984  137.1946  157.2628 H   0  0  0  0  0  0  0  0  0  0  0  0
  150.4784  137.2359  153.6374 H   0  0  0  0  0  0  0  0  0  0  0  0
  149.6031  135.5022  153.2335 H   0  0  0  0  0  0  0  0  0  0  0  0
  150.4079  133.0175  154.4988 H   0  0  0  0  0  0  0  0  0  0  0  0
  148.8515  133.5995  155.0505 H   0  0  0  0  0  0  0  0  0  0  0  0
  149.6115  133.0282  152.1174 H   0  0  0  0  0  0  0  0  0  0  0  0
  148.5889  132.0413  153.1211 H   0  0  0  0  0  0  0  0  0  0  0  0
  146.4656  133.4411  154.2174 H   0  0  0  0  0  0  0  0  0  0  0  0
  147.5375  134.8093  154.3909 H   0  0  0  0  0  0  0  0  0  0  0  0
  145.1772  135.5563  154.1246 H   0  0  0  0  0  0  0  0  0  0  0  0
  146.2084  136.1750  152.8570 H   0  0  0  0  0  0  0  0  0  0  0  0
  144.3085  133.7890  152.6348 H   0  0  0  0  0  0  0  0  0  0  0  0
  144.1173  135.3419  151.8571 H   0  0  0  0  0  0  0  0  0  0  0  0
  145.0691  133.6479  150.2755 H   0  0  0  0  0  0  0  0  0  0  0  0
  146.1420  134.9999  150.5116 H   0  0  0  0  0  0  0  0  0  0  0  0
  147.4657  133.0478  150.5756 H   0  0  0  0  0  0  0  0  0  0  0  0
  145.6908  131.3751  151.0553 H   0  0  0  0  0  0  0  0  0  0  0  0
  145.6999  131.8157  152.7536 H   0  0  0  0  0  0  0  0  0  0  0  0
  147.1203  131.0795  152.0170 H   0  0  0  0  0  0  0  0  0  0  0  0
  148.0343  134.6757  152.0919 H   0  0  0  0  0  0  0  0  0  0  0  0
  1  2  1  0  0  0  0
  1 20  1  0  0  0  0
  1 21  1  0  0  0  0
  1 22  1  0  0  0  0
  2 19  1  0  0  0  0
  2  3  2  0  0  0  0
  3  4  1  0  0  0  0
  3 23  1  0  0  0  0
  4  5  1  0  0  0  0
  4 18  2  0  0  0  0
  5  6  1  0  0  0  0
  5 24  1  0  0  0  0
  6  7  2  0  0  0  0
  6  8  1  0  0  0  0
  8  9  1  0  0  0  0
  8 25  1  0  0  0  0
  9 10  1  0  0  0  0
  9 26  1  0  0  0  0
  9 27  1  0  0  0  0
 10 11  1  0  0  0  0
 10 28  1  0  0  0  0
 10 29  1  0  0  0  0
 11 16  1  0  0  0  0
 11 12  1  0  0  0  0
 11 42  1  0  0  0  0
 12 13  1  0  0  0  0
 12 30  1  0  0  0  0
 12 31  1  0  0  0  0
 13 14  1  0  0  0  0
 13 32  1  0  0  0  0
 13 33  1  0  0  0  0
 14 15  1  0  0  0  0
 14 34  1  0  0  0  0
 14 35  1  0  0  0  0
 15 16  1  0  0  0  0
 15 36  1  0  0  0  0
 15 37  1  0  0  0  0
 16 17  1  0  0  0  0
 16 38  1  0  0  0  0
 17 39  1  0  0  0  0
 17 40  1  0  0  0  0
 17 41  1  0  0  0  0
 18 19  1  0  0  0  0
M  CHG  1  11   1
M  END
> <s_m_source_file>
AV-unprocessed.smi

> <i_m_source_file_index>
2079

> <i_lp_mmshare_version>
43012

> <i_f3d_flags>
0

> <s_epik_input>
W0NIM11jMVtjSF1jKG5vMSlbTkhdQyg9TylbTkhdW0NIMl1bQ0gyXU4yW0NIMl1bQ0gyXVtDSDJdW0NIMl1bQ0BIXTJbQ0gzXQ==

> <s_epik_cmdline>
J2VwaWtfcHl0aG9uJywgJy1waCcsICc3LjAnLCAnLXRuJywgJzgnLCAnLW1hJywgJzIwMCcsICctbWV0YWxfYmluZGluZycsICctaW1hZScsICc8aW5maWxlLm1hZT4nLCAnLW9tYWUnLCAnPG91dGZpbGUubWFlPic=

> <r_epik_Ionization_Penalty>
0.00265971

> <r_epik_Ionization_Penalty_Charging>
0.00262393

> <r_epik_Ionization_Penalty_Neutral>
3.57846e-05

> <r_epik_State_Penalty>
0.00182566

> <r_epik_Charging_Adjusted_Penalty>
0.00444959

> <i_epik_Tot_Q>
1

> <i_epik_Tot_abs_Q>
1

> <r_epik_Metal_State_Penalty>
0.0216344

> <b_epik_Metal_Only>
0

> <s_lp_Force_Field>
OPLS_2005

> <r_lp_Energy>
16.7127

> <b_lp_Chiralities_Consistent>
1

> <s_lp_Variant>
AV-unprocessed.smi:2079-3

> <Gold.Version>
5.8.1

> <Gold.Id.Protein>
6NUR|6NUR_protein|mol2

> <Gold.PLP.Fitness>
40.6868

> <Gold.PLP.PLP>
-27.5048

> <Gold.PLP.part.hbond>
-4.4426

> <Gold.PLP.part.metal>
0.0000

> <Gold.PLP.part.buried>
-1.9345

> <Gold.PLP.part.nonpolar>
-20.1952

> <Gold.PLP.part.repulsive>
0.1897

> <Gold.PLP.ligand.clash>
0.0000

> <Gold.PLP.ligand.torsion>
0.3616

> <Gold.PLP.Chemscore.Hbond>
4.6185

> <Gold.PLP.Chemscore.CHOScore>
0.0000

> <Gold.PLP.Chemscore.Metal>
0.0000

> <Gold.Chemscore.Hbonds>
donor molecule, donor type, donor heavy atom, donor atom, acceptor molecule, acceptor atom, score
      L1  H     8    25       P1  7948  0.50
      L1  H    11    42       P1  7948  2.00
      P1  H  7989  7998       L1    18  0.29
      P1  H  7997  8010       L1    19  0.55
      P1  H 10752 10763       L1     7  0.01

> <Gold.PLP.Chemscore.Internal.Correction>
0.0496

> <Gold.Rescore>
     Score         DG    S(hbond)    S(metal)    S(lipo)     H(rot)  DE(clash)    DE(int)     intcor
     15.09     -16.67       2.76        0.00      51.10       1.57       0.00       1.57       ----

> <Gold.Chemscore.Fitness>
15.0945

> <Gold.Chemscore.DG>
-16.6691

> <Gold.Chemscore.ZeroCoef>
-5.4800

> <Gold.Chemscore.Hbond>
2.7631

> <Gold.Chemscore.Metal>
0.0000

> <Gold.Chemscore.Lipo>
51.1022

> <Gold.Chemscore.Internal_Hbond>
0.0000

> <Gold.Chemscore.DEClash>
0.0004

> <Gold.Chemscore.DEInternal>
1.5742

> <Gold.Chemscore.Rot>
1.5697

> <Gold.Chemscore.Internal.Correction>
   9.000000E+99

> <Gold.Chemscore.Hbonds>
donor molecule, donor type, donor heavy atom, donor atom, acceptor molecule, acceptor atom, score
      L1  H     8    25       P1  7948  0.02
      L1  H    11    42       P1  7948  0.26
      P1  H  7989  7998       L1    18  0.03
      P1  H  7997  8010       L1    19  0.03
      P1  H 10752 10763       L1     7  0.01

> <Gold.Chemscore.Hbond.Weighted>
-9.2286

> <Gold.Chemscore.Metal.Weighted>
-0.0000

> <Gold.Chemscore.Lipo.Weighted>
-5.9790

> <Gold.Chemscore.Internal_Hbond.Weighted>
0.0000

> <Gold.Chemscore.DEClash.Weighted>
0.0004

> <Gold.Chemscore.DEInternal.Weighted>
1.5742

> <Gold.Chemscore.Rot.Weighted>
4.0185

> <Gold.Chemscore.Internal.Correction.Weighted>
   9.000000E+99

> <Gold.Protein.RotatedTorsions>
[ 6907 6896 6895 6894 ] final  126.85 input  -60.11 | X-H torsion
[ 7974 7965 7964 7962 ] final   35.36 input  175.53 | X-H torsion
[ 8008 7997 7996 7995 ] final   92.14 input   59.86 | X-H torsion
[ 10167 10162 10161 10158 ] final -171.56 input  -65.29 | X-H torsion
[ 10718 10713 10712 10709 ] final -109.22 input   66.30 | X-H torsion
[ 10763 10752 10751 10750 ] final  122.10 input  -60.55 | X-H torsion
[ 11005 11000 10999 10996 ] final  115.13 input  -57.11 | X-H torsion

> <Gold.Protein.ActiveResidues>
 VAL166  LYS551  ARG553  GLY616  TRP617  ASP618  TYR619  PRO620  LYS621  CYS622 
 ASP623  PHE694  ASN695  SER759  ASP760  ASP761  ALA762  ILE779  LEU786  VAL792 
 PHE793  MET794  SER795  GLU796  ALA797  LYS798  CYS799  TRP800  GLU811  SER814 

> <Gold.Protein.RotatedAtoms>
  152.3866  133.6619  159.6203 H   0  0  0  0  0  0  0  0  0  0  0  0  # atno 6907 bound_to 6896
  150.7783  133.9025  159.3354 H   0  0  0  0  0  0  0  0  0  0  0  0  # atno 6908 bound_to 6896
  151.6820  135.0961  160.0269 H   0  0  0  0  0  0  0  0  0  0  0  0  # atno 6909 bound_to 6896
  146.1289  139.6153  142.9240 H   0  0  0  0  0  0  0  0  0  0  0  0  # atno 7974 bound_to 7965
  156.0319  140.3329  155.7149 H   0  0  0  0  0  0  0  0  0  0  0  0  # atno 8008 bound_to 7997
  155.5872  140.0642  157.2785 H   0  0  0  0  0  0  0  0  0  0  0  0  # atno 8009 bound_to 7997
  154.4356  140.1833  156.1026 H   0  0  0  0  0  0  0  0  0  0  0  0  # atno 8010 bound_to 7997
  139.5795  144.1455  152.1496 H   0  0  0  0  0  0  0  0  0  0  0  0  # atno 10167 bound_to 10162
  156.0526  130.5753  150.8070 H   0  0  0  0  0  0  0  0  0  0  0  0  # atno 10718 bound_to 10713
  153.6244  135.3407  155.3021 H   0  0  0  0  0  0  0  0  0  0  0  0  # atno 10763 bound_to 10752
  154.8593  135.4280  154.2173 H   0  0  0  0  0  0  0  0  0  0  0  0  # atno 10764 bound_to 10752
  153.3053  135.7027  153.7238 H   0  0  0  0  0  0  0  0  0  0  0  0  # atno 10765 bound_to 10752
  139.9001  134.9579  156.6999 H   0  0  0  0  0  0  0  0  0  0  0  0  # atno 11005 bound_to 11000
  145.5305  141.0427  143.2385 LP  0  0  0  0  0  0  0  0  0  0  0  0  # atno 17320 bound_to 7965
  144.7670  139.6822  143.7211 LP  0  0  0  0  0  0  0  0  0  0  0  0  # atno 17321 bound_to 7965
  140.1005  144.5543  150.6992 LP  0  0  0  0  0  0  0  0  0  0  0  0  # atno 17342 bound_to 10162
  140.7075  143.2479  151.4682 LP  0  0  0  0  0  0  0  0  0  0  0  0  # atno 17343 bound_to 10162
  157.5466  131.0942  150.9754 LP  0  0  0  0  0  0  0  0  0  0  0  0  # atno 17370 bound_to 10713
  157.0024  130.5605  149.5312 LP  0  0  0  0  0  0  0  0  0  0  0  0  # atno 17371 bound_to 10713
  140.7159  133.9183  155.8114 LP  0  0  0  0  0  0  0  0  0  0  0  0  # atno 17394 bound_to 11000
  141.0265  134.0816  157.4063 LP  0  0  0  0  0  0  0  0  0  0  0  0  # atno 17395 bound_to 11000

$$$$
