AV-unprocessed.smi:2137|AV-procd|sdf|8708|dock9
  -GOLD-   2272011473D 1   1.00000     0.00000
 Structure written by MMmdl.
 50 51  0  0  0  0  0  0  0  0  2 V2000
  143.3737  132.3445  150.8064 C   0  0  0  0  0  0  0  0  0  0  0  0
  144.4675  133.0970  150.0279 C   0  0  2  0  0  0  0  0  0  0  0  0
  145.8297  132.3797  150.0663 C   0  0  0  0  0  0  0  0  0  0  0  0
  146.5012  132.5313  151.4384 C   0  0  0  0  0  0  0  0  0  0  0  0
  146.5923  134.0099  151.8474 C   0  0  0  0  0  0  0  0  0  0  0  0
  145.2520  134.6510  151.8372 N   0  3  1  0  0  0  0  0  0  0  0  0
  145.2838  136.0345  152.3754 C   0  0  0  0  0  0  0  0  0  0  0  0
  143.9814  136.4089  153.1036 C   0  0  0  0  0  0  0  0  0  0  0  0
  144.2310  137.3261  154.3082 C   0  0  0  0  0  0  0  0  0  0  0  0
  145.1793  138.3767  153.9622 N   0  0  0  0  0  0  0  0  0  0  0  0
  146.3557  138.5770  154.5736 C   0  0  0  0  0  0  0  0  0  0  0  0
  146.7478  137.8973  155.5229 O   0  0  0  0  0  0  0  0  0  0  0  0
  147.2060  139.7384  154.0426 C   0  0  0  0  0  0  0  0  0  0  0  0
  148.5759  139.7229  154.5714 N   0  0  0  0  0  0  0  0  0  0  0  0
  149.4207  138.6737  154.2588 C   0  0  0  0  0  0  0  0  0  0  0  0
  150.6937  138.5853  154.7024 C   0  0  0  0  0  0  0  0  0  0  0  0
  151.2630  139.6219  155.5548 C   0  0  0  0  0  0  0  0  0  0  0  0
  152.4095  139.5702  156.0021 O   0  0  0  0  0  0  0  0  0  0  0  0
  150.3844  140.6930  155.8435 N   0  0  0  0  0  0  0  0  0  0  0  0
  150.8667  141.7572  156.6997 C   0  0  0  0  0  0  0  0  0  0  0  0
  149.0473  140.7703  155.3923 C   0  0  0  0  0  0  0  0  0  0  0  0
  148.3054  141.7070  155.6994 O   0  0  0  0  0  0  0  0  0  0  0  0
  144.6132  134.5599  150.4955 C   0  0  0  0  0  0  0  0  0  0  0  0
  143.5876  132.3038  151.8744 H   0  0  0  0  0  0  0  0  0  0  0  0
  143.2732  131.3192  150.4488 H   0  0  0  0  0  0  0  0  0  0  0  0
  142.4042  132.8286  150.6842 H   0  0  0  0  0  0  0  0  0  0  0  0
  144.1425  133.1174  148.9867 H   0  0  0  0  0  0  0  0  0  0  0  0
  145.7159  131.3249  149.8138 H   0  0  0  0  0  0  0  0  0  0  0  0
  146.4815  132.8073  149.3031 H   0  0  0  0  0  0  0  0  0  0  0  0
  145.9425  131.9744  152.1913 H   0  0  0  0  0  0  0  0  0  0  0  0
  147.4987  132.0916  151.4122 H   0  0  0  0  0  0  0  0  0  0  0  0
  147.0270  134.0744  152.8457 H   0  0  0  0  0  0  0  0  0  0  0  0
  147.2609  134.5489  151.1743 H   0  0  0  0  0  0  0  0  0  0  0  0
  146.1028  136.1244  153.0903 H   0  0  0  0  0  0  0  0  0  0  0  0
  145.4989  136.7408  151.5719 H   0  0  0  0  0  0  0  0  0  0  0  0
  143.2945  136.9089  152.4211 H   0  0  0  0  0  0  0  0  0  0  0  0
  143.4786  135.4996  153.4368 H   0  0  0  0  0  0  0  0  0  0  0  0
  143.2986  137.7872  154.6363 H   0  0  0  0  0  0  0  0  0  0  0  0
  144.6094  136.7347  155.1440 H   0  0  0  0  0  0  0  0  0  0  0  0
  144.9312  138.9883  153.1979 H   0  0  0  0  0  0  0  0  0  0  0  0
  147.2270  139.7223  152.9512 H   0  0  0  0  0  0  0  0  0  0  0  0
  146.7111  140.6719  154.3135 H   0  0  0  0  0  0  0  0  0  0  0  0
  149.0465  137.8808  153.6275 H   0  0  0  0  0  0  0  0  0  0  0  0
  151.2988  137.7350  154.4238 H   0  0  0  0  0  0  0  0  0  0  0  0
  150.4104  142.7004  156.3949 H   0  0  0  0  0  0  0  0  0  0  0  0
  151.9475  141.8583  156.5917 H   0  0  0  0  0  0  0  0  0  0  0  0
  150.5915  141.4909  157.7210 H   0  0  0  0  0  0  0  0  0  0  0  0
  145.2174  135.1164  149.7771 H   0  0  0  0  0  0  0  0  0  0  0  0
  143.6320  135.0333  150.5025 H   0  0  0  0  0  0  0  0  0  0  0  0
  144.6811  134.1119  152.4726 H   0  0  0  0  0  0  0  0  0  0  0  0
  1  2  1  0  0  0  0
  1 24  1  0  0  0  0
  1 25  1  0  0  0  0
  1 26  1  0  0  0  0
  2 23  1  0  0  0  0
  2  3  1  0  0  0  0
  2 27  1  0  0  0  0
  3  4  1  0  0  0  0
  3 28  1  0  0  0  0
  3 29  1  0  0  0  0
  4  5  1  0  0  0  0
  4 30  1  0  0  0  0
  4 31  1  0  0  0  0
  5  6  1  0  0  0  0
  5 32  1  0  0  0  0
  5 33  1  0  0  0  0
  6  7  1  0  0  0  0
  6 23  1  0  0  0  0
  6 50  1  0  0  0  0
  7  8  1  0  0  0  0
  7 34  1  0  0  0  0
  7 35  1  0  0  0  0
  8  9  1  0  0  0  0
  8 36  1  0  0  0  0
  8 37  1  0  0  0  0
  9 10  1  0  0  0  0
  9 38  1  0  0  0  0
  9 39  1  0  0  0  0
 10 11  1  0  0  0  0
 10 40  1  0  0  0  0
 11 12  2  0  0  0  0
 11 13  1  0  0  0  0
 13 14  1  0  0  0  0
 13 41  1  0  0  0  0
 13 42  1  0  0  0  0
 14 21  1  0  0  0  0
 14 15  1  0  0  0  0
 15 16  2  0  0  0  0
 15 43  1  0  0  0  0
 16 17  1  0  0  0  0
 16 44  1  0  0  0  0
 17 18  2  0  0  0  0
 17 19  1  0  0  0  0
 19 20  1  0  0  0  0
 19 21  1  0  0  0  0
 20 45  1  0  0  0  0
 20 46  1  0  0  0  0
 20 47  1  0  0  0  0
 21 22  2  0  0  0  0
 23 48  1  0  0  0  0
 23 49  1  0  0  0  0
M  CHG  1   6   1
M  END
> <s_m_source_file>
AV-unprocessed.smi

> <i_m_source_file_index>
2137

> <i_lp_mmshare_version>
43012

> <i_f3d_flags>
0

> <s_epik_input>
W0NIM11bQ0BASF0xW0NIMl1bQ0gyXVtDSDJdTihbQ0gyXTEpW0NIMl1bQ0gyXVtDSDJdW05IXUMoPU8pW0NIMl1uMltjSF1bY0hdYyg9TyluKFtDSDNdKWMyPU8=

> <s_epik_cmdline>
J2VwaWtfcHl0aG9uJywgJy1waCcsICc3LjAnLCAnLXRuJywgJzgnLCAnLW1hJywgJzIwMCcsICctbWV0YWxfYmluZGluZycsICctaW1hZScsICc8aW5maWxlLm1hZT4nLCAnLW9tYWUnLCAnPG91dGZpbGUubWFlPic=

> <r_lp_tautomer_probability>
1

> <r_epik_Ionization_Penalty>
0.000384839

> <r_epik_Ionization_Penalty_Charging>
0.000384812

> <r_epik_Ionization_Penalty_Neutral>
2.6907e-08

> <r_epik_State_Penalty>
0.000235226

> <r_epik_Charging_Adjusted_Penalty>
0.000620038

> <i_epik_Tot_Q>
1

> <i_epik_Tot_abs_Q>
1

> <r_epik_Metal_State_Penalty>
-0

> <b_epik_Metal_Only>
0

> <s_lp_Force_Field>
OPLS_2005

> <r_lp_Energy>
28.7219

> <b_lp_Chiralities_Consistent>
1

> <s_lp_Variant>
AV-unprocessed.smi:2137-3

> <Gold.Version>
5.8.1

> <Gold.Id.Protein>
6NUR|6NUR_protein|mol2

> <Gold.PLP.Fitness>
47.9741

> <Gold.PLP.PLP>
-40.9361

> <Gold.PLP.part.hbond>
-2.0000

> <Gold.PLP.part.metal>
0.0000

> <Gold.PLP.part.buried>
-4.5032

> <Gold.PLP.part.nonpolar>
-35.7123

> <Gold.PLP.part.repulsive>
1.1448

> <Gold.PLP.ligand.clash>
0.0000

> <Gold.PLP.ligand.torsion>
0.7987

> <Gold.PLP.Chemscore.Hbond>
1.8640

> <Gold.PLP.Chemscore.CHOScore>
1.0000

> <Gold.PLP.Chemscore.Metal>
0.0000

> <Gold.Chemscore.Hbonds>
donor molecule, donor type, donor heavy atom, donor atom, acceptor molecule, acceptor atom, score
      L1  H    10    40       P1 10175  0.87
      P1  H  7997  8009       L1    18  1.00
      L1  C    15    43       P1  7948  1.00

> <Gold.PLP.Chemscore.Internal.Correction>
0.0435

> <Gold.Rescore>
     Score         DG    S(hbond)    S(metal)    S(lipo)     H(rot)  DE(clash)    DE(int)     intcor
     14.68     -15.80       1.89        0.00      84.12       2.27       0.19       0.93       ----

> <Gold.Chemscore.Fitness>
14.6779

> <Gold.Chemscore.DG>
-15.8048

> <Gold.Chemscore.ZeroCoef>
-5.4800

> <Gold.Chemscore.Hbond>
1.8879

> <Gold.Chemscore.Metal>
0.0000

> <Gold.Chemscore.Lipo>
84.1246

> <Gold.Chemscore.Internal_Hbond>
0.0000

> <Gold.Chemscore.DEClash>
0.1946

> <Gold.Chemscore.DEInternal>
0.9322

> <Gold.Chemscore.Rot>
2.2748

> <Gold.Chemscore.Internal.Correction>
   9.000000E+99

> <Gold.Chemscore.Hbonds>
donor molecule, donor type, donor heavy atom, donor atom, acceptor molecule, acceptor atom, score
      L1  H    10    40       P1 10175  0.80
      P1  H  7997  8009       L1    18  0.93

> <Gold.Chemscore.Hbond.Weighted>
-6.3056

> <Gold.Chemscore.Metal.Weighted>
-0.0000

> <Gold.Chemscore.Lipo.Weighted>
-9.8426

> <Gold.Chemscore.Internal_Hbond.Weighted>
0.0000

> <Gold.Chemscore.DEClash.Weighted>
0.1946

> <Gold.Chemscore.DEInternal.Weighted>
0.9322

> <Gold.Chemscore.Rot.Weighted>
5.8234

> <Gold.Chemscore.Internal.Correction.Weighted>
   9.000000E+99

> <Gold.Protein.RotatedTorsions>
[ 6907 6896 6895 6894 ] final  -42.64 input  -60.11 | X-H torsion
[ 7974 7965 7964 7962 ] final   42.59 input  175.53 | X-H torsion
[ 8008 7997 7996 7995 ] final -153.78 input   59.86 | X-H torsion
[ 10167 10162 10161 10158 ] final   32.17 input  -65.29 | X-H torsion
[ 10718 10713 10712 10709 ] final  103.69 input   66.30 | X-H torsion
[ 10763 10752 10751 10750 ] final    1.93 input  -60.55 | X-H torsion
[ 11005 11000 10999 10996 ] final   48.61 input  -57.11 | X-H torsion

> <Gold.Protein.ActiveResidues>
 VAL166  LYS551  ARG553  GLY616  TRP617  ASP618  TYR619  PRO620  LYS621  CYS622 
 ASP623  PHE694  ASN695  SER759  ASP760  ASP761  ALA762  ILE779  LEU786  VAL792 
 PHE793  MET794  SER795  GLU796  ALA797  LYS798  CYS799  TRP800  GLU811  SER814 

> <Gold.Protein.RotatedAtoms>
  150.9529  134.8927  159.7682 H   0  0  0  0  0  0  0  0  0  0  0  0  # atno 6907 bound_to 6896
  152.5126  134.3781  159.9351 H   0  0  0  0  0  0  0  0  0  0  0  0  # atno 6908 bound_to 6896
  151.3796  133.3785  159.2743 H   0  0  0  0  0  0  0  0  0  0  0  0  # atno 6909 bound_to 6896
  146.0727  139.5283  142.9587 H   0  0  0  0  0  0  0  0  0  0  0  0  # atno 7974 bound_to 7965
  155.6761  140.0739  157.2502 H   0  0  0  0  0  0  0  0  0  0  0  0  # atno 8008 bound_to 7997
  154.4114  140.1690  156.1983 H   0  0  0  0  0  0  0  0  0  0  0  0  # atno 8009 bound_to 7997
  155.9575  140.3372  155.6464 H   0  0  0  0  0  0  0  0  0  0  0  0  # atno 8010 bound_to 7997
  140.4523  144.1030  150.6194 H   0  0  0  0  0  0  0  0  0  0  0  0  # atno 10167 bound_to 10162
  157.6764  131.0785  150.5593 H   0  0  0  0  0  0  0  0  0  0  0  0  # atno 10718 bound_to 10713
  153.3018  135.6956  153.7196 H   0  0  0  0  0  0  0  0  0  0  0  0  # atno 10763 bound_to 10752
  153.6107  135.3445  155.2978 H   0  0  0  0  0  0  0  0  0  0  0  0  # atno 10764 bound_to 10752
  154.8552  135.4363  154.2131 H   0  0  0  0  0  0  0  0  0  0  0  0  # atno 10765 bound_to 10752
  140.1175  134.4873  155.8625 H   0  0  0  0  0  0  0  0  0  0  0  0  # atno 11005 bound_to 11000
  145.6361  141.0294  143.1837 LP  0  0  0  0  0  0  0  0  0  0  0  0  # atno 17320 bound_to 7965
  144.7242  139.7930  143.7371 LP  0  0  0  0  0  0  0  0  0  0  0  0  # atno 17321 bound_to 7965
  140.4193  143.2619  151.9736 LP  0  0  0  0  0  0  0  0  0  0  0  0  # atno 17342 bound_to 10162
  139.4798  144.5845  151.7876 LP  0  0  0  0  0  0  0  0  0  0  0  0  # atno 17343 bound_to 10162
  156.5896  130.4326  149.5942 LP  0  0  0  0  0  0  0  0  0  0  0  0  # atno 17370 bound_to 10713
  156.2594  130.6953  151.1717 LP  0  0  0  0  0  0  0  0  0  0  0  0  # atno 17371 bound_to 10713
  141.2144  133.6749  156.6825 LP  0  0  0  0  0  0  0  0  0  0  0  0  # atno 17394 bound_to 11000
  140.3009  134.8165  157.4096 LP  0  0  0  0  0  0  0  0  0  0  0  0  # atno 17395 bound_to 11000

$$$$
