AV-unprocessed.smi:114|AV-procd|sdf|1115|dock7
  -GOLD-   2262018233D 1   1.00000     0.00000
 Structure written by MMmdl.
 32 34  0  0  0  0  0  0  0  0  1 V2000
  152.6654  143.4100  161.1742 N   0  0  0  0  0  0  0  0  0  0  0  0
  152.8126  142.3925  160.3140 C   0  0  0  0  0  0  0  0  0  0  0  0
  153.6973  141.4143  160.6178 N   0  0  0  0  0  0  0  0  0  0  0  0
  153.8751  140.3811  159.7851 C   0  0  0  0  0  0  0  0  0  0  0  0
  154.7772  139.4474  160.1681 F   0  0  0  0  0  0  0  0  0  0  0  0
  153.2619  140.1675  158.6161 N   0  0  0  0  0  0  0  0  0  0  0  0
  152.3690  141.1515  158.3055 C   0  0  0  0  0  0  0  0  0  0  0  0
  152.0868  142.2936  159.1018 C   0  0  0  0  0  0  0  0  0  0  0  0
  151.1259  143.0792  158.4801 N   0  0  0  0  0  0  0  0  0  0  0  0
  150.8580  142.4327  157.3772 C   0  0  0  0  0  0  0  0  0  0  0  0
  151.5648  141.2652  157.1893 N   0  0  0  0  0  0  0  0  0  0  0  0
  151.4771  140.3235  156.0324 C   0  0  2  0  0  0  0  0  0  0  0  0
  150.5384  140.8286  155.1336 O   0  0  0  0  0  0  0  0  0  0  0  0
  149.7292  139.7686  154.6380 C   0  0  2  0  0  0  0  0  0  0  0  0
  148.3802  140.3253  154.1580 C   0  0  0  0  0  0  0  0  0  0  0  0
  148.5502  141.0329  152.9484 O   0  0  0  0  0  0  0  0  0  0  0  0
  149.6117  138.8470  155.8535 C   0  0  1  0  0  0  0  0  0  0  0  0
  149.2342  137.5272  155.5071 O   0  0  0  0  0  0  0  0  0  0  0  0
  150.9979  138.9354  156.4892 C   0  0  1  0  0  0  0  0  0  0  0  0
  151.8694  137.9228  156.0196 O   0  0  0  0  0  0  0  0  0  0  0  0
  152.4764  140.3237  155.5945 H   0  0  0  0  0  0  0  0  0  0  0  0
  150.2592  139.2532  153.8341 H   0  0  0  0  0  0  0  0  0  0  0  0
  148.8718  139.2470  156.5471 H   0  0  0  0  0  0  0  0  0  0  0  0
  150.9467  138.8734  157.5773 H   0  0  0  0  0  0  0  0  0  0  0  0
  152.0116  144.1517  160.9680 H   0  0  0  0  0  0  0  0  0  0  0  0
  153.2070  143.4331  162.0260 H   0  0  0  0  0  0  0  0  0  0  0  0
  150.1337  142.7957  156.6622 H   0  0  0  0  0  0  0  0  0  0  0  0
  147.6849  139.5085  153.9625 H   0  0  0  0  0  0  0  0  0  0  0  0
  147.9233  140.9646  154.9141 H   0  0  0  0  0  0  0  0  0  0  0  0
  148.5919  140.4097  152.2392 H   0  0  0  0  0  0  0  0  0  0  0  0
  149.9857  136.9642  155.6138 H   0  0  0  0  0  0  0  0  0  0  0  0
  151.8011  137.8842  155.0777 H   0  0  0  0  0  0  0  0  0  0  0  0
  1  2  1  0  0  0  0
  1 25  1  0  0  0  0
  1 26  1  0  0  0  0
  2  8  1  0  0  0  0
  2  3  2  0  0  0  0
  3  4  1  0  0  0  0
  4  5  1  0  0  0  0
  4  6  2  0  0  0  0
  6  7  1  0  0  0  0
  7 11  1  0  0  0  0
  7  8  2  0  0  0  0
  8  9  1  0  0  0  0
  9 10  2  0  0  0  0
 10 11  1  0  0  0  0
 10 27  1  0  0  0  0
 11 12  1  0  0  0  0
 12 21  1  0  0  0  0
 12 19  1  0  0  0  0
 12 13  1  0  0  0  0
 13 14  1  0  0  0  0
 14 22  1  0  0  0  0
 14 15  1  0  0  0  0
 14 17  1  0  0  0  0
 15 16  1  0  0  0  0
 15 28  1  0  0  0  0
 15 29  1  0  0  0  0
 16 30  1  0  0  0  0
 17 23  1  0  0  0  0
 17 18  1  0  0  0  0
 17 19  1  0  0  0  0
 18 31  1  0  0  0  0
 19 24  1  0  0  0  0
 19 20  1  0  0  0  0
 20 32  1  0  0  0  0
M  END
> <s_m_source_file>
AV-unprocessed.smi

> <i_m_source_file_index>
114

> <i_lp_mmshare_version>
43012

> <i_f3d_flags>
0

> <s_epik_input>
RmMobjEpbmMoW05IMl0pYyhjMTIpbltjSF1uMltDQEBIXTNPW0NASF0oW0NIMl1bT0hdKVtDQEBIXShbT0hdKVtDQEBIXTNbT0hd

> <s_epik_cmdline>
J2VwaWtfcHl0aG9uJywgJy1waCcsICc3LjAnLCAnLXRuJywgJzgnLCAnLW1hJywgJzIwMCcsICctbWV0YWxfYmluZGluZycsICctaW1hZScsICc8aW5maWxlLm1hZT4nLCAnLW9tYWUnLCAnPG91dGZpbGUubWFlPic=

> <r_lp_tautomer_probability>
1

> <r_epik_Ionization_Penalty>
1.13199e-05

> <r_epik_Ionization_Penalty_Charging>
0

> <r_epik_Ionization_Penalty_Neutral>
1.13199e-05

> <r_epik_State_Penalty>
-0

> <r_epik_Charging_Adjusted_Penalty>
0

> <i_epik_Tot_Q>
0

> <i_epik_Tot_abs_Q>
0

> <r_epik_Metal_State_Penalty>
-0

> <b_epik_Metal_Only>
0

> <s_epik_Chemistry_Notes>
This compound contains an acetal/aminal-like group ( X-CH(R)-Y where X, Y are N, S, or O) that may be acid/base labile, releasing an aldehyde.

> <s_lp_Force_Field>
OPLS_2005

> <r_lp_Energy>
39.1628

> <b_lp_Chiralities_Consistent>
1

> <s_lp_Variant>
AV-unprocessed.smi:114-9

> <Gold.Version>
5.8.1

> <Gold.Id.Protein>
6NUR|6NUR_protein|mol2

> <Gold.PLP.Fitness>
41.8580

> <Gold.PLP.PLP>
-29.2670

> <Gold.PLP.part.hbond>
-3.2336

> <Gold.PLP.part.metal>
0.0000

> <Gold.PLP.part.buried>
-3.4833

> <Gold.PLP.part.nonpolar>
-21.4375

> <Gold.PLP.part.repulsive>
0.2101

> <Gold.PLP.ligand.clash>
0.0000

> <Gold.PLP.ligand.torsion>
0.0564

> <Gold.PLP.Chemscore.Hbond>
3.2304

> <Gold.PLP.Chemscore.CHOScore>
1.0000

> <Gold.PLP.Chemscore.Metal>
0.0000

> <Gold.Chemscore.Hbonds>
donor molecule, donor type, donor heavy atom, donor atom, acceptor molecule, acceptor atom, score
      L1  H    16    30       P1  7957  0.71
      P1  H  7989  7998       L1    13  0.53
      P1  H  7997  8009       L1     6  0.90
      P1  H  8011  8017       L1    16  1.00
      L1  C    10    27       P1  8028  1.00

> <Gold.PLP.Chemscore.Internal.Correction>
0.0127

> <Gold.Rescore>
     Score         DG    S(hbond)    S(metal)    S(lipo)     H(rot)  DE(clash)    DE(int)     intcor
      4.25      -4.42       1.67        0.00      31.38       4.03       0.06       0.11       ----

> <Gold.Chemscore.Fitness>
4.2504

> <Gold.Chemscore.DG>
-4.4199

> <Gold.Chemscore.ZeroCoef>
-5.4800

> <Gold.Chemscore.Hbond>
1.6703

> <Gold.Chemscore.Metal>
0.0000

> <Gold.Chemscore.Lipo>
31.3838

> <Gold.Chemscore.Internal_Hbond>
0.0000

> <Gold.Chemscore.DEClash>
0.0550

> <Gold.Chemscore.DEInternal>
0.1145

> <Gold.Chemscore.Rot>
4.0277

> <Gold.Chemscore.Internal.Correction>
   9.000000E+99

> <Gold.Chemscore.Hbonds>
donor molecule, donor type, donor heavy atom, donor atom, acceptor molecule, acceptor atom, score
      L1  H    16    30       P1  7957  0.66
      P1  H  7989  7998       L1    13  0.01
      P1  H  7997  8009       L1     6  0.42
      P1  H  8011  8017       L1    16  0.29

> <Gold.Chemscore.Hbond.Weighted>
-5.5790

> <Gold.Chemscore.Metal.Weighted>
-0.0000

> <Gold.Chemscore.Lipo.Weighted>
-3.6719

> <Gold.Chemscore.Internal_Hbond.Weighted>
0.0000

> <Gold.Chemscore.DEClash.Weighted>
0.0550

> <Gold.Chemscore.DEInternal.Weighted>
0.1145

> <Gold.Chemscore.Rot.Weighted>
10.3110

> <Gold.Chemscore.Internal.Correction.Weighted>
   9.000000E+99

> <Gold.Protein.RotatedTorsions>
[ 6907 6896 6895 6894 ] final -102.39 input  -60.11 | X-H torsion
[ 7974 7965 7964 7962 ] final   -6.61 input  175.53 | X-H torsion
[ 8008 7997 7996 7995 ] final  151.19 input   59.86 | X-H torsion
[ 10167 10162 10161 10158 ] final -171.42 input  -65.29 | X-H torsion
[ 10718 10713 10712 10709 ] final  149.44 input   66.30 | X-H torsion
[ 10763 10752 10751 10750 ] final  -83.37 input  -60.55 | X-H torsion
[ 11005 11000 10999 10996 ] final  105.45 input  -57.11 | X-H torsion

> <Gold.Protein.ActiveResidues>
 VAL166  LYS551  ARG553  GLY616  TRP617  ASP618  TYR619  PRO620  LYS621  CYS622 
 ASP623  PHE694  ASN695  SER759  ASP760  ASP761  ALA762  ILE779  LEU786  VAL792 
 PHE793  MET794  SER795  GLU796  ALA797  LYS798  CYS799  TRP800  GLU811  SER814 

> <Gold.Protein.RotatedAtoms>
  150.7194  134.0589  159.3824 H   0  0  0  0  0  0  0  0  0  0  0  0  # atno 6907 bound_to 6896
  151.8568  135.0536  160.0474 H   0  0  0  0  0  0  0  0  0  0  0  0  # atno 6908 bound_to 6896
  152.2748  133.5379  159.5497 H   0  0  0  0  0  0  0  0  0  0  0  0  # atno 6909 bound_to 6896
  146.2327  140.2195  142.8337 H   0  0  0  0  0  0  0  0  0  0  0  0  # atno 7974 bound_to 7965
  156.2684  140.2054  156.6137 H   0  0  0  0  0  0  0  0  0  0  0  0  # atno 8008 bound_to 7997
  154.6811  140.0540  157.0291 H   0  0  0  0  0  0  0  0  0  0  0  0  # atno 8009 bound_to 7997
  155.0999  140.3205  155.4553 H   0  0  0  0  0  0  0  0  0  0  0  0  # atno 8010 bound_to 7997
  139.5803  144.1438  152.1506 H   0  0  0  0  0  0  0  0  0  0  0  0  # atno 10167 bound_to 10162
  157.2961  131.0862  151.1426 H   0  0  0  0  0  0  0  0  0  0  0  0  # atno 10718 bound_to 10713
  154.5869  135.5558  153.7240 H   0  0  0  0  0  0  0  0  0  0  0  0  # atno 10763 bound_to 10752
  153.0102  135.6333  154.1904 H   0  0  0  0  0  0  0  0  0  0  0  0  # atno 10764 bound_to 10752
  154.1845  135.2885  155.3021 H   0  0  0  0  0  0  0  0  0  0  0  0  # atno 10765 bound_to 10752
  139.8802  134.9336  156.5516 H   0  0  0  0  0  0  0  0  0  0  0  0  # atno 11005 bound_to 11000
  144.9643  140.8306  143.5494 LP  0  0  0  0  0  0  0  0  0  0  0  0  # atno 17320 bound_to 7965
  145.2170  139.2177  143.5113 LP  0  0  0  0  0  0  0  0  0  0  0  0  # atno 17321 bound_to 7965
  140.0989  144.5556  150.7002 LP  0  0  0  0  0  0  0  0  0  0  0  0  # atno 17342 bound_to 10162
  140.7082  143.2484  151.4661 LP  0  0  0  0  0  0  0  0  0  0  0  0  # atno 17343 bound_to 10162
  157.2803  130.6747  149.6063 LP  0  0  0  0  0  0  0  0  0  0  0  0  # atno 17370 bound_to 10713
  155.9669  130.4452  150.5491 LP  0  0  0  0  0  0  0  0  0  0  0  0  # atno 17371 bound_to 10713
  140.8236  133.8334  155.8918 LP  0  0  0  0  0  0  0  0  0  0  0  0  # atno 17394 bound_to 11000
  140.9395  134.1919  157.4807 LP  0  0  0  0  0  0  0  0  0  0  0  0  # atno 17395 bound_to 11000

$$$$
