AV-unprocessed.smi:667|AV-procd|sdf|3255|dock7
  -GOLD-   22720 0203D 1   1.00000     0.00000
 Structure written by MMmdl.
 48 49  0  0  0  0  0  0  0  0  1 V2000
  153.5953  140.6148  159.6194 C   0  0  0  0  0  0  0  0  0  0  0  0
  153.1793  141.8680  160.3354 C   0  0  0  0  0  0  0  0  0  0  0  0
  153.3444  141.9372  161.6454 N   0  0  0  0  0  0  0  0  0  0  0  0
  152.9010  143.1637  161.9851 N   0  0  0  0  0  0  0  0  0  0  0  0
  152.9514  143.5798  163.3730 C   0  0  0  0  0  0  0  0  0  0  0  0
  152.4499  143.8700  160.8879 C   0  0  0  0  0  0  0  0  0  0  0  0
  151.9163  145.2616  161.0032 C   0  0  0  0  0  0  0  0  0  0  0  0
  152.6179  143.0632  159.7939 C   0  0  0  0  0  0  0  0  0  0  0  0
  152.3155  143.3714  158.3482 C   0  0  0  0  0  0  0  0  0  0  0  0
  150.9750  142.7340  157.9885 C   0  0  0  0  0  0  0  0  0  0  0  0
  150.0263  142.8137  158.7683 O   0  0  0  0  0  0  0  0  0  0  0  0
  150.9014  142.1563  156.7794 N   0  0  0  0  0  0  0  0  0  0  0  0
  149.6733  141.7187  156.1231 C   0  0  0  0  0  0  0  0  0  0  0  0
  149.7284  140.2308  155.7096 C   0  0  2  0  0  0  0  0  0  0  0  0
  151.1274  139.6493  155.6074 C   0  0  0  0  0  0  0  0  0  0  0  0
  150.9090  138.3907  154.7655 C   0  0  0  0  0  0  0  0  0  0  0  0
  149.6861  138.5829  154.0580 O   0  0  0  0  0  0  0  0  0  0  0  0
  149.1850  139.8895  154.3126 C   0  0  1  0  0  0  0  0  0  0  0  0
  147.6532  139.9601  154.1294 C   0  0  0  0  0  0  0  0  0  0  0  0
  147.1450  139.1775  152.9061 C   0  0  0  0  0  0  0  0  0  0  0  0
  147.1796  141.4207  154.0781 C   0  0  0  0  0  0  0  0  0  0  0  0
  153.6846  140.7769  158.5456 H   0  0  0  0  0  0  0  0  0  0  0  0
  152.8680  139.8180  159.7749 H   0  0  0  0  0  0  0  0  0  0  0  0
  154.5626  140.2594  159.9766 H   0  0  0  0  0  0  0  0  0  0  0  0
  151.9499  143.8433  163.7134 H   0  0  0  0  0  0  0  0  0  0  0  0
  153.6020  144.4492  163.4701 H   0  0  0  0  0  0  0  0  0  0  0  0
  153.3387  142.7777  164.0030 H   0  0  0  0  0  0  0  0  0  0  0  0
  151.6475  145.6658  160.0275 H   0  0  0  0  0  0  0  0  0  0  0  0
  152.6592  145.9265  161.4438 H   0  0  0  0  0  0  0  0  0  0  0  0
  151.0261  145.2841  161.6317 H   0  0  0  0  0  0  0  0  0  0  0  0
  152.2711  144.4449  158.1624 H   0  0  0  0  0  0  0  0  0  0  0  0
  153.0883  142.9821  157.6848 H   0  0  0  0  0  0  0  0  0  0  0  0
  151.7433  142.1304  156.2226 H   0  0  0  0  0  0  0  0  0  0  0  0
  148.8443  141.8761  156.8134 H   0  0  0  0  0  0  0  0  0  0  0  0
  149.4541  142.3329  155.2485 H   0  0  0  0  0  0  0  0  0  0  0  0
  149.1932  139.6493  156.4603 H   0  0  0  0  0  0  0  0  0  0  0  0
  151.7931  140.3314  155.0780 H   0  0  0  0  0  0  0  0  0  0  0  0
  151.5713  139.4342  156.5796 H   0  0  0  0  0  0  0  0  0  0  0  0
  151.7357  138.2190  154.0755 H   0  0  0  0  0  0  0  0  0  0  0  0
  150.8085  137.5097  155.4000 H   0  0  0  0  0  0  0  0  0  0  0  0
  149.6562  140.5410  153.5763 H   0  0  0  0  0  0  0  0  0  0  0  0
  147.1960  139.5148  155.0138 H   0  0  0  0  0  0  0  0  0  0  0  0
  147.5956  139.5437  151.9833 H   0  0  0  0  0  0  0  0  0  0  0  0
  146.0638  139.2744  152.8052 H   0  0  0  0  0  0  0  0  0  0  0  0
  147.3621  138.1132  152.9865 H   0  0  0  0  0  0  0  0  0  0  0  0
  147.5910  141.9417  153.2132 H   0  0  0  0  0  0  0  0  0  0  0  0
  147.4878  141.9650  154.9705 H   0  0  0  0  0  0  0  0  0  0  0  0
  146.0927  141.4808  154.0178 H   0  0  0  0  0  0  0  0  0  0  0  0
  1  2  1  0  0  0  0
  1 22  1  0  0  0  0
  1 23  1  0  0  0  0
  1 24  1  0  0  0  0
  2  8  1  0  0  0  0
  2  3  2  0  0  0  0
  3  4  1  0  0  0  0
  4  5  1  0  0  0  0
  4  6  1  0  0  0  0
  5 25  1  0  0  0  0
  5 26  1  0  0  0  0
  5 27  1  0  0  0  0
  6  7  1  0  0  0  0
  6  8  2  0  0  0  0
  7 28  1  0  0  0  0
  7 29  1  0  0  0  0
  7 30  1  0  0  0  0
  8  9  1  0  0  0  0
  9 10  1  0  0  0  0
  9 31  1  0  0  0  0
  9 32  1  0  0  0  0
 10 11  2  0  0  0  0
 10 12  1  0  0  0  0
 12 13  1  0  0  0  0
 12 33  1  0  0  0  0
 13 14  1  0  0  0  0
 13 34  1  0  0  0  0
 13 35  1  0  0  0  0
 14 18  1  0  0  0  0
 14 15  1  0  0  0  0
 14 36  1  0  0  0  0
 15 16  1  0  0  0  0
 15 37  1  0  0  0  0
 15 38  1  0  0  0  0
 16 17  1  0  0  0  0
 16 39  1  0  0  0  0
 16 40  1  0  0  0  0
 17 18  1  0  0  0  0
 18 19  1  0  0  0  0
 18 41  1  0  0  0  0
 19 20  1  0  0  0  0
 19 21  1  0  0  0  0
 19 42  1  0  0  0  0
 20 43  1  0  0  0  0
 20 44  1  0  0  0  0
 20 45  1  0  0  0  0
 21 46  1  0  0  0  0
 21 47  1  0  0  0  0
 21 48  1  0  0  0  0
M  END
> <s_m_source_file>
AV-unprocessed.smi

> <i_m_source_file_index>
667

> <i_lp_mmshare_version>
43012

> <i_f3d_flags>
0

> <s_epik_input>
W0NIM11jMW5uKFtDSDNdKWMoW0NIM10pYzFbQ0gyXUMoPU8pW05IXVtDSDJdW0NAQEhdMltDSDJdW0NIMl1PW0NASF0yW0NIXShbQ0gzXSlbQ0gzXQ==

> <s_epik_cmdline>
J2VwaWtfcHl0aG9uJywgJy1waCcsICc3LjAnLCAnLXRuJywgJzgnLCAnLW1hJywgJzIwMCcsICctbWV0YWxfYmluZGluZycsICctaW1hZScsICc8aW5maWxlLm1hZT4nLCAnLW9tYWUnLCAnPG91dGZpbGUubWFlPic=

> <r_lp_tautomer_probability>
1

> <r_epik_Ionization_Penalty>
0.00315488

> <r_epik_Ionization_Penalty_Charging>
0

> <r_epik_Ionization_Penalty_Neutral>
0.00315488

> <r_epik_State_Penalty>
0.00222269

> <r_epik_Charging_Adjusted_Penalty>
0.00222269

> <i_epik_Tot_Q>
0

> <i_epik_Tot_abs_Q>
0

> <r_epik_Metal_State_Penalty>
-0

> <b_epik_Metal_Only>
0

> <s_lp_Force_Field>
OPLS_2005

> <r_lp_Energy>
14.51

> <b_lp_Chiralities_Consistent>
1

> <s_lp_Variant>
AV-unprocessed.smi:667-1

> <Gold.Version>
5.8.1

> <Gold.Id.Protein>
6NUR|6NUR_protein|mol2

> <Gold.PLP.Fitness>
44.4376

> <Gold.PLP.PLP>
-47.1956

> <Gold.PLP.part.hbond>
-0.5110

> <Gold.PLP.part.metal>
0.0000

> <Gold.PLP.part.buried>
-1.8506

> <Gold.PLP.part.nonpolar>
-44.6521

> <Gold.PLP.part.repulsive>
1.0445

> <Gold.PLP.ligand.clash>
0.0000

> <Gold.PLP.ligand.torsion>
1.4045

> <Gold.PLP.Chemscore.Hbond>
0.0000

> <Gold.PLP.Chemscore.CHOScore>
0.0000

> <Gold.PLP.Chemscore.Metal>
0.0000

> <Gold.PLP.Chemscore.Internal.Correction>
0.0510

> <Gold.Rescore>
     Score         DG    S(hbond)    S(metal)    S(lipo)     H(rot)  DE(clash)    DE(int)     intcor
     14.64     -16.96       0.00        0.00     131.37       1.52       1.03       1.29       ----

> <Gold.Chemscore.Fitness>
14.6367

> <Gold.Chemscore.DG>
-16.9559

> <Gold.Chemscore.ZeroCoef>
-5.4800

> <Gold.Chemscore.Hbond>
0.0000

> <Gold.Chemscore.Metal>
0.0000

> <Gold.Chemscore.Lipo>
131.3710

> <Gold.Chemscore.Internal_Hbond>
0.0000

> <Gold.Chemscore.DEClash>
1.0297

> <Gold.Chemscore.DEInternal>
1.2895

> <Gold.Chemscore.Rot>
1.5213

> <Gold.Chemscore.Internal.Correction>
   9.000000E+99

> <Gold.Chemscore.Hbond.Weighted>
-0.0000

> <Gold.Chemscore.Metal.Weighted>
-0.0000

> <Gold.Chemscore.Lipo.Weighted>
-15.3704

> <Gold.Chemscore.Internal_Hbond.Weighted>
0.0000

> <Gold.Chemscore.DEClash.Weighted>
1.0297

> <Gold.Chemscore.DEInternal.Weighted>
1.2895

> <Gold.Chemscore.Rot.Weighted>
3.8945

> <Gold.Chemscore.Internal.Correction.Weighted>
   9.000000E+99

> <Gold.Protein.RotatedTorsions>
[ 6907 6896 6895 6894 ] final   80.18 input  -60.11 | X-H torsion
[ 7974 7965 7964 7962 ] final -113.61 input  175.53 | X-H torsion
[ 8008 7997 7996 7995 ] final   57.77 input   59.86 | X-H torsion
[ 10167 10162 10161 10158 ] final   90.86 input  -65.29 | X-H torsion
[ 10718 10713 10712 10709 ] final  -34.12 input   66.30 | X-H torsion
[ 10763 10752 10751 10750 ] final  100.29 input  -60.55 | X-H torsion
[ 11005 11000 10999 10996 ] final  175.91 input  -57.11 | X-H torsion

> <Gold.Protein.ActiveResidues>
 VAL166  LYS551  ARG553  GLY616  TRP617  ASP618  TYR619  PRO620  LYS621  CYS622 
 ASP623  PHE694  ASN695  SER759  ASP760  ASP761  ALA762  ILE779  LEU786  VAL792 
 PHE793  MET794  SER795  GLU796  ALA797  LYS798  CYS799  TRP800  GLU811  SER814 

> <Gold.Protein.RotatedAtoms>
  152.5225  134.3398  159.9212 H   0  0  0  0  0  0  0  0  0  0  0  0  # atno 6907 bound_to 6896
  151.3347  133.3980  159.2673 H   0  0  0  0  0  0  0  0  0  0  0  0  # atno 6908 bound_to 6896
  150.9852  134.9216  159.7925 H   0  0  0  0  0  0  0  0  0  0  0  0  # atno 6909 bound_to 6896
  145.1300  140.8719  143.3763 H   0  0  0  0  0  0  0  0  0  0  0  0  # atno 7974 bound_to 7965
  155.5391  140.3484  155.4443 H   0  0  0  0  0  0  0  0  0  0  0  0  # atno 8008 bound_to 7997
  156.0664  140.1352  156.9907 H   0  0  0  0  0  0  0  0  0  0  0  0  # atno 8009 bound_to 7997
  154.4505  140.0975  156.6578 H   0  0  0  0  0  0  0  0  0  0  0  0  # atno 8010 bound_to 7997
  139.8431  144.6631  150.9259 H   0  0  0  0  0  0  0  0  0  0  0  0  # atno 10167 bound_to 10162
  156.3544  130.4313  149.7677 H   0  0  0  0  0  0  0  0  0  0  0  0  # atno 10718 bound_to 10713
  153.3121  135.4084  155.1344 H   0  0  0  0  0  0  0  0  0  0  0  0  # atno 10763 bound_to 10752
  154.8578  135.3567  154.5710 H   0  0  0  0  0  0  0  0  0  0  0  0  # atno 10764 bound_to 10752
  153.6139  135.7067  153.5395 H   0  0  0  0  0  0  0  0  0  0  0  0  # atno 10765 bound_to 10752
  140.3673  134.7060  157.4370 H   0  0  0  0  0  0  0  0  0  0  0  0  # atno 11005 bound_to 11000
  145.0646  139.3079  143.5863 LP  0  0  0  0  0  0  0  0  0  0  0  0  # atno 17320 bound_to 7965
  146.3514  140.0099  142.8668 LP  0  0  0  0  0  0  0  0  0  0  0  0  # atno 17321 bound_to 7965
  140.7796  143.3894  151.1336 LP  0  0  0  0  0  0  0  0  0  0  0  0  # atno 17342 bound_to 10162
  139.7539  143.8737  152.3084 LP  0  0  0  0  0  0  0  0  0  0  0  0  # atno 17343 bound_to 10162
  156.4865  130.8065  151.3077 LP  0  0  0  0  0  0  0  0  0  0  0  0  # atno 17370 bound_to 10713
  157.7465  130.9989  150.2870 LP  0  0  0  0  0  0  0  0  0  0  0  0  # atno 17371 bound_to 10713
  140.0579  134.6037  155.8783 LP  0  0  0  0  0  0  0  0  0  0  0  0  # atno 17394 bound_to 11000
  141.1965  133.6592  156.5697 LP  0  0  0  0  0  0  0  0  0  0  0  0  # atno 17395 bound_to 11000

$$$$
