AV-unprocessed.smi:77|AV-procd|sdf|774|dock1
  -GOLD-   2262017123D 1   1.00000     0.00000
 Structure written by MMmdl.
 57 61  0  0  0  0  0  0  0  0  1 V2000
  144.1098  135.3582  153.1474 O   0  0  0  0  0  0  0  0  0  0  0  0
  143.7091  136.1357  152.2796 C   0  0  0  0  0  0  0  0  0  0  0  0
  142.8141  137.3295  152.6383 C   0  0  0  0  0  0  0  0  0  0  0  0
  142.4851  137.3976  154.0681 N   0  0  0  0  0  0  0  0  0  0  0  0
  143.3526  138.0657  154.8808 C   0  0  0  0  0  0  0  0  0  0  0  0
  142.8596  138.9466  155.7935 N   0  0  0  0  0  0  0  0  0  0  0  0
  143.6785  139.6229  156.6029 C   0  0  0  0  0  0  0  0  0  0  0  0
  145.0090  139.5774  156.6681 N   0  0  0  0  0  0  0  0  0  0  0  0
  145.5180  138.6985  155.7594 C   0  0  0  0  0  0  0  0  0  0  0  0
  144.7706  137.9048  154.8411 C   0  0  0  0  0  0  0  0  0  0  0  0
  145.6406  137.1162  154.0960 N   0  0  0  0  0  0  0  0  0  0  0  0
  146.8262  137.4292  154.5394 C   0  0  0  0  0  0  0  0  0  0  0  0
  146.8475  138.3931  155.5209 N   0  0  0  0  0  0  0  0  0  0  0  0
  148.0262  138.9210  156.1872 C   0  0  0  0  0  0  0  0  0  0  0  0
  148.9683  139.7725  155.2895 C   0  0  1  0  0  0  0  0  0  0  0  0
  148.9037  141.2497  155.7485 C   0  0  0  0  0  0  0  0  0  0  0  0
  149.1257  142.1350  154.6700 O   0  0  0  0  0  0  0  0  0  0  0  0
  150.4400  139.2597  155.2606 C   0  0  1  0  0  0  0  0  0  0  0  0
  150.8684  138.5104  154.0064 C   0  0  0  0  0  0  0  0  0  0  0  0
  152.3894  138.5956  154.0557 C   0  0  0  0  0  0  0  0  0  0  0  0
  152.6887  139.8125  154.7247 O   0  0  0  0  0  0  0  0  0  0  0  0
  151.4974  140.3728  155.2630 C   0  0  0  0  0  0  0  0  0  0  0  0
  141.0649  137.4069  154.4183 C   0  0  0  0  0  0  0  0  0  0  0  0
  140.1723  136.2939  153.9150 C   0  0  0  0  0  0  0  0  0  0  0  0
  140.0430  137.6837  153.3394 C   0  0  0  0  0  0  0  0  0  0  0  0
  144.0189  136.0125  150.9812 N   0  0  0  0  0  0  0  0  0  0  0  0
  144.8404  134.9906  150.4178 C   0  0  0  0  0  0  0  0  0  0  0  0
  144.1486  133.7804  149.8284 C   0  0  0  0  0  0  0  0  0  0  0  0
  144.8910  133.6563  151.1301 C   0  0  0  0  0  0  0  0  0  0  0  0
  143.2878  138.2500  152.2938 H   0  0  0  0  0  0  0  0  0  0  0  0
  141.8893  137.2447  152.0653 H   0  0  0  0  0  0  0  0  0  0  0  0
  143.1990  140.2982  157.2957 H   0  0  0  0  0  0  0  0  0  0  0  0
  147.7235  136.9720  154.1486 H   0  0  0  0  0  0  0  0  0  0  0  0
  147.6657  139.5107  157.0302 H   0  0  0  0  0  0  0  0  0  0  0  0
  148.5834  138.0882  156.6176 H   0  0  0  0  0  0  0  0  0  0  0  0
  148.5930  139.7445  154.2661 H   0  0  0  0  0  0  0  0  0  0  0  0
  147.9392  141.4725  156.2062 H   0  0  0  0  0  0  0  0  0  0  0  0
  149.6682  141.4736  156.4908 H   0  0  0  0  0  0  0  0  0  0  0  0
  149.0232  143.0215  154.9812 H   0  0  0  0  0  0  0  0  0  0  0  0
  150.6151  138.6171  156.1250 H   0  0  0  0  0  0  0  0  0  0  0  0
  150.5384  137.4736  153.9796 H   0  0  0  0  0  0  0  0  0  0  0  0
  150.4944  139.0136  153.1137 H   0  0  0  0  0  0  0  0  0  0  0  0
  152.7987  137.7706  154.6395 H   0  0  0  0  0  0  0  0  0  0  0  0
  152.8390  138.5644  153.0631 H   0  0  0  0  0  0  0  0  0  0  0  0
  151.1895  141.1974  154.6183 H   0  0  0  0  0  0  0  0  0  0  0  0
  151.6831  140.7743  156.2594 H   0  0  0  0  0  0  0  0  0  0  0  0
  140.8278  137.7988  155.4060 H   0  0  0  0  0  0  0  0  0  0  0  0
  140.6200  135.5298  153.2825 H   0  0  0  0  0  0  0  0  0  0  0  0
  139.3837  135.9466  154.5789 H   0  0  0  0  0  0  0  0  0  0  0  0
  139.1645  138.2624  153.6172 H   0  0  0  0  0  0  0  0  0  0  0  0
  140.3957  137.8340  152.3214 H   0  0  0  0  0  0  0  0  0  0  0  0
  143.6463  136.6988  150.3411 H   0  0  0  0  0  0  0  0  0  0  0  0
  145.7581  135.3031  149.9212 H   0  0  0  0  0  0  0  0  0  0  0  0
  143.0613  133.7461  149.8658 H   0  0  0  0  0  0  0  0  0  0  0  0
  144.5981  133.3238  148.9489 H   0  0  0  0  0  0  0  0  0  0  0  0
  145.8369  133.1188  151.1197 H   0  0  0  0  0  0  0  0  0  0  0  0
  144.2999  133.5403  152.0364 H   0  0  0  0  0  0  0  0  0  0  0  0
  1  2  2  0  0  0  0
  2  3  1  0  0  0  0
  2 26  1  0  0  0  0
  3  4  1  0  0  0  0
  3 30  1  0  0  0  0
  3 31  1  0  0  0  0
  4  5  1  0  0  0  0
  4 23  1  0  0  0  0
  5 10  1  0  0  0  0
  5  6  2  0  0  0  0
  6  7  1  0  0  0  0
  7  8  2  0  0  0  0
  7 32  1  0  0  0  0
  8  9  1  0  0  0  0
  9 13  1  0  0  0  0
  9 10  2  0  0  0  0
 10 11  1  0  0  0  0
 11 12  2  0  0  0  0
 12 13  1  0  0  0  0
 12 33  1  0  0  0  0
 13 14  1  0  0  0  0
 14 15  1  0  0  0  0
 14 34  1  0  0  0  0
 14 35  1  0  0  0  0
 15 16  1  0  0  0  0
 15 18  1  0  0  0  0
 15 36  1  0  0  0  0
 16 17  1  0  0  0  0
 16 37  1  0  0  0  0
 16 38  1  0  0  0  0
 17 39  1  0  0  0  0
 18 22  1  0  0  0  0
 18 19  1  0  0  0  0
 18 40  1  0  0  0  0
 19 20  1  0  0  0  0
 19 41  1  0  0  0  0
 19 42  1  0  0  0  0
 20 21  1  0  0  0  0
 20 43  1  0  0  0  0
 20 44  1  0  0  0  0
 21 22  1  0  0  0  0
 22 45  1  0  0  0  0
 22 46  1  0  0  0  0
 23 25  1  0  0  0  0
 23 24  1  0  0  0  0
 23 47  1  0  0  0  0
 24 25  1  0  0  0  0
 24 48  1  0  0  0  0
 24 49  1  0  0  0  0
 25 50  1  0  0  0  0
 25 51  1  0  0  0  0
 26 27  1  0  0  0  0
 26 52  1  0  0  0  0
 27 29  1  0  0  0  0
 27 28  1  0  0  0  0
 27 53  1  0  0  0  0
 28 29  1  0  0  0  0
 28 54  1  0  0  0  0
 28 55  1  0  0  0  0
 29 56  1  0  0  0  0
 29 57  1  0  0  0  0
M  END
> <s_m_source_file>
AV-unprocessed.smi

> <i_m_source_file_index>
77

> <i_lp_mmshare_version>
43012

> <i_f3d_flags>
0

> <s_epik_input>
W0NIMl0xW0NIMl1bQ0hdMVtOSF1DKD1PKVtDSDJdTihbQ0hdMltDSDJdW0NIMl0yKWMobltjSF1uMyljKGMzNCluW2NIXW40W0NIMl1bQ0BIXShbQ0gyXVtPSF0pW0NAQEhdNVtDSDJdW0NIMl1PW0NIMl01

> <s_epik_cmdline>
J2VwaWtfcHl0aG9uJywgJy1waCcsICc3LjAnLCAnLXRuJywgJzgnLCAnLW1hJywgJzIwMCcsICctbWV0YWxfYmluZGluZycsICctaW1hZScsICc8aW5maWxlLm1hZT4nLCAnLW9tYWUnLCAnPG91dGZpbGUubWFlPic=

> <r_lp_tautomer_probability>
1

> <r_epik_Ionization_Penalty>
0.000703847

> <r_epik_Ionization_Penalty_Charging>
0

> <r_epik_Ionization_Penalty_Neutral>
0.000703847

> <r_epik_State_Penalty>
0.00034025

> <r_epik_Charging_Adjusted_Penalty>
0.00034025

> <i_epik_Tot_Q>
0

> <i_epik_Tot_abs_Q>
0

> <r_epik_Metal_State_Penalty>
-0

> <b_epik_Metal_Only>
0

> <s_lp_Force_Field>
OPLS_2005

> <r_lp_Energy>
54.3031

> <b_lp_Chiralities_Consistent>
1

> <s_lp_Variant>
AV-unprocessed.smi:77-4

> <Gold.Version>
5.8.1

> <Gold.Id.Protein>
6NUR|6NUR_protein|mol2

> <Gold.PLP.Fitness>
41.6730

> <Gold.PLP.PLP>
-37.2341

> <Gold.PLP.part.hbond>
-4.6749

> <Gold.PLP.part.metal>
0.0000

> <Gold.PLP.part.buried>
-2.8769

> <Gold.PLP.part.nonpolar>
-28.1950

> <Gold.PLP.part.repulsive>
0.2765

> <Gold.PLP.ligand.clash>
0.0000

> <Gold.PLP.ligand.torsion>
3.6461

> <Gold.PLP.Chemscore.Hbond>
2.9760

> <Gold.PLP.Chemscore.CHOScore>
0.3868

> <Gold.PLP.Chemscore.Metal>
0.0000

> <Gold.Chemscore.Hbonds>
donor molecule, donor type, donor heavy atom, donor atom, acceptor molecule, acceptor atom, score
      L1  H    17    39       P1  8028  1.00
      L1  H    26    52       P1 10171  0.85
      P1  H  7997  8009       L1    21  0.68
      L1  C    12    33       P1  7948  0.58

> <Gold.PLP.Chemscore.Internal.Correction>
1.6427

> <Gold.Rescore>
     Score         DG    S(hbond)    S(metal)    S(lipo)     H(rot)  DE(clash)    DE(int)     intcor
      9.92     -15.98       2.97        0.00      80.89       3.47       1.44       4.62       ----

> <Gold.Chemscore.Fitness>
9.9160

> <Gold.Chemscore.DG>
-15.9774

> <Gold.Chemscore.ZeroCoef>
-5.4800

> <Gold.Chemscore.Hbond>
2.9687

> <Gold.Chemscore.Metal>
0.0000

> <Gold.Chemscore.Lipo>
80.8884

> <Gold.Chemscore.Internal_Hbond>
0.0000

> <Gold.Chemscore.DEClash>
1.4434

> <Gold.Chemscore.DEInternal>
4.6180

> <Gold.Chemscore.Rot>
3.4695

> <Gold.Chemscore.Internal.Correction>
   9.000000E+99

> <Gold.Chemscore.Hbonds>
donor molecule, donor type, donor heavy atom, donor atom, acceptor molecule, acceptor atom, score
      L1  H    17    39       P1  8028  1.00
      L1  H    26    52       P1 10171  0.83
      P1  H  7997  8009       L1    21  0.66
      P1  H  8011  8017       L1    17  0.01

> <Gold.Chemscore.Hbond.Weighted>
-9.9154

> <Gold.Chemscore.Metal.Weighted>
-0.0000

> <Gold.Chemscore.Lipo.Weighted>
-9.4639

> <Gold.Chemscore.Internal_Hbond.Weighted>
0.0000

> <Gold.Chemscore.DEClash.Weighted>
1.4434

> <Gold.Chemscore.DEInternal.Weighted>
4.6180

> <Gold.Chemscore.Rot.Weighted>
8.8820

> <Gold.Chemscore.Internal.Correction.Weighted>
   9.000000E+99

> <Gold.Protein.RotatedTorsions>
[ 6907 6896 6895 6894 ] final  108.31 input  -60.11 | X-H torsion
[ 7974 7965 7964 7962 ] final   52.03 input  175.53 | X-H torsion
[ 8008 7997 7996 7995 ] final -125.14 input   59.86 | X-H torsion
[ 10167 10162 10161 10158 ] final -175.49 input  -65.29 | X-H torsion
[ 10718 10713 10712 10709 ] final   91.29 input   66.30 | X-H torsion
[ 10763 10752 10751 10750 ] final   59.39 input  -60.55 | X-H torsion
[ 11005 11000 10999 10996 ] final  134.01 input  -57.11 | X-H torsion

> <Gold.Protein.ActiveResidues>
 VAL166  LYS551  ARG553  GLY616  TRP617  ASP618  TYR619  PRO620  LYS621  CYS622 
 ASP623  PHE694  ASN695  SER759  ASP760  ASP761  ALA762  ILE779  LEU786  VAL792 
 PHE793  MET794  SER795  GLU796  ALA797  LYS798  CYS799  TRP800  GLU811  SER814 

> <Gold.Protein.RotatedAtoms>
  152.5117  133.9107  159.7486 H   0  0  0  0  0  0  0  0  0  0  0  0  # atno 6907 bound_to 6896
  150.9501  133.6550  159.2780 H   0  0  0  0  0  0  0  0  0  0  0  0  # atno 6908 bound_to 6896
  151.3831  135.0948  159.9555 H   0  0  0  0  0  0  0  0  0  0  0  0  # atno 6909 bound_to 6896
  145.9854  139.4284  143.0106 H   0  0  0  0  0  0  0  0  0  0  0  0  # atno 7974 bound_to 7965
  155.2084  140.0418  157.2929 H   0  0  0  0  0  0  0  0  0  0  0  0  # atno 8008 bound_to 7997
  154.6028  140.2456  155.7741 H   0  0  0  0  0  0  0  0  0  0  0  0  # atno 8009 bound_to 7997
  156.2332  140.2931  156.0251 H   0  0  0  0  0  0  0  0  0  0  0  0  # atno 8010 bound_to 7997
  139.5578  144.1945  152.1189 H   0  0  0  0  0  0  0  0  0  0  0  0  # atno 10167 bound_to 10162
  157.6960  131.0402  150.3707 H   0  0  0  0  0  0  0  0  0  0  0  0  # atno 10718 bound_to 10713
  152.9893  135.5573  154.5706 H   0  0  0  0  0  0  0  0  0  0  0  0  # atno 10763 bound_to 10752
  154.5107  135.2802  155.1347 H   0  0  0  0  0  0  0  0  0  0  0  0  # atno 10764 bound_to 10752
  154.2740  135.6357  153.5374 H   0  0  0  0  0  0  0  0  0  0  0  0  # atno 10765 bound_to 10752
  139.9887  134.9523  156.9806 H   0  0  0  0  0  0  0  0  0  0  0  0  # atno 11005 bound_to 11000
  145.7708  140.9897  143.1150 LP  0  0  0  0  0  0  0  0  0  0  0  0  # atno 17320 bound_to 7965
  144.6873  139.9445  143.7476 LP  0  0  0  0  0  0  0  0  0  0  0  0  # atno 17321 bound_to 7965
  140.1452  144.5165  150.6720 LP  0  0  0  0  0  0  0  0  0  0  0  0  # atno 17342 bound_to 10162
  140.6854  143.2347  151.5275 LP  0  0  0  0  0  0  0  0  0  0  0  0  # atno 17343 bound_to 10162
  156.4132  130.3938  149.6876 LP  0  0  0  0  0  0  0  0  0  0  0  0  # atno 17370 bound_to 10713
  156.4153  130.7742  151.2757 LP  0  0  0  0  0  0  0  0  0  0  0  0  # atno 17371 bound_to 10713
  140.4950  134.1155  155.7239 LP  0  0  0  0  0  0  0  0  0  0  0  0  # atno 17394 bound_to 11000
  141.1547  133.8904  157.2007 LP  0  0  0  0  0  0  0  0  0  0  0  0  # atno 17395 bound_to 11000

$$$$
