AV-unprocessed.smi:798|AV-procd|sdf|3774|dock9
  -GOLD-   22720 1203D 1   1.00000     0.00000
 Structure written by MMmdl.
 34 36  0  0  0  0  0  0  0  0  1 V2000
  145.2758  137.5778  153.8825 O   0  0  0  0  0  0  0  0  0  0  0  0
  146.3101  137.2979  153.2761 C   0  0  0  0  0  0  0  0  0  0  0  0
  147.3831  138.0995  153.1594 N   0  0  0  0  0  0  0  0  0  0  0  0
  147.5680  139.4051  153.6859 C   0  0  0  0  0  0  0  0  0  0  0  0
  146.5875  140.3171  153.7780 N   0  0  0  0  0  0  0  0  0  0  0  0
  147.0375  141.5099  154.3292 N   0  0  0  0  0  0  0  0  0  0  0  0
  148.3378  141.4508  154.6302 C   0  0  0  0  0  0  0  0  0  0  0  0
  149.1404  139.9326  154.2685 S   0  0  0  0  0  0  0  0  0  0  0  0
  146.5065  136.1346  152.6399 N   0  0  0  0  0  0  0  0  0  0  0  0
  145.5543  135.0276  152.5885 C   0  0  1  0  0  0  0  0  0  0  0  0
  144.2044  135.5028  152.0067 C   0  0  2  0  0  0  0  0  0  0  0  0
  143.1299  134.4489  152.3281 C   0  0  0  0  0  0  0  0  0  0  0  0
  143.5093  133.2905  151.3866 C   0  0  0  0  0  0  0  0  0  0  0  0
  144.7541  133.8336  150.6520 C   0  0  1  0  0  0  0  0  0  0  0  0
  144.3887  135.3051  150.5047 C   0  0  0  0  0  0  0  0  0  0  0  0
  145.9840  133.9243  151.5870 C   0  0  2  0  0  0  0  0  0  0  0  0
  146.4115  132.5913  152.2312 C   0  0  0  0  0  0  0  0  0  0  0  0
  146.5555  131.5967  151.2404 O   0  0  0  0  0  0  0  0  0  0  0  0
  148.1610  137.7314  152.6325 H   0  0  0  0  0  0  0  0  0  0  0  0
  148.8280  142.3074  155.0684 H   0  0  0  0  0  0  0  0  0  0  0  0
  147.3868  135.9946  152.1665 H   0  0  0  0  0  0  0  0  0  0  0  0
  145.4010  134.6245  153.5918 H   0  0  0  0  0  0  0  0  0  0  0  0
  143.9192  136.5112  152.3092 H   0  0  0  0  0  0  0  0  0  0  0  0
  143.1334  134.1537  153.3779 H   0  0  0  0  0  0  0  0  0  0  0  0
  142.1339  134.8248  152.0906 H   0  0  0  0  0  0  0  0  0  0  0  0
  143.6939  132.3584  151.9193 H   0  0  0  0  0  0  0  0  0  0  0  0
  142.7020  133.1023  150.6776 H   0  0  0  0  0  0  0  0  0  0  0  0
  144.9617  133.3223  149.7117 H   0  0  0  0  0  0  0  0  0  0  0  0
  143.4752  135.4714  149.9309 H   0  0  0  0  0  0  0  0  0  0  0  0
  145.1903  135.9125  150.0808 H   0  0  0  0  0  0  0  0  0  0  0  0
  146.8167  134.2833  150.9781 H   0  0  0  0  0  0  0  0  0  0  0  0
  147.3531  132.6887  152.7712 H   0  0  0  0  0  0  0  0  0  0  0  0
  145.6582  132.2565  152.9446 H   0  0  0  0  0  0  0  0  0  0  0  0
  147.4122  131.6802  150.8504 H   0  0  0  0  0  0  0  0  0  0  0  0
  1  2  2  0  0  0  0
  2  3  1  0  0  0  0
  2  9  1  0  0  0  0
  3  4  1  0  0  0  0
  3 19  1  0  0  0  0
  4  8  1  0  0  0  0
  4  5  2  0  0  0  0
  5  6  1  0  0  0  0
  6  7  2  0  0  0  0
  7  8  1  0  0  0  0
  7 20  1  0  0  0  0
  9 10  1  0  0  0  0
  9 21  1  0  0  0  0
 10 16  1  0  0  0  0
 10 11  1  0  0  0  0
 10 22  1  0  0  0  0
 11 15  1  0  0  0  0
 11 12  1  0  0  0  0
 11 23  1  0  0  0  0
 12 13  1  0  0  0  0
 12 24  1  0  0  0  0
 12 25  1  0  0  0  0
 13 14  1  0  0  0  0
 13 26  1  0  0  0  0
 13 27  1  0  0  0  0
 14 15  1  0  0  0  0
 14 16  1  0  0  0  0
 14 28  1  0  0  0  0
 15 29  1  0  0  0  0
 15 30  1  0  0  0  0
 16 17  1  0  0  0  0
 16 31  1  0  0  0  0
 17 18  1  0  0  0  0
 17 32  1  0  0  0  0
 17 33  1  0  0  0  0
 18 34  1  0  0  0  0
M  END
> <s_m_source_file>
AV-unprocessed.smi

> <i_m_source_file_index>
798

> <i_lp_mmshare_version>
43012

> <i_f3d_flags>
0

> <s_epik_input>
W0NIMl0xW0NIMl1bQ0BASF0oW0NIMl0yKVtDQEBIXShbQ0gyXVtPSF0pW0NAQEhdKFtDQEhdMTIpW05IXUMoPU8pW05IXWMzbm5bY0hdczM=

> <s_epik_cmdline>
J2VwaWtfcHl0aG9uJywgJy1waCcsICc3LjAnLCAnLXRuJywgJzgnLCAnLW1hJywgJzIwMCcsICctbWV0YWxfYmluZGluZycsICctaW1hZScsICc8aW5maWxlLm1hZT4nLCAnLW9tYWUnLCAnPG91dGZpbGUubWFlPic=

> <r_lp_tautomer_probability>
1

> <r_epik_Ionization_Penalty>
0.000329046

> <r_epik_Ionization_Penalty_Charging>
0

> <r_epik_Ionization_Penalty_Neutral>
0.000329046

> <r_epik_State_Penalty>
-0

> <r_epik_Charging_Adjusted_Penalty>
0

> <i_epik_Tot_Q>
0

> <i_epik_Tot_abs_Q>
0

> <r_epik_Metal_State_Penalty>
0.173433

> <b_epik_Metal_Only>
0

> <s_lp_Force_Field>
OPLS_2005

> <r_lp_Energy>
48.4277

> <b_lp_Chiralities_Consistent>
1

> <s_lp_Variant>
AV-unprocessed.smi:798-6

> <Gold.Version>
5.8.1

> <Gold.Id.Protein>
6NUR|6NUR_protein|mol2

> <Gold.PLP.Fitness>
39.2217

> <Gold.PLP.PLP>
-27.9252

> <Gold.PLP.part.hbond>
-3.0000

> <Gold.PLP.part.metal>
0.0000

> <Gold.PLP.part.buried>
-5.6222

> <Gold.PLP.part.nonpolar>
-21.0509

> <Gold.PLP.part.repulsive>
0.4707

> <Gold.PLP.ligand.clash>
0.0000

> <Gold.PLP.ligand.torsion>
0.3500

> <Gold.PLP.Chemscore.Hbond>
2.9920

> <Gold.PLP.Chemscore.CHOScore>
1.0000

> <Gold.PLP.Chemscore.Metal>
0.0000

> <Gold.Chemscore.Hbonds>
donor molecule, donor type, donor heavy atom, donor atom, acceptor molecule, acceptor atom, score
      L1  H     3    19       P1  7948  0.96
      L1  H     9    21       P1  7948  1.00
      L1  H    18    34       P1 10747  0.98
      L1  C     7    20       P1  8028  1.00

> <Gold.PLP.Chemscore.Internal.Correction>
0.0205

> <Gold.Rescore>
     Score         DG    S(hbond)    S(metal)    S(lipo)     H(rot)  DE(clash)    DE(int)     intcor
     15.47     -16.83       2.94        0.00      55.69       1.94       0.03       1.33       ----

> <Gold.Chemscore.Fitness>
15.4707

> <Gold.Chemscore.DG>
-16.8294

> <Gold.Chemscore.ZeroCoef>
-5.4800

> <Gold.Chemscore.Hbond>
2.9374

> <Gold.Chemscore.Metal>
0.0000

> <Gold.Chemscore.Lipo>
55.6885

> <Gold.Chemscore.Internal_Hbond>
0.0000

> <Gold.Chemscore.DEClash>
0.0275

> <Gold.Chemscore.DEInternal>
1.3312

> <Gold.Chemscore.Rot>
1.9442

> <Gold.Chemscore.Internal.Correction>
   9.000000E+99

> <Gold.Chemscore.Hbonds>
donor molecule, donor type, donor heavy atom, donor atom, acceptor molecule, acceptor atom, score
      L1  H     3    19       P1  7948  0.92
      L1  H     9    21       P1  7948  0.97
      L1  H    18    34       P1 10747  0.93

> <Gold.Chemscore.Hbond.Weighted>
-9.8109

> <Gold.Chemscore.Metal.Weighted>
-0.0000

> <Gold.Chemscore.Lipo.Weighted>
-6.5156

> <Gold.Chemscore.Internal_Hbond.Weighted>
0.0000

> <Gold.Chemscore.DEClash.Weighted>
0.0275

> <Gold.Chemscore.DEInternal.Weighted>
1.3312

> <Gold.Chemscore.Rot.Weighted>
4.9771

> <Gold.Chemscore.Internal.Correction.Weighted>
   9.000000E+99

> <Gold.Protein.RotatedTorsions>
[ 6907 6896 6895 6894 ] final    1.31 input  -60.11 | X-H torsion
[ 7974 7965 7964 7962 ] final  130.56 input  175.53 | X-H torsion
[ 8008 7997 7996 7995 ] final  -18.85 input   59.86 | X-H torsion
[ 10167 10162 10161 10158 ] final  -98.75 input  -65.29 | X-H torsion
[ 10718 10713 10712 10709 ] final   64.68 input   66.30 | X-H torsion
[ 10763 10752 10751 10750 ] final   46.53 input  -60.55 | X-H torsion
[ 11005 11000 10999 10996 ] final   55.49 input  -57.11 | X-H torsion

> <Gold.Protein.ActiveResidues>
 VAL166  LYS551  ARG553  GLY616  TRP617  ASP618  TYR619  PRO620  LYS621  CYS622 
 ASP623  PHE694  ASN695  SER759  ASP760  ASP761  ALA762  ILE779  LEU786  VAL792 
 PHE793  MET794  SER795  GLU796  ALA797  LYS798  CYS799  TRP800  GLU811  SER814 

> <Gold.Protein.RotatedAtoms>
  151.5906  135.1053  160.0037 H   0  0  0  0  0  0  0  0  0  0  0  0  # atno 6907 bound_to 6896
  152.4308  133.7270  159.6576 H   0  0  0  0  0  0  0  0  0  0  0  0  # atno 6908 bound_to 6896
  150.8200  133.8198  159.3166 H   0  0  0  0  0  0  0  0  0  0  0  0  # atno 6909 bound_to 6896
  145.0166  139.4171  143.5218 H   0  0  0  0  0  0  0  0  0  0  0  0  # atno 7974 bound_to 7965
  154.4877  140.2104  155.9618 H   0  0  0  0  0  0  0  0  0  0  0  0  # atno 8008 bound_to 7997
  156.1260  140.3205  155.8247 H   0  0  0  0  0  0  0  0  0  0  0  0  # atno 8009 bound_to 7997
  155.4382  140.0508  157.3003 H   0  0  0  0  0  0  0  0  0  0  0  0  # atno 8010 bound_to 7997
  140.2697  143.3352  152.0546 H   0  0  0  0  0  0  0  0  0  0  0  0  # atno 10167 bound_to 10162
  157.6055  130.9173  149.9877 H   0  0  0  0  0  0  0  0  0  0  0  0  # atno 10718 bound_to 10713
  152.9810  135.6005  154.3614 H   0  0  0  0  0  0  0  0  0  0  0  0  # atno 10763 bound_to 10752
  154.3295  135.2768  155.2480 H   0  0  0  0  0  0  0  0  0  0  0  0  # atno 10764 bound_to 10752
  154.4611  135.5966  153.6311 H   0  0  0  0  0  0  0  0  0  0  0  0  # atno 10765 bound_to 10752
  140.0603  134.5612  155.9160 H   0  0  0  0  0  0  0  0  0  0  0  0  # atno 11005 bound_to 11000
  146.3479  139.9640  142.8714 LP  0  0  0  0  0  0  0  0  0  0  0  0  # atno 17320 bound_to 7965
  145.1952  140.9829  143.4188 LP  0  0  0  0  0  0  0  0  0  0  0  0  # atno 17321 bound_to 7965
  139.4992  144.6664  151.6345 LP  0  0  0  0  0  0  0  0  0  0  0  0  # atno 17342 bound_to 10162
  140.5899  143.9797  150.6318 LP  0  0  0  0  0  0  0  0  0  0  0  0  # atno 17343 bound_to 10162
  156.1140  130.3648  149.9999 LP  0  0  0  0  0  0  0  0  0  0  0  0  # atno 17370 bound_to 10713
  156.8092  130.9318  151.3644 LP  0  0  0  0  0  0  0  0  0  0  0  0  # atno 17371 bound_to 10713
  141.1970  133.6594  156.5719 LP  0  0  0  0  0  0  0  0  0  0  0  0  # atno 17394 bound_to 11000
  140.3781  134.7547  157.4643 LP  0  0  0  0  0  0  0  0  0  0  0  0  # atno 17395 bound_to 11000

$$$$
