AV-unprocessed.smi:2245|AV-procd|sdf|9076|dock2
  -GOLD-   2272012283D 1   1.00000     0.00000
 Structure written by MMmdl.
 44 45  0  0  0  0  0  0  0  0  1 V2000
  145.3459  131.8065  149.9566 C   0  0  0  0  0  0  0  0  0  0  0  0
  144.8743  132.9735  150.7987 C   0  0  0  0  0  0  0  0  0  0  0  0
  143.5852  132.9833  151.3649 C   0  0  0  0  0  0  0  0  0  0  0  0
  143.2060  134.0997  152.1355 C   0  0  0  0  0  0  0  0  0  0  0  0
  141.8319  134.1789  152.7665 C   0  0  0  0  0  0  0  0  0  0  0  0
  144.0188  135.1557  152.3523 N   0  0  0  0  0  0  0  0  0  0  0  0
  145.2626  135.1571  151.8119 C   0  0  0  0  0  0  0  0  0  0  0  0
  146.1872  136.2233  151.9668 N   0  0  0  0  0  0  0  0  0  0  0  0
  145.9306  137.5067  152.2748 C   0  0  0  0  0  0  0  0  0  0  0  0
  144.8259  137.9626  152.5722 O   0  0  0  0  0  0  0  0  0  0  0  0
  147.0446  138.2488  152.2189 N   0  0  0  0  0  0  0  0  0  0  0  0
  147.0977  139.6872  152.4483 C   0  0  0  0  0  0  0  0  0  0  0  0
  147.6649  139.9937  153.8434 C   0  0  2  0  0  0  0  0  0  0  0  0
  148.0395  141.4588  154.0783 C   0  0  0  0  0  0  0  0  0  0  0  0
  149.3919  141.4078  154.7975 C   0  0  0  0  0  0  0  0  0  0  0  0
  149.5149  140.0275  155.2538 N   0  0  0  0  0  0  0  0  0  0  0  0
  150.8890  139.6266  155.5481 C   0  0  0  0  0  0  0  0  0  0  0  0
  151.2877  139.8708  157.0165 C   0  0  0  0  0  0  0  0  0  0  0  0
  150.3421  139.3609  157.8047 F   0  0  0  0  0  0  0  0  0  0  0  0
  152.4428  139.2768  157.3147 F   0  0  0  0  0  0  0  0  0  0  0  0
  151.3857  141.1777  157.2630 F   0  0  0  0  0  0  0  0  0  0  0  0
  148.9595  139.2472  154.1581 C   0  0  0  0  0  0  0  0  0  0  0  0
  145.7225  134.0755  151.0276 C   0  0  0  0  0  0  0  0  0  0  0  0
  144.5577  131.0635  149.8309 H   0  0  0  0  0  0  0  0  0  0  0  0
  146.2008  131.3218  150.4285 H   0  0  0  0  0  0  0  0  0  0  0  0
  145.6487  132.1520  148.9679 H   0  0  0  0  0  0  0  0  0  0  0  0
  142.9044  132.1588  151.2114 H   0  0  0  0  0  0  0  0  0  0  0  0
  141.3440  133.2039  152.7708 H   0  0  0  0  0  0  0  0  0  0  0  0
  141.2025  134.8745  152.2111 H   0  0  0  0  0  0  0  0  0  0  0  0
  141.9021  134.5268  153.7978 H   0  0  0  0  0  0  0  0  0  0  0  0
  147.1510  135.9911  151.7788 H   0  0  0  0  0  0  0  0  0  0  0  0
  147.9117  137.7940  151.9733 H   0  0  0  0  0  0  0  0  0  0  0  0
  147.7246  140.1624  151.6917 H   0  0  0  0  0  0  0  0  0  0  0  0
  146.0955  140.1042  152.3401 H   0  0  0  0  0  0  0  0  0  0  0  0
  146.9261  139.7046  154.5934 H   0  0  0  0  0  0  0  0  0  0  0  0
  148.1313  142.0174  153.1459 H   0  0  0  0  0  0  0  0  0  0  0  0
  147.2832  141.9550  154.6873 H   0  0  0  0  0  0  0  0  0  0  0  0
  150.1919  141.6418  154.0930 H   0  0  0  0  0  0  0  0  0  0  0  0
  149.4442  142.1171  155.6236 H   0  0  0  0  0  0  0  0  0  0  0  0
  150.9732  138.5575  155.3479 H   0  0  0  0  0  0  0  0  0  0  0  0
  151.5857  140.1251  154.8730 H   0  0  0  0  0  0  0  0  0  0  0  0
  148.7848  138.2092  154.4436 H   0  0  0  0  0  0  0  0  0  0  0  0
  149.6340  139.2632  153.2998 H   0  0  0  0  0  0  0  0  0  0  0  0
  146.7151  134.0897  150.6008 H   0  0  0  0  0  0  0  0  0  0  0  0
  1  2  1  0  0  0  0
  1 24  1  0  0  0  0
  1 25  1  0  0  0  0
  1 26  1  0  0  0  0
  2 23  1  0  0  0  0
  2  3  2  0  0  0  0
  3  4  1  0  0  0  0
  3 27  1  0  0  0  0
  4  5  1  0  0  0  0
  4  6  2  0  0  0  0
  5 28  1  0  0  0  0
  5 29  1  0  0  0  0
  5 30  1  0  0  0  0
  6  7  1  0  0  0  0
  7  8  1  0  0  0  0
  7 23  2  0  0  0  0
  8  9  1  0  0  0  0
  8 31  1  0  0  0  0
  9 10  2  0  0  0  0
  9 11  1  0  0  0  0
 11 12  1  0  0  0  0
 11 32  1  0  0  0  0
 12 13  1  0  0  0  0
 12 33  1  0  0  0  0
 12 34  1  0  0  0  0
 13 22  1  0  0  0  0
 13 14  1  0  0  0  0
 13 35  1  0  0  0  0
 14 15  1  0  0  0  0
 14 36  1  0  0  0  0
 14 37  1  0  0  0  0
 15 16  1  0  0  0  0
 15 38  1  0  0  0  0
 15 39  1  0  0  0  0
 16 17  1  0  0  0  0
 16 22  1  0  0  0  0
 17 18  1  0  0  0  0
 17 40  1  0  0  0  0
 17 41  1  0  0  0  0
 18 19  1  0  0  0  0
 18 20  1  0  0  0  0
 18 21  1  0  0  0  0
 22 42  1  0  0  0  0
 22 43  1  0  0  0  0
 23 44  1  0  0  0  0
M  END
> <s_m_source_file>
AV-unprocessed.smi

> <i_m_source_file_index>
2245

> <i_lp_mmshare_version>
43012

> <i_f3d_flags>
0

> <s_epik_input>
W0NIM11jMVtjSF1jKFtDSDNdKW5jKFtjSF0xKVtOSF1DKD1PKVtOSF1bQ0gyXVtDQEBIXTJbQ0gyXVtDSDJdTihbQ0gyXTIpW0NIMl1DKEYpKEYpRg==

> <s_epik_cmdline>
J2VwaWtfcHl0aG9uJywgJy1waCcsICc3LjAnLCAnLXRuJywgJzgnLCAnLW1hJywgJzIwMCcsICctbWV0YWxfYmluZGluZycsICctaW1hZScsICc8aW5maWxlLm1hZT4nLCAnLW9tYWUnLCAnPG91dGZpbGUubWFlPic=

> <r_epik_Ionization_Penalty>
0.252219

> <r_epik_Ionization_Penalty_Charging>
0

> <r_epik_Ionization_Penalty_Neutral>
0.252219

> <r_epik_State_Penalty>
0.24335

> <r_epik_Charging_Adjusted_Penalty>
0.24335

> <i_epik_Tot_Q>
0

> <i_epik_Tot_abs_Q>
0

> <r_epik_Metal_State_Penalty>
0.243337

> <b_epik_Metal_Only>
0

> <s_lp_Force_Field>
OPLS_2005

> <r_lp_Energy>
29.2312

> <b_lp_Chiralities_Consistent>
1

> <s_lp_Variant>
AV-unprocessed.smi:2245-1

> <Gold.Version>
5.8.1

> <Gold.Id.Protein>
6NUR|6NUR_protein|mol2

> <Gold.PLP.Fitness>
44.2309

> <Gold.PLP.PLP>
-39.3128

> <Gold.PLP.part.hbond>
-2.2035

> <Gold.PLP.part.metal>
0.0000

> <Gold.PLP.part.buried>
-2.8303

> <Gold.PLP.part.nonpolar>
-38.2036

> <Gold.PLP.part.repulsive>
3.5611

> <Gold.PLP.ligand.clash>
0.0000

> <Gold.PLP.ligand.torsion>
0.7301

> <Gold.PLP.Chemscore.Hbond>
2.0000

> <Gold.PLP.Chemscore.CHOScore>
0.0000

> <Gold.PLP.Chemscore.Metal>
0.0000

> <Gold.Chemscore.Hbonds>
donor molecule, donor type, donor heavy atom, donor atom, acceptor molecule, acceptor atom, score
      L1  H     8    31       P1  7948  1.00
      L1  H    11    32       P1  7948  1.00

> <Gold.PLP.Chemscore.Internal.Correction>
0.3782

> <Gold.Rescore>
     Score         DG    S(hbond)    S(metal)    S(lipo)     H(rot)  DE(clash)    DE(int)     intcor
     16.08     -18.46       1.93        0.00      90.33       1.58       0.38       2.00       ----

> <Gold.Chemscore.Fitness>
16.0756

> <Gold.Chemscore.DG>
-18.4585

> <Gold.Chemscore.ZeroCoef>
-5.4800

> <Gold.Chemscore.Hbond>
1.9345

> <Gold.Chemscore.Metal>
0.0000

> <Gold.Chemscore.Lipo>
90.3319

> <Gold.Chemscore.Internal_Hbond>
0.0000

> <Gold.Chemscore.DEClash>
0.3783

> <Gold.Chemscore.DEInternal>
2.0046

> <Gold.Chemscore.Rot>
1.5826

> <Gold.Chemscore.Internal.Correction>
   9.000000E+99

> <Gold.Chemscore.Hbonds>
donor molecule, donor type, donor heavy atom, donor atom, acceptor molecule, acceptor atom, score
      L1  H     8    31       P1  7948  0.99
      L1  H    11    32       P1  7948  0.95

> <Gold.Chemscore.Hbond.Weighted>
-6.4611

> <Gold.Chemscore.Metal.Weighted>
-0.0000

> <Gold.Chemscore.Lipo.Weighted>
-10.5688

> <Gold.Chemscore.Internal_Hbond.Weighted>
0.0000

> <Gold.Chemscore.DEClash.Weighted>
0.3783

> <Gold.Chemscore.DEInternal.Weighted>
2.0046

> <Gold.Chemscore.Rot.Weighted>
4.0515

> <Gold.Chemscore.Internal.Correction.Weighted>
   9.000000E+99

> <Gold.Protein.RotatedTorsions>
[ 6907 6896 6895 6894 ] final   74.22 input  -60.11 | X-H torsion
[ 7974 7965 7964 7962 ] final   -5.04 input  175.53 | X-H torsion
[ 8008 7997 7996 7995 ] final   68.73 input   59.86 | X-H torsion
[ 10167 10162 10161 10158 ] final   29.00 input  -65.29 | X-H torsion
[ 10718 10713 10712 10709 ] final   50.06 input   66.30 | X-H torsion
[ 10763 10752 10751 10750 ] final   55.24 input  -60.55 | X-H torsion
[ 11005 11000 10999 10996 ] final  -28.53 input  -57.11 | X-H torsion

> <Gold.Protein.ActiveResidues>
 VAL166  LYS551  ARG553  GLY616  TRP617  ASP618  TYR619  PRO620  LYS621  CYS622 
 ASP623  PHE694  ASN695  SER759  ASP760  ASP761  ALA762  ILE779  LEU786  VAL792 
 PHE793  MET794  SER795  GLU796  ALA797  LYS798  CYS799  TRP800  GLU811  SER814 

> <Gold.Protein.RotatedAtoms>
  152.4964  134.4305  159.9510 H   0  0  0  0  0  0  0  0  0  0  0  0  # atno 6907 bound_to 6896
  151.4283  133.3672  159.2773 H   0  0  0  0  0  0  0  0  0  0  0  0  # atno 6908 bound_to 6896
  150.9173  134.8614  159.7525 H   0  0  0  0  0  0  0  0  0  0  0  0  # atno 6909 bound_to 6896
  146.2361  140.1961  142.8333 H   0  0  0  0  0  0  0  0  0  0  0  0  # atno 7974 bound_to 7965
  155.7128  140.3494  155.4981 H   0  0  0  0  0  0  0  0  0  0  0  0  # atno 8008 bound_to 7997
  155.9340  140.1089  157.1131 H   0  0  0  0  0  0  0  0  0  0  0  0  # atno 8009 bound_to 7997
  154.4090  140.1225  156.4827 H   0  0  0  0  0  0  0  0  0  0  0  0  # atno 8010 bound_to 7997
  140.4804  144.0625  150.6263 H   0  0  0  0  0  0  0  0  0  0  0  0  # atno 10167 bound_to 10162
  157.4848  130.8338  149.8134 H   0  0  0  0  0  0  0  0  0  0  0  0  # atno 10718 bound_to 10713
  152.9814  135.5717  154.5034 H   0  0  0  0  0  0  0  0  0  0  0  0  # atno 10763 bound_to 10752
  154.4550  135.2779  155.1756 H   0  0  0  0  0  0  0  0  0  0  0  0  # atno 10764 bound_to 10752
  154.3368  135.6238  153.5631 H   0  0  0  0  0  0  0  0  0  0  0  0  # atno 10765 bound_to 10752
  140.9216  133.7395  156.0810 H   0  0  0  0  0  0  0  0  0  0  0  0  # atno 11005 bound_to 11000
  144.9819  140.8467  143.5392 LP  0  0  0  0  0  0  0  0  0  0  0  0  # atno 17320 bound_to 7965
  145.1955  139.2278  143.5220 LP  0  0  0  0  0  0  0  0  0  0  0  0  # atno 17321 bound_to 7965
  140.3865  143.2775  152.0110 LP  0  0  0  0  0  0  0  0  0  0  0  0  # atno 17342 bound_to 10162
  139.4832  144.6112  151.7429 LP  0  0  0  0  0  0  0  0  0  0  0  0  # atno 17343 bound_to 10162
  156.0140  130.3821  150.2169 LP  0  0  0  0  0  0  0  0  0  0  0  0  # atno 17370 bound_to 10713
  157.0356  131.0020  151.3299 LP  0  0  0  0  0  0  0  0  0  0  0  0  # atno 17371 bound_to 10713
  140.7980  134.3542  157.5447 LP  0  0  0  0  0  0  0  0  0  0  0  0  # atno 17394 bound_to 11000
  139.8777  134.9180  156.3193 LP  0  0  0  0  0  0  0  0  0  0  0  0  # atno 17395 bound_to 11000

$$$$
