AV-unprocessed.smi:3265|AV-procd|sdf|12499|dock2
  -GOLD-   2272018403D 1   1.00000     0.00000
 Structure written by MMmdl.
 41 42  0  0  0  0  0  0  0  0  2 V2000
  145.6337  132.3222  150.4421 C   0  0  0  0  0  0  0  0  0  0  0  0
  146.1294  133.3925  151.4252 C   0  0  1  0  0  0  0  0  0  0  0  0
  144.9958  133.8822  152.3420 C   0  0  0  0  0  0  0  0  0  0  0  0
  145.5257  134.9298  153.3287 C   0  0  0  0  0  0  0  0  0  0  0  0
  146.7217  134.3814  154.1227 C   0  0  0  0  0  0  0  0  0  0  0  0
  147.8030  133.9193  153.2140 N   0  3  1  0  0  0  0  0  0  0  0  0
  149.0208  133.5093  153.9579 C   0  0  0  0  0  0  0  0  0  0  0  0
  149.4033  134.5150  155.0608 C   0  0  0  0  0  0  0  0  0  0  0  0
  149.6674  135.8386  154.5103 N   0  0  0  0  0  0  0  0  0  0  0  0
  150.5906  136.6961  154.9731 C   0  0  0  0  0  0  0  0  0  0  0  0
  151.3385  136.4405  155.9164 O   0  0  0  0  0  0  0  0  0  0  0  0
  150.6895  138.0458  154.2604 C   0  0  0  0  0  0  0  0  0  0  0  0
  150.5401  139.1462  155.1961 N   0  0  0  0  0  0  0  0  0  0  0  0
  149.7500  139.2095  156.3253 C   0  0  0  0  0  0  0  0  0  0  0  0
  149.9321  140.4439  156.8799 C   0  0  0  0  0  0  0  0  0  0  0  0
  150.8646  141.0724  156.0080 C   0  0  0  0  0  0  0  0  0  0  0  0
  151.2259  140.2941  155.0005 N   0  0  0  0  0  0  0  0  0  0  0  0
  147.3143  132.8793  152.2682 C   0  0  0  0  0  0  0  0  0  0  0  0
  145.2727  131.4368  150.9666 H   0  0  0  0  0  0  0  0  0  0  0  0
  146.4310  132.0073  149.7682 H   0  0  0  0  0  0  0  0  0  0  0  0
  144.8159  132.7017  149.8287 H   0  0  0  0  0  0  0  0  0  0  0  0
  146.4782  134.2421  150.8361 H   0  0  0  0  0  0  0  0  0  0  0  0
  144.1854  134.3076  151.7492 H   0  0  0  0  0  0  0  0  0  0  0  0
  144.5714  133.0413  152.8928 H   0  0  0  0  0  0  0  0  0  0  0  0
  145.8250  135.8276  152.7862 H   0  0  0  0  0  0  0  0  0  0  0  0
  144.7317  135.2321  154.0122 H   0  0  0  0  0  0  0  0  0  0  0  0
  147.1001  135.1647  154.7806 H   0  0  0  0  0  0  0  0  0  0  0  0
  146.4040  133.5557  154.7617 H   0  0  0  0  0  0  0  0  0  0  0  0
  148.8384  132.5415  154.4267 H   0  0  0  0  0  0  0  0  0  0  0  0
  149.8483  133.3612  153.2622 H   0  0  0  0  0  0  0  0  0  0  0  0
  148.5975  134.6243  155.7856 H   0  0  0  0  0  0  0  0  0  0  0  0
  150.2744  134.1621  155.6155 H   0  0  0  0  0  0  0  0  0  0  0  0
  149.0943  136.1360  153.7330 H   0  0  0  0  0  0  0  0  0  0  0  0
  151.6571  138.1368  153.7650 H   0  0  0  0  0  0  0  0  0  0  0  0
  149.9244  138.1171  153.4856 H   0  0  0  0  0  0  0  0  0  0  0  0
  149.1304  138.3808  156.6349 H   0  0  0  0  0  0  0  0  0  0  0  0
  149.4697  140.8382  157.7726 H   0  0  0  0  0  0  0  0  0  0  0  0
  151.2860  142.0644  156.0766 H   0  0  0  0  0  0  0  0  0  0  0  0
  147.0215  131.9893  152.8280 H   0  0  0  0  0  0  0  0  0  0  0  0
  148.1174  132.5775  151.5972 H   0  0  0  0  0  0  0  0  0  0  0  0
  148.0644  134.7228  152.6603 H   0  0  0  0  0  0  0  0  0  0  0  0
  1  2  1  0  0  0  0
  1 19  1  0  0  0  0
  1 20  1  0  0  0  0
  1 21  1  0  0  0  0
  2 18  1  0  0  0  0
  2  3  1  0  0  0  0
  2 22  1  0  0  0  0
  3  4  1  0  0  0  0
  3 23  1  0  0  0  0
  3 24  1  0  0  0  0
  4  5  1  0  0  0  0
  4 25  1  0  0  0  0
  4 26  1  0  0  0  0
  5  6  1  0  0  0  0
  5 27  1  0  0  0  0
  5 28  1  0  0  0  0
  6  7  1  0  0  0  0
  6 18  1  0  0  0  0
  6 41  1  0  0  0  0
  7  8  1  0  0  0  0
  7 29  1  0  0  0  0
  7 30  1  0  0  0  0
  8  9  1  0  0  0  0
  8 31  1  0  0  0  0
  8 32  1  0  0  0  0
  9 10  1  0  0  0  0
  9 33  1  0  0  0  0
 10 11  2  0  0  0  0
 10 12  1  0  0  0  0
 12 13  1  0  0  0  0
 12 34  1  0  0  0  0
 12 35  1  0  0  0  0
 13 17  1  0  0  0  0
 13 14  1  0  0  0  0
 14 15  2  0  0  0  0
 14 36  1  0  0  0  0
 15 16  1  0  0  0  0
 15 37  1  0  0  0  0
 16 17  2  0  0  0  0
 16 38  1  0  0  0  0
 18 39  1  0  0  0  0
 18 40  1  0  0  0  0
M  CHG  1   6   1
M  END
> <s_m_source_file>
AV-unprocessed.smi

> <i_m_source_file_index>
3265

> <i_lp_mmshare_version>
43012

> <i_f3d_flags>
0

> <s_epik_input>
W0NIM11bQ0BASF0xW0NIMl1bQ0gyXVtDSDJdTihbQ0gyXTEpW0NIMl1bQ0gyXVtOSF1DKD1PKVtDSDJdbjJbY0hdW2NIXVtjSF1uMg==

> <s_epik_cmdline>
J2VwaWtfcHl0aG9uJywgJy1waCcsICc3LjAnLCAnLXRuJywgJzgnLCAnLW1hJywgJzIwMCcsICctbWV0YWxfYmluZGluZycsICctaW1hZScsICc8aW5maWxlLm1hZT4nLCAnLW9tYWUnLCAnPG91dGZpbGUubWFlPic=

> <r_lp_tautomer_probability>
1

> <r_epik_Ionization_Penalty>
0.00231455

> <r_epik_Ionization_Penalty_Charging>
0.00230623

> <r_epik_Ionization_Penalty_Neutral>
8.31727e-06

> <r_epik_State_Penalty>
0.00159065

> <r_epik_Charging_Adjusted_Penalty>
0.00389688

> <i_epik_Tot_Q>
1

> <i_epik_Tot_abs_Q>
1

> <r_epik_Metal_State_Penalty>
-0

> <b_epik_Metal_Only>
0

> <s_lp_Force_Field>
OPLS_2005

> <r_lp_Energy>
15.6905

> <b_lp_Chiralities_Consistent>
1

> <s_lp_Variant>
AV-unprocessed.smi:3265-4

> <Gold.Version>
5.8.1

> <Gold.Id.Protein>
6NUR|6NUR_protein|mol2

> <Gold.PLP.Fitness>
45.5841

> <Gold.PLP.PLP>
-31.7640

> <Gold.PLP.part.hbond>
-4.5819

> <Gold.PLP.part.metal>
0.0000

> <Gold.PLP.part.buried>
-2.2629

> <Gold.PLP.part.nonpolar>
-24.8184

> <Gold.PLP.part.repulsive>
0.1446

> <Gold.PLP.ligand.clash>
0.0000

> <Gold.PLP.ligand.torsion>
0.6198

> <Gold.PLP.Chemscore.Hbond>
4.9920

> <Gold.PLP.Chemscore.CHOScore>
0.0000

> <Gold.PLP.Chemscore.Metal>
0.0000

> <Gold.Chemscore.Hbonds>
donor molecule, donor type, donor heavy atom, donor atom, acceptor molecule, acceptor atom, score
      L1  H     6    41       P1  7948  2.00
      L1  H     9    33       P1  7948  0.88
      P1  H  7989  7998       L1    17  1.00
      P1  H 10752 10763       L1    11  0.57

> <Gold.PLP.Chemscore.Internal.Correction>
0.0837

> <Gold.Rescore>
     Score         DG    S(hbond)    S(metal)    S(lipo)     H(rot)  DE(clash)    DE(int)     intcor
     19.22     -19.82       3.51        0.00      62.62       1.84       0.02       0.59       ----

> <Gold.Chemscore.Fitness>
19.2198

> <Gold.Chemscore.DG>
-19.8248

> <Gold.Chemscore.ZeroCoef>
-5.4800

> <Gold.Chemscore.Hbond>
3.5105

> <Gold.Chemscore.Metal>
0.0000

> <Gold.Chemscore.Lipo>
62.6210

> <Gold.Chemscore.Internal_Hbond>
0.0000

> <Gold.Chemscore.DEClash>
0.0189

> <Gold.Chemscore.DEInternal>
0.5861

> <Gold.Chemscore.Rot>
1.8386

> <Gold.Chemscore.Internal.Correction>
   9.000000E+99

> <Gold.Chemscore.Hbonds>
donor molecule, donor type, donor heavy atom, donor atom, acceptor molecule, acceptor atom, score
      L1  H     6    41       P1  7948  0.65
      L1  H     9    33       P1  7948  0.83
      P1  H  7989  7998       L1    17  0.97
      P1  H 10752 10763       L1    11  0.28

> <Gold.Chemscore.Hbond.Weighted>
-11.7250

> <Gold.Chemscore.Metal.Weighted>
-0.0000

> <Gold.Chemscore.Lipo.Weighted>
-7.3267

> <Gold.Chemscore.Internal_Hbond.Weighted>
0.0000

> <Gold.Chemscore.DEClash.Weighted>
0.0189

> <Gold.Chemscore.DEInternal.Weighted>
0.5861

> <Gold.Chemscore.Rot.Weighted>
4.7069

> <Gold.Chemscore.Internal.Correction.Weighted>
   9.000000E+99

> <Gold.Protein.RotatedTorsions>
[ 6907 6896 6895 6894 ] final   46.98 input  -60.11 | X-H torsion
[ 7974 7965 7964 7962 ] final   74.33 input  175.53 | X-H torsion
[ 8008 7997 7996 7995 ] final  160.67 input   59.86 | X-H torsion
[ 10167 10162 10161 10158 ] final   86.86 input  -65.29 | X-H torsion
[ 10718 10713 10712 10709 ] final  -13.78 input   66.30 | X-H torsion
[ 10763 10752 10751 10750 ] final   86.52 input  -60.55 | X-H torsion
[ 11005 11000 10999 10996 ] final  147.07 input  -57.11 | X-H torsion

> <Gold.Protein.ActiveResidues>
 VAL166  LYS551  ARG553  GLY616  TRP617  ASP618  TYR619  PRO620  LYS621  CYS622 
 ASP623  PHE694  ASN695  SER759  ASP760  ASP761  ALA762  ILE779  LEU786  VAL792 
 PHE793  MET794  SER795  GLU796  ALA797  LYS798  CYS799  TRP800  GLU811  SER814 

> <Gold.Protein.RotatedAtoms>
  152.2627  134.8016  160.0427 H   0  0  0  0  0  0  0  0  0  0  0  0  # atno 6907 bound_to 6896
  151.8657  133.3460  159.3726 H   0  0  0  0  0  0  0  0  0  0  0  0  # atno 6908 bound_to 6896
  150.7122  134.5090  159.5642 H   0  0  0  0  0  0  0  0  0  0  0  0  # atno 6909 bound_to 6896
  145.7296  139.2679  143.1549 H   0  0  0  0  0  0  0  0  0  0  0  0  # atno 7974 bound_to 7965
  156.2156  140.1798  156.7596 H   0  0  0  0  0  0  0  0  0  0  0  0  # atno 8008 bound_to 7997
  154.5787  140.0670  156.9101 H   0  0  0  0  0  0  0  0  0  0  0  0  # atno 8009 bound_to 7997
  155.2542  140.3331  155.4281 H   0  0  0  0  0  0  0  0  0  0  0  0  # atno 8010 bound_to 7997
  139.8832  144.6428  150.8820 H   0  0  0  0  0  0  0  0  0  0  0  0  # atno 10167 bound_to 10162
  156.6253  130.4887  149.6149 H   0  0  0  0  0  0  0  0  0  0  0  0  # atno 10718 bound_to 10713
  153.1579  135.4577  154.9730 H   0  0  0  0  0  0  0  0  0  0  0  0  # atno 10763 bound_to 10752
  154.7875  135.3209  154.7855 H   0  0  0  0  0  0  0  0  0  0  0  0  # atno 10764 bound_to 10752
  153.8350  135.6935  153.4864 H   0  0  0  0  0  0  0  0  0  0  0  0  # atno 10765 bound_to 10752
  140.0845  134.9077  157.1554 H   0  0  0  0  0  0  0  0  0  0  0  0  # atno 11005 bound_to 11000
  146.0550  140.8030  142.9763 LP  0  0  0  0  0  0  0  0  0  0  0  0  # atno 17320 bound_to 7965
  144.6896  140.3110  143.7248 LP  0  0  0  0  0  0  0  0  0  0  0  0  # atno 17321 bound_to 7965
  140.7740  143.3569  151.1904 LP  0  0  0  0  0  0  0  0  0  0  0  0  # atno 17342 bound_to 10162
  139.7177  143.9274  152.2973 LP  0  0  0  0  0  0  0  0  0  0  0  0  # atno 17343 bound_to 10162
  156.2278  130.6776  151.1433 LP  0  0  0  0  0  0  0  0  0  0  0  0  # atno 17370 bound_to 10713
  157.7216  131.0678  150.6113 LP  0  0  0  0  0  0  0  0  0  0  0  0  # atno 17371 bound_to 10713
  140.3440  134.2672  155.7208 LP  0  0  0  0  0  0  0  0  0  0  0  0  # atno 17394 bound_to 11000
  141.2058  133.7851  157.0213 LP  0  0  0  0  0  0  0  0  0  0  0  0  # atno 17395 bound_to 11000

$$$$
