AV-unprocessed.smi:886|AV-procd|sdf|4049|dock8
  -GOLD-   22720 1533D 1   1.00000     0.00000
 Structure written by MMmdl.
 35 37  0  0  0  0  0  0  0  0  1 V2000
  154.6845  140.2521  161.5701 C   0  0  0  0  0  0  0  0  0  0  0  0
  153.8809  141.2318  160.8555 N   0  0  0  0  0  0  0  0  0  0  0  0
  153.4129  141.0589  159.6099 C   0  0  0  0  0  0  0  0  0  0  0  0
  153.6079  140.0367  158.9511 O   0  0  0  0  0  0  0  0  0  0  0  0
  152.5894  142.1994  159.0683 C   0  0  0  0  0  0  0  0  0  0  0  0
  152.6271  143.4554  159.7185 C   0  0  0  0  0  0  0  0  0  0  0  0
  151.8856  144.5308  159.1980 C   0  0  0  0  0  0  0  0  0  0  0  0
  151.1306  144.3147  158.0328 C   0  0  0  0  0  0  0  0  0  0  0  0
  151.0841  143.1276  157.3955 N   0  0  0  0  0  0  0  0  0  0  0  0
  151.7959  142.0850  157.8898 C   0  0  0  0  0  0  0  0  0  0  0  0
  151.6969  140.8614  157.2028 N   0  0  0  0  0  0  0  0  0  0  0  0
  151.1043  140.7943  155.8713 C   0  0  1  0  0  0  0  0  0  0  0  0
  151.0449  139.3662  155.3134 C   0  0  0  0  0  0  0  0  0  0  0  0
  149.5482  139.1996  155.0230 C   0  0  2  0  0  0  0  0  0  0  0  0
  149.0824  140.0734  153.8506 C   0  0  0  0  0  0  0  0  0  0  0  0
  149.1005  141.4684  154.4748 C   0  0  0  0  0  0  0  0  0  0  0  0
  149.6141  141.1747  155.8911 C   0  0  1  0  0  0  0  0  0  0  0  0
  149.0020  139.9148  156.1167 O   0  0  0  0  0  0  0  0  0  0  0  0
  154.9259  140.6241  162.5657 H   0  0  0  0  0  0  0  0  0  0  0  0
  155.6192  140.0576  161.0422 H   0  0  0  0  0  0  0  0  0  0  0  0
  154.1435  139.3114  161.6796 H   0  0  0  0  0  0  0  0  0  0  0  0
  153.6641  142.0926  161.3368 H   0  0  0  0  0  0  0  0  0  0  0  0
  153.2240  143.6048  160.6066 H   0  0  0  0  0  0  0  0  0  0  0  0
  151.8997  145.4983  159.6774 H   0  0  0  0  0  0  0  0  0  0  0  0
  150.5493  145.1152  157.6000 H   0  0  0  0  0  0  0  0  0  0  0  0
  152.3556  140.1354  157.4475 H   0  0  0  0  0  0  0  0  0  0  0  0
  151.6440  141.4646  155.2010 H   0  0  0  0  0  0  0  0  0  0  0  0
  151.6593  139.2395  154.4215 H   0  0  0  0  0  0  0  0  0  0  0  0
  151.3671  138.6306  156.0521 H   0  0  0  0  0  0  0  0  0  0  0  0
  149.2233  138.1608  154.9588 H   0  0  0  0  0  0  0  0  0  0  0  0
  149.7388  139.9872  152.9843 H   0  0  0  0  0  0  0  0  0  0  0  0
  148.0708  139.8054  153.5435 H   0  0  0  0  0  0  0  0  0  0  0  0
  149.7403  142.1673  153.9348 H   0  0  0  0  0  0  0  0  0  0  0  0
  148.0929  141.8843  154.5081 H   0  0  0  0  0  0  0  0  0  0  0  0
  149.3527  141.9454  156.6173 H   0  0  0  0  0  0  0  0  0  0  0  0
  1  2  1  0  0  0  0
  1 19  1  0  0  0  0
  1 20  1  0  0  0  0
  1 21  1  0  0  0  0
  2  3  1  0  0  0  0
  2 22  1  0  0  0  0
  3  4  2  0  0  0  0
  3  5  1  0  0  0  0
  5 10  1  0  0  0  0
  5  6  2  0  0  0  0
  6  7  1  0  0  0  0
  6 23  1  0  0  0  0
  7  8  2  0  0  0  0
  7 24  1  0  0  0  0
  8  9  1  0  0  0  0
  8 25  1  0  0  0  0
  9 10  2  0  0  0  0
 10 11  1  0  0  0  0
 11 12  1  0  0  0  0
 11 26  1  0  0  0  0
 12 17  1  0  0  0  0
 12 13  1  0  0  0  0
 12 27  1  0  0  0  0
 13 14  1  0  0  0  0
 13 28  1  0  0  0  0
 13 29  1  0  0  0  0
 14 18  1  0  0  0  0
 14 15  1  0  0  0  0
 14 30  1  0  0  0  0
 15 16  1  0  0  0  0
 15 31  1  0  0  0  0
 15 32  1  0  0  0  0
 16 17  1  0  0  0  0
 16 33  1  0  0  0  0
 16 34  1  0  0  0  0
 17 18  1  0  0  0  0
 17 35  1  0  0  0  0
M  END
> <s_m_source_file>
AV-unprocessed.smi

> <i_m_source_file_index>
886

> <i_lp_mmshare_version>
43012

> <i_f3d_flags>
0

> <s_epik_input>
W0NIM11bTkhdQyg9TyljMVtjSF1bY0hdW2NIXW5jMVtOSF1bQ0BIXShbQ0gyXVtDQEhdMjMpW0NASF0oTzMpW0NIMl1bQ0gyXTI=

> <s_epik_cmdline>
J2VwaWtfcHl0aG9uJywgJy1waCcsICc3LjAnLCAnLXRuJywgJzgnLCAnLW1hJywgJzIwMCcsICctbWV0YWxfYmluZGluZycsICctaW1hZScsICc8aW5maWxlLm1hZT4nLCAnLW9tYWUnLCAnPG91dGZpbGUubWFlPic=

> <r_lp_tautomer_probability>
1

> <r_epik_Ionization_Penalty>
0.0065447

> <r_epik_Ionization_Penalty_Charging>
0

> <r_epik_Ionization_Penalty_Neutral>
0.0065447

> <r_epik_State_Penalty>
0.00484214

> <r_epik_Charging_Adjusted_Penalty>
0.00484214

> <i_epik_Tot_Q>
0

> <i_epik_Tot_abs_Q>
0

> <r_epik_Metal_State_Penalty>
-0

> <b_epik_Metal_Only>
0

> <s_lp_Force_Field>
OPLS_2005

> <r_lp_Energy>
46.3803

> <b_lp_Chiralities_Consistent>
1

> <s_lp_Variant>
AV-unprocessed.smi:886-2

> <Gold.Version>
5.8.1

> <Gold.Id.Protein>
6NUR|6NUR_protein|mol2

> <Gold.PLP.Fitness>
41.8217

> <Gold.PLP.PLP>
-36.7469

> <Gold.PLP.part.hbond>
-1.0000

> <Gold.PLP.part.metal>
0.0000

> <Gold.PLP.part.buried>
-0.0509

> <Gold.PLP.part.nonpolar>
-34.5183

> <Gold.PLP.part.repulsive>
0.2508

> <Gold.PLP.ligand.clash>
0.0000

> <Gold.PLP.ligand.torsion>
0.1281

> <Gold.PLP.Chemscore.Hbond>
0.9760

> <Gold.PLP.Chemscore.CHOScore>
0.7930

> <Gold.PLP.Chemscore.Metal>
0.0000

> <Gold.Chemscore.Hbonds>
donor molecule, donor type, donor heavy atom, donor atom, acceptor molecule, acceptor atom, score
      P1  H  7997  8010       L1     4  0.80
      L1  C     8    25       P1  8028  0.67
      L1  C     8    25       P1  8029  0.09

> <Gold.PLP.Chemscore.Internal.Correction>
0.0242

> <Gold.Rescore>
     Score         DG    S(hbond)    S(metal)    S(lipo)     H(rot)  DE(clash)    DE(int)     intcor
     15.47     -16.87       0.92        0.00      92.96       1.00       0.12       1.28       ----

> <Gold.Chemscore.Fitness>
15.4652

> <Gold.Chemscore.DG>
-16.8650

> <Gold.Chemscore.ZeroCoef>
-5.4800

> <Gold.Chemscore.Hbond>
0.9189

> <Gold.Chemscore.Metal>
0.0000

> <Gold.Chemscore.Lipo>
92.9571

> <Gold.Chemscore.Internal_Hbond>
0.0000

> <Gold.Chemscore.DEClash>
0.1156

> <Gold.Chemscore.DEInternal>
1.2842

> <Gold.Chemscore.Rot>
1.0000

> <Gold.Chemscore.Internal.Correction>
   9.000000E+99

> <Gold.Chemscore.Hbonds>
donor molecule, donor type, donor heavy atom, donor atom, acceptor molecule, acceptor atom, score
      P1  H  7997  8010       L1     4  0.74

> <Gold.Chemscore.Hbond.Weighted>
-3.0690

> <Gold.Chemscore.Metal.Weighted>
-0.0000

> <Gold.Chemscore.Lipo.Weighted>
-10.8760

> <Gold.Chemscore.Internal_Hbond.Weighted>
0.0000

> <Gold.Chemscore.DEClash.Weighted>
0.1156

> <Gold.Chemscore.DEInternal.Weighted>
1.2842

> <Gold.Chemscore.Rot.Weighted>
2.5600

> <Gold.Chemscore.Internal.Correction.Weighted>
   9.000000E+99

> <Gold.Protein.RotatedTorsions>
[ 6907 6896 6895 6894 ] final  163.90 input  -60.11 | X-H torsion
[ 7974 7965 7964 7962 ] final   71.86 input  175.53 | X-H torsion
[ 8008 7997 7996 7995 ] final   16.43 input   59.86 | X-H torsion
[ 10167 10162 10161 10158 ] final -119.23 input  -65.29 | X-H torsion
[ 10718 10713 10712 10709 ] final -143.18 input   66.30 | X-H torsion
[ 10763 10752 10751 10750 ] final  -84.21 input  -60.55 | X-H torsion
[ 11005 11000 10999 10996 ] final  157.15 input  -57.11 | X-H torsion

> <Gold.Protein.ActiveResidues>
 VAL166  LYS551  ARG553  GLY616  TRP617  ASP618  TYR619  PRO620  LYS621  CYS622 
 ASP623  PHE694  ASN695  SER759  ASP760  ASP761  ALA762  ILE779  LEU786  VAL792 
 PHE793  MET794  SER795  GLU796  ALA797  LYS798  CYS799  TRP800  GLU811  SER814 

> <Gold.Protein.RotatedAtoms>
  151.9181  133.3578  159.3887 H   0  0  0  0  0  0  0  0  0  0  0  0  # atno 6907 bound_to 6896
  150.7043  134.4663  159.5413 H   0  0  0  0  0  0  0  0  0  0  0  0  # atno 6908 bound_to 6896
  152.2281  134.8348  160.0528 H   0  0  0  0  0  0  0  0  0  0  0  0  # atno 6909 bound_to 6896
  145.7605  139.2799  143.1379 H   0  0  0  0  0  0  0  0  0  0  0  0  # atno 7974 bound_to 7965
  154.8769  140.2967  155.5448 H   0  0  0  0  0  0  0  0  0  0  0  0  # atno 8008 bound_to 7997
  156.3022  140.2449  156.3700 H   0  0  0  0  0  0  0  0  0  0  0  0  # atno 8009 bound_to 7997
  154.8758  140.0399  157.1741 H   0  0  0  0  0  0  0  0  0  0  0  0  # atno 8010 bound_to 7997
  140.0489  143.5080  152.2092 H   0  0  0  0  0  0  0  0  0  0  0  0  # atno 10167 bound_to 10162
  156.3549  130.7707  151.1866 H   0  0  0  0  0  0  0  0  0  0  0  0  # atno 10718 bound_to 10713
  154.5969  135.5528  153.7334 H   0  0  0  0  0  0  0  0  0  0  0  0  # atno 10763 bound_to 10752
  153.0139  135.6357  154.1770 H   0  0  0  0  0  0  0  0  0  0  0  0  # atno 10764 bound_to 10752
  154.1710  135.2892  155.3061 H   0  0  0  0  0  0  0  0  0  0  0  0  # atno 10765 bound_to 10752
  140.1742  134.8521  157.2726 H   0  0  0  0  0  0  0  0  0  0  0  0  # atno 11005 bound_to 11000
  146.0268  140.8296  142.9896 LP  0  0  0  0  0  0  0  0  0  0  0  0  # atno 17320 bound_to 7965
  144.6831  140.2710  143.7306 LP  0  0  0  0  0  0  0  0  0  0  0  0  # atno 17321 bound_to 7965
  139.5966  144.7569  151.3272 LP  0  0  0  0  0  0  0  0  0  0  0  0  # atno 17342 bound_to 10162
  140.7226  143.7093  150.7782 LP  0  0  0  0  0  0  0  0  0  0  0  0  # atno 17343 bound_to 10162
  157.7466  131.0417  150.4658 LP  0  0  0  0  0  0  0  0  0  0  0  0  # atno 17370 bound_to 10713
  156.4859  130.4084  149.6434 LP  0  0  0  0  0  0  0  0  0  0  0  0  # atno 17371 bound_to 10713
  140.2342  134.3873  155.7508 LP  0  0  0  0  0  0  0  0  0  0  0  0  # atno 17394 bound_to 11000
  141.2219  133.7231  156.8688 LP  0  0  0  0  0  0  0  0  0  0  0  0  # atno 17395 bound_to 11000

$$$$
