AV-unprocessed.smi:2210|AV-procd|sdf|8949|dock4
  -GOLD-   2272012163D 1   1.00000     0.00000
 Structure written by MMmdl.
 37 38  0  0  0  0  0  0  0  0  1 V2000
  145.4021  138.4272  153.9363 O   0  0  0  0  0  0  0  0  0  0  0  0
  146.3119  137.8705  153.3221 C   0  0  0  0  0  0  0  0  0  0  0  0
  146.1283  136.7919  152.5473 N   0  0  0  0  0  0  0  0  0  0  0  0
  144.8475  136.1328  152.3189 C   0  0  0  0  0  0  0  0  0  0  0  0
  144.8100  135.4270  150.9520 C   0  0  0  0  0  0  0  0  0  0  0  0
  144.9431  133.9175  151.0653 C   0  0  0  0  0  0  0  0  0  0  0  0
  145.9484  133.3403  151.7521 C   0  0  0  0  0  0  0  0  0  0  0  0
  146.1387  131.8397  151.8869 C   0  0  0  0  0  0  0  0  0  0  0  0
  145.2816  131.0481  150.8850 C   0  0  0  0  0  0  0  0  0  0  0  0
  143.8608  131.6188  150.8007 C   0  0  0  0  0  0  0  0  0  0  0  0
  143.8742  133.0926  150.3568 C   0  0  0  0  0  0  0  0  0  0  0  0
  147.6049  138.2372  153.3457 N   0  0  0  0  0  0  0  0  0  0  0  0
  148.2038  139.3230  154.0401 C   0  0  0  0  0  0  0  0  0  0  0  0
  147.5589  140.5570  154.2984 C   0  0  0  0  0  0  0  0  0  0  0  0
  148.2665  141.5629  154.9844 C   0  0  0  0  0  0  0  0  0  0  0  0
  149.5933  141.3025  155.3788 C   0  0  0  0  0  0  0  0  0  0  0  0
  150.2253  140.1372  155.1260 N   0  0  0  0  0  0  0  0  0  0  0  0
  149.5406  139.1775  154.4683 C   0  0  0  0  0  0  0  0  0  0  0  0
  146.9331  136.3947  152.0850 H   0  0  0  0  0  0  0  0  0  0  0  0
  144.7003  135.4111  153.1222 H   0  0  0  0  0  0  0  0  0  0  0  0
  144.0345  136.8567  152.3982 H   0  0  0  0  0  0  0  0  0  0  0  0
  143.8753  135.6649  150.4420 H   0  0  0  0  0  0  0  0  0  0  0  0
  145.6105  135.8008  150.3128 H   0  0  0  0  0  0  0  0  0  0  0  0
  146.6779  133.9566  152.2574 H   0  0  0  0  0  0  0  0  0  0  0  0
  147.1923  131.5967  151.7469 H   0  0  0  0  0  0  0  0  0  0  0  0
  145.8809  131.5586  152.9083 H   0  0  0  0  0  0  0  0  0  0  0  0
  145.7428  131.0911  149.8973 H   0  0  0  0  0  0  0  0  0  0  0  0
  145.2535  129.9953  151.1673 H   0  0  0  0  0  0  0  0  0  0  0  0
  143.2547  131.0290  150.1124 H   0  0  0  0  0  0  0  0  0  0  0  0
  143.3840  131.5374  151.7784 H   0  0  0  0  0  0  0  0  0  0  0  0
  142.8934  133.5341  150.5359 H   0  0  0  0  0  0  0  0  0  0  0  0
  144.0555  133.1494  149.2831 H   0  0  0  0  0  0  0  0  0  0  0  0
  148.2466  137.6321  152.8545 H   0  0  0  0  0  0  0  0  0  0  0  0
  146.5493  140.7571  153.9754 H   0  0  0  0  0  0  0  0  0  0  0  0
  147.8035  142.5148  155.1990 H   0  0  0  0  0  0  0  0  0  0  0  0
  150.1642  142.0531  155.9055 H   0  0  0  0  0  0  0  0  0  0  0  0
  150.0788  138.2594  154.2822 H   0  0  0  0  0  0  0  0  0  0  0  0
  1  2  2  0  0  0  0
  2  3  1  0  0  0  0
  2 12  1  0  0  0  0
  3  4  1  0  0  0  0
  3 19  1  0  0  0  0
  4  5  1  0  0  0  0
  4 20  1  0  0  0  0
  4 21  1  0  0  0  0
  5  6  1  0  0  0  0
  5 22  1  0  0  0  0
  5 23  1  0  0  0  0
  6 11  1  0  0  0  0
  6  7  2  0  0  0  0
  7  8  1  0  0  0  0
  7 24  1  0  0  0  0
  8  9  1  0  0  0  0
  8 25  1  0  0  0  0
  8 26  1  0  0  0  0
  9 10  1  0  0  0  0
  9 27  1  0  0  0  0
  9 28  1  0  0  0  0
 10 11  1  0  0  0  0
 10 29  1  0  0  0  0
 10 30  1  0  0  0  0
 11 31  1  0  0  0  0
 11 32  1  0  0  0  0
 12 13  1  0  0  0  0
 12 33  1  0  0  0  0
 13 18  1  0  0  0  0
 13 14  2  0  0  0  0
 14 15  1  0  0  0  0
 14 34  1  0  0  0  0
 15 16  2  0  0  0  0
 15 35  1  0  0  0  0
 16 17  1  0  0  0  0
 16 36  1  0  0  0  0
 17 18  2  0  0  0  0
 18 37  1  0  0  0  0
M  END
> <s_m_source_file>
AV-unprocessed.smi

> <i_m_source_file_index>
2210

> <i_lp_mmshare_version>
43012

> <i_f3d_flags>
0

> <s_epik_input>
W2NIXTFuW2NIXVtjSF1bY0hdYzFbTkhdQyg9TylbTkhdW0NIMl1bQ0gyXUMyPVtDSF1bQ0gyXVtDSDJdW0NIMl1bQ0gyXTI=

> <s_epik_cmdline>
J2VwaWtfcHl0aG9uJywgJy1waCcsICc3LjAnLCAnLXRuJywgJzgnLCAnLW1hJywgJzIwMCcsICctbWV0YWxfYmluZGluZycsICctaW1hZScsICc8aW5maWxlLm1hZT4nLCAnLW9tYWUnLCAnPG91dGZpbGUubWFlPic=

> <r_epik_Ionization_Penalty>
0.00482236

> <r_epik_Ionization_Penalty_Charging>
0

> <r_epik_Ionization_Penalty_Neutral>
0.00482236

> <r_epik_State_Penalty>
0.0034674

> <r_epik_Charging_Adjusted_Penalty>
0.0034674

> <i_epik_Tot_Q>
0

> <i_epik_Tot_abs_Q>
0

> <r_epik_Metal_State_Penalty>
-0

> <b_epik_Metal_Only>
0

> <s_lp_Force_Field>
OPLS_2005

> <r_lp_Energy>
10.3884

> <b_lp_Chiralities_Consistent>
1

> <s_lp_Variant>
AV-unprocessed.smi:2210-1

> <Gold.Version>
5.8.1

> <Gold.Id.Protein>
6NUR|6NUR_protein|mol2

> <Gold.PLP.Fitness>
43.5395

> <Gold.PLP.PLP>
-33.8744

> <Gold.PLP.part.hbond>
-3.6996

> <Gold.PLP.part.metal>
0.0000

> <Gold.PLP.part.buried>
-1.0680

> <Gold.PLP.part.nonpolar>
-31.9243

> <Gold.PLP.part.repulsive>
2.4170

> <Gold.PLP.ligand.clash>
0.0000

> <Gold.PLP.ligand.torsion>
0.7624

> <Gold.PLP.Chemscore.Hbond>
2.9600

> <Gold.PLP.Chemscore.CHOScore>
0.7687

> <Gold.PLP.Chemscore.Metal>
0.0000

> <Gold.Chemscore.Hbonds>
donor molecule, donor type, donor heavy atom, donor atom, acceptor molecule, acceptor atom, score
      L1  H     3    19       P1  7948  1.00
      L1  H    12    33       P1  7948  1.00
      P1  H  7989  7998       L1    17  0.37

> <Gold.PLP.Chemscore.Internal.Correction>
0.0038

> <Gold.Rescore>
     Score         DG    S(hbond)    S(metal)    S(lipo)     H(rot)  DE(clash)    DE(int)     intcor
     17.48     -19.54       2.14        0.00      89.29       1.37       0.15       1.92       ----

> <Gold.Chemscore.Fitness>
17.4764

> <Gold.Chemscore.DG>
-19.5434

> <Gold.Chemscore.ZeroCoef>
-5.4800

> <Gold.Chemscore.Hbond>
2.1364

> <Gold.Chemscore.Metal>
0.0000

> <Gold.Chemscore.Lipo>
89.2918

> <Gold.Chemscore.Internal_Hbond>
0.0000

> <Gold.Chemscore.DEClash>
0.1454

> <Gold.Chemscore.DEInternal>
1.9217

> <Gold.Chemscore.Rot>
1.3747

> <Gold.Chemscore.Internal.Correction>
   9.000000E+99

> <Gold.Chemscore.Hbonds>
donor molecule, donor type, donor heavy atom, donor atom, acceptor molecule, acceptor atom, score
      L1  H     3    19       P1  7948  0.91
      L1  H    12    33       P1  7948  1.00
      P1  H  7989  7998       L1    17  0.02

> <Gold.Chemscore.Hbond.Weighted>
-7.1355

> <Gold.Chemscore.Metal.Weighted>
-0.0000

> <Gold.Chemscore.Lipo.Weighted>
-10.4471

> <Gold.Chemscore.Internal_Hbond.Weighted>
0.0000

> <Gold.Chemscore.DEClash.Weighted>
0.1454

> <Gold.Chemscore.DEInternal.Weighted>
1.9217

> <Gold.Chemscore.Rot.Weighted>
3.5192

> <Gold.Chemscore.Internal.Correction.Weighted>
   9.000000E+99

> <Gold.Protein.RotatedTorsions>
[ 6907 6896 6895 6894 ] final   62.48 input  -60.11 | X-H torsion
[ 7974 7965 7964 7962 ] final -126.97 input  175.53 | X-H torsion
[ 8008 7997 7996 7995 ] final -144.53 input   59.86 | X-H torsion
[ 10167 10162 10161 10158 ] final -167.72 input  -65.29 | X-H torsion
[ 10718 10713 10712 10709 ] final   96.84 input   66.30 | X-H torsion
[ 10763 10752 10751 10750 ] final -103.59 input  -60.55 | X-H torsion
[ 11005 11000 10999 10996 ] final  160.80 input  -57.11 | X-H torsion

> <Gold.Protein.ActiveResidues>
 VAL166  LYS551  ARG553  GLY616  TRP617  ASP618  TYR619  PRO620  LYS621  CYS622 
 ASP623  PHE694  ASN695  SER759  ASP760  ASP761  ALA762  ILE779  LEU786  VAL792 
 PHE793  MET794  SER795  GLU796  ALA797  LYS798  CYS799  TRP800  GLU811  SER814 

> <Gold.Protein.RotatedAtoms>
  152.4175  134.6014  160.0000 H   0  0  0  0  0  0  0  0  0  0  0  0  # atno 6907 bound_to 6896
  151.6173  133.3336  159.3088 H   0  0  0  0  0  0  0  0  0  0  0  0  # atno 6908 bound_to 6896
  150.8064  134.7230  159.6714 H   0  0  0  0  0  0  0  0  0  0  0  0  # atno 6909 bound_to 6896
  144.9818  140.7648  143.4607 H   0  0  0  0  0  0  0  0  0  0  0  0  # atno 7974 bound_to 7965
  155.5284  140.0597  157.2893 H   0  0  0  0  0  0  0  0  0  0  0  0  # atno 8008 bound_to 7997
  154.4493  140.1940  156.0515 H   0  0  0  0  0  0  0  0  0  0  0  0  # atno 8009 bound_to 7997
  156.0669  140.3265  155.7533 H   0  0  0  0  0  0  0  0  0  0  0  0  # atno 8010 bound_to 7997
  139.6031  144.0969  152.1764 H   0  0  0  0  0  0  0  0  0  0  0  0  # atno 10167 bound_to 10162
  157.6921  131.0590  150.4552 H   0  0  0  0  0  0  0  0  0  0  0  0  # atno 10718 bound_to 10713
  154.7818  135.4818  153.9860 H   0  0  0  0  0  0  0  0  0  0  0  0  # atno 10763 bound_to 10752
  153.1504  135.6790  153.8898 H   0  0  0  0  0  0  0  0  0  0  0  0  # atno 10764 bound_to 10752
  153.8544  135.3163  155.3412 H   0  0  0  0  0  0  0  0  0  0  0  0  # atno 10765 bound_to 10752
  140.2095  134.8278  157.3105 H   0  0  0  0  0  0  0  0  0  0  0  0  # atno 11005 bound_to 11000
  145.2410  139.2072  143.4993 LP  0  0  0  0  0  0  0  0  0  0  0  0  # atno 17320 bound_to 7965
  146.3410  140.2305  142.8593 LP  0  0  0  0  0  0  0  0  0  0  0  0  # atno 17321 bound_to 7965
  140.0570  144.5887  150.7292 LP  0  0  0  0  0  0  0  0  0  0  0  0  # atno 17342 bound_to 10162
  140.7265  143.2641  151.4103 LP  0  0  0  0  0  0  0  0  0  0  0  0  # atno 17343 bound_to 10162
  156.4900  130.4093  149.6412 LP  0  0  0  0  0  0  0  0  0  0  0  0  # atno 17370 bound_to 10713
  156.3426  130.7390  151.2337 LP  0  0  0  0  0  0  0  0  0  0  0  0  # atno 17371 bound_to 10713
  140.1966  134.4305  155.7685 LP  0  0  0  0  0  0  0  0  0  0  0  0  # atno 17394 bound_to 11000
  141.2226  133.7052  156.8116 LP  0  0  0  0  0  0  0  0  0  0  0  0  # atno 17395 bound_to 11000

$$$$
