AV-unprocessed.smi:254|AV-procd|sdf|1945|dock1
  -GOLD-   2262021 73D 1   1.00000     0.00000
 Structure written by MMmdl.
 50 53  0  0  0  0  0  0  0  0  1 V2000
  153.3672  141.1857  161.2297 O   0  0  0  0  0  0  0  0  0  0  0  0
  152.8234  141.1878  160.1265 C   0  0  0  0  0  0  0  0  0  0  0  0
  152.2948  139.9305  159.4610 C   0  0  0  0  0  0  0  0  0  0  0  0
  151.7374  140.4710  158.2271 N   0  0  0  0  0  0  0  0  0  0  0  0
  151.1343  139.7009  157.2849 C   0  0  0  0  0  0  0  0  0  0  0  0
  151.1827  140.1170  155.9921 N   0  0  0  0  0  0  0  0  0  0  0  0
  150.6038  139.4007  155.0255 C   0  0  0  0  0  0  0  0  0  0  0  0
  149.9355  138.2520  155.1278 N   0  0  0  0  0  0  0  0  0  0  0  0
  149.8851  137.8192  156.4190 C   0  0  0  0  0  0  0  0  0  0  0  0
  150.4476  138.4783  157.5513 C   0  0  0  0  0  0  0  0  0  0  0  0
  150.1779  137.7393  158.6978 N   0  0  0  0  0  0  0  0  0  0  0  0
  149.4989  136.7116  158.2702 C   0  0  0  0  0  0  0  0  0  0  0  0
  149.2909  136.6682  156.9103 N   0  0  0  0  0  0  0  0  0  0  0  0
  148.5705  135.6371  156.1733 C   0  0  0  0  0  0  0  0  0  0  0  0
  149.2246  134.2307  156.2330 C   0  0  2  0  0  0  0  0  0  0  0  0
  150.7649  134.3405  156.1240 C   0  0  0  0  0  0  0  0  0  0  0  0
  151.4224  133.5167  157.0640 O   0  0  0  0  0  0  0  0  0  0  0  0
  148.6152  133.2602  155.1833 C   0  0  2  0  0  0  0  0  0  0  0  0
  149.2521  131.8797  155.1582 C   0  0  0  0  0  0  0  0  0  0  0  0
  148.7834  131.3280  153.8164 C   0  0  0  0  0  0  0  0  0  0  0  0
  148.6504  132.4574  152.9613 O   0  0  0  0  0  0  0  0  0  0  0  0
  148.8107  133.6541  153.7155 C   0  0  0  0  0  0  0  0  0  0  0  0
  151.9034  141.9140  158.1236 C   0  0  0  0  0  0  0  0  0  0  0  0
  152.6021  142.2559  159.3518 N   0  0  0  0  0  0  0  0  0  0  0  0
  152.9495  143.6425  159.6546 C   0  0  0  0  0  0  0  0  0  0  0  0
  151.7642  144.6034  159.4525 C   0  0  0  0  0  0  0  0  0  0  0  0
  151.9828  145.7135  160.1558 F   0  0  0  0  0  0  0  0  0  0  0  0
  151.6257  144.9369  158.1696 F   0  0  0  0  0  0  0  0  0  0  0  0
  150.6344  144.0431  159.8845 F   0  0  0  0  0  0  0  0  0  0  0  0
  153.1046  139.2272  159.2631 H   0  0  0  0  0  0  0  0  0  0  0  0
  151.5304  139.4550  160.0765 H   0  0  0  0  0  0  0  0  0  0  0  0
  150.6893  139.8053  154.0278 H   0  0  0  0  0  0  0  0  0  0  0  0
  149.1329  135.9493  158.9424 H   0  0  0  0  0  0  0  0  0  0  0  0
  147.5596  135.5844  156.5796 H   0  0  0  0  0  0  0  0  0  0  0  0
  148.4507  135.9661  155.1412 H   0  0  0  0  0  0  0  0  0  0  0  0
  148.9976  133.8340  157.2239 H   0  0  0  0  0  0  0  0  0  0  0  0
  151.1065  134.0920  155.1186 H   0  0  0  0  0  0  0  0  0  0  0  0
  151.0859  135.3619  156.3287 H   0  0  0  0  0  0  0  0  0  0  0  0
  152.1509  133.0932  156.6361 H   0  0  0  0  0  0  0  0  0  0  0  0
  147.5443  133.1528  155.3608 H   0  0  0  0  0  0  0  0  0  0  0  0
  150.3398  131.9639  155.1650 H   0  0  0  0  0  0  0  0  0  0  0  0
  148.9614  131.2409  155.9903 H   0  0  0  0  0  0  0  0  0  0  0  0
  149.4749  130.5932  153.4039 H   0  0  0  0  0  0  0  0  0  0  0  0
  147.8060  130.8555  153.9199 H   0  0  0  0  0  0  0  0  0  0  0  0
  148.1049  134.4175  153.3878 H   0  0  0  0  0  0  0  0  0  0  0  0
  149.8211  134.0292  153.5463 H   0  0  0  0  0  0  0  0  0  0  0  0
  152.5038  142.1824  157.2533 H   0  0  0  0  0  0  0  0  0  0  0  0
  150.9388  142.4214  158.0756 H   0  0  0  0  0  0  0  0  0  0  0  0
  153.2965  143.7028  160.6870 H   0  0  0  0  0  0  0  0  0  0  0  0
  153.7915  143.9512  159.0330 H   0  0  0  0  0  0  0  0  0  0  0  0
  1  2  2  0  0  0  0
  2 24  1  0  0  0  0
  2  3  1  0  0  0  0
  3  4  1  0  0  0  0
  3 30  1  0  0  0  0
  3 31  1  0  0  0  0
  4  5  1  0  0  0  0
  4 23  1  0  0  0  0
  5 10  1  0  0  0  0
  5  6  2  0  0  0  0
  6  7  1  0  0  0  0
  7  8  2  0  0  0  0
  7 32  1  0  0  0  0
  8  9  1  0  0  0  0
  9 13  1  0  0  0  0
  9 10  2  0  0  0  0
 10 11  1  0  0  0  0
 11 12  2  0  0  0  0
 12 13  1  0  0  0  0
 12 33  1  0  0  0  0
 13 14  1  0  0  0  0
 14 15  1  0  0  0  0
 14 34  1  0  0  0  0
 14 35  1  0  0  0  0
 15 16  1  0  0  0  0
 15 18  1  0  0  0  0
 15 36  1  0  0  0  0
 16 17  1  0  0  0  0
 16 37  1  0  0  0  0
 16 38  1  0  0  0  0
 17 39  1  0  0  0  0
 18 22  1  0  0  0  0
 18 19  1  0  0  0  0
 18 40  1  0  0  0  0
 19 20  1  0  0  0  0
 19 41  1  0  0  0  0
 19 42  1  0  0  0  0
 20 21  1  0  0  0  0
 20 43  1  0  0  0  0
 20 44  1  0  0  0  0
 21 22  1  0  0  0  0
 22 45  1  0  0  0  0
 22 46  1  0  0  0  0
 23 24  1  0  0  0  0
 23 47  1  0  0  0  0
 23 48  1  0  0  0  0
 24 25  1  0  0  0  0
 25 26  1  0  0  0  0
 25 49  1  0  0  0  0
 25 50  1  0  0  0  0
 26 27  1  0  0  0  0
 26 28  1  0  0  0  0
 26 29  1  0  0  0  0
M  END
> <s_m_source_file>
AV-unprocessed.smi

> <i_m_source_file_index>
254

> <i_lp_mmshare_version>
43012

> <i_f3d_flags>
0

> <s_epik_input>
RkMoRikoRilbQ0gyXU4xW0NIMl1OKFtDSDJdQzE9TyljKG5bY0hdbjIpYyhjMjMpbltjSF1uM1tDSDJdW0NASF0oW0NIMl1bT0hdKVtDQEBIXTRbQ0gyXVtDSDJdT1tDSDJdNA==

> <s_epik_cmdline>
J2VwaWtfcHl0aG9uJywgJy1waCcsICc3LjAnLCAnLXRuJywgJzgnLCAnLW1hJywgJzIwMCcsICctbWV0YWxfYmluZGluZycsICctaW1hZScsICc8aW5maWxlLm1hZT4nLCAnLW9tYWUnLCAnPG91dGZpbGUubWFlPic=

> <r_lp_tautomer_probability>
1

> <r_epik_Ionization_Penalty>
0.000292924

> <r_epik_Ionization_Penalty_Charging>
0

> <r_epik_Ionization_Penalty_Neutral>
0.000292924

> <r_epik_State_Penalty>
-0

> <r_epik_Charging_Adjusted_Penalty>
0

> <i_epik_Tot_Q>
0

> <i_epik_Tot_abs_Q>
0

> <r_epik_Metal_State_Penalty>
-0

> <b_epik_Metal_Only>
0

> <s_epik_Chemistry_Notes>
This compound contains an acetal/aminal-like group ( X-CH(R)-Y where X, Y are N, S, or O) that may be acid/base labile, releasing an aldehyde.

> <s_lp_Force_Field>
OPLS_2005

> <r_lp_Energy>
38.7096

> <b_lp_Chiralities_Consistent>
1

> <s_lp_Variant>
AV-unprocessed.smi:254-1

> <Gold.Version>
5.8.1

> <Gold.Id.Protein>
6NUR|6NUR_protein|mol2

> <Gold.PLP.Fitness>
48.2097

> <Gold.PLP.PLP>
-48.8636

> <Gold.PLP.part.hbond>
-1.0000

> <Gold.PLP.part.metal>
0.0000

> <Gold.PLP.part.buried>
-8.1675

> <Gold.PLP.part.nonpolar>
-40.2197

> <Gold.PLP.part.repulsive>
0.2667

> <Gold.PLP.ligand.clash>
0.0000

> <Gold.PLP.ligand.torsion>
1.5170

> <Gold.PLP.Chemscore.Hbond>
0.5120

> <Gold.PLP.Chemscore.CHOScore>
0.0000

> <Gold.PLP.Chemscore.Metal>
0.0000

> <Gold.Chemscore.Hbonds>
donor molecule, donor type, donor heavy atom, donor atom, acceptor molecule, acceptor atom, score
      P1  H  6896  6908       L1    17  0.43

> <Gold.PLP.Chemscore.Internal.Correction>
0.8441

> <Gold.Rescore>
     Score         DG    S(hbond)    S(metal)    S(lipo)     H(rot)  DE(clash)    DE(int)     intcor
      4.12      -6.31       0.54        0.00      63.89       3.30       0.15       2.04       ----

> <Gold.Chemscore.Fitness>
4.1152

> <Gold.Chemscore.DG>
-6.3076

> <Gold.Chemscore.ZeroCoef>
-5.4800

> <Gold.Chemscore.Hbond>
0.5372

> <Gold.Chemscore.Metal>
0.0000

> <Gold.Chemscore.Lipo>
63.8879

> <Gold.Chemscore.Internal_Hbond>
0.0000

> <Gold.Chemscore.DEClash>
0.1535

> <Gold.Chemscore.DEInternal>
2.0389

> <Gold.Chemscore.Rot>
3.2974

> <Gold.Chemscore.Internal.Correction>
   9.000000E+99

> <Gold.Chemscore.Hbonds>
donor molecule, donor type, donor heavy atom, donor atom, acceptor molecule, acceptor atom, score
      P1  H  6896  6908       L1    17  0.41

> <Gold.Chemscore.Hbond.Weighted>
-1.7941

> <Gold.Chemscore.Metal.Weighted>
-0.0000

> <Gold.Chemscore.Lipo.Weighted>
-7.4749

> <Gold.Chemscore.Internal_Hbond.Weighted>
0.0000

> <Gold.Chemscore.DEClash.Weighted>
0.1535

> <Gold.Chemscore.DEInternal.Weighted>
2.0389

> <Gold.Chemscore.Rot.Weighted>
8.4414

> <Gold.Chemscore.Internal.Correction.Weighted>
   9.000000E+99

> <Gold.Protein.RotatedTorsions>
[ 6907 6896 6895 6894 ] final   78.73 input  -60.11 | X-H torsion
[ 7974 7965 7964 7962 ] final   75.51 input  175.53 | X-H torsion
[ 8008 7997 7996 7995 ] final -164.70 input   59.86 | X-H torsion
[ 10167 10162 10161 10158 ] final  112.97 input  -65.29 | X-H torsion
[ 10718 10713 10712 10709 ] final   82.83 input   66.30 | X-H torsion
[ 10763 10752 10751 10750 ] final -139.02 input  -60.55 | X-H torsion
[ 11005 11000 10999 10996 ] final   83.81 input  -57.11 | X-H torsion

> <Gold.Protein.ActiveResidues>
 VAL166  LYS551  ARG553  GLY616  TRP617  ASP618  TYR619  PRO620  LYS621  CYS622 
 ASP623  PHE694  ASN695  SER759  ASP760  ASP761  ALA762  ILE779  LEU786  VAL792 
 PHE793  MET794  SER795  GLU796  ALA797  LYS798  CYS799  TRP800  GLU811  SER814 

> <Gold.Protein.RotatedAtoms>
  152.5171  134.3620  159.9287 H   0  0  0  0  0  0  0  0  0  0  0  0  # atno 6907 bound_to 6896
  151.3572  133.3897  159.2694 H   0  0  0  0  0  0  0  0  0  0  0  0  # atno 6908 bound_to 6896
  150.9680  134.9077  159.7829 H   0  0  0  0  0  0  0  0  0  0  0  0  # atno 6909 bound_to 6896
  145.7147  139.2627  143.1630 H   0  0  0  0  0  0  0  0  0  0  0  0  # atno 7974 bound_to 7965
  155.8394  140.0946  157.1744 H   0  0  0  0  0  0  0  0  0  0  0  0  # atno 8008 bound_to 7997
  154.3981  140.1404  156.3771 H   0  0  0  0  0  0  0  0  0  0  0  0  # atno 8009 bound_to 7997
  155.8081  140.3450  155.5444 H   0  0  0  0  0  0  0  0  0  0  0  0  # atno 8010 bound_to 7997
  139.6496  144.7128  151.2075 H   0  0  0  0  0  0  0  0  0  0  0  0  # atno 10167 bound_to 10162
  157.6866  131.0064  150.2432 H   0  0  0  0  0  0  0  0  0  0  0  0  # atno 10718 bound_to 10713
  154.8621  135.3595  154.5478 H   0  0  0  0  0  0  0  0  0  0  0  0  # atno 10763 bound_to 10752
  153.6098  135.7010  153.5356 H   0  0  0  0  0  0  0  0  0  0  0  0  # atno 10764 bound_to 10752
  153.3219  135.4149  155.1385 H   0  0  0  0  0  0  0  0  0  0  0  0  # atno 10765 bound_to 10752
  139.9019  134.8172  156.2360 H   0  0  0  0  0  0  0  0  0  0  0  0  # atno 11005 bound_to 11000
  146.0680  140.7899  142.9702 LP  0  0  0  0  0  0  0  0  0  0  0  0  # atno 17320 bound_to 7965
  144.6932  140.3299  143.7218 LP  0  0  0  0  0  0  0  0  0  0  0  0  # atno 17321 bound_to 7965
  140.7531  143.6173  150.8547 LP  0  0  0  0  0  0  0  0  0  0  0  0  # atno 17342 bound_to 10162
  139.9819  143.5941  152.2940 LP  0  0  0  0  0  0  0  0  0  0  0  0  # atno 17343 bound_to 10162
  156.3043  130.3763  149.7721 LP  0  0  0  0  0  0  0  0  0  0  0  0  # atno 17370 bound_to 10713
  156.5341  130.8271  151.3247 LP  0  0  0  0  0  0  0  0  0  0  0  0  # atno 17371 bound_to 10713
  141.0315  133.6986  156.1438 LP  0  0  0  0  0  0  0  0  0  0  0  0  # atno 17394 bound_to 11000
  140.7089  134.4483  157.5582 LP  0  0  0  0  0  0  0  0  0  0  0  0  # atno 17395 bound_to 11000

$$$$
