AV-unprocessed.smi:2436|AV-procd|sdf|9593|dock9
  -GOLD-   2272013223D 1   1.00000     0.00000
 Structure written by MMmdl.
 36 37  0  0  0  0  0  0  0  0  1 V2000
  144.5482  132.5661  149.7315 C   0  0  0  0  0  0  0  0  0  0  0  0
  145.8478  132.9202  150.4707 C   0  0  0  0  0  0  0  0  0  0  0  0
  145.7465  134.1653  151.3718 C   0  0  0  0  0  0  0  0  0  0  0  0
  146.9739  134.3381  152.1552 N   0  0  0  0  0  0  0  0  0  0  0  0
  147.4552  133.4953  153.0831 C   0  0  0  0  0  0  0  0  0  0  0  0
  146.9072  132.4368  153.3922 O   0  0  0  0  0  0  0  0  0  0  0  0
  148.5973  133.9634  153.6163 N   0  0  0  0  0  0  0  0  0  0  0  0
  149.4040  133.3659  154.6207 C   0  0  0  0  0  0  0  0  0  0  0  0
  149.5635  131.9651  154.5267 C   0  0  0  0  0  0  0  0  0  0  0  0
  150.3551  131.3320  155.5068 C   0  0  0  0  0  0  0  0  0  0  0  0
  150.5337  129.9653  155.4521 O   0  0  0  0  0  0  0  0  0  0  0  0
  149.9620  129.2567  154.3583 C   0  0  0  0  0  0  0  0  0  0  0  0
  150.9429  132.0407  156.5009 N   0  0  0  0  0  0  0  0  0  0  0  0
  150.7342  133.3577  156.5036 C   0  0  0  0  0  0  0  0  0  0  0  0
  150.0042  134.0492  155.6265 N   0  0  0  0  0  0  0  0  0  0  0  0
  145.2813  135.4930  150.7342 C   0  0  0  0  0  0  0  0  0  0  0  0
  143.8629  135.1606  151.2038 C   0  0  0  0  0  0  0  0  0  0  0  0
  144.5150  134.3011  152.2901 C   0  0  0  0  0  0  0  0  0  0  0  0
  144.6997  131.7050  149.0806 H   0  0  0  0  0  0  0  0  0  0  0  0
  144.2055  133.3926  149.1093 H   0  0  0  0  0  0  0  0  0  0  0  0
  143.7468  132.3126  150.4259 H   0  0  0  0  0  0  0  0  0  0  0  0
  146.1678  132.0568  151.0545 H   0  0  0  0  0  0  0  0  0  0  0  0
  146.6322  133.0668  149.7277 H   0  0  0  0  0  0  0  0  0  0  0  0
  147.4995  135.1807  151.9744 H   0  0  0  0  0  0  0  0  0  0  0  0
  148.9290  134.8482  153.2619 H   0  0  0  0  0  0  0  0  0  0  0  0
  149.0979  131.3931  153.7372 H   0  0  0  0  0  0  0  0  0  0  0  0
  150.1964  128.1965  154.4528 H   0  0  0  0  0  0  0  0  0  0  0  0
  150.3665  129.6006  153.4052 H   0  0  0  0  0  0  0  0  0  0  0  0
  148.8757  129.3554  154.3431 H   0  0  0  0  0  0  0  0  0  0  0  0
  151.2032  133.9213  157.2962 H   0  0  0  0  0  0  0  0  0  0  0  0
  145.6808  136.3846  151.2220 H   0  0  0  0  0  0  0  0  0  0  0  0
  145.3981  135.5462  149.6513 H   0  0  0  0  0  0  0  0  0  0  0  0
  143.2928  136.0128  151.5745 H   0  0  0  0  0  0  0  0  0  0  0  0
  143.2960  134.5757  150.4777 H   0  0  0  0  0  0  0  0  0  0  0  0
  143.9878  133.3707  152.5020 H   0  0  0  0  0  0  0  0  0  0  0  0
  144.7062  134.8657  153.2050 H   0  0  0  0  0  0  0  0  0  0  0  0
  1  2  1  0  0  0  0
  1 19  1  0  0  0  0
  1 20  1  0  0  0  0
  1 21  1  0  0  0  0
  2  3  1  0  0  0  0
  2 22  1  0  0  0  0
  2 23  1  0  0  0  0
  3 18  1  0  0  0  0
  3  4  1  0  0  0  0
  3 16  1  0  0  0  0
  4  5  1  0  0  0  0
  4 24  1  0  0  0  0
  5  6  2  0  0  0  0
  5  7  1  0  0  0  0
  7  8  1  0  0  0  0
  7 25  1  0  0  0  0
  8 15  1  0  0  0  0
  8  9  2  0  0  0  0
  9 10  1  0  0  0  0
  9 26  1  0  0  0  0
 10 11  1  0  0  0  0
 10 13  2  0  0  0  0
 11 12  1  0  0  0  0
 12 27  1  0  0  0  0
 12 28  1  0  0  0  0
 12 29  1  0  0  0  0
 13 14  1  0  0  0  0
 14 15  2  0  0  0  0
 14 30  1  0  0  0  0
 16 17  1  0  0  0  0
 16 31  1  0  0  0  0
 16 32  1  0  0  0  0
 17 18  1  0  0  0  0
 17 33  1  0  0  0  0
 17 34  1  0  0  0  0
 18 35  1  0  0  0  0
 18 36  1  0  0  0  0
M  END
> <s_m_source_file>
AV-unprocessed.smi

> <i_m_source_file_index>
2436

> <i_lp_mmshare_version>
43012

> <i_f3d_flags>
0

> <s_epik_input>
W0NIMl0xW0NIMl1bQ0gyXUMxKFtDSDJdW0NIM10pW05IXUMoPU8pW05IXWMyW2NIXWMoT1tDSDNdKW5bY0hdbjI=

> <s_epik_cmdline>
J2VwaWtfcHl0aG9uJywgJy1waCcsICc3LjAnLCAnLXRuJywgJzgnLCAnLW1hJywgJzIwMCcsICctbWV0YWxfYmluZGluZycsICctaW1hZScsICc8aW5maWxlLm1hZT4nLCAnLW9tYWUnLCAnPG91dGZpbGUubWFlPic=

> <r_lp_tautomer_probability>
1

> <r_epik_Ionization_Penalty>
2.8431e-05

> <r_epik_Ionization_Penalty_Charging>
0

> <r_epik_Ionization_Penalty_Neutral>
2.8431e-05

> <r_epik_State_Penalty>
-0

> <r_epik_Charging_Adjusted_Penalty>
0

> <i_epik_Tot_Q>
0

> <i_epik_Tot_abs_Q>
0

> <r_epik_Metal_State_Penalty>
-0

> <b_epik_Metal_Only>
0

> <s_lp_Force_Field>
OPLS_2005

> <r_lp_Energy>
14.8333

> <b_lp_Chiralities_Consistent>
1

> <s_lp_Variant>
AV-unprocessed.smi:2436-1

> <Gold.Version>
5.8.1

> <Gold.Id.Protein>
6NUR|6NUR_protein|mol2

> <Gold.PLP.Fitness>
36.2731

> <Gold.PLP.PLP>
-31.5471

> <Gold.PLP.part.hbond>
-2.0000

> <Gold.PLP.part.metal>
0.0000

> <Gold.PLP.part.buried>
-5.7940

> <Gold.PLP.part.nonpolar>
-24.4449

> <Gold.PLP.part.repulsive>
0.2081

> <Gold.PLP.ligand.clash>
0.2625

> <Gold.PLP.ligand.torsion>
0.5460

> <Gold.PLP.Chemscore.Hbond>
1.8928

> <Gold.PLP.Chemscore.CHOScore>
0.0000

> <Gold.PLP.Chemscore.Metal>
0.0000

> <Gold.Chemscore.Hbonds>
donor molecule, donor type, donor heavy atom, donor atom, acceptor molecule, acceptor atom, score
      L1  H     4    24       P1  7948  1.00
      L1  H     7    25       P1  7948  0.95

> <Gold.PLP.Chemscore.Internal.Correction>
0.4020

> <Gold.Rescore>
     Score         DG    S(hbond)    S(metal)    S(lipo)     H(rot)  DE(clash)    DE(int)     intcor
     10.23     -12.85       1.51        0.00      54.19       1.57       0.09       2.52       ----

> <Gold.Chemscore.Fitness>
10.2344

> <Gold.Chemscore.DG>
-12.8464

> <Gold.Chemscore.ZeroCoef>
-5.4800

> <Gold.Chemscore.Hbond>
1.5132

> <Gold.Chemscore.Metal>
0.0000

> <Gold.Chemscore.Lipo>
54.1856

> <Gold.Chemscore.Internal_Hbond>
0.0000

> <Gold.Chemscore.DEClash>
0.0914

> <Gold.Chemscore.DEInternal>
2.5206

> <Gold.Chemscore.Rot>
1.5732

> <Gold.Chemscore.Internal.Correction>
   9.000000E+99

> <Gold.Chemscore.Hbonds>
donor molecule, donor type, donor heavy atom, donor atom, acceptor molecule, acceptor atom, score
      L1  H     4    24       P1  7948  0.94
      L1  H     7    25       P1  7948  0.20

> <Gold.Chemscore.Hbond.Weighted>
-5.0540

> <Gold.Chemscore.Metal.Weighted>
-0.0000

> <Gold.Chemscore.Lipo.Weighted>
-6.3397

> <Gold.Chemscore.Internal_Hbond.Weighted>
0.0000

> <Gold.Chemscore.DEClash.Weighted>
0.0914

> <Gold.Chemscore.DEInternal.Weighted>
2.5206

> <Gold.Chemscore.Rot.Weighted>
4.0274

> <Gold.Chemscore.Internal.Correction.Weighted>
   9.000000E+99

> <Gold.Protein.RotatedTorsions>
[ 6907 6896 6895 6894 ] final   87.26 input  -60.11 | X-H torsion
[ 7974 7965 7964 7962 ] final   22.74 input  175.53 | X-H torsion
[ 8008 7997 7996 7995 ] final   99.32 input   59.86 | X-H torsion
[ 10167 10162 10161 10158 ] final -121.01 input  -65.29 | X-H torsion
[ 10718 10713 10712 10709 ] final -125.36 input   66.30 | X-H torsion
[ 10763 10752 10751 10750 ] final  139.58 input  -60.55 | X-H torsion
[ 11005 11000 10999 10996 ] final -120.60 input  -57.11 | X-H torsion

> <Gold.Protein.ActiveResidues>
 VAL166  LYS551  ARG553  GLY616  TRP617  ASP618  TYR619  PRO620  LYS621  CYS622 
 ASP623  PHE694  ASN695  SER759  ASP760  ASP761  ALA762  ILE779  LEU786  VAL792 
 PHE793  MET794  SER795  GLU796  ALA797  LYS798  CYS799  TRP800  GLU811  SER814 

> <Gold.Protein.RotatedAtoms>
  152.5408  134.2303  159.8822 H   0  0  0  0  0  0  0  0  0  0  0  0  # atno 6907 bound_to 6896
  151.2276  133.4461  159.2610 H   0  0  0  0  0  0  0  0  0  0  0  0  # atno 6908 bound_to 6896
  151.0746  134.9833  159.8382 H   0  0  0  0  0  0  0  0  0  0  0  0  # atno 6909 bound_to 6896
  146.2015  139.7843  142.8757 H   0  0  0  0  0  0  0  0  0  0  0  0  # atno 7974 bound_to 7965
  156.1094  140.3230  155.8051 H   0  0  0  0  0  0  0  0  0  0  0  0  # atno 8008 bound_to 7997
  155.4700  140.0546  157.2998 H   0  0  0  0  0  0  0  0  0  0  0  0  # atno 8009 bound_to 7997
  154.4749  140.2028  155.9917 H   0  0  0  0  0  0  0  0  0  0  0  0  # atno 8010 bound_to 7997
  140.0296  143.5261  152.2182 H   0  0  0  0  0  0  0  0  0  0  0  0  # atno 10167 bound_to 10162
  156.1668  130.6640  151.0126 H   0  0  0  0  0  0  0  0  0  0  0  0  # atno 10718 bound_to 10713
  153.9085  135.3014  155.3448 H   0  0  0  0  0  0  0  0  0  0  0  0  # atno 10763 bound_to 10752
  154.7635  135.4922  153.9513 H   0  0  0  0  0  0  0  0  0  0  0  0  # atno 10764 bound_to 10752
  153.1206  135.6781  153.9444 H   0  0  0  0  0  0  0  0  0  0  0  0  # atno 10765 bound_to 10752
  141.0132  134.0234  157.3386 H   0  0  0  0  0  0  0  0  0  0  0  0  # atno 11005 bound_to 11000
  145.3466  141.0299  143.3362 LP  0  0  0  0  0  0  0  0  0  0  0  0  # atno 17320 bound_to 7965
  144.8695  139.5058  143.6774 LP  0  0  0  0  0  0  0  0  0  0  0  0  # atno 17321 bound_to 7965
  139.6085  144.7602  151.3007 LP  0  0  0  0  0  0  0  0  0  0  0  0  # atno 17342 bound_to 10162
  140.7307  143.6871  150.7953 LP  0  0  0  0  0  0  0  0  0  0  0  0  # atno 17343 bound_to 10162
  157.6774  131.0847  150.7459 LP  0  0  0  0  0  0  0  0  0  0  0  0  # atno 17370 bound_to 10713
  156.7520  130.4771  149.5455 LP  0  0  0  0  0  0  0  0  0  0  0  0  # atno 17371 bound_to 10713
  139.9101  135.0188  156.7657 LP  0  0  0  0  0  0  0  0  0  0  0  0  # atno 17394 bound_to 11000
  140.6699  133.9569  155.7851 LP  0  0  0  0  0  0  0  0  0  0  0  0  # atno 17395 bound_to 11000

$$$$
