AV-unprocessed.smi:1900|AV-procd|sdf|7711|dock8
  -GOLD-   22720 9453D 1   1.00000     0.00000
 Structure written by MMmdl.
 44 45  0  0  0  0  0  0  0  0  2 V2000
  145.6624  132.4739  148.9536 C   0  0  0  0  0  0  0  0  0  0  0  0
  145.8506  132.7394  150.4512 C   0  0  2  0  0  0  0  0  0  0  0  0
  146.6747  134.0169  150.7130 C   0  0  0  0  0  0  0  0  0  0  0  0
  146.9250  134.2105  152.1622 N   0  3  1  0  0  0  0  0  0  0  0  0
  145.7509  134.7459  152.9017 C   0  0  0  0  0  0  0  0  0  0  0  0
  145.9763  136.1825  153.4028 C   0  0  0  0  0  0  0  0  0  0  0  0
  145.7332  137.2262  152.2997 C   0  0  0  0  0  0  0  0  0  0  0  0
  144.4080  137.8264  152.4028 N   0  0  0  0  0  0  0  0  0  0  0  0
  143.2561  137.1433  152.4601 C   0  0  0  0  0  0  0  0  0  0  0  0
  143.1916  135.9146  152.4122 O   0  0  0  0  0  0  0  0  0  0  0  0
  142.2033  137.9692  152.5758 N   0  0  0  0  0  0  0  0  0  0  0  0
  140.8347  137.6113  152.6715 C   0  0  0  0  0  0  0  0  0  0  0  0
  139.7543  138.4177  152.2215 C   0  0  0  0  0  0  0  0  0  0  0  0
  138.5874  137.8289  152.4404 N   0  0  0  0  0  0  0  0  0  0  0  0
  138.9128  136.6537  153.0246 N   0  0  0  0  0  0  0  0  0  0  0  0
  140.2694  136.4776  153.1846 C   0  0  0  0  0  0  0  0  0  0  0  0
  147.5297  132.9870  152.7484 C   0  0  0  0  0  0  0  0  0  0  0  0
  146.6970  131.7280  152.4243 C   0  0  2  0  0  0  0  0  0  0  0  0
  147.3768  130.4469  152.9196 C   0  0  0  0  0  0  0  0  0  0  0  0
  146.5347  131.6250  151.0137 O   0  0  0  0  0  0  0  0  0  0  0  0
  138.2055  135.9894  153.3053 H   0  0  0  0  0  0  0  0  0  0  0  0
  145.1392  133.2997  148.4712 H   0  0  0  0  0  0  0  0  0  0  0  0
  145.0772  131.5687  148.7885 H   0  0  0  0  0  0  0  0  0  0  0  0
  146.6216  132.3459  148.4512 H   0  0  0  0  0  0  0  0  0  0  0  0
  144.8650  132.8274  150.9109 H   0  0  0  0  0  0  0  0  0  0  0  0
  147.6391  133.9372  150.2094 H   0  0  0  0  0  0  0  0  0  0  0  0
  146.1819  134.8929  150.2893 H   0  0  0  0  0  0  0  0  0  0  0  0
  144.8908  134.7592  152.2309 H   0  0  0  0  0  0  0  0  0  0  0  0
  145.4800  134.0905  153.7294 H   0  0  0  0  0  0  0  0  0  0  0  0
  145.3181  136.4008  154.2433 H   0  0  0  0  0  0  0  0  0  0  0  0
  146.9970  136.2745  153.7764 H   0  0  0  0  0  0  0  0  0  0  0  0
  146.4970  138.0051  152.3328 H   0  0  0  0  0  0  0  0  0  0  0  0
  145.8131  136.7552  151.3197 H   0  0  0  0  0  0  0  0  0  0  0  0
  144.3660  138.8342  152.4506 H   0  0  0  0  0  0  0  0  0  0  0  0
  142.4013  138.9586  152.6102 H   0  0  0  0  0  0  0  0  0  0  0  0
  139.7773  139.3911  151.7541 H   0  0  0  0  0  0  0  0  0  0  0  0
  140.6884  135.5897  153.6343 H   0  0  0  0  0  0  0  0  0  0  0  0
  148.5295  132.8748  152.3265 H   0  0  0  0  0  0  0  0  0  0  0  0
  147.6687  133.0916  153.8235 H   0  0  0  0  0  0  0  0  0  0  0  0
  145.7146  131.7922  152.8939 H   0  0  0  0  0  0  0  0  0  0  0  0
  147.5167  130.4700  154.0007 H   0  0  0  0  0  0  0  0  0  0  0  0
  148.3556  130.3138  152.4578 H   0  0  0  0  0  0  0  0  0  0  0  0
  146.7749  129.5696  152.6818 H   0  0  0  0  0  0  0  0  0  0  0  0
  147.6253  134.9361  152.2243 H   0  0  0  0  0  0  0  0  0  0  0  0
  1  2  1  0  0  0  0
  1 22  1  0  0  0  0
  1 23  1  0  0  0  0
  1 24  1  0  0  0  0
  2 20  1  0  0  0  0
  2  3  1  0  0  0  0
  2 25  1  0  0  0  0
  3  4  1  0  0  0  0
  3 26  1  0  0  0  0
  3 27  1  0  0  0  0
  4  5  1  0  0  0  0
  4 17  1  0  0  0  0
  4 44  1  0  0  0  0
  5  6  1  0  0  0  0
  5 28  1  0  0  0  0
  5 29  1  0  0  0  0
  6  7  1  0  0  0  0
  6 30  1  0  0  0  0
  6 31  1  0  0  0  0
  7  8  1  0  0  0  0
  7 32  1  0  0  0  0
  7 33  1  0  0  0  0
  8  9  1  0  0  0  0
  8 34  1  0  0  0  0
  9 10  2  0  0  0  0
  9 11  1  0  0  0  0
 11 12  1  0  0  0  0
 11 35  1  0  0  0  0
 12 16  2  0  0  0  0
 12 13  1  0  0  0  0
 13 14  2  0  0  0  0
 13 36  1  0  0  0  0
 14 15  1  0  0  0  0
 15 21  1  0  0  0  0
 15 16  1  0  0  0  0
 16 37  1  0  0  0  0
 17 18  1  0  0  0  0
 17 38  1  0  0  0  0
 17 39  1  0  0  0  0
 18 19  1  0  0  0  0
 18 20  1  0  0  0  0
 18 40  1  0  0  0  0
 19 41  1  0  0  0  0
 19 42  1  0  0  0  0
 19 43  1  0  0  0  0
M  CHG  1   4   1
M  END
> <s_m_source_file>
AV-unprocessed.smi

> <i_m_source_file_index>
1900

> <i_lp_mmshare_version>
43012

> <i_f3d_flags>
0

> <s_epik_input>
W0NIM11bQ0BASF0xW0NIMl1OKFtDSDJdW0NASF0oTzEpW0NIM10pW0NIMl1bQ0gyXVtDSDJdW05IXUMoPU8pW05IXWMyW2NIXW5bbkhdW2NIXTI=

> <s_epik_cmdline>
J2VwaWtfcHl0aG9uJywgJy1waCcsICc3LjAnLCAnLXRuJywgJzgnLCAnLW1hJywgJzIwMCcsICctbWV0YWxfYmluZGluZycsICctaW1hZScsICc8aW5maWxlLm1hZT4nLCAnLW9tYWUnLCAnPG91dGZpbGUubWFlPic=

> <r_lp_tautomer_probability>
0.5

> <r_epik_Ionization_Penalty>
0.270543

> <r_epik_Ionization_Penalty_Charging>
0.270496

> <r_epik_Ionization_Penalty_Neutral>
4.67091e-05

> <r_epik_State_Penalty>
0.262618

> <r_epik_Charging_Adjusted_Penalty>
0.533114

> <i_epik_Tot_Q>
1

> <i_epik_Tot_abs_Q>
1

> <r_epik_Metal_State_Penalty>
0.262618

> <b_epik_Metal_Only>
0

> <s_lp_Force_Field>
OPLS_2005

> <r_lp_Energy>
20.3326

> <b_lp_Chiralities_Consistent>
1

> <s_lp_Variant>
AV-unprocessed.smi:1900-3

> <Gold.Version>
5.8.1

> <Gold.Id.Protein>
6NUR|6NUR_protein|mol2

> <Gold.PLP.Fitness>
47.4734

> <Gold.PLP.PLP>
-32.6934

> <Gold.PLP.part.hbond>
-4.0000

> <Gold.PLP.part.metal>
0.0000

> <Gold.PLP.part.buried>
-6.5413

> <Gold.PLP.part.nonpolar>
-23.7296

> <Gold.PLP.part.repulsive>
1.6673

> <Gold.PLP.ligand.clash>
0.0000

> <Gold.PLP.ligand.torsion>
1.3036

> <Gold.PLP.Chemscore.Hbond>
4.0000

> <Gold.PLP.Chemscore.CHOScore>
1.7768

> <Gold.PLP.Chemscore.Metal>
0.0000

> <Gold.Chemscore.Hbonds>
donor molecule, donor type, donor heavy atom, donor atom, acceptor molecule, acceptor atom, score
      L1  H     4    44       P1  7948  2.00
      L1  H     8    34       P1 10175  1.00
      L1  H    11    35       P1 10175  1.00

> <Gold.PLP.Chemscore.Internal.Correction>
0.0569

> <Gold.Rescore>
     Score         DG    S(hbond)    S(metal)    S(lipo)     H(rot)  DE(clash)    DE(int)     intcor
     13.53     -18.22       2.84        0.00      70.21       1.93       0.06       4.63       ----

> <Gold.Chemscore.Fitness>
13.5341

> <Gold.Chemscore.DG>
-18.2180

> <Gold.Chemscore.ZeroCoef>
-5.4800

> <Gold.Chemscore.Hbond>
2.8371

> <Gold.Chemscore.Metal>
0.0000

> <Gold.Chemscore.Lipo>
70.2132

> <Gold.Chemscore.Internal_Hbond>
0.0000

> <Gold.Chemscore.DEClash>
0.0588

> <Gold.Chemscore.DEInternal>
4.6251

> <Gold.Chemscore.Rot>
1.9347

> <Gold.Chemscore.Internal.Correction>
   9.000000E+99

> <Gold.Chemscore.Hbonds>
donor molecule, donor type, donor heavy atom, donor atom, acceptor molecule, acceptor atom, score
      L1  H     4    44       P1  7948  0.91
      L1  H     8    34       P1 10175  0.99
      L1  H    11    35       P1 10175  0.94

> <Gold.Chemscore.Hbond.Weighted>
-9.4759

> <Gold.Chemscore.Metal.Weighted>
-0.0000

> <Gold.Chemscore.Lipo.Weighted>
-8.2149

> <Gold.Chemscore.Internal_Hbond.Weighted>
0.0000

> <Gold.Chemscore.DEClash.Weighted>
0.0588

> <Gold.Chemscore.DEInternal.Weighted>
4.6251

> <Gold.Chemscore.Rot.Weighted>
4.9528

> <Gold.Chemscore.Internal.Correction.Weighted>
   9.000000E+99

> <Gold.Protein.RotatedTorsions>
[ 6907 6896 6895 6894 ] final  167.75 input  -60.11 | X-H torsion
[ 7974 7965 7964 7962 ] final   89.32 input  175.53 | X-H torsion
[ 8008 7997 7996 7995 ] final    3.28 input   59.86 | X-H torsion
[ 10167 10162 10161 10158 ] final  105.72 input  -65.29 | X-H torsion
[ 10718 10713 10712 10709 ] final   11.35 input   66.30 | X-H torsion
[ 10763 10752 10751 10750 ] final  130.44 input  -60.55 | X-H torsion
[ 11005 11000 10999 10996 ] final -116.63 input  -57.11 | X-H torsion

> <Gold.Protein.ActiveResidues>
 VAL166  LYS551  ARG553  GLY616  TRP617  ASP618  TYR619  PRO620  LYS621  CYS622 
 ASP623  PHE694  ASN695  SER759  ASP760  ASP761  ALA762  ILE779  LEU786  VAL792 
 PHE793  MET794  SER795  GLU796  ALA797  LYS798  CYS799  TRP800  GLU811  SER814 

> <Gold.Protein.RotatedAtoms>
  151.8584  133.3452  159.3695 H   0  0  0  0  0  0  0  0  0  0  0  0  # atno 6907 bound_to 6896
  150.7186  134.5231  159.5672 H   0  0  0  0  0  0  0  0  0  0  0  0  # atno 6908 bound_to 6896
  152.2739  134.7903  160.0460 H   0  0  0  0  0  0  0  0  0  0  0  0  # atno 6909 bound_to 6896
  145.5339  139.2284  143.2603 H   0  0  0  0  0  0  0  0  0  0  0  0  # atno 7974 bound_to 7965
  154.7017  140.2674  155.6713 H   0  0  0  0  0  0  0  0  0  0  0  0  # atno 8008 bound_to 7997
  156.2767  140.2771  156.1554 H   0  0  0  0  0  0  0  0  0  0  0  0  # atno 8009 bound_to 7997
  155.0755  140.0372  157.2612 H   0  0  0  0  0  0  0  0  0  0  0  0  # atno 8010 bound_to 7997
  139.7068  144.7085  151.1092 H   0  0  0  0  0  0  0  0  0  0  0  0  # atno 10167 bound_to 10162
  156.9943  130.6055  149.5689 H   0  0  0  0  0  0  0  0  0  0  0  0  # atno 10718 bound_to 10713
  153.7580  135.3200  155.3332 H   0  0  0  0  0  0  0  0  0  0  0  0  # atno 10763 bound_to 10752
  154.8240  135.4583  154.0866 H   0  0  0  0  0  0  0  0  0  0  0  0  # atno 10764 bound_to 10752
  153.2088  135.6933  153.8222 H   0  0  0  0  0  0  0  0  0  0  0  0  # atno 10765 bound_to 10752
  141.0409  133.9837  157.2996 H   0  0  0  0  0  0  0  0  0  0  0  0  # atno 11005 bound_to 11000
  146.2026  140.6156  142.9095 LP  0  0  0  0  0  0  0  0  0  0  0  0  # atno 17320 bound_to 7965
  144.7612  140.5425  143.6734 LP  0  0  0  0  0  0  0  0  0  0  0  0  # atno 17321 bound_to 7965
  140.7724  143.5347  150.9382 LP  0  0  0  0  0  0  0  0  0  0  0  0  # atno 17342 bound_to 10162
  139.9030  143.6812  152.3128 LP  0  0  0  0  0  0  0  0  0  0  0  0  # atno 17343 bound_to 10162
  156.0195  130.5290  150.8234 LP  0  0  0  0  0  0  0  0  0  0  0  0  # atno 17370 bound_to 10713
  157.5436  131.0941  150.9794 LP  0  0  0  0  0  0  0  0  0  0  0  0  # atno 17371 bound_to 10713
  139.9275  135.0201  156.8286 LP  0  0  0  0  0  0  0  0  0  0  0  0  # atno 17394 bound_to 11000
  140.6236  133.9971  155.7629 LP  0  0  0  0  0  0  0  0  0  0  0  0  # atno 17395 bound_to 11000

$$$$
