AV-unprocessed.smi:1910|AV-procd|sdf|7736|dock3
  -GOLD-   22720 9473D 1   1.00000     0.00000
 Structure written by MMmdl.
 40 41  0  0  0  0  0  0  0  0  1 V2000
  151.5958  138.2895  154.5856 C   0  0  0  0  0  0  0  0  0  0  0  0
  150.2571  138.2484  154.1036 O   0  0  0  0  0  0  0  0  0  0  0  0
  149.5179  139.4163  154.1077 C   0  0  0  0  0  0  0  0  0  0  0  0
  150.0603  140.5195  154.6820 N   0  0  0  0  0  0  0  0  0  0  0  0
  149.3394  141.6591  154.6926 C   0  0  0  0  0  0  0  0  0  0  0  0
  148.0484  141.7580  154.1430 C   0  0  0  0  0  0  0  0  0  0  0  0
  147.4832  140.6155  153.5468 C   0  0  0  0  0  0  0  0  0  0  0  0
  148.2332  139.4138  153.5146 C   0  0  0  0  0  0  0  0  0  0  0  0
  147.7624  138.1940  152.9512 N   0  0  0  0  0  0  0  0  0  0  0  0
  146.5204  137.6801  152.9524 C   0  0  0  0  0  0  0  0  0  0  0  0
  145.5298  138.2008  153.4641 O   0  0  0  0  0  0  0  0  0  0  0  0
  146.4837  136.5074  152.3040 N   0  0  0  0  0  0  0  0  0  0  0  0
  145.2919  135.6849  152.1210 C   0  0  0  0  0  0  0  0  0  0  0  0
  145.4237  134.3101  152.8078 C   0  0  0  0  0  0  0  0  0  0  0  0
  145.2508  133.1589  151.9239 N   0  0  0  0  0  0  0  0  0  0  0  0
  143.9288  133.1275  151.3030 C   0  0  0  0  0  0  0  0  0  0  0  0
  143.7690  131.9262  150.3549 C   0  0  0  0  0  0  0  0  0  0  0  0
  144.7931  131.9572  149.3664 O   0  0  0  0  0  0  0  0  0  0  0  0
  146.1006  131.9440  149.9301 C   0  0  0  0  0  0  0  0  0  0  0  0
  146.2660  133.1458  150.8762 C   0  0  0  0  0  0  0  0  0  0  0  0
  152.0332  137.2936  154.5188 H   0  0  0  0  0  0  0  0  0  0  0  0
  151.6339  138.5973  155.6316 H   0  0  0  0  0  0  0  0  0  0  0  0
  152.2146  138.9629  153.9909 H   0  0  0  0  0  0  0  0  0  0  0  0
  149.8031  142.5159  155.1587 H   0  0  0  0  0  0  0  0  0  0  0  0
  147.5018  142.6888  154.1813 H   0  0  0  0  0  0  0  0  0  0  0  0
  146.4865  140.6864  153.1419 H   0  0  0  0  0  0  0  0  0  0  0  0
  148.4539  137.6702  152.4347 H   0  0  0  0  0  0  0  0  0  0  0  0
  147.3430  136.1551  151.9083 H   0  0  0  0  0  0  0  0  0  0  0  0
  144.4336  136.2170  152.5342 H   0  0  0  0  0  0  0  0  0  0  0  0
  145.0871  135.5733  151.0557 H   0  0  0  0  0  0  0  0  0  0  0  0
  146.3667  134.2342  153.3516 H   0  0  0  0  0  0  0  0  0  0  0  0
  144.6469  134.2651  153.5723 H   0  0  0  0  0  0  0  0  0  0  0  0
  143.1541  133.0765  152.0680 H   0  0  0  0  0  0  0  0  0  0  0  0
  143.7587  134.0510  150.7476 H   0  0  0  0  0  0  0  0  0  0  0  0
  143.8181  130.9878  150.9095 H   0  0  0  0  0  0  0  0  0  0  0  0
  142.7967  131.9573  149.8630 H   0  0  0  0  0  0  0  0  0  0  0  0
  146.2651  131.0064  150.4634 H   0  0  0  0  0  0  0  0  0  0  0  0
  146.8358  131.9889  149.1267 H   0  0  0  0  0  0  0  0  0  0  0  0
  146.2115  134.0687  150.2968 H   0  0  0  0  0  0  0  0  0  0  0  0
  147.2599  133.1169  151.3240 H   0  0  0  0  0  0  0  0  0  0  0  0
  1  2  1  0  0  0  0
  1 21  1  0  0  0  0
  1 22  1  0  0  0  0
  1 23  1  0  0  0  0
  2  3  1  0  0  0  0
  3  8  1  0  0  0  0
  3  4  2  0  0  0  0
  4  5  1  0  0  0  0
  5  6  2  0  0  0  0
  5 24  1  0  0  0  0
  6  7  1  0  0  0  0
  6 25  1  0  0  0  0
  7  8  2  0  0  0  0
  7 26  1  0  0  0  0
  8  9  1  0  0  0  0
  9 10  1  0  0  0  0
  9 27  1  0  0  0  0
 10 11  2  0  0  0  0
 10 12  1  0  0  0  0
 12 13  1  0  0  0  0
 12 28  1  0  0  0  0
 13 14  1  0  0  0  0
 13 29  1  0  0  0  0
 13 30  1  0  0  0  0
 14 15  1  0  0  0  0
 14 31  1  0  0  0  0
 14 32  1  0  0  0  0
 15 20  1  0  0  0  0
 15 16  1  0  0  0  0
 16 17  1  0  0  0  0
 16 33  1  0  0  0  0
 16 34  1  0  0  0  0
 17 18  1  0  0  0  0
 17 35  1  0  0  0  0
 17 36  1  0  0  0  0
 18 19  1  0  0  0  0
 19 20  1  0  0  0  0
 19 37  1  0  0  0  0
 19 38  1  0  0  0  0
 20 39  1  0  0  0  0
 20 40  1  0  0  0  0
M  END
> <s_m_source_file>
AV-unprocessed.smi

> <i_m_source_file_index>
1910

> <i_lp_mmshare_version>
43012

> <i_f3d_flags>
0

> <s_epik_input>
W0NIM11PYzFuW2NIXVtjSF1bY0hdYzFbTkhdQyg9TylbTkhdW0NIMl1bQ0gyXU4yW0NIMl1bQ0gyXU9bQ0gyXVtDSDJdMg==

> <s_epik_cmdline>
J2VwaWtfcHl0aG9uJywgJy1waCcsICc3LjAnLCAnLXRuJywgJzgnLCAnLW1hJywgJzIwMCcsICctbWV0YWxfYmluZGluZycsICctaW1hZScsICc8aW5maWxlLm1hZT4nLCAnLW9tYWUnLCAnPG91dGZpbGUubWFlPic=

> <r_lp_tautomer_probability>
1

> <r_epik_Ionization_Penalty>
0.266083

> <r_epik_Ionization_Penalty_Charging>
0

> <r_epik_Ionization_Penalty_Neutral>
0.266083

> <r_epik_State_Penalty>
0.257924

> <r_epik_Charging_Adjusted_Penalty>
0.257924

> <i_epik_Tot_Q>
0

> <i_epik_Tot_abs_Q>
0

> <r_epik_Metal_State_Penalty>
0.257922

> <b_epik_Metal_Only>
0

> <s_lp_Force_Field>
OPLS_2005

> <r_lp_Energy>
30.1373

> <b_lp_Chiralities_Consistent>
1

> <s_lp_Variant>
AV-unprocessed.smi:1910-1

> <Gold.Version>
5.8.1

> <Gold.Id.Protein>
6NUR|6NUR_protein|mol2

> <Gold.PLP.Fitness>
45.2081

> <Gold.PLP.PLP>
-35.0529

> <Gold.PLP.part.hbond>
-4.1751

> <Gold.PLP.part.metal>
0.0000

> <Gold.PLP.part.buried>
-2.3780

> <Gold.PLP.part.nonpolar>
-31.7741

> <Gold.PLP.part.repulsive>
1.2649

> <Gold.PLP.ligand.clash>
0.0000

> <Gold.PLP.ligand.torsion>
0.6789

> <Gold.PLP.Chemscore.Hbond>
2.8800

> <Gold.PLP.Chemscore.CHOScore>
0.9472

> <Gold.PLP.Chemscore.Metal>
0.0000

> <Gold.Chemscore.Hbonds>
donor molecule, donor type, donor heavy atom, donor atom, acceptor molecule, acceptor atom, score
      L1  H     9    27       P1  7948  0.99
      L1  H    12    28       P1  7948  0.99
      P1  H  7989  7998       L1     4  0.90
      L1  C     5    24       P1  8028  1.00

> <Gold.PLP.Chemscore.Internal.Correction>
0.0314

> <Gold.Rescore>
     Score         DG    S(hbond)    S(metal)    S(lipo)     H(rot)  DE(clash)    DE(int)     intcor
     15.68     -16.52       1.95        0.00      77.30       1.76       0.13       0.70       ----

> <Gold.Chemscore.Fitness>
15.6841

> <Gold.Chemscore.DG>
-16.5176

> <Gold.Chemscore.ZeroCoef>
-5.4800

> <Gold.Chemscore.Hbond>
1.9477

> <Gold.Chemscore.Metal>
0.0000

> <Gold.Chemscore.Lipo>
77.3046

> <Gold.Chemscore.Internal_Hbond>
0.0000

> <Gold.Chemscore.DEClash>
0.1307

> <Gold.Chemscore.DEInternal>
0.7028

> <Gold.Chemscore.Rot>
1.7626

> <Gold.Chemscore.Internal.Correction>
   9.000000E+99

> <Gold.Chemscore.Hbonds>
donor molecule, donor type, donor heavy atom, donor atom, acceptor molecule, acceptor atom, score
      L1  H     9    27       P1  7948  0.93
      L1  H    12    28       P1  7948  0.91
      P1  H  7989  7998       L1     4  0.15

> <Gold.Chemscore.Hbond.Weighted>
-6.5053

> <Gold.Chemscore.Metal.Weighted>
-0.0000

> <Gold.Chemscore.Lipo.Weighted>
-9.0446

> <Gold.Chemscore.Internal_Hbond.Weighted>
0.0000

> <Gold.Chemscore.DEClash.Weighted>
0.1307

> <Gold.Chemscore.DEInternal.Weighted>
0.7028

> <Gold.Chemscore.Rot.Weighted>
4.5123

> <Gold.Chemscore.Internal.Correction.Weighted>
   9.000000E+99

> <Gold.Protein.RotatedTorsions>
[ 6907 6896 6895 6894 ] final   31.79 input  -60.11 | X-H torsion
[ 7974 7965 7964 7962 ] final -145.94 input  175.53 | X-H torsion
[ 8008 7997 7996 7995 ] final   26.49 input   59.86 | X-H torsion
[ 10167 10162 10161 10158 ] final    9.60 input  -65.29 | X-H torsion
[ 10718 10713 10712 10709 ] final  143.97 input   66.30 | X-H torsion
[ 10763 10752 10751 10750 ] final -133.13 input  -60.55 | X-H torsion
[ 11005 11000 10999 10996 ] final  159.06 input  -57.11 | X-H torsion

> <Gold.Protein.ActiveResidues>
 VAL166  LYS551  ARG553  GLY616  TRP617  ASP618  TYR619  PRO620  LYS621  CYS622 
 ASP623  PHE694  ASN695  SER759  ASP760  ASP761  ALA762  ILE779  LEU786  VAL792 
 PHE793  MET794  SER795  GLU796  ALA797  LYS798  CYS799  TRP800  GLU811  SER814 

> <Gold.Protein.RotatedAtoms>
  152.0652  134.9569  160.0574 H   0  0  0  0  0  0  0  0  0  0  0  0  # atno 6907 bound_to 6896
  152.0916  133.4198  159.4554 H   0  0  0  0  0  0  0  0  0  0  0  0  # atno 6908 bound_to 6896
  150.6837  134.2784  159.4660 H   0  0  0  0  0  0  0  0  0  0  0  0  # atno 6909 bound_to 6896
  144.8193  140.5519  143.5589 H   0  0  0  0  0  0  0  0  0  0  0  0  # atno 7974 bound_to 7965
  155.0281  140.3155  155.4768 H   0  0  0  0  0  0  0  0  0  0  0  0  # atno 8008 bound_to 7997
  156.2879  140.2185  156.5344 H   0  0  0  0  0  0  0  0  0  0  0  0  # atno 8009 bound_to 7997
  154.7394  140.0475  157.0785 H   0  0  0  0  0  0  0  0  0  0  0  0  # atno 8010 bound_to 7997
  140.6245  143.8131  150.7216 H   0  0  0  0  0  0  0  0  0  0  0  0  # atno 10167 bound_to 10162
  157.3627  131.0967  151.0900 H   0  0  0  0  0  0  0  0  0  0  0  0  # atno 10718 bound_to 10713
  154.8736  135.3776  154.4522 H   0  0  0  0  0  0  0  0  0  0  0  0  # atno 10763 bound_to 10752
  153.5197  135.7029  153.5742 H   0  0  0  0  0  0  0  0  0  0  0  0  # atno 10764 bound_to 10752
  153.3995  135.3952  155.1943 H   0  0  0  0  0  0  0  0  0  0  0  0  # atno 10765 bound_to 10752
  140.1925  134.8397  157.2928 H   0  0  0  0  0  0  0  0  0  0  0  0  # atno 11005 bound_to 11000
  145.5142  139.1478  143.3588 LP  0  0  0  0  0  0  0  0  0  0  0  0  # atno 17320 bound_to 7965
  146.2497  140.5283  142.8898 LP  0  0  0  0  0  0  0  0  0  0  0  0  # atno 17321 bound_to 7965
  140.1729  143.4179  152.1988 LP  0  0  0  0  0  0  0  0  0  0  0  0  # atno 17342 bound_to 10162
  139.5468  144.7305  151.4559 LP  0  0  0  0  0  0  0  0  0  0  0  0  # atno 17343 bound_to 10162
  157.2034  130.6405  149.5747 LP  0  0  0  0  0  0  0  0  0  0  0  0  # atno 17370 bound_to 10713
  155.9740  130.4683  150.6357 LP  0  0  0  0  0  0  0  0  0  0  0  0  # atno 17371 bound_to 10713
  140.2144  134.4099  155.7596 LP  0  0  0  0  0  0  0  0  0  0  0  0  # atno 17394 bound_to 11000
  141.2226  133.7134  156.8390 LP  0  0  0  0  0  0  0  0  0  0  0  0  # atno 17395 bound_to 11000

$$$$
