AV-unprocessed.smi:2926|AV-procd|sdf|11227|dock4
  -GOLD-   2272016113D 1   1.00000     0.00000
 Structure written by MMmdl.
 32 32  0  0  0  0  0  0  0  0  1 V2000
  144.3759  136.2284  152.0358 C   0  0  0  0  0  0  0  0  0  0  0  0
  145.7472  136.0424  152.7081 C   0  0  0  0  0  0  0  0  0  0  0  0
  145.7150  134.8724  153.7100 C   0  0  0  0  0  0  0  0  0  0  0  0
  146.2767  137.3723  153.3091 C   0  0  2  0  0  0  0  0  0  0  0  0
  146.3106  138.5516  152.3126 C   0  0  0  0  0  0  0  0  0  0  0  0
  147.2946  138.3476  151.3212 O   0  0  0  0  0  0  0  0  0  0  0  0
  147.6141  137.1628  153.8790 N   0  0  0  0  0  0  0  0  0  0  0  0
  148.3114  138.3748  154.8929 S   0  0  0  0  0  0  0  0  0  0  0  0
  147.3328  139.4660  155.0178 O   0  0  0  0  0  0  0  0  0  0  0  0
  148.8362  137.7141  156.0982 O   0  0  0  0  0  0  0  0  0  0  0  0
  149.7362  138.9607  153.8831 C   0  0  0  0  0  0  0  0  0  0  0  0
  151.0104  138.7661  154.6539 C   0  0  0  0  0  0  0  0  0  0  0  0
  151.5828  137.5510  155.1224 C   0  0  0  0  0  0  0  0  0  0  0  0
  152.7257  137.9580  155.7480 C   0  0  0  0  0  0  0  0  0  0  0  0
  152.8504  139.3074  155.6791 O   0  0  0  0  0  0  0  0  0  0  0  0
  151.7492  139.8148  154.9802 N   0  0  0  0  0  0  0  0  0  0  0  0
  145.6067  137.6498  154.1239 H   0  0  0  0  0  0  0  0  0  0  0  0
  143.6043  136.4886  152.7610 H   0  0  0  0  0  0  0  0  0  0  0  0
  144.0593  135.3147  151.5321 H   0  0  0  0  0  0  0  0  0  0  0  0
  144.4083  137.0196  151.2863 H   0  0  0  0  0  0  0  0  0  0  0  0
  146.4317  135.7516  151.9106 H   0  0  0  0  0  0  0  0  0  0  0  0
  145.0473  135.0756  154.5474 H   0  0  0  0  0  0  0  0  0  0  0  0
  146.7042  134.6586  154.1135 H   0  0  0  0  0  0  0  0  0  0  0  0
  145.3642  133.9596  153.2278 H   0  0  0  0  0  0  0  0  0  0  0  0
  145.3519  138.6518  151.8034 H   0  0  0  0  0  0  0  0  0  0  0  0
  146.4967  139.4990  152.8179 H   0  0  0  0  0  0  0  0  0  0  0  0
  147.8592  137.6424  151.5996 H   0  0  0  0  0  0  0  0  0  0  0  0
  148.2732  136.8621  153.1612 H   0  0  0  0  0  0  0  0  0  0  0  0
  149.7453  138.4042  152.9452 H   0  0  0  0  0  0  0  0  0  0  0  0
  149.5812  140.0127  153.6452 H   0  0  0  0  0  0  0  0  0  0  0  0
  151.2154  136.5415  155.0120 H   0  0  0  0  0  0  0  0  0  0  0  0
  153.5155  137.4339  156.2656 H   0  0  0  0  0  0  0  0  0  0  0  0
  1  2  1  0  0  0  0
  1 18  1  0  0  0  0
  1 19  1  0  0  0  0
  1 20  1  0  0  0  0
  2  3  1  0  0  0  0
  2  4  1  0  0  0  0
  2 21  1  0  0  0  0
  3 22  1  0  0  0  0
  3 23  1  0  0  0  0
  3 24  1  0  0  0  0
  4 17  1  0  0  0  0
  4  5  1  0  0  0  0
  4  7  1  0  0  0  0
  5  6  1  0  0  0  0
  5 25  1  0  0  0  0
  5 26  1  0  0  0  0
  6 27  1  0  0  0  0
  7  8  1  0  0  0  0
  7 28  1  0  0  0  0
  8  9  2  0  0  0  0
  8 10  2  0  0  0  0
  8 11  1  0  0  0  0
 11 12  1  0  0  0  0
 11 29  1  0  0  0  0
 11 30  1  0  0  0  0
 12 16  2  0  0  0  0
 12 13  1  0  0  0  0
 13 14  2  0  0  0  0
 13 31  1  0  0  0  0
 14 15  1  0  0  0  0
 14 32  1  0  0  0  0
 15 16  1  0  0  0  0
M  END
> <s_m_source_file>
AV-unprocessed.smi

> <i_m_source_file_index>
2926

> <i_lp_mmshare_version>
43012

> <i_f3d_flags>
0

> <s_epik_input>
W0NIM11bQ0hdKFtDSDNdKVtDQEBIXShbQ0gyXVtPSF0pW05IXVMoPU8pKD1PKVtDSDJdYzFbY0hdW2NIXW9uMQ==

> <s_epik_cmdline>
J2VwaWtfcHl0aG9uJywgJy1waCcsICc3LjAnLCAnLXRuJywgJzgnLCAnLW1hJywgJzIwMCcsICctbWV0YWxfYmluZGluZycsICctaW1hZScsICc8aW5maWxlLm1hZT4nLCAnLW9tYWUnLCAnPG91dGZpbGUubWFlPic=

> <r_lp_tautomer_probability>
1

> <r_epik_Ionization_Penalty>
0.000193122

> <r_epik_Ionization_Penalty_Charging>
0

> <r_epik_Ionization_Penalty_Neutral>
0.000193122

> <r_epik_State_Penalty>
-0

> <r_epik_Charging_Adjusted_Penalty>
0

> <i_epik_Tot_Q>
0

> <i_epik_Tot_abs_Q>
0

> <r_epik_Metal_State_Penalty>
0.130256

> <b_epik_Metal_Only>
0

> <s_lp_Force_Field>
OPLS_2005

> <r_lp_Energy>
0.568984

> <b_lp_Chiralities_Consistent>
1

> <s_lp_Variant>
AV-unprocessed.smi:2926-2

> <Gold.Version>
5.8.1

> <Gold.Id.Protein>
6NUR|6NUR_protein|mol2

> <Gold.PLP.Fitness>
35.4157

> <Gold.PLP.PLP>
-23.8039

> <Gold.PLP.part.hbond>
-6.0000

> <Gold.PLP.part.metal>
0.0000

> <Gold.PLP.part.buried>
-1.7603

> <Gold.PLP.part.nonpolar>
-16.5988

> <Gold.PLP.part.repulsive>
0.1054

> <Gold.PLP.ligand.clash>
0.0000

> <Gold.PLP.ligand.torsion>
0.2199

> <Gold.PLP.Chemscore.Hbond>
3.9440

> <Gold.PLP.Chemscore.CHOScore>
0.0000

> <Gold.PLP.Chemscore.Metal>
0.0000

> <Gold.Chemscore.Hbonds>
donor molecule, donor type, donor heavy atom, donor atom, acceptor molecule, acceptor atom, score
      L1  H     6    27       P1  7948  1.00
      L1  H     7    28       P1  7948  1.00
      P1  H  7989  7998       L1    16  1.00
      P1  H  7997  8010       L1    15  1.00

> <Gold.PLP.Chemscore.Internal.Correction>
0.2196

> <Gold.Rescore>
     Score         DG    S(hbond)    S(metal)    S(lipo)     H(rot)  DE(clash)    DE(int)     intcor
     12.88     -15.52       3.57        0.00      48.58       2.96       0.16       2.47       ----

> <Gold.Chemscore.Fitness>
12.8829

> <Gold.Chemscore.DG>
-15.5208

> <Gold.Chemscore.ZeroCoef>
-5.4800

> <Gold.Chemscore.Hbond>
3.5704

> <Gold.Chemscore.Metal>
0.0000

> <Gold.Chemscore.Lipo>
48.5814

> <Gold.Chemscore.Internal_Hbond>
0.0000

> <Gold.Chemscore.DEClash>
0.1634

> <Gold.Chemscore.DEInternal>
2.4745

> <Gold.Chemscore.Rot>
2.9564

> <Gold.Chemscore.Internal.Correction>
   9.000000E+99

> <Gold.Chemscore.Hbonds>
donor molecule, donor type, donor heavy atom, donor atom, acceptor molecule, acceptor atom, score
      L1  H     6    27       P1  7948  1.00
      L1  H     7    28       P1  7948  0.98
      P1  H  7989  7998       L1    16  0.38
      P1  H  7997  8010       L1    15  0.99

> <Gold.Chemscore.Hbond.Weighted>
-11.9252

> <Gold.Chemscore.Metal.Weighted>
-0.0000

> <Gold.Chemscore.Lipo.Weighted>
-5.6840

> <Gold.Chemscore.Internal_Hbond.Weighted>
0.0000

> <Gold.Chemscore.DEClash.Weighted>
0.1634

> <Gold.Chemscore.DEInternal.Weighted>
2.4745

> <Gold.Chemscore.Rot.Weighted>
7.5685

> <Gold.Chemscore.Internal.Correction.Weighted>
   9.000000E+99

> <Gold.Protein.RotatedTorsions>
[ 6907 6896 6895 6894 ] final   21.70 input  -60.11 | X-H torsion
[ 7974 7965 7964 7962 ] final   60.18 input  175.53 | X-H torsion
[ 8008 7997 7996 7995 ] final   88.26 input   59.86 | X-H torsion
[ 10167 10162 10161 10158 ] final   62.82 input  -65.29 | X-H torsion
[ 10718 10713 10712 10709 ] final   31.79 input   66.30 | X-H torsion
[ 10763 10752 10751 10750 ] final   26.48 input  -60.55 | X-H torsion
[ 11005 11000 10999 10996 ] final   85.73 input  -57.11 | X-H torsion

> <Gold.Protein.ActiveResidues>
 VAL166  LYS551  ARG553  GLY616  TRP617  ASP618  TYR619  PRO620  LYS621  CYS622 
 ASP623  PHE694  ASN695  SER759  ASP760  ASP761  ALA762  ILE779  LEU786  VAL792 
 PHE793  MET794  SER795  GLU796  ALA797  LYS798  CYS799  TRP800  GLU811  SER814 

> <Gold.Protein.RotatedAtoms>
  151.9158  135.0319  160.0517 H   0  0  0  0  0  0  0  0  0  0  0  0  # atno 6907 bound_to 6896
  152.2241  133.5002  159.5187 H   0  0  0  0  0  0  0  0  0  0  0  0  # atno 6908 bound_to 6896
  150.7007  134.1220  159.4081 H   0  0  0  0  0  0  0  0  0  0  0  0  # atno 6909 bound_to 6896
  145.8989  139.3566  143.0604 H   0  0  0  0  0  0  0  0  0  0  0  0  # atno 7974 bound_to 7965
  155.9856  140.3373  155.6704 H   0  0  0  0  0  0  0  0  0  0  0  0  # atno 8008 bound_to 7997
  155.6490  140.0703  157.2611 H   0  0  0  0  0  0  0  0  0  0  0  0  # atno 8009 bound_to 7997
  154.4204  140.1729  156.1642 H   0  0  0  0  0  0  0  0  0  0  0  0  # atno 8010 bound_to 7997
  140.1397  144.4565  150.6818 H   0  0  0  0  0  0  0  0  0  0  0  0  # atno 10167 bound_to 10162
  157.2770  130.7236  149.6535 H   0  0  0  0  0  0  0  0  0  0  0  0  # atno 10718 bound_to 10713
  153.0620  135.6559  154.0442 H   0  0  0  0  0  0  0  0  0  0  0  0  # atno 10763 bound_to 10752
  154.0107  135.2928  155.3394 H   0  0  0  0  0  0  0  0  0  0  0  0  # atno 10764 bound_to 10752
  154.6962  135.5263  153.8529 H   0  0  0  0  0  0  0  0  0  0  0  0  # atno 10765 bound_to 10752
  139.8963  134.8307  156.2623 H   0  0  0  0  0  0  0  0  0  0  0  0  # atno 11005 bound_to 11000
  145.8815  140.9359  143.0598 LP  0  0  0  0  0  0  0  0  0  0  0  0  # atno 17320 bound_to 7965
  144.6734  140.0787  143.7470 LP  0  0  0  0  0  0  0  0  0  0  0  0  # atno 17321 bound_to 7965
  140.6768  143.2308  151.5487 LP  0  0  0  0  0  0  0  0  0  0  0  0  # atno 17342 bound_to 10162
  139.5478  144.2475  152.1475 LP  0  0  0  0  0  0  0  0  0  0  0  0  # atno 17343 bound_to 10162
  155.9664  130.4350  150.5072 LP  0  0  0  0  0  0  0  0  0  0  0  0  # atno 17370 bound_to 10713
  157.3008  131.0645  151.2070 LP  0  0  0  0  0  0  0  0  0  0  0  0  # atno 17371 bound_to 10713
  141.0154  133.7071  156.1181 LP  0  0  0  0  0  0  0  0  0  0  0  0  # atno 17394 bound_to 11000
  140.7308  134.4256  157.5566 LP  0  0  0  0  0  0  0  0  0  0  0  0  # atno 17395 bound_to 11000

$$$$
