AV-unprocessed.smi:3348|AV-procd|sdf|12930|dock5
  -GOLD-   2272019363D 1   1.00000     0.00000
 Structure written by MMmdl.
 46 47  0  0  0  0  0  0  0  0  1 V2000
  151.0643  138.8625  154.8669 C   0  0  0  0  0  0  0  0  0  0  0  0
  151.8331  140.0311  155.5076 C   0  0  1  0  0  0  0  0  0  0  0  0
  150.9078  141.2010  155.9229 C   0  0  0  0  0  0  0  0  0  0  0  0
  149.5788  141.1128  155.3450 N   0  0  0  0  0  0  0  0  0  0  0  0
  148.3593  141.2105  155.9817 C   0  0  0  0  0  0  0  0  0  0  0  0
  147.3914  141.0699  155.0291 C   0  0  0  0  0  0  0  0  0  0  0  0
  148.1268  140.8941  153.8238 C   0  0  0  0  0  0  0  0  0  0  0  0
  149.4358  140.9235  154.0154 N   0  0  0  0  0  0  0  0  0  0  0  0
  152.6112  139.5259  156.6425 N   0  0  0  0  0  0  0  0  0  0  0  0
  151.9523  139.6125  157.9448 C   0  0  0  0  0  0  0  0  0  0  0  0
  152.9858  139.7355  159.0688 C   0  0  0  0  0  0  0  0  0  0  0  0
  153.3695  141.0978  159.1874 O   0  0  0  0  0  0  0  0  0  0  0  0
  152.6963  141.8188  160.2129 C   0  0  1  0  0  0  0  0  0  0  0  0
  153.5162  141.7580  161.5204 C   0  0  0  0  0  0  0  0  0  0  0  0
  152.9035  142.6415  162.6167 C   0  0  0  0  0  0  0  0  0  0  0  0
  152.7515  144.0908  162.1353 C   0  0  0  0  0  0  0  0  0  0  0  0
  151.9245  144.1569  160.8427 C   0  0  0  0  0  0  0  0  0  0  0  0
  152.5305  143.2782  159.7300 C   0  0  2  0  0  0  0  0  0  0  0  0
  151.6811  143.3636  158.4514 C   0  0  0  0  0  0  0  0  0  0  0  0
  150.5671  139.1641  153.9449 H   0  0  0  0  0  0  0  0  0  0  0  0
  150.3046  138.4698  155.5433 H   0  0  0  0  0  0  0  0  0  0  0  0
  151.7379  138.0438  154.6115 H   0  0  0  0  0  0  0  0  0  0  0  0
  152.5268  140.4041  154.7528 H   0  0  0  0  0  0  0  0  0  0  0  0
  150.8043  141.2280  157.0088 H   0  0  0  0  0  0  0  0  0  0  0  0
  151.3324  142.1602  155.6259 H   0  0  0  0  0  0  0  0  0  0  0  0
  148.2833  141.3668  157.0477 H   0  0  0  0  0  0  0  0  0  0  0  0
  146.3213  141.0903  155.1717 H   0  0  0  0  0  0  0  0  0  0  0  0
  147.7508  140.7479  152.8222 H   0  0  0  0  0  0  0  0  0  0  0  0
  153.5002  140.0144  156.6861 H   0  0  0  0  0  0  0  0  0  0  0  0
  151.2706  140.4634  157.9758 H   0  0  0  0  0  0  0  0  0  0  0  0
  151.3534  138.7197  158.1210 H   0  0  0  0  0  0  0  0  0  0  0  0
  152.5367  139.4060  160.0066 H   0  0  0  0  0  0  0  0  0  0  0  0
  153.8403  139.0879  158.8720 H   0  0  0  0  0  0  0  0  0  0  0  0
  151.7042  141.3947  160.3810 H   0  0  0  0  0  0  0  0  0  0  0  0
  153.5823  140.7344  161.8874 H   0  0  0  0  0  0  0  0  0  0  0  0
  154.5394  142.0811  161.3245 H   0  0  0  0  0  0  0  0  0  0  0  0
  151.9284  142.2461  162.9042 H   0  0  0  0  0  0  0  0  0  0  0  0
  153.5269  142.6098  163.5106 H   0  0  0  0  0  0  0  0  0  0  0  0
  152.2781  144.6928  162.9113 H   0  0  0  0  0  0  0  0  0  0  0  0
  153.7368  144.5261  161.9626 H   0  0  0  0  0  0  0  0  0  0  0  0
  150.9029  143.8355  161.0505 H   0  0  0  0  0  0  0  0  0  0  0  0
  151.8592  145.1921  160.5061 H   0  0  0  0  0  0  0  0  0  0  0  0
  153.5210  143.6714  159.4959 H   0  0  0  0  0  0  0  0  0  0  0  0
  150.6772  142.9712  158.6153 H   0  0  0  0  0  0  0  0  0  0  0  0
  152.1308  142.7961  157.6364 H   0  0  0  0  0  0  0  0  0  0  0  0
  151.5837  144.3958  158.1136 H   0  0  0  0  0  0  0  0  0  0  0  0
  1  2  1  0  0  0  0
  1 20  1  0  0  0  0
  1 21  1  0  0  0  0
  1 22  1  0  0  0  0
  2  3  1  0  0  0  0
  2  9  1  0  0  0  0
  2 23  1  0  0  0  0
  3  4  1  0  0  0  0
  3 24  1  0  0  0  0
  3 25  1  0  0  0  0
  4  8  1  0  0  0  0
  4  5  1  0  0  0  0
  5  6  2  0  0  0  0
  5 26  1  0  0  0  0
  6  7  1  0  0  0  0
  6 27  1  0  0  0  0
  7  8  2  0  0  0  0
  7 28  1  0  0  0  0
  9 10  1  0  0  0  0
  9 29  1  0  0  0  0
 10 11  1  0  0  0  0
 10 30  1  0  0  0  0
 10 31  1  0  0  0  0
 11 12  1  0  0  0  0
 11 32  1  0  0  0  0
 11 33  1  0  0  0  0
 12 13  1  0  0  0  0
 13 18  1  0  0  0  0
 13 14  1  0  0  0  0
 13 34  1  0  0  0  0
 14 15  1  0  0  0  0
 14 35  1  0  0  0  0
 14 36  1  0  0  0  0
 15 16  1  0  0  0  0
 15 37  1  0  0  0  0
 15 38  1  0  0  0  0
 16 17  1  0  0  0  0
 16 39  1  0  0  0  0
 16 40  1  0  0  0  0
 17 18  1  0  0  0  0
 17 41  1  0  0  0  0
 17 42  1  0  0  0  0
 18 19  1  0  0  0  0
 18 43  1  0  0  0  0
 19 44  1  0  0  0  0
 19 45  1  0  0  0  0
 19 46  1  0  0  0  0
M  END
> <s_m_source_file>
AV-unprocessed.smi

> <i_m_source_file_index>
3348

> <i_lp_mmshare_version>
43012

> <i_f3d_flags>
0

> <s_epik_input>
bjFbY0hdW2NIXVtjSF1uMVtDSDJdW0NAQEhdKFtDSDNdKVtOSF1bQ0gyXVtDSDJdT1tDQEBIXTJbQ0gyXVtDSDJdW0NIMl1bQ0gyXVtDQEhdMltDSDNd

> <s_epik_cmdline>
J2VwaWtfcHl0aG9uJywgJy1waCcsICc3LjAnLCAnLXRuJywgJzgnLCAnLW1hJywgJzIwMCcsICctbWV0YWxfYmluZGluZycsICctaW1hZScsICc8aW5maWxlLm1hZT4nLCAnLW9tYWUnLCAnPG91dGZpbGUubWFlPic=

> <r_lp_tautomer_probability>
1

> <r_epik_Ionization_Penalty>
2.46945

> <r_epik_Ionization_Penalty_Charging>
0

> <r_epik_Ionization_Penalty_Neutral>
2.46945

> <r_epik_State_Penalty>
2.6322

> <r_epik_Charging_Adjusted_Penalty>
2.6322

> <i_epik_Tot_Q>
0

> <i_epik_Tot_abs_Q>
0

> <r_epik_Metal_State_Penalty>
2.63217

> <b_epik_Metal_Only>
0

> <s_lp_Force_Field>
OPLS_2005

> <r_lp_Energy>
15.3902

> <b_lp_Chiralities_Consistent>
1

> <s_lp_Variant>
AV-unprocessed.smi:3348-16

> <Gold.Version>
5.8.1

> <Gold.Id.Protein>
6NUR|6NUR_protein|mol2

> <Gold.PLP.Fitness>
47.3784

> <Gold.PLP.PLP>
-47.3781

> <Gold.PLP.part.hbond>
-3.0000

> <Gold.PLP.part.metal>
0.0000

> <Gold.PLP.part.buried>
-2.3964

> <Gold.PLP.part.nonpolar>
-40.7201

> <Gold.PLP.part.repulsive>
0.9398

> <Gold.PLP.ligand.clash>
0.0000

> <Gold.PLP.ligand.torsion>
2.0800

> <Gold.PLP.Chemscore.Hbond>
0.6172

> <Gold.PLP.Chemscore.CHOScore>
0.6851

> <Gold.PLP.Chemscore.Metal>
0.0000

> <Gold.Chemscore.Hbonds>
donor molecule, donor type, donor heavy atom, donor atom, acceptor molecule, acceptor atom, score
      P1  H  7989  7998       L1     8  0.21
      P1  H  8011  8017       L1     8  0.25
      L1  C     7    28       P1  7957  0.59

> <Gold.PLP.Chemscore.Internal.Correction>
0.2533

> <Gold.Rescore>
     Score         DG    S(hbond)    S(metal)    S(lipo)     H(rot)  DE(clash)    DE(int)     intcor
     12.44     -16.46       0.09        0.00     129.12       1.72       0.69       3.33       ----

> <Gold.Chemscore.Fitness>
12.4384

> <Gold.Chemscore.DG>
-16.4598

> <Gold.Chemscore.ZeroCoef>
-5.4800

> <Gold.Chemscore.Hbond>
0.0855

> <Gold.Chemscore.Metal>
0.0000

> <Gold.Chemscore.Lipo>
129.1178

> <Gold.Chemscore.Internal_Hbond>
0.0000

> <Gold.Chemscore.DEClash>
0.6936

> <Gold.Chemscore.DEInternal>
3.3278

> <Gold.Chemscore.Rot>
1.7237

> <Gold.Chemscore.Internal.Correction>
   9.000000E+99

> <Gold.Chemscore.Hbonds>
donor molecule, donor type, donor heavy atom, donor atom, acceptor molecule, acceptor atom, score
      P1  H  7989  7998       L1     8  0.04
      P1  H  8011  8017       L1     8  0.03

> <Gold.Chemscore.Hbond.Weighted>
-0.2856

> <Gold.Chemscore.Metal.Weighted>
-0.0000

> <Gold.Chemscore.Lipo.Weighted>
-15.1068

> <Gold.Chemscore.Internal_Hbond.Weighted>
0.0000

> <Gold.Chemscore.DEClash.Weighted>
0.6936

> <Gold.Chemscore.DEInternal.Weighted>
3.3278

> <Gold.Chemscore.Rot.Weighted>
4.4126

> <Gold.Chemscore.Internal.Correction.Weighted>
   9.000000E+99

> <Gold.Protein.RotatedTorsions>
[ 6907 6896 6895 6894 ] final  168.07 input  -60.11 | X-H torsion
[ 7974 7965 7964 7962 ] final -128.72 input  175.53 | X-H torsion
[ 8008 7997 7996 7995 ] final    9.47 input   59.86 | X-H torsion
[ 10167 10162 10161 10158 ] final  -85.28 input  -65.29 | X-H torsion
[ 10718 10713 10712 10709 ] final  -81.79 input   66.30 | X-H torsion
[ 10763 10752 10751 10750 ] final  -80.32 input  -60.55 | X-H torsion
[ 11005 11000 10999 10996 ] final  111.72 input  -57.11 | X-H torsion

> <Gold.Protein.ActiveResidues>
 VAL166  LYS551  ARG553  GLY616  TRP617  ASP618  TYR619  PRO620  LYS621  CYS622 
 ASP623  PHE694  ASN695  SER759  ASP760  ASP761  ALA762  ILE779  LEU786  VAL792 
 PHE793  MET794  SER795  GLU796  ALA797  LYS798  CYS799  TRP800  GLU811  SER814 

> <Gold.Protein.RotatedAtoms>
  151.8533  133.3444  159.3680 H   0  0  0  0  0  0  0  0  0  0  0  0  # atno 6907 bound_to 6896
  150.7200  134.5277  159.5694 H   0  0  0  0  0  0  0  0  0  0  0  0  # atno 6908 bound_to 6896
  152.2776  134.7865  160.0454 H   0  0  0  0  0  0  0  0  0  0  0  0  # atno 6909 bound_to 6896
  144.9643  140.7479  143.4710 H   0  0  0  0  0  0  0  0  0  0  0  0  # atno 7974 bound_to 7965
  154.7804  140.2818  155.6068 H   0  0  0  0  0  0  0  0  0  0  0  0  # atno 8008 bound_to 7997
  156.2949  140.2624  156.2557 H   0  0  0  0  0  0  0  0  0  0  0  0  # atno 8009 bound_to 7997
  154.9791  140.0375  157.2259 H   0  0  0  0  0  0  0  0  0  0  0  0  # atno 8010 bound_to 7997
  140.4053  143.2645  151.9089 H   0  0  0  0  0  0  0  0  0  0  0  0  # atno 10167 bound_to 10162
  156.0044  130.4614  150.4007 H   0  0  0  0  0  0  0  0  0  0  0  0  # atno 10718 bound_to 10713
  154.5498  135.5665  153.6912 H   0  0  0  0  0  0  0  0  0  0  0  0  # atno 10763 bound_to 10752
  152.9986  135.6248  154.2390 H   0  0  0  0  0  0  0  0  0  0  0  0  # atno 10764 bound_to 10752
  154.2324  135.2865  155.2864 H   0  0  0  0  0  0  0  0  0  0  0  0  # atno 10765 bound_to 10752
  139.8910  134.9514  156.6475 H   0  0  0  0  0  0  0  0  0  0  0  0  # atno 11005 bound_to 11000
  145.2653  139.1976  143.4870 LP  0  0  0  0  0  0  0  0  0  0  0  0  # atno 17320 bound_to 7965
  146.3363  140.2590  142.8601 LP  0  0  0  0  0  0  0  0  0  0  0  0  # atno 17321 bound_to 7965
  139.4783  144.5593  151.8265 LP  0  0  0  0  0  0  0  0  0  0  0  0  # atno 17342 bound_to 10162
  140.4697  144.1605  150.5916 LP  0  0  0  0  0  0  0  0  0  0  0  0  # atno 17343 bound_to 10162
  157.2076  131.0453  151.2617 LP  0  0  0  0  0  0  0  0  0  0  0  0  # atno 17370 bound_to 10713
  157.3918  130.7286  149.6703 LP  0  0  0  0  0  0  0  0  0  0  0  0  # atno 17371 bound_to 10713
  140.7546  133.8868  155.8372 LP  0  0  0  0  0  0  0  0  0  0  0  0  # atno 17394 bound_to 11000
  140.9972  134.1199  157.4352 LP  0  0  0  0  0  0  0  0  0  0  0  0  # atno 17395 bound_to 11000

$$$$
