AV-unprocessed.smi:21|AV-procd|sdf|149|dock3
  -GOLD-   2262015363D 1   1.00000     0.00000
 Structure written by MMmdl.
 62 65  0  0  0  0  0  0  0  0  2 V2000
  150.9408  128.7044  154.9662 C   0  0  0  0  0  0  0  0  0  0  0  0
  151.4521  129.9588  155.3872 O   0  0  0  0  0  0  0  0  0  0  0  0
  150.4488  130.9439  155.5852 C   0  0  1  0  0  0  0  0  0  0  0  0
  151.0047  132.3605  155.6875 C   0  0  0  0  0  0  0  0  0  0  0  0
  149.8026  133.2386  155.3169 C   0  0  1  0  0  0  0  0  0  0  0  0
  150.1790  134.6637  154.8401 C   0  0  0  0  0  0  0  0  0  0  0  0
  150.2728  135.6212  155.9468 N   0  0  0  0  0  0  0  0  0  0  0  0
  149.8637  135.1657  157.2703 C   0  0  0  0  0  0  0  0  0  0  0  0
  150.9160  136.8184  155.7994 C   0  0  0  0  0  0  0  0  0  0  0  0
  151.5364  137.0777  154.6165 N   0  0  0  0  0  0  0  0  0  0  0  0
  152.1843  138.2268  154.4118 C   0  0  0  0  0  0  0  0  0  0  0  0
  152.3372  139.2541  155.2450 N   0  0  0  0  0  0  0  0  0  0  0  0
  151.7182  139.0166  156.4352 C   0  0  0  0  0  0  0  0  0  0  0  0
  150.9944  137.8416  156.7976 C   0  0  0  0  0  0  0  0  0  0  0  0
  150.5222  137.9829  158.0999 N   0  0  0  0  0  0  0  0  0  0  0  0
  150.9367  139.1599  158.4785 C   0  0  0  0  0  0  0  0  0  0  0  0
  151.6577  139.8526  157.5354 N   0  0  0  0  0  0  0  0  0  0  0  0
  152.2416  141.1747  157.6800 C   0  0  0  0  0  0  0  0  0  0  0  0
  152.4528  141.5827  159.1611 C   0  0  1  0  0  0  0  0  0  0  0  0
  153.8355  141.1230  159.6794 C   0  0  0  0  0  0  0  0  0  0  0  0
  154.2199  139.8940  159.0989 O   0  0  0  0  0  0  0  0  0  0  0  0
  152.2105  143.0948  159.4250 C   0  0  1  0  0  0  0  0  0  0  0  0
  152.9474  144.0761  158.5281 C   0  0  0  0  0  0  0  0  0  0  0  0
  152.1514  145.3515  158.7684 C   0  0  0  0  0  0  0  0  0  0  0  0
  150.8022  144.9096  158.8287 O   0  0  0  0  0  0  0  0  0  0  0  0
  150.7538  143.5709  159.3191 C   0  0  0  0  0  0  0  0  0  0  0  0
  148.9921  132.4231  154.3645 N   0  3  1  0  0  0  0  0  0  0  0  0
  148.7776  132.9684  153.0031 C   0  0  0  0  0  0  0  0  0  0  0  0
  149.5492  131.0498  154.3551 C   0  0  0  0  0  0  0  0  0  0  0  0
  149.8384  130.7108  156.4598 H   0  0  0  0  0  0  0  0  0  0  0  0
  149.1781  133.3320  156.2065 H   0  0  0  0  0  0  0  0  0  0  0  0
  151.7662  128.0131  154.7963 H   0  0  0  0  0  0  0  0  0  0  0  0
  150.3853  128.7977  154.0321 H   0  0  0  0  0  0  0  0  0  0  0  0
  150.2880  128.2638  155.7201 H   0  0  0  0  0  0  0  0  0  0  0  0
  151.4067  132.5923  156.6742 H   0  0  0  0  0  0  0  0  0  0  0  0
  151.8045  132.4895  154.9572 H   0  0  0  0  0  0  0  0  0  0  0  0
  151.0881  134.6464  154.2396 H   0  0  0  0  0  0  0  0  0  0  0  0
  149.4030  135.0366  154.1713 H   0  0  0  0  0  0  0  0  0  0  0  0
  150.7306  135.0330  157.9183 H   0  0  0  0  0  0  0  0  0  0  0  0
  149.3449  134.2085  157.2130 H   0  0  0  0  0  0  0  0  0  0  0  0
  149.1804  135.8796  157.7310 H   0  0  0  0  0  0  0  0  0  0  0  0
  152.6449  138.3393  153.4412 H   0  0  0  0  0  0  0  0  0  0  0  0
  150.7225  139.5583  159.4596 H   0  0  0  0  0  0  0  0  0  0  0  0
  153.1893  141.1851  157.1413 H   0  0  0  0  0  0  0  0  0  0  0  0
  151.5875  141.8755  157.1635 H   0  0  0  0  0  0  0  0  0  0  0  0
  151.7043  141.0476  159.7478 H   0  0  0  0  0  0  0  0  0  0  0  0
  154.6096  141.8477  159.4294 H   0  0  0  0  0  0  0  0  0  0  0  0
  153.8309  141.0250  160.7652 H   0  0  0  0  0  0  0  0  0  0  0  0
  153.9140  139.1909  159.6516 H   0  0  0  0  0  0  0  0  0  0  0  0
  152.5174  143.3162  160.4483 H   0  0  0  0  0  0  0  0  0  0  0  0
  154.0024  144.1813  158.7829 H   0  0  0  0  0  0  0  0  0  0  0  0
  152.8728  143.8001  157.4769 H   0  0  0  0  0  0  0  0  0  0  0  0
  152.4251  145.8024  159.7235 H   0  0  0  0  0  0  0  0  0  0  0  0
  152.2959  146.0950  157.9843 H   0  0  0  0  0  0  0  0  0  0  0  0
  150.1604  142.9734  158.6289 H   0  0  0  0  0  0  0  0  0  0  0  0
  150.2566  143.5367  160.2891 H   0  0  0  0  0  0  0  0  0  0  0  0
  149.7229  133.1174  152.4795 H   0  0  0  0  0  0  0  0  0  0  0  0
  148.2390  133.9154  153.0359 H   0  0  0  0  0  0  0  0  0  0  0  0
  148.1747  132.2760  152.4145 H   0  0  0  0  0  0  0  0  0  0  0  0
  150.1526  130.9066  153.4566 H   0  0  0  0  0  0  0  0  0  0  0  0
  148.7615  130.2963  154.3476 H   0  0  0  0  0  0  0  0  0  0  0  0
  148.0759  132.3550  154.7846 H   0  0  0  0  0  0  0  0  0  0  0  0
  1  2  1  0  0  0  0
  1 32  1  0  0  0  0
  1 33  1  0  0  0  0
  1 34  1  0  0  0  0
  2  3  1  0  0  0  0
  3 30  1  0  0  0  0
  3 29  1  0  0  0  0
  3  4  1  0  0  0  0
  4  5  1  0  0  0  0
  4 35  1  0  0  0  0
  4 36  1  0  0  0  0
  5 31  1  0  0  0  0
  5  6  1  0  0  0  0
  5 27  1  0  0  0  0
  6  7  1  0  0  0  0
  6 37  1  0  0  0  0
  6 38  1  0  0  0  0
  7  8  1  0  0  0  0
  7  9  1  0  0  0  0
  8 39  1  0  0  0  0
  8 40  1  0  0  0  0
  8 41  1  0  0  0  0
  9 14  1  0  0  0  0
  9 10  2  0  0  0  0
 10 11  1  0  0  0  0
 11 12  2  0  0  0  0
 11 42  1  0  0  0  0
 12 13  1  0  0  0  0
 13 17  1  0  0  0  0
 13 14  2  0  0  0  0
 14 15  1  0  0  0  0
 15 16  2  0  0  0  0
 16 17  1  0  0  0  0
 16 43  1  0  0  0  0
 17 18  1  0  0  0  0
 18 19  1  0  0  0  0
 18 44  1  0  0  0  0
 18 45  1  0  0  0  0
 19 20  1  0  0  0  0
 19 22  1  0  0  0  0
 19 46  1  0  0  0  0
 20 21  1  0  0  0  0
 20 47  1  0  0  0  0
 20 48  1  0  0  0  0
 21 49  1  0  0  0  0
 22 26  1  0  0  0  0
 22 23  1  0  0  0  0
 22 50  1  0  0  0  0
 23 24  1  0  0  0  0
 23 51  1  0  0  0  0
 23 52  1  0  0  0  0
 24 25  1  0  0  0  0
 24 53  1  0  0  0  0
 24 54  1  0  0  0  0
 25 26  1  0  0  0  0
 26 55  1  0  0  0  0
 26 56  1  0  0  0  0
 27 28  1  0  0  0  0
 27 29  1  0  0  0  0
 27 62  1  0  0  0  0
 28 57  1  0  0  0  0
 28 58  1  0  0  0  0
 28 59  1  0  0  0  0
 29 60  1  0  0  0  0
 29 61  1  0  0  0  0
M  CHG  1  27   1
M  END
> <s_m_source_file>
AV-unprocessed.smi

> <i_m_source_file_index>
21

> <i_lp_mmshare_version>
43012

> <i_f3d_flags>
0

> <s_epik_input>
W0NIM11PW0NASF0xW0NIMl1bQ0BIXShOKFtDSDNdKVtDSDJdMSlbQ0gyXU4oW0NIM10pYyhuW2NIXW4yKWMoYzIzKW5bY0hdbjNbQ0gyXVtDQEhdKFtDSDJdW09IXSlbQ0BASF00W0NIMl1bQ0gyXU9bQ0gyXTQ=

> <s_epik_cmdline>
J2VwaWtfcHl0aG9uJywgJy1waCcsICc3LjAnLCAnLXRuJywgJzgnLCAnLW1hJywgJzIwMCcsICctbWV0YWxfYmluZGluZycsICctaW1hZScsICc8aW5maWxlLm1hZT4nLCAnLW9tYWUnLCAnPG91dGZpbGUubWFlPic=

> <r_lp_tautomer_probability>
1

> <r_epik_Ionization_Penalty>
0.0157465

> <r_epik_Ionization_Penalty_Charging>
0.015354

> <r_epik_Ionization_Penalty_Neutral>
0.000392529

> <r_epik_State_Penalty>
0.0120612

> <r_epik_Charging_Adjusted_Penalty>
0.0274152

> <i_epik_Tot_Q>
1

> <i_epik_Tot_abs_Q>
1

> <r_epik_Metal_State_Penalty>
0.0121253

> <b_epik_Metal_Only>
0

> <s_lp_Force_Field>
OPLS_2005

> <r_lp_Energy>
61.5082

> <b_lp_Chiralities_Consistent>
1

> <s_lp_Variant>
AV-unprocessed.smi:21-29

> <Gold.Version>
5.8.1

> <Gold.Id.Protein>
6NUR|6NUR_protein|mol2

> <Gold.PLP.Fitness>
52.3900

> <Gold.PLP.PLP>
-49.6973

> <Gold.PLP.part.hbond>
-2.0622

> <Gold.PLP.part.metal>
0.0000

> <Gold.PLP.part.buried>
-9.4784

> <Gold.PLP.part.nonpolar>
-38.1571

> <Gold.PLP.part.repulsive>
0.3533

> <Gold.PLP.ligand.clash>
0.1911

> <Gold.PLP.ligand.torsion>
1.7421

> <Gold.PLP.Chemscore.Hbond>
2.0000

> <Gold.PLP.Chemscore.CHOScore>
0.0000

> <Gold.PLP.Chemscore.Metal>
0.0000

> <Gold.Chemscore.Hbonds>
donor molecule, donor type, donor heavy atom, donor atom, acceptor molecule, acceptor atom, score
      P1  H  7997  8010       L1    21  0.98
      P1  H 10752 10763       L1    10  1.00

> <Gold.PLP.Chemscore.Internal.Correction>
0.3679

> <Gold.Rescore>
     Score         DG    S(hbond)    S(metal)    S(lipo)     H(rot)  DE(clash)    DE(int)     intcor
     12.66     -16.88       1.49        0.00     122.31       3.08       0.29       3.92       ----

> <Gold.Chemscore.Fitness>
12.6620

> <Gold.Chemscore.DG>
-16.8758

> <Gold.Chemscore.ZeroCoef>
-5.4800

> <Gold.Chemscore.Hbond>
1.4850

> <Gold.Chemscore.Metal>
0.0000

> <Gold.Chemscore.Lipo>
122.3071

> <Gold.Chemscore.Internal_Hbond>
0.0000

> <Gold.Chemscore.DEClash>
0.2929

> <Gold.Chemscore.DEInternal>
3.9209

> <Gold.Chemscore.Rot>
3.0758

> <Gold.Chemscore.Internal.Correction>
   9.000000E+99

> <Gold.Chemscore.Hbonds>
donor molecule, donor type, donor heavy atom, donor atom, acceptor molecule, acceptor atom, score
      P1  H  7997  8008       L1    12  0.02
      P1  H  7997  8010       L1    21  0.82
      P1  H 10752 10763       L1    10  0.31

> <Gold.Chemscore.Hbond.Weighted>
-4.9600

> <Gold.Chemscore.Metal.Weighted>
-0.0000

> <Gold.Chemscore.Lipo.Weighted>
-14.3099

> <Gold.Chemscore.Internal_Hbond.Weighted>
0.0000

> <Gold.Chemscore.DEClash.Weighted>
0.2929

> <Gold.Chemscore.DEInternal.Weighted>
3.9209

> <Gold.Chemscore.Rot.Weighted>
7.8741

> <Gold.Chemscore.Internal.Correction.Weighted>
   9.000000E+99

> <Gold.Protein.RotatedTorsions>
[ 6907 6896 6895 6894 ] final  134.86 input  -60.11 | X-H torsion
[ 7974 7965 7964 7962 ] final   45.15 input  175.53 | X-H torsion
[ 8008 7997 7996 7995 ] final   -4.41 input   59.86 | X-H torsion
[ 10167 10162 10161 10158 ] final  -92.57 input  -65.29 | X-H torsion
[ 10718 10713 10712 10709 ] final -101.73 input   66.30 | X-H torsion
[ 10763 10752 10751 10750 ] final   39.69 input  -60.55 | X-H torsion
[ 11005 11000 10999 10996 ] final   49.37 input  -57.11 | X-H torsion

> <Gold.Protein.ActiveResidues>
 VAL166  LYS551  ARG553  GLY616  TRP617  ASP618  TYR619  PRO620  LYS621  CYS622 
 ASP623  PHE694  ASN695  SER759  ASP760  ASP761  ALA762  ILE779  LEU786  VAL792 
 PHE793  MET794  SER795  GLU796  ALA797  LYS798  CYS799  TRP800  GLU811  SER814 

> <Gold.Protein.RotatedAtoms>
  152.3067  133.5710  159.5653 H   0  0  0  0  0  0  0  0  0  0  0  0  # atno 6907 bound_to 6896
  150.7303  134.0212  159.3711 H   0  0  0  0  0  0  0  0  0  0  0  0  # atno 6908 bound_to 6896
  151.8108  135.0681  160.0463 H   0  0  0  0  0  0  0  0  0  0  0  0  # atno 6909 bound_to 6896
  146.0505  139.4995  142.9721 H   0  0  0  0  0  0  0  0  0  0  0  0  # atno 7974 bound_to 7965
  154.6146  140.2484  155.7625 H   0  0  0  0  0  0  0  0  0  0  0  0  # atno 8008 bound_to 7997
  156.2391  140.2939  156.0344 H   0  0  0  0  0  0  0  0  0  0  0  0  # atno 8009 bound_to 7997
  155.1996  140.0394  157.2905 H   0  0  0  0  0  0  0  0  0  0  0  0  # atno 8010 bound_to 7997
  140.3335  143.2981  151.9915 H   0  0  0  0  0  0  0  0  0  0  0  0  # atno 10167 bound_to 10162
  156.0204  130.5387  150.7006 H   0  0  0  0  0  0  0  0  0  0  0  0  # atno 10718 bound_to 10713
  152.9959  135.6213  154.2506 H   0  0  0  0  0  0  0  0  0  0  0  0  # atno 10763 bound_to 10752
  154.2245  135.2794  155.2914 H   0  0  0  0  0  0  0  0  0  0  0  0  # atno 10764 bound_to 10752
  154.5501  135.5736  153.6973 H   0  0  0  0  0  0  0  0  0  0  0  0  # atno 10765 bound_to 10752
  140.1109  134.4955  155.8678 H   0  0  0  0  0  0  0  0  0  0  0  0  # atno 11005 bound_to 11000
  145.6732  141.0211  143.1646 LP  0  0  0  0  0  0  0  0  0  0  0  0  # atno 17320 bound_to 7965
  144.7120  139.8335  143.7411 LP  0  0  0  0  0  0  0  0  0  0  0  0  # atno 17321 bound_to 7965
  139.4852  144.6216  151.7245 LP  0  0  0  0  0  0  0  0  0  0  0  0  # atno 17342 bound_to 10162
  140.5375  144.0632  150.6076 LP  0  0  0  0  0  0  0  0  0  0  0  0  # atno 17343 bound_to 10162
  157.4667  131.0889  151.0687 LP  0  0  0  0  0  0  0  0  0  0  0  0  # atno 17370 bound_to 10713
  157.1159  130.6041  149.5493 LP  0  0  0  0  0  0  0  0  0  0  0  0  # atno 17371 bound_to 10713
  141.2130  133.6727  156.6704 LP  0  0  0  0  0  0  0  0  0  0  0  0  # atno 17394 bound_to 11000
  140.3092  134.8100  157.4162 LP  0  0  0  0  0  0  0  0  0  0  0  0  # atno 17395 bound_to 11000

$$$$
