AV-unprocessed.smi:1634|AV-procd|sdf|6536|dock2
  -GOLD-   22720 7213D 1   1.00000     0.00000
 Structure written by MMmdl.
 38 38  0  0  0  0  0  0  0  0  1 V2000
  149.5124  139.6155  154.5927 C   0  0  0  0  0  0  0  0  0  0  0  0
  151.0355  139.4363  154.6758 C   0  0  0  0  0  0  0  0  0  0  0  0
  151.4318  137.9847  154.3630 C   0  0  0  0  0  0  0  0  0  0  0  0
  151.5698  139.8832  156.0460 C   0  0  0  0  0  0  0  0  0  0  0  0
  151.6873  138.7469  156.8963 O   0  0  0  0  0  0  0  0  0  0  0  0
  151.5526  139.0065  158.2910 C   0  0  2  0  0  0  0  0  0  0  0  0
  152.9580  139.2668  158.8529 C   0  0  0  0  0  0  0  0  0  0  0  0
  150.8819  137.8144  158.9927 C   0  0  0  0  0  0  0  0  0  0  0  0
  151.5279  137.1482  159.8010 O   0  0  0  0  0  0  0  0  0  0  0  0
  149.6082  137.5724  158.6241 N   0  0  0  0  0  0  0  0  0  0  0  0
  148.7226  136.5689  159.0522 C   0  0  0  0  0  0  0  0  0  0  0  0
  148.2974  136.3938  160.3310 C   0  0  0  0  0  0  0  0  0  0  0  0
  147.3727  135.3346  160.6988 C   0  0  0  0  0  0  0  0  0  0  0  0
  146.9686  135.0975  162.1457 C   0  0  0  0  0  0  0  0  0  0  0  0
  147.2954  133.8673  162.5436 F   0  0  0  0  0  0  0  0  0  0  0  0
  147.5623  135.9719  162.9581 F   0  0  0  0  0  0  0  0  0  0  0  0
  145.6505  135.2396  162.2766 F   0  0  0  0  0  0  0  0  0  0  0  0
  146.9620  134.5247  159.7058 C   0  0  0  0  0  0  0  0  0  0  0  0
  147.3765  134.7111  158.3852 N   0  0  0  0  0  0  0  0  0  0  0  0
  148.2307  135.6798  157.9864 C   0  0  0  0  0  0  0  0  0  0  0  0
  148.5503  135.7766  156.8021 O   0  0  0  0  0  0  0  0  0  0  0  0
  147.0101  134.0719  157.6946 H   0  0  0  0  0  0  0  0  0  0  0  0
  148.9993  138.9988  155.3314 H   0  0  0  0  0  0  0  0  0  0  0  0
  149.1372  139.3364  153.6077 H   0  0  0  0  0  0  0  0  0  0  0  0
  149.2279  140.6531  154.7698 H   0  0  0  0  0  0  0  0  0  0  0  0
  151.4832  140.0787  153.9164 H   0  0  0  0  0  0  0  0  0  0  0  0
  151.0177  137.2934  155.0978 H   0  0  0  0  0  0  0  0  0  0  0  0
  152.5151  137.8610  154.3645 H   0  0  0  0  0  0  0  0  0  0  0  0
  151.0702  137.6818  153.3799 H   0  0  0  0  0  0  0  0  0  0  0  0
  152.5508  140.3465  155.9304 H   0  0  0  0  0  0  0  0  0  0  0  0
  150.9050  140.6349  156.4730 H   0  0  0  0  0  0  0  0  0  0  0  0
  150.9550  139.9087  158.4347 H   0  0  0  0  0  0  0  0  0  0  0  0
  152.9271  139.4506  159.9275 H   0  0  0  0  0  0  0  0  0  0  0  0
  153.4058  140.1425  158.3825 H   0  0  0  0  0  0  0  0  0  0  0  0
  153.6253  138.4224  158.6758 H   0  0  0  0  0  0  0  0  0  0  0  0
  149.2360  138.1760  157.9048 H   0  0  0  0  0  0  0  0  0  0  0  0
  148.6204  137.0503  161.1214 H   0  0  0  0  0  0  0  0  0  0  0  0
  146.3004  133.6820  159.8423 H   0  0  0  0  0  0  0  0  0  0  0  0
  1  2  1  0  0  0  0
  1 23  1  0  0  0  0
  1 24  1  0  0  0  0
  1 25  1  0  0  0  0
  2  3  1  0  0  0  0
  2  4  1  0  0  0  0
  2 26  1  0  0  0  0
  3 27  1  0  0  0  0
  3 28  1  0  0  0  0
  3 29  1  0  0  0  0
  4  5  1  0  0  0  0
  4 30  1  0  0  0  0
  4 31  1  0  0  0  0
  5  6  1  0  0  0  0
  6  7  1  0  0  0  0
  6  8  1  0  0  0  0
  6 32  1  0  0  0  0
  7 33  1  0  0  0  0
  7 34  1  0  0  0  0
  7 35  1  0  0  0  0
  8  9  2  0  0  0  0
  8 10  1  0  0  0  0
 10 11  1  0  0  0  0
 10 36  1  0  0  0  0
 11 20  1  0  0  0  0
 11 12  2  0  0  0  0
 12 13  1  0  0  0  0
 12 37  1  0  0  0  0
 13 14  1  0  0  0  0
 13 18  2  0  0  0  0
 14 15  1  0  0  0  0
 14 16  1  0  0  0  0
 14 17  1  0  0  0  0
 18 19  1  0  0  0  0
 18 38  1  0  0  0  0
 19 22  1  0  0  0  0
 19 20  1  0  0  0  0
 20 21  2  0  0  0  0
M  END
> <s_m_source_file>
AV-unprocessed.smi

> <i_m_source_file_index>
1634

> <i_lp_mmshare_version>
43012

> <i_f3d_flags>
0

> <s_epik_input>
W0NIM11bQ0hdKFtDSDNdKVtDSDJdT1tDQEhdKFtDSDNdKUMoPU8pW05IXWMxW2NIXWMoQyhGKShGKUYpW2NIXVtuSF1jMT1P

> <s_epik_cmdline>
J2VwaWtfcHl0aG9uJywgJy1waCcsICc3LjAnLCAnLXRuJywgJzgnLCAnLW1hJywgJzIwMCcsICctbWV0YWxfYmluZGluZycsICctaW1hZScsICc8aW5maWxlLm1hZT4nLCAnLW9tYWUnLCAnPG91dGZpbGUubWFlPic=

> <r_lp_tautomer_probability>
0.999

> <r_epik_Ionization_Penalty>
0.00884964

> <r_epik_Ionization_Penalty_Charging>
0.00884955

> <r_epik_Ionization_Penalty_Neutral>
9.33956e-08

> <r_epik_State_Penalty>
0.00669049

> <r_epik_Charging_Adjusted_Penalty>
0.01554

> <i_epik_Tot_Q>
0

> <i_epik_Tot_abs_Q>
0

> <r_epik_Metal_State_Penalty>
0.320763

> <b_epik_Metal_Only>
0

> <s_lp_Force_Field>
OPLS_2005

> <r_lp_Energy>
19.4514

> <b_lp_Chiralities_Consistent>
1

> <s_lp_Variant>
AV-unprocessed.smi:1634-1

> <Gold.Version>
5.8.1

> <Gold.Id.Protein>
6NUR|6NUR_protein|mol2

> <Gold.PLP.Fitness>
38.0315

> <Gold.PLP.PLP>
-38.3640

> <Gold.PLP.part.hbond>
-1.0000

> <Gold.PLP.part.metal>
0.0000

> <Gold.PLP.part.buried>
-3.6132

> <Gold.PLP.part.nonpolar>
-34.4765

> <Gold.PLP.part.repulsive>
0.1966

> <Gold.PLP.ligand.clash>
0.0000

> <Gold.PLP.ligand.torsion>
1.7032

> <Gold.PLP.Chemscore.Hbond>
1.0000

> <Gold.PLP.Chemscore.CHOScore>
0.0000

> <Gold.PLP.Chemscore.Metal>
0.0000

> <Gold.Chemscore.Hbonds>
donor molecule, donor type, donor heavy atom, donor atom, acceptor molecule, acceptor atom, score
      P1  H  6896  6908       L1     9  1.00

> <Gold.PLP.Chemscore.Internal.Correction>
0.0738

> <Gold.Rescore>
     Score         DG    S(hbond)    S(metal)    S(lipo)     H(rot)  DE(clash)    DE(int)     intcor
     10.24     -12.43       0.99        0.00      70.16       1.79       0.07       2.12       ----

> <Gold.Chemscore.Fitness>
10.2430

> <Gold.Chemscore.DG>
-12.4268

> <Gold.Chemscore.ZeroCoef>
-5.4800

> <Gold.Chemscore.Hbond>
0.9922

> <Gold.Chemscore.Metal>
0.0000

> <Gold.Chemscore.Lipo>
70.1565

> <Gold.Chemscore.Internal_Hbond>
0.0000

> <Gold.Chemscore.DEClash>
0.0674

> <Gold.Chemscore.DEInternal>
2.1164

> <Gold.Chemscore.Rot>
1.7873

> <Gold.Chemscore.Internal.Correction>
   9.000000E+99

> <Gold.Chemscore.Hbonds>
donor molecule, donor type, donor heavy atom, donor atom, acceptor molecule, acceptor atom, score
      P1  H  6896  6908       L1     9  0.97

> <Gold.Chemscore.Hbond.Weighted>
-3.3140

> <Gold.Chemscore.Metal.Weighted>
-0.0000

> <Gold.Chemscore.Lipo.Weighted>
-8.2083

> <Gold.Chemscore.Internal_Hbond.Weighted>
0.0000

> <Gold.Chemscore.DEClash.Weighted>
0.0674

> <Gold.Chemscore.DEInternal.Weighted>
2.1164

> <Gold.Chemscore.Rot.Weighted>
4.5755

> <Gold.Chemscore.Internal.Correction.Weighted>
   9.000000E+99

> <Gold.Protein.RotatedTorsions>
[ 6907 6896 6895 6894 ] final -121.94 input  -60.11 | X-H torsion
[ 7974 7965 7964 7962 ] final  -60.80 input  175.53 | X-H torsion
[ 8008 7997 7996 7995 ] final -129.23 input   59.86 | X-H torsion
[ 10167 10162 10161 10158 ] final   29.89 input  -65.29 | X-H torsion
[ 10718 10713 10712 10709 ] final  152.01 input   66.30 | X-H torsion
[ 10763 10752 10751 10750 ] final  -97.36 input  -60.55 | X-H torsion
[ 11005 11000 10999 10996 ] final  149.39 input  -57.11 | X-H torsion

> <Gold.Protein.ActiveResidues>
 VAL166  LYS551  ARG553  GLY616  TRP617  ASP618  TYR619  PRO620  LYS621  CYS622 
 ASP623  PHE694  ASN695  SER759  ASP760  ASP761  ALA762  ILE779  LEU786  VAL792 
 PHE793  MET794  SER795  GLU796  ALA797  LYS798  CYS799  TRP800  GLU811  SER814 

> <Gold.Protein.RotatedAtoms>
  150.8530  133.7758  159.3018 H   0  0  0  0  0  0  0  0  0  0  0  0  # atno 6907 bound_to 6896
  151.5424  135.1066  159.9939 H   0  0  0  0  0  0  0  0  0  0  0  0  # atno 6908 bound_to 6896
  152.4567  133.7695  159.6847 H   0  0  0  0  0  0  0  0  0  0  0  0  # atno 6909 bound_to 6896
  145.8112  140.8598  143.0181 H   0  0  0  0  0  0  0  0  0  0  0  0  # atno 7974 bound_to 7965
  155.2757  140.0442  157.3011 H   0  0  0  0  0  0  0  0  0  0  0  0  # atno 8008 bound_to 7997
  154.5627  140.2350  155.8280 H   0  0  0  0  0  0  0  0  0  0  0  0  # atno 8009 bound_to 7997
  156.2060  140.3012  155.9635 H   0  0  0  0  0  0  0  0  0  0  0  0  # atno 8010 bound_to 7997
  140.4726  144.0740  150.6241 H   0  0  0  0  0  0  0  0  0  0  0  0  # atno 10167 bound_to 10162
  157.2633  131.0802  151.1650 H   0  0  0  0  0  0  0  0  0  0  0  0  # atno 10718 bound_to 10713
  154.7321  135.5049  153.8981 H   0  0  0  0  0  0  0  0  0  0  0  0  # atno 10763 bound_to 10752
  153.0960  135.6672  153.9771 H   0  0  0  0  0  0  0  0  0  0  0  0  # atno 10764 bound_to 10752
  153.9570  135.3052  155.3415 H   0  0  0  0  0  0  0  0  0  0  0  0  # atno 10765 bound_to 10752
  140.1040  134.8965  157.1839 H   0  0  0  0  0  0  0  0  0  0  0  0  # atno 11005 bound_to 11000
  144.6757  140.0398  143.7481 LP  0  0  0  0  0  0  0  0  0  0  0  0  # atno 17320 bound_to 7965
  145.9775  139.2916  143.1061 LP  0  0  0  0  0  0  0  0  0  0  0  0  # atno 17321 bound_to 7965
  140.3959  143.2728  152.0006 LP  0  0  0  0  0  0  0  0  0  0  0  0  # atno 17342 bound_to 10162
  139.4820  144.6039  151.7557 LP  0  0  0  0  0  0  0  0  0  0  0  0  # atno 17343 bound_to 10162
  157.3151  130.6909  149.6237 LP  0  0  0  0  0  0  0  0  0  0  0  0  # atno 17370 bound_to 10713
  155.9664  130.4352  150.5080 LP  0  0  0  0  0  0  0  0  0  0  0  0  # atno 17371 bound_to 10713
  140.3181  134.2948  155.7252 LP  0  0  0  0  0  0  0  0  0  0  0  0  # atno 17394 bound_to 11000
  141.2113  133.7692  156.9871 LP  0  0  0  0  0  0  0  0  0  0  0  0  # atno 17395 bound_to 11000

$$$$
