AV-unprocessed.smi:1718|AV-procd|sdf|6924|dock7
  -GOLD-   22720 8133D 1   1.00000     0.00000
 Structure written by MMmdl.
 40 41  0  0  0  0  0  0  0  0  1 V2000
  148.1861  135.4607  156.5484 C   0  0  0  0  0  0  0  0  0  0  0  0
  148.2299  136.2486  155.2305 C   0  0  2  0  0  0  0  0  0  0  0  0
  148.4232  137.6205  155.5589 O   0  0  0  0  0  0  0  0  0  0  0  0
  149.6204  138.2074  155.0586 C   0  0  0  0  0  0  0  0  0  0  0  0
  149.5223  139.7345  155.1728 C   0  0  1  0  0  0  0  0  0  0  0  0
  149.0243  140.2384  156.5362 C   0  0  0  0  0  0  0  0  0  0  0  0
  150.2266  140.9653  157.1066 C   0  0  0  0  0  0  0  0  0  0  0  0
  150.9552  141.4181  155.8489 C   0  0  0  0  0  0  0  0  0  0  0  0
  150.8103  140.3115  154.9728 O   0  0  0  0  0  0  0  0  0  0  0  0
  146.9304  136.0746  154.4276 C   0  0  0  0  0  0  0  0  0  0  0  0
  145.8581  136.4017  154.9354 O   0  0  0  0  0  0  0  0  0  0  0  0
  147.0805  135.5591  153.1912 N   0  0  0  0  0  0  0  0  0  0  0  0
  146.1152  135.3052  152.2020 C   0  0  0  0  0  0  0  0  0  0  0  0
  145.8607  134.0879  151.6539 C   0  0  0  0  0  0  0  0  0  0  0  0
  144.8391  133.8968  150.6380 C   0  0  0  0  0  0  0  0  0  0  0  0
  144.6236  132.5473  149.9701 C   0  0  0  0  0  0  0  0  0  0  0  0
  144.0886  131.6674  150.8177 F   0  0  0  0  0  0  0  0  0  0  0  0
  143.8144  132.6592  148.9167 F   0  0  0  0  0  0  0  0  0  0  0  0
  145.7894  132.0604  149.5475 F   0  0  0  0  0  0  0  0  0  0  0  0
  144.1562  134.9932  150.2601 C   0  0  0  0  0  0  0  0  0  0  0  0
  144.3943  136.2432  150.8356 N   0  0  0  0  0  0  0  0  0  0  0  0
  145.3281  136.4775  151.7846 C   0  0  0  0  0  0  0  0  0  0  0  0
  145.4775  137.6100  152.2421 O   0  0  0  0  0  0  0  0  0  0  0  0
  143.8278  137.0134  150.5105 H   0  0  0  0  0  0  0  0  0  0  0  0
  148.0253  134.3970  156.3693 H   0  0  0  0  0  0  0  0  0  0  0  0
  147.3895  135.8153  157.2038 H   0  0  0  0  0  0  0  0  0  0  0  0
  149.1263  135.5647  157.0902 H   0  0  0  0  0  0  0  0  0  0  0  0
  149.0809  135.8904  154.6475 H   0  0  0  0  0  0  0  0  0  0  0  0
  150.4815  137.8450  155.6218 H   0  0  0  0  0  0  0  0  0  0  0  0
  149.7777  137.9376  154.0139 H   0  0  0  0  0  0  0  0  0  0  0  0
  148.8616  140.1102  154.3904 H   0  0  0  0  0  0  0  0  0  0  0  0
  148.1998  140.9379  156.3933 H   0  0  0  0  0  0  0  0  0  0  0  0
  148.6725  139.4414  157.1923 H   0  0  0  0  0  0  0  0  0  0  0  0
  149.9556  141.7908  157.7653 H   0  0  0  0  0  0  0  0  0  0  0  0
  150.8517  140.2692  157.6675 H   0  0  0  0  0  0  0  0  0  0  0  0
  150.4722  142.2940  155.4133 H   0  0  0  0  0  0  0  0  0  0  0  0
  152.0038  141.6544  156.0298 H   0  0  0  0  0  0  0  0  0  0  0  0
  148.0193  135.2857  152.9372 H   0  0  0  0  0  0  0  0  0  0  0  0
  146.3995  133.2103  151.9702 H   0  0  0  0  0  0  0  0  0  0  0  0
  143.3924  135.0011  149.4965 H   0  0  0  0  0  0  0  0  0  0  0  0
  1  2  1  0  0  0  0
  1 25  1  0  0  0  0
  1 26  1  0  0  0  0
  1 27  1  0  0  0  0
  2  3  1  0  0  0  0
  2 10  1  0  0  0  0
  2 28  1  0  0  0  0
  3  4  1  0  0  0  0
  4  5  1  0  0  0  0
  4 29  1  0  0  0  0
  4 30  1  0  0  0  0
  5  9  1  0  0  0  0
  5  6  1  0  0  0  0
  5 31  1  0  0  0  0
  6  7  1  0  0  0  0
  6 32  1  0  0  0  0
  6 33  1  0  0  0  0
  7  8  1  0  0  0  0
  7 34  1  0  0  0  0
  7 35  1  0  0  0  0
  8  9  1  0  0  0  0
  8 36  1  0  0  0  0
  8 37  1  0  0  0  0
 10 11  2  0  0  0  0
 10 12  1  0  0  0  0
 12 13  1  0  0  0  0
 12 38  1  0  0  0  0
 13 22  1  0  0  0  0
 13 14  2  0  0  0  0
 14 15  1  0  0  0  0
 14 39  1  0  0  0  0
 15 16  1  0  0  0  0
 15 20  2  0  0  0  0
 16 17  1  0  0  0  0
 16 18  1  0  0  0  0
 16 19  1  0  0  0  0
 20 21  1  0  0  0  0
 20 40  1  0  0  0  0
 21 24  1  0  0  0  0
 21 22  1  0  0  0  0
 22 23  2  0  0  0  0
M  END
> <s_m_source_file>
AV-unprocessed.smi

> <i_m_source_file_index>
1718

> <i_lp_mmshare_version>
43012

> <i_f3d_flags>
0

> <s_epik_input>
TzFbQ0gyXVtDSDJdW0NIMl1bQ0BIXTFbQ0gyXU9bQ0BASF0oW0NIM10pQyg9TylbTkhdYzJbY0hdYyhDKEYpKEYpRilbY0hdW25IXWMyPU8=

> <s_epik_cmdline>
J2VwaWtfcHl0aG9uJywgJy1waCcsICc3LjAnLCAnLXRuJywgJzgnLCAnLW1hJywgJzIwMCcsICctbWV0YWxfYmluZGluZycsICctaW1hZScsICc8aW5maWxlLm1hZT4nLCAnLW9tYWUnLCAnPG91dGZpbGUubWFlPic=

> <r_lp_tautomer_probability>
0.999

> <r_epik_Ionization_Penalty>
0.00894336

> <r_epik_Ionization_Penalty_Charging>
0.00894326

> <r_epik_Ionization_Penalty_Neutral>
1.00145e-07

> <r_epik_State_Penalty>
0.00676626

> <r_epik_Charging_Adjusted_Penalty>
0.0157095

> <i_epik_Tot_Q>
0

> <i_epik_Tot_abs_Q>
0

> <r_epik_Metal_State_Penalty>
0.321145

> <b_epik_Metal_Only>
0

> <s_lp_Force_Field>
OPLS_2005

> <r_lp_Energy>
34.3894

> <b_lp_Chiralities_Consistent>
1

> <s_lp_Variant>
AV-unprocessed.smi:1718-3

> <Gold.Version>
5.8.1

> <Gold.Id.Protein>
6NUR|6NUR_protein|mol2

> <Gold.PLP.Fitness>
41.5183

> <Gold.PLP.PLP>
-36.0122

> <Gold.PLP.part.hbond>
-2.4528

> <Gold.PLP.part.metal>
0.0000

> <Gold.PLP.part.buried>
-4.4006

> <Gold.PLP.part.nonpolar>
-28.2985

> <Gold.PLP.part.repulsive>
0.4919

> <Gold.PLP.ligand.clash>
1.2804

> <Gold.PLP.ligand.torsion>
1.6511

> <Gold.PLP.Chemscore.Hbond>
2.3440

> <Gold.PLP.Chemscore.CHOScore>
1.0000

> <Gold.PLP.Chemscore.Metal>
0.0000

> <Gold.Chemscore.Hbonds>
donor molecule, donor type, donor heavy atom, donor atom, acceptor molecule, acceptor atom, score
      L1  H    12    38       P1  7948  0.45
      L1  H    21    24       P1 10171  0.91
      P1  H  7989  7998       L1     9  1.00
      L1  C    20    40       P1 10186  1.00

> <Gold.PLP.Chemscore.Internal.Correction>
0.0567

> <Gold.Rescore>
     Score         DG    S(hbond)    S(metal)    S(lipo)     H(rot)  DE(clash)    DE(int)     intcor
     12.45     -14.84       2.27        0.00      56.23       1.88       0.60       1.79       ----

> <Gold.Chemscore.Fitness>
12.4547

> <Gold.Chemscore.DG>
-14.8416

> <Gold.Chemscore.ZeroCoef>
-5.4800

> <Gold.Chemscore.Hbond>
2.2732

> <Gold.Chemscore.Metal>
0.0000

> <Gold.Chemscore.Lipo>
56.2321

> <Gold.Chemscore.Internal_Hbond>
0.0000

> <Gold.Chemscore.DEClash>
0.5979

> <Gold.Chemscore.DEInternal>
1.7889

> <Gold.Chemscore.Rot>
1.8790

> <Gold.Chemscore.Internal.Correction>
   9.000000E+99

> <Gold.Chemscore.Hbonds>
donor molecule, donor type, donor heavy atom, donor atom, acceptor molecule, acceptor atom, score
      L1  H    12    38       P1  7948  0.44
      L1  H    21    24       P1 10171  0.88
      P1  H  7989  7998       L1     9  0.34

> <Gold.Chemscore.Hbond.Weighted>
-7.5926

> <Gold.Chemscore.Metal.Weighted>
-0.0000

> <Gold.Chemscore.Lipo.Weighted>
-6.5792

> <Gold.Chemscore.Internal_Hbond.Weighted>
0.0000

> <Gold.Chemscore.DEClash.Weighted>
0.5979

> <Gold.Chemscore.DEInternal.Weighted>
1.7889

> <Gold.Chemscore.Rot.Weighted>
4.8102

> <Gold.Chemscore.Internal.Correction.Weighted>
   9.000000E+99

> <Gold.Protein.RotatedTorsions>
[ 6907 6896 6895 6894 ] final   60.63 input  -60.11 | X-H torsion
[ 7974 7965 7964 7962 ] final  -59.92 input  175.53 | X-H torsion
[ 8008 7997 7996 7995 ] final  -53.04 input   59.86 | X-H torsion
[ 10167 10162 10161 10158 ] final   17.70 input  -65.29 | X-H torsion
[ 10718 10713 10712 10709 ] final  143.57 input   66.30 | X-H torsion
[ 10763 10752 10751 10750 ] final  -25.69 input  -60.55 | X-H torsion
[ 11005 11000 10999 10996 ] final  -70.27 input  -57.11 | X-H torsion

> <Gold.Protein.ActiveResidues>
 VAL166  LYS551  ARG553  GLY616  TRP617  ASP618  TYR619  PRO620  LYS621  CYS622 
 ASP623  PHE694  ASN695  SER759  ASP760  ASP761  ALA762  ILE779  LEU786  VAL792 
 PHE793  MET794  SER795  GLU796  ALA797  LYS798  CYS799  TRP800  GLU811  SER814 

> <Gold.Protein.RotatedAtoms>
  152.4019  134.6271  160.0065 H   0  0  0  0  0  0  0  0  0  0  0  0  # atno 6907 bound_to 6896
  151.6474  133.3317  159.3152 H   0  0  0  0  0  0  0  0  0  0  0  0  # atno 6908 bound_to 6896
  150.7919  134.6991  159.6584 H   0  0  0  0  0  0  0  0  0  0  0  0  # atno 6909 bound_to 6896
  145.8217  140.8536  143.0129 H   0  0  0  0  0  0  0  0  0  0  0  0  # atno 7974 bound_to 7965
  154.4122  140.1209  156.5090 H   0  0  0  0  0  0  0  0  0  0  0  0  # atno 8008 bound_to 7997
  155.6818  140.3496  155.4839 H   0  0  0  0  0  0  0  0  0  0  0  0  # atno 8009 bound_to 7997
  155.9544  140.1111  157.0939 H   0  0  0  0  0  0  0  0  0  0  0  0  # atno 8010 bound_to 7997
  140.5707  143.9166  150.6711 H   0  0  0  0  0  0  0  0  0  0  0  0  # atno 10167 bound_to 10162
  157.3673  131.0974  151.0860 H   0  0  0  0  0  0  0  0  0  0  0  0  # atno 10718 bound_to 10713
  153.7038  135.6955  153.5056 H   0  0  0  0  0  0  0  0  0  0  0  0  # atno 10763 bound_to 10752
  153.2322  135.4333  155.0607 H   0  0  0  0  0  0  0  0  0  0  0  0  # atno 10764 bound_to 10752
  154.8336  135.3487  154.6577 H   0  0  0  0  0  0  0  0  0  0  0  0  # atno 10765 bound_to 10752
  141.1571  133.6786  156.6728 H   0  0  0  0  0  0  0  0  0  0  0  0  # atno 11005 bound_to 11000
  144.6747  140.0543  143.7478 LP  0  0  0  0  0  0  0  0  0  0  0  0  # atno 17320 bound_to 7965
  145.9668  139.2840  143.1123 LP  0  0  0  0  0  0  0  0  0  0  0  0  # atno 17321 bound_to 7965
  140.2641  143.3503  152.1297 LP  0  0  0  0  0  0  0  0  0  0  0  0  # atno 17342 bound_to 10162
  139.5116  144.6903  151.5777 LP  0  0  0  0  0  0  0  0  0  0  0  0  # atno 17343 bound_to 10162
  157.1978  130.6381  149.5727 LP  0  0  0  0  0  0  0  0  0  0  0  0  # atno 17370 bound_to 10713
  155.9748  130.4701  150.6418 LP  0  0  0  0  0  0  0  0  0  0  0  0  # atno 17371 bound_to 10713
  140.3162  134.8045  157.4216 LP  0  0  0  0  0  0  0  0  0  0  0  0  # atno 17394 bound_to 11000
  140.1136  134.5313  155.8244 LP  0  0  0  0  0  0  0  0  0  0  0  0  # atno 17395 bound_to 11000

$$$$
