AV-unprocessed.smi:2973|AV-procd|sdf|11348|dock7
  -GOLD-   2272016263D 1   1.00000     0.00000
 Structure written by MMmdl.
 48 50  0  0  0  0  0  0  0  0  2 V2000
  148.6287  137.0541  158.4409 C   0  0  0  0  0  0  0  0  0  0  0  0
  148.5209  135.6114  157.8993 C   0  0  1  0  0  0  0  0  0  0  0  0
  147.0561  135.3009  157.5183 C   0  0  0  0  0  0  0  0  0  0  0  0
  146.8804  133.8504  157.0465 C   0  0  0  0  0  0  0  0  0  0  0  0
  147.8093  133.5336  155.8681 C   0  0  0  0  0  0  0  0  0  0  0  0
  149.2765  133.8234  156.2295 C   0  0  0  0  0  0  0  0  0  0  0  0
  149.5147  135.2711  156.7380 C   0  0  2  0  0  0  0  0  0  0  0  0
  150.8876  135.3744  157.2017 N   0  5  0  0  0  0  0  0  0  0  0  0
  151.5466  136.2793  156.4420 C   0  0  0  0  0  0  0  0  0  0  0  0
  152.7274  136.6090  156.5497 O   0  0  0  0  0  0  0  0  0  0  0  0
  150.7339  136.8106  155.5099 N   0  0  0  0  0  0  0  0  0  0  0  0
  151.1414  137.8103  154.5141 C   0  0  0  0  0  0  0  0  0  0  0  0
  151.6606  139.1107  155.1426 C   0  0  0  0  0  0  0  0  0  0  0  0
  152.8687  139.3301  155.2406 O   0  0  0  0  0  0  0  0  0  0  0  0
  150.7226  139.9795  155.5479 N   0  0  0  0  0  0  0  0  0  0  0  0
  150.9898  141.2708  156.1694 C   0  0  0  0  0  0  0  0  0  0  0  0
  150.8623  141.2015  157.7004 C   0  0  0  0  0  0  0  0  0  0  0  0
  151.2120  142.5199  158.3633 C   0  0  0  0  0  0  0  0  0  0  0  0
  151.3572  143.6956  157.5961 C   0  0  0  0  0  0  0  0  0  0  0  0
  151.6737  144.8960  158.2612 C   0  0  0  0  0  0  0  0  0  0  0  0
  151.8302  144.8751  159.6607 C   0  0  0  0  0  0  0  0  0  0  0  0
  151.6627  143.6493  160.3356 C   0  0  0  0  0  0  0  0  0  0  0  0
  151.3590  142.4929  159.7074 N   0  0  0  0  0  0  0  0  0  0  0  0
  149.5087  136.2804  155.5911 C   0  0  0  0  0  0  0  0  0  0  0  0
  148.5357  136.5448  154.8832 O   0  0  0  0  0  0  0  0  0  0  0  0
  148.3499  137.7924  157.6888 H   0  0  0  0  0  0  0  0  0  0  0  0
  149.6402  137.2842  158.7758 H   0  0  0  0  0  0  0  0  0  0  0  0
  147.9685  137.1969  159.2965 H   0  0  0  0  0  0  0  0  0  0  0  0
  148.7706  134.9534  158.7337 H   0  0  0  0  0  0  0  0  0  0  0  0
  146.4075  135.4763  158.3771 H   0  0  0  0  0  0  0  0  0  0  0  0
  146.7144  135.9831  156.7396 H   0  0  0  0  0  0  0  0  0  0  0  0
  147.0927  133.1698  157.8720 H   0  0  0  0  0  0  0  0  0  0  0  0
  145.8432  133.6753  156.7599 H   0  0  0  0  0  0  0  0  0  0  0  0
  147.7012  132.4863  155.5855 H   0  0  0  0  0  0  0  0  0  0  0  0
  147.5111  134.1144  154.9953 H   0  0  0  0  0  0  0  0  0  0  0  0
  149.5892  133.1136  156.9973 H   0  0  0  0  0  0  0  0  0  0  0  0
  149.9057  133.6155  155.3620 H   0  0  0  0  0  0  0  0  0  0  0  0
  151.9218  137.4062  153.8675 H   0  0  0  0  0  0  0  0  0  0  0  0
  150.2999  138.0339  153.8557 H   0  0  0  0  0  0  0  0  0  0  0  0
  149.7543  139.7205  155.4274 H   0  0  0  0  0  0  0  0  0  0  0  0
  152.0013  141.5721  155.8958 H   0  0  0  0  0  0  0  0  0  0  0  0
  150.3184  142.0282  155.7609 H   0  0  0  0  0  0  0  0  0  0  0  0
  149.8456  140.9254  157.9840 H   0  0  0  0  0  0  0  0  0  0  0  0
  151.5121  140.4187  158.0939 H   0  0  0  0  0  0  0  0  0  0  0  0
  151.2275  143.6801  156.5236 H   0  0  0  0  0  0  0  0  0  0  0  0
  151.7933  145.8160  157.7082 H   0  0  0  0  0  0  0  0  0  0  0  0
  152.0723  145.7763  160.2045 H   0  0  0  0  0  0  0  0  0  0  0  0
  151.7753  143.5965  161.4085 H   0  0  0  0  0  0  0  0  0  0  0  0
  1  2  1  0  0  0  0
  1 26  1  0  0  0  0
  1 27  1  0  0  0  0
  1 28  1  0  0  0  0
  2  7  1  0  0  0  0
  2  3  1  0  0  0  0
  2 29  1  0  0  0  0
  3  4  1  0  0  0  0
  3 30  1  0  0  0  0
  3 31  1  0  0  0  0
  4  5  1  0  0  0  0
  4 32  1  0  0  0  0
  4 33  1  0  0  0  0
  5  6  1  0  0  0  0
  5 34  1  0  0  0  0
  5 35  1  0  0  0  0
  6  7  1  0  0  0  0
  6 36  1  0  0  0  0
  6 37  1  0  0  0  0
  7 24  1  0  0  0  0
  7  8  1  0  0  0  0
  8  9  1  0  0  0  0
  9 10  2  0  0  0  0
  9 11  1  0  0  0  0
 11 12  1  0  0  0  0
 11 24  1  0  0  0  0
 12 13  1  0  0  0  0
 12 38  1  0  0  0  0
 12 39  1  0  0  0  0
 13 14  2  0  0  0  0
 13 15  1  0  0  0  0
 15 16  1  0  0  0  0
 15 40  1  0  0  0  0
 16 17  1  0  0  0  0
 16 41  1  0  0  0  0
 16 42  1  0  0  0  0
 17 18  1  0  0  0  0
 17 43  1  0  0  0  0
 17 44  1  0  0  0  0
 18 23  1  0  0  0  0
 18 19  2  0  0  0  0
 19 20  1  0  0  0  0
 19 45  1  0  0  0  0
 20 21  2  0  0  0  0
 20 46  1  0  0  0  0
 21 22  1  0  0  0  0
 21 47  1  0  0  0  0
 22 23  2  0  0  0  0
 22 48  1  0  0  0  0
 24 25  2  0  0  0  0
M  CHG  1   8  -1
M  END
> <s_m_source_file>
AV-unprocessed.smi

> <i_m_source_file_index>
2973

> <i_lp_mmshare_version>
43012

> <i_f3d_flags>
0

> <s_epik_input>
W0NIMl0xW0NIMl1bQ0gyXVtDSDJdW0NAQEhdKFtDSDNdKVtDQF0xMltOSF1DKD1PKU4oQzI9TylbQ0gyXUMoPU8pW05IXVtDSDJdW0NIMl1jM1tjSF1bY0hdW2NIXVtjSF1uMw==

> <s_epik_cmdline>
J2VwaWtfcHl0aG9uJywgJy1waCcsICc3LjAnLCAnLXRuJywgJzgnLCAnLW1hJywgJzIwMCcsICctbWV0YWxfYmluZGluZycsICctaW1hZScsICc8aW5maWxlLm1hZT4nLCAnLW9tYWUnLCAnPG91dGZpbGUubWFlPic=

> <r_lp_tautomer_probability>
1

> <r_epik_Ionization_Penalty>
6.04175

> <r_epik_Ionization_Penalty_Charging>
6.01728

> <r_epik_Ionization_Penalty_Neutral>
0.0244696

> <r_epik_State_Penalty>
6.03712

> <r_epik_Charging_Adjusted_Penalty>
12.0544

> <i_epik_Tot_Q>
-1

> <i_epik_Tot_abs_Q>
1

> <r_epik_Metal_State_Penalty>
2.01153

> <b_epik_Metal_Only>
1

> <s_lp_Force_Field>
OPLS_2005

> <r_lp_Energy>
9.40787

> <b_lp_Chiralities_Consistent>
1

> <s_lp_Variant>
AV-unprocessed.smi:2973-12

> <Gold.Version>
5.8.1

> <Gold.Id.Protein>
6NUR|6NUR_protein|mol2

> <Gold.PLP.Fitness>
45.0313

> <Gold.PLP.PLP>
-40.1467

> <Gold.PLP.part.hbond>
-3.1091

> <Gold.PLP.part.metal>
0.0000

> <Gold.PLP.part.buried>
-6.8416

> <Gold.PLP.part.nonpolar>
-31.3243

> <Gold.PLP.part.repulsive>
0.2291

> <Gold.PLP.ligand.clash>
0.0000

> <Gold.PLP.ligand.torsion>
0.5644

> <Gold.PLP.Chemscore.Hbond>
2.0000

> <Gold.PLP.Chemscore.CHOScore>
0.0000

> <Gold.PLP.Chemscore.Metal>
0.0000

> <Gold.Chemscore.Hbonds>
donor molecule, donor type, donor heavy atom, donor atom, acceptor molecule, acceptor atom, score
      P1  H  7997  8009       L1    14  1.00
      P1  H 10752 10765       L1    10  0.95

> <Gold.PLP.Chemscore.Internal.Correction>
0.0134

> <Gold.Rescore>
     Score         DG    S(hbond)    S(metal)    S(lipo)     H(rot)  DE(clash)    DE(int)     intcor
     17.39     -18.15       1.96        0.00      92.07       1.81       0.14       0.63       ----

> <Gold.Chemscore.Fitness>
17.3866

> <Gold.Chemscore.DG>
-18.1541

> <Gold.Chemscore.ZeroCoef>
-5.4800

> <Gold.Chemscore.Hbond>
1.9561

> <Gold.Chemscore.Metal>
0.0000

> <Gold.Chemscore.Lipo>
92.0660

> <Gold.Chemscore.Internal_Hbond>
0.0000

> <Gold.Chemscore.DEClash>
0.1395

> <Gold.Chemscore.DEInternal>
0.6279

> <Gold.Chemscore.Rot>
1.8090

> <Gold.Chemscore.Internal.Correction>
   9.000000E+99

> <Gold.Chemscore.Hbonds>
donor molecule, donor type, donor heavy atom, donor atom, acceptor molecule, acceptor atom, score
      P1  H  7997  8009       L1    14  0.97
      P1  H 10752 10765       L1    10  0.21

> <Gold.Chemscore.Hbond.Weighted>
-6.5333

> <Gold.Chemscore.Metal.Weighted>
-0.0000

> <Gold.Chemscore.Lipo.Weighted>
-10.7717

> <Gold.Chemscore.Internal_Hbond.Weighted>
0.0000

> <Gold.Chemscore.DEClash.Weighted>
0.1395

> <Gold.Chemscore.DEInternal.Weighted>
0.6279

> <Gold.Chemscore.Rot.Weighted>
4.6310

> <Gold.Chemscore.Internal.Correction.Weighted>
   9.000000E+99

> <Gold.Protein.RotatedTorsions>
[ 6907 6896 6895 6894 ] final   58.58 input  -60.11 | X-H torsion
[ 7974 7965 7964 7962 ] final  -61.47 input  175.53 | X-H torsion
[ 8008 7997 7996 7995 ] final -125.57 input   59.86 | X-H torsion
[ 10167 10162 10161 10158 ] final    6.45 input  -65.29 | X-H torsion
[ 10718 10713 10712 10709 ] final  178.10 input   66.30 | X-H torsion
[ 10763 10752 10751 10750 ] final -126.29 input  -60.55 | X-H torsion
[ 11005 11000 10999 10996 ] final   85.31 input  -57.11 | X-H torsion

> <Gold.Protein.ActiveResidues>
 VAL166  LYS551  ARG553  GLY616  TRP617  ASP618  TYR619  PRO620  LYS621  CYS622 
 ASP623  PHE694  ASN695  SER759  ASP760  ASP761  ALA762  ILE779  LEU786  VAL792 
 PHE793  MET794  SER795  GLU796  ALA797  LYS798  CYS799  TRP800  GLU811  SER814 

> <Gold.Protein.RotatedAtoms>
  152.3837  134.6551  160.0133 H   0  0  0  0  0  0  0  0  0  0  0  0  # atno 6907 bound_to 6896
  151.6806  133.3306  159.3226 H   0  0  0  0  0  0  0  0  0  0  0  0  # atno 6908 bound_to 6896
  150.7768  134.6720  159.6441 H   0  0  0  0  0  0  0  0  0  0  0  0  # atno 6909 bound_to 6896
  145.8030  140.8644  143.0221 H   0  0  0  0  0  0  0  0  0  0  0  0  # atno 7974 bound_to 7965
  155.2155  140.0420  157.2940 H   0  0  0  0  0  0  0  0  0  0  0  0  # atno 8008 bound_to 7997
  154.5984  140.2445  155.7797 H   0  0  0  0  0  0  0  0  0  0  0  0  # atno 8009 bound_to 7997
  156.2305  140.2940  156.0185 H   0  0  0  0  0  0  0  0  0  0  0  0  # atno 8010 bound_to 7997
  140.6427  143.7737  150.7451 H   0  0  0  0  0  0  0  0  0  0  0  0  # atno 10167 bound_to 10162
  156.8955  130.9861  151.3043 H   0  0  0  0  0  0  0  0  0  0  0  0  # atno 10718 bound_to 10713
  154.8744  135.4000  154.3407 H   0  0  0  0  0  0  0  0  0  0  0  0  # atno 10763 bound_to 10752
  153.4206  135.7023  153.6302 H   0  0  0  0  0  0  0  0  0  0  0  0  # atno 10764 bound_to 10752
  153.4965  135.3737  155.2488 H   0  0  0  0  0  0  0  0  0  0  0  0  # atno 10765 bound_to 10752
  139.8975  134.8277  156.2564 H   0  0  0  0  0  0  0  0  0  0  0  0  # atno 11005 bound_to 11000
  144.6766  140.0286  143.7483 LP  0  0  0  0  0  0  0  0  0  0  0  0  # atno 17320 bound_to 7965
  145.9857  139.2976  143.1015 LP  0  0  0  0  0  0  0  0  0  0  0  0  # atno 17321 bound_to 7965
  140.1371  143.4474  152.2217 LP  0  0  0  0  0  0  0  0  0  0  0  0  # atno 17342 bound_to 10162
  139.5636  144.7421  151.4085 LP  0  0  0  0  0  0  0  0  0  0  0  0  # atno 17343 bound_to 10162
  157.6058  130.8546  149.8873 LP  0  0  0  0  0  0  0  0  0  0  0  0  # atno 17370 bound_to 10713
  156.0608  130.3700  150.0987 LP  0  0  0  0  0  0  0  0  0  0  0  0  # atno 17371 bound_to 10713
  141.0191  133.7052  156.1237 LP  0  0  0  0  0  0  0  0  0  0  0  0  # atno 17394 bound_to 11000
  140.7260  134.4307  157.5570 LP  0  0  0  0  0  0  0  0  0  0  0  0  # atno 17395 bound_to 11000

$$$$
