AV-unprocessed.smi:148|AV-procd|sdf|1222|dock6
  -GOLD-   2262018413D 1   1.00000     0.00000
 Structure written by MMmdl.
 63 67  0  0  0  0  0  0  0  0  1 V2000
  140.4550  135.5142  154.1162 O   0  0  0  0  0  0  0  0  0  0  0  0
  141.7803  136.0012  154.0765 C   0  0  0  0  0  0  0  0  0  0  0  0
  142.7921  134.8519  153.8469 C   0  0  2  0  0  0  0  0  0  0  0  0
  144.0633  134.9937  154.7284 C   0  0  0  0  0  0  0  0  0  0  0  0
  143.7592  135.1515  156.1390 N   0  0  0  0  0  0  0  0  0  0  0  0
  143.2118  136.2600  156.7461 C   0  0  0  0  0  0  0  0  0  0  0  0
  143.0080  136.1477  158.0304 N   0  0  0  0  0  0  0  0  0  0  0  0
  143.4603  134.8693  158.3287 C   0  0  0  0  0  0  0  0  0  0  0  0
  143.5055  134.0922  159.5147 C   0  0  0  0  0  0  0  0  0  0  0  0
  143.0345  134.5617  160.6895 N   0  0  0  0  0  0  0  0  0  0  0  0
  141.5872  134.7684  160.6066 C   0  0  0  0  0  0  0  0  0  0  0  0
  140.9749  134.9848  161.9937 C   0  0  0  0  0  0  0  0  0  0  0  0
  141.6758  136.1498  162.6938 C   0  0  0  0  0  0  0  0  0  0  0  0
  143.1873  135.8929  162.7494 C   0  0  0  0  0  0  0  0  0  0  0  0
  143.8063  135.6377  161.3470 C   0  0  1  0  0  0  0  0  0  0  0  0
  145.3434  135.3427  161.4717 C   0  0  1  0  0  0  0  0  0  0  0  0
  146.1476  136.2100  162.4672 C   0  0  0  0  0  0  0  0  0  0  0  0
  147.3959  135.4064  162.8594 C   0  0  0  0  0  0  0  0  0  0  0  0
  147.2066  134.0075  162.2667 C   0  0  0  0  0  0  0  0  0  0  0  0
  145.7196  133.9147  161.9222 C   0  0  1  0  0  0  0  0  0  0  0  0
  145.0125  133.5367  163.0907 O   0  0  0  0  0  0  0  0  0  0  0  0
  144.0305  132.8404  159.4416 N   0  0  0  0  0  0  0  0  0  0  0  0
  144.4725  132.3738  158.2693 C   0  0  0  0  0  0  0  0  0  0  0  0
  144.4760  132.9768  157.0776 N   0  0  0  0  0  0  0  0  0  0  0  0
  143.9524  134.2342  157.1560 C   0  0  0  0  0  0  0  0  0  0  0  0
  143.1143  134.6480  152.3395 C   0  0  1  0  0  0  0  0  0  0  0  0
  143.9243  135.7727  151.6866 C   0  0  0  0  0  0  0  0  0  0  0  0
  145.0567  135.0462  150.9649 C   0  0  0  0  0  0  0  0  0  0  0  0
  145.2334  133.8680  151.7324 O   0  0  0  0  0  0  0  0  0  0  0  0
  143.9341  133.3851  152.0335 C   0  0  0  0  0  0  0  0  0  0  0  0
  139.8792  136.2249  154.3543 H   0  0  0  0  0  0  0  0  0  0  0  0
  141.8635  136.7600  153.2983 H   0  0  0  0  0  0  0  0  0  0  0  0
  141.9599  136.5023  155.0275 H   0  0  0  0  0  0  0  0  0  0  0  0
  142.2940  133.9384  154.1757 H   0  0  0  0  0  0  0  0  0  0  0  0
  144.7071  134.1199  154.6294 H   0  0  0  0  0  0  0  0  0  0  0  0
  144.6622  135.8492  154.4188 H   0  0  0  0  0  0  0  0  0  0  0  0
  142.9524  137.1554  156.2000 H   0  0  0  0  0  0  0  0  0  0  0  0
  141.3782  135.6338  159.9759 H   0  0  0  0  0  0  0  0  0  0  0  0
  141.1126  133.9074  160.1328 H   0  0  0  0  0  0  0  0  0  0  0  0
  139.9065  135.1840  161.9064 H   0  0  0  0  0  0  0  0  0  0  0  0
  141.0781  134.0770  162.5894 H   0  0  0  0  0  0  0  0  0  0  0  0
  141.4783  137.0789  162.1577 H   0  0  0  0  0  0  0  0  0  0  0  0
  141.2781  136.2774  163.7010 H   0  0  0  0  0  0  0  0  0  0  0  0
  143.6488  136.7506  163.2358 H   0  0  0  0  0  0  0  0  0  0  0  0
  143.3810  135.0339  163.3938 H   0  0  0  0  0  0  0  0  0  0  0  0
  143.6762  136.5445  160.7546 H   0  0  0  0  0  0  0  0  0  0  0  0
  145.7869  135.4816  160.4839 H   0  0  0  0  0  0  0  0  0  0  0  0
  146.4442  137.1709  162.0521 H   0  0  0  0  0  0  0  0  0  0  0  0
  145.5497  136.4087  163.3575 H   0  0  0  0  0  0  0  0  0  0  0  0
  148.3061  135.8685  162.4754 H   0  0  0  0  0  0  0  0  0  0  0  0
  147.4864  135.3592  163.9451 H   0  0  0  0  0  0  0  0  0  0  0  0
  147.7920  133.9265  161.3499 H   0  0  0  0  0  0  0  0  0  0  0  0
  147.5434  133.2147  162.9361 H   0  0  0  0  0  0  0  0  0  0  0  0
  145.5449  133.1735  161.1418 H   0  0  0  0  0  0  0  0  0  0  0  0
  144.7738  132.6255  163.0157 H   0  0  0  0  0  0  0  0  0  0  0  0
  144.8733  131.3713  158.2874 H   0  0  0  0  0  0  0  0  0  0  0  0
  142.1703  134.5453  151.8030 H   0  0  0  0  0  0  0  0  0  0  0  0
  143.3245  136.3695  150.9990 H   0  0  0  0  0  0  0  0  0  0  0  0
  144.3391  136.4572  152.4248 H   0  0  0  0  0  0  0  0  0  0  0  0
  144.7637  134.7795  149.9482 H   0  0  0  0  0  0  0  0  0  0  0  0
  145.9718  135.6367  150.9155 H   0  0  0  0  0  0  0  0  0  0  0  0
  143.9491  132.6611  152.8484 H   0  0  0  0  0  0  0  0  0  0  0  0
  143.5362  132.8776  151.1532 H   0  0  0  0  0  0  0  0  0  0  0  0
  1  2  1  0  0  0  0
  1 31  1  0  0  0  0
  2  3  1  0  0  0  0
  2 32  1  0  0  0  0
  2 33  1  0  0  0  0
  3  4  1  0  0  0  0
  3 26  1  0  0  0  0
  3 34  1  0  0  0  0
  4  5  1  0  0  0  0
  4 35  1  0  0  0  0
  4 36  1  0  0  0  0
  5 25  1  0  0  0  0
  5  6  1  0  0  0  0
  6  7  2  0  0  0  0
  6 37  1  0  0  0  0
  7  8  1  0  0  0  0
  8 25  2  0  0  0  0
  8  9  1  0  0  0  0
  9 10  1  0  0  0  0
  9 22  2  0  0  0  0
 10 15  1  0  0  0  0
 10 11  1  0  0  0  0
 11 12  1  0  0  0  0
 11 38  1  0  0  0  0
 11 39  1  0  0  0  0
 12 13  1  0  0  0  0
 12 40  1  0  0  0  0
 12 41  1  0  0  0  0
 13 14  1  0  0  0  0
 13 42  1  0  0  0  0
 13 43  1  0  0  0  0
 14 15  1  0  0  0  0
 14 44  1  0  0  0  0
 14 45  1  0  0  0  0
 15 16  1  0  0  0  0
 15 46  1  0  0  0  0
 16 20  1  0  0  0  0
 16 17  1  0  0  0  0
 16 47  1  0  0  0  0
 17 18  1  0  0  0  0
 17 48  1  0  0  0  0
 17 49  1  0  0  0  0
 18 19  1  0  0  0  0
 18 50  1  0  0  0  0
 18 51  1  0  0  0  0
 19 20  1  0  0  0  0
 19 52  1  0  0  0  0
 19 53  1  0  0  0  0
 20 21  1  0  0  0  0
 20 54  1  0  0  0  0
 21 55  1  0  0  0  0
 22 23  1  0  0  0  0
 23 24  2  0  0  0  0
 23 56  1  0  0  0  0
 24 25  1  0  0  0  0
 26 30  1  0  0  0  0
 26 27  1  0  0  0  0
 26 57  1  0  0  0  0
 27 28  1  0  0  0  0
 27 58  1  0  0  0  0
 27 59  1  0  0  0  0
 28 29  1  0  0  0  0
 28 60  1  0  0  0  0
 28 61  1  0  0  0  0
 29 30  1  0  0  0  0
 30 62  1  0  0  0  0
 30 63  1  0  0  0  0
M  END
> <s_m_source_file>
AV-unprocessed.smi

> <i_m_source_file_index>
148

> <i_lp_mmshare_version>
43012

> <i_f3d_flags>
0

> <s_epik_input>
W0NIMl0xT1tDSDJdW0NIMl1bQ0BIXTFbQ0BIXShbQ0gyXVtPSF0pW0NIMl1uKFtjSF1uMiljKGMyMyluW2NIXW5jM040W0NIMl1bQ0gyXVtDSDJdW0NIMl1bQ0BIXTRbQ0BASF01W0NIMl1bQ0gyXVtDSDJdW0NASF01W09IXQ==

> <s_epik_cmdline>
J2VwaWtfcHl0aG9uJywgJy1waCcsICc3LjAnLCAnLXRuJywgJzgnLCAnLW1hJywgJzIwMCcsICctbWV0YWxfYmluZGluZycsICctaW1hZScsICc8aW5maWxlLm1hZT4nLCAnLW9tYWUnLCAnPG91dGZpbGUubWFlPic=

> <r_lp_tautomer_probability>
1

> <r_epik_Ionization_Penalty>
0.00556303

> <r_epik_Ionization_Penalty_Charging>
0

> <r_epik_Ionization_Penalty_Neutral>
0.00556303

> <r_epik_State_Penalty>
0.00401767

> <r_epik_Charging_Adjusted_Penalty>
0.00401767

> <i_epik_Tot_Q>
0

> <i_epik_Tot_abs_Q>
0

> <r_epik_Metal_State_Penalty>
-0

> <b_epik_Metal_Only>
0

> <s_lp_Force_Field>
OPLS_2005

> <r_lp_Energy>
71.6968

> <b_lp_Chiralities_Consistent>
1

> <s_lp_Variant>
AV-unprocessed.smi:148-21

> <Gold.Version>
5.8.1

> <Gold.Id.Protein>
6NUR|6NUR_protein|mol2

> <Gold.PLP.Fitness>
43.0004

> <Gold.PLP.PLP>
-41.5232

> <Gold.PLP.part.hbond>
-1.9049

> <Gold.PLP.part.metal>
0.0000

> <Gold.PLP.part.buried>
-8.1202

> <Gold.PLP.part.nonpolar>
-31.2274

> <Gold.PLP.part.repulsive>
0.3364

> <Gold.PLP.ligand.clash>
0.0030

> <Gold.PLP.ligand.torsion>
1.1009

> <Gold.PLP.Chemscore.Hbond>
1.0000

> <Gold.PLP.Chemscore.CHOScore>
0.0000

> <Gold.PLP.Chemscore.Metal>
0.0000

> <Gold.Chemscore.Hbonds>
donor molecule, donor type, donor heavy atom, donor atom, acceptor molecule, acceptor atom, score
      P1  H 11000 11005       L1     1  0.95

> <Gold.PLP.Chemscore.Internal.Correction>
0.6821

> <Gold.Rescore>
     Score         DG    S(hbond)    S(metal)    S(lipo)     H(rot)  DE(clash)    DE(int)     intcor
      8.87     -10.55       0.79        0.00      93.34       3.32       0.14       1.55       ----

> <Gold.Chemscore.Fitness>
8.8667

> <Gold.Chemscore.DG>
-10.5493

> <Gold.Chemscore.ZeroCoef>
-5.4800

> <Gold.Chemscore.Hbond>
0.7930

> <Gold.Chemscore.Metal>
0.0000

> <Gold.Chemscore.Lipo>
93.3385

> <Gold.Chemscore.Internal_Hbond>
0.0000

> <Gold.Chemscore.DEClash>
0.1367

> <Gold.Chemscore.DEInternal>
1.5458

> <Gold.Chemscore.Rot>
3.3203

> <Gold.Chemscore.Internal.Correction>
   9.000000E+99

> <Gold.Chemscore.Hbonds>
donor molecule, donor type, donor heavy atom, donor atom, acceptor molecule, acceptor atom, score
      P1  H 11000 11005       L1     1  0.14

> <Gold.Chemscore.Hbond.Weighted>
-2.6487

> <Gold.Chemscore.Metal.Weighted>
-0.0000

> <Gold.Chemscore.Lipo.Weighted>
-10.9206

> <Gold.Chemscore.Internal_Hbond.Weighted>
0.0000

> <Gold.Chemscore.DEClash.Weighted>
0.1367

> <Gold.Chemscore.DEInternal.Weighted>
1.5458

> <Gold.Chemscore.Rot.Weighted>
8.5000

> <Gold.Chemscore.Internal.Correction.Weighted>
   9.000000E+99

> <Gold.Protein.RotatedTorsions>
[ 6907 6896 6895 6894 ] final -127.98 input  -60.11 | X-H torsion
[ 7974 7965 7964 7962 ] final  -96.80 input  175.53 | X-H torsion
[ 8008 7997 7996 7995 ] final  -82.93 input   59.86 | X-H torsion
[ 10167 10162 10161 10158 ] final  -36.34 input  -65.29 | X-H torsion
[ 10718 10713 10712 10709 ] final    9.57 input   66.30 | X-H torsion
[ 10763 10752 10751 10750 ] final   45.81 input  -60.55 | X-H torsion
[ 11005 11000 10999 10996 ] final   35.23 input  -57.11 | X-H torsion

> <Gold.Protein.ActiveResidues>
 VAL166  LYS551  ARG553  GLY616  TRP617  ASP618  TYR619  PRO620  LYS621  CYS622 
 ASP623  PHE694  ASN695  SER759  ASP760  ASP761  ALA762  ILE779  LEU786  VAL792 
 PHE793  MET794  SER795  GLU796  ALA797  LYS798  CYS799  TRP800  GLU811  SER814 

> <Gold.Protein.RotatedAtoms>
  150.9130  133.6974  159.2849 H   0  0  0  0  0  0  0  0  0  0  0  0  # atno 6907 bound_to 6896
  151.4454  135.1023  159.9692 H   0  0  0  0  0  0  0  0  0  0  0  0  # atno 6908 bound_to 6896
  152.4940  133.8529  159.7266 H   0  0  0  0  0  0  0  0  0  0  0  0  # atno 6909 bound_to 6896
  145.3421  140.9461  143.2602 H   0  0  0  0  0  0  0  0  0  0  0  0  # atno 7974 bound_to 7965
  154.6138  140.0626  156.9527 H   0  0  0  0  0  0  0  0  0  0  0  0  # atno 8008 bound_to 7997
  155.1930  140.3308  155.4337 H   0  0  0  0  0  0  0  0  0  0  0  0  # atno 8009 bound_to 7997
  156.2392  140.1878  156.7019 H   0  0  0  0  0  0  0  0  0  0  0  0  # atno 8010 bound_to 7997
  140.7145  143.3416  151.2346 H   0  0  0  0  0  0  0  0  0  0  0  0  # atno 10167 bound_to 10162
  156.9683  130.5959  149.5667 H   0  0  0  0  0  0  0  0  0  0  0  0  # atno 10718 bound_to 10713
  152.9819  135.6028  154.3498 H   0  0  0  0  0  0  0  0  0  0  0  0  # atno 10763 bound_to 10752
  154.3188  135.2770  155.2531 H   0  0  0  0  0  0  0  0  0  0  0  0  # atno 10764 bound_to 10752
  154.4707  135.5942  153.6376 H   0  0  0  0  0  0  0  0  0  0  0  0  # atno 10765 bound_to 10752
  140.2448  134.3373  155.7912 H   0  0  0  0  0  0  0  0  0  0  0  0  # atno 11005 bound_to 11000
  144.8782  139.4941  143.6735 LP  0  0  0  0  0  0  0  0  0  0  0  0  # atno 17320 bound_to 7965
  146.3003  139.7406  142.9096 LP  0  0  0  0  0  0  0  0  0  0  0  0  # atno 17321 bound_to 7965
  139.6924  143.9669  152.2866 LP  0  0  0  0  0  0  0  0  0  0  0  0  # atno 17342 bound_to 10162
  139.9335  144.6726  150.8338 LP  0  0  0  0  0  0  0  0  0  0  0  0  # atno 17343 bound_to 10162
  156.0293  130.5385  150.8492 LP  0  0  0  0  0  0  0  0  0  0  0  0  # atno 17370 bound_to 10713
  157.5610  131.0946  150.9559 LP  0  0  0  0  0  0  0  0  0  0  0  0  # atno 17371 bound_to 10713
  141.2207  133.7319  156.8942 LP  0  0  0  0  0  0  0  0  0  0  0  0  # atno 17394 bound_to 11000
  140.1617  134.9161  157.2723 LP  0  0  0  0  0  0  0  0  0  0  0  0  # atno 17395 bound_to 11000

$$$$
