AV-unprocessed.smi:1348|AV-procd|sdf|5517|dock1
  -GOLD-   22720 5103D 1   1.00000     0.00000
 Structure written by MMmdl.
 31 32  0  0  0  0  0  0  0  0  1 V2000
  153.6774  141.1030  160.9308 C   0  0  0  0  0  0  0  0  0  0  0  0
  153.3963  142.6052  160.7808 C   0  0  0  0  0  0  0  0  0  0  0  0
  152.7484  143.2243  162.0275 C   0  0  0  0  0  0  0  0  0  0  0  0
  152.6251  142.9090  159.5351 C   0  0  0  0  0  0  0  0  0  0  0  0
  151.9139  141.9982  158.8641 N   0  0  0  0  0  0  0  0  0  0  0  0
  151.3027  142.5224  157.7202 C   0  0  0  0  0  0  0  0  0  0  0  0
  150.4812  141.6310  156.8339 C   0  0  0  0  0  0  0  0  0  0  0  0
  151.3360  140.4805  156.2976 C   0  0  0  0  0  0  0  0  0  0  0  0
  152.3996  140.1961  156.8483 O   0  0  0  0  0  0  0  0  0  0  0  0
  150.8590  139.8327  155.2237 N   0  0  0  0  0  0  0  0  0  0  0  0
  151.4808  138.7248  154.5756 C   0  0  0  0  0  0  0  0  0  0  0  0
  150.6994  137.4313  154.4917 C   0  0  0  0  0  0  0  0  0  0  0  0
  151.8667  137.5395  155.4336 C   0  0  0  0  0  0  0  0  0  0  0  0
  151.5485  143.8614  157.5432 C   0  0  0  0  0  0  0  0  0  0  0  0
  152.5697  144.5068  158.7984 S   0  0  0  0  0  0  0  0  0  0  0  0
  154.2115  140.7155  160.0627 H   0  0  0  0  0  0  0  0  0  0  0  0
  152.7526  140.5346  161.0338 H   0  0  0  0  0  0  0  0  0  0  0  0
  154.2894  140.9042  161.8109 H   0  0  0  0  0  0  0  0  0  0  0  0
  154.3668  143.0892  160.6662 H   0  0  0  0  0  0  0  0  0  0  0  0
  152.6401  144.3036  161.9177 H   0  0  0  0  0  0  0  0  0  0  0  0
  153.3530  143.0417  162.9161 H   0  0  0  0  0  0  0  0  0  0  0  0
  151.7577  142.8064  162.2087 H   0  0  0  0  0  0  0  0  0  0  0  0
  149.6278  141.2214  157.3758 H   0  0  0  0  0  0  0  0  0  0  0  0
  150.0707  142.1973  155.9968 H   0  0  0  0  0  0  0  0  0  0  0  0
  149.9740  140.1403  154.8464 H   0  0  0  0  0  0  0  0  0  0  0  0
  152.1377  138.9413  153.7342 H   0  0  0  0  0  0  0  0  0  0  0  0
  149.7030  137.4078  154.9288 H   0  0  0  0  0  0  0  0  0  0  0  0
  150.8301  136.8238  153.5983 H   0  0  0  0  0  0  0  0  0  0  0  0
  152.7770  137.0053  155.1692 H   0  0  0  0  0  0  0  0  0  0  0  0
  151.6497  137.5905  156.4991 H   0  0  0  0  0  0  0  0  0  0  0  0
  151.1975  144.5031  156.7486 H   0  0  0  0  0  0  0  0  0  0  0  0
  1  2  1  0  0  0  0
  1 16  1  0  0  0  0
  1 17  1  0  0  0  0
  1 18  1  0  0  0  0
  2  3  1  0  0  0  0
  2  4  1  0  0  0  0
  2 19  1  0  0  0  0
  3 20  1  0  0  0  0
  3 21  1  0  0  0  0
  3 22  1  0  0  0  0
  4 15  1  0  0  0  0
  4  5  2  0  0  0  0
  5  6  1  0  0  0  0
  6  7  1  0  0  0  0
  6 14  2  0  0  0  0
  7  8  1  0  0  0  0
  7 23  1  0  0  0  0
  7 24  1  0  0  0  0
  8  9  2  0  0  0  0
  8 10  1  0  0  0  0
 10 11  1  0  0  0  0
 10 25  1  0  0  0  0
 11 13  1  0  0  0  0
 11 12  1  0  0  0  0
 11 26  1  0  0  0  0
 12 13  1  0  0  0  0
 12 27  1  0  0  0  0
 12 28  1  0  0  0  0
 13 29  1  0  0  0  0
 13 30  1  0  0  0  0
 14 15  1  0  0  0  0
 14 31  1  0  0  0  0
M  END
> <s_m_source_file>
AV-unprocessed.smi

> <i_m_source_file_index>
1348

> <i_lp_mmshare_version>
43012

> <i_f3d_flags>
0

> <s_epik_input>
W0NIM11bQ0hdKFtDSDNdKWMxbmMoW2NIXXMxKVtDSDJdQyg9TylbTkhdW0NIXTJbQ0gyXVtDSDJdMg==

> <s_epik_cmdline>
J2VwaWtfcHl0aG9uJywgJy1waCcsICc3LjAnLCAnLXRuJywgJzgnLCAnLW1hJywgJzIwMCcsICctbWV0YWxfYmluZGluZycsICctaW1hZScsICc8aW5maWxlLm1hZT4nLCAnLW9tYWUnLCAnPG91dGZpbGUubWFlPic=

> <r_lp_tautomer_probability>
1

> <r_epik_Ionization_Penalty>
4.24015e-05

> <r_epik_Ionization_Penalty_Charging>
0

> <r_epik_Ionization_Penalty_Neutral>
4.24015e-05

> <r_epik_State_Penalty>
-0

> <r_epik_Charging_Adjusted_Penalty>
0

> <i_epik_Tot_Q>
0

> <i_epik_Tot_abs_Q>
0

> <r_epik_Metal_State_Penalty>
-0

> <b_epik_Metal_Only>
0

> <s_lp_Force_Field>
OPLS_2005

> <r_lp_Energy>
6.98318

> <b_lp_Chiralities_Consistent>
1

> <s_lp_Variant>
AV-unprocessed.smi:1348-1

> <Gold.Version>
5.8.1

> <Gold.Id.Protein>
6NUR|6NUR_protein|mol2

> <Gold.PLP.Fitness>
44.2009

> <Gold.PLP.PLP>
-39.3959

> <Gold.PLP.part.hbond>
-1.0000

> <Gold.PLP.part.metal>
0.0000

> <Gold.PLP.part.buried>
-3.1657

> <Gold.PLP.part.nonpolar>
-35.3291

> <Gold.PLP.part.repulsive>
0.3266

> <Gold.PLP.ligand.clash>
0.0000

> <Gold.PLP.ligand.torsion>
0.6617

> <Gold.PLP.Chemscore.Hbond>
1.0000

> <Gold.PLP.Chemscore.CHOScore>
1.0000

> <Gold.PLP.Chemscore.Metal>
0.0000

> <Gold.Chemscore.Hbonds>
donor molecule, donor type, donor heavy atom, donor atom, acceptor molecule, acceptor atom, score
      P1  H  7997  8010       L1     9  1.00
      L1  C    14    31       P1  8028  1.00

> <Gold.PLP.Chemscore.Internal.Correction>
0.1283

> <Gold.Rescore>
     Score         DG    S(hbond)    S(metal)    S(lipo)     H(rot)  DE(clash)    DE(int)     intcor
     16.08     -17.92       0.98        0.00     110.00       1.44       0.06       1.78       ----

> <Gold.Chemscore.Fitness>
16.0788

> <Gold.Chemscore.DG>
-17.9229

> <Gold.Chemscore.ZeroCoef>
-5.4800

> <Gold.Chemscore.Hbond>
0.9750

> <Gold.Chemscore.Metal>
0.0000

> <Gold.Chemscore.Lipo>
110.0014

> <Gold.Chemscore.Internal_Hbond>
0.0000

> <Gold.Chemscore.DEClash>
0.0601

> <Gold.Chemscore.DEInternal>
1.7840

> <Gold.Chemscore.Rot>
1.4390

> <Gold.Chemscore.Internal.Correction>
   9.000000E+99

> <Gold.Chemscore.Hbonds>
donor molecule, donor type, donor heavy atom, donor atom, acceptor molecule, acceptor atom, score
      P1  H  7997  8010       L1     9  0.92

> <Gold.Chemscore.Hbond.Weighted>
-3.2565

> <Gold.Chemscore.Metal.Weighted>
-0.0000

> <Gold.Chemscore.Lipo.Weighted>
-12.8702

> <Gold.Chemscore.Internal_Hbond.Weighted>
0.0000

> <Gold.Chemscore.DEClash.Weighted>
0.0601

> <Gold.Chemscore.DEInternal.Weighted>
1.7840

> <Gold.Chemscore.Rot.Weighted>
3.6838

> <Gold.Chemscore.Internal.Correction.Weighted>
   9.000000E+99

> <Gold.Protein.RotatedTorsions>
[ 6907 6896 6895 6894 ] final  -41.30 input  -60.11 | X-H torsion
[ 7974 7965 7964 7962 ] final  -25.00 input  175.53 | X-H torsion
[ 8008 7997 7996 7995 ] final   76.08 input   59.86 | X-H torsion
[ 10167 10162 10161 10158 ] final  152.22 input  -65.29 | X-H torsion
[ 10718 10713 10712 10709 ] final  -27.49 input   66.30 | X-H torsion
[ 10763 10752 10751 10750 ] final -135.78 input  -60.55 | X-H torsion
[ 11005 11000 10999 10996 ] final   40.59 input  -57.11 | X-H torsion

> <Gold.Protein.ActiveResidues>
 VAL166  LYS551  ARG553  GLY616  TRP617  ASP618  TYR619  PRO620  LYS621  CYS622 
 ASP623  PHE694  ASN695  SER759  ASP760  ASP761  ALA762  ILE779  LEU786  VAL792 
 PHE793  MET794  SER795  GLU796  ALA797  LYS798  CYS799  TRP800  GLU811  SER814 

> <Gold.Protein.RotatedAtoms>
  150.9683  134.9060  159.7772 H   0  0  0  0  0  0  0  0  0  0  0  0  # atno 6907 bound_to 6896
  152.5181  134.3576  159.9283 H   0  0  0  0  0  0  0  0  0  0  0  0  # atno 6908 bound_to 6896
  151.3586  133.3857  159.2722 H   0  0  0  0  0  0  0  0  0  0  0  0  # atno 6909 bound_to 6896
  146.1519  140.4828  142.8608 H   0  0  0  0  0  0  0  0  0  0  0  0  # atno 7974 bound_to 7965
  155.8222  140.3469  155.5521 H   0  0  0  0  0  0  0  0  0  0  0  0  # atno 8008 bound_to 7997
  155.8330  140.0930  157.1801 H   0  0  0  0  0  0  0  0  0  0  0  0  # atno 8009 bound_to 7997
  154.4004  140.1409  156.3624 H   0  0  0  0  0  0  0  0  0  0  0  0  # atno 8010 bound_to 7997
  139.4834  144.5376  151.7619 H   0  0  0  0  0  0  0  0  0  0  0  0  # atno 10167 bound_to 10162
  156.4374  130.4457  149.7076 H   0  0  0  0  0  0  0  0  0  0  0  0  # atno 10718 bound_to 10713
  154.8696  135.3693  154.4954 H   0  0  0  0  0  0  0  0  0  0  0  0  # atno 10763 bound_to 10752
  153.5598  135.7023  153.5557 H   0  0  0  0  0  0  0  0  0  0  0  0  # atno 10764 bound_to 10752
  153.3638  135.4039  155.1701 H   0  0  0  0  0  0  0  0  0  0  0  0  # atno 10765 bound_to 10752
  140.1916  134.3980  155.8143 H   0  0  0  0  0  0  0  0  0  0  0  0  # atno 11005 bound_to 11000
  144.7914  140.6040  143.6539 LP  0  0  0  0  0  0  0  0  0  0  0  0  # atno 17320 bound_to 7965
  145.4803  139.1496  143.3766 LP  0  0  0  0  0  0  0  0  0  0  0  0  # atno 17321 bound_to 7965
  140.4911  144.1309  150.5950 LP  0  0  0  0  0  0  0  0  0  0  0  0  # atno 17342 bound_to 10162
  140.4170  143.2629  151.9763 LP  0  0  0  0  0  0  0  0  0  0  0  0  # atno 17343 bound_to 10162
  156.3954  130.7648  151.2652 LP  0  0  0  0  0  0  0  0  0  0  0  0  # atno 17370 bound_to 10713
  157.7507  131.0255  150.3924 LP  0  0  0  0  0  0  0  0  0  0  0  0  # atno 17371 bound_to 10713
  141.2226  133.7049  156.8105 LP  0  0  0  0  0  0  0  0  0  0  0  0  # atno 17394 bound_to 11000
  140.2153  134.8797  157.3319 LP  0  0  0  0  0  0  0  0  0  0  0  0  # atno 17395 bound_to 11000

$$$$
