AV-unprocessed.smi:2130|AV-procd|sdf|8686|dock5
  -GOLD-   2272011443D 1   1.00000     0.00000
 Structure written by MMmdl.
 32 33  0  0  0  0  0  0  0  0  1 V2000
  151.7899  144.7337  159.4164 C   0  0  0  0  0  0  0  0  0  0  0  0
  152.3410  143.3289  159.5909 C   0  0  0  0  0  0  0  0  0  0  0  0
  153.0307  142.8895  160.6488 C   0  0  0  0  0  0  0  0  0  0  0  0
  153.5385  141.2269  160.4806 S   0  0  0  0  0  0  0  0  0  0  0  0
  152.7575  141.1428  158.8606 C   0  0  0  0  0  0  0  0  0  0  0  0
  152.7734  140.1287  158.1648 O   0  0  0  0  0  0  0  0  0  0  0  0
  152.1673  142.3745  158.5787 N   0  0  0  0  0  0  0  0  0  0  0  0
  151.4238  142.6356  157.3390 C   0  0  0  0  0  0  0  0  0  0  0  0
  150.2411  141.6821  157.1232 C   0  0  0  0  0  0  0  0  0  0  0  0
  150.3676  140.4663  157.2757 O   0  0  0  0  0  0  0  0  0  0  0  0
  149.0880  142.2619  156.7566 N   0  0  0  0  0  0  0  0  0  0  0  0
  147.8424  141.5605  156.4636 C   0  0  1  0  0  0  0  0  0  0  0  0
  146.7747  142.0155  157.4679 C   0  0  0  0  0  0  0  0  0  0  0  0
  147.3609  141.7597  155.0359 C   0  0  0  0  0  0  0  0  0  0  0  0
  146.8218  140.6020  154.2290 C   0  0  0  0  0  0  0  0  0  0  0  0
  148.1448  141.2316  153.8575 C   0  0  0  0  0  0  0  0  0  0  0  0
  152.2674  145.4178  160.1186 H   0  0  0  0  0  0  0  0  0  0  0  0
  150.7168  144.7468  159.6078 H   0  0  0  0  0  0  0  0  0  0  0  0
  151.9733  145.1170  158.4127 H   0  0  0  0  0  0  0  0  0  0  0  0
  153.2844  143.4606  161.5297 H   0  0  0  0  0  0  0  0  0  0  0  0
  151.0395  143.6568  157.3521 H   0  0  0  0  0  0  0  0  0  0  0  0
  152.0894  142.5899  156.4767 H   0  0  0  0  0  0  0  0  0  0  0  0
  149.0750  143.2668  156.6592 H   0  0  0  0  0  0  0  0  0  0  0  0
  147.9999  140.4918  156.6217 H   0  0  0  0  0  0  0  0  0  0  0  0
  145.8387  141.4773  157.3165 H   0  0  0  0  0  0  0  0  0  0  0  0
  146.5642  143.0808  157.3691 H   0  0  0  0  0  0  0  0  0  0  0  0
  147.0952  141.8321  158.4940 H   0  0  0  0  0  0  0  0  0  0  0  0
  146.8562  142.7115  154.8789 H   0  0  0  0  0  0  0  0  0  0  0  0
  146.8480  139.6120  154.6802 H   0  0  0  0  0  0  0  0  0  0  0  0
  145.9714  140.7959  153.5786 H   0  0  0  0  0  0  0  0  0  0  0  0
  148.1765  141.8477  152.9612 H   0  0  0  0  0  0  0  0  0  0  0  0
  149.0467  140.6576  154.0606 H   0  0  0  0  0  0  0  0  0  0  0  0
  1  2  1  0  0  0  0
  1 17  1  0  0  0  0
  1 18  1  0  0  0  0
  1 19  1  0  0  0  0
  2  7  1  0  0  0  0
  2  3  2  0  0  0  0
  3  4  1  0  0  0  0
  3 20  1  0  0  0  0
  4  5  1  0  0  0  0
  5  6  2  0  0  0  0
  5  7  1  0  0  0  0
  7  8  1  0  0  0  0
  8  9  1  0  0  0  0
  8 21  1  0  0  0  0
  8 22  1  0  0  0  0
  9 10  2  0  0  0  0
  9 11  1  0  0  0  0
 11 12  1  0  0  0  0
 11 23  1  0  0  0  0
 12 13  1  0  0  0  0
 12 14  1  0  0  0  0
 12 24  1  0  0  0  0
 13 25  1  0  0  0  0
 13 26  1  0  0  0  0
 13 27  1  0  0  0  0
 14 16  1  0  0  0  0
 14 15  1  0  0  0  0
 14 28  1  0  0  0  0
 15 16  1  0  0  0  0
 15 29  1  0  0  0  0
 15 30  1  0  0  0  0
 16 31  1  0  0  0  0
 16 32  1  0  0  0  0
M  END
> <s_m_source_file>
AV-unprocessed.smi

> <i_m_source_file_index>
2130

> <i_lp_mmshare_version>
43012

> <i_f3d_flags>
0

> <s_epik_input>
W0NIM11jMVtjSF1zYyg9TyluMVtDSDJdQyg9TylbTkhdW0NASF0oW0NIM10pW0NIXTJbQ0gyXVtDSDJdMg==

> <s_epik_cmdline>
J2VwaWtfcHl0aG9uJywgJy1waCcsICc3LjAnLCAnLXRuJywgJzgnLCAnLW1hJywgJzIwMCcsICctbWV0YWxfYmluZGluZycsICctaW1hZScsICc8aW5maWxlLm1hZT4nLCAnLW9tYWUnLCAnPG91dGZpbGUubWFlPic=

> <r_lp_tautomer_probability>
1

> <r_epik_Ionization_Penalty>
1.32882e-06

> <r_epik_Ionization_Penalty_Charging>
1.22222e-06

> <r_epik_Ionization_Penalty_Neutral>
1.066e-07

> <r_epik_State_Penalty>
-0

> <r_epik_Charging_Adjusted_Penalty>
1.22222e-06

> <i_epik_Tot_Q>
0

> <i_epik_Tot_abs_Q>
0

> <r_epik_Metal_State_Penalty>
-0

> <b_epik_Metal_Only>
0

> <s_lp_Force_Field>
OPLS_2005

> <r_lp_Energy>
16.4034

> <b_lp_Chiralities_Consistent>
1

> <s_lp_Variant>
AV-unprocessed.smi:2130-2

> <Gold.Version>
5.8.1

> <Gold.Id.Protein>
6NUR|6NUR_protein|mol2

> <Gold.PLP.Fitness>
40.4047

> <Gold.PLP.PLP>
-34.9170

> <Gold.PLP.part.hbond>
-2.0000

> <Gold.PLP.part.metal>
0.0000

> <Gold.PLP.part.buried>
-4.4046

> <Gold.PLP.part.nonpolar>
-28.2020

> <Gold.PLP.part.repulsive>
0.0169

> <Gold.PLP.ligand.clash>
0.0000

> <Gold.PLP.ligand.torsion>
0.7781

> <Gold.PLP.Chemscore.Hbond>
1.9920

> <Gold.PLP.Chemscore.CHOScore>
0.0000

> <Gold.PLP.Chemscore.Metal>
0.0000

> <Gold.Chemscore.Hbonds>
donor molecule, donor type, donor heavy atom, donor atom, acceptor molecule, acceptor atom, score
      L1  H    11    23       P1  8028  1.00
      P1  H  7997  8008       L1     6  0.75

> <Gold.PLP.Chemscore.Internal.Correction>
1.0679

> <Gold.Rescore>
     Score         DG    S(hbond)    S(metal)    S(lipo)     H(rot)  DE(clash)    DE(int)     intcor
     12.92     -16.63       1.81        0.00      78.48       1.59       0.27       3.44       ----

> <Gold.Chemscore.Fitness>
12.9182

> <Gold.Chemscore.DG>
-16.6259

> <Gold.Chemscore.ZeroCoef>
-5.4800

> <Gold.Chemscore.Hbond>
1.8085

> <Gold.Chemscore.Metal>
0.0000

> <Gold.Chemscore.Lipo>
78.4844

> <Gold.Chemscore.Internal_Hbond>
0.0000

> <Gold.Chemscore.DEClash>
0.2669

> <Gold.Chemscore.DEInternal>
3.4408

> <Gold.Chemscore.Rot>
1.5926

> <Gold.Chemscore.Internal.Correction>
   9.000000E+99

> <Gold.Chemscore.Hbonds>
donor molecule, donor type, donor heavy atom, donor atom, acceptor molecule, acceptor atom, score
      L1  H    11    23       P1  8028  0.92
      P1  H  7997  8008       L1     6  0.59

> <Gold.Chemscore.Hbond.Weighted>
-6.0403

> <Gold.Chemscore.Metal.Weighted>
-0.0000

> <Gold.Chemscore.Lipo.Weighted>
-9.1827

> <Gold.Chemscore.Internal_Hbond.Weighted>
0.0000

> <Gold.Chemscore.DEClash.Weighted>
0.2669

> <Gold.Chemscore.DEInternal.Weighted>
3.4408

> <Gold.Chemscore.Rot.Weighted>
4.0771

> <Gold.Chemscore.Internal.Correction.Weighted>
   9.000000E+99

> <Gold.Protein.RotatedTorsions>
[ 6907 6896 6895 6894 ] final  -22.62 input  -60.11 | X-H torsion
[ 7974 7965 7964 7962 ] final  127.07 input  175.53 | X-H torsion
[ 8008 7997 7996 7995 ] final  -75.88 input   59.86 | X-H torsion
[ 10167 10162 10161 10158 ] final  -59.20 input  -65.29 | X-H torsion
[ 10718 10713 10712 10709 ] final  121.77 input   66.30 | X-H torsion
[ 10763 10752 10751 10750 ] final  -23.94 input  -60.55 | X-H torsion
[ 11005 11000 10999 10996 ] final -133.03 input  -57.11 | X-H torsion

> <Gold.Protein.ActiveResidues>
 VAL166  LYS551  ARG553  GLY616  TRP617  ASP618  TYR619  PRO620  LYS621  CYS622 
 ASP623  PHE694  ASN695  SER759  ASP760  ASP761  ALA762  ILE779  LEU786  VAL792 
 PHE793  MET794  SER795  GLU796  ALA797  LYS798  CYS799  TRP800  GLU811  SER814 

> <Gold.Protein.RotatedAtoms>
  151.2159  135.0499  159.8929 H   0  0  0  0  0  0  0  0  0  0  0  0  # atno 6907 bound_to 6896
  152.5420  134.0694  159.8197 H   0  0  0  0  0  0  0  0  0  0  0  0  # atno 6908 bound_to 6896
  151.0853  133.5310  159.2650 H   0  0  0  0  0  0  0  0  0  0  0  0  # atno 6909 bound_to 6896
  145.0547  139.3854  143.5036 H   0  0  0  0  0  0  0  0  0  0  0  0  # atno 7974 bound_to 7965
  154.5455  140.0736  156.8582 H   0  0  0  0  0  0  0  0  0  0  0  0  # atno 8008 bound_to 7997
  155.3095  140.3389  155.4226 H   0  0  0  0  0  0  0  0  0  0  0  0  # atno 8009 bound_to 7997
  156.1914  140.1687  156.8070 H   0  0  0  0  0  0  0  0  0  0  0  0  # atno 8010 bound_to 7997
  140.6150  143.2399  151.5619 H   0  0  0  0  0  0  0  0  0  0  0  0  # atno 10167 bound_to 10162
  157.5792  131.1076  150.8219 H   0  0  0  0  0  0  0  0  0  0  0  0  # atno 10718 bound_to 10713
  153.6758  135.6969  153.5133 H   0  0  0  0  0  0  0  0  0  0  0  0  # atno 10763 bound_to 10752
  153.2523  135.4271  155.0809 H   0  0  0  0  0  0  0  0  0  0  0  0  # atno 10764 bound_to 10752
  154.8414  135.3534  154.6302 H   0  0  0  0  0  0  0  0  0  0  0  0  # atno 10765 bound_to 10752
  140.9117  134.1559  157.4384 H   0  0  0  0  0  0  0  0  0  0  0  0  # atno 11005 bound_to 11000
  146.3520  140.0215  142.8658 LP  0  0  0  0  0  0  0  0  0  0  0  0  # atno 17320 bound_to 7965
  145.1483  140.9609  143.4448 LP  0  0  0  0  0  0  0  0  0  0  0  0  # atno 17321 bound_to 7965
  139.5391  144.2697  152.1314 LP  0  0  0  0  0  0  0  0  0  0  0  0  # atno 17342 bound_to 10162
  140.1904  144.4757  150.6482 LP  0  0  0  0  0  0  0  0  0  0  0  0  # atno 17343 bound_to 10162
  156.8670  130.5133  149.5299 LP  0  0  0  0  0  0  0  0  0  0  0  0  # atno 17370 bound_to 10713
  156.0838  130.5841  150.9611 LP  0  0  0  0  0  0  0  0  0  0  0  0  # atno 17371 bound_to 10713
  139.8758  134.9938  156.5662 LP  0  0  0  0  0  0  0  0  0  0  0  0  # atno 17394 bound_to 11000
  140.8102  133.8435  155.8803 LP  0  0  0  0  0  0  0  0  0  0  0  0  # atno 17395 bound_to 11000

$$$$
