AV-unprocessed.smi:1572|AV-procd|sdf|6328|dock10
  -GOLD-   22720 6533D 1   1.00000     0.00000
 Structure written by MMmdl.
 43 44  0  0  0  0  0  0  0  0  2 V2000
  151.7204  139.7412  155.7914 C   0  0  0  0  0  0  0  0  0  0  0  0
  151.2255  139.3407  154.4787 N   0  0  0  0  0  0  0  0  0  0  0  0
  151.7354  138.0449  154.0346 C   0  0  0  0  0  0  0  0  0  0  0  0
  151.1291  136.8766  154.8378 C   0  0  0  0  0  0  0  0  0  0  0  0
  149.6402  136.8694  154.7330 N   0  3  0  0  0  0  0  0  0  0  0  0
  148.9559  135.6493  155.3046 C   0  0  0  0  0  0  0  0  0  0  0  0
  149.6582  134.3461  154.8517 C   0  0  0  0  0  0  0  0  0  0  0  0
  148.9746  135.6819  156.8566 C   0  0  0  0  0  0  0  0  0  0  0  0
  147.4697  135.6445  154.8303 C   0  0  0  0  0  0  0  0  0  0  0  0
  147.2836  135.2262  153.4405 N   0  0  0  0  0  0  0  0  0  0  0  0
  146.2845  134.4538  152.9881 C   0  0  0  0  0  0  0  0  0  0  0  0
  145.4081  133.9856  153.7150 O   0  0  0  0  0  0  0  0  0  0  0  0
  146.3775  134.2640  151.6602 N   0  0  0  0  0  0  0  0  0  0  0  0
  145.5351  133.4860  150.8223 C   0  0  0  0  0  0  0  0  0  0  0  0
  145.9622  132.8556  149.7169 N   0  0  0  0  0  0  0  0  0  0  0  0
  144.9360  132.1698  149.0805 N   0  0  0  0  0  0  0  0  0  0  0  0
  143.7763  132.3114  149.7287 C   0  0  0  0  0  0  0  0  0  0  0  0
  143.8241  133.2989  151.1792 S   0  0  0  0  0  0  0  0  0  0  0  0
  149.1176  138.1936  155.1815 C   0  0  0  0  0  0  0  0  0  0  0  0
  149.7672  139.3467  154.3867 C   0  0  0  0  0  0  0  0  0  0  0  0
  152.8104  139.7698  155.7904 H   0  0  0  0  0  0  0  0  0  0  0  0
  151.4010  139.0677  156.5859 H   0  0  0  0  0  0  0  0  0  0  0  0
  151.3648  140.7423  156.0373 H   0  0  0  0  0  0  0  0  0  0  0  0
  151.5014  137.9210  152.9763 H   0  0  0  0  0  0  0  0  0  0  0  0
  152.8232  138.0361  154.1133 H   0  0  0  0  0  0  0  0  0  0  0  0
  151.5575  135.9585  154.4436 H   0  0  0  0  0  0  0  0  0  0  0  0
  151.4415  136.9376  155.8800 H   0  0  0  0  0  0  0  0  0  0  0  0
  149.2293  133.4728  155.3446 H   0  0  0  0  0  0  0  0  0  0  0  0
  150.7210  134.3541  155.0928 H   0  0  0  0  0  0  0  0  0  0  0  0
  149.5604  134.1770  153.7795 H   0  0  0  0  0  0  0  0  0  0  0  0
  148.4181  134.8534  157.2932 H   0  0  0  0  0  0  0  0  0  0  0  0
  148.5386  136.6042  157.2426 H   0  0  0  0  0  0  0  0  0  0  0  0
  149.9813  135.5834  157.2623 H   0  0  0  0  0  0  0  0  0  0  0  0
  146.8659  135.0317  155.5022 H   0  0  0  0  0  0  0  0  0  0  0  0
  147.0387  136.6424  154.8770 H   0  0  0  0  0  0  0  0  0  0  0  0
  147.9609  135.5626  152.7713 H   0  0  0  0  0  0  0  0  0  0  0  0
  147.1426  134.7270  151.1924 H   0  0  0  0  0  0  0  0  0  0  0  0
  142.8865  131.8311  149.3495 H   0  0  0  0  0  0  0  0  0  0  0  0
  148.0479  138.2775  155.0017 H   0  0  0  0  0  0  0  0  0  0  0  0
  149.2692  138.3217  156.2534 H   0  0  0  0  0  0  0  0  0  0  0  0
  149.3842  140.3081  154.7309 H   0  0  0  0  0  0  0  0  0  0  0  0
  149.4881  139.2643  153.3352 H   0  0  0  0  0  0  0  0  0  0  0  0
  149.4383  136.8360  153.7439 H   0  0  0  0  0  0  0  0  0  0  0  0
  1  2  1  0  0  0  0
  1 21  1  0  0  0  0
  1 22  1  0  0  0  0
  1 23  1  0  0  0  0
  2 20  1  0  0  0  0
  2  3  1  0  0  0  0
  3  4  1  0  0  0  0
  3 24  1  0  0  0  0
  3 25  1  0  0  0  0
  4  5  1  0  0  0  0
  4 26  1  0  0  0  0
  4 27  1  0  0  0  0
  5  6  1  0  0  0  0
  5 19  1  0  0  0  0
  5 43  1  0  0  0  0
  6  7  1  0  0  0  0
  6  8  1  0  0  0  0
  6  9  1  0  0  0  0
  7 28  1  0  0  0  0
  7 29  1  0  0  0  0
  7 30  1  0  0  0  0
  8 31  1  0  0  0  0
  8 32  1  0  0  0  0
  8 33  1  0  0  0  0
  9 10  1  0  0  0  0
  9 34  1  0  0  0  0
  9 35  1  0  0  0  0
 10 11  1  0  0  0  0
 10 36  1  0  0  0  0
 11 12  2  0  0  0  0
 11 13  1  0  0  0  0
 13 14  1  0  0  0  0
 13 37  1  0  0  0  0
 14 18  1  0  0  0  0
 14 15  2  0  0  0  0
 15 16  1  0  0  0  0
 16 17  2  0  0  0  0
 17 18  1  0  0  0  0
 17 38  1  0  0  0  0
 19 20  1  0  0  0  0
 19 39  1  0  0  0  0
 19 40  1  0  0  0  0
 20 41  1  0  0  0  0
 20 42  1  0  0  0  0
M  CHG  1   5   1
M  END
> <s_m_source_file>
AV-unprocessed.smi

> <i_m_source_file_index>
1572

> <i_lp_mmshare_version>
43012

> <i_f3d_flags>
0

> <s_epik_input>
W0NIM11OMVtDSDJdW0NIMl1OKFtDSDJdW0NIMl0xKUMoW0NIM10pKFtDSDNdKVtDSDJdW05IXUMoPU8pW05IXWMybm5bY0hdczI=

> <s_epik_cmdline>
J2VwaWtfcHl0aG9uJywgJy1waCcsICc3LjAnLCAnLXRuJywgJzgnLCAnLW1hJywgJzIwMCcsICctbWV0YWxfYmluZGluZycsICctaW1hZScsICc8aW5maWxlLm1hZT4nLCAnLW9tYWUnLCAnPG91dGZpbGUubWFlPic=

> <r_epik_Ionization_Penalty>
0.104337

> <r_epik_Ionization_Penalty_Charging>
0.0985296

> <r_epik_Ionization_Penalty_Neutral>
0.00580738

> <r_epik_State_Penalty>
1.056

> <r_epik_Charging_Adjusted_Penalty>
1.15453

> <i_epik_Tot_Q>
1

> <i_epik_Tot_abs_Q>
1

> <r_epik_Metal_State_Penalty>
1.38982

> <b_epik_Metal_Only>
0

> <s_lp_Force_Field>
OPLS_2005

> <r_lp_Energy>
26.4424

> <b_lp_Chiralities_Consistent>
1

> <s_lp_Variant>
AV-unprocessed.smi:1572-2

> <Gold.Version>
5.8.1

> <Gold.Id.Protein>
6NUR|6NUR_protein|mol2

> <Gold.PLP.Fitness>
42.4079

> <Gold.PLP.PLP>
-28.6341

> <Gold.PLP.part.hbond>
-3.6689

> <Gold.PLP.part.metal>
0.0000

> <Gold.PLP.part.buried>
-5.0515

> <Gold.PLP.part.nonpolar>
-21.1817

> <Gold.PLP.part.repulsive>
1.9113

> <Gold.PLP.ligand.clash>
0.0000

> <Gold.PLP.ligand.torsion>
0.6855

> <Gold.PLP.Chemscore.Hbond>
4.0199

> <Gold.PLP.Chemscore.CHOScore>
1.0000

> <Gold.PLP.Chemscore.Metal>
0.0000

> <Gold.Chemscore.Hbonds>
donor molecule, donor type, donor heavy atom, donor atom, acceptor molecule, acceptor atom, score
      L1  H     5    43       P1  7948  2.00
      L1  H    10    36       P1  7948  0.89
      L1  H    13    37       P1  7948  0.09
      P1  H  7989  7998       L1     2  1.00
      L1  C    17    38       P1 10952  0.95

> <Gold.PLP.Chemscore.Internal.Correction>
0.0851

> <Gold.Rescore>
     Score         DG    S(hbond)    S(metal)    S(lipo)     H(rot)  DE(clash)    DE(int)     intcor
     13.95     -14.64       2.03        0.00      57.51       1.70       0.02       0.68       ----

> <Gold.Chemscore.Fitness>
13.9461

> <Gold.Chemscore.DG>
-14.6424

> <Gold.Chemscore.ZeroCoef>
-5.4800

> <Gold.Chemscore.Hbond>
2.0282

> <Gold.Chemscore.Metal>
0.0000

> <Gold.Chemscore.Lipo>
57.5110

> <Gold.Chemscore.Internal_Hbond>
0.0000

> <Gold.Chemscore.DEClash>
0.0204

> <Gold.Chemscore.DEInternal>
0.6758

> <Gold.Chemscore.Rot>
1.6956

> <Gold.Chemscore.Internal.Correction>
   9.000000E+99

> <Gold.Chemscore.Hbonds>
donor molecule, donor type, donor heavy atom, donor atom, acceptor molecule, acceptor atom, score
      L1  H     5    43       P1  7948  0.86
      L1  H    10    36       P1  7948  0.87
      L1  H    13    37       P1  7948  0.04
      P1  H  7989  7998       L1     2  0.07

> <Gold.Chemscore.Hbond.Weighted>
-6.7743

> <Gold.Chemscore.Metal.Weighted>
-0.0000

> <Gold.Chemscore.Lipo.Weighted>
-6.7288

> <Gold.Chemscore.Internal_Hbond.Weighted>
0.0000

> <Gold.Chemscore.DEClash.Weighted>
0.0204

> <Gold.Chemscore.DEInternal.Weighted>
0.6758

> <Gold.Chemscore.Rot.Weighted>
4.3407

> <Gold.Chemscore.Internal.Correction.Weighted>
   9.000000E+99

> <Gold.Protein.RotatedTorsions>
[ 6907 6896 6895 6894 ] final   53.50 input  -60.11 | X-H torsion
[ 7974 7965 7964 7962 ] final  113.88 input  175.53 | X-H torsion
[ 8008 7997 7996 7995 ] final -163.71 input   59.86 | X-H torsion
[ 10167 10162 10161 10158 ] final  145.63 input  -65.29 | X-H torsion
[ 10718 10713 10712 10709 ] final  127.90 input   66.30 | X-H torsion
[ 10763 10752 10751 10750 ] final   52.17 input  -60.55 | X-H torsion
[ 11005 11000 10999 10996 ] final  105.17 input  -57.11 | X-H torsion

> <Gold.Protein.ActiveResidues>
 VAL166  LYS551  ARG553  GLY616  TRP617  ASP618  TYR619  PRO620  LYS621  CYS622 
 ASP623  PHE694  ASN695  SER759  ASP760  ASP761  ALA762  ILE779  LEU786  VAL792 
 PHE793  MET794  SER795  GLU796  ALA797  LYS798  CYS799  TRP800  GLU811  SER814 

> <Gold.Protein.RotatedAtoms>
  152.3343  134.7218  160.0280 H   0  0  0  0  0  0  0  0  0  0  0  0  # atno 6907 bound_to 6896
  151.7624  133.3329  159.3429 H   0  0  0  0  0  0  0  0  0  0  0  0  # atno 6908 bound_to 6896
  150.7441  134.6025  159.6088 H   0  0  0  0  0  0  0  0  0  0  0  0  # atno 6909 bound_to 6896
  145.2114  139.2905  143.4266 H   0  0  0  0  0  0  0  0  0  0  0  0  # atno 7974 bound_to 7965
  155.8251  140.0925  157.1826 H   0  0  0  0  0  0  0  0  0  0  0  0  # atno 8008 bound_to 7997
  154.3979  140.1429  156.3607 H   0  0  0  0  0  0  0  0  0  0  0  0  # atno 8009 bound_to 7997
  155.8225  140.3446  155.5525 H   0  0  0  0  0  0  0  0  0  0  0  0  # atno 8010 bound_to 7997
  139.4922  144.5888  151.6723 H   0  0  0  0  0  0  0  0  0  0  0  0  # atno 10167 bound_to 10162
  157.5292  131.1098  150.9035 H   0  0  0  0  0  0  0  0  0  0  0  0  # atno 10718 bound_to 10713
  152.9788  135.5821  154.4535 H   0  0  0  0  0  0  0  0  0  0  0  0  # atno 10763 bound_to 10752
  154.4121  135.2770  155.2032 H   0  0  0  0  0  0  0  0  0  0  0  0  # atno 10764 bound_to 10752
  154.3818  135.6145  153.5849 H   0  0  0  0  0  0  0  0  0  0  0  0  # atno 10765 bound_to 10752
  139.8799  134.9326  156.5472 H   0  0  0  0  0  0  0  0  0  0  0  0  # atno 11005 bound_to 11000
  146.3397  140.2390  142.8595 LP  0  0  0  0  0  0  0  0  0  0  0  0  # atno 17320 bound_to 7965
  144.9853  140.8497  143.5372 LP  0  0  0  0  0  0  0  0  0  0  0  0  # atno 17321 bound_to 7965
  140.5510  144.0425  150.6127 LP  0  0  0  0  0  0  0  0  0  0  0  0  # atno 17342 bound_to 10162
  140.3479  143.2980  152.0518 LP  0  0  0  0  0  0  0  0  0  0  0  0  # atno 17343 bound_to 10162
  156.9621  130.5459  149.5286 LP  0  0  0  0  0  0  0  0  0  0  0  0  # atno 17370 bound_to 10713
  156.0410  130.5492  150.8770 LP  0  0  0  0  0  0  0  0  0  0  0  0  # atno 17371 bound_to 10713
  140.8266  133.8311  155.8945 LP  0  0  0  0  0  0  0  0  0  0  0  0  # atno 17394 bound_to 11000
  140.9368  134.1952  157.4826 LP  0  0  0  0  0  0  0  0  0  0  0  0  # atno 17395 bound_to 11000

$$$$
