AV-unprocessed.smi:3100|AV-procd|sdf|11806|dock7
  -GOLD-   2272017183D 1   1.00000     0.00000
 Structure written by MMmdl.
 28 29  0  0  0  0  0  0  0  0  1 V2000
  152.5012  143.1181  161.9020 C   0  0  0  0  0  0  0  0  0  0  0  0
  152.7606  143.6487  160.4884 C   0  0  2  0  0  0  0  0  0  0  0  0
  151.8525  144.8028  160.0792 C   0  0  0  0  0  0  0  0  0  0  0  0
  151.9650  144.7627  158.5685 C   0  0  0  0  0  0  0  0  0  0  0  0
  152.2009  143.2722  158.2629 C   0  0  2  0  0  0  0  0  0  0  0  0
  150.9942  142.5666  157.6329 C   0  0  0  0  0  0  0  0  0  0  0  0
  149.9061  142.5821  158.2098 O   0  0  0  0  0  0  0  0  0  0  0  0
  151.2274  141.9505  156.4593 N   0  0  0  0  0  0  0  0  0  0  0  0
  150.3148  141.2145  155.6587 C   0  0  0  0  0  0  0  0  0  0  0  0
  148.9529  141.5766  155.7885 C   0  0  0  0  0  0  0  0  0  0  0  0
  147.9670  140.9697  155.0909 N   0  0  0  0  0  0  0  0  0  0  0  0
  148.3426  139.9851  154.2468 C   0  0  0  0  0  0  0  0  0  0  0  0
  149.6939  139.6114  154.1040 C   0  0  0  0  0  0  0  0  0  0  0  0
  150.6742  140.2213  154.8054 N   0  0  0  0  0  0  0  0  0  0  0  0
  152.4673  142.6524  159.5203 O   0  0  0  0  0  0  0  0  0  0  0  0
  152.6961  143.8868  162.6500 H   0  0  0  0  0  0  0  0  0  0  0  0
  153.1457  142.2670  162.1221 H   0  0  0  0  0  0  0  0  0  0  0  0
  151.4672  142.7914  162.0178 H   0  0  0  0  0  0  0  0  0  0  0  0
  153.8063  143.9422  160.3811 H   0  0  0  0  0  0  0  0  0  0  0  0
  150.8227  144.6049  160.3809 H   0  0  0  0  0  0  0  0  0  0  0  0
  152.1576  145.7589  160.5054 H   0  0  0  0  0  0  0  0  0  0  0  0
  151.0863  145.1857  158.0793 H   0  0  0  0  0  0  0  0  0  0  0  0
  152.8289  145.3442  158.2441 H   0  0  0  0  0  0  0  0  0  0  0  0
  153.0772  143.1651  157.6212 H   0  0  0  0  0  0  0  0  0  0  0  0
  152.1680  142.0173  156.0987 H   0  0  0  0  0  0  0  0  0  0  0  0
  148.6469  142.3643  156.4619 H   0  0  0  0  0  0  0  0  0  0  0  0
  147.5634  139.4937  153.6834 H   0  0  0  0  0  0  0  0  0  0  0  0
  149.9889  138.8232  153.4272 H   0  0  0  0  0  0  0  0  0  0  0  0
  1  2  1  0  0  0  0
  1 16  1  0  0  0  0
  1 17  1  0  0  0  0
  1 18  1  0  0  0  0
  2 15  1  0  0  0  0
  2  3  1  0  0  0  0
  2 19  1  0  0  0  0
  3  4  1  0  0  0  0
  3 20  1  0  0  0  0
  3 21  1  0  0  0  0
  4  5  1  0  0  0  0
  4 22  1  0  0  0  0
  4 23  1  0  0  0  0
  5  6  1  0  0  0  0
  5 15  1  0  0  0  0
  5 24  1  0  0  0  0
  6  7  2  0  0  0  0
  6  8  1  0  0  0  0
  8  9  1  0  0  0  0
  8 25  1  0  0  0  0
  9 14  1  0  0  0  0
  9 10  2  0  0  0  0
 10 11  1  0  0  0  0
 10 26  1  0  0  0  0
 11 12  2  0  0  0  0
 12 13  1  0  0  0  0
 12 27  1  0  0  0  0
 13 14  2  0  0  0  0
 13 28  1  0  0  0  0
M  END
> <s_m_source_file>
AV-unprocessed.smi

> <i_m_source_file_index>
3100

> <i_lp_mmshare_version>
43012

> <i_f3d_flags>
0

> <s_epik_input>
W0NIM11bQ0BASF0xW0NIMl1bQ0gyXVtDQEhdKE8xKUMoPU8pW05IXWMyW2NIXW5bY0hdW2NIXW4y

> <s_epik_cmdline>
J2VwaWtfcHl0aG9uJywgJy1waCcsICc3LjAnLCAnLXRuJywgJzgnLCAnLW1hJywgJzIwMCcsICctbWV0YWxfYmluZGluZycsICctaW1hZScsICc8aW5maWxlLm1hZT4nLCAnLW9tYWUnLCAnPG91dGZpbGUubWFlPic=

> <r_lp_tautomer_probability>
1

> <r_epik_Ionization_Penalty>
2.81186e-06

> <r_epik_Ionization_Penalty_Charging>
0

> <r_epik_Ionization_Penalty_Neutral>
2.81186e-06

> <r_epik_State_Penalty>
-0

> <r_epik_Charging_Adjusted_Penalty>
0

> <i_epik_Tot_Q>
0

> <i_epik_Tot_abs_Q>
0

> <r_epik_Metal_State_Penalty>
-0

> <b_epik_Metal_Only>
0

> <s_lp_Force_Field>
OPLS_2005

> <r_lp_Energy>
25.9651

> <b_lp_Chiralities_Consistent>
1

> <s_lp_Variant>
AV-unprocessed.smi:3100-3

> <Gold.Version>
5.8.1

> <Gold.Id.Protein>
6NUR|6NUR_protein|mol2

> <Gold.PLP.Fitness>
38.0577

> <Gold.PLP.PLP>
-32.0398

> <Gold.PLP.part.hbond>
-1.0000

> <Gold.PLP.part.metal>
0.0000

> <Gold.PLP.part.buried>
-1.3566

> <Gold.PLP.part.nonpolar>
-28.5476

> <Gold.PLP.part.repulsive>
0.4085

> <Gold.PLP.ligand.clash>
0.0000

> <Gold.PLP.ligand.torsion>
0.1709

> <Gold.PLP.Chemscore.Hbond>
1.0000

> <Gold.PLP.Chemscore.CHOScore>
1.1174

> <Gold.PLP.Chemscore.Metal>
0.0000

> <Gold.Chemscore.Hbonds>
donor molecule, donor type, donor heavy atom, donor atom, acceptor molecule, acceptor atom, score
      P1  H  7989  7998       L1    14  1.00
      L1  C    10    26       P1  8028  0.75
      L1  C    13    28       P1  7957  0.35

> <Gold.PLP.Chemscore.Internal.Correction>
0.0073

> <Gold.Rescore>
     Score         DG    S(hbond)    S(metal)    S(lipo)     H(rot)  DE(clash)    DE(int)     intcor
     12.79     -14.59       0.73        0.00      78.93       1.00       0.23       1.57       ----

> <Gold.Chemscore.Fitness>
12.7865

> <Gold.Chemscore.DG>
-14.5871

> <Gold.Chemscore.ZeroCoef>
-5.4800

> <Gold.Chemscore.Hbond>
0.7284

> <Gold.Chemscore.Metal>
0.0000

> <Gold.Chemscore.Lipo>
78.9258

> <Gold.Chemscore.Internal_Hbond>
0.0000

> <Gold.Chemscore.DEClash>
0.2344

> <Gold.Chemscore.DEInternal>
1.5662

> <Gold.Chemscore.Rot>
1.0000

> <Gold.Chemscore.Internal.Correction>
   9.000000E+99

> <Gold.Chemscore.Hbonds>
donor molecule, donor type, donor heavy atom, donor atom, acceptor molecule, acceptor atom, score
      P1  H  7989  7998       L1    14  0.19

> <Gold.Chemscore.Hbond.Weighted>
-2.4328

> <Gold.Chemscore.Metal.Weighted>
-0.0000

> <Gold.Chemscore.Lipo.Weighted>
-9.2343

> <Gold.Chemscore.Internal_Hbond.Weighted>
0.0000

> <Gold.Chemscore.DEClash.Weighted>
0.2344

> <Gold.Chemscore.DEInternal.Weighted>
1.5662

> <Gold.Chemscore.Rot.Weighted>
2.5600

> <Gold.Chemscore.Internal.Correction.Weighted>
   9.000000E+99

> <Gold.Protein.RotatedTorsions>
[ 6907 6896 6895 6894 ] final -173.09 input  -60.11 | X-H torsion
[ 7974 7965 7964 7962 ] final   31.90 input  175.53 | X-H torsion
[ 8008 7997 7996 7995 ] final -154.29 input   59.86 | X-H torsion
[ 10167 10162 10161 10158 ] final  157.05 input  -65.29 | X-H torsion
[ 10718 10713 10712 10709 ] final  172.10 input   66.30 | X-H torsion
[ 10763 10752 10751 10750 ] final   99.54 input  -60.55 | X-H torsion
[ 11005 11000 10999 10996 ] final   27.35 input  -57.11 | X-H torsion

> <Gold.Protein.ActiveResidues>
 VAL166  LYS551  ARG553  GLY616  TRP617  ASP618  TYR619  PRO620  LYS621  CYS622 
 ASP623  PHE694  ASN695  SER759  ASP760  ASP761  ALA762  ILE779  LEU786  VAL792 
 PHE793  MET794  SER795  GLU796  ALA797  LYS798  CYS799  TRP800  GLU811  SER814 

> <Gold.Protein.RotatedAtoms>
  151.5505  133.3418  159.2951 H   0  0  0  0  0  0  0  0  0  0  0  0  # atno 6907 bound_to 6896
  150.8481  134.7800  159.6998 H   0  0  0  0  0  0  0  0  0  0  0  0  # atno 6908 bound_to 6896
  152.4534  134.5352  159.9874 H   0  0  0  0  0  0  0  0  0  0  0  0  # atno 6909 bound_to 6896
  146.1521  139.6596  142.9092 H   0  0  0  0  0  0  0  0  0  0  0  0  # atno 7974 bound_to 7965
  155.6841  140.0747  157.2473 H   0  0  0  0  0  0  0  0  0  0  0  0  # atno 8008 bound_to 7997
  154.4100  140.1676  156.2067 H   0  0  0  0  0  0  0  0  0  0  0  0  # atno 8009 bound_to 7997
  155.9509  140.3377  155.6410 H   0  0  0  0  0  0  0  0  0  0  0  0  # atno 8010 bound_to 7997
  139.4822  144.4953  151.8249 H   0  0  0  0  0  0  0  0  0  0  0  0  # atno 10167 bound_to 10162
  156.9839  131.0127  151.2874 H   0  0  0  0  0  0  0  0  0  0  0  0  # atno 10718 bound_to 10713
  153.3027  135.4110  155.1267 H   0  0  0  0  0  0  0  0  0  0  0  0  # atno 10763 bound_to 10752
  154.8554  135.3545  154.5829 H   0  0  0  0  0  0  0  0  0  0  0  0  # atno 10764 bound_to 10752
  153.6255  135.7063  153.5353 H   0  0  0  0  0  0  0  0  0  0  0  0  # atno 10765 bound_to 10752
  140.3272  134.2478  155.7708 H   0  0  0  0  0  0  0  0  0  0  0  0  # atno 11005 bound_to 11000
  145.4798  141.0438  143.2652 LP  0  0  0  0  0  0  0  0  0  0  0  0  # atno 17320 bound_to 7965
  144.7917  139.6316  143.7110 LP  0  0  0  0  0  0  0  0  0  0  0  0  # atno 17321 bound_to 7965
  140.4440  144.1946  150.5893 LP  0  0  0  0  0  0  0  0  0  0  0  0  # atno 17342 bound_to 10162
  140.4653  143.2433  151.9163 LP  0  0  0  0  0  0  0  0  0  0  0  0  # atno 17343 bound_to 10162
  157.5507  130.8180  149.8141 LP  0  0  0  0  0  0  0  0  0  0  0  0  # atno 17370 bound_to 10713
  156.0233  130.3788  150.1895 LP  0  0  0  0  0  0  0  0  0  0  0  0  # atno 17371 bound_to 10713
  141.2072  133.7812  157.0131 LP  0  0  0  0  0  0  0  0  0  0  0  0  # atno 17394 bound_to 11000
  140.0891  134.9603  157.1748 LP  0  0  0  0  0  0  0  0  0  0  0  0  # atno 17395 bound_to 11000

$$$$
