AV-unprocessed.smi:1673|AV-procd|sdf|6709|dock5
  -GOLD-   22720 7453D 1   1.00000     0.00000
 Structure written by MMmdl.
 39 40  0  0  0  0  0  0  0  0  1 V2000
  150.9437  135.9883  155.7611 C   0  0  0  0  0  0  0  0  0  0  0  0
  150.9422  134.4965  155.5730 C   0  0  0  0  0  0  0  0  0  0  0  0
  151.7814  133.7575  156.2836 N   0  0  0  0  0  0  0  0  0  0  0  0
  151.6140  132.4315  155.8550 O   0  0  0  0  0  0  0  0  0  0  0  0
  150.6641  132.4000  154.8843 C   0  0  0  0  0  0  0  0  0  0  0  0
  150.3552  131.0712  154.2817 C   0  0  0  0  0  0  0  0  0  0  0  0
  150.1906  133.6643  154.6923 C   0  0  0  0  0  0  0  0  0  0  0  0
  149.2068  134.0209  153.7365 N   0  0  0  0  0  0  0  0  0  0  0  0
  148.0787  133.3510  153.4566 C   0  0  0  0  0  0  0  0  0  0  0  0
  147.7510  132.2824  153.9718 O   0  0  0  0  0  0  0  0  0  0  0  0
  147.3535  133.9857  152.5241 N   0  0  0  0  0  0  0  0  0  0  0  0
  146.0753  133.5320  151.9771 C   0  0  2  0  0  0  0  0  0  0  0  0
  146.2612  132.1157  151.3980 C   0  0  0  0  0  0  0  0  0  0  0  0
  144.9711  131.5917  150.7507 C   0  0  0  0  0  0  0  0  0  0  0  0
  144.4655  132.5597  149.6730 C   0  0  0  0  0  0  0  0  0  0  0  0
  144.2620  133.9684  150.2501 C   0  0  0  0  0  0  0  0  0  0  0  0
  145.5494  134.5162  150.8999 C   0  0  1  0  0  0  0  0  0  0  0  0
  145.3118  135.9345  151.4492 C   0  0  0  0  0  0  0  0  0  0  0  0
  150.7186  136.5044  154.8279 H   0  0  0  0  0  0  0  0  0  0  0  0
  151.9157  136.3461  156.1023 H   0  0  0  0  0  0  0  0  0  0  0  0
  150.2023  136.2903  156.5010 H   0  0  0  0  0  0  0  0  0  0  0  0
  149.6607  131.1701  153.4473 H   0  0  0  0  0  0  0  0  0  0  0  0
  149.9036  130.4087  155.0200 H   0  0  0  0  0  0  0  0  0  0  0  0
  151.2629  130.5958  153.9098 H   0  0  0  0  0  0  0  0  0  0  0  0
  149.4219  134.8162  153.1533 H   0  0  0  0  0  0  0  0  0  0  0  0
  147.7126  134.8566  152.1616 H   0  0  0  0  0  0  0  0  0  0  0  0
  145.3310  133.4663  152.7732 H   0  0  0  0  0  0  0  0  0  0  0  0
  147.0593  132.1219  150.6539 H   0  0  0  0  0  0  0  0  0  0  0  0
  146.5785  131.4297  152.1844 H   0  0  0  0  0  0  0  0  0  0  0  0
  145.1460  130.6078  150.3144 H   0  0  0  0  0  0  0  0  0  0  0  0
  144.2044  131.4601  151.5152 H   0  0  0  0  0  0  0  0  0  0  0  0
  145.1808  132.5993  148.8503 H   0  0  0  0  0  0  0  0  0  0  0  0
  143.5297  132.1909  149.2521 H   0  0  0  0  0  0  0  0  0  0  0  0
  143.9293  134.6396  149.4578 H   0  0  0  0  0  0  0  0  0  0  0  0
  143.4596  133.9442  150.9889 H   0  0  0  0  0  0  0  0  0  0  0  0
  146.3047  134.5934  150.1161 H   0  0  0  0  0  0  0  0  0  0  0  0
  144.5961  135.9250  152.2718 H   0  0  0  0  0  0  0  0  0  0  0  0
  144.9186  136.5934  150.6745 H   0  0  0  0  0  0  0  0  0  0  0  0
  146.2339  136.3860  151.8152 H   0  0  0  0  0  0  0  0  0  0  0  0
  1  2  1  0  0  0  0
  1 19  1  0  0  0  0
  1 20  1  0  0  0  0
  1 21  1  0  0  0  0
  2  7  1  0  0  0  0
  2  3  2  0  0  0  0
  3  4  1  0  0  0  0
  4  5  1  0  0  0  0
  5  6  1  0  0  0  0
  5  7  2  0  0  0  0
  6 22  1  0  0  0  0
  6 23  1  0  0  0  0
  6 24  1  0  0  0  0
  7  8  1  0  0  0  0
  8  9  1  0  0  0  0
  8 25  1  0  0  0  0
  9 10  2  0  0  0  0
  9 11  1  0  0  0  0
 11 12  1  0  0  0  0
 11 26  1  0  0  0  0
 12 17  1  0  0  0  0
 12 13  1  0  0  0  0
 12 27  1  0  0  0  0
 13 14  1  0  0  0  0
 13 28  1  0  0  0  0
 13 29  1  0  0  0  0
 14 15  1  0  0  0  0
 14 30  1  0  0  0  0
 14 31  1  0  0  0  0
 15 16  1  0  0  0  0
 15 32  1  0  0  0  0
 15 33  1  0  0  0  0
 16 17  1  0  0  0  0
 16 34  1  0  0  0  0
 16 35  1  0  0  0  0
 17 18  1  0  0  0  0
 17 36  1  0  0  0  0
 18 37  1  0  0  0  0
 18 38  1  0  0  0  0
 18 39  1  0  0  0  0
M  END
> <s_m_source_file>
AV-unprocessed.smi

> <i_m_source_file_index>
1673

> <i_lp_mmshare_version>
43012

> <i_f3d_flags>
0

> <s_epik_input>
W0NIM11jMW5vYyhbQ0gzXSljMVtOSF1DKD1PKVtOSF1bQ0BASF0yW0NIMl1bQ0gyXVtDSDJdW0NIMl1bQ0BIXTJbQ0gzXQ==

> <s_epik_cmdline>
J2VwaWtfcHl0aG9uJywgJy1waCcsICc3LjAnLCAnLXRuJywgJzgnLCAnLW1hJywgJzIwMCcsICctbWV0YWxfYmluZGluZycsICctaW1hZScsICc8aW5maWxlLm1hZT4nLCAnLW9tYWUnLCAnPG91dGZpbGUubWFlPic=

> <r_lp_tautomer_probability>
1

> <r_epik_Ionization_Penalty>
4.01865e-05

> <r_epik_Ionization_Penalty_Charging>
0

> <r_epik_Ionization_Penalty_Neutral>
4.01865e-05

> <r_epik_State_Penalty>
-0

> <r_epik_Charging_Adjusted_Penalty>
0

> <i_epik_Tot_Q>
0

> <i_epik_Tot_abs_Q>
0

> <r_epik_Metal_State_Penalty>
-0

> <b_epik_Metal_Only>
0

> <s_lp_Force_Field>
OPLS_2005

> <r_lp_Energy>
12.0287

> <b_lp_Chiralities_Consistent>
1

> <s_lp_Variant>
AV-unprocessed.smi:1673-1

> <Gold.Version>
5.8.1

> <Gold.Id.Protein>
6NUR|6NUR_protein|mol2

> <Gold.PLP.Fitness>
38.1859

> <Gold.PLP.PLP>
-33.6324

> <Gold.PLP.part.hbond>
-2.5057

> <Gold.PLP.part.metal>
0.0000

> <Gold.PLP.part.buried>
-4.9843

> <Gold.PLP.part.nonpolar>
-26.2574

> <Gold.PLP.part.repulsive>
0.0473

> <Gold.PLP.ligand.clash>
0.0000

> <Gold.PLP.ligand.torsion>
0.3285

> <Gold.PLP.Chemscore.Hbond>
1.6500

> <Gold.PLP.Chemscore.CHOScore>
0.0000

> <Gold.PLP.Chemscore.Metal>
0.0000

> <Gold.Chemscore.Hbonds>
donor molecule, donor type, donor heavy atom, donor atom, acceptor molecule, acceptor atom, score
      L1  H     8    25       P1  7948  0.30
      L1  H    11    26       P1  7948  1.00

> <Gold.PLP.Chemscore.Internal.Correction>
0.2604

> <Gold.Rescore>
     Score         DG    S(hbond)    S(metal)    S(lipo)     H(rot)  DE(clash)    DE(int)     intcor
     15.84     -16.36       1.38        0.00      75.57       1.00       0.04       0.48       ----

> <Gold.Chemscore.Fitness>
15.8397

> <Gold.Chemscore.DG>
-16.3623

> <Gold.Chemscore.ZeroCoef>
-5.4800

> <Gold.Chemscore.Hbond>
1.3773

> <Gold.Chemscore.Metal>
0.0000

> <Gold.Chemscore.Lipo>
75.5747

> <Gold.Chemscore.Internal_Hbond>
0.0000

> <Gold.Chemscore.DEClash>
0.0433

> <Gold.Chemscore.DEInternal>
0.4792

> <Gold.Chemscore.Rot>
1.0000

> <Gold.Chemscore.Internal.Correction>
   9.000000E+99

> <Gold.Chemscore.Hbonds>
donor molecule, donor type, donor heavy atom, donor atom, acceptor molecule, acceptor atom, score
      L1  H    11    26       P1  7948  0.78

> <Gold.Chemscore.Hbond.Weighted>
-4.6000

> <Gold.Chemscore.Metal.Weighted>
-0.0000

> <Gold.Chemscore.Lipo.Weighted>
-8.8422

> <Gold.Chemscore.Internal_Hbond.Weighted>
0.0000

> <Gold.Chemscore.DEClash.Weighted>
0.0433

> <Gold.Chemscore.DEInternal.Weighted>
0.4792

> <Gold.Chemscore.Rot.Weighted>
2.5600

> <Gold.Chemscore.Internal.Correction.Weighted>
   9.000000E+99

> <Gold.Protein.RotatedTorsions>
[ 6907 6896 6895 6894 ] final   93.97 input  -60.11 | X-H torsion
[ 7974 7965 7964 7962 ] final   17.59 input  175.53 | X-H torsion
[ 8008 7997 7996 7995 ] final  -34.53 input   59.86 | X-H torsion
[ 10167 10162 10161 10158 ] final   90.45 input  -65.29 | X-H torsion
[ 10718 10713 10712 10709 ] final   77.28 input   66.30 | X-H torsion
[ 10763 10752 10751 10750 ] final   83.49 input  -60.55 | X-H torsion
[ 11005 11000 10999 10996 ] final  -15.15 input  -57.11 | X-H torsion

> <Gold.Protein.ActiveResidues>
 VAL166  LYS551  ARG553  GLY616  TRP617  ASP618  TYR619  PRO620  LYS621  CYS622 
 ASP623  PHE694  ASN695  SER759  ASP760  ASP761  ALA762  ILE779  LEU786  VAL792 
 PHE793  MET794  SER795  GLU796  ALA797  LYS798  CYS799  TRP800  GLU811  SER814 

> <Gold.Protein.RotatedAtoms>
  152.5451  134.1266  159.8421 H   0  0  0  0  0  0  0  0  0  0  0  0  # atno 6907 bound_to 6896
  151.1316  133.5025  159.2606 H   0  0  0  0  0  0  0  0  0  0  0  0  # atno 6908 bound_to 6896
  151.1669  135.0309  159.8789 H   0  0  0  0  0  0  0  0  0  0  0  0  # atno 6909 bound_to 6896
  146.2213  139.8580  142.8610 H   0  0  0  0  0  0  0  0  0  0  0  0  # atno 7974 bound_to 7965
  154.4118  140.1681  156.2065 H   0  0  0  0  0  0  0  0  0  0  0  0  # atno 8008 bound_to 7997
  155.9480  140.3403  155.6360 H   0  0  0  0  0  0  0  0  0  0  0  0  # atno 8009 bound_to 7997
  155.6906  140.0733  157.2440 H   0  0  0  0  0  0  0  0  0  0  0  0  # atno 8010 bound_to 7997
  139.8472  144.6612  150.9213 H   0  0  0  0  0  0  0  0  0  0  0  0  # atno 10167 bound_to 10162
  157.6705  130.9814  150.1619 H   0  0  0  0  0  0  0  0  0  0  0  0  # atno 10718 bound_to 10713
  153.1296  135.4689  154.9327 H   0  0  0  0  0  0  0  0  0  0  0  0  # atno 10763 bound_to 10752
  154.7652  135.3142  154.8303 H   0  0  0  0  0  0  0  0  0  0  0  0  # atno 10764 bound_to 10752
  153.8848  135.6890  153.4818 H   0  0  0  0  0  0  0  0  0  0  0  0  # atno 10765 bound_to 10752
  140.7937  133.8268  155.9403 H   0  0  0  0  0  0  0  0  0  0  0  0  # atno 11005 bound_to 11000
  145.2733  141.0116  143.3759 LP  0  0  0  0  0  0  0  0  0  0  0  0  # atno 17320 bound_to 7965
  144.9206  139.4416  143.6543 LP  0  0  0  0  0  0  0  0  0  0  0  0  # atno 17321 bound_to 7965
  140.7791  143.3859  151.1394 LP  0  0  0  0  0  0  0  0  0  0  0  0  # atno 17342 bound_to 10162
  139.7501  143.8792  152.3074 LP  0  0  0  0  0  0  0  0  0  0  0  0  # atno 17343 bound_to 10162
  156.2393  130.3689  149.8355 LP  0  0  0  0  0  0  0  0  0  0  0  0  # atno 17370 bound_to 10713
  156.6159  130.8606  151.3465 LP  0  0  0  0  0  0  0  0  0  0  0  0  # atno 17371 bound_to 10713
  140.9364  134.1956  157.4828 LP  0  0  0  0  0  0  0  0  0  0  0  0  # atno 17394 bound_to 11000
  139.8728  134.9854  156.5280 LP  0  0  0  0  0  0  0  0  0  0  0  0  # atno 17395 bound_to 11000

$$$$
