AV-unprocessed.smi:2183|AV-procd|sdf|8865|dock6
  -GOLD-   2272012 63D 1   1.00000     0.00000
 Structure written by MMmdl.
 40 42  0  0  0  0  0  0  0  0  1 V2000
  153.6967  139.0364  158.1627 O   0  0  0  0  0  0  0  0  0  0  0  0
  152.6637  139.4310  159.0392 C   0  0  0  0  0  0  0  0  0  0  0  0
  152.5003  140.9187  159.1159 C   0  0  0  0  0  0  0  0  0  0  0  0
  152.1993  141.6437  158.0377 N   0  0  0  0  0  0  0  0  0  0  0  0
  152.1234  142.9263  158.5431 C   0  0  0  0  0  0  0  0  0  0  0  0
  151.8325  144.1508  157.9003 C   0  0  0  0  0  0  0  0  0  0  0  0
  151.8033  145.3538  158.6361 C   0  0  0  0  0  0  0  0  0  0  0  0
  152.0631  145.3491  160.0218 C   0  0  0  0  0  0  0  0  0  0  0  0
  152.3566  144.1400  160.6811 C   0  0  0  0  0  0  0  0  0  0  0  0
  152.3876  142.9423  159.9416 C   0  0  0  0  0  0  0  0  0  0  0  0
  152.6417  141.6148  160.2739 N   0  0  0  0  0  0  0  0  0  0  0  0
  152.9657  141.1190  161.6064 C   0  0  0  0  0  0  0  0  0  0  0  0
  154.4674  140.8135  161.7813 C   0  0  2  0  0  0  0  0  0  0  0  0
  154.7626  139.5303  161.2682 O   0  0  0  0  0  0  0  0  0  0  0  0
  154.9052  140.8609  163.2520 C   0  0  0  0  0  0  0  0  0  0  0  0
  155.0261  142.2201  163.6497 O   0  0  0  0  0  0  0  0  0  0  0  0
  155.1358  142.5003  164.9943 C   0  0  0  0  0  0  0  0  0  0  0  0
  155.0995  143.8596  165.3681 C   0  0  0  0  0  0  0  0  0  0  0  0
  155.2061  144.2390  166.7198 C   0  0  0  0  0  0  0  0  0  0  0  0
  155.3503  143.2559  167.7165 C   0  0  0  0  0  0  0  0  0  0  0  0
  155.4808  143.7172  169.3737 Cl  0  0  0  0  0  0  0  0  0  0  0  0
  155.3879  141.8955  167.3579 C   0  0  0  0  0  0  0  0  0  0  0  0
  155.2813  141.5166  166.0054 C   0  0  0  0  0  0  0  0  0  0  0  0
  154.0945  138.2496  158.5021 H   0  0  0  0  0  0  0  0  0  0  0  0
  151.7307  138.9845  158.6936 H   0  0  0  0  0  0  0  0  0  0  0  0
  152.8483  139.0262  160.0343 H   0  0  0  0  0  0  0  0  0  0  0  0
  151.6296  144.1644  156.8399 H   0  0  0  0  0  0  0  0  0  0  0  0
  151.5791  146.2840  158.1350 H   0  0  0  0  0  0  0  0  0  0  0  0
  152.0365  146.2744  160.5784 H   0  0  0  0  0  0  0  0  0  0  0  0
  152.5549  144.1338  161.7426 H   0  0  0  0  0  0  0  0  0  0  0  0
  152.6545  141.8777  162.3252 H   0  0  0  0  0  0  0  0  0  0  0  0
  152.3742  140.2324  161.8306 H   0  0  0  0  0  0  0  0  0  0  0  0
  155.0605  141.5325  161.2156 H   0  0  0  0  0  0  0  0  0  0  0  0
  154.5715  139.5263  160.3425 H   0  0  0  0  0  0  0  0  0  0  0  0
  154.1790  140.3367  163.8756 H   0  0  0  0  0  0  0  0  0  0  0  0
  155.8708  140.3644  163.3645 H   0  0  0  0  0  0  0  0  0  0  0  0
  154.9889  144.6204  164.6091 H   0  0  0  0  0  0  0  0  0  0  0  0
  155.1770  145.2845  166.9892 H   0  0  0  0  0  0  0  0  0  0  0  0
  155.4986  141.1387  168.1205 H   0  0  0  0  0  0  0  0  0  0  0  0
  155.3146  140.4639  165.7699 H   0  0  0  0  0  0  0  0  0  0  0  0
  1  2  1  0  0  0  0
  1 24  1  0  0  0  0
  2  3  1  0  0  0  0
  2 25  1  0  0  0  0
  2 26  1  0  0  0  0
  3 11  1  0  0  0  0
  3  4  2  0  0  0  0
  4  5  1  0  0  0  0
  5 10  2  0  0  0  0
  5  6  1  0  0  0  0
  6  7  2  0  0  0  0
  6 27  1  0  0  0  0
  7  8  1  0  0  0  0
  7 28  1  0  0  0  0
  8  9  2  0  0  0  0
  8 29  1  0  0  0  0
  9 10  1  0  0  0  0
  9 30  1  0  0  0  0
 10 11  1  0  0  0  0
 11 12  1  0  0  0  0
 12 13  1  0  0  0  0
 12 31  1  0  0  0  0
 12 32  1  0  0  0  0
 13 14  1  0  0  0  0
 13 15  1  0  0  0  0
 13 33  1  0  0  0  0
 14 34  1  0  0  0  0
 15 16  1  0  0  0  0
 15 35  1  0  0  0  0
 15 36  1  0  0  0  0
 16 17  1  0  0  0  0
 17 23  1  0  0  0  0
 17 18  2  0  0  0  0
 18 19  1  0  0  0  0
 18 37  1  0  0  0  0
 19 20  2  0  0  0  0
 19 38  1  0  0  0  0
 20 21  1  0  0  0  0
 20 22  1  0  0  0  0
 22 23  2  0  0  0  0
 22 39  1  0  0  0  0
 23 40  1  0  0  0  0
M  END
> <s_m_source_file>
AV-unprocessed.smi

> <i_m_source_file_index>
2183

> <i_lp_mmshare_version>
43012

> <i_f3d_flags>
0

> <s_epik_input>
W2NIXTFbY0hdW2NIXVtjSF1jKGMxMiluKGMobjIpW0NIMl1bT0hdKVtDSDJdW0NASF0oW09IXSlbQ0gyXU9jM1tjSF1bY0hdYyhDbClbY0hdW2NIXTM=

> <s_epik_cmdline>
J2VwaWtfcHl0aG9uJywgJy1waCcsICc3LjAnLCAnLXRuJywgJzgnLCAnLW1hJywgJzIwMCcsICctbWV0YWxfYmluZGluZycsICctaW1hZScsICc8aW5maWxlLm1hZT4nLCAnLW9tYWUnLCAnPG91dGZpbGUubWFlPic=

> <r_lp_tautomer_probability>
1

> <r_epik_Ionization_Penalty>
0.0586933

> <r_epik_Ionization_Penalty_Charging>
0

> <r_epik_Ionization_Penalty_Neutral>
0.0586933

> <r_epik_State_Penalty>
0.0507031

> <r_epik_Charging_Adjusted_Penalty>
0.0507031

> <i_epik_Tot_Q>
0

> <i_epik_Tot_abs_Q>
0

> <r_epik_Metal_State_Penalty>
5.29335e-05

> <b_epik_Metal_Only>
0

> <s_lp_Force_Field>
OPLS_2005

> <r_lp_Energy>
13.44

> <b_lp_Chiralities_Consistent>
1

> <s_lp_Variant>
AV-unprocessed.smi:2183-1

> <Gold.Version>
5.8.1

> <Gold.Id.Protein>
6NUR|6NUR_protein|mol2

> <Gold.PLP.Fitness>
54.2540

> <Gold.PLP.PLP>
-52.6493

> <Gold.PLP.part.hbond>
-1.5810

> <Gold.PLP.part.metal>
0.0000

> <Gold.PLP.part.buried>
-1.3320

> <Gold.PLP.part.nonpolar>
-48.3860

> <Gold.PLP.part.repulsive>
0.0000

> <Gold.PLP.ligand.clash>
0.0000

> <Gold.PLP.ligand.torsion>
0.7318

> <Gold.PLP.Chemscore.Hbond>
1.0000

> <Gold.PLP.Chemscore.CHOScore>
0.0000

> <Gold.PLP.Chemscore.Metal>
0.0000

> <Gold.Chemscore.Hbonds>
donor molecule, donor type, donor heavy atom, donor atom, acceptor molecule, acceptor atom, score
      P1  H  7997  8010       L1     1  1.00

> <Gold.PLP.Chemscore.Internal.Correction>
0.0684

> <Gold.Rescore>
     Score         DG    S(hbond)    S(metal)    S(lipo)     H(rot)  DE(clash)    DE(int)     intcor
     16.79     -20.06       0.99        0.00     162.84       3.04       2.48       0.79       ----

> <Gold.Chemscore.Fitness>
16.7919

> <Gold.Chemscore.DG>
-20.0594

> <Gold.Chemscore.ZeroCoef>
-5.4800

> <Gold.Chemscore.Hbond>
0.9878

> <Gold.Chemscore.Metal>
0.0000

> <Gold.Chemscore.Lipo>
162.8361

> <Gold.Chemscore.Internal_Hbond>
0.0000

> <Gold.Chemscore.DEClash>
2.4784

> <Gold.Chemscore.DEInternal>
0.7891

> <Gold.Chemscore.Rot>
3.0358

> <Gold.Chemscore.Internal.Correction>
   9.000000E+99

> <Gold.Chemscore.Hbonds>
donor molecule, donor type, donor heavy atom, donor atom, acceptor molecule, acceptor atom, score
      P1  H  7997  8010       L1     1  0.93

> <Gold.Chemscore.Hbond.Weighted>
-3.2992

> <Gold.Chemscore.Metal.Weighted>
-0.0000

> <Gold.Chemscore.Lipo.Weighted>
-19.0518

> <Gold.Chemscore.Internal_Hbond.Weighted>
0.0000

> <Gold.Chemscore.DEClash.Weighted>
2.4784

> <Gold.Chemscore.DEInternal.Weighted>
0.7891

> <Gold.Chemscore.Rot.Weighted>
7.7716

> <Gold.Chemscore.Internal.Correction.Weighted>
   9.000000E+99

> <Gold.Protein.RotatedTorsions>
[ 6907 6896 6895 6894 ] final   95.08 input  -60.11 | X-H torsion
[ 7974 7965 7964 7962 ] final -175.20 input  175.53 | X-H torsion
[ 8008 7997 7996 7995 ] final   26.60 input   59.86 | X-H torsion
[ 10167 10162 10161 10158 ] final  119.94 input  -65.29 | X-H torsion
[ 10718 10713 10712 10709 ] final  -16.07 input   66.30 | X-H torsion
[ 10763 10752 10751 10750 ] final  170.38 input  -60.55 | X-H torsion
[ 11005 11000 10999 10996 ] final   90.63 input  -57.11 | X-H torsion

> <Gold.Protein.ActiveResidues>
 VAL166  LYS551  ARG553  GLY616  TRP617  ASP618  TYR619  PRO620  LYS621  CYS622 
 ASP623  PHE694  ASN695  SER759  ASP760  ASP761  ALA762  ILE779  LEU786  VAL792 
 PHE793  MET794  SER795  GLU796  ALA797  LYS798  CYS799  TRP800  GLU811  SER814 

> <Gold.Protein.RotatedAtoms>
  152.5446  134.1095  159.8352 H   0  0  0  0  0  0  0  0  0  0  0  0  # atno 6907 bound_to 6896
  151.1163  133.5129  159.2611 H   0  0  0  0  0  0  0  0  0  0  0  0  # atno 6908 bound_to 6896
  151.1828  135.0378  159.8854 H   0  0  0  0  0  0  0  0  0  0  0  0  # atno 6909 bound_to 6896
  144.7129  140.1357  143.6395 H   0  0  0  0  0  0  0  0  0  0  0  0  # atno 7974 bound_to 7965
  155.0298  140.3157  155.4762 H   0  0  0  0  0  0  0  0  0  0  0  0  # atno 8008 bound_to 7997
  156.2876  140.2182  156.5362 H   0  0  0  0  0  0  0  0  0  0  0  0  # atno 8009 bound_to 7997
  154.7380  140.0476  157.0773 H   0  0  0  0  0  0  0  0  0  0  0  0  # atno 8010 bound_to 7997
  139.6014  144.7057  151.3054 H   0  0  0  0  0  0  0  0  0  0  0  0  # atno 10167 bound_to 10162
  156.5927  130.4803  149.6272 H   0  0  0  0  0  0  0  0  0  0  0  0  # atno 10718 bound_to 10713
  154.3968  135.2754  155.2121 H   0  0  0  0  0  0  0  0  0  0  0  0  # atno 10763 bound_to 10752
  154.4164  135.6010  153.5987 H   0  0  0  0  0  0  0  0  0  0  0  0  # atno 10764 bound_to 10752
  152.9831  135.5962  154.4230 H   0  0  0  0  0  0  0  0  0  0  0  0  # atno 10765 bound_to 10752
  139.8852  134.8625  156.3313 H   0  0  0  0  0  0  0  0  0  0  0  0  # atno 11005 bound_to 11000
  145.9247  139.2568  143.1361 LP  0  0  0  0  0  0  0  0  0  0  0  0  # atno 17320 bound_to 7965
  145.9584  140.8854  143.0223 LP  0  0  0  0  0  0  0  0  0  0  0  0  # atno 17321 bound_to 7965
  140.7252  143.7023  150.7835 LP  0  0  0  0  0  0  0  0  0  0  0  0  # atno 17342 bound_to 10162
  140.0600  143.5164  152.2632 LP  0  0  0  0  0  0  0  0  0  0  0  0  # atno 17343 bound_to 10162
  156.2536  130.6921  151.1667 LP  0  0  0  0  0  0  0  0  0  0  0  0  # atno 17370 bound_to 10713
  157.7299  131.0620  150.5750 LP  0  0  0  0  0  0  0  0  0  0  0  0  # atno 17371 bound_to 10713
  140.9721  133.7321  156.0549 LP  0  0  0  0  0  0  0  0  0  0  0  0  # atno 17394 bound_to 11000
  140.7857  134.3674  157.5477 LP  0  0  0  0  0  0  0  0  0  0  0  0  # atno 17395 bound_to 11000

$$$$
