AV-unprocessed.smi:579|AV-procd|sdf|2987|dock3
  -GOLD-   2262023493D 1   1.00000     0.00000
 Structure written by MMmdl.
 26 27  0  0  0  0  0  0  0  0  1 V2000
  150.5454  137.8428  153.5094 N   0  0  0  0  0  0  0  0  0  0  0  0
  150.8087  138.7970  154.4909 C   0  0  0  0  0  0  0  0  0  0  0  0
  149.7568  139.4514  155.1614 C   0  0  0  0  0  0  0  0  0  0  0  0
  150.0713  140.4077  156.1459 C   0  0  0  0  0  0  0  0  0  0  0  0
  151.4285  140.6750  156.4233 C   0  0  0  0  0  0  0  0  0  0  0  0
  151.7465  141.6248  157.4042 N   0  0  0  0  0  0  0  0  0  0  0  0
  151.0177  142.8782  157.2539 C   0  0  0  0  0  0  0  0  0  0  0  0
  151.5153  143.9032  158.2877 C   0  0  0  0  0  0  0  0  0  0  0  0
  151.3935  143.3581  159.5986 O   0  0  0  0  0  0  0  0  0  0  0  0
  152.1667  142.1719  159.7594 C   0  0  0  0  0  0  0  0  0  0  0  0
  151.6842  141.1030  158.7639 C   0  0  0  0  0  0  0  0  0  0  0  0
  152.4430  140.0476  155.7800 N   0  0  0  0  0  0  0  0  0  0  0  0
  152.1337  139.1315  154.8376 C   0  0  0  0  0  0  0  0  0  0  0  0
  151.2915  137.3673  153.0222 H   0  0  0  0  0  0  0  0  0  0  0  0
  149.6001  137.5897  153.2589 H   0  0  0  0  0  0  0  0  0  0  0  0
  148.7260  139.2270  154.9285 H   0  0  0  0  0  0  0  0  0  0  0  0
  149.2850  140.9248  156.6763 H   0  0  0  0  0  0  0  0  0  0  0  0
  151.1546  143.2671  156.2442 H   0  0  0  0  0  0  0  0  0  0  0  0
  149.9496  142.7034  157.3915 H   0  0  0  0  0  0  0  0  0  0  0  0
  152.5526  144.1801  158.0924 H   0  0  0  0  0  0  0  0  0  0  0  0
  150.9242  144.8170  158.2262 H   0  0  0  0  0  0  0  0  0  0  0  0
  153.2252  142.3921  159.6111 H   0  0  0  0  0  0  0  0  0  0  0  0
  152.0562  141.8112  160.7821 H   0  0  0  0  0  0  0  0  0  0  0  0
  150.6604  140.8118  159.0024 H   0  0  0  0  0  0  0  0  0  0  0  0
  152.3026  140.2081  158.8451 H   0  0  0  0  0  0  0  0  0  0  0  0
  152.9697  138.6534  154.3481 H   0  0  0  0  0  0  0  0  0  0  0  0
  1  2  1  0  0  0  0
  1 14  1  0  0  0  0
  1 15  1  0  0  0  0
  2 13  1  0  0  0  0
  2  3  2  0  0  0  0
  3  4  1  0  0  0  0
  3 16  1  0  0  0  0
  4  5  2  0  0  0  0
  4 17  1  0  0  0  0
  5  6  1  0  0  0  0
  5 12  1  0  0  0  0
  6 11  1  0  0  0  0
  6  7  1  0  0  0  0
  7  8  1  0  0  0  0
  7 18  1  0  0  0  0
  7 19  1  0  0  0  0
  8  9  1  0  0  0  0
  8 20  1  0  0  0  0
  8 21  1  0  0  0  0
  9 10  1  0  0  0  0
 10 11  1  0  0  0  0
 10 22  1  0  0  0  0
 10 23  1  0  0  0  0
 11 24  1  0  0  0  0
 11 25  1  0  0  0  0
 12 13  2  0  0  0  0
 13 26  1  0  0  0  0
M  END
> <s_m_source_file>
AV-unprocessed.smi

> <i_m_source_file_index>
579

> <i_lp_mmshare_version>
43012

> <i_f3d_flags>
0

> <s_epik_input>
W05IMl1jMVtjSF1bY0hdYyhuW2NIXTEpTjJbQ0gyXVtDSDJdT1tDSDJdW0NIMl0y

> <s_epik_cmdline>
J2VwaWtfcHl0aG9uJywgJy1waCcsICc3LjAnLCAnLXRuJywgJzgnLCAnLW1hJywgJzIwMCcsICctbWV0YWxfYmluZGluZycsICctaW1hZScsICc8aW5maWxlLm1hZT4nLCAnLW9tYWUnLCAnPG91dGZpbGUubWFlPic=

> <r_lp_tautomer_probability>
1

> <r_epik_Ionization_Penalty>
0.00957298

> <r_epik_Ionization_Penalty_Charging>
0

> <r_epik_Ionization_Penalty_Neutral>
0.00957298

> <r_epik_State_Penalty>
0.00726246

> <r_epik_Charging_Adjusted_Penalty>
0.00726246

> <i_epik_Tot_Q>
0

> <i_epik_Tot_abs_Q>
0

> <r_epik_Metal_State_Penalty>
7.30711e-06

> <b_epik_Metal_Only>
0

> <s_lp_Force_Field>
OPLS_2005

> <r_lp_Energy>
21.013

> <b_lp_Chiralities_Consistent>
1

> <s_lp_Variant>
AV-unprocessed.smi:579-1

> <Gold.Version>
5.8.1

> <Gold.Id.Protein>
6NUR|6NUR_protein|mol2

> <Gold.PLP.Fitness>
31.2047

> <Gold.PLP.PLP>
-25.7379

> <Gold.PLP.part.hbond>
-3.0000

> <Gold.PLP.part.metal>
0.0000

> <Gold.PLP.part.buried>
-0.5510

> <Gold.PLP.part.nonpolar>
-21.5541

> <Gold.PLP.part.repulsive>
0.1227

> <Gold.PLP.ligand.clash>
0.0000

> <Gold.PLP.ligand.torsion>
0.4240

> <Gold.PLP.Chemscore.Hbond>
2.0709

> <Gold.PLP.Chemscore.CHOScore>
0.0000

> <Gold.PLP.Chemscore.Metal>
0.0000

> <Gold.Chemscore.Hbonds>
donor molecule, donor type, donor heavy atom, donor atom, acceptor molecule, acceptor atom, score
      L1  H     1    14       P1  7949  0.53
      L1  H     1    15       P1  7948  0.54
      P1  H  7997  8008       L1    12  1.00

> <Gold.PLP.Chemscore.Internal.Correction>
0.1023

> <Gold.Rescore>
     Score         DG    S(hbond)    S(metal)    S(lipo)     H(rot)  DE(clash)    DE(int)     intcor
     15.76     -16.57       1.75        0.00      66.55       1.00       0.72       0.08       ----

> <Gold.Chemscore.Fitness>
15.7639

> <Gold.Chemscore.DG>
-16.5658

> <Gold.Chemscore.ZeroCoef>
-5.4800

> <Gold.Chemscore.Hbond>
1.7542

> <Gold.Chemscore.Metal>
0.0000

> <Gold.Chemscore.Lipo>
66.5535

> <Gold.Chemscore.Internal_Hbond>
0.0000

> <Gold.Chemscore.DEClash>
0.7192

> <Gold.Chemscore.DEInternal>
0.0827

> <Gold.Chemscore.Rot>
1.0000

> <Gold.Chemscore.Internal.Correction>
   9.000000E+99

> <Gold.Chemscore.Hbonds>
donor molecule, donor type, donor heavy atom, donor atom, acceptor molecule, acceptor atom, score
      L1  H     1    14       P1  7949  0.36
      L1  H     1    15       P1  7948  0.42
      P1  H  7997  8008       L1    12  0.70

> <Gold.Chemscore.Hbond.Weighted>
-5.8590

> <Gold.Chemscore.Metal.Weighted>
-0.0000

> <Gold.Chemscore.Lipo.Weighted>
-7.7868

> <Gold.Chemscore.Internal_Hbond.Weighted>
0.0000

> <Gold.Chemscore.DEClash.Weighted>
0.7192

> <Gold.Chemscore.DEInternal.Weighted>
0.0827

> <Gold.Chemscore.Rot.Weighted>
2.5600

> <Gold.Chemscore.Internal.Correction.Weighted>
   9.000000E+99

> <Gold.Protein.RotatedTorsions>
[ 6907 6896 6895 6894 ] final -130.20 input  -60.11 | X-H torsion
[ 7974 7965 7964 7962 ] final -128.40 input  175.53 | X-H torsion
[ 8008 7997 7996 7995 ] final  -18.87 input   59.86 | X-H torsion
[ 10167 10162 10161 10158 ] final  -64.80 input  -65.29 | X-H torsion
[ 10718 10713 10712 10709 ] final  140.81 input   66.30 | X-H torsion
[ 10763 10752 10751 10750 ] final  -55.33 input  -60.55 | X-H torsion
[ 11005 11000 10999 10996 ] final   24.03 input  -57.11 | X-H torsion

> <Gold.Protein.ActiveResidues>
 VAL166  LYS551  ARG553  GLY616  TRP617  ASP618  TYR619  PRO620  LYS621  CYS622 
 ASP623  PHE694  ASN695  SER759  ASP760  ASP761  ALA762  ILE779  LEU786  VAL792 
 PHE793  MET794  SER795  GLU796  ALA797  LYS798  CYS799  TRP800  GLU811  SER814 

> <Gold.Protein.RotatedAtoms>
  150.9370  133.6700  159.2798 H   0  0  0  0  0  0  0  0  0  0  0  0  # atno 6907 bound_to 6896
  151.4102  135.0982  159.9592 H   0  0  0  0  0  0  0  0  0  0  0  0  # atno 6908 bound_to 6896
  152.5052  133.8845  159.7418 H   0  0  0  0  0  0  0  0  0  0  0  0  # atno 6909 bound_to 6896
  144.9675  140.7511  143.4691 H   0  0  0  0  0  0  0  0  0  0  0  0  # atno 7974 bound_to 7965
  154.4876  140.2104  155.9621 H   0  0  0  0  0  0  0  0  0  0  0  0  # atno 8008 bound_to 7997
  156.1258  140.3205  155.8244 H   0  0  0  0  0  0  0  0  0  0  0  0  # atno 8009 bound_to 7997
  155.4386  140.0508  157.3003 H   0  0  0  0  0  0  0  0  0  0  0  0  # atno 8010 bound_to 7997
  140.5775  143.2323  151.6412 H   0  0  0  0  0  0  0  0  0  0  0  0  # atno 10167 bound_to 10162
  157.3991  131.1014  151.0569 H   0  0  0  0  0  0  0  0  0  0  0  0  # atno 10718 bound_to 10713
  154.1890  135.6430  153.5055 H   0  0  0  0  0  0  0  0  0  0  0  0  # atno 10763 bound_to 10752
  153.0040  135.5424  154.6434 H   0  0  0  0  0  0  0  0  0  0  0  0  # atno 10764 bound_to 10752
  154.5818  135.2926  155.0697 H   0  0  0  0  0  0  0  0  0  0  0  0  # atno 10765 bound_to 10752
  140.3632  134.2103  155.7671 H   0  0  0  0  0  0  0  0  0  0  0  0  # atno 11005 bound_to 11000
  145.2609  139.1993  143.4893 LP  0  0  0  0  0  0  0  0  0  0  0  0  # atno 17320 bound_to 7965
  146.3372  140.2538  142.8599 LP  0  0  0  0  0  0  0  0  0  0  0  0  # atno 17321 bound_to 7965
  139.5151  144.3390  152.0757 LP  0  0  0  0  0  0  0  0  0  0  0  0  # atno 17342 bound_to 10162
  140.2535  144.4143  150.6212 LP  0  0  0  0  0  0  0  0  0  0  0  0  # atno 17343 bound_to 10162
  157.1575  130.6211  149.5600 LP  0  0  0  0  0  0  0  0  0  0  0  0  # atno 17370 bound_to 10713
  155.9818  130.4828  150.6849 LP  0  0  0  0  0  0  0  0  0  0  0  0  # atno 17371 bound_to 10713
  141.1978  133.8051  157.0613 LP  0  0  0  0  0  0  0  0  0  0  0  0  # atno 17394 bound_to 11000
  140.0610  134.9754  157.1305 LP  0  0  0  0  0  0  0  0  0  0  0  0  # atno 17395 bound_to 11000

$$$$
