AV-unprocessed.smi:2467|AV-procd|sdf|9726|dock8
  -GOLD-   2272013363D 1   1.00000     0.00000
 Structure written by MMmdl.
 46 47  0  0  0  0  0  0  0  0  1 V2000
  150.2693  141.6481  158.0313 C   0  0  0  0  0  0  0  0  0  0  0  0
  150.5472  142.2561  156.6480 C   0  0  0  0  0  0  0  0  0  0  0  0
  150.1298  141.3548  155.4584 C   0  0  0  0  0  0  0  0  0  0  0  0
  148.5887  141.3185  155.3011 C   0  0  0  0  0  0  0  0  0  0  0  0
  148.0248  142.3087  154.2706 C   0  0  0  0  0  0  0  0  0  0  0  0
  150.7219  139.9247  155.5684 C   0  0  1  0  0  0  0  0  0  0  0  0
  149.9213  138.9692  156.4815 C   0  0  0  0  0  0  0  0  0  0  0  0
  150.5921  137.5887  156.5327 C   0  0  1  0  0  0  0  0  0  0  0  0
  149.7656  136.6619  157.2998 N   0  0  0  0  0  0  0  0  0  0  0  0
  149.3816  136.8294  158.5761 C   0  0  0  0  0  0  0  0  0  0  0  0
  149.6898  137.8196  159.2379 O   0  0  0  0  0  0  0  0  0  0  0  0
  148.6277  135.8444  159.1104 N   0  0  0  0  0  0  0  0  0  0  0  0
  148.0536  135.6869  160.4065 C   0  0  0  0  0  0  0  0  0  0  0  0
  147.3178  134.4921  160.5777 C   0  0  0  0  0  0  0  0  0  0  0  0
  146.6972  134.2263  161.8135 C   0  0  0  0  0  0  0  0  0  0  0  0
  146.8267  135.1651  162.8519 C   0  0  0  0  0  0  0  0  0  0  0  0
  147.5747  136.3300  162.6020 C   0  0  0  0  0  0  0  0  0  0  0  0
  148.1700  136.5855  161.4177 N   0  0  0  0  0  0  0  0  0  0  0  0
  150.8006  137.0742  155.0988 C   0  0  0  0  0  0  0  0  0  0  0  0
  151.5420  138.1188  154.2495 C   0  0  0  0  0  0  0  0  0  0  0  0
  150.8384  139.3567  154.2653 O   0  0  0  0  0  0  0  0  0  0  0  0
  150.5086  142.3641  158.8180 H   0  0  0  0  0  0  0  0  0  0  0  0
  150.8659  140.7562  158.2174 H   0  0  0  0  0  0  0  0  0  0  0  0
  149.2179  141.3802  158.1399 H   0  0  0  0  0  0  0  0  0  0  0  0
  150.0140  143.2035  156.6098 H   0  0  0  0  0  0  0  0  0  0  0  0
  151.6045  142.5109  156.5666 H   0  0  0  0  0  0  0  0  0  0  0  0
  150.5396  141.8030  154.5520 H   0  0  0  0  0  0  0  0  0  0  0  0
  148.2639  140.3075  155.0522 H   0  0  0  0  0  0  0  0  0  0  0  0
  148.1154  141.5520  156.2533 H   0  0  0  0  0  0  0  0  0  0  0  0
  146.9349  142.3080  154.2978 H   0  0  0  0  0  0  0  0  0  0  0  0
  148.3186  142.0564  153.2525 H   0  0  0  0  0  0  0  0  0  0  0  0
  148.3578  143.3262  154.4773 H   0  0  0  0  0  0  0  0  0  0  0  0
  151.7212  139.9998  155.9961 H   0  0  0  0  0  0  0  0  0  0  0  0
  149.8489  139.3859  157.4867 H   0  0  0  0  0  0  0  0  0  0  0  0
  148.9009  138.8518  156.1186 H   0  0  0  0  0  0  0  0  0  0  0  0
  151.5634  137.6966  157.0193 H   0  0  0  0  0  0  0  0  0  0  0  0
  149.4686  135.8186  156.8289 H   0  0  0  0  0  0  0  0  0  0  0  0
  148.4111  135.0959  158.4688 H   0  0  0  0  0  0  0  0  0  0  0  0
  147.2265  133.7800  159.7699 H   0  0  0  0  0  0  0  0  0  0  0  0
  146.1313  133.3182  161.9606 H   0  0  0  0  0  0  0  0  0  0  0  0
  146.3652  134.9970  163.8138 H   0  0  0  0  0  0  0  0  0  0  0  0
  147.6990  137.0766  163.3723 H   0  0  0  0  0  0  0  0  0  0  0  0
  151.3597  136.1378  155.1069 H   0  0  0  0  0  0  0  0  0  0  0  0
  149.8353  136.8580  154.6387 H   0  0  0  0  0  0  0  0  0  0  0  0
  152.5603  138.2631  154.6139 H   0  0  0  0  0  0  0  0  0  0  0  0
  151.6211  137.7736  153.2185 H   0  0  0  0  0  0  0  0  0  0  0  0
  1  2  1  0  0  0  0
  1 22  1  0  0  0  0
  1 23  1  0  0  0  0
  1 24  1  0  0  0  0
  2  3  1  0  0  0  0
  2 25  1  0  0  0  0
  2 26  1  0  0  0  0
  3  4  1  0  0  0  0
  3  6  1  0  0  0  0
  3 27  1  0  0  0  0
  4  5  1  0  0  0  0
  4 28  1  0  0  0  0
  4 29  1  0  0  0  0
  5 30  1  0  0  0  0
  5 31  1  0  0  0  0
  5 32  1  0  0  0  0
  6 21  1  0  0  0  0
  6  7  1  0  0  0  0
  6 33  1  0  0  0  0
  7  8  1  0  0  0  0
  7 34  1  0  0  0  0
  7 35  1  0  0  0  0
  8  9  1  0  0  0  0
  8 19  1  0  0  0  0
  8 36  1  0  0  0  0
  9 10  1  0  0  0  0
  9 37  1  0  0  0  0
 10 11  2  0  0  0  0
 10 12  1  0  0  0  0
 12 13  1  0  0  0  0
 12 38  1  0  0  0  0
 13 18  1  0  0  0  0
 13 14  2  0  0  0  0
 14 15  1  0  0  0  0
 14 39  1  0  0  0  0
 15 16  2  0  0  0  0
 15 40  1  0  0  0  0
 16 17  1  0  0  0  0
 16 41  1  0  0  0  0
 17 18  2  0  0  0  0
 17 42  1  0  0  0  0
 19 20  1  0  0  0  0
 19 43  1  0  0  0  0
 19 44  1  0  0  0  0
 20 21  1  0  0  0  0
 20 45  1  0  0  0  0
 20 46  1  0  0  0  0
M  END
> <s_m_source_file>
AV-unprocessed.smi

> <i_m_source_file_index>
2467

> <i_lp_mmshare_version>
43012

> <i_f3d_flags>
0

> <s_epik_input>
W0NIM11bQ0gyXVtDSF0oW0NIMl1bQ0gzXSlbQ0BASF0xW0NIMl1bQ0BIXShbQ0gyXVtDSDJdTzEpW05IXUMoPU8pW05IXWMyW2NIXVtjSF1bY0hdW2NIXW4y

> <s_epik_cmdline>
J2VwaWtfcHl0aG9uJywgJy1waCcsICc3LjAnLCAnLXRuJywgJzgnLCAnLW1hJywgJzIwMCcsICctbWV0YWxfYmluZGluZycsICctaW1hZScsICc8aW5maWxlLm1hZT4nLCAnLW9tYWUnLCAnPG91dGZpbGUubWFlPic=

> <r_lp_tautomer_probability>
1

> <r_epik_Ionization_Penalty>
4.80427e-05

> <r_epik_Ionization_Penalty_Charging>
0

> <r_epik_Ionization_Penalty_Neutral>
4.80427e-05

> <r_epik_State_Penalty>
-0

> <r_epik_Charging_Adjusted_Penalty>
0

> <i_epik_Tot_Q>
0

> <i_epik_Tot_abs_Q>
0

> <r_epik_Metal_State_Penalty>
-0

> <b_epik_Metal_Only>
0

> <s_lp_Force_Field>
OPLS_2005

> <r_lp_Energy>
20.6132

> <b_lp_Chiralities_Consistent>
1

> <s_lp_Variant>
AV-unprocessed.smi:2467-2

> <Gold.Version>
5.8.1

> <Gold.Id.Protein>
6NUR|6NUR_protein|mol2

> <Gold.PLP.Fitness>
43.2506

> <Gold.PLP.PLP>
-39.2378

> <Gold.PLP.part.hbond>
-3.0000

> <Gold.PLP.part.metal>
0.0000

> <Gold.PLP.part.buried>
-2.7968

> <Gold.PLP.part.nonpolar>
-33.6458

> <Gold.PLP.part.repulsive>
0.3396

> <Gold.PLP.ligand.clash>
0.0000

> <Gold.PLP.ligand.torsion>
1.0367

> <Gold.PLP.Chemscore.Hbond>
2.0000

> <Gold.PLP.Chemscore.CHOScore>
0.0000

> <Gold.PLP.Chemscore.Metal>
0.0000

> <Gold.Chemscore.Hbonds>
donor molecule, donor type, donor heavy atom, donor atom, acceptor molecule, acceptor atom, score
      P1  H  6931  6943       L1    18  0.90
      P1  H  7989  7998       L1    21  0.80

> <Gold.PLP.Chemscore.Internal.Correction>
0.0863

> <Gold.Rescore>
     Score         DG    S(hbond)    S(metal)    S(lipo)     H(rot)  DE(clash)    DE(int)     intcor
     12.74     -17.13       1.53        0.00      88.45       1.49       0.21       4.18       ----

> <Gold.Chemscore.Fitness>
12.7355

> <Gold.Chemscore.DG>
-17.1273

> <Gold.Chemscore.ZeroCoef>
-5.4800

> <Gold.Chemscore.Hbond>
1.5274

> <Gold.Chemscore.Metal>
0.0000

> <Gold.Chemscore.Lipo>
88.4505

> <Gold.Chemscore.Internal_Hbond>
0.0000

> <Gold.Chemscore.DEClash>
0.2145

> <Gold.Chemscore.DEInternal>
4.1773

> <Gold.Chemscore.Rot>
1.4856

> <Gold.Chemscore.Internal.Correction>
   9.000000E+99

> <Gold.Chemscore.Hbonds>
donor molecule, donor type, donor heavy atom, donor atom, acceptor molecule, acceptor atom, score
      P1  H  6931  6943       L1    18  0.18
      P1  H  7989  7998       L1    21  0.11

> <Gold.Chemscore.Hbond.Weighted>
-5.1017

> <Gold.Chemscore.Metal.Weighted>
-0.0000

> <Gold.Chemscore.Lipo.Weighted>
-10.3487

> <Gold.Chemscore.Internal_Hbond.Weighted>
0.0000

> <Gold.Chemscore.DEClash.Weighted>
0.2145

> <Gold.Chemscore.DEInternal.Weighted>
4.1773

> <Gold.Chemscore.Rot.Weighted>
3.8031

> <Gold.Chemscore.Internal.Correction.Weighted>
   9.000000E+99

> <Gold.Protein.RotatedTorsions>
[ 6907 6896 6895 6894 ] final  171.84 input  -60.11 | X-H torsion
[ 7974 7965 7964 7962 ] final  -89.43 input  175.53 | X-H torsion
[ 8008 7997 7996 7995 ] final  -96.41 input   59.86 | X-H torsion
[ 10167 10162 10161 10158 ] final  177.91 input  -65.29 | X-H torsion
[ 10718 10713 10712 10709 ] final  168.94 input   66.30 | X-H torsion
[ 10763 10752 10751 10750 ] final  -50.33 input  -60.55 | X-H torsion
[ 11005 11000 10999 10996 ] final   82.67 input  -57.11 | X-H torsion

> <Gold.Protein.ActiveResidues>
 VAL166  LYS551  ARG553  GLY616  TRP617  ASP618  TYR619  PRO620  LYS621  CYS622 
 ASP623  PHE694  ASN695  SER759  ASP760  ASP761  ALA762  ILE779  LEU786  VAL792 
 PHE793  MET794  SER795  GLU796  ALA797  LYS798  CYS799  TRP800  GLU811  SER814 

> <Gold.Protein.RotatedAtoms>
  151.7939  133.3362  159.3506 H   0  0  0  0  0  0  0  0  0  0  0  0  # atno 6907 bound_to 6896
  150.7382  134.5817  159.5951 H   0  0  0  0  0  0  0  0  0  0  0  0  # atno 6908 bound_to 6896
  152.3191  134.7404  160.0369 H   0  0  0  0  0  0  0  0  0  0  0  0  # atno 6909 bound_to 6896
  145.4399  140.9558  143.2081 H   0  0  0  0  0  0  0  0  0  0  0  0  # atno 7974 bound_to 7965
  154.7740  140.0471  157.1074 H   0  0  0  0  0  0  0  0  0  0  0  0  # atno 8008 bound_to 7997
  154.9785  140.3098  155.4937 H   0  0  0  0  0  0  0  0  0  0  0  0  # atno 8009 bound_to 7997
  156.2926  140.2240  156.4882 H   0  0  0  0  0  0  0  0  0  0  0  0  # atno 8010 bound_to 7997
  139.5272  144.2742  152.0602 H   0  0  0  0  0  0  0  0  0  0  0  0  # atno 10167 bound_to 10162
  157.0299  131.0256  151.2748 H   0  0  0  0  0  0  0  0  0  0  0  0  # atno 10718 bound_to 10713
  154.1086  135.6552  153.4881 H   0  0  0  0  0  0  0  0  0  0  0  0  # atno 10763 bound_to 10752
  153.0264  135.5242  154.7214 H   0  0  0  0  0  0  0  0  0  0  0  0  # atno 10764 bound_to 10752
  154.6388  135.2985  155.0098 H   0  0  0  0  0  0  0  0  0  0  0  0  # atno 10765 bound_to 10752
  139.9056  134.8088  156.2205 H   0  0  0  0  0  0  0  0  0  0  0  0  # atno 11005 bound_to 11000
  144.8128  139.5930  143.7021 LP  0  0  0  0  0  0  0  0  0  0  0  0  # atno 17320 bound_to 7965
  146.2562  139.6308  142.9393 LP  0  0  0  0  0  0  0  0  0  0  0  0  # atno 17321 bound_to 7965
  140.2200  144.4476  150.6346 LP  0  0  0  0  0  0  0  0  0  0  0  0  # atno 17342 bound_to 10162
  140.6425  143.2206  151.6259 LP  0  0  0  0  0  0  0  0  0  0  0  0  # atno 17343 bound_to 10162
  157.5185  130.7983  149.7783 LP  0  0  0  0  0  0  0  0  0  0  0  0  # atno 17370 bound_to 10713
  156.0073  130.3849  150.2386 LP  0  0  0  0  0  0  0  0  0  0  0  0  # atno 17371 bound_to 10713
  141.0408  133.6939  156.1595 LP  0  0  0  0  0  0  0  0  0  0  0  0  # atno 17394 bound_to 11000
  140.6958  134.4617  157.5587 LP  0  0  0  0  0  0  0  0  0  0  0  0  # atno 17395 bound_to 11000

$$$$
