AV-unprocessed.smi:2987|AV-procd|sdf|11385|dock4
  -GOLD-   2272016313D 1   1.00000     0.00000
 Structure written by MMmdl.
 25 26  0  0  0  0  0  0  0  0  1 V2000
  151.0776  145.5987  160.0989 C   0  0  0  0  0  0  0  0  0  0  0  0
  151.8734  144.3599  160.3620 C   0  0  0  0  0  0  0  0  0  0  0  0
  152.3014  144.0326  161.5815 N   0  0  0  0  0  0  0  0  0  0  0  0
  152.9771  142.8481  161.3571 C   0  0  0  0  0  0  0  0  0  0  0  0
  153.6644  141.9981  162.2528 C   0  0  0  0  0  0  0  0  0  0  0  0
  154.2906  140.8242  161.7846 C   0  0  0  0  0  0  0  0  0  0  0  0
  154.2396  140.4843  160.4171 C   0  0  0  0  0  0  0  0  0  0  0  0
  153.5597  141.3169  159.5076 C   0  0  0  0  0  0  0  0  0  0  0  0
  152.9355  142.4866  159.9803 C   0  0  0  0  0  0  0  0  0  0  0  0
  152.2041  143.4992  159.3686 N   0  0  0  0  0  0  0  0  0  0  0  0
  151.8830  143.5959  157.9542 C   0  0  0  0  0  0  0  0  0  0  0  0
  151.0693  142.3846  157.4788 C   0  0  0  0  0  0  0  0  0  0  0  0
  150.5342  142.6423  156.1993 O   0  0  0  0  0  0  0  0  0  0  0  0
  151.0057  146.2062  161.0017 H   0  0  0  0  0  0  0  0  0  0  0  0
  150.0687  145.3364  159.7796 H   0  0  0  0  0  0  0  0  0  0  0  0
  151.5511  146.1967  159.3200 H   0  0  0  0  0  0  0  0  0  0  0  0
  153.7106  142.2503  163.3018 H   0  0  0  0  0  0  0  0  0  0  0  0
  154.8126  140.1813  162.4782 H   0  0  0  0  0  0  0  0  0  0  0  0
  154.7225  139.5838  160.0668 H   0  0  0  0  0  0  0  0  0  0  0  0
  153.5187  141.0597  158.4597 H   0  0  0  0  0  0  0  0  0  0  0  0
  151.3211  144.5164  157.7905 H   0  0  0  0  0  0  0  0  0  0  0  0
  152.8046  143.6926  157.3798 H   0  0  0  0  0  0  0  0  0  0  0  0
  151.6938  141.4920  157.4299 H   0  0  0  0  0  0  0  0  0  0  0  0
  150.2522  142.1742  158.1695 H   0  0  0  0  0  0  0  0  0  0  0  0
  150.1944  143.5242  156.1879 H   0  0  0  0  0  0  0  0  0  0  0  0
  1  2  1  0  0  0  0
  1 14  1  0  0  0  0
  1 15  1  0  0  0  0
  1 16  1  0  0  0  0
  2 10  1  0  0  0  0
  2  3  2  0  0  0  0
  3  4  1  0  0  0  0
  4  9  2  0  0  0  0
  4  5  1  0  0  0  0
  5  6  2  0  0  0  0
  5 17  1  0  0  0  0
  6  7  1  0  0  0  0
  6 18  1  0  0  0  0
  7  8  2  0  0  0  0
  7 19  1  0  0  0  0
  8  9  1  0  0  0  0
  8 20  1  0  0  0  0
  9 10  1  0  0  0  0
 10 11  1  0  0  0  0
 11 12  1  0  0  0  0
 11 21  1  0  0  0  0
 11 22  1  0  0  0  0
 12 13  1  0  0  0  0
 12 23  1  0  0  0  0
 12 24  1  0  0  0  0
 13 25  1  0  0  0  0
M  END
> <s_m_source_file>
AV-unprocessed.smi

> <i_m_source_file_index>
2987

> <i_lp_mmshare_version>
43012

> <i_f3d_flags>
0

> <s_epik_input>
W09IXVtDSDJdW0NIMl1uKGMobjEpW0NIM10pYyhjMTIpW2NIXVtjSF1bY0hdW2NIXTI=

> <s_epik_cmdline>
J2VwaWtfcHl0aG9uJywgJy1waCcsICc3LjAnLCAnLXRuJywgJzgnLCAnLW1hJywgJzIwMCcsICctbWV0YWxfYmluZGluZycsICctaW1hZScsICc8aW5maWxlLm1hZT4nLCAnLW9tYWUnLCAnPG91dGZpbGUubWFlPic=

> <r_epik_Ionization_Penalty>
0.129663

> <r_epik_Ionization_Penalty_Charging>
0

> <r_epik_Ionization_Penalty_Neutral>
0.129663

> <r_epik_State_Penalty>
0.119073

> <r_epik_Charging_Adjusted_Penalty>
0.119073

> <i_epik_Tot_Q>
0

> <i_epik_Tot_abs_Q>
0

> <r_epik_Metal_State_Penalty>
0.000131867

> <b_epik_Metal_Only>
0

> <s_lp_Force_Field>
OPLS_2005

> <r_lp_Energy>
7.88102

> <b_lp_Chiralities_Consistent>
1

> <s_lp_Variant>
AV-unprocessed.smi:2987-1

> <Gold.Version>
5.8.1

> <Gold.Id.Protein>
6NUR|6NUR_protein|mol2

> <Gold.PLP.Fitness>
41.7103

> <Gold.PLP.PLP>
-38.7896

> <Gold.PLP.part.hbond>
-1.0000

> <Gold.PLP.part.metal>
0.0000

> <Gold.PLP.part.buried>
-3.8188

> <Gold.PLP.part.nonpolar>
-33.8475

> <Gold.PLP.part.repulsive>
0.1555

> <Gold.PLP.ligand.clash>
0.0000

> <Gold.PLP.ligand.torsion>
0.0397

> <Gold.PLP.Chemscore.Hbond>
1.0000

> <Gold.PLP.Chemscore.CHOScore>
0.0000

> <Gold.PLP.Chemscore.Metal>
0.0000

> <Gold.Chemscore.Hbonds>
donor molecule, donor type, donor heavy atom, donor atom, acceptor molecule, acceptor atom, score
      L1  H    13    25       P1  8028  1.00

> <Gold.PLP.Chemscore.Internal.Correction>
0.0001

> <Gold.Rescore>
     Score         DG    S(hbond)    S(metal)    S(lipo)     H(rot)  DE(clash)    DE(int)     intcor
     15.29     -15.45       0.99        0.00      94.13       1.70       0.14       0.01       ----

> <Gold.Chemscore.Fitness>
15.2926

> <Gold.Chemscore.DG>
-15.4465

> <Gold.Chemscore.ZeroCoef>
-5.4800

> <Gold.Chemscore.Hbond>
0.9912

> <Gold.Chemscore.Metal>
0.0000

> <Gold.Chemscore.Lipo>
94.1349

> <Gold.Chemscore.Internal_Hbond>
0.0000

> <Gold.Chemscore.DEClash>
0.1402

> <Gold.Chemscore.DEInternal>
0.0136

> <Gold.Chemscore.Rot>
1.7023

> <Gold.Chemscore.Internal.Correction>
   9.000000E+99

> <Gold.Chemscore.Hbonds>
donor molecule, donor type, donor heavy atom, donor atom, acceptor molecule, acceptor atom, score
      L1  H    13    25       P1  8028  0.94

> <Gold.Chemscore.Hbond.Weighted>
-3.3106

> <Gold.Chemscore.Metal.Weighted>
-0.0000

> <Gold.Chemscore.Lipo.Weighted>
-11.0138

> <Gold.Chemscore.Internal_Hbond.Weighted>
0.0000

> <Gold.Chemscore.DEClash.Weighted>
0.1402

> <Gold.Chemscore.DEInternal.Weighted>
0.0136

> <Gold.Chemscore.Rot.Weighted>
4.3579

> <Gold.Chemscore.Internal.Correction.Weighted>
   9.000000E+99

> <Gold.Protein.RotatedTorsions>
[ 6907 6896 6895 6894 ] final -129.59 input  -60.11 | X-H torsion
[ 7974 7965 7964 7962 ] final   68.11 input  175.53 | X-H torsion
[ 8008 7997 7996 7995 ] final  128.09 input   59.86 | X-H torsion
[ 10167 10162 10161 10158 ] final  -44.46 input  -65.29 | X-H torsion
[ 10718 10713 10712 10709 ] final -110.80 input   66.30 | X-H torsion
[ 10763 10752 10751 10750 ] final    6.46 input  -60.55 | X-H torsion
[ 11005 11000 10999 10996 ] final  140.70 input  -57.11 | X-H torsion

> <Gold.Protein.ActiveResidues>
 VAL166  LYS551  ARG553  GLY616  TRP617  ASP618  TYR619  PRO620  LYS621  CYS622 
 ASP623  PHE694  ASN695  SER759  ASP760  ASP761  ALA762  ILE779  LEU786  VAL792 
 PHE793  MET794  SER795  GLU796  ALA797  LYS798  CYS799  TRP800  GLU811  SER814 

> <Gold.Protein.RotatedAtoms>
  150.9304  133.6774  159.2811 H   0  0  0  0  0  0  0  0  0  0  0  0  # atno 6907 bound_to 6896
  151.4198  135.0995  159.9620 H   0  0  0  0  0  0  0  0  0  0  0  0  # atno 6908 bound_to 6896
  152.5023  133.8758  159.7376 H   0  0  0  0  0  0  0  0  0  0  0  0  # atno 6909 bound_to 6896
  145.8066  139.3010  143.1124 H   0  0  0  0  0  0  0  0  0  0  0  0  # atno 7974 bound_to 7965
  156.2907  140.2653  156.2380 H   0  0  0  0  0  0  0  0  0  0  0  0  # atno 8008 bound_to 7997
  155.0006  140.0388  157.2376 H   0  0  0  0  0  0  0  0  0  0  0  0  # atno 8009 bound_to 7997
  154.7605  140.2760  155.6223 H   0  0  0  0  0  0  0  0  0  0  0  0  # atno 8010 bound_to 7997
  140.6896  143.2929  151.3498 H   0  0  0  0  0  0  0  0  0  0  0  0  # atno 10167 bound_to 10162
  156.0611  130.5834  150.8287 H   0  0  0  0  0  0  0  0  0  0  0  0  # atno 10718 bound_to 10713
  153.2474  135.6910  153.7716 H   0  0  0  0  0  0  0  0  0  0  0  0  # atno 10763 bound_to 10752
  153.6823  135.3326  155.3182 H   0  0  0  0  0  0  0  0  0  0  0  0  # atno 10764 bound_to 10752
  154.8380  135.4525  154.1419 H   0  0  0  0  0  0  0  0  0  0  0  0  # atno 10765 bound_to 10752
  140.0346  134.9335  157.0729 H   0  0  0  0  0  0  0  0  0  0  0  0  # atno 11005 bound_to 11000
  145.9822  140.8673  143.0108 LP  0  0  0  0  0  0  0  0  0  0  0  0  # atno 17320 bound_to 7965
  144.6762  140.2096  143.7378 LP  0  0  0  0  0  0  0  0  0  0  0  0  # atno 17321 bound_to 7965
  139.6286  144.0766  152.2456 LP  0  0  0  0  0  0  0  0  0  0  0  0  # atno 17342 bound_to 10162
  140.0233  144.6136  150.7548 LP  0  0  0  0  0  0  0  0  0  0  0  0  # atno 17343 bound_to 10162
  157.5620  131.0946  150.9545 LP  0  0  0  0  0  0  0  0  0  0  0  0  # atno 17370 bound_to 10713
  156.9781  130.5516  149.5294 LP  0  0  0  0  0  0  0  0  0  0  0  0  # atno 17371 bound_to 10713
  140.4168  134.1923  155.7163 LP  0  0  0  0  0  0  0  0  0  0  0  0  # atno 17394 bound_to 11000
  141.1850  133.8331  157.1119 LP  0  0  0  0  0  0  0  0  0  0  0  0  # atno 17395 bound_to 11000

$$$$
