AV-unprocessed.smi:2821|AV-procd|sdf|10858|dock2
  -GOLD-   2272015303D 1   1.00000     0.00000
 Structure written by MMmdl.
 36 37  0  0  0  0  0  0  0  0  1 V2000
  154.5992  140.7896  161.7722 C   0  0  0  0  0  0  0  0  0  0  0  0
  153.8264  141.9653  161.1696 C   0  0  0  0  0  0  0  0  0  0  0  0
  153.4019  141.6101  159.8571 O   0  0  0  0  0  0  0  0  0  0  0  0
  152.7386  142.5577  159.1053 C   0  0  0  0  0  0  0  0  0  0  0  0
  152.9779  143.9279  159.3440 C   0  0  0  0  0  0  0  0  0  0  0  0
  152.3566  144.8964  158.6357 N   0  0  0  0  0  0  0  0  0  0  0  0
  151.4895  144.4882  157.6829 C   0  0  0  0  0  0  0  0  0  0  0  0
  151.2390  143.1206  157.4327 C   0  0  0  0  0  0  0  0  0  0  0  0
  150.3227  142.7612  156.4337 N   0  0  0  0  0  0  0  0  0  0  0  0
  150.0752  141.3671  156.0744 C   0  0  2  0  0  0  0  0  0  0  0  0
  151.3942  140.5919  155.9155 C   0  0  0  0  0  0  0  0  0  0  0  0
  149.2126  141.2684  154.8004 C   0  0  1  0  0  0  0  0  0  0  0  0
  148.5805  139.8988  154.5386 C   0  0  0  0  0  0  0  0  0  0  0  0
  147.4044  140.2758  153.6666 C   0  0  0  0  0  0  0  0  0  0  0  0
  146.9502  141.5837  154.3085 C   0  0  0  0  0  0  0  0  0  0  0  0
  148.1300  142.1974  154.8207 O   0  0  0  0  0  0  0  0  0  0  0  0
  151.8652  142.1554  158.1479 N   0  0  0  0  0  0  0  0  0  0  0  0
  154.9405  141.0242  162.7807 H   0  0  0  0  0  0  0  0  0  0  0  0
  155.4759  140.5482  161.1707 H   0  0  0  0  0  0  0  0  0  0  0  0
  153.9747  139.8979  161.8293 H   0  0  0  0  0  0  0  0  0  0  0  0
  152.9643  142.1983  161.7971 H   0  0  0  0  0  0  0  0  0  0  0  0
  154.4697  142.8462  161.1384 H   0  0  0  0  0  0  0  0  0  0  0  0
  153.6718  144.2481  160.1072 H   0  0  0  0  0  0  0  0  0  0  0  0
  150.9918  145.2622  157.1166 H   0  0  0  0  0  0  0  0  0  0  0  0
  149.9056  143.4814  155.8613 H   0  0  0  0  0  0  0  0  0  0  0  0
  149.5053  140.8990  156.8779 H   0  0  0  0  0  0  0  0  0  0  0  0
  151.2056  139.5465  155.6704 H   0  0  0  0  0  0  0  0  0  0  0  0
  151.9828  140.6082  156.8328 H   0  0  0  0  0  0  0  0  0  0  0  0
  152.0089  141.0137  155.1196 H   0  0  0  0  0  0  0  0  0  0  0  0
  149.8268  141.5203  153.9341 H   0  0  0  0  0  0  0  0  0  0  0  0
  149.2654  139.2009  154.0559 H   0  0  0  0  0  0  0  0  0  0  0  0
  148.2222  139.4403  155.4611 H   0  0  0  0  0  0  0  0  0  0  0  0
  147.7385  140.4544  152.6436 H   0  0  0  0  0  0  0  0  0  0  0  0
  146.6224  139.5167  153.6450 H   0  0  0  0  0  0  0  0  0  0  0  0
  146.4329  142.2368  153.6051 H   0  0  0  0  0  0  0  0  0  0  0  0
  146.2767  141.3828  155.1425 H   0  0  0  0  0  0  0  0  0  0  0  0
  1  2  1  0  0  0  0
  1 18  1  0  0  0  0
  1 19  1  0  0  0  0
  1 20  1  0  0  0  0
  2  3  1  0  0  0  0
  2 21  1  0  0  0  0
  2 22  1  0  0  0  0
  3  4  1  0  0  0  0
  4 17  1  0  0  0  0
  4  5  2  0  0  0  0
  5  6  1  0  0  0  0
  5 23  1  0  0  0  0
  6  7  2  0  0  0  0
  7  8  1  0  0  0  0
  7 24  1  0  0  0  0
  8  9  1  0  0  0  0
  8 17  2  0  0  0  0
  9 10  1  0  0  0  0
  9 25  1  0  0  0  0
 10 11  1  0  0  0  0
 10 12  1  0  0  0  0
 10 26  1  0  0  0  0
 11 27  1  0  0  0  0
 11 28  1  0  0  0  0
 11 29  1  0  0  0  0
 12 16  1  0  0  0  0
 12 13  1  0  0  0  0
 12 30  1  0  0  0  0
 13 14  1  0  0  0  0
 13 31  1  0  0  0  0
 13 32  1  0  0  0  0
 14 15  1  0  0  0  0
 14 33  1  0  0  0  0
 14 34  1  0  0  0  0
 15 16  1  0  0  0  0
 15 35  1  0  0  0  0
 15 36  1  0  0  0  0
M  END
> <s_m_source_file>
AV-unprocessed.smi

> <i_m_source_file_index>
2821

> <i_lp_mmshare_version>
43012

> <i_f3d_flags>
0

> <s_epik_input>
W0NIM11bQ0gyXU9jMVtjSF1uW2NIXWMobjEpW05IXVtDQEhdKFtDSDNdKVtDQEBIXTJbQ0gyXVtDSDJdW0NIMl1PMg==

> <s_epik_cmdline>
J2VwaWtfcHl0aG9uJywgJy1waCcsICc3LjAnLCAnLXRuJywgJzgnLCAnLW1hJywgJzIwMCcsICctbWV0YWxfYmluZGluZycsICctaW1hZScsICc8aW5maWxlLm1hZT4nLCAnLW9tYWUnLCAnPG91dGZpbGUubWFlPic=

> <r_lp_tautomer_probability>
1

> <r_epik_Ionization_Penalty>
4.69533e-05

> <r_epik_Ionization_Penalty_Charging>
0

> <r_epik_Ionization_Penalty_Neutral>
4.69533e-05

> <r_epik_State_Penalty>
-0

> <r_epik_Charging_Adjusted_Penalty>
0

> <i_epik_Tot_Q>
0

> <i_epik_Tot_abs_Q>
0

> <r_epik_Metal_State_Penalty>
-0

> <b_epik_Metal_Only>
0

> <s_lp_Force_Field>
OPLS_2005

> <r_lp_Energy>
29.921

> <b_lp_Chiralities_Consistent>
1

> <s_lp_Variant>
AV-unprocessed.smi:2821-3

> <Gold.Version>
5.8.1

> <Gold.Id.Protein>
6NUR|6NUR_protein|mol2

> <Gold.PLP.Fitness>
42.1273

> <Gold.PLP.PLP>
-38.1724

> <Gold.PLP.part.hbond>
-1.0075

> <Gold.PLP.part.metal>
0.0000

> <Gold.PLP.part.buried>
-4.4331

> <Gold.PLP.part.nonpolar>
-34.2448

> <Gold.PLP.part.repulsive>
1.4206

> <Gold.PLP.ligand.clash>
0.0000

> <Gold.PLP.ligand.torsion>
0.6926

> <Gold.PLP.Chemscore.Hbond>
0.8800

> <Gold.PLP.Chemscore.CHOScore>
0.8764

> <Gold.PLP.Chemscore.Metal>
0.0000

> <Gold.Chemscore.Hbonds>
donor molecule, donor type, donor heavy atom, donor atom, acceptor molecule, acceptor atom, score
      L1  H     9    25       P1  8028  1.00
      L1  C     7    24       P1  8028  0.78

> <Gold.PLP.Chemscore.Internal.Correction>
0.0711

> <Gold.Rescore>
     Score         DG    S(hbond)    S(metal)    S(lipo)     H(rot)  DE(clash)    DE(int)     intcor
     12.35     -14.48       0.94        0.00      84.01       1.55       0.03       2.10       ----

> <Gold.Chemscore.Fitness>
12.3466

> <Gold.Chemscore.DG>
-14.4813

> <Gold.Chemscore.ZeroCoef>
-5.4800

> <Gold.Chemscore.Hbond>
0.9411

> <Gold.Chemscore.Metal>
0.0000

> <Gold.Chemscore.Lipo>
84.0136

> <Gold.Chemscore.Internal_Hbond>
0.0000

> <Gold.Chemscore.DEClash>
0.0310

> <Gold.Chemscore.DEInternal>
2.1037

> <Gold.Chemscore.Rot>
1.5514

> <Gold.Chemscore.Internal.Correction>
   9.000000E+99

> <Gold.Chemscore.Hbonds>
donor molecule, donor type, donor heavy atom, donor atom, acceptor molecule, acceptor atom, score
      L1  H     9    25       P1  8028  0.95

> <Gold.Chemscore.Hbond.Weighted>
-3.1432

> <Gold.Chemscore.Metal.Weighted>
-0.0000

> <Gold.Chemscore.Lipo.Weighted>
-9.8296

> <Gold.Chemscore.Internal_Hbond.Weighted>
0.0000

> <Gold.Chemscore.DEClash.Weighted>
0.0310

> <Gold.Chemscore.DEInternal.Weighted>
2.1037

> <Gold.Chemscore.Rot.Weighted>
3.9715

> <Gold.Chemscore.Internal.Correction.Weighted>
   9.000000E+99

> <Gold.Protein.RotatedTorsions>
[ 6907 6896 6895 6894 ] final   98.92 input  -60.11 | X-H torsion
[ 7974 7965 7964 7962 ] final  -36.84 input  175.53 | X-H torsion
[ 8008 7997 7996 7995 ] final  -43.12 input   59.86 | X-H torsion
[ 10167 10162 10161 10158 ] final  170.09 input  -65.29 | X-H torsion
[ 10718 10713 10712 10709 ] final -139.87 input   66.30 | X-H torsion
[ 10763 10752 10751 10750 ] final  -97.78 input  -60.55 | X-H torsion
[ 11005 11000 10999 10996 ] final -166.95 input  -57.11 | X-H torsion

> <Gold.Protein.ActiveResidues>
 VAL166  LYS551  ARG553  GLY616  TRP617  ASP618  TYR619  PRO620  LYS621  CYS622 
 ASP623  PHE694  ASN695  SER759  ASP760  ASP761  ALA762  ILE779  LEU786  VAL792 
 PHE793  MET794  SER795  GLU796  ALA797  LYS798  CYS799  TRP800  GLU811  SER814 

> <Gold.Protein.RotatedAtoms>
  152.5401  134.0508  159.8108 H   0  0  0  0  0  0  0  0  0  0  0  0  # atno 6907 bound_to 6896
  151.0650  133.5505  159.2638 H   0  0  0  0  0  0  0  0  0  0  0  0  # atno 6908 bound_to 6896
  151.2390  135.0590  159.9071 H   0  0  0  0  0  0  0  0  0  0  0  0  # atno 6909 bound_to 6896
  146.0627  140.6326  142.8989 H   0  0  0  0  0  0  0  0  0  0  0  0  # atno 7974 bound_to 7965
  154.3997  140.1456  156.3466 H   0  0  0  0  0  0  0  0  0  0  0  0  # atno 8008 bound_to 7997
  155.8307  140.3466  155.5549 H   0  0  0  0  0  0  0  0  0  0  0  0  # atno 8009 bound_to 7997
  155.8191  140.0895  157.1850 H   0  0  0  0  0  0  0  0  0  0  0  0  # atno 8010 bound_to 7997
  139.5009  144.3635  151.9800 H   0  0  0  0  0  0  0  0  0  0  0  0  # atno 10167 bound_to 10162
  156.3158  130.7507  151.1593 H   0  0  0  0  0  0  0  0  0  0  0  0  # atno 10718 bound_to 10713
  154.7358  135.5034  153.9039 H   0  0  0  0  0  0  0  0  0  0  0  0  # atno 10763 bound_to 10752
  153.0993  135.6681  153.9711 H   0  0  0  0  0  0  0  0  0  0  0  0  # atno 10764 bound_to 10752
  153.9501  135.3058  155.3418 H   0  0  0  0  0  0  0  0  0  0  0  0  # atno 10765 bound_to 10752
  140.5587  134.5355  157.5138 H   0  0  0  0  0  0  0  0  0  0  0  0  # atno 11005 bound_to 11000
  144.7184  140.4289  143.7027 LP  0  0  0  0  0  0  0  0  0  0  0  0  # atno 17320 bound_to 7965
  145.6532  139.1568  143.2850 LP  0  0  0  0  0  0  0  0  0  0  0  0  # atno 17321 bound_to 7965
  140.3071  144.3581  150.6044 LP  0  0  0  0  0  0  0  0  0  0  0  0  # atno 17342 bound_to 10162
  140.5828  143.2171  151.7397 LP  0  0  0  0  0  0  0  0  0  0  0  0  # atno 17343 bound_to 10162
  157.7401  131.0521  150.5188 LP  0  0  0  0  0  0  0  0  0  0  0  0  # atno 17370 bound_to 10713
  156.5333  130.4190  149.6190 LP  0  0  0  0  0  0  0  0  0  0  0  0  # atno 17371 bound_to 10713
  139.9418  134.7773  156.0659 LP  0  0  0  0  0  0  0  0  0  0  0  0  # atno 17394 bound_to 11000
  141.1127  133.6638  156.3019 LP  0  0  0  0  0  0  0  0  0  0  0  0  # atno 17395 bound_to 11000

$$$$
