AV-unprocessed.smi:3346|AV-procd|sdf|12910|dock1
  -GOLD-   2272019323D 1   1.00000     0.00000
 Structure written by MMmdl.
 47 48  0  0  0  0  0  0  0  0  1 V2000
  154.0575  141.5532  160.7691 C   0  0  0  0  0  0  0  0  0  0  0  0
  153.3693  142.7282  160.0535 C   0  0  0  0  0  0  0  0  0  0  0  0
  152.6290  143.6105  161.0701 C   0  0  0  0  0  0  0  0  0  0  0  0
  152.4062  142.2614  158.9389 C   0  0  0  0  0  0  0  0  0  0  0  0
  151.7107  143.3900  158.1474 C   0  0  1  0  0  0  0  0  0  0  0  0
  152.7004  144.4982  157.7606 C   0  0  0  0  0  0  0  0  0  0  0  0
  151.1561  142.8547  156.9105 N   0  0  0  0  0  0  0  0  0  0  0  0
  150.3145  141.6981  157.1715 C   0  0  0  0  0  0  0  0  0  0  0  0
  149.5256  141.2749  155.9444 C   0  0  0  0  0  0  0  0  0  0  0  0
  148.5396  142.1370  155.4215 C   0  0  0  0  0  0  0  0  0  0  0  0
  147.8192  141.7407  154.2798 C   0  0  0  0  0  0  0  0  0  0  0  0
  148.1156  140.4911  153.7047 C   0  0  0  0  0  0  0  0  0  0  0  0
  149.0529  139.6540  154.1963 N   0  0  0  0  0  0  0  0  0  0  0  0
  149.7484  140.0328  155.2963 C   0  0  0  0  0  0  0  0  0  0  0  0
  150.7009  139.1332  155.8033 N   0  0  0  0  0  0  0  0  0  0  0  0
  150.1022  137.9712  156.4471 C   0  0  0  0  0  0  0  0  0  0  0  0
  151.1927  137.1319  157.1349 C   0  0  0  0  0  0  0  0  0  0  0  0
  152.1974  136.7791  156.1875 O   0  0  0  0  0  0  0  0  0  0  0  0
  152.8246  137.9257  155.6190 C   0  0  0  0  0  0  0  0  0  0  0  0
  151.7730  138.7731  154.8833 C   0  0  0  0  0  0  0  0  0  0  0  0
  153.3265  140.8810  161.2194 H   0  0  0  0  0  0  0  0  0  0  0  0
  154.7123  141.9103  161.5645 H   0  0  0  0  0  0  0  0  0  0  0  0
  154.6741  140.9681  160.0876 H   0  0  0  0  0  0  0  0  0  0  0  0
  154.1450  143.3488  159.6040 H   0  0  0  0  0  0  0  0  0  0  0  0
  151.8308  143.0578  161.5669 H   0  0  0  0  0  0  0  0  0  0  0  0
  152.1813  144.4786  160.5858 H   0  0  0  0  0  0  0  0  0  0  0  0
  153.3078  143.9794  161.8395 H   0  0  0  0  0  0  0  0  0  0  0  0
  152.9652  141.6332  158.2439 H   0  0  0  0  0  0  0  0  0  0  0  0
  151.6422  141.6117  159.3690 H   0  0  0  0  0  0  0  0  0  0  0  0
  150.9331  143.8487  158.7588 H   0  0  0  0  0  0  0  0  0  0  0  0
  153.1463  144.9502  158.6469 H   0  0  0  0  0  0  0  0  0  0  0  0
  152.2028  145.2939  157.2051 H   0  0  0  0  0  0  0  0  0  0  0  0
  153.5116  144.1146  157.1403 H   0  0  0  0  0  0  0  0  0  0  0  0
  150.5911  143.5698  156.4757 H   0  0  0  0  0  0  0  0  0  0  0  0
  150.9332  140.8617  157.4985 H   0  0  0  0  0  0  0  0  0  0  0  0
  149.6272  141.9178  157.9894 H   0  0  0  0  0  0  0  0  0  0  0  0
  148.3377  143.0904  155.8878 H   0  0  0  0  0  0  0  0  0  0  0  0
  147.0584  142.3789  153.8556 H   0  0  0  0  0  0  0  0  0  0  0  0
  147.5840  140.1529  152.8275 H   0  0  0  0  0  0  0  0  0  0  0  0
  149.3564  138.2867  157.1775 H   0  0  0  0  0  0  0  0  0  0  0  0
  149.5843  137.3687  155.6996 H   0  0  0  0  0  0  0  0  0  0  0  0
  151.6403  137.6807  157.9645 H   0  0  0  0  0  0  0  0  0  0  0  0
  150.7600  136.2223  157.5510 H   0  0  0  0  0  0  0  0  0  0  0  0
  153.3175  138.5082  156.3994 H   0  0  0  0  0  0  0  0  0  0  0  0
  153.6001  137.6018  154.9248 H   0  0  0  0  0  0  0  0  0  0  0  0
  151.3688  138.2083  154.0421 H   0  0  0  0  0  0  0  0  0  0  0  0
  152.2322  139.6757  154.4788 H   0  0  0  0  0  0  0  0  0  0  0  0
  1  2  1  0  0  0  0
  1 21  1  0  0  0  0
  1 22  1  0  0  0  0
  1 23  1  0  0  0  0
  2  3  1  0  0  0  0
  2  4  1  0  0  0  0
  2 24  1  0  0  0  0
  3 25  1  0  0  0  0
  3 26  1  0  0  0  0
  3 27  1  0  0  0  0
  4  5  1  0  0  0  0
  4 28  1  0  0  0  0
  4 29  1  0  0  0  0
  5  6  1  0  0  0  0
  5  7  1  0  0  0  0
  5 30  1  0  0  0  0
  6 31  1  0  0  0  0
  6 32  1  0  0  0  0
  6 33  1  0  0  0  0
  7  8  1  0  0  0  0
  7 34  1  0  0  0  0
  8  9  1  0  0  0  0
  8 35  1  0  0  0  0
  8 36  1  0  0  0  0
  9 14  1  0  0  0  0
  9 10  2  0  0  0  0
 10 11  1  0  0  0  0
 10 37  1  0  0  0  0
 11 12  2  0  0  0  0
 11 38  1  0  0  0  0
 12 13  1  0  0  0  0
 12 39  1  0  0  0  0
 13 14  2  0  0  0  0
 14 15  1  0  0  0  0
 15 20  1  0  0  0  0
 15 16  1  0  0  0  0
 16 17  1  0  0  0  0
 16 40  1  0  0  0  0
 16 41  1  0  0  0  0
 17 18  1  0  0  0  0
 17 42  1  0  0  0  0
 17 43  1  0  0  0  0
 18 19  1  0  0  0  0
 19 20  1  0  0  0  0
 19 44  1  0  0  0  0
 19 45  1  0  0  0  0
 20 46  1  0  0  0  0
 20 47  1  0  0  0  0
M  END
> <s_m_source_file>
AV-unprocessed.smi

> <i_m_source_file_index>
3346

> <i_lp_mmshare_version>
43012

> <i_f3d_flags>
0

> <s_epik_input>
W0NIM11bQ0hdKFtDSDNdKVtDSDJdW0NASF0oW0NIM10pW05IXVtDSDJdYzFbY0hdW2NIXVtjSF1uYzFOMltDSDJdW0NIMl1PW0NIMl1bQ0gyXTI=

> <s_epik_cmdline>
J2VwaWtfcHl0aG9uJywgJy1waCcsICc3LjAnLCAnLXRuJywgJzgnLCAnLW1hJywgJzIwMCcsICctbWV0YWxfYmluZGluZycsICctaW1hZScsICc8aW5maWxlLm1hZT4nLCAnLW9tYWUnLCAnPG91dGZpbGUubWFlPic=

> <r_lp_tautomer_probability>
1

> <r_epik_Ionization_Penalty>
2.09752

> <r_epik_Ionization_Penalty_Charging>
0

> <r_epik_Ionization_Penalty_Neutral>
2.09752

> <r_epik_State_Penalty>
2.22589

> <r_epik_Charging_Adjusted_Penalty>
2.22589

> <i_epik_Tot_Q>
0

> <i_epik_Tot_abs_Q>
0

> <r_epik_Metal_State_Penalty>
2.21996

> <b_epik_Metal_Only>
0

> <s_lp_Force_Field>
OPLS_2005

> <r_lp_Energy>
27.6792

> <b_lp_Chiralities_Consistent>
1

> <s_lp_Variant>
AV-unprocessed.smi:3346-4

> <Gold.Version>
5.8.1

> <Gold.Id.Protein>
6NUR|6NUR_protein|mol2

> <Gold.PLP.Fitness>
46.7616

> <Gold.PLP.PLP>
-40.0588

> <Gold.PLP.part.hbond>
-2.0000

> <Gold.PLP.part.metal>
0.0000

> <Gold.PLP.part.buried>
-0.0147

> <Gold.PLP.part.nonpolar>
-39.7830

> <Gold.PLP.part.repulsive>
1.0012

> <Gold.PLP.ligand.clash>
0.0000

> <Gold.PLP.ligand.torsion>
0.3414

> <Gold.PLP.Chemscore.Hbond>
1.8960

> <Gold.PLP.Chemscore.CHOScore>
0.4579

> <Gold.PLP.Chemscore.Metal>
0.0000

> <Gold.Chemscore.Hbonds>
donor molecule, donor type, donor heavy atom, donor atom, acceptor molecule, acceptor atom, score
      L1  H     7    34       P1  8028  0.57
      P1  H 10752 10764       L1    18  0.75
      L1  C    12    39       P1  7957  0.31

> <Gold.PLP.Chemscore.Internal.Correction>
0.3239

> <Gold.Rescore>
     Score         DG    S(hbond)    S(metal)    S(lipo)     H(rot)  DE(clash)    DE(int)     intcor
     20.91     -21.35       1.72        0.00     120.56       1.55       0.06       0.37       ----

> <Gold.Chemscore.Fitness>
20.9142

> <Gold.Chemscore.DG>
-21.3450

> <Gold.Chemscore.ZeroCoef>
-5.4800

> <Gold.Chemscore.Hbond>
1.7160

> <Gold.Chemscore.Metal>
0.0000

> <Gold.Chemscore.Lipo>
120.5554

> <Gold.Chemscore.Internal_Hbond>
0.0000

> <Gold.Chemscore.DEClash>
0.0562

> <Gold.Chemscore.DEInternal>
0.3746

> <Gold.Chemscore.Rot>
1.5514

> <Gold.Chemscore.Internal.Correction>
   9.000000E+99

> <Gold.Chemscore.Hbonds>
donor molecule, donor type, donor heavy atom, donor atom, acceptor molecule, acceptor atom, score
      L1  H     7    34       P1  8028  0.58
      P1  H 10752 10764       L1    18  0.09

> <Gold.Chemscore.Hbond.Weighted>
-5.7316

> <Gold.Chemscore.Metal.Weighted>
-0.0000

> <Gold.Chemscore.Lipo.Weighted>
-14.1050

> <Gold.Chemscore.Internal_Hbond.Weighted>
0.0000

> <Gold.Chemscore.DEClash.Weighted>
0.0562

> <Gold.Chemscore.DEInternal.Weighted>
0.3746

> <Gold.Chemscore.Rot.Weighted>
3.9715

> <Gold.Chemscore.Internal.Correction.Weighted>
   9.000000E+99

> <Gold.Protein.RotatedTorsions>
[ 6907 6896 6895 6894 ] final   -0.37 input  -60.11 | X-H torsion
[ 7974 7965 7964 7962 ] final -101.68 input  175.53 | X-H torsion
[ 8008 7997 7996 7995 ] final  109.37 input   59.86 | X-H torsion
[ 10167 10162 10161 10158 ] final  -58.21 input  -65.29 | X-H torsion
[ 10718 10713 10712 10709 ] final  -52.22 input   66.30 | X-H torsion
[ 10763 10752 10751 10750 ] final  -28.15 input  -60.55 | X-H torsion
[ 11005 11000 10999 10996 ] final  -97.80 input  -57.11 | X-H torsion

> <Gold.Protein.ActiveResidues>
 VAL166  LYS551  ARG553  GLY616  TRP617  ASP618  TYR619  PRO620  LYS621  CYS622 
 ASP623  PHE694  ASN695  SER759  ASP760  ASP761  ALA762  ILE779  LEU786  VAL792 
 PHE793  MET794  SER795  GLU796  ALA797  LYS798  CYS799  TRP800  GLU811  SER814 

> <Gold.Protein.RotatedAtoms>
  151.5633  135.1065  159.9977 H   0  0  0  0  0  0  0  0  0  0  0  0  # atno 6907 bound_to 6896
  152.4436  133.7490  159.6694 H   0  0  0  0  0  0  0  0  0  0  0  0  # atno 6908 bound_to 6896
  150.8346  133.7965  159.3108 H   0  0  0  0  0  0  0  0  0  0  0  0  # atno 6909 bound_to 6896
  145.2785  140.9319  143.2945 H   0  0  0  0  0  0  0  0  0  0  0  0  # atno 7974 bound_to 7965
  156.1974  140.3059  155.9456 H   0  0  0  0  0  0  0  0  0  0  0  0  # atno 8008 bound_to 7997
  155.3034  140.0447  157.3048 H   0  0  0  0  0  0  0  0  0  0  0  0  # atno 8009 bound_to 7997
  154.5527  140.2296  155.8468 H   0  0  0  0  0  0  0  0  0  0  0  0  # atno 8010 bound_to 7997
  140.6211  143.2420  151.5478 H   0  0  0  0  0  0  0  0  0  0  0  0  # atno 10167 bound_to 10162
  156.1641  130.4149  149.9748 H   0  0  0  0  0  0  0  0  0  0  0  0  # atno 10718 bound_to 10713
  153.7436  135.6931  153.4961 H   0  0  0  0  0  0  0  0  0  0  0  0  # atno 10763 bound_to 10752
  153.2052  135.4422  155.0313 H   0  0  0  0  0  0  0  0  0  0  0  0  # atno 10764 bound_to 10752
  154.8212  135.3423  154.6960 H   0  0  0  0  0  0  0  0  0  0  0  0  # atno 10765 bound_to 10752
  141.1366  133.8198  157.0755 H   0  0  0  0  0  0  0  0  0  0  0  0  # atno 11005 bound_to 11000
  144.9274  139.4339  143.6512 LP  0  0  0  0  0  0  0  0  0  0  0  0  # atno 17320 bound_to 7965
  146.3224  139.8166  142.8935 LP  0  0  0  0  0  0  0  0  0  0  0  0  # atno 17321 bound_to 7965
  139.5439  144.2573  152.1405 LP  0  0  0  0  0  0  0  0  0  0  0  0  # atno 17342 bound_to 10162
  140.1793  144.4860  150.6537 LP  0  0  0  0  0  0  0  0  0  0  0  0  # atno 17343 bound_to 10162
  156.7568  130.9136  151.3640 LP  0  0  0  0  0  0  0  0  0  0  0  0  # atno 17370 bound_to 10713
  157.6754  130.9090  150.0139 LP  0  0  0  0  0  0  0  0  0  0  0  0  # atno 17371 bound_to 10713
  140.0484  134.9818  157.1092 LP  0  0  0  0  0  0  0  0  0  0  0  0  # atno 17394 bound_to 11000
  140.4027  134.2065  155.7163 LP  0  0  0  0  0  0  0  0  0  0  0  0  # atno 17395 bound_to 11000

$$$$
