AV-unprocessed.smi:2710|AV-procd|sdf|10464|dock4
  -GOLD-   2272014503D 1   1.00000     0.00000
 Structure written by MMmdl.
 53 54  0  0  0  0  0  0  0  0  2 V2000
  147.8572  127.7994  151.4726 C   0  0  0  0  0  0  0  0  0  0  0  0
  146.8130  128.9252  151.3914 C   0  0  0  0  0  0  0  0  0  0  0  0
  147.3491  130.2652  151.7699 N   0  3  2  0  0  0  0  0  0  0  0  0
  147.6531  130.3480  153.2281 C   0  0  0  0  0  0  0  0  0  0  0  0
  148.3143  131.6798  153.6088 C   0  0  0  0  0  0  0  0  0  0  0  0
  147.4241  132.8585  153.2091 C   0  0  1  0  0  0  0  0  0  0  0  0
  148.0861  134.1196  153.5307 N   0  0  0  0  0  0  0  0  0  0  0  0
  148.4269  134.5166  154.7652 C   0  0  0  0  0  0  0  0  0  0  0  0
  148.2119  133.8467  155.7750 O   0  0  0  0  0  0  0  0  0  0  0  0
  149.0019  135.7308  154.7454 N   0  0  0  0  0  0  0  0  0  0  0  0
  149.5197  136.4764  155.8379 C   0  0  0  0  0  0  0  0  0  0  0  0
  149.2678  136.0315  157.1510 C   0  0  0  0  0  0  0  0  0  0  0  0
  149.7188  136.7016  158.2320 N   0  0  0  0  0  0  0  0  0  0  0  0
  150.3880  137.8429  158.0215 C   0  0  0  0  0  0  0  0  0  0  0  0
  151.0266  138.5204  159.2466 C   0  0  0  0  0  0  0  0  0  0  0  0
  150.6095  140.0069  159.3402 C   0  0  0  0  0  0  0  0  0  0  0  0
  152.5597  138.4192  159.1471 C   0  0  0  0  0  0  0  0  0  0  0  0
  150.5498  137.8590  160.5616 C   0  0  0  0  0  0  0  0  0  0  0  0
  150.7044  138.3379  156.8178 N   0  0  0  0  0  0  0  0  0  0  0  0
  150.2617  137.6765  155.7275 C   0  0  0  0  0  0  0  0  0  0  0  0
  147.1267  132.7637  151.7059 C   0  0  0  0  0  0  0  0  0  0  0  0
  146.4896  131.4102  151.3210 C   0  0  1  0  0  0  0  0  0  0  0  0
  146.2193  131.4106  149.8017 C   0  0  0  0  0  0  0  0  0  0  0  0
  147.4637  126.8851  151.0277 H   0  0  0  0  0  0  0  0  0  0  0  0
  148.1280  127.5560  152.4994 H   0  0  0  0  0  0  0  0  0  0  0  0
  148.7665  128.0620  150.9312 H   0  0  0  0  0  0  0  0  0  0  0  0
  146.4690  128.9331  150.3598 H   0  0  0  0  0  0  0  0  0  0  0  0
  145.9452  128.6839  152.0070 H   0  0  0  0  0  0  0  0  0  0  0  0
  146.7336  130.2109  153.7995 H   0  0  0  0  0  0  0  0  0  0  0  0
  148.3305  129.5500  153.5269 H   0  0  0  0  0  0  0  0  0  0  0  0
  148.5037  131.7015  154.6827 H   0  0  0  0  0  0  0  0  0  0  0  0
  149.2867  131.7581  153.1198 H   0  0  0  0  0  0  0  0  0  0  0  0
  146.4882  132.7901  153.7677 H   0  0  0  0  0  0  0  0  0  0  0  0
  148.2976  134.7356  152.7590 H   0  0  0  0  0  0  0  0  0  0  0  0
  149.0364  136.1951  153.8495 H   0  0  0  0  0  0  0  0  0  0  0  0
  148.7095  135.1259  157.3386 H   0  0  0  0  0  0  0  0  0  0  0  0
  151.0208  140.4794  160.2329 H   0  0  0  0  0  0  0  0  0  0  0  0
  149.5247  140.1131  159.3838 H   0  0  0  0  0  0  0  0  0  0  0  0
  150.9642  140.5861  158.4869 H   0  0  0  0  0  0  0  0  0  0  0  0
  152.9308  138.9104  158.2469 H   0  0  0  0  0  0  0  0  0  0  0  0
  152.8866  137.3793  159.1121 H   0  0  0  0  0  0  0  0  0  0  0  0
  153.0466  138.8887  160.0024 H   0  0  0  0  0  0  0  0  0  0  0  0
  150.9625  138.3669  161.4340 H   0  0  0  0  0  0  0  0  0  0  0  0
  150.8600  136.8157  160.6305 H   0  0  0  0  0  0  0  0  0  0  0  0
  149.4629  137.8878  160.6496 H   0  0  0  0  0  0  0  0  0  0  0  0
  150.5007  138.1314  154.7791 H   0  0  0  0  0  0  0  0  0  0  0  0
  146.4607  133.5779  151.4158 H   0  0  0  0  0  0  0  0  0  0  0  0
  148.0489  132.9073  151.1401 H   0  0  0  0  0  0  0  0  0  0  0  0
  145.5295  131.3294  151.8339 H   0  0  0  0  0  0  0  0  0  0  0  0
  145.7319  132.3363  149.4936 H   0  0  0  0  0  0  0  0  0  0  0  0
  145.5511  130.6061  149.4969 H   0  0  0  0  0  0  0  0  0  0  0  0
  147.1449  131.3237  149.2319 H   0  0  0  0  0  0  0  0  0  0  0  0
  148.2289  130.3662  151.2840 H   0  0  0  0  0  0  0  0  0  0  0  0
  1  2  1  0  0  0  0
  1 24  1  0  0  0  0
  1 25  1  0  0  0  0
  1 26  1  0  0  0  0
  2  3  1  0  0  0  0
  2 27  1  0  0  0  0
  2 28  1  0  0  0  0
  3 22  1  0  0  0  0
  3  4  1  0  0  0  0
  3 53  1  0  0  0  0
  4  5  1  0  0  0  0
  4 29  1  0  0  0  0
  4 30  1  0  0  0  0
  5  6  1  0  0  0  0
  5 31  1  0  0  0  0
  5 32  1  0  0  0  0
  6  7  1  0  0  0  0
  6 21  1  0  0  0  0
  6 33  1  0  0  0  0
  7  8  1  0  0  0  0
  7 34  1  0  0  0  0
  8  9  2  0  0  0  0
  8 10  1  0  0  0  0
 10 11  1  0  0  0  0
 10 35  1  0  0  0  0
 11 20  1  0  0  0  0
 11 12  2  0  0  0  0
 12 13  1  0  0  0  0
 12 36  1  0  0  0  0
 13 14  2  0  0  0  0
 14 15  1  0  0  0  0
 14 19  1  0  0  0  0
 15 16  1  0  0  0  0
 15 17  1  0  0  0  0
 15 18  1  0  0  0  0
 16 37  1  0  0  0  0
 16 38  1  0  0  0  0
 16 39  1  0  0  0  0
 17 40  1  0  0  0  0
 17 41  1  0  0  0  0
 17 42  1  0  0  0  0
 18 43  1  0  0  0  0
 18 44  1  0  0  0  0
 18 45  1  0  0  0  0
 19 20  2  0  0  0  0
 20 46  1  0  0  0  0
 21 22  1  0  0  0  0
 21 47  1  0  0  0  0
 21 48  1  0  0  0  0
 22 23  1  0  0  0  0
 22 49  1  0  0  0  0
 23 50  1  0  0  0  0
 23 51  1  0  0  0  0
 23 52  1  0  0  0  0
M  CHG  1   3   1
M  END
> <s_m_source_file>
AV-unprocessed.smi

> <i_m_source_file_index>
2710

> <i_lp_mmshare_version>
43012

> <i_f3d_flags>
0

> <s_epik_input>
W0NIM11bQ0gyXU4xW0NIMl1bQ0gyXVtDQEhdKFtDSDJdW0NASF0xW0NIM10pW05IXUMoPU8pW05IXWMyW2NIXW5jKEMoW0NIM10pKFtDSDNdKVtDSDNdKW5bY0hdMg==

> <s_epik_cmdline>
J2VwaWtfcHl0aG9uJywgJy1waCcsICc3LjAnLCAnLXRuJywgJzgnLCAnLW1hJywgJzIwMCcsICctbWV0YWxfYmluZGluZycsICctaW1hZScsICc8aW5maWxlLm1hZT4nLCAnLW9tYWUnLCAnPG91dGZpbGUubWFlPic=

> <r_lp_tautomer_probability>
1

> <r_epik_Ionization_Penalty>
0.00396003

> <r_epik_Ionization_Penalty_Charging>
0.0039379

> <r_epik_Ionization_Penalty_Neutral>
2.21316e-05

> <r_epik_State_Penalty>
0.00281651

> <r_epik_Charging_Adjusted_Penalty>
0.00675441

> <i_epik_Tot_Q>
1

> <i_epik_Tot_abs_Q>
1

> <r_epik_Metal_State_Penalty>
-0

> <b_epik_Metal_Only>
0

> <s_lp_Force_Field>
OPLS_2005

> <r_lp_Energy>
20.3539

> <b_lp_Chiralities_Consistent>
1

> <s_lp_Variant>
AV-unprocessed.smi:2710-1

> <Gold.Version>
5.8.1

> <Gold.Id.Protein>
6NUR|6NUR_protein|mol2

> <Gold.PLP.Fitness>
46.3341

> <Gold.PLP.PLP>
-37.2186

> <Gold.PLP.part.hbond>
-3.8753

> <Gold.PLP.part.metal>
0.0000

> <Gold.PLP.part.buried>
-4.9471

> <Gold.PLP.part.nonpolar>
-28.5784

> <Gold.PLP.part.repulsive>
0.0765

> <Gold.PLP.ligand.clash>
0.0000

> <Gold.PLP.ligand.torsion>
0.2370

> <Gold.PLP.Chemscore.Hbond>
3.1459

> <Gold.PLP.Chemscore.CHOScore>
0.0000

> <Gold.PLP.Chemscore.Metal>
0.0000

> <Gold.Chemscore.Hbonds>
donor molecule, donor type, donor heavy atom, donor atom, acceptor molecule, acceptor atom, score
      L1  H     3    53       P1 10747  0.49
      L1  H     7    34       P1  7948  1.00
      L1  H    10    35       P1  7948  1.00

> <Gold.PLP.Chemscore.Internal.Correction>
0.1518

> <Gold.Rescore>
     Score         DG    S(hbond)    S(metal)    S(lipo)     H(rot)  DE(clash)    DE(int)     intcor
     20.12     -21.92       2.62        0.00      94.49       1.31       0.16       1.64       ----

> <Gold.Chemscore.Fitness>
20.1217

> <Gold.Chemscore.DG>
-21.9229

> <Gold.Chemscore.ZeroCoef>
-5.4800

> <Gold.Chemscore.Hbond>
2.6157

> <Gold.Chemscore.Metal>
0.0000

> <Gold.Chemscore.Lipo>
94.4899

> <Gold.Chemscore.Internal_Hbond>
0.0000

> <Gold.Chemscore.DEClash>
0.1579

> <Gold.Chemscore.DEInternal>
1.6434

> <Gold.Chemscore.Rot>
1.3081

> <Gold.Chemscore.Internal.Correction>
   9.000000E+99

> <Gold.Chemscore.Hbonds>
donor molecule, donor type, donor heavy atom, donor atom, acceptor molecule, acceptor atom, score
      L1  H     3    53       P1 10747  0.48
      L1  H     7    34       P1  7948  0.50
      L1  H    10    35       P1  7948  0.93

> <Gold.Chemscore.Hbond.Weighted>
-8.7364

> <Gold.Chemscore.Metal.Weighted>
-0.0000

> <Gold.Chemscore.Lipo.Weighted>
-11.0553

> <Gold.Chemscore.Internal_Hbond.Weighted>
0.0000

> <Gold.Chemscore.DEClash.Weighted>
0.1579

> <Gold.Chemscore.DEInternal.Weighted>
1.6434

> <Gold.Chemscore.Rot.Weighted>
3.3488

> <Gold.Chemscore.Internal.Correction.Weighted>
   9.000000E+99

> <Gold.Protein.RotatedTorsions>
[ 6907 6896 6895 6894 ] final -146.27 input  -60.11 | X-H torsion
[ 7974 7965 7964 7962 ] final -130.67 input  175.53 | X-H torsion
[ 8008 7997 7996 7995 ] final  154.58 input   59.86 | X-H torsion
[ 10167 10162 10161 10158 ] final  149.32 input  -65.29 | X-H torsion
[ 10718 10713 10712 10709 ] final   27.71 input   66.30 | X-H torsion
[ 10763 10752 10751 10750 ] final   44.15 input  -60.55 | X-H torsion
[ 11005 11000 10999 10996 ] final  -69.30 input  -57.11 | X-H torsion

> <Gold.Protein.ActiveResidues>
 VAL166  LYS551  ARG553  GLY616  TRP617  ASP618  TYR619  PRO620  LYS621  CYS622 
 ASP623  PHE694  ASN695  SER759  ASP760  ASP761  ALA762  ILE779  LEU786  VAL792 
 PHE793  MET794  SER795  GLU796  ALA797  LYS798  CYS799  TRP800  GLU811  SER814 

> <Gold.Protein.RotatedAtoms>
  151.1394  133.4982  159.2597 H   0  0  0  0  0  0  0  0  0  0  0  0  # atno 6907 bound_to 6896
  151.1672  135.0300  159.8746 H   0  0  0  0  0  0  0  0  0  0  0  0  # atno 6908 bound_to 6896
  152.5462  134.1261  159.8472 H   0  0  0  0  0  0  0  0  0  0  0  0  # atno 6909 bound_to 6896
  144.9452  140.7284  143.4822 H   0  0  0  0  0  0  0  0  0  0  0  0  # atno 7974 bound_to 7965
  156.2523  140.1962  156.6669 H   0  0  0  0  0  0  0  0  0  0  0  0  # atno 8008 bound_to 7997
  154.6422  140.0582  156.9884 H   0  0  0  0  0  0  0  0  0  0  0  0  # atno 8009 bound_to 7997
  155.1545  140.3254  155.4427 H   0  0  0  0  0  0  0  0  0  0  0  0  # atno 8010 bound_to 7997
  139.4863  144.5610  151.7230 H   0  0  0  0  0  0  0  0  0  0  0  0  # atno 10167 bound_to 10162
  157.2238  130.6991  149.6282 H   0  0  0  0  0  0  0  0  0  0  0  0  # atno 10718 bound_to 10713
  152.9846  135.6079  154.3228 H   0  0  0  0  0  0  0  0  0  0  0  0  # atno 10763 bound_to 10752
  154.2936  135.2774  155.2645 H   0  0  0  0  0  0  0  0  0  0  0  0  # atno 10764 bound_to 10752
  154.4929  135.5887  153.6529 H   0  0  0  0  0  0  0  0  0  0  0  0  # atno 10765 bound_to 10752
  141.1551  133.6761  156.6578 H   0  0  0  0  0  0  0  0  0  0  0  0  # atno 11005 bound_to 11000
  145.2929  139.1877  143.4731 LP  0  0  0  0  0  0  0  0  0  0  0  0  # atno 17320 bound_to 7965
  146.3301  140.2908  142.8615 LP  0  0  0  0  0  0  0  0  0  0  0  0  # atno 17321 bound_to 7965
  140.5180  144.0922  150.6014 LP  0  0  0  0  0  0  0  0  0  0  0  0  # atno 17342 bound_to 10162
  140.3871  143.2772  152.0104 LP  0  0  0  0  0  0  0  0  0  0  0  0  # atno 17343 bound_to 10162
  155.9680  130.4511  150.5723 LP  0  0  0  0  0  0  0  0  0  0  0  0  # atno 17370 bound_to 10713
  157.3549  131.0740  151.1684 LP  0  0  0  0  0  0  0  0  0  0  0  0  # atno 17371 bound_to 10713
  140.3271  134.7960  157.4297 LP  0  0  0  0  0  0  0  0  0  0  0  0  # atno 17394 bound_to 11000
  140.1048  134.5424  155.8319 LP  0  0  0  0  0  0  0  0  0  0  0  0  # atno 17395 bound_to 11000

$$$$
