AV-unprocessed.smi:1219|AV-procd|sdf|5112|dock4
  -GOLD-   22720 4163D 1   1.00000     0.00000
 Structure written by MMmdl.
 43 44  0  0  0  0  0  0  0  0  2 V2000
  152.4499  140.1736  157.5054 O   0  0  0  0  0  0  0  0  0  0  0  0
  151.7660  140.8786  156.7631 C   0  0  0  0  0  0  0  0  0  0  0  0
  151.2404  140.4402  155.6102 N   0  0  0  0  0  0  0  0  0  0  0  0
  151.4274  139.1021  155.0587 C   0  0  0  0  0  0  0  0  0  0  0  0
  150.0853  138.3975  154.7679 C   0  0  2  0  0  0  0  0  0  0  0  0
  150.3459  137.2322  154.0101 O   0  0  0  0  0  0  0  0  0  0  0  0
  149.1551  139.2882  153.9185 C   0  0  0  0  0  0  0  0  0  0  0  0
  148.1089  138.5120  153.2037 N   0  3  0  0  0  0  0  0  0  0  0  0
  147.3606  139.3457  152.2270 C   0  0  0  0  0  0  0  0  0  0  0  0
  146.3867  138.4927  151.3971 C   0  0  0  0  0  0  0  0  0  0  0  0
  145.4205  137.7210  152.3047 C   0  0  0  0  0  0  0  0  0  0  0  0
  146.2112  136.8940  153.3267 C   0  0  0  0  0  0  0  0  0  0  0  0
  147.1893  137.7804  154.1163 C   0  0  0  0  0  0  0  0  0  0  0  0
  151.4471  142.1656  156.9864 N   0  0  0  0  0  0  0  0  0  0  0  0
  151.8311  142.9877  158.0792 C   0  0  0  0  0  0  0  0  0  0  0  0
  152.2139  142.2902  159.2473 C   0  0  0  0  0  0  0  0  0  0  0  0
  152.6073  143.0147  160.3892 C   0  0  0  0  0  0  0  0  0  0  0  0
  152.6092  144.4197  160.3332 C   0  0  0  0  0  0  0  0  0  0  0  0
  152.2161  145.0358  159.1309 C   0  0  0  0  0  0  0  0  0  0  0  0
  151.8382  144.3435  158.0355 N   0  0  0  0  0  0  0  0  0  0  0  0
  150.6916  141.0862  155.0618 H   0  0  0  0  0  0  0  0  0  0  0  0
  151.9726  139.2427  154.1251 H   0  0  0  0  0  0  0  0  0  0  0  0
  152.0750  138.4949  155.6942 H   0  0  0  0  0  0  0  0  0  0  0  0
  149.6033  138.1226  155.7058 H   0  0  0  0  0  0  0  0  0  0  0  0
  149.7750  137.2305  153.2551 H   0  0  0  0  0  0  0  0  0  0  0  0
  148.6744  140.0461  154.5390 H   0  0  0  0  0  0  0  0  0  0  0  0
  149.7672  139.8329  153.1975 H   0  0  0  0  0  0  0  0  0  0  0  0
  146.8184  140.1304  152.7573 H   0  0  0  0  0  0  0  0  0  0  0  0
  148.0598  139.8426  151.5533 H   0  0  0  0  0  0  0  0  0  0  0  0
  145.8257  139.1281  150.7112 H   0  0  0  0  0  0  0  0  0  0  0  0
  146.9496  137.7917  150.7793 H   0  0  0  0  0  0  0  0  0  0  0  0
  144.7629  138.4195  152.8237 H   0  0  0  0  0  0  0  0  0  0  0  0
  144.7791  137.0716  151.7081 H   0  0  0  0  0  0  0  0  0  0  0  0
  145.5249  136.3944  154.0109 H   0  0  0  0  0  0  0  0  0  0  0  0
  146.7640  136.1063  152.8129 H   0  0  0  0  0  0  0  0  0  0  0  0
  147.7543  137.1531  154.8046 H   0  0  0  0  0  0  0  0  0  0  0  0
  146.6352  138.4961  154.7258 H   0  0  0  0  0  0  0  0  0  0  0  0
  150.8768  142.6155  156.2859 H   0  0  0  0  0  0  0  0  0  0  0  0
  152.2059  141.2102  159.2736 H   0  0  0  0  0  0  0  0  0  0  0  0
  152.9013  142.5005  161.2922 H   0  0  0  0  0  0  0  0  0  0  0  0
  152.9039  145.0096  161.1885 H   0  0  0  0  0  0  0  0  0  0  0  0
  152.2029  146.1123  159.0462 H   0  0  0  0  0  0  0  0  0  0  0  0
  148.6019  137.8174  152.6597 H   0  0  0  0  0  0  0  0  0  0  0  0
  1  2  2  0  0  0  0
  2  3  1  0  0  0  0
  2 14  1  0  0  0  0
  3  4  1  0  0  0  0
  3 21  1  0  0  0  0
  4  5  1  0  0  0  0
  4 22  1  0  0  0  0
  4 23  1  0  0  0  0
  5  6  1  0  0  0  0
  5  7  1  0  0  0  0
  5 24  1  0  0  0  0
  6 25  1  0  0  0  0
  7  8  1  0  0  0  0
  7 26  1  0  0  0  0
  7 27  1  0  0  0  0
  8 13  1  0  0  0  0
  8  9  1  0  0  0  0
  8 43  1  0  0  0  0
  9 10  1  0  0  0  0
  9 28  1  0  0  0  0
  9 29  1  0  0  0  0
 10 11  1  0  0  0  0
 10 30  1  0  0  0  0
 10 31  1  0  0  0  0
 11 12  1  0  0  0  0
 11 32  1  0  0  0  0
 11 33  1  0  0  0  0
 12 13  1  0  0  0  0
 12 34  1  0  0  0  0
 12 35  1  0  0  0  0
 13 36  1  0  0  0  0
 13 37  1  0  0  0  0
 14 15  1  0  0  0  0
 14 38  1  0  0  0  0
 15 20  1  0  0  0  0
 15 16  2  0  0  0  0
 16 17  1  0  0  0  0
 16 39  1  0  0  0  0
 17 18  2  0  0  0  0
 17 40  1  0  0  0  0
 18 19  1  0  0  0  0
 18 41  1  0  0  0  0
 19 20  2  0  0  0  0
 19 42  1  0  0  0  0
M  CHG  1   8   1
M  END
> <s_m_source_file>
AV-unprocessed.smi

> <i_m_source_file_index>
1219

> <i_lp_mmshare_version>
43012

> <i_f3d_flags>
0

> <s_epik_input>
bjFbY0hdW2NIXVtjSF1bY0hdYzFbTkhdQyg9TylbTkhdW0NIMl1bQ0BIXShbT0hdKVtDSDJdTjJbQ0gyXVtDSDJdW0NIMl1bQ0gyXVtDSDJdMg==

> <s_epik_cmdline>
J2VwaWtfcHl0aG9uJywgJy1waCcsICc3LjAnLCAnLXRuJywgJzgnLCAnLW1hJywgJzIwMCcsICctbWV0YWxfYmluZGluZycsICctaW1hZScsICc8aW5maWxlLm1hZT4nLCAnLW9tYWUnLCAnPG91dGZpbGUubWFlPic=

> <r_epik_Ionization_Penalty>
0.00510026

> <r_epik_Ionization_Penalty_Charging>
0.00506051

> <r_epik_Ionization_Penalty_Neutral>
3.97538e-05

> <r_epik_State_Penalty>
0.00368188

> <r_epik_Charging_Adjusted_Penalty>
0.0087424

> <i_epik_Tot_Q>
1

> <i_epik_Tot_abs_Q>
1

> <r_epik_Metal_State_Penalty>
-0

> <b_epik_Metal_Only>
0

> <s_lp_Force_Field>
OPLS_2005

> <r_lp_Energy>
20.5821

> <b_lp_Chiralities_Consistent>
1

> <s_lp_Variant>
AV-unprocessed.smi:1219-1

> <Gold.Version>
5.8.1

> <Gold.Id.Protein>
6NUR|6NUR_protein|mol2

> <Gold.PLP.Fitness>
48.6054

> <Gold.PLP.PLP>
-37.2905

> <Gold.PLP.part.hbond>
-4.0453

> <Gold.PLP.part.metal>
0.0000

> <Gold.PLP.part.buried>
-0.8092

> <Gold.PLP.part.nonpolar>
-30.7966

> <Gold.PLP.part.repulsive>
0.3673

> <Gold.PLP.ligand.clash>
0.0000

> <Gold.PLP.ligand.torsion>
0.3827

> <Gold.PLP.Chemscore.Hbond>
3.9833

> <Gold.PLP.Chemscore.CHOScore>
0.0000

> <Gold.PLP.Chemscore.Metal>
0.0000

> <Gold.Chemscore.Hbonds>
donor molecule, donor type, donor heavy atom, donor atom, acceptor molecule, acceptor atom, score
      L1  H     6    25       P1  7948  0.94
      L1  H     8    43       P1  7948  2.00
      P1  H  7997  8010       L1     1  0.77

> <Gold.PLP.Chemscore.Internal.Correction>
0.1303

> <Gold.Rescore>
     Score         DG    S(hbond)    S(metal)    S(lipo)     H(rot)  DE(clash)    DE(int)     intcor
     16.31     -18.21       2.66        0.00      85.67       2.41       0.06       1.84       ----

> <Gold.Chemscore.Fitness>
16.3149

> <Gold.Chemscore.DG>
-18.2104

> <Gold.Chemscore.ZeroCoef>
-5.4800

> <Gold.Chemscore.Hbond>
2.6551

> <Gold.Chemscore.Metal>
0.0000

> <Gold.Chemscore.Lipo>
85.6729

> <Gold.Chemscore.Internal_Hbond>
0.0000

> <Gold.Chemscore.DEClash>
0.0569

> <Gold.Chemscore.DEInternal>
1.8386

> <Gold.Chemscore.Rot>
2.4067

> <Gold.Chemscore.Internal.Correction>
   9.000000E+99

> <Gold.Chemscore.Hbonds>
donor molecule, donor type, donor heavy atom, donor atom, acceptor molecule, acceptor atom, score
      L1  H     6    25       P1  7948  0.50
      L1  H     8    43       P1  7948  1.00
      P1  H  7997  8010       L1     1  0.36

> <Gold.Chemscore.Hbond.Weighted>
-8.8679

> <Gold.Chemscore.Metal.Weighted>
-0.0000

> <Gold.Chemscore.Lipo.Weighted>
-10.0237

> <Gold.Chemscore.Internal_Hbond.Weighted>
0.0000

> <Gold.Chemscore.DEClash.Weighted>
0.0569

> <Gold.Chemscore.DEInternal.Weighted>
1.8386

> <Gold.Chemscore.Rot.Weighted>
6.1612

> <Gold.Chemscore.Internal.Correction.Weighted>
   9.000000E+99

> <Gold.Protein.RotatedTorsions>
[ 6907 6896 6895 6894 ] final   78.58 input  -60.11 | X-H torsion
[ 7974 7965 7964 7962 ] final  101.48 input  175.53 | X-H torsion
[ 8008 7997 7996 7995 ] final   63.33 input   59.86 | X-H torsion
[ 10167 10162 10161 10158 ] final   79.53 input  -65.29 | X-H torsion
[ 10718 10713 10712 10709 ] final -105.39 input   66.30 | X-H torsion
[ 10763 10752 10751 10750 ] final  110.79 input  -60.55 | X-H torsion
[ 11005 11000 10999 10996 ] final -101.43 input  -57.11 | X-H torsion

> <Gold.Protein.ActiveResidues>
 VAL166  LYS551  ARG553  GLY616  TRP617  ASP618  TYR619  PRO620  LYS621  CYS622 
 ASP623  PHE694  ASN695  SER759  ASP760  ASP761  ALA762  ILE779  LEU786  VAL792 
 PHE793  MET794  SER795  GLU796  ALA797  LYS798  CYS799  TRP800  GLU811  SER814 

> <Gold.Protein.RotatedAtoms>
  152.5165  134.3643  159.9295 H   0  0  0  0  0  0  0  0  0  0  0  0  # atno 6907 bound_to 6896
  151.3596  133.3888  159.2696 H   0  0  0  0  0  0  0  0  0  0  0  0  # atno 6908 bound_to 6896
  150.9662  134.9062  159.7819 H   0  0  0  0  0  0  0  0  0  0  0  0  # atno 6909 bound_to 6896
  145.3718  139.2396  143.3451 H   0  0  0  0  0  0  0  0  0  0  0  0  # atno 7974 bound_to 7965
  155.6285  140.3496  155.4675 H   0  0  0  0  0  0  0  0  0  0  0  0  # atno 8008 bound_to 7997
  156.0022  140.1215  157.0560 H   0  0  0  0  0  0  0  0  0  0  0  0  # atno 8009 bound_to 7997
  154.4252  140.1098  156.5699 H   0  0  0  0  0  0  0  0  0  0  0  0  # atno 8010 bound_to 7997
  139.9593  144.5972  150.8087 H   0  0  0  0  0  0  0  0  0  0  0  0  # atno 10167 bound_to 10162
  156.0344  130.5561  150.7532 H   0  0  0  0  0  0  0  0  0  0  0  0  # atno 10718 bound_to 10713
  153.4541  135.3737  155.2300 H   0  0  0  0  0  0  0  0  0  0  0  0  # atno 10763 bound_to 10752
  154.8757  135.3893  154.4003 H   0  0  0  0  0  0  0  0  0  0  0  0  # atno 10764 bound_to 10752
  153.4567  135.7086  153.6139 H   0  0  0  0  0  0  0  0  0  0  0  0  # atno 10765 bound_to 10752
  141.1231  133.8478  157.1231 H   0  0  0  0  0  0  0  0  0  0  0  0  # atno 11005 bound_to 11000
  146.2882  140.4371  142.8750 LP  0  0  0  0  0  0  0  0  0  0  0  0  # atno 17320 bound_to 7965
  144.8571  140.7085  143.6131 LP  0  0  0  0  0  0  0  0  0  0  0  0  # atno 17321 bound_to 7965
  140.7558  143.3054  151.2976 LP  0  0  0  0  0  0  0  0  0  0  0  0  # atno 17342 bound_to 10162
  139.6566  144.0264  152.2664 LP  0  0  0  0  0  0  0  0  0  0  0  0  # atno 17343 bound_to 10162
  157.5071  131.0923  151.0244 LP  0  0  0  0  0  0  0  0  0  0  0  0  # atno 17370 bound_to 10713
  157.0610  130.5825  149.5386 LP  0  0  0  0  0  0  0  0  0  0  0  0  # atno 17371 bound_to 10713
  140.0205  134.9948  157.0581 LP  0  0  0  0  0  0  0  0  0  0  0  0  # atno 17394 bound_to 11000
  140.4448  134.1643  155.7176 LP  0  0  0  0  0  0  0  0  0  0  0  0  # atno 17395 bound_to 11000

$$$$
