AV-unprocessed.smi:2178|AV-procd|sdf|8855|dock7
  -GOLD-   2272012 53D 1   1.00000     0.00000
 Structure written by MMmdl.
 47 49  0  0  0  0  0  0  0  0  2 V2000
  153.2037  141.1407  161.5828 C   0  0  0  0  0  0  0  0  0  0  0  0
  152.7504  142.5724  161.3662 C   0  0  0  0  0  0  0  0  0  0  0  0
  152.8557  143.5005  162.4226 C   0  0  0  0  0  0  0  0  0  0  0  0
  152.4284  144.8293  162.2443 C   0  0  0  0  0  0  0  0  0  0  0  0
  151.8881  145.2353  161.0102 C   0  0  0  0  0  0  0  0  0  0  0  0
  151.7778  144.3160  159.9466 C   0  0  0  0  0  0  0  0  0  0  0  0
  151.1821  144.7660  158.6253 C   0  0  0  0  0  0  0  0  0  0  0  0
  152.2233  142.9842  160.1192 C   0  0  0  0  0  0  0  0  0  0  0  0
  152.1159  142.0898  159.0862 O   0  0  0  0  0  0  0  0  0  0  0  0
  151.1508  141.0711  159.3102 C   0  0  0  0  0  0  0  0  0  0  0  0
  150.9606  140.2396  158.0324 C   0  0  1  0  0  0  0  0  0  0  0  0
  149.9695  139.2574  158.2588 O   0  0  0  0  0  0  0  0  0  0  0  0
  150.6514  141.0926  156.7850 C   0  0  0  0  0  0  0  0  0  0  0  0
  149.8536  140.3686  155.7820 N   0  0  0  0  0  0  0  0  0  0  0  0
  150.0269  139.1236  155.2508 C   0  0  0  0  0  0  0  0  0  0  0  0
  151.1096  138.1486  155.5777 C   0  0  0  0  0  0  0  0  0  0  0  0
  150.7503  136.8227  155.2588 O   0  0  0  0  0  0  0  0  0  0  0  0
  149.0128  138.9184  154.3638 N   0  3  0  0  0  0  0  0  0  0  0  0
  148.1843  140.0402  154.3241 C   0  0  0  0  0  0  0  0  0  0  0  0
  147.0363  140.2986  153.5815 C   0  0  0  0  0  0  0  0  0  0  0  0
  146.4217  141.5521  153.7816 C   0  0  0  0  0  0  0  0  0  0  0  0
  146.9486  142.4906  154.6924 C   0  0  0  0  0  0  0  0  0  0  0  0
  148.1126  142.2170  155.4404 C   0  0  0  0  0  0  0  0  0  0  0  0
  148.7170  140.9766  155.2340 C   0  0  0  0  0  0  0  0  0  0  0  0
  153.2145  140.8897  162.6439 H   0  0  0  0  0  0  0  0  0  0  0  0
  154.2103  140.9996  161.1895 H   0  0  0  0  0  0  0  0  0  0  0  0
  152.5357  140.4394  161.0818 H   0  0  0  0  0  0  0  0  0  0  0  0
  153.2629  143.1951  163.3753 H   0  0  0  0  0  0  0  0  0  0  0  0
  152.5102  145.5360  163.0570 H   0  0  0  0  0  0  0  0  0  0  0  0
  151.5569  146.2557  160.8841 H   0  0  0  0  0  0  0  0  0  0  0  0
  150.5187  144.0017  158.2193 H   0  0  0  0  0  0  0  0  0  0  0  0
  151.9724  144.9570  157.8992 H   0  0  0  0  0  0  0  0  0  0  0  0
  150.6019  145.6812  158.7463 H   0  0  0  0  0  0  0  0  0  0  0  0
  151.4997  140.4163  160.1100 H   0  0  0  0  0  0  0  0  0  0  0  0
  150.2012  141.4936  159.6417 H   0  0  0  0  0  0  0  0  0  0  0  0
  151.8869  139.6923  157.8562 H   0  0  0  0  0  0  0  0  0  0  0  0
  149.7343  139.2765  159.1737 H   0  0  0  0  0  0  0  0  0  0  0  0
  150.1364  142.0162  157.0491 H   0  0  0  0  0  0  0  0  0  0  0  0
  151.5821  141.3991  156.3073 H   0  0  0  0  0  0  0  0  0  0  0  0
  152.0133  138.4131  155.0278 H   0  0  0  0  0  0  0  0  0  0  0  0
  151.3529  138.2097  156.6382 H   0  0  0  0  0  0  0  0  0  0  0  0
  150.7542  136.7270  154.3183 H   0  0  0  0  0  0  0  0  0  0  0  0
  146.6292  139.5804  152.8850 H   0  0  0  0  0  0  0  0  0  0  0  0
  145.5278  141.7979  153.2269 H   0  0  0  0  0  0  0  0  0  0  0  0
  146.4494  143.4400  154.8220 H   0  0  0  0  0  0  0  0  0  0  0  0
  148.5020  142.9423  156.1396 H   0  0  0  0  0  0  0  0  0  0  0  0
  148.8966  138.0676  153.8284 H   0  0  0  0  0  0  0  0  0  0  0  0
  1  2  1  0  0  0  0
  1 25  1  0  0  0  0
  1 26  1  0  0  0  0
  1 27  1  0  0  0  0
  2  8  1  0  0  0  0
  2  3  2  0  0  0  0
  3  4  1  0  0  0  0
  3 28  1  0  0  0  0
  4  5  2  0  0  0  0
  4 29  1  0  0  0  0
  5  6  1  0  0  0  0
  5 30  1  0  0  0  0
  6  7  1  0  0  0  0
  6  8  2  0  0  0  0
  7 31  1  0  0  0  0
  7 32  1  0  0  0  0
  7 33  1  0  0  0  0
  8  9  1  0  0  0  0
  9 10  1  0  0  0  0
 10 11  1  0  0  0  0
 10 34  1  0  0  0  0
 10 35  1  0  0  0  0
 11 12  1  0  0  0  0
 11 13  1  0  0  0  0
 11 36  1  0  0  0  0
 12 37  1  0  0  0  0
 13 14  1  0  0  0  0
 13 38  1  0  0  0  0
 13 39  1  0  0  0  0
 14 24  1  0  0  0  0
 14 15  1  0  0  0  0
 15 16  1  0  0  0  0
 15 18  2  0  0  0  0
 16 17  1  0  0  0  0
 16 40  1  0  0  0  0
 16 41  1  0  0  0  0
 17 42  1  0  0  0  0
 18 19  1  0  0  0  0
 18 47  1  0  0  0  0
 19 24  2  0  0  0  0
 19 20  1  0  0  0  0
 20 21  2  0  0  0  0
 20 43  1  0  0  0  0
 21 22  1  0  0  0  0
 21 44  1  0  0  0  0
 22 23  2  0  0  0  0
 22 45  1  0  0  0  0
 23 24  1  0  0  0  0
 23 46  1  0  0  0  0
M  CHG  1  18   1
M  END
> <s_m_source_file>
AV-unprocessed.smi

> <i_m_source_file_index>
2178

> <i_lp_mmshare_version>
43012

> <i_f3d_flags>
0

> <s_epik_input>
W0NIM11jMVtjSF1bY0hdW2NIXWMoW0NIM10pYzFPW0NIMl1bQ0BIXShbT0hdKVtDSDJdbihjKG4yKVtDSDJdW09IXSljKGMyMylbY0hdW2NIXVtjSF1bY0hdMw==

> <s_epik_cmdline>
J2VwaWtfcHl0aG9uJywgJy1waCcsICc3LjAnLCAnLXRuJywgJzgnLCAnLW1hJywgJzIwMCcsICctbWV0YWxfYmluZGluZycsICctaW1hZScsICc8aW5maWxlLm1hZT4nLCAnLW9tYWUnLCAnPG91dGZpbGUubWFlPic=

> <r_lp_tautomer_probability>
1

> <r_epik_Ionization_Penalty>
1.43125

> <r_epik_Ionization_Penalty_Charging>
1.43039

> <r_epik_Ionization_Penalty_Neutral>
0.000858184

> <r_epik_State_Penalty>
1.51493

> <r_epik_Charging_Adjusted_Penalty>
2.94531

> <i_epik_Tot_Q>
1

> <i_epik_Tot_abs_Q>
1

> <r_epik_Metal_State_Penalty>
5.5599

> <b_epik_Metal_Only>
0

> <s_lp_Force_Field>
OPLS_2005

> <r_lp_Energy>
23.7174

> <b_lp_Chiralities_Consistent>
1

> <s_lp_Variant>
AV-unprocessed.smi:2178-4

> <Gold.Version>
5.8.1

> <Gold.Id.Protein>
6NUR|6NUR_protein|mol2

> <Gold.PLP.Fitness>
69.2946

> <Gold.PLP.PLP>
-58.9386

> <Gold.PLP.part.hbond>
-4.0000

> <Gold.PLP.part.metal>
0.0000

> <Gold.PLP.part.buried>
0.4409

> <Gold.PLP.part.nonpolar>
-55.4797

> <Gold.PLP.part.repulsive>
0.0866

> <Gold.PLP.ligand.clash>
0.0000

> <Gold.PLP.ligand.torsion>
0.9051

> <Gold.PLP.Chemscore.Hbond>
4.0000

> <Gold.PLP.Chemscore.CHOScore>
0.0000

> <Gold.PLP.Chemscore.Metal>
0.0000

> <Gold.PLP.Chemscore.Internal.Correction>
0.1662

> <Gold.Rescore>
     Score         DG    S(hbond)    S(metal)    S(lipo)     H(rot)  DE(clash)    DE(int)     intcor
     21.13     -23.76       2.44        0.00     153.19       3.05       1.61       1.02       ----

> <Gold.Chemscore.Fitness>
21.1310

> <Gold.Chemscore.DG>
-23.7636

> <Gold.Chemscore.ZeroCoef>
-5.4800

> <Gold.Chemscore.Hbond>
2.4439

> <Gold.Chemscore.Metal>
0.0000

> <Gold.Chemscore.Lipo>
153.1869

> <Gold.Chemscore.Internal_Hbond>
0.0000

> <Gold.Chemscore.DEClash>
1.6089

> <Gold.Chemscore.DEInternal>
1.0237

> <Gold.Chemscore.Rot>
3.0476

> <Gold.Chemscore.Internal.Correction>
   9.000000E+99

> <Gold.Chemscore.Hbond.Weighted>
-8.1625

> <Gold.Chemscore.Metal.Weighted>
-0.0000

> <Gold.Chemscore.Lipo.Weighted>
-17.9229

> <Gold.Chemscore.Internal_Hbond.Weighted>
0.0000

> <Gold.Chemscore.DEClash.Weighted>
1.6089

> <Gold.Chemscore.DEInternal.Weighted>
1.0237

> <Gold.Chemscore.Rot.Weighted>
7.8018

> <Gold.Chemscore.Internal.Correction.Weighted>
   9.000000E+99

> <Gold.Protein.RotatedTorsions>
[ 6907 6896 6895 6894 ] final  162.15 input  -60.11 | X-H torsion
[ 7974 7965 7964 7962 ] final  107.57 input  175.53 | X-H torsion
[ 8008 7997 7996 7995 ] final  -72.94 input   59.86 | X-H torsion
[ 10167 10162 10161 10158 ] final  -85.03 input  -65.29 | X-H torsion
[ 10718 10713 10712 10709 ] final  174.65 input   66.30 | X-H torsion
[ 10763 10752 10751 10750 ] final  -59.26 input  -60.55 | X-H torsion
[ 11005 11000 10999 10996 ] final   24.85 input  -57.11 | X-H torsion

> <Gold.Protein.ActiveResidues>
 VAL166  LYS551  ARG553  GLY616  TRP617  ASP618  TYR619  PRO620  LYS621  CYS622 
 ASP623  PHE694  ASN695  SER759  ASP760  ASP761  ALA762  ILE779  LEU786  VAL792 
 PHE793  MET794  SER795  GLU796  ALA797  LYS798  CYS799  TRP800  GLU811  SER814 

> <Gold.Protein.RotatedAtoms>
  151.9448  133.3648  159.3977 H   0  0  0  0  0  0  0  0  0  0  0  0  # atno 6907 bound_to 6896
  150.6991  134.4402  159.5298 H   0  0  0  0  0  0  0  0  0  0  0  0  # atno 6908 bound_to 6896
  152.2065  134.8541  160.0553 H   0  0  0  0  0  0  0  0  0  0  0  0  # atno 6909 bound_to 6896
  145.2920  139.2597  143.3860 H   0  0  0  0  0  0  0  0  0  0  0  0  # atno 7974 bound_to 7965
  154.5207  140.0788  156.8166 H   0  0  0  0  0  0  0  0  0  0  0  0  # atno 8008 bound_to 7997
  155.3583  140.3416  155.4222 H   0  0  0  0  0  0  0  0  0  0  0  0  # atno 8009 bound_to 7997
  156.1678  140.1609  156.8488 H   0  0  0  0  0  0  0  0  0  0  0  0  # atno 8010 bound_to 7997
  140.4076  143.2636  151.9060 H   0  0  0  0  0  0  0  0  0  0  0  0  # atno 10167 bound_to 10162
  156.9465  131.0017  151.2957 H   0  0  0  0  0  0  0  0  0  0  0  0  # atno 10718 bound_to 10713
  154.2510  135.6326  153.5240 H   0  0  0  0  0  0  0  0  0  0  0  0  # atno 10763 bound_to 10752
  152.9912  135.5565  154.5807 H   0  0  0  0  0  0  0  0  0  0  0  0  # atno 10764 bound_to 10752
  154.5335  135.2890  155.1134 H   0  0  0  0  0  0  0  0  0  0  0  0  # atno 10765 bound_to 10752
  140.3542  134.2195  155.7677 H   0  0  0  0  0  0  0  0  0  0  0  0  # atno 11005 bound_to 11000
  146.3182  140.3413  142.8648 LP  0  0  0  0  0  0  0  0  0  0  0  0  # atno 17320 bound_to 7965
  144.9165  140.7818  143.5775 LP  0  0  0  0  0  0  0  0  0  0  0  0  # atno 17321 bound_to 7965
  139.4783  144.5570  151.8298 LP  0  0  0  0  0  0  0  0  0  0  0  0  # atno 17342 bound_to 10162
  140.4673  144.1637  150.5913 LP  0  0  0  0  0  0  0  0  0  0  0  0  # atno 17343 bound_to 10162
  157.5750  130.8337  149.8444 LP  0  0  0  0  0  0  0  0  0  0  0  0  # atno 17370 bound_to 10713
  156.0381  130.3746  150.1506 LP  0  0  0  0  0  0  0  0  0  0  0  0  # atno 17371 bound_to 10713
  141.2003  133.7990  157.0495 LP  0  0  0  0  0  0  0  0  0  0  0  0  # atno 17394 bound_to 11000
  140.0678  134.9719  157.1416 LP  0  0  0  0  0  0  0  0  0  0  0  0  # atno 17395 bound_to 11000

$$$$
