AV-unprocessed.smi:1669|AV-procd|sdf|6690|dock7
  -GOLD-   22720 7423D 1   1.00000     0.00000
 Structure written by MMmdl.
 49 51  0  0  0  0  0  0  0  0  3 V2000
  149.0008  138.3832  154.0705 C   0  0  0  0  0  0  0  0  0  0  0  0
  149.8733  137.2160  154.3524 N   0  3  2  0  0  0  0  0  0  0  0  0
  149.4120  136.4263  155.5228 C   0  0  0  0  0  0  0  0  0  0  0  0
  149.9687  135.0134  155.5194 C   0  0  0  0  0  0  0  0  0  0  0  0
  149.4513  134.0432  154.6345 C   0  0  0  0  0  0  0  0  0  0  0  0
  149.9733  132.7351  154.6357 C   0  0  0  0  0  0  0  0  0  0  0  0
  151.0125  132.3918  155.5219 C   0  0  0  0  0  0  0  0  0  0  0  0
  151.5298  133.3564  156.4078 C   0  0  0  0  0  0  0  0  0  0  0  0
  151.0084  134.6647  156.4073 C   0  0  0  0  0  0  0  0  0  0  0  0
  151.3116  137.5807  154.4506 C   0  0  0  0  0  0  0  0  0  0  0  0
  151.5232  139.0504  154.8663 C   0  0  2  0  0  0  0  0  0  0  0  0
  152.9083  139.3354  154.8341 O   0  0  0  0  0  0  0  0  0  0  0  0
  150.9679  139.3354  156.2768 C   0  0  0  0  0  0  0  0  0  0  0  0
  150.8752  140.7746  156.5740 N   0  0  0  0  0  0  0  0  0  0  0  0
  150.1214  141.7447  155.9789 C   0  0  0  0  0  0  0  0  0  0  0  0
  149.1637  141.5663  154.8439 C   0  0  0  0  0  0  0  0  0  0  0  0
  149.8042  141.2453  153.6277 O   0  0  0  0  0  0  0  0  0  0  0  0
  150.3941  142.9165  156.6201 N   0  3  0  0  0  0  0  0  0  0  0  0
  151.3294  142.6981  157.6311 C   0  0  0  0  0  0  0  0  0  0  0  0
  151.9102  143.5784  158.5386 C   0  0  0  0  0  0  0  0  0  0  0  0
  152.8371  143.0290  159.4483 C   0  0  0  0  0  0  0  0  0  0  0  0
  153.1531  141.6552  159.4336 C   0  0  0  0  0  0  0  0  0  0  0  0
  152.5564  140.7723  158.5096 C   0  0  0  0  0  0  0  0  0  0  0  0
  151.6418  141.3230  157.6110 C   0  0  0  0  0  0  0  0  0  0  0  0
  149.0071  139.0851  154.9052 H   0  0  0  0  0  0  0  0  0  0  0  0
  147.9706  138.0732  153.8972 H   0  0  0  0  0  0  0  0  0  0  0  0
  149.3204  138.9180  153.1774 H   0  0  0  0  0  0  0  0  0  0  0  0
  149.7422  136.8986  156.4491 H   0  0  0  0  0  0  0  0  0  0  0  0
  148.3213  136.4086  155.5554 H   0  0  0  0  0  0  0  0  0  0  0  0
  148.6544  134.2987  153.9512 H   0  0  0  0  0  0  0  0  0  0  0  0
  149.5761  131.9945  153.9572 H   0  0  0  0  0  0  0  0  0  0  0  0
  151.4118  131.3882  155.5231 H   0  0  0  0  0  0  0  0  0  0  0  0
  152.3262  133.0922  157.0880 H   0  0  0  0  0  0  0  0  0  0  0  0
  151.4097  135.4000  157.0897 H   0  0  0  0  0  0  0  0  0  0  0  0
  151.8047  136.9069  155.1532 H   0  0  0  0  0  0  0  0  0  0  0  0
  151.8055  137.4272  153.4899 H   0  0  0  0  0  0  0  0  0  0  0  0
  151.0282  139.7176  154.1616 H   0  0  0  0  0  0  0  0  0  0  0  0
  153.1080  139.7836  154.0263 H   0  0  0  0  0  0  0  0  0  0  0  0
  149.9618  138.9247  156.3687 H   0  0  0  0  0  0  0  0  0  0  0  0
  151.5632  138.8441  157.0467 H   0  0  0  0  0  0  0  0  0  0  0  0
  148.4541  140.7741  155.0825 H   0  0  0  0  0  0  0  0  0  0  0  0
  148.5923  142.4854  154.7135 H   0  0  0  0  0  0  0  0  0  0  0  0
  149.3272  140.5434  153.2111 H   0  0  0  0  0  0  0  0  0  0  0  0
  151.6693  144.6313  158.5512 H   0  0  0  0  0  0  0  0  0  0  0  0
  153.3148  143.6742  160.1715 H   0  0  0  0  0  0  0  0  0  0  0  0
  153.8686  141.2706  160.1459 H   0  0  0  0  0  0  0  0  0  0  0  0
  152.8106  139.7233  158.5096 H   0  0  0  0  0  0  0  0  0  0  0  0
  149.8008  136.5953  153.5585 H   0  0  0  0  0  0  0  0  0  0  0  0
  149.9690  143.8018  156.3754 H   0  0  0  0  0  0  0  0  0  0  0  0
  1  2  1  0  0  0  0
  1 25  1  0  0  0  0
  1 26  1  0  0  0  0
  1 27  1  0  0  0  0
  2  3  1  0  0  0  0
  2 10  1  0  0  0  0
  2 48  1  0  0  0  0
  3  4  1  0  0  0  0
  3 28  1  0  0  0  0
  3 29  1  0  0  0  0
  4  9  1  0  0  0  0
  4  5  2  0  0  0  0
  5  6  1  0  0  0  0
  5 30  1  0  0  0  0
  6  7  2  0  0  0  0
  6 31  1  0  0  0  0
  7  8  1  0  0  0  0
  7 32  1  0  0  0  0
  8  9  2  0  0  0  0
  8 33  1  0  0  0  0
  9 34  1  0  0  0  0
 10 11  1  0  0  0  0
 10 35  1  0  0  0  0
 10 36  1  0  0  0  0
 11 12  1  0  0  0  0
 11 13  1  0  0  0  0
 11 37  1  0  0  0  0
 12 38  1  0  0  0  0
 13 14  1  0  0  0  0
 13 39  1  0  0  0  0
 13 40  1  0  0  0  0
 14 24  1  0  0  0  0
 14 15  1  0  0  0  0
 15 16  1  0  0  0  0
 15 18  2  0  0  0  0
 16 17  1  0  0  0  0
 16 41  1  0  0  0  0
 16 42  1  0  0  0  0
 17 43  1  0  0  0  0
 18 19  1  0  0  0  0
 18 49  1  0  0  0  0
 19 24  2  0  0  0  0
 19 20  1  0  0  0  0
 20 21  2  0  0  0  0
 20 44  1  0  0  0  0
 21 22  1  0  0  0  0
 21 45  1  0  0  0  0
 22 23  2  0  0  0  0
 22 46  1  0  0  0  0
 23 24  1  0  0  0  0
 23 47  1  0  0  0  0
M  CHG  1   2   1
M  CHG  1  18   1
M  END
> <s_m_source_file>
AV-unprocessed.smi

> <i_m_source_file_index>
1669

> <i_lp_mmshare_version>
43012

> <i_f3d_flags>
0

> <s_epik_input>
W2NIXTFbY0hdW2NIXVtjSF1bY0hdYzFbQ0gyXU4oW0NIM10pW0NIMl1bQ0BIXShbT0hdKVtDSDJdbihjKG4yKVtDSDJdW09IXSljKGMyMylbY0hdW2NIXVtjSF1bY0hdMw==

> <s_epik_cmdline>
J2VwaWtfcHl0aG9uJywgJy1waCcsICc3LjAnLCAnLXRuJywgJzgnLCAnLW1hJywgJzIwMCcsICctbWV0YWxfYmluZGluZycsICctaW1hZScsICc8aW5maWxlLm1hZT4nLCAnLW9tYWUnLCAnPG91dGZpbGUubWFlPic=

> <r_epik_Ionization_Penalty>
1.57484

> <r_epik_Ionization_Penalty_Charging>
1.57398

> <r_epik_Ionization_Penalty_Neutral>
0.000858917

> <r_epik_State_Penalty>
1.64997

> <r_epik_Charging_Adjusted_Penalty>
3.22395

> <i_epik_Tot_Q>
2

> <i_epik_Tot_abs_Q>
2

> <r_epik_Metal_State_Penalty>
5.70481

> <b_epik_Metal_Only>
0

> <s_lp_Force_Field>
OPLS_2005

> <r_lp_Energy>
22.9184

> <b_lp_Chiralities_Consistent>
1

> <s_lp_Variant>
AV-unprocessed.smi:1669-8

> <Gold.Version>
5.8.1

> <Gold.Id.Protein>
6NUR|6NUR_protein|mol2

> <Gold.PLP.Fitness>
65.9390

> <Gold.PLP.PLP>
-50.0313

> <Gold.PLP.part.hbond>
-6.1771

> <Gold.PLP.part.metal>
0.0000

> <Gold.PLP.part.buried>
-2.6913

> <Gold.PLP.part.nonpolar>
-40.4500

> <Gold.PLP.part.repulsive>
0.0867

> <Gold.PLP.ligand.clash>
0.8047

> <Gold.PLP.ligand.torsion>
1.0170

> <Gold.PLP.Chemscore.Hbond>
6.1315

> <Gold.PLP.Chemscore.CHOScore>
0.0000

> <Gold.PLP.Chemscore.Metal>
0.0000

> <Gold.Chemscore.Hbonds>
donor molecule, donor type, donor heavy atom, donor atom, acceptor molecule, acceptor atom, score
      L1  H     2    48       P1  7948  1.92
      L1  H    17    43       P1  7957  0.32
      L1  H    18    49       P1  8028  2.00
      P1  H  7989  7998       L1    17  0.19
      P1  H  7997  8008       L1    12  0.81
      P1  H  8011  8017       L1    17  0.88

> <Gold.PLP.Chemscore.Internal.Correction>
0.3522

> <Gold.Rescore>
     Score         DG    S(hbond)    S(metal)    S(lipo)     H(rot)  DE(clash)    DE(int)     intcor
     19.87     -20.88       2.85        0.00     121.97       3.27       0.13       0.88       ----

> <Gold.Chemscore.Fitness>
19.8661

> <Gold.Chemscore.DG>
-20.8845

> <Gold.Chemscore.ZeroCoef>
-5.4800

> <Gold.Chemscore.Hbond>
2.8473

> <Gold.Chemscore.Metal>
0.0000

> <Gold.Chemscore.Lipo>
121.9706

> <Gold.Chemscore.Internal_Hbond>
0.0000

> <Gold.Chemscore.DEClash>
0.1334

> <Gold.Chemscore.DEInternal>
0.8850

> <Gold.Chemscore.Rot>
3.2718

> <Gold.Chemscore.Internal.Correction>
   9.000000E+99

> <Gold.Chemscore.Hbonds>
donor molecule, donor type, donor heavy atom, donor atom, acceptor molecule, acceptor atom, score
      L1  H     2    48       P1  7948  0.32
      L1  H    17    43       P1  7957  0.33
      L1  H    18    49       P1  8028  0.96
      P1  H  7989  7998       L1    17  0.14
      P1  H  7997  8008       L1    12  0.24
      P1  H  8011  8017       L1    17  0.21

> <Gold.Chemscore.Hbond.Weighted>
-9.5098

> <Gold.Chemscore.Metal.Weighted>
-0.0000

> <Gold.Chemscore.Lipo.Weighted>
-14.2706

> <Gold.Chemscore.Internal_Hbond.Weighted>
0.0000

> <Gold.Chemscore.DEClash.Weighted>
0.1334

> <Gold.Chemscore.DEInternal.Weighted>
0.8850

> <Gold.Chemscore.Rot.Weighted>
8.3759

> <Gold.Chemscore.Internal.Correction.Weighted>
   9.000000E+99

> <Gold.Protein.RotatedTorsions>
[ 6907 6896 6895 6894 ] final   88.07 input  -60.11 | X-H torsion
[ 7974 7965 7964 7962 ] final   85.22 input  175.53 | X-H torsion
[ 8008 7997 7996 7995 ] final  -30.90 input   59.86 | X-H torsion
[ 10167 10162 10161 10158 ] final  -39.23 input  -65.29 | X-H torsion
[ 10718 10713 10712 10709 ] final  -43.04 input   66.30 | X-H torsion
[ 10763 10752 10751 10750 ] final  113.77 input  -60.55 | X-H torsion
[ 11005 11000 10999 10996 ] final   58.23 input  -57.11 | X-H torsion

> <Gold.Protein.ActiveResidues>
 VAL166  LYS551  ARG553  GLY616  TRP617  ASP618  TYR619  PRO620  LYS621  CYS622 
 ASP623  PHE694  ASN695  SER759  ASP760  ASP761  ALA762  ILE779  LEU786  VAL792 
 PHE793  MET794  SER795  GLU796  ALA797  LYS798  CYS799  TRP800  GLU811  SER814 

> <Gold.Protein.RotatedAtoms>
  152.5420  134.2178  159.8775 H   0  0  0  0  0  0  0  0  0  0  0  0  # atno 6907 bound_to 6896
  151.2157  133.4524  159.2607 H   0  0  0  0  0  0  0  0  0  0  0  0  # atno 6908 bound_to 6896
  151.0854  134.9897  159.8432 H   0  0  0  0  0  0  0  0  0  0  0  0  # atno 6909 bound_to 6896
  145.5884  139.2334  143.2313 H   0  0  0  0  0  0  0  0  0  0  0  0  # atno 7974 bound_to 7965
  154.4233  140.1779  156.1481 H   0  0  0  0  0  0  0  0  0  0  0  0  # atno 8008 bound_to 7997
  155.9937  140.3366  155.6753 H   0  0  0  0  0  0  0  0  0  0  0  0  # atno 8009 bound_to 7997
  155.6337  140.0672  157.2631 H   0  0  0  0  0  0  0  0  0  0  0  0  # atno 8010 bound_to 7997
  140.7070  143.3227  151.2753 H   0  0  0  0  0  0  0  0  0  0  0  0  # atno 10167 bound_to 10162
  156.2531  130.4190  149.8626 H   0  0  0  0  0  0  0  0  0  0  0  0  # atno 10718 bound_to 10713
  153.4974  135.3645  155.2522 H   0  0  0  0  0  0  0  0  0  0  0  0  # atno 10763 bound_to 10752
  154.8749  135.3991  154.3518 H   0  0  0  0  0  0  0  0  0  0  0  0  # atno 10764 bound_to 10752
  153.4148  135.7079  153.6400 H   0  0  0  0  0  0  0  0  0  0  0  0  # atno 10765 bound_to 10752
  140.0393  134.5897  155.9403 H   0  0  0  0  0  0  0  0  0  0  0  0  # atno 11005 bound_to 11000
  146.1665  140.6710  142.9253 LP  0  0  0  0  0  0  0  0  0  0  0  0  # atno 17320 bound_to 7965
  144.7362  140.4815  143.6902 LP  0  0  0  0  0  0  0  0  0  0  0  0  # atno 17321 bound_to 7965
  139.6686  144.0061  152.2739 LP  0  0  0  0  0  0  0  0  0  0  0  0  # atno 17342 bound_to 10162
  139.9652  144.6531  150.8042 LP  0  0  0  0  0  0  0  0  0  0  0  0  # atno 17343 bound_to 10162
  156.6168  130.8609  151.3466 LP  0  0  0  0  0  0  0  0  0  0  0  0  # atno 17370 bound_to 10713
  157.7222  130.9574  150.1486 LP  0  0  0  0  0  0  0  0  0  0  0  0  # atno 17371 bound_to 10713
  141.1874  133.6560  156.5281 LP  0  0  0  0  0  0  0  0  0  0  0  0  # atno 17394 bound_to 11000
  140.4096  134.7284  157.4828 LP  0  0  0  0  0  0  0  0  0  0  0  0  # atno 17395 bound_to 11000

$$$$
