AV-unprocessed.smi:2204|AV-procd|sdf|8938|dock1
  -GOLD-   2272012153D 1   1.00000     0.00000
 Structure written by MMmdl.
 39 40  0  0  0  0  0  0  0  0  1 V2000
  151.7650  144.2674  159.5103 C   0  0  0  0  0  0  0  0  0  0  0  0
  152.3605  142.9141  159.7646 C   0  0  0  0  0  0  0  0  0  0  0  0
  153.4185  142.5688  160.6508 C   0  0  0  0  0  0  0  0  0  0  0  0
  153.5623  141.2189  160.4954 C   0  0  0  0  0  0  0  0  0  0  0  0
  154.5097  140.2712  161.1551 C   0  0  0  0  0  0  0  0  0  0  0  0
  152.6251  140.8205  159.5577 N   0  0  0  0  0  0  0  0  0  0  0  0
  152.3615  139.4905  159.0247 C   0  0  0  0  0  0  0  0  0  0  0  0
  152.2881  139.4794  157.4941 C   0  0  0  0  0  0  0  0  0  0  0  0
  153.1998  138.9691  156.8436 O   0  0  0  0  0  0  0  0  0  0  0  0
  151.2150  140.0612  156.9327 N   0  0  0  0  0  0  0  0  0  0  0  0
  150.9523  140.1766  155.5012 C   0  0  1  0  0  0  0  0  0  0  0  0
  150.9071  138.7626  154.9014 C   0  0  0  0  0  0  0  0  0  0  0  0
  149.6413  140.9578  155.2717 C   0  0  2  0  0  0  0  0  0  0  0  0
  148.4410  140.4299  156.0622 C   0  0  0  0  0  0  0  0  0  0  0  0
  147.2802  140.8612  155.1961 C   0  0  0  0  0  0  0  0  0  0  0  0
  147.8432  140.6224  153.8008 C   0  0  0  0  0  0  0  0  0  0  0  0
  149.2401  140.8806  153.9031 O   0  0  0  0  0  0  0  0  0  0  0  0
  151.8899  141.8634  159.1136 N   0  0  0  0  0  0  0  0  0  0  0  0
  152.1441  145.0043  160.2186 H   0  0  0  0  0  0  0  0  0  0  0  0
  150.6792  144.2448  159.6055 H   0  0  0  0  0  0  0  0  0  0  0  0
  152.0055  144.6180  158.5066 H   0  0  0  0  0  0  0  0  0  0  0  0
  153.9865  143.2154  161.3030 H   0  0  0  0  0  0  0  0  0  0  0  0
  155.1879  140.8011  161.8240 H   0  0  0  0  0  0  0  0  0  0  0  0
  155.1133  139.7444  160.4163 H   0  0  0  0  0  0  0  0  0  0  0  0
  153.9702  139.5300  161.7448 H   0  0  0  0  0  0  0  0  0  0  0  0
  153.1423  138.8050  159.3541 H   0  0  0  0  0  0  0  0  0  0  0  0
  151.4233  139.1227  159.4437 H   0  0  0  0  0  0  0  0  0  0  0  0
  150.5208  140.4548  157.5509 H   0  0  0  0  0  0  0  0  0  0  0  0
  151.7698  140.7145  155.0178 H   0  0  0  0  0  0  0  0  0  0  0  0
  150.7703  138.7917  153.8205 H   0  0  0  0  0  0  0  0  0  0  0  0
  150.0910  138.1765  155.3253 H   0  0  0  0  0  0  0  0  0  0  0  0
  151.8369  138.2265  155.0953 H   0  0  0  0  0  0  0  0  0  0  0  0
  149.7856  142.0133  155.5091 H   0  0  0  0  0  0  0  0  0  0  0  0
  148.4700  139.3410  156.1257 H   0  0  0  0  0  0  0  0  0  0  0  0
  148.3886  140.8304  157.0751 H   0  0  0  0  0  0  0  0  0  0  0  0
  146.3656  140.3001  155.3898 H   0  0  0  0  0  0  0  0  0  0  0  0
  147.0726  141.9217  155.3447 H   0  0  0  0  0  0  0  0  0  0  0  0
  147.7050  139.5807  153.5087 H   0  0  0  0  0  0  0  0  0  0  0  0
  147.3729  141.2520  153.0452 H   0  0  0  0  0  0  0  0  0  0  0  0
  1  2  1  0  0  0  0
  1 19  1  0  0  0  0
  1 20  1  0  0  0  0
  1 21  1  0  0  0  0
  2 18  2  0  0  0  0
  2  3  1  0  0  0  0
  3  4  2  0  0  0  0
  3 22  1  0  0  0  0
  4  5  1  0  0  0  0
  4  6  1  0  0  0  0
  5 23  1  0  0  0  0
  5 24  1  0  0  0  0
  5 25  1  0  0  0  0
  6  7  1  0  0  0  0
  6 18  1  0  0  0  0
  7  8  1  0  0  0  0
  7 26  1  0  0  0  0
  7 27  1  0  0  0  0
  8  9  2  0  0  0  0
  8 10  1  0  0  0  0
 10 11  1  0  0  0  0
 10 28  1  0  0  0  0
 11 12  1  0  0  0  0
 11 13  1  0  0  0  0
 11 29  1  0  0  0  0
 12 30  1  0  0  0  0
 12 31  1  0  0  0  0
 12 32  1  0  0  0  0
 13 17  1  0  0  0  0
 13 14  1  0  0  0  0
 13 33  1  0  0  0  0
 14 15  1  0  0  0  0
 14 34  1  0  0  0  0
 14 35  1  0  0  0  0
 15 16  1  0  0  0  0
 15 36  1  0  0  0  0
 15 37  1  0  0  0  0
 16 17  1  0  0  0  0
 16 38  1  0  0  0  0
 16 39  1  0  0  0  0
M  END
> <s_m_source_file>
AV-unprocessed.smi

> <i_m_source_file_index>
2204

> <i_lp_mmshare_version>
43012

> <i_f3d_flags>
0

> <s_epik_input>
W0NIM11jMVtjSF1jKFtDSDNdKW4objEpW0NIMl1DKD1PKVtOSF1bQ0BIXShbQ0gzXSlbQ0BASF0yW0NIMl1bQ0gyXVtDSDJdTzI=

> <s_epik_cmdline>
J2VwaWtfcHl0aG9uJywgJy1waCcsICc3LjAnLCAnLXRuJywgJzgnLCAnLW1hJywgJzIwMCcsICctbWV0YWxfYmluZGluZycsICctaW1hZScsICc8aW5maWxlLm1hZT4nLCAnLW9tYWUnLCAnPG91dGZpbGUubWFlPic=

> <r_lp_tautomer_probability>
1

> <r_epik_Ionization_Penalty>
0.000433354

> <r_epik_Ionization_Penalty_Charging>
0

> <r_epik_Ionization_Penalty_Neutral>
0.000433354

> <r_epik_State_Penalty>
-0

> <r_epik_Charging_Adjusted_Penalty>
0

> <i_epik_Tot_Q>
0

> <i_epik_Tot_abs_Q>
0

> <r_epik_Metal_State_Penalty>
-0

> <b_epik_Metal_Only>
0

> <s_lp_Force_Field>
OPLS_2005

> <r_lp_Energy>
17.6032

> <b_lp_Chiralities_Consistent>
1

> <s_lp_Variant>
AV-unprocessed.smi:2204-2

> <Gold.Version>
5.8.1

> <Gold.Id.Protein>
6NUR|6NUR_protein|mol2

> <Gold.PLP.Fitness>
45.4710

> <Gold.PLP.PLP>
-40.6509

> <Gold.PLP.part.hbond>
-3.0000

> <Gold.PLP.part.metal>
0.0000

> <Gold.PLP.part.buried>
-4.3969

> <Gold.PLP.part.nonpolar>
-34.5928

> <Gold.PLP.part.repulsive>
1.5375

> <Gold.PLP.ligand.clash>
0.0000

> <Gold.PLP.ligand.torsion>
0.3305

> <Gold.PLP.Chemscore.Hbond>
1.8160

> <Gold.PLP.Chemscore.CHOScore>
0.0000

> <Gold.PLP.Chemscore.Metal>
0.0000

> <Gold.Chemscore.Hbonds>
donor molecule, donor type, donor heavy atom, donor atom, acceptor molecule, acceptor atom, score
      P1  H  7989  7998       L1    17  0.01
      P1  H  7997  8008       L1     9  0.94
      P1  H  8011  8017       L1    17  0.41

> <Gold.PLP.Chemscore.Internal.Correction>
0.0330

> <Gold.Rescore>
     Score         DG    S(hbond)    S(metal)    S(lipo)     H(rot)  DE(clash)    DE(int)     intcor
     15.43     -19.13       1.67        0.00     101.78       1.50       1.04       2.66       ----

> <Gold.Chemscore.Fitness>
15.4300

> <Gold.Chemscore.DG>
-19.1294

> <Gold.Chemscore.ZeroCoef>
-5.4800

> <Gold.Chemscore.Hbond>
1.6715

> <Gold.Chemscore.Metal>
0.0000

> <Gold.Chemscore.Lipo>
101.7766

> <Gold.Chemscore.Internal_Hbond>
0.0000

> <Gold.Chemscore.DEClash>
1.0384

> <Gold.Chemscore.DEInternal>
2.6609

> <Gold.Chemscore.Rot>
1.5005

> <Gold.Chemscore.Internal.Correction>
   9.000000E+99

> <Gold.Chemscore.Hbonds>
donor molecule, donor type, donor heavy atom, donor atom, acceptor molecule, acceptor atom, score
      P1  H  7997  8008       L1     9  0.78
      P1  H  8011  8017       L1    17  0.25

> <Gold.Chemscore.Hbond.Weighted>
-5.5827

> <Gold.Chemscore.Metal.Weighted>
-0.0000

> <Gold.Chemscore.Lipo.Weighted>
-11.9079

> <Gold.Chemscore.Internal_Hbond.Weighted>
0.0000

> <Gold.Chemscore.DEClash.Weighted>
1.0384

> <Gold.Chemscore.DEInternal.Weighted>
2.6609

> <Gold.Chemscore.Rot.Weighted>
3.8412

> <Gold.Chemscore.Internal.Correction.Weighted>
   9.000000E+99

> <Gold.Protein.RotatedTorsions>
[ 6907 6896 6895 6894 ] final -116.57 input  -60.11 | X-H torsion
[ 7974 7965 7964 7962 ] final  -44.67 input  175.53 | X-H torsion
[ 8008 7997 7996 7995 ] final  -40.56 input   59.86 | X-H torsion
[ 10167 10162 10161 10158 ] final -178.63 input  -65.29 | X-H torsion
[ 10718 10713 10712 10709 ] final  129.86 input   66.30 | X-H torsion
[ 10763 10752 10751 10750 ] final -179.16 input  -60.55 | X-H torsion
[ 11005 11000 10999 10996 ] final  178.03 input  -57.11 | X-H torsion

> <Gold.Protein.ActiveResidues>
 VAL166  LYS551  ARG553  GLY616  TRP617  ASP618  TYR619  PRO620  LYS621  CYS622 
 ASP623  PHE694  ASN695  SER759  ASP760  ASP761  ALA762  ILE779  LEU786  VAL792 
 PHE793  MET794  SER795  GLU796  ALA797  LYS798  CYS799  TRP800  GLU811  SER814 

> <Gold.Protein.RotatedAtoms>
  150.8067  133.8498  159.3202 H   0  0  0  0  0  0  0  0  0  0  0  0  # atno 6907 bound_to 6896
  151.6295  135.1022  160.0128 H   0  0  0  0  0  0  0  0  0  0  0  0  # atno 6908 bound_to 6896
  152.4157  133.6995  159.6472 H   0  0  0  0  0  0  0  0  0  0  0  0  # atno 6909 bound_to 6896
  145.9898  140.7193  142.9322 H   0  0  0  0  0  0  0  0  0  0  0  0  # atno 7974 bound_to 7965
  154.4011  140.1522  156.3048 H   0  0  0  0  0  0  0  0  0  0  0  0  # atno 8008 bound_to 7997
  155.8669  140.3451  155.5772 H   0  0  0  0  0  0  0  0  0  0  0  0  # atno 8009 bound_to 7997
  155.7818  140.0844  157.2045 H   0  0  0  0  0  0  0  0  0  0  0  0  # atno 8010 bound_to 7997
  139.5423  144.2329  152.0920 H   0  0  0  0  0  0  0  0  0  0  0  0  # atno 10167 bound_to 10162
  157.5115  131.1097  150.9285 H   0  0  0  0  0  0  0  0  0  0  0  0  # atno 10718 bound_to 10713
  154.5386  135.2804  155.1116 H   0  0  0  0  0  0  0  0  0  0  0  0  # atno 10763 bound_to 10752
  154.2608  135.6322  153.5277 H   0  0  0  0  0  0  0  0  0  0  0  0  # atno 10764 bound_to 10752
  152.9973  135.5605  154.5919 H   0  0  0  0  0  0  0  0  0  0  0  0  # atno 10765 bound_to 10752
  140.3906  134.6865  157.4505 H   0  0  0  0  0  0  0  0  0  0  0  0  # atno 11005 bound_to 11000
  144.6885  140.3050  143.7257 LP  0  0  0  0  0  0  0  0  0  0  0  0  # atno 17320 bound_to 7965
  145.7647  139.1836  143.2247 LP  0  0  0  0  0  0  0  0  0  0  0  0  # atno 17321 bound_to 7965
  140.1810  144.4844  150.6528 LP  0  0  0  0  0  0  0  0  0  0  0  0  # atno 17342 bound_to 10162
  140.6658  143.2267  151.5746 LP  0  0  0  0  0  0  0  0  0  0  0  0  # atno 17343 bound_to 10162
  156.9924  130.5568  149.5304 LP  0  0  0  0  0  0  0  0  0  0  0  0  # atno 17370 bound_to 10713
  156.0292  130.5385  150.8490 LP  0  0  0  0  0  0  0  0  0  0  0  0  # atno 17371 bound_to 10713
  140.0409  134.6268  155.8982 LP  0  0  0  0  0  0  0  0  0  0  0  0  # atno 17394 bound_to 11000
  141.1892  133.6564  156.5357 LP  0  0  0  0  0  0  0  0  0  0  0  0  # atno 17395 bound_to 11000

$$$$
