AV-unprocessed.smi:2038|AV-procd|sdf|8281|dock3
  -GOLD-   2272010553D 1   1.00000     0.00000
 Structure written by MMmdl.
 33 34  0  0  0  0  0  0  0  0  1 V2000
  151.5115  135.3364  155.8967 O   0  0  0  0  0  0  0  0  0  0  0  0
  150.7697  135.9266  155.1108 C   0  0  0  0  0  0  0  0  0  0  0  0
  149.8036  135.3355  154.3839 N   0  0  0  0  0  0  0  0  0  0  0  0
  149.4490  133.9603  154.3405 C   0  0  0  0  0  0  0  0  0  0  0  0
  150.0607  133.0871  155.2622 C   0  0  0  0  0  0  0  0  0  0  0  0
  149.7109  131.7237  155.2528 C   0  0  0  0  0  0  0  0  0  0  0  0
  148.7483  131.2762  154.3264 C   0  0  0  0  0  0  0  0  0  0  0  0
  148.4097  129.9389  154.3209 O   0  0  0  0  0  0  0  0  0  0  0  0
  147.5395  129.4621  153.2977 C   0  0  0  0  0  0  0  0  0  0  0  0
  147.8296  127.9793  153.0373 C   0  0  0  0  0  0  0  0  0  0  0  0
  149.1303  127.7477  153.2116 F   0  0  0  0  0  0  0  0  0  0  0  0
  147.1423  127.2188  153.8890 F   0  0  0  0  0  0  0  0  0  0  0  0
  147.5021  127.6585  151.7860 F   0  0  0  0  0  0  0  0  0  0  0  0
  148.1414  132.1106  153.4467 N   0  0  0  0  0  0  0  0  0  0  0  0
  148.4831  133.4169  153.4591 C   0  0  0  0  0  0  0  0  0  0  0  0
  150.9121  137.4415  154.9222 C   0  0  1  0  0  0  0  0  0  0  0  0
  151.0100  138.2273  156.2433 C   0  0  0  0  0  0  0  0  0  0  0  0
  152.4535  138.6882  156.2811 C   0  0  0  0  0  0  0  0  0  0  0  0
  152.7760  138.8192  154.7999 C   0  0  0  0  0  0  0  0  0  0  0  0
  152.1353  137.6884  154.2302 O   0  0  0  0  0  0  0  0  0  0  0  0
  149.2152  135.9545  153.8451 H   0  0  0  0  0  0  0  0  0  0  0  0
  150.7938  133.4534  155.9662 H   0  0  0  0  0  0  0  0  0  0  0  0
  150.1715  131.0338  155.9444 H   0  0  0  0  0  0  0  0  0  0  0  0
  146.4981  129.5842  153.6009 H   0  0  0  0  0  0  0  0  0  0  0  0
  147.6888  130.0312  152.3785 H   0  0  0  0  0  0  0  0  0  0  0  0
  147.9436  134.0309  152.7548 H   0  0  0  0  0  0  0  0  0  0  0  0
  150.0832  137.8283  154.3266 H   0  0  0  0  0  0  0  0  0  0  0  0
  150.3439  139.0903  156.2063 H   0  0  0  0  0  0  0  0  0  0  0  0
  150.7423  137.6484  157.1286 H   0  0  0  0  0  0  0  0  0  0  0  0
  152.5934  139.6173  156.8343 H   0  0  0  0  0  0  0  0  0  0  0  0
  153.0815  137.9194  156.7336 H   0  0  0  0  0  0  0  0  0  0  0  0
  152.3445  139.7317  154.3857 H   0  0  0  0  0  0  0  0  0  0  0  0
  153.8474  138.8189  154.5983 H   0  0  0  0  0  0  0  0  0  0  0  0
  1  2  2  0  0  0  0
  2  3  1  0  0  0  0
  2 16  1  0  0  0  0
  3  4  1  0  0  0  0
  3 21  1  0  0  0  0
  4 15  1  0  0  0  0
  4  5  2  0  0  0  0
  5  6  1  0  0  0  0
  5 22  1  0  0  0  0
  6  7  2  0  0  0  0
  6 23  1  0  0  0  0
  7  8  1  0  0  0  0
  7 14  1  0  0  0  0
  8  9  1  0  0  0  0
  9 10  1  0  0  0  0
  9 24  1  0  0  0  0
  9 25  1  0  0  0  0
 10 11  1  0  0  0  0
 10 12  1  0  0  0  0
 10 13  1  0  0  0  0
 14 15  2  0  0  0  0
 15 26  1  0  0  0  0
 16 20  1  0  0  0  0
 16 17  1  0  0  0  0
 16 27  1  0  0  0  0
 17 18  1  0  0  0  0
 17 28  1  0  0  0  0
 17 29  1  0  0  0  0
 18 19  1  0  0  0  0
 18 30  1  0  0  0  0
 18 31  1  0  0  0  0
 19 20  1  0  0  0  0
 19 32  1  0  0  0  0
 19 33  1  0  0  0  0
M  END
> <s_m_source_file>
AV-unprocessed.smi

> <i_m_source_file_index>
2038

> <i_lp_mmshare_version>
43012

> <i_f3d_flags>
0

> <s_epik_input>
TzFbQ0gyXVtDSDJdW0NIMl1bQ0BIXTFDKD1PKVtOSF1jMltjSF1bY0hdYyhuW2NIXTIpT1tDSDJdQyhGKShGKUY=

> <s_epik_cmdline>
J2VwaWtfcHl0aG9uJywgJy1waCcsICc3LjAnLCAnLXRuJywgJzgnLCAnLW1hJywgJzIwMCcsICctbWV0YWxfYmluZGluZycsICctaW1hZScsICc8aW5maWxlLm1hZT4nLCAnLW9tYWUnLCAnPG91dGZpbGUubWFlPic=

> <r_lp_tautomer_probability>
1

> <r_epik_Ionization_Penalty>
2.73305e-06

> <r_epik_Ionization_Penalty_Charging>
0

> <r_epik_Ionization_Penalty_Neutral>
2.73305e-06

> <r_epik_State_Penalty>
-0

> <r_epik_Charging_Adjusted_Penalty>
0

> <i_epik_Tot_Q>
0

> <i_epik_Tot_abs_Q>
0

> <r_epik_Metal_State_Penalty>
-0

> <b_epik_Metal_Only>
0

> <s_lp_Force_Field>
OPLS_2005

> <r_lp_Energy>
22.8429

> <b_lp_Chiralities_Consistent>
1

> <s_lp_Variant>
AV-unprocessed.smi:2038-2

> <Gold.Version>
5.8.1

> <Gold.Id.Protein>
6NUR|6NUR_protein|mol2

> <Gold.PLP.Fitness>
38.8341

> <Gold.PLP.PLP>
-33.1542

> <Gold.PLP.part.hbond>
-3.3599

> <Gold.PLP.part.metal>
0.0000

> <Gold.PLP.part.buried>
-2.6562

> <Gold.PLP.part.nonpolar>
-27.6248

> <Gold.PLP.part.repulsive>
0.3891

> <Gold.PLP.ligand.clash>
0.0000

> <Gold.PLP.ligand.torsion>
0.9029

> <Gold.PLP.Chemscore.Hbond>
1.6560

> <Gold.PLP.Chemscore.CHOScore>
0.8232

> <Gold.PLP.Chemscore.Metal>
0.0000

> <Gold.Chemscore.Hbonds>
donor molecule, donor type, donor heavy atom, donor atom, acceptor molecule, acceptor atom, score
      L1  H     3    21       P1  7948  0.64
      P1  H 10752 10764       L1     1  1.00
      L1  C    15    26       P1  7948  0.81

> <Gold.PLP.Chemscore.Internal.Correction>
0.0482

> <Gold.Rescore>
     Score         DG    S(hbond)    S(metal)    S(lipo)     H(rot)  DE(clash)    DE(int)     intcor
     10.08     -12.45       1.34        0.00      58.21       1.69       0.33       2.04       ----

> <Gold.Chemscore.Fitness>
10.0799

> <Gold.Chemscore.DG>
-12.4473

> <Gold.Chemscore.ZeroCoef>
-5.4800

> <Gold.Chemscore.Hbond>
1.3439

> <Gold.Chemscore.Metal>
0.0000

> <Gold.Chemscore.Lipo>
58.2055

> <Gold.Chemscore.Internal_Hbond>
0.0000

> <Gold.Chemscore.DEClash>
0.3317

> <Gold.Chemscore.DEInternal>
2.0357

> <Gold.Chemscore.Rot>
1.6919

> <Gold.Chemscore.Internal.Correction>
   9.000000E+99

> <Gold.Chemscore.Hbonds>
donor molecule, donor type, donor heavy atom, donor atom, acceptor molecule, acceptor atom, score
      L1  H     3    21       P1  7948  0.53
      P1  H 10752 10764       L1     1  0.30

> <Gold.Chemscore.Hbond.Weighted>
-4.4886

> <Gold.Chemscore.Metal.Weighted>
-0.0000

> <Gold.Chemscore.Lipo.Weighted>
-6.8100

> <Gold.Chemscore.Internal_Hbond.Weighted>
0.0000

> <Gold.Chemscore.DEClash.Weighted>
0.3317

> <Gold.Chemscore.DEInternal.Weighted>
2.0357

> <Gold.Chemscore.Rot.Weighted>
4.3313

> <Gold.Chemscore.Internal.Correction.Weighted>
   9.000000E+99

> <Gold.Protein.RotatedTorsions>
[ 6907 6896 6895 6894 ] final -142.32 input  -60.11 | X-H torsion
[ 7974 7965 7964 7962 ] final -112.86 input  175.53 | X-H torsion
[ 8008 7997 7996 7995 ] final   62.44 input   59.86 | X-H torsion
[ 10167 10162 10161 10158 ] final -122.47 input  -65.29 | X-H torsion
[ 10718 10713 10712 10709 ] final   73.13 input   66.30 | X-H torsion
[ 10763 10752 10751 10750 ] final  -32.35 input  -60.55 | X-H torsion
[ 11005 11000 10999 10996 ] final -102.25 input  -57.11 | X-H torsion

> <Gold.Protein.ActiveResidues>
 VAL166  LYS551  ARG553  GLY616  TRP617  ASP618  TYR619  PRO620  LYS621  CYS622 
 ASP623  PHE694  ASN695  SER759  ASP760  ASP761  ALA762  ILE779  LEU786  VAL792 
 PHE793  MET794  SER795  GLU796  ALA797  LYS798  CYS799  TRP800  GLU811  SER814 

> <Gold.Protein.RotatedAtoms>
  151.0854  133.5357  159.2617 H   0  0  0  0  0  0  0  0  0  0  0  0  # atno 6907 bound_to 6896
  151.2244  135.0530  159.8972 H   0  0  0  0  0  0  0  0  0  0  0  0  # atno 6908 bound_to 6896
  152.5428  134.0652  159.8223 H   0  0  0  0  0  0  0  0  0  0  0  0  # atno 6909 bound_to 6896
  145.1390  140.8767  143.3713 H   0  0  0  0  0  0  0  0  0  0  0  0  # atno 7974 bound_to 7965
  155.6144  140.3495  155.4632 H   0  0  0  0  0  0  0  0  0  0  0  0  # atno 8008 bound_to 7997
  156.0129  140.1237  157.0460 H   0  0  0  0  0  0  0  0  0  0  0  0  # atno 8009 bound_to 7997
  154.4287  140.1078  156.5841 H   0  0  0  0  0  0  0  0  0  0  0  0  # atno 8010 bound_to 7997
  140.0139  143.5413  152.2251 H   0  0  0  0  0  0  0  0  0  0  0  0  # atno 10167 bound_to 10162
  157.6533  130.9613  150.1026 H   0  0  0  0  0  0  0  0  0  0  0  0  # atno 10718 bound_to 10713
  153.8122  135.6881  153.4839 H   0  0  0  0  0  0  0  0  0  0  0  0  # atno 10763 bound_to 10752
  153.1621  135.4576  154.9784 H   0  0  0  0  0  0  0  0  0  0  0  0  # atno 10764 bound_to 10752
  154.7962  135.3320  154.7602 H   0  0  0  0  0  0  0  0  0  0  0  0  # atno 10765 bound_to 10752
  141.1197  133.8543  157.1336 H   0  0  0  0  0  0  0  0  0  0  0  0  # atno 11005 bound_to 11000
  145.0553  139.3149  143.5908 LP  0  0  0  0  0  0  0  0  0  0  0  0  # atno 17320 bound_to 7965
  146.3507  139.9975  142.8679 LP  0  0  0  0  0  0  0  0  0  0  0  0  # atno 17321 bound_to 7965
  139.6186  144.7624  151.2791 LP  0  0  0  0  0  0  0  0  0  0  0  0  # atno 17342 bound_to 10162
  140.7370  143.6691  150.8097 LP  0  0  0  0  0  0  0  0  0  0  0  0  # atno 17343 bound_to 10162
  156.1944  130.3656  149.8868 LP  0  0  0  0  0  0  0  0  0  0  0  0  # atno 17370 bound_to 10713
  156.6788  130.8849  151.3573 LP  0  0  0  0  0  0  0  0  0  0  0  0  # atno 17371 bound_to 10713
  140.0145  134.9973  157.0464 LP  0  0  0  0  0  0  0  0  0  0  0  0  # atno 17394 bound_to 11000
  140.4543  134.1549  155.7184 LP  0  0  0  0  0  0  0  0  0  0  0  0  # atno 17395 bound_to 11000

$$$$
