AV-unprocessed.smi:769|AV-procd|sdf|3675|dock5
  -GOLD-   22720 1 83D 1   1.00000     0.00000
 Structure written by MMmdl.
 50 52  0  0  0  0  0  0  0  0  2 V2000
  144.7171  136.8062  152.2999 O   0  0  0  0  0  0  0  0  0  0  0  0
  145.9122  136.5787  152.1130 C   0  0  0  0  0  0  0  0  0  0  0  0
  146.8820  137.4468  152.4363 N   0  0  0  0  0  0  0  0  0  0  0  0
  146.6616  138.7441  153.0655 C   0  0  0  0  0  0  0  0  0  0  0  0
  147.1903  138.7709  154.5132 C   0  0  0  0  0  0  0  0  0  0  0  0
  148.3120  139.7263  154.6923 N   0  3  0  0  0  0  0  0  0  0  0  0
  148.2468  140.4253  156.0049 C   0  0  0  0  0  0  0  0  0  0  0  0
  149.4160  141.4117  156.1828 C   0  0  0  0  0  0  0  0  0  0  0  0
  150.6773  140.6883  155.9998 N   0  0  0  0  0  0  0  0  0  0  0  0
  151.5584  140.4772  157.0081 C   0  0  0  0  0  0  0  0  0  0  0  0
  152.5648  139.7833  156.8585 O   0  0  0  0  0  0  0  0  0  0  0  0
  151.3157  141.1645  158.3693 C   0  0  0  0  0  0  0  0  0  0  0  0
  151.5592  142.6860  158.4254 C   0  0  0  0  0  0  0  0  0  0  0  0
  152.9095  142.4291  159.1010 C   0  0  0  0  0  0  0  0  0  0  0  0
  152.4674  140.9878  159.3735 C   0  0  0  0  0  0  0  0  0  0  0  0
  150.7792  140.1456  154.6421 C   0  0  0  0  0  0  0  0  0  0  0  0
  149.6488  139.1230  154.4273 C   0  0  0  0  0  0  0  0  0  0  0  0
  146.4210  135.4658  151.5558 N   0  0  0  0  0  0  0  0  0  0  0  0
  145.7419  134.3093  151.0823 C   0  0  0  0  0  0  0  0  0  0  0  0
  146.5256  133.1865  150.7447 C   0  0  0  0  0  0  0  0  0  0  0  0
  145.8817  132.0202  150.2852 C   0  0  0  0  0  0  0  0  0  0  0  0
  144.5427  131.9148  150.1556 N   0  0  0  0  0  0  0  0  0  0  0  0
  143.7925  132.9856  150.4906 C   0  0  0  0  0  0  0  0  0  0  0  0
  144.3354  134.1986  150.9603 C   0  0  0  0  0  0  0  0  0  0  0  0
  147.8390  137.1852  152.2477 H   0  0  0  0  0  0  0  0  0  0  0  0
  147.1280  139.5164  152.4533 H   0  0  0  0  0  0  0  0  0  0  0  0
  145.5904  138.9466  153.0574 H   0  0  0  0  0  0  0  0  0  0  0  0
  146.3667  139.0605  155.1676 H   0  0  0  0  0  0  0  0  0  0  0  0
  147.5053  137.7780  154.8381 H   0  0  0  0  0  0  0  0  0  0  0  0
  147.3014  140.9631  156.0875 H   0  0  0  0  0  0  0  0  0  0  0  0
  148.2632  139.6861  156.8077 H   0  0  0  0  0  0  0  0  0  0  0  0
  149.3493  142.2122  155.4445 H   0  0  0  0  0  0  0  0  0  0  0  0
  149.3399  141.8990  157.1556 H   0  0  0  0  0  0  0  0  0  0  0  0
  150.3376  140.9163  158.7831 H   0  0  0  0  0  0  0  0  0  0  0  0
  151.6353  143.2048  157.4692 H   0  0  0  0  0  0  0  0  0  0  0  0
  150.8516  143.1927  159.0830 H   0  0  0  0  0  0  0  0  0  0  0  0
  153.7460  142.4873  158.4034 H   0  0  0  0  0  0  0  0  0  0  0  0
  153.0874  143.0251  159.9966 H   0  0  0  0  0  0  0  0  0  0  0  0
  152.1117  140.8363  160.3934 H   0  0  0  0  0  0  0  0  0  0  0  0
  153.2148  140.2412  159.1006 H   0  0  0  0  0  0  0  0  0  0  0  0
  150.6787  140.9630  153.9263 H   0  0  0  0  0  0  0  0  0  0  0  0
  151.7433  139.6910  154.4203 H   0  0  0  0  0  0  0  0  0  0  0  0
  149.7982  138.2665  155.0868 H   0  0  0  0  0  0  0  0  0  0  0  0
  149.7001  138.7485  153.4058 H   0  0  0  0  0  0  0  0  0  0  0  0
  147.4204  135.4616  151.4139 H   0  0  0  0  0  0  0  0  0  0  0  0
  147.6022  133.2136  150.8303 H   0  0  0  0  0  0  0  0  0  0  0  0
  146.4589  131.1483  150.0159 H   0  0  0  0  0  0  0  0  0  0  0  0
  142.7237  132.8710  150.3863 H   0  0  0  0  0  0  0  0  0  0  0  0
  143.6647  135.0012  151.2235 H   0  0  0  0  0  0  0  0  0  0  0  0
  148.1838  140.4478  153.9971 H   0  0  0  0  0  0  0  0  0  0  0  0
  1  2  2  0  0  0  0
  2  3  1  0  0  0  0
  2 18  1  0  0  0  0
  3  4  1  0  0  0  0
  3 25  1  0  0  0  0
  4  5  1  0  0  0  0
  4 26  1  0  0  0  0
  4 27  1  0  0  0  0
  5  6  1  0  0  0  0
  5 28  1  0  0  0  0
  5 29  1  0  0  0  0
  6 17  1  0  0  0  0
  6  7  1  0  0  0  0
  6 50  1  0  0  0  0
  7  8  1  0  0  0  0
  7 30  1  0  0  0  0
  7 31  1  0  0  0  0
  8  9  1  0  0  0  0
  8 32  1  0  0  0  0
  8 33  1  0  0  0  0
  9 10  1  0  0  0  0
  9 16  1  0  0  0  0
 10 11  2  0  0  0  0
 10 12  1  0  0  0  0
 12 15  1  0  0  0  0
 12 13  1  0  0  0  0
 12 34  1  0  0  0  0
 13 14  1  0  0  0  0
 13 35  1  0  0  0  0
 13 36  1  0  0  0  0
 14 15  1  0  0  0  0
 14 37  1  0  0  0  0
 14 38  1  0  0  0  0
 15 39  1  0  0  0  0
 15 40  1  0  0  0  0
 16 17  1  0  0  0  0
 16 41  1  0  0  0  0
 16 42  1  0  0  0  0
 17 43  1  0  0  0  0
 17 44  1  0  0  0  0
 18 19  1  0  0  0  0
 18 45  1  0  0  0  0
 19 24  1  0  0  0  0
 19 20  2  0  0  0  0
 20 21  1  0  0  0  0
 20 46  1  0  0  0  0
 21 22  2  0  0  0  0
 21 47  1  0  0  0  0
 22 23  1  0  0  0  0
 23 24  2  0  0  0  0
 23 48  1  0  0  0  0
 24 49  1  0  0  0  0
M  CHG  1   6   1
M  END
> <s_m_source_file>
AV-unprocessed.smi

> <i_m_source_file_index>
769

> <i_lp_mmshare_version>
43012

> <i_f3d_flags>
0

> <s_epik_input>
W2NIXTFbY0hdbltjSF1bY0hdYzFbTkhdQyg9TylbTkhdW0NIMl1bQ0gyXU4yW0NIMl1bQ0gyXU4oW0NIMl1bQ0gyXTIpQyg9TylbQ0hdM1tDSDJdW0NIMl1bQ0gyXTM=

> <s_epik_cmdline>
J2VwaWtfcHl0aG9uJywgJy1waCcsICc3LjAnLCAnLXRuJywgJzgnLCAnLW1hJywgJzIwMCcsICctbWV0YWxfYmluZGluZycsICctaW1hZScsICc8aW5maWxlLm1hZT4nLCAnLW9tYWUnLCAnPG91dGZpbGUubWFlPic=

> <r_epik_Ionization_Penalty>
0.680309

> <r_epik_Ionization_Penalty_Charging>
0.581996

> <r_epik_Ionization_Penalty_Neutral>
0.0983131

> <r_epik_State_Penalty>
0.686881

> <r_epik_Charging_Adjusted_Penalty>
1.26888

> <i_epik_Tot_Q>
1

> <i_epik_Tot_abs_Q>
1

> <r_epik_Metal_State_Penalty>
0.68612

> <b_epik_Metal_Only>
0

> <s_lp_Force_Field>
OPLS_2005

> <r_lp_Energy>
56.1037

> <b_lp_Chiralities_Consistent>
1

> <s_lp_Variant>
AV-unprocessed.smi:769-2

> <Gold.Version>
5.8.1

> <Gold.Id.Protein>
6NUR|6NUR_protein|mol2

> <Gold.PLP.Fitness>
52.9617

> <Gold.PLP.PLP>
-39.9452

> <Gold.PLP.part.hbond>
-3.0188

> <Gold.PLP.part.metal>
0.0000

> <Gold.PLP.part.buried>
-3.0288

> <Gold.PLP.part.nonpolar>
-34.8701

> <Gold.PLP.part.repulsive>
0.5012

> <Gold.PLP.ligand.clash>
0.0000

> <Gold.PLP.ligand.torsion>
1.0612

> <Gold.PLP.Chemscore.Hbond>
2.9600

> <Gold.PLP.Chemscore.CHOScore>
1.9468

> <Gold.PLP.Chemscore.Metal>
0.0000

> <Gold.Chemscore.Hbonds>
donor molecule, donor type, donor heavy atom, donor atom, acceptor molecule, acceptor atom, score
      L1  H     3    25       P1  7948  0.93
      L1  H    18    45       P1  7948  0.94
      P1  H  7997  8010       L1    11  1.00
      L1  C    21    47       P1 10747  0.94
      L1  C    23    48       P1 10186  1.00

> <Gold.PLP.Chemscore.Internal.Correction>
0.4183

> <Gold.Rescore>
     Score         DG    S(hbond)    S(metal)    S(lipo)     H(rot)  DE(clash)    DE(int)     intcor
     19.21     -23.00       2.90        0.00     104.65       1.72       1.56       2.24       ----

> <Gold.Chemscore.Fitness>
19.2114

> <Gold.Chemscore.DG>
-23.0028

> <Gold.Chemscore.ZeroCoef>
-5.4800

> <Gold.Chemscore.Hbond>
2.8984

> <Gold.Chemscore.Metal>
0.0000

> <Gold.Chemscore.Lipo>
104.6514

> <Gold.Chemscore.Internal_Hbond>
0.0000

> <Gold.Chemscore.DEClash>
1.5557

> <Gold.Chemscore.DEInternal>
2.2357

> <Gold.Chemscore.Rot>
1.7195

> <Gold.Chemscore.Internal.Correction>
   9.000000E+99

> <Gold.Chemscore.Hbonds>
donor molecule, donor type, donor heavy atom, donor atom, acceptor molecule, acceptor atom, score
      L1  H     3    25       P1  7948  0.87
      L1  H    18    45       P1  7948  0.80
      P1  H  7997  8010       L1    11  1.00

> <Gold.Chemscore.Hbond.Weighted>
-9.6806

> <Gold.Chemscore.Metal.Weighted>
-0.0000

> <Gold.Chemscore.Lipo.Weighted>
-12.2442

> <Gold.Chemscore.Internal_Hbond.Weighted>
0.0000

> <Gold.Chemscore.DEClash.Weighted>
1.5557

> <Gold.Chemscore.DEInternal.Weighted>
2.2357

> <Gold.Chemscore.Rot.Weighted>
4.4020

> <Gold.Chemscore.Internal.Correction.Weighted>
   9.000000E+99

> <Gold.Protein.RotatedTorsions>
[ 6907 6896 6895 6894 ] final   39.99 input  -60.11 | X-H torsion
[ 7974 7965 7964 7962 ] final   48.35 input  175.53 | X-H torsion
[ 8008 7997 7996 7995 ] final   65.29 input   59.86 | X-H torsion
[ 10167 10162 10161 10158 ] final  -75.46 input  -65.29 | X-H torsion
[ 10718 10713 10712 10709 ] final -159.34 input   66.30 | X-H torsion
[ 10763 10752 10751 10750 ] final -149.34 input  -60.55 | X-H torsion
[ 11005 11000 10999 10996 ] final    4.21 input  -57.11 | X-H torsion

> <Gold.Protein.ActiveResidues>
 VAL166  LYS551  ARG553  GLY616  TRP617  ASP618  TYR619  PRO620  LYS621  CYS622 
 ASP623  PHE694  ASN695  SER759  ASP760  ASP761  ALA762  ILE779  LEU786  VAL792 
 PHE793  MET794  SER795  GLU796  ALA797  LYS798  CYS799  TRP800  GLU811  SER814 

> <Gold.Protein.RotatedAtoms>
  152.1767  134.8788  160.0529 H   0  0  0  0  0  0  0  0  0  0  0  0  # atno 6907 bound_to 6896
  151.9728  133.3726  159.4086 H   0  0  0  0  0  0  0  0  0  0  0  0  # atno 6908 bound_to 6896
  150.6910  134.4045  159.5178 H   0  0  0  0  0  0  0  0  0  0  0  0  # atno 6909 bound_to 6896
  146.0212  139.4654  142.9896 H   0  0  0  0  0  0  0  0  0  0  0  0  # atno 7974 bound_to 7965
  155.6594  140.3497  155.4777 H   0  0  0  0  0  0  0  0  0  0  0  0  # atno 8008 bound_to 7997
  155.9781  140.1169  157.0774 H   0  0  0  0  0  0  0  0  0  0  0  0  # atno 8009 bound_to 7997
  154.4184  140.1143  156.5384 H   0  0  0  0  0  0  0  0  0  0  0  0  # atno 8010 bound_to 7997
  140.4940  143.2374  151.7860 H   0  0  0  0  0  0  0  0  0  0  0  0  # atno 10167 bound_to 10162
  156.5668  130.8671  151.2826 H   0  0  0  0  0  0  0  0  0  0  0  0  # atno 10718 bound_to 10713
  154.8182  135.3311  154.7114 H   0  0  0  0  0  0  0  0  0  0  0  0  # atno 10763 bound_to 10752
  153.7751  135.6922  153.4903 H   0  0  0  0  0  0  0  0  0  0  0  0  # atno 10764 bound_to 10752
  153.2018  135.4513  155.0223 H   0  0  0  0  0  0  0  0  0  0  0  0  # atno 10765 bound_to 10752
  140.5845  133.9982  155.8062 H   0  0  0  0  0  0  0  0  0  0  0  0  # atno 11005 bound_to 11000
  145.7190  141.0081  143.1413 LP  0  0  0  0  0  0  0  0  0  0  0  0  # atno 17320 bound_to 7965
  144.6991  139.8847  143.7449 LP  0  0  0  0  0  0  0  0  0  0  0  0  # atno 17321 bound_to 7965
  139.4857  144.4611  151.9540 LP  0  0  0  0  0  0  0  0  0  0  0  0  # atno 17342 bound_to 10162
  140.3698  144.2869  150.5921 LP  0  0  0  0  0  0  0  0  0  0  0  0  # atno 17343 bound_to 10162
  157.7357  130.9766  150.2095 LP  0  0  0  0  0  0  0  0  0  0  0  0  # atno 17370 bound_to 10713
  156.2750  130.3726  149.7993 LP  0  0  0  0  0  0  0  0  0  0  0  0  # atno 17371 bound_to 10713
  141.0975  133.9820  157.3135 LP  0  0  0  0  0  0  0  0  0  0  0  0  # atno 17394 bound_to 11000
  139.9302  135.0200  156.8374 LP  0  0  0  0  0  0  0  0  0  0  0  0  # atno 17395 bound_to 11000

$$$$
