AV-unprocessed.smi:1111|AV-procd|sdf|4795|dock8
  -GOLD-   22720 3343D 1   1.00000     0.00000
 Structure written by MMmdl.
 33 34  0  0  0  0  0  0  0  0  2 V2000
  150.3543  138.8391  154.4840 C   0  0  0  0  0  0  0  0  0  0  0  0
  150.5575  137.9843  155.7531 C   0  0  2  0  0  0  0  0  0  0  0  0
  150.8840  138.8373  156.9044 N   0  0  0  0  0  0  0  0  0  0  0  0
  151.8656  139.7500  157.0139 C   0  0  0  0  0  0  0  0  0  0  0  0
  152.6841  139.9923  156.1281 O   0  0  0  0  0  0  0  0  0  0  0  0
  151.9362  140.5120  158.3372 C   0  0  0  0  0  0  0  0  0  0  0  0
  151.6810  141.9422  158.1431 N   0  0  0  0  0  0  0  0  0  0  0  0
  152.3456  142.9924  158.7235 C   0  0  0  0  0  0  0  0  0  0  0  0
  151.7611  144.1370  158.2455 C   0  0  0  0  0  0  0  0  0  0  0  0
  150.7666  143.7379  157.3928 N   0  3  0  0  0  0  0  0  0  0  0  0
  150.7185  142.4031  157.3328 C   0  0  0  0  0  0  0  0  0  0  0  0
  151.7462  137.0142  155.5502 C   0  0  0  0  0  0  0  0  0  0  0  0
  151.7108  135.9175  156.6225 C   0  0  0  0  0  0  0  0  0  0  0  0
  149.9406  135.6537  157.0045 S   0  0  0  0  0  0  0  0  0  0  0  0
  149.4737  134.4169  156.3605 O   0  0  0  0  0  0  0  0  0  0  0  0
  149.7255  135.8900  158.4402 O   0  0  0  0  0  0  0  0  0  0  0  0
  149.3279  137.0958  156.0522 C   0  0  0  0  0  0  0  0  0  0  0  0
  150.2135  138.2116  153.6035 H   0  0  0  0  0  0  0  0  0  0  0  0
  151.2177  139.4777  154.2946 H   0  0  0  0  0  0  0  0  0  0  0  0
  149.4765  139.4808  154.5580 H   0  0  0  0  0  0  0  0  0  0  0  0
  150.2760  138.7316  157.7036 H   0  0  0  0  0  0  0  0  0  0  0  0
  151.1989  140.1208  159.0402 H   0  0  0  0  0  0  0  0  0  0  0  0
  152.9191  140.3938  158.7964 H   0  0  0  0  0  0  0  0  0  0  0  0
  153.1628  142.8518  159.4161 H   0  0  0  0  0  0  0  0  0  0  0  0
  151.9731  145.1779  158.4428 H   0  0  0  0  0  0  0  0  0  0  0  0
  150.0385  141.8133  156.7437 H   0  0  0  0  0  0  0  0  0  0  0  0
  151.6490  136.5328  154.5761 H   0  0  0  0  0  0  0  0  0  0  0  0
  152.7061  137.5325  155.5420 H   0  0  0  0  0  0  0  0  0  0  0  0
  152.1681  134.9851  156.2914 H   0  0  0  0  0  0  0  0  0  0  0  0
  152.2087  136.2450  157.5355 H   0  0  0  0  0  0  0  0  0  0  0  0
  148.5266  137.5919  156.5989 H   0  0  0  0  0  0  0  0  0  0  0  0
  148.9023  136.7090  155.1257 H   0  0  0  0  0  0  0  0  0  0  0  0
  150.1543  144.3607  156.8804 H   0  0  0  0  0  0  0  0  0  0  0  0
  1  2  1  0  0  0  0
  1 18  1  0  0  0  0
  1 19  1  0  0  0  0
  1 20  1  0  0  0  0
  2 17  1  0  0  0  0
  2  3  1  0  0  0  0
  2 12  1  0  0  0  0
  3  4  1  0  0  0  0
  3 21  1  0  0  0  0
  4  5  2  0  0  0  0
  4  6  1  0  0  0  0
  6  7  1  0  0  0  0
  6 22  1  0  0  0  0
  6 23  1  0  0  0  0
  7 11  1  0  0  0  0
  7  8  1  0  0  0  0
  8  9  2  0  0  0  0
  8 24  1  0  0  0  0
  9 10  1  0  0  0  0
  9 25  1  0  0  0  0
 10 11  2  0  0  0  0
 10 33  1  0  0  0  0
 11 26  1  0  0  0  0
 12 13  1  0  0  0  0
 12 27  1  0  0  0  0
 12 28  1  0  0  0  0
 13 14  1  0  0  0  0
 13 29  1  0  0  0  0
 13 30  1  0  0  0  0
 14 15  2  0  0  0  0
 14 16  2  0  0  0  0
 14 17  1  0  0  0  0
 17 31  1  0  0  0  0
 17 32  1  0  0  0  0
M  CHG  1  10   1
M  END
> <s_m_source_file>
AV-unprocessed.smi

> <i_m_source_file_index>
1111

> <i_lp_mmshare_version>
43012

> <i_f3d_flags>
0

> <s_epik_input>
Tz1TKD1PKShbQ0gyXTEpW0NIMl1bQ0gyXVtDQEBdMShbQ0gzXSlbTkhdQyg9TylbQ0gyXW4yW2NIXVtjSF1uW2NIXTI=

> <s_epik_cmdline>
J2VwaWtfcHl0aG9uJywgJy1waCcsICc3LjAnLCAnLXRuJywgJzgnLCAnLW1hJywgJzIwMCcsICctbWV0YWxfYmluZGluZycsICctaW1hZScsICc8aW5maWxlLm1hZT4nLCAnLW9tYWUnLCAnPG91dGZpbGUubWFlPic=

> <r_lp_tautomer_probability>
1

> <r_epik_Ionization_Penalty>
0.638881

> <r_epik_Ionization_Penalty_Charging>
0

> <r_epik_Ionization_Penalty_Neutral>
0.638881

> <r_epik_State_Penalty>
0.656385

> <r_epik_Charging_Adjusted_Penalty>
0.656385

> <i_epik_Tot_Q>
1

> <i_epik_Tot_abs_Q>
1

> <r_epik_Metal_State_Penalty>
0.832701

> <b_epik_Metal_Only>
0

> <s_lp_Force_Field>
OPLS_2005

> <r_lp_Energy>
7.98032

> <b_lp_Chiralities_Consistent>
1

> <s_lp_Variant>
AV-unprocessed.smi:1111-4

> <Gold.Version>
5.8.1

> <Gold.Id.Protein>
6NUR|6NUR_protein|mol2

> <Gold.PLP.Fitness>
36.7611

> <Gold.PLP.PLP>
-25.3424

> <Gold.PLP.part.hbond>
-3.0000

> <Gold.PLP.part.metal>
0.0000

> <Gold.PLP.part.buried>
-3.6970

> <Gold.PLP.part.nonpolar>
-18.8429

> <Gold.PLP.part.repulsive>
0.0072

> <Gold.PLP.ligand.clash>
0.0000

> <Gold.PLP.ligand.torsion>
0.2985

> <Gold.PLP.Chemscore.Hbond>
4.0000

> <Gold.PLP.Chemscore.CHOScore>
0.0000

> <Gold.PLP.Chemscore.Metal>
0.0000

> <Gold.Chemscore.Hbonds>
donor molecule, donor type, donor heavy atom, donor atom, acceptor molecule, acceptor atom, score
      L1  H    10    33       P1  8028  2.00
      P1  H  6896  6909       L1    16  1.00
      P1  H  7997  8010       L1     5  1.00

> <Gold.PLP.Chemscore.Internal.Correction>
0.0158

> <Gold.Rescore>
     Score         DG    S(hbond)    S(metal)    S(lipo)     H(rot)  DE(clash)    DE(int)     intcor
     15.26     -16.43       2.84        0.00      51.59       1.78       0.17       1.01       ----

> <Gold.Chemscore.Fitness>
15.2620

> <Gold.Chemscore.DG>
-16.4332

> <Gold.Chemscore.ZeroCoef>
-5.4800

> <Gold.Chemscore.Hbond>
2.8357

> <Gold.Chemscore.Metal>
0.0000

> <Gold.Chemscore.Lipo>
51.5866

> <Gold.Chemscore.Internal_Hbond>
0.0000

> <Gold.Chemscore.DEClash>
0.1655

> <Gold.Chemscore.DEInternal>
1.0057

> <Gold.Chemscore.Rot>
1.7787

> <Gold.Chemscore.Internal.Correction>
   9.000000E+99

> <Gold.Chemscore.Hbonds>
donor molecule, donor type, donor heavy atom, donor atom, acceptor molecule, acceptor atom, score
      L1  H    10    33       P1  8028  0.86
      P1  H  6896  6909       L1    16  0.89
      P1  H  7997  8010       L1     5  1.00

> <Gold.Chemscore.Hbond.Weighted>
-9.4711

> <Gold.Chemscore.Metal.Weighted>
-0.0000

> <Gold.Chemscore.Lipo.Weighted>
-6.0356

> <Gold.Chemscore.Internal_Hbond.Weighted>
0.0000

> <Gold.Chemscore.DEClash.Weighted>
0.1655

> <Gold.Chemscore.DEInternal.Weighted>
1.0057

> <Gold.Chemscore.Rot.Weighted>
4.5536

> <Gold.Chemscore.Internal.Correction.Weighted>
   9.000000E+99

> <Gold.Protein.RotatedTorsions>
[ 6907 6896 6895 6894 ] final   60.93 input  -60.11 | X-H torsion
[ 7974 7965 7964 7962 ] final  -23.39 input  175.53 | X-H torsion
[ 8008 7997 7996 7995 ] final   78.21 input   59.86 | X-H torsion
[ 10167 10162 10161 10158 ] final   50.06 input  -65.29 | X-H torsion
[ 10718 10713 10712 10709 ] final  164.06 input   66.30 | X-H torsion
[ 10763 10752 10751 10750 ] final  -80.62 input  -60.55 | X-H torsion
[ 11005 11000 10999 10996 ] final  -43.67 input  -57.11 | X-H torsion

> <Gold.Protein.ActiveResidues>
 VAL166  LYS551  ARG553  GLY616  TRP617  ASP618  TYR619  PRO620  LYS621  CYS622 
 ASP623  PHE694  ASN695  SER759  ASP760  ASP761  ALA762  ILE779  LEU786  VAL792 
 PHE793  MET794  SER795  GLU796  ALA797  LYS798  CYS799  TRP800  GLU811  SER814 

> <Gold.Protein.RotatedAtoms>
  152.4045  134.6230  160.0055 H   0  0  0  0  0  0  0  0  0  0  0  0  # atno 6907 bound_to 6896
  151.6425  133.3319  159.3141 H   0  0  0  0  0  0  0  0  0  0  0  0  # atno 6908 bound_to 6896
  150.7942  134.7030  159.6605 H   0  0  0  0  0  0  0  0  0  0  0  0  # atno 6909 bound_to 6896
  146.1619  140.4610  142.8568 H   0  0  0  0  0  0  0  0  0  0  0  0  # atno 7974 bound_to 7965
  155.8525  140.3457  155.5702 H   0  0  0  0  0  0  0  0  0  0  0  0  # atno 8008 bound_to 7997
  155.8022  140.0887  157.1970 H   0  0  0  0  0  0  0  0  0  0  0  0  # atno 8009 bound_to 7997
  154.4008  140.1463  156.3275 H   0  0  0  0  0  0  0  0  0  0  0  0  # atno 8010 bound_to 7997
  140.2764  144.3207  150.6276 H   0  0  0  0  0  0  0  0  0  0  0  0  # atno 10167 bound_to 10162
  157.0997  131.0439  151.2503 H   0  0  0  0  0  0  0  0  0  0  0  0  # atno 10718 bound_to 10713
  154.5534  135.5655  153.6943 H   0  0  0  0  0  0  0  0  0  0  0  0  # atno 10763 bound_to 10752
  152.9996  135.6256  154.2342 H   0  0  0  0  0  0  0  0  0  0  0  0  # atno 10764 bound_to 10752
  154.2278  135.2867  155.2881 H   0  0  0  0  0  0  0  0  0  0  0  0  # atno 10765 bound_to 10752
  141.0399  133.6784  156.2766 H   0  0  0  0  0  0  0  0  0  0  0  0  # atno 11005 bound_to 11000
  144.8038  140.6262  143.6460 LP  0  0  0  0  0  0  0  0  0  0  0  0  # atno 17320 bound_to 7965
  145.4567  139.1517  143.3888 LP  0  0  0  0  0  0  0  0  0  0  0  0  # atno 17321 bound_to 7965
  140.5848  143.2170  151.7362 LP  0  0  0  0  0  0  0  0  0  0  0  0  # atno 17342 bound_to 10162
  139.4974  144.4027  152.0164 LP  0  0  0  0  0  0  0  0  0  0  0  0  # atno 17343 bound_to 10162
  157.4651  130.7676  149.7272 LP  0  0  0  0  0  0  0  0  0  0  0  0  # atno 17370 bound_to 10713
  155.9877  130.3965  150.3154 LP  0  0  0  0  0  0  0  0  0  0  0  0  # atno 17371 bound_to 10713
  140.6253  134.5320  157.5553 LP  0  0  0  0  0  0  0  0  0  0  0  0  # atno 17394 bound_to 11000
  139.9268  134.8040  156.1045 LP  0  0  0  0  0  0  0  0  0  0  0  0  # atno 17395 bound_to 11000

$$$$
