AV-unprocessed.smi:275|AV-procd|sdf|2068|dock1
  -GOLD-   2262021323D 1   1.00000     0.00000
 Structure written by MMmdl.
 65 69  0  0  0  0  0  0  0  0  1 V2000
  153.2954  139.1012  159.8406 C   0  0  0  0  0  0  0  0  0  0  0  0
  153.3523  140.6371  159.7675 C   0  0  0  0  0  0  0  0  0  0  0  0
  153.9997  141.1783  161.0534 C   0  0  0  0  0  0  0  0  0  0  0  0
  151.9644  141.2594  159.5391 C   0  0  2  0  0  0  0  0  0  0  0  0
  151.4465  141.0492  158.1892 N   0  0  0  0  0  0  0  0  0  0  0  0
  150.6193  139.9084  158.0030 C   0  0  0  0  0  0  0  0  0  0  0  0
  150.3765  139.0304  159.0144 N   0  0  0  0  0  0  0  0  0  0  0  0
  149.6029  137.9583  158.8194 C   0  0  0  0  0  0  0  0  0  0  0  0
  148.9783  137.5723  157.7058 N   0  0  0  0  0  0  0  0  0  0  0  0
  149.2135  138.4459  156.6862 C   0  0  0  0  0  0  0  0  0  0  0  0
  150.0107  139.6229  156.7519 C   0  0  0  0  0  0  0  0  0  0  0  0
  150.0234  140.2581  155.5166 N   0  0  0  0  0  0  0  0  0  0  0  0
  149.2770  139.4990  154.7615 C   0  0  0  0  0  0  0  0  0  0  0  0
  148.7555  138.3863  155.3817 N   0  0  0  0  0  0  0  0  0  0  0  0
  147.8995  137.3809  154.7766 C   0  0  0  0  0  0  0  0  0  0  0  0
  146.5146  137.9299  154.3488 C   0  0  1  0  0  0  0  0  0  0  0  0
  146.6615  139.0096  153.2452 C   0  0  0  0  0  0  0  0  0  0  0  0
  146.9107  138.4399  151.9775 O   0  0  0  0  0  0  0  0  0  0  0  0
  145.5808  136.7669  153.9116 C   0  0  1  0  0  0  0  0  0  0  0  0
  145.2150  135.7875  155.0155 C   0  0  0  0  0  0  0  0  0  0  0  0
  143.9952  135.0804  154.4365 C   0  0  0  0  0  0  0  0  0  0  0  0
  143.3333  136.0528  153.6381 O   0  0  0  0  0  0  0  0  0  0  0  0
  144.1788  137.1829  153.4485 C   0  0  0  0  0  0  0  0  0  0  0  0
  150.7173  142.3062  158.2490 C   0  0  0  0  0  0  0  0  0  0  0  0
  151.7664  142.7719  159.2718 C   0  0  0  0  0  0  0  0  0  0  0  0
  151.2302  143.5884  160.4583 C   0  0  0  0  0  0  0  0  0  0  0  0
  150.7960  145.0075  160.0550 C   0  0  0  0  0  0  0  0  0  0  0  0
  151.9503  145.7779  159.4004 C   0  0  0  0  0  0  0  0  0  0  0  0
  152.5581  144.9848  158.2362 C   0  0  0  0  0  0  0  0  0  0  0  0
  152.9526  143.5647  158.6767 C   0  0  0  0  0  0  0  0  0  0  0  0
  152.6071  138.7658  160.6171 H   0  0  0  0  0  0  0  0  0  0  0  0
  154.2770  138.6816  160.0624 H   0  0  0  0  0  0  0  0  0  0  0  0
  152.9712  138.6665  158.8958 H   0  0  0  0  0  0  0  0  0  0  0  0
  154.0081  140.9008  158.9370 H   0  0  0  0  0  0  0  0  0  0  0  0
  153.4014  140.9266  161.9297 H   0  0  0  0  0  0  0  0  0  0  0  0
  154.1093  142.2611  161.0339 H   0  0  0  0  0  0  0  0  0  0  0  0
  154.9945  140.7567  161.1999 H   0  0  0  0  0  0  0  0  0  0  0  0
  151.2476  140.9302  160.2939 H   0  0  0  0  0  0  0  0  0  0  0  0
  149.4671  137.3180  159.6785 H   0  0  0  0  0  0  0  0  0  0  0  0
  149.0880  139.7281  153.7228 H   0  0  0  0  0  0  0  0  0  0  0  0
  148.4152  136.9489  153.9182 H   0  0  0  0  0  0  0  0  0  0  0  0
  147.7918  136.5790  155.5064 H   0  0  0  0  0  0  0  0  0  0  0  0
  146.0760  138.4062  155.2273 H   0  0  0  0  0  0  0  0  0  0  0  0
  145.7516  139.5977  153.1348 H   0  0  0  0  0  0  0  0  0  0  0  0
  147.4583  139.7114  153.4939 H   0  0  0  0  0  0  0  0  0  0  0  0
  147.1833  137.5432  152.0995 H   0  0  0  0  0  0  0  0  0  0  0  0
  146.0583  136.2072  153.1054 H   0  0  0  0  0  0  0  0  0  0  0  0
  146.0155  135.0878  155.2572 H   0  0  0  0  0  0  0  0  0  0  0  0
  144.9407  136.3229  155.9258 H   0  0  0  0  0  0  0  0  0  0  0  0
  144.3040  134.2549  153.7940 H   0  0  0  0  0  0  0  0  0  0  0  0
  143.3376  134.6813  155.2092 H   0  0  0  0  0  0  0  0  0  0  0  0
  143.7941  137.9986  154.0620 H   0  0  0  0  0  0  0  0  0  0  0  0
  144.1620  137.5054  152.4070 H   0  0  0  0  0  0  0  0  0  0  0  0
  150.7185  142.8538  157.3065 H   0  0  0  0  0  0  0  0  0  0  0  0
  149.7134  142.2195  158.6685 H   0  0  0  0  0  0  0  0  0  0  0  0
  150.3818  143.0777  160.9150 H   0  0  0  0  0  0  0  0  0  0  0  0
  151.9882  143.6531  161.2398 H   0  0  0  0  0  0  0  0  0  0  0  0
  149.9558  144.9486  159.3620 H   0  0  0  0  0  0  0  0  0  0  0  0
  150.4371  145.5501  160.9299 H   0  0  0  0  0  0  0  0  0  0  0  0
  151.6024  146.7504  159.0509 H   0  0  0  0  0  0  0  0  0  0  0  0
  152.7223  145.9748  160.1454 H   0  0  0  0  0  0  0  0  0  0  0  0
  151.8411  144.9316  157.4164 H   0  0  0  0  0  0  0  0  0  0  0  0
  153.4309  145.5090  157.8464 H   0  0  0  0  0  0  0  0  0  0  0  0
  153.7631  143.6426  159.4003 H   0  0  0  0  0  0  0  0  0  0  0  0
  153.3750  143.0377  157.8204 H   0  0  0  0  0  0  0  0  0  0  0  0
  1  2  1  0  0  0  0
  1 31  1  0  0  0  0
  1 32  1  0  0  0  0
  1 33  1  0  0  0  0
  2  3  1  0  0  0  0
  2  4  1  0  0  0  0
  2 34  1  0  0  0  0
  3 35  1  0  0  0  0
  3 36  1  0  0  0  0
  3 37  1  0  0  0  0
  4 25  1  0  0  0  0
  4  5  1  0  0  0  0
  4 38  1  0  0  0  0
  5  6  1  0  0  0  0
  5 24  1  0  0  0  0
  6 11  1  0  0  0  0
  6  7  2  0  0  0  0
  7  8  1  0  0  0  0
  8  9  2  0  0  0  0
  8 39  1  0  0  0  0
  9 10  1  0  0  0  0
 10 14  1  0  0  0  0
 10 11  2  0  0  0  0
 11 12  1  0  0  0  0
 12 13  2  0  0  0  0
 13 14  1  0  0  0  0
 13 40  1  0  0  0  0
 14 15  1  0  0  0  0
 15 16  1  0  0  0  0
 15 41  1  0  0  0  0
 15 42  1  0  0  0  0
 16 17  1  0  0  0  0
 16 19  1  0  0  0  0
 16 43  1  0  0  0  0
 17 18  1  0  0  0  0
 17 44  1  0  0  0  0
 17 45  1  0  0  0  0
 18 46  1  0  0  0  0
 19 23  1  0  0  0  0
 19 20  1  0  0  0  0
 19 47  1  0  0  0  0
 20 21  1  0  0  0  0
 20 48  1  0  0  0  0
 20 49  1  0  0  0  0
 21 22  1  0  0  0  0
 21 50  1  0  0  0  0
 21 51  1  0  0  0  0
 22 23  1  0  0  0  0
 23 52  1  0  0  0  0
 23 53  1  0  0  0  0
 24 25  1  0  0  0  0
 24 54  1  0  0  0  0
 24 55  1  0  0  0  0
 25 30  1  0  0  0  0
 25 26  1  0  0  0  0
 26 27  1  0  0  0  0
 26 56  1  0  0  0  0
 26 57  1  0  0  0  0
 27 28  1  0  0  0  0
 27 58  1  0  0  0  0
 27 59  1  0  0  0  0
 28 29  1  0  0  0  0
 28 60  1  0  0  0  0
 28 61  1  0  0  0  0
 29 30  1  0  0  0  0
 29 62  1  0  0  0  0
 29 63  1  0  0  0  0
 30 64  1  0  0  0  0
 30 65  1  0  0  0  0
M  END
> <s_m_source_file>
AV-unprocessed.smi

> <i_m_source_file_index>
275

> <i_lp_mmshare_version>
43012

> <i_f3d_flags>
0

> <s_epik_input>
W0NIMl0xW0NIMl1bQ0gyXVtDSDJdW0NIMl1DMTJbQ0BIXShbQ0hdKFtDSDNdKVtDSDNdKU4oW0NIMl0yKWMobltjSF1uMyljKGMzNCluW2NIXW40W0NIMl1bQ0BIXShbQ0gyXVtPSF0pW0NAQEhdNVtDSDJdW0NIMl1PW0NIMl01

> <s_epik_cmdline>
J2VwaWtfcHl0aG9uJywgJy1waCcsICc3LjAnLCAnLXRuJywgJzgnLCAnLW1hJywgJzIwMCcsICctbWV0YWxfYmluZGluZycsICctaW1hZScsICc8aW5maWxlLm1hZT4nLCAnLW9tYWUnLCAnPG91dGZpbGUubWFlPic=

> <r_lp_tautomer_probability>
1

> <r_epik_Ionization_Penalty>
0.00375122

> <r_epik_Ionization_Penalty_Charging>
0

> <r_epik_Ionization_Penalty_Neutral>
0.00375122

> <r_epik_State_Penalty>
0.00260593

> <r_epik_Charging_Adjusted_Penalty>
0.00260593

> <i_epik_Tot_Q>
0

> <i_epik_Tot_abs_Q>
0

> <r_epik_Metal_State_Penalty>
-0

> <b_epik_Metal_Only>
0

> <s_lp_Force_Field>
OPLS_2005

> <r_lp_Energy>
64.3005

> <b_lp_Chiralities_Consistent>
1

> <s_lp_Variant>
AV-unprocessed.smi:275-7

> <Gold.Version>
5.8.1

> <Gold.Id.Protein>
6NUR|6NUR_protein|mol2

> <Gold.PLP.Fitness>
51.2553

> <Gold.PLP.PLP>
-45.2739

> <Gold.PLP.part.hbond>
-3.1845

> <Gold.PLP.part.metal>
0.0000

> <Gold.PLP.part.buried>
-4.0907

> <Gold.PLP.part.nonpolar>
-38.2422

> <Gold.PLP.part.repulsive>
0.1375

> <Gold.PLP.ligand.clash>
0.0000

> <Gold.PLP.ligand.torsion>
0.4721

> <Gold.PLP.Chemscore.Hbond>
1.0512

> <Gold.PLP.Chemscore.CHOScore>
1.0000

> <Gold.PLP.Chemscore.Metal>
0.0000

> <Gold.Chemscore.Hbonds>
donor molecule, donor type, donor heavy atom, donor atom, acceptor molecule, acceptor atom, score
      L1  H    18    46       P1  7948  0.47
      L1  C    13    40       P1  7957  0.74

> <Gold.PLP.Chemscore.Internal.Correction>
0.7720

> <Gold.Rescore>
     Score         DG    S(hbond)    S(metal)    S(lipo)     H(rot)  DE(clash)    DE(int)     intcor
     16.68     -18.58       0.99        0.00     139.14       2.54       1.31       0.59       ----

> <Gold.Chemscore.Fitness>
16.6783

> <Gold.Chemscore.DG>
-18.5814

> <Gold.Chemscore.ZeroCoef>
-5.4800

> <Gold.Chemscore.Hbond>
0.9937

> <Gold.Chemscore.Metal>
0.0000

> <Gold.Chemscore.Lipo>
139.1361

> <Gold.Chemscore.Internal_Hbond>
0.0000

> <Gold.Chemscore.DEClash>
1.3113

> <Gold.Chemscore.DEInternal>
0.5917

> <Gold.Chemscore.Rot>
2.5377

> <Gold.Chemscore.Internal.Correction>
   9.000000E+99

> <Gold.Chemscore.Hbonds>
donor molecule, donor type, donor heavy atom, donor atom, acceptor molecule, acceptor atom, score
      L1  H    18    46       P1  7948  0.46

> <Gold.Chemscore.Hbond.Weighted>
-3.3190

> <Gold.Chemscore.Metal.Weighted>
-0.0000

> <Gold.Chemscore.Lipo.Weighted>
-16.2789

> <Gold.Chemscore.Internal_Hbond.Weighted>
0.0000

> <Gold.Chemscore.DEClash.Weighted>
1.3113

> <Gold.Chemscore.DEInternal.Weighted>
0.5917

> <Gold.Chemscore.Rot.Weighted>
6.4966

> <Gold.Chemscore.Internal.Correction.Weighted>
   9.000000E+99

> <Gold.Protein.RotatedTorsions>
[ 6907 6896 6895 6894 ] final  -31.08 input  -60.11 | X-H torsion
[ 7974 7965 7964 7962 ] final  161.66 input  175.53 | X-H torsion
[ 8008 7997 7996 7995 ] final  143.33 input   59.86 | X-H torsion
[ 10167 10162 10161 10158 ] final  -25.00 input  -65.29 | X-H torsion
[ 10718 10713 10712 10709 ] final  134.31 input   66.30 | X-H torsion
[ 10763 10752 10751 10750 ] final  -40.23 input  -60.55 | X-H torsion
[ 11005 11000 10999 10996 ] final   27.29 input  -57.11 | X-H torsion

> <Gold.Protein.ActiveResidues>
 VAL166  LYS551  ARG553  GLY616  TRP617  ASP618  TYR619  PRO620  LYS621  CYS622 
 ASP623  PHE694  ASN695  SER759  ASP760  ASP761  ALA762  ILE779  LEU786  VAL792 
 PHE793  MET794  SER795  GLU796  ALA797  LYS798  CYS799  TRP800  GLU811  SER814 

> <Gold.Protein.RotatedAtoms>
  151.0969  134.9949  159.8429 H   0  0  0  0  0  0  0  0  0  0  0  0  # atno 6907 bound_to 6896
  152.5434  134.1997  159.8717 H   0  0  0  0  0  0  0  0  0  0  0  0  # atno 6908 bound_to 6896
  151.2037  133.4552  159.2630 H   0  0  0  0  0  0  0  0  0  0  0  0  # atno 6909 bound_to 6896
  144.7674  139.7930  143.6310 H   0  0  0  0  0  0  0  0  0  0  0  0  # atno 7974 bound_to 7965
  156.2932  140.2265  156.4873 H   0  0  0  0  0  0  0  0  0  0  0  0  # atno 8008 bound_to 7997
  154.7801  140.0461  157.1142 H   0  0  0  0  0  0  0  0  0  0  0  0  # atno 8009 bound_to 7997
  154.9769  140.3073  155.4967 H   0  0  0  0  0  0  0  0  0  0  0  0  # atno 8010 bound_to 7997
  140.7287  143.4303  151.0812 H   0  0  0  0  0  0  0  0  0  0  0  0  # atno 10167 bound_to 10162
  157.4685  131.1078  150.9832 H   0  0  0  0  0  0  0  0  0  0  0  0  # atno 10718 bound_to 10713
  153.9425  135.6760  153.4744 H   0  0  0  0  0  0  0  0  0  0  0  0  # atno 10763 bound_to 10752
  153.0924  135.4868  154.8713 H   0  0  0  0  0  0  0  0  0  0  0  0  # atno 10764 bound_to 10752
  154.7369  135.3151  154.8754 H   0  0  0  0  0  0  0  0  0  0  0  0  # atno 10765 bound_to 10752
  140.3279  134.2470  155.7707 H   0  0  0  0  0  0  0  0  0  0  0  0  # atno 11005 bound_to 11000
  146.1794  139.4979  142.9876 LP  0  0  0  0  0  0  0  0  0  0  0  0  # atno 17320 bound_to 7965
  145.6427  141.0281  143.1803 LP  0  0  0  0  0  0  0  0  0  0  0  0  # atno 17321 bound_to 7965
  139.7959  143.8152  152.3157 LP  0  0  0  0  0  0  0  0  0  0  0  0  # atno 17342 bound_to 10162
  139.8152  144.7319  150.9645 LP  0  0  0  0  0  0  0  0  0  0  0  0  # atno 17343 bound_to 10162
  157.0605  130.5823  149.5385 LP  0  0  0  0  0  0  0  0  0  0  0  0  # atno 17370 bound_to 10713
  156.0062  130.5149  150.7837 LP  0  0  0  0  0  0  0  0  0  0  0  0  # atno 17371 bound_to 10713
  141.2071  133.7816  157.0141 LP  0  0  0  0  0  0  0  0  0  0  0  0  # atno 17394 bound_to 11000
  140.0886  134.9606  157.1739 LP  0  0  0  0  0  0  0  0  0  0  0  0  # atno 17395 bound_to 11000

$$$$
