AV-unprocessed.smi:1125|AV-procd|sdf|4835|dock10
  -GOLD-   22720 3403D 1   1.00000     0.00000
 Structure written by MMmdl.
 46 47  0  0  0  0  0  0  0  0  2 V2000
  145.4853  137.1786  153.2178 C   0  0  0  0  0  0  0  0  0  0  0  0
  145.7577  138.6271  153.1005 N   0  3  2  0  0  0  0  0  0  0  0  0
  146.8093  138.9223  152.0954 C   0  0  0  0  0  0  0  0  0  0  0  0
  146.9852  140.4397  151.9047 C   0  0  0  0  0  0  0  0  0  0  0  0
  147.2772  141.1559  153.2375 C   0  0  2  0  0  0  0  0  0  0  0  0
  148.6042  140.8191  153.7449 N   0  0  0  0  0  0  0  0  0  0  0  0
  149.0865  141.1168  154.9618 C   0  0  0  0  0  0  0  0  0  0  0  0
  148.4576  141.7614  155.8003 O   0  0  0  0  0  0  0  0  0  0  0  0
  150.5022  140.6209  155.2746 C   0  0  0  0  0  0  0  0  0  0  0  0
  150.8955  140.9823  156.6798 C   0  0  0  0  0  0  0  0  0  0  0  0
  151.3218  140.1257  157.6629 C   0  0  0  0  0  0  0  0  0  0  0  0
  151.7044  140.9698  159.1373 S   0  0  0  0  0  0  0  0  0  0  0  0
  151.2598  142.4927  158.3587 C   0  0  0  0  0  0  0  0  0  0  0  0
  151.3457  143.8552  159.0026 C   0  0  0  0  0  0  0  0  0  0  0  0
  151.9170  143.7193  160.4275 C   0  0  0  0  0  0  0  0  0  0  0  0
  149.9528  144.5119  159.1141 C   0  0  0  0  0  0  0  0  0  0  0  0
  152.2314  144.7839  158.1494 C   0  0  0  0  0  0  0  0  0  0  0  0
  150.8513  142.3169  157.0974 N   0  0  0  0  0  0  0  0  0  0  0  0
  146.2056  140.7807  154.2766 C   0  0  0  0  0  0  0  0  0  0  0  0
  146.0470  139.2550  154.4139 C   0  0  0  0  0  0  0  0  0  0  0  0
  146.3636  136.6433  153.5808 H   0  0  0  0  0  0  0  0  0  0  0  0
  145.2052  136.7607  152.2503 H   0  0  0  0  0  0  0  0  0  0  0  0
  144.6623  136.9957  153.9094 H   0  0  0  0  0  0  0  0  0  0  0  0
  147.7512  138.4675  152.4061 H   0  0  0  0  0  0  0  0  0  0  0  0
  146.5396  138.4672  151.1416 H   0  0  0  0  0  0  0  0  0  0  0  0
  147.7779  140.6372  151.1822 H   0  0  0  0  0  0  0  0  0  0  0  0
  146.0733  140.8516  151.4706 H   0  0  0  0  0  0  0  0  0  0  0  0
  147.2342  142.2350  153.0785 H   0  0  0  0  0  0  0  0  0  0  0  0
  149.2000  140.2792  153.1333 H   0  0  0  0  0  0  0  0  0  0  0  0
  150.5382  139.5407  155.1283 H   0  0  0  0  0  0  0  0  0  0  0  0
  151.2028  141.0519  154.5584 H   0  0  0  0  0  0  0  0  0  0  0  0
  151.4432  139.0539  157.6065 H   0  0  0  0  0  0  0  0  0  0  0  0
  151.9762  144.6871  160.9269 H   0  0  0  0  0  0  0  0  0  0  0  0
  152.9227  143.2976  160.4165 H   0  0  0  0  0  0  0  0  0  0  0  0
  151.2956  143.0678  161.0432 H   0  0  0  0  0  0  0  0  0  0  0  0
  149.2731  143.9160  159.7243 H   0  0  0  0  0  0  0  0  0  0  0  0
  149.4915  144.6450  158.1346 H   0  0  0  0  0  0  0  0  0  0  0  0
  150.0162  145.4980  159.5756 H   0  0  0  0  0  0  0  0  0  0  0  0
  152.2964  145.7818  158.5842 H   0  0  0  0  0  0  0  0  0  0  0  0
  151.8363  144.8896  157.1384 H   0  0  0  0  0  0  0  0  0  0  0  0
  153.2490  144.4007  158.0658 H   0  0  0  0  0  0  0  0  0  0  0  0
  146.4476  141.2198  155.2455 H   0  0  0  0  0  0  0  0  0  0  0  0
  145.2498  141.2135  153.9783 H   0  0  0  0  0  0  0  0  0  0  0  0
  145.2354  139.0370  155.1092 H   0  0  0  0  0  0  0  0  0  0  0  0
  146.9509  138.8153  154.8385 H   0  0  0  0  0  0  0  0  0  0  0  0
  144.9066  139.0513  152.7599 H   0  0  0  0  0  0  0  0  0  0  0  0
  1  2  1  0  0  0  0
  1 21  1  0  0  0  0
  1 22  1  0  0  0  0
  1 23  1  0  0  0  0
  2 20  1  0  0  0  0
  2  3  1  0  0  0  0
  2 46  1  0  0  0  0
  3  4  1  0  0  0  0
  3 24  1  0  0  0  0
  3 25  1  0  0  0  0
  4  5  1  0  0  0  0
  4 26  1  0  0  0  0
  4 27  1  0  0  0  0
  5  6  1  0  0  0  0
  5 19  1  0  0  0  0
  5 28  1  0  0  0  0
  6  7  1  0  0  0  0
  6 29  1  0  0  0  0
  7  8  2  0  0  0  0
  7  9  1  0  0  0  0
  9 10  1  0  0  0  0
  9 30  1  0  0  0  0
  9 31  1  0  0  0  0
 10 18  1  0  0  0  0
 10 11  2  0  0  0  0
 11 12  1  0  0  0  0
 11 32  1  0  0  0  0
 12 13  1  0  0  0  0
 13 14  1  0  0  0  0
 13 18  2  0  0  0  0
 14 15  1  0  0  0  0
 14 16  1  0  0  0  0
 14 17  1  0  0  0  0
 15 33  1  0  0  0  0
 15 34  1  0  0  0  0
 15 35  1  0  0  0  0
 16 36  1  0  0  0  0
 16 37  1  0  0  0  0
 16 38  1  0  0  0  0
 17 39  1  0  0  0  0
 17 40  1  0  0  0  0
 17 41  1  0  0  0  0
 19 20  1  0  0  0  0
 19 42  1  0  0  0  0
 19 43  1  0  0  0  0
 20 44  1  0  0  0  0
 20 45  1  0  0  0  0
M  CHG  1   2   1
M  END
> <s_m_source_file>
AV-unprocessed.smi

> <i_m_source_file_index>
1125

> <i_lp_mmshare_version>
43012

> <i_f3d_flags>
0

> <s_epik_input>
W0NIM11OMVtDSDJdW0NIMl1bQ0hdKFtDSDJdW0NIMl0xKVtOSF1DKD1PKVtDSDJdYzJbY0hdc2MobjIpQyhbQ0gzXSkoW0NIM10pW0NIM10=

> <s_epik_cmdline>
J2VwaWtfcHl0aG9uJywgJy1waCcsICc3LjAnLCAnLXRuJywgJzgnLCAnLW1hJywgJzIwMCcsICctbWV0YWxfYmluZGluZycsICctaW1hZScsICc8aW5maWxlLm1hZT4nLCAnLW9tYWUnLCAnPG91dGZpbGUubWFlPic=

> <r_epik_Ionization_Penalty>
0.00829478

> <r_epik_Ionization_Penalty_Charging>
0.0082618

> <r_epik_Ionization_Penalty_Neutral>
3.29858e-05

> <r_epik_State_Penalty>
0.00621662

> <r_epik_Charging_Adjusted_Penalty>
0.0144784

> <i_epik_Tot_Q>
1

> <i_epik_Tot_abs_Q>
1

> <r_epik_Metal_State_Penalty>
0.00621672

> <b_epik_Metal_Only>
0

> <s_lp_Force_Field>
OPLS_2005

> <r_lp_Energy>
6.26884

> <b_lp_Chiralities_Consistent>
1

> <s_lp_Variant>
AV-unprocessed.smi:1125-2

> <Gold.Version>
5.8.1

> <Gold.Id.Protein>
6NUR|6NUR_protein|mol2

> <Gold.PLP.Fitness>
46.1711

> <Gold.PLP.PLP>
-38.1104

> <Gold.PLP.part.hbond>
-2.0000

> <Gold.PLP.part.metal>
0.0000

> <Gold.PLP.part.buried>
-0.0449

> <Gold.PLP.part.nonpolar>
-35.0822

> <Gold.PLP.part.repulsive>
0.9314

> <Gold.PLP.ligand.clash>
0.0000

> <Gold.PLP.ligand.torsion>
0.1706

> <Gold.PLP.Chemscore.Hbond>
2.7956

> <Gold.PLP.Chemscore.CHOScore>
0.0000

> <Gold.PLP.Chemscore.Metal>
0.0000

> <Gold.Chemscore.Hbonds>
donor molecule, donor type, donor heavy atom, donor atom, acceptor molecule, acceptor atom, score
      L1  H     2    46       P1 10175  2.00
      L1  H     6    29       P1  7957  0.80

> <Gold.PLP.Chemscore.Internal.Correction>
0.0150

> <Gold.Rescore>
     Score         DG    S(hbond)    S(metal)    S(lipo)     H(rot)  DE(clash)    DE(int)     intcor
     16.29     -21.08       1.57        0.00     119.25       1.40       1.41       3.39       ----

> <Gold.Chemscore.Fitness>
16.2888

> <Gold.Chemscore.DG>
-21.0806

> <Gold.Chemscore.ZeroCoef>
-5.4800

> <Gold.Chemscore.Hbond>
1.5690

> <Gold.Chemscore.Metal>
0.0000

> <Gold.Chemscore.Lipo>
119.2471

> <Gold.Chemscore.Internal_Hbond>
0.0000

> <Gold.Chemscore.DEClash>
1.4062

> <Gold.Chemscore.DEInternal>
3.3856

> <Gold.Chemscore.Rot>
1.4030

> <Gold.Chemscore.Internal.Correction>
   9.000000E+99

> <Gold.Chemscore.Hbonds>
donor molecule, donor type, donor heavy atom, donor atom, acceptor molecule, acceptor atom, score
      L1  H     2    46       P1 10175  0.98
      L1  H     6    29       P1  7957  0.74

> <Gold.Chemscore.Hbond.Weighted>
-5.2405

> <Gold.Chemscore.Metal.Weighted>
-0.0000

> <Gold.Chemscore.Lipo.Weighted>
-13.9519

> <Gold.Chemscore.Internal_Hbond.Weighted>
0.0000

> <Gold.Chemscore.DEClash.Weighted>
1.4062

> <Gold.Chemscore.DEInternal.Weighted>
3.3856

> <Gold.Chemscore.Rot.Weighted>
3.5917

> <Gold.Chemscore.Internal.Correction.Weighted>
   9.000000E+99

> <Gold.Protein.RotatedTorsions>
[ 6907 6896 6895 6894 ] final  173.49 input  -60.11 | X-H torsion
[ 7974 7965 7964 7962 ] final  -63.92 input  175.53 | X-H torsion
[ 8008 7997 7996 7995 ] final   12.15 input   59.86 | X-H torsion
[ 10167 10162 10161 10158 ] final  -43.65 input  -65.29 | X-H torsion
[ 10718 10713 10712 10709 ] final -135.00 input   66.30 | X-H torsion
[ 10763 10752 10751 10750 ] final   90.56 input  -60.55 | X-H torsion
[ 11005 11000 10999 10996 ] final   98.27 input  -57.11 | X-H torsion

> <Gold.Protein.ActiveResidues>
 VAL166  LYS551  ARG553  GLY616  TRP617  ASP618  TYR619  PRO620  LYS621  CYS622 
 ASP623  PHE694  ASN695  SER759  ASP760  ASP761  ALA762  ILE779  LEU786  VAL792 
 PHE793  MET794  SER795  GLU796  ALA797  LYS798  CYS799  TRP800  GLU811  SER814 

> <Gold.Protein.RotatedAtoms>
  151.7674  133.3338  159.3434 H   0  0  0  0  0  0  0  0  0  0  0  0  # atno 6907 bound_to 6896
  150.7474  134.6050  159.6065 H   0  0  0  0  0  0  0  0  0  0  0  0  # atno 6908 bound_to 6896
  152.3364  134.7194  160.0327 H   0  0  0  0  0  0  0  0  0  0  0  0  # atno 6909 bound_to 6896
  145.7731  140.8802  143.0370 H   0  0  0  0  0  0  0  0  0  0  0  0  # atno 7974 bound_to 7965
  154.8166  140.2877  155.5816 H   0  0  0  0  0  0  0  0  0  0  0  0  # atno 8008 bound_to 7997
  156.2993  140.2558  156.2995 H   0  0  0  0  0  0  0  0  0  0  0  0  # atno 8009 bound_to 7997
  154.9386  140.0382  157.2074 H   0  0  0  0  0  0  0  0  0  0  0  0  # atno 8010 bound_to 7997
  140.6926  143.2971  151.3383 H   0  0  0  0  0  0  0  0  0  0  0  0  # atno 10167 bound_to 10162
  156.2615  130.7212  151.1148 H   0  0  0  0  0  0  0  0  0  0  0  0  # atno 10718 bound_to 10713
  153.1989  135.4429  155.0241 H   0  0  0  0  0  0  0  0  0  0  0  0  # atno 10763 bound_to 10752
  154.8135  135.3305  154.7243 H   0  0  0  0  0  0  0  0  0  0  0  0  # atno 10764 bound_to 10752
  153.7690  135.6986  153.4965 H   0  0  0  0  0  0  0  0  0  0  0  0  # atno 10765 bound_to 10752
  139.8773  134.9041  156.4431 H   0  0  0  0  0  0  0  0  0  0  0  0  # atno 11005 bound_to 11000
  144.6809  139.9883  143.7484 LP  0  0  0  0  0  0  0  0  0  0  0  0  # atno 17320 bound_to 7965
  146.0150  139.3202  143.0847 LP  0  0  0  0  0  0  0  0  0  0  0  0  # atno 17321 bound_to 7965
  139.6345  144.0657  152.2504 LP  0  0  0  0  0  0  0  0  0  0  0  0  # atno 17342 bound_to 10162
  140.0143  144.6201  150.7621 LP  0  0  0  0  0  0  0  0  0  0  0  0  # atno 17343 bound_to 10162
  157.7252  131.0654  150.5962 LP  0  0  0  0  0  0  0  0  0  0  0  0  # atno 17370 bound_to 10713
  156.6050  130.4365  149.5881 LP  0  0  0  0  0  0  0  0  0  0  0  0  # atno 17371 bound_to 10713
  140.8985  133.7797  155.9653 LP  0  0  0  0  0  0  0  0  0  0  0  0  # atno 17394 bound_to 11000
  140.8677  134.2764  157.5205 LP  0  0  0  0  0  0  0  0  0  0  0  0  # atno 17395 bound_to 11000

$$$$
