AV-unprocessed.smi:20|AV-procd|sdf|116|dock3
  -GOLD-   2262015283D 1   1.00000     0.00000
 Structure written by MMmdl.
 57 61  0  0  0  0  0  0  0  0  1 V2000
  146.8186  132.5946  151.5275 O   0  0  0  0  0  0  0  0  0  0  0  0
  146.9841  132.6163  152.7447 C   0  0  0  0  0  0  0  0  0  0  0  0
  148.0604  133.4355  153.4362 C   0  0  0  0  0  0  0  0  0  0  0  0
  148.1009  132.8427  154.8654 C   0  0  1  0  0  0  0  0  0  0  0  0
  149.1884  131.7431  155.0033 C   0  0  0  0  0  0  0  0  0  0  0  0
  150.6108  132.3305  155.0241 C   0  0  0  0  0  0  0  0  0  0  0  0
  150.7414  133.4327  156.0851 C   0  0  0  0  0  0  0  0  0  0  0  0
  149.6954  134.4406  155.9133 N   0  0  0  0  0  0  0  0  0  0  0  0
  149.8671  135.6453  156.5149 C   0  0  0  0  0  0  0  0  0  0  0  0
  149.3091  135.8809  157.7329 N   0  0  0  0  0  0  0  0  0  0  0  0
  149.4631  137.0668  158.3290 C   0  0  0  0  0  0  0  0  0  0  0  0
  150.1271  138.1390  157.8941 N   0  0  0  0  0  0  0  0  0  0  0  0
  150.6975  137.9073  156.6774 C   0  0  0  0  0  0  0  0  0  0  0  0
  150.6184  136.7013  155.9247 C   0  0  0  0  0  0  0  0  0  0  0  0
  151.3337  136.8367  154.7404 N   0  0  0  0  0  0  0  0  0  0  0  0
  151.7994  138.0549  154.7859 C   0  0  0  0  0  0  0  0  0  0  0  0
  151.4785  138.7641  155.9211 N   0  0  0  0  0  0  0  0  0  0  0  0
  151.8571  140.1336  156.2250 C   0  0  0  0  0  0  0  0  0  0  0  0
  151.6586  140.5366  157.7091 C   0  0  1  0  0  0  0  0  0  0  0  0
  152.3953  139.5263  158.6194 C   0  0  0  0  0  0  0  0  0  0  0  0
  153.7946  139.5721  158.4261 O   0  0  0  0  0  0  0  0  0  0  0  0
  152.0484  142.0103  158.0238 C   0  0  2  0  0  0  0  0  0  0  0  0
  151.9841  142.3825  159.4968 C   0  0  0  0  0  0  0  0  0  0  0  0
  151.9504  143.9024  159.4422 C   0  0  0  0  0  0  0  0  0  0  0  0
  151.1325  144.1956  158.3201 O   0  0  0  0  0  0  0  0  0  0  0  0
  151.1369  143.0911  157.4195 C   0  0  0  0  0  0  0  0  0  0  0  0
  148.3284  133.9213  155.9485 C   0  0  0  0  0  0  0  0  0  0  0  0
  146.6978  132.2052  155.0040 C   0  0  0  0  0  0  0  0  0  0  0  0
  146.2684  131.9453  153.6437 N   0  0  0  0  0  0  0  0  0  0  0  0
  149.0100  133.3710  152.9060 H   0  0  0  0  0  0  0  0  0  0  0  0
  147.7477  134.4804  153.4420 H   0  0  0  0  0  0  0  0  0  0  0  0
  149.0328  131.1953  155.9337 H   0  0  0  0  0  0  0  0  0  0  0  0
  149.1018  131.0084  154.2019 H   0  0  0  0  0  0  0  0  0  0  0  0
  151.3361  131.5409  155.2213 H   0  0  0  0  0  0  0  0  0  0  0  0
  150.8652  132.7369  154.0454 H   0  0  0  0  0  0  0  0  0  0  0  0
  150.6623  133.0002  157.0836 H   0  0  0  0  0  0  0  0  0  0  0  0
  151.7280  133.8916  156.0082 H   0  0  0  0  0  0  0  0  0  0  0  0
  148.9863  137.1713  159.2924 H   0  0  0  0  0  0  0  0  0  0  0  0
  152.4004  138.4703  153.9902 H   0  0  0  0  0  0  0  0  0  0  0  0
  152.9061  140.2415  155.9468 H   0  0  0  0  0  0  0  0  0  0  0  0
  151.3005  140.8083  155.5739 H   0  0  0  0  0  0  0  0  0  0  0  0
  150.5987  140.4228  157.9407 H   0  0  0  0  0  0  0  0  0  0  0  0
  152.1790  139.7137  159.6711 H   0  0  0  0  0  0  0  0  0  0  0  0
  152.0507  138.5116  158.4178 H   0  0  0  0  0  0  0  0  0  0  0  0
  154.1784  138.8023  158.8177 H   0  0  0  0  0  0  0  0  0  0  0  0
  153.0676  142.1923  157.6783 H   0  0  0  0  0  0  0  0  0  0  0  0
  151.0656  142.0048  159.9487 H   0  0  0  0  0  0  0  0  0  0  0  0
  152.8308  142.0080  160.0733 H   0  0  0  0  0  0  0  0  0  0  0  0
  151.5568  144.3496  160.3552 H   0  0  0  0  0  0  0  0  0  0  0  0
  152.9507  144.3014  159.2675 H   0  0  0  0  0  0  0  0  0  0  0  0
  151.4819  143.4136  156.4380 H   0  0  0  0  0  0  0  0  0  0  0  0
  150.1108  142.7361  157.3189 H   0  0  0  0  0  0  0  0  0  0  0  0
  147.5931  134.7172  155.8348 H   0  0  0  0  0  0  0  0  0  0  0  0
  148.1570  133.4903  156.9358 H   0  0  0  0  0  0  0  0  0  0  0  0
  146.6988  131.2914  155.5991 H   0  0  0  0  0  0  0  0  0  0  0  0
  145.9867  132.8964  155.4589 H   0  0  0  0  0  0  0  0  0  0  0  0
  145.4961  131.3349  153.4186 H   0  0  0  0  0  0  0  0  0  0  0  0
  1  2  2  0  0  0  0
  2 29  1  0  0  0  0
  2  3  1  0  0  0  0
  3  4  1  0  0  0  0
  3 30  1  0  0  0  0
  3 31  1  0  0  0  0
  4 27  1  0  0  0  0
  4  5  1  0  0  0  0
  4 28  1  0  0  0  0
  5  6  1  0  0  0  0
  5 32  1  0  0  0  0
  5 33  1  0  0  0  0
  6  7  1  0  0  0  0
  6 34  1  0  0  0  0
  6 35  1  0  0  0  0
  7  8  1  0  0  0  0
  7 36  1  0  0  0  0
  7 37  1  0  0  0  0
  8  9  1  0  0  0  0
  8 27  1  0  0  0  0
  9 14  1  0  0  0  0
  9 10  2  0  0  0  0
 10 11  1  0  0  0  0
 11 12  2  0  0  0  0
 11 38  1  0  0  0  0
 12 13  1  0  0  0  0
 13 17  1  0  0  0  0
 13 14  2  0  0  0  0
 14 15  1  0  0  0  0
 15 16  2  0  0  0  0
 16 17  1  0  0  0  0
 16 39  1  0  0  0  0
 17 18  1  0  0  0  0
 18 19  1  0  0  0  0
 18 40  1  0  0  0  0
 18 41  1  0  0  0  0
 19 20  1  0  0  0  0
 19 22  1  0  0  0  0
 19 42  1  0  0  0  0
 20 21  1  0  0  0  0
 20 43  1  0  0  0  0
 20 44  1  0  0  0  0
 21 45  1  0  0  0  0
 22 26  1  0  0  0  0
 22 23  1  0  0  0  0
 22 46  1  0  0  0  0
 23 24  1  0  0  0  0
 23 47  1  0  0  0  0
 23 48  1  0  0  0  0
 24 25  1  0  0  0  0
 24 49  1  0  0  0  0
 24 50  1  0  0  0  0
 25 26  1  0  0  0  0
 26 51  1  0  0  0  0
 26 52  1  0  0  0  0
 27 53  1  0  0  0  0
 27 54  1  0  0  0  0
 28 29  1  0  0  0  0
 28 55  1  0  0  0  0
 28 56  1  0  0  0  0
 29 57  1  0  0  0  0
M  END
> <s_m_source_file>
AV-unprocessed.smi

> <i_m_source_file_index>
20

> <i_lp_mmshare_version>
43012

> <i_f3d_flags>
0

> <s_epik_input>
W0NIMl0xW05IXUMoPU8pW0NIMl1bQ0BAXTEyW0NIMl1bQ0gyXVtDSDJdTihbQ0gyXTIpYyhuW2NIXW4zKWMoYzM0KW5bY0hdbjRbQ0gyXVtDQEhdKFtDSDJdW09IXSlbQ0BASF01W0NIMl1bQ0gyXU9bQ0gyXTU=

> <s_epik_cmdline>
J2VwaWtfcHl0aG9uJywgJy1waCcsICc3LjAnLCAnLXRuJywgJzgnLCAnLW1hJywgJzIwMCcsICctbWV0YWxfYmluZGluZycsICctaW1hZScsICc8aW5maWxlLm1hZT4nLCAnLW9tYWUnLCAnPG91dGZpbGUubWFlPic=

> <r_lp_tautomer_probability>
1

> <r_epik_Ionization_Penalty>
0.0019697

> <r_epik_Ionization_Penalty_Charging>
0

> <r_epik_Ionization_Penalty_Neutral>
0.0019697

> <r_epik_State_Penalty>
0.00113613

> <r_epik_Charging_Adjusted_Penalty>
0.00113613

> <i_epik_Tot_Q>
0

> <i_epik_Tot_abs_Q>
0

> <r_epik_Metal_State_Penalty>
-0

> <b_epik_Metal_Only>
0

> <s_lp_Force_Field>
OPLS_2005

> <r_lp_Energy>
60.744

> <b_lp_Chiralities_Consistent>
1

> <s_lp_Variant>
AV-unprocessed.smi:20-4

> <Gold.Version>
5.8.1

> <Gold.Id.Protein>
6NUR|6NUR_protein|mol2

> <Gold.PLP.Fitness>
41.9898

> <Gold.PLP.PLP>
-37.0852

> <Gold.PLP.part.hbond>
-2.0000

> <Gold.PLP.part.metal>
0.0000

> <Gold.PLP.part.buried>
-6.9895

> <Gold.PLP.part.nonpolar>
-28.8147

> <Gold.PLP.part.repulsive>
0.6926

> <Gold.PLP.ligand.clash>
0.0000

> <Gold.PLP.ligand.torsion>
0.8493

> <Gold.PLP.Chemscore.Hbond>
2.0000

> <Gold.PLP.Chemscore.CHOScore>
0.0000

> <Gold.PLP.Chemscore.Metal>
0.0000

> <Gold.Chemscore.Hbonds>
donor molecule, donor type, donor heavy atom, donor atom, acceptor molecule, acceptor atom, score
      P1  H  7997  8009       L1    21  1.00
      P1  H 10752 10765       L1    15  1.00

> <Gold.PLP.Chemscore.Internal.Correction>
0.6033

> <Gold.Rescore>
     Score         DG    S(hbond)    S(metal)    S(lipo)     H(rot)  DE(clash)    DE(int)     intcor
     12.19     -14.67       1.61        0.00      92.53       2.74       0.23       2.26       ----

> <Gold.Chemscore.Fitness>
12.1861

> <Gold.Chemscore.DG>
-14.6738

> <Gold.Chemscore.ZeroCoef>
-5.4800

> <Gold.Chemscore.Hbond>
1.6126

> <Gold.Chemscore.Metal>
0.0000

> <Gold.Chemscore.Lipo>
92.5307

> <Gold.Chemscore.Internal_Hbond>
0.0000

> <Gold.Chemscore.DEClash>
0.2275

> <Gold.Chemscore.DEInternal>
2.2603

> <Gold.Chemscore.Rot>
2.7415

> <Gold.Chemscore.Internal.Correction>
   9.000000E+99

> <Gold.Chemscore.Hbonds>
donor molecule, donor type, donor heavy atom, donor atom, acceptor molecule, acceptor atom, score
      P1  H  7997  8009       L1    21  0.70
      P1  H 10752 10765       L1    15  0.51

> <Gold.Chemscore.Hbond.Weighted>
-5.3859

> <Gold.Chemscore.Metal.Weighted>
-0.0000

> <Gold.Chemscore.Lipo.Weighted>
-10.8261

> <Gold.Chemscore.Internal_Hbond.Weighted>
0.0000

> <Gold.Chemscore.DEClash.Weighted>
0.2275

> <Gold.Chemscore.DEInternal.Weighted>
2.2603

> <Gold.Chemscore.Rot.Weighted>
7.0182

> <Gold.Chemscore.Internal.Correction.Weighted>
   9.000000E+99

> <Gold.Protein.RotatedTorsions>
[ 6907 6896 6895 6894 ] final -127.46 input  -60.11 | X-H torsion
[ 7974 7965 7964 7962 ] final -133.14 input  175.53 | X-H torsion
[ 8008 7997 7996 7995 ] final  146.46 input   59.86 | X-H torsion
[ 10167 10162 10161 10158 ] final -139.98 input  -65.29 | X-H torsion
[ 10718 10713 10712 10709 ] final  177.17 input   66.30 | X-H torsion
[ 10763 10752 10751 10750 ] final  164.33 input  -60.55 | X-H torsion
[ 11005 11000 10999 10996 ] final  -35.19 input  -57.11 | X-H torsion

> <Gold.Protein.ActiveResidues>
 VAL166  LYS551  ARG553  GLY616  TRP617  ASP618  TYR619  PRO620  LYS621  CYS622 
 ASP623  PHE694  ASN695  SER759  ASP760  ASP761  ALA762  ILE779  LEU786  VAL792 
 PHE793  MET794  SER795  GLU796  ALA797  LYS798  CYS799  TRP800  GLU811  SER814 

> <Gold.Protein.RotatedAtoms>
  150.9076  133.7039  159.2862 H   0  0  0  0  0  0  0  0  0  0  0  0  # atno 6907 bound_to 6896
  151.4536  135.1031  159.9714 H   0  0  0  0  0  0  0  0  0  0  0  0  # atno 6908 bound_to 6896
  152.4912  133.8455  159.7230 H   0  0  0  0  0  0  0  0  0  0  0  0  # atno 6909 bound_to 6896
  144.9220  140.7026  143.4959 H   0  0  0  0  0  0  0  0  0  0  0  0  # atno 7974 bound_to 7965
  156.2854  140.2181  156.5381 H   0  0  0  0  0  0  0  0  0  0  0  0  # atno 8008 bound_to 7997
  154.7393  140.0489  157.0818 H   0  0  0  0  0  0  0  0  0  0  0  0  # atno 8009 bound_to 7997
  155.0252  140.3128  155.4782 H   0  0  0  0  0  0  0  0  0  0  0  0  # atno 8010 bound_to 7997
  139.8326  143.7427  152.2665 H   0  0  0  0  0  0  0  0  0  0  0  0  # atno 10167 bound_to 10162
  156.9093  130.9904  151.3023 H   0  0  0  0  0  0  0  0  0  0  0  0  # atno 10718 bound_to 10713
  154.3073  135.2758  155.2583 H   0  0  0  0  0  0  0  0  0  0  0  0  # atno 10763 bound_to 10752
  154.4993  135.5812  153.6522 H   0  0  0  0  0  0  0  0  0  0  0  0  # atno 10764 bound_to 10752
  152.9892  135.6154  154.3247 H   0  0  0  0  0  0  0  0  0  0  0  0  # atno 10765 bound_to 10752
  140.9776  133.7074  156.1629 H   0  0  0  0  0  0  0  0  0  0  0  0  # atno 11005 bound_to 11000
  145.3280  139.1768  143.4552 LP  0  0  0  0  0  0  0  0  0  0  0  0  # atno 17320 bound_to 7965
  146.3209  140.3306  142.8640 LP  0  0  0  0  0  0  0  0  0  0  0  0  # atno 17321 bound_to 7965
  139.7639  144.7498  151.0323 LP  0  0  0  0  0  0  0  0  0  0  0  0  # atno 17342 bound_to 10162
  140.7805  143.4720  151.0133 LP  0  0  0  0  0  0  0  0  0  0  0  0  # atno 17343 bound_to 10162
  157.5977  130.8490  149.8755 LP  0  0  0  0  0  0  0  0  0  0  0  0  # atno 17370 bound_to 10713
  156.0544  130.3711  150.1126 LP  0  0  0  0  0  0  0  0  0  0  0  0  # atno 17371 bound_to 10713
  140.7235  134.4333  157.5573 LP  0  0  0  0  0  0  0  0  0  0  0  0  # atno 17394 bound_to 11000
  139.8937  134.8724  156.2212 LP  0  0  0  0  0  0  0  0  0  0  0  0  # atno 17395 bound_to 11000

$$$$
