AV-unprocessed.smi:3262|AV-procd|sdf|12484|dock10
  -GOLD-   2272018383D 1   1.00000     0.00000
 Structure written by MMmdl.
 39 40  0  0  0  0  0  0  0  0  1 V2000
  150.7138  140.5150  155.0394 O   0  0  0  0  0  0  0  0  0  0  0  0
  149.8558  141.3509  155.3297 C   0  0  0  0  0  0  0  0  0  0  0  0
  150.0858  142.3134  156.2384 N   0  0  0  0  0  0  0  0  0  0  0  0
  151.3268  142.4709  156.9845 C   0  0  0  0  0  0  0  0  0  0  0  0
  151.2135  143.6318  157.9822 C   0  0  0  0  0  0  0  0  0  0  0  0
  151.7823  143.2784  159.3434 C   0  0  0  0  0  0  0  0  0  0  0  0
  152.4783  142.0667  159.5409 C   0  0  0  0  0  0  0  0  0  0  0  0
  152.9926  141.7896  160.8225 C   0  0  0  0  0  0  0  0  0  0  0  0
  152.7931  142.7302  161.8513 C   0  0  0  0  0  0  0  0  0  0  0  0
  152.0861  143.9116  161.5513 C   0  0  0  0  0  0  0  0  0  0  0  0
  151.5889  144.1870  160.3262 N   0  0  0  0  0  0  0  0  0  0  0  0
  148.6378  141.4083  154.7269 N   0  0  0  0  0  0  0  0  0  0  0  0
  147.4787  142.1606  155.2547 C   0  0  0  0  0  0  0  0  0  0  0  0
  146.1134  141.4625  155.0744 C   0  0  0  0  0  0  0  0  0  0  0  0
  146.1131  139.9533  155.3810 C   0  0  0  0  0  0  0  0  0  0  0  0
  146.5090  139.0923  154.1691 C   0  0  0  0  0  0  0  0  0  0  0  0
  147.9768  139.2283  153.7326 C   0  0  0  0  0  0  0  0  0  0  0  0
  148.4130  140.6809  153.4683 C   0  0  0  0  0  0  0  0  0  0  0  0
  149.3517  142.9825  156.4187 H   0  0  0  0  0  0  0  0  0  0  0  0
  151.5546  141.5450  157.5154 H   0  0  0  0  0  0  0  0  0  0  0  0
  152.1442  142.6524  156.2848 H   0  0  0  0  0  0  0  0  0  0  0  0
  151.7372  144.5081  157.5973 H   0  0  0  0  0  0  0  0  0  0  0  0
  150.1688  143.9249  158.0962 H   0  0  0  0  0  0  0  0  0  0  0  0
  152.6179  141.3663  158.7305 H   0  0  0  0  0  0  0  0  0  0  0  0
  153.5307  140.8728  161.0126 H   0  0  0  0  0  0  0  0  0  0  0  0
  153.1734  142.5511  162.8461 H   0  0  0  0  0  0  0  0  0  0  0  0
  151.9155  144.6554  162.3156 H   0  0  0  0  0  0  0  0  0  0  0  0
  147.5787  142.3380  156.3259 H   0  0  0  0  0  0  0  0  0  0  0  0
  147.4553  143.1456  154.7871 H   0  0  0  0  0  0  0  0  0  0  0  0
  145.3995  141.9545  155.7359 H   0  0  0  0  0  0  0  0  0  0  0  0
  145.7294  141.6346  154.0684 H   0  0  0  0  0  0  0  0  0  0  0  0
  146.7484  139.7324  156.2397 H   0  0  0  0  0  0  0  0  0  0  0  0
  145.1030  139.6664  155.6750 H   0  0  0  0  0  0  0  0  0  0  0  0
  146.3130  138.0450  154.4008 H   0  0  0  0  0  0  0  0  0  0  0  0
  145.8586  139.3352  153.3279 H   0  0  0  0  0  0  0  0  0  0  0  0
  148.6287  138.7690  154.4768 H   0  0  0  0  0  0  0  0  0  0  0  0
  148.1163  138.6478  152.8202 H   0  0  0  0  0  0  0  0  0  0  0  0
  147.6802  141.1966  152.8470 H   0  0  0  0  0  0  0  0  0  0  0  0
  149.3249  140.6799  152.8684 H   0  0  0  0  0  0  0  0  0  0  0  0
  1  2  2  0  0  0  0
  2  3  1  0  0  0  0
  2 12  1  0  0  0  0
  3  4  1  0  0  0  0
  3 19  1  0  0  0  0
  4  5  1  0  0  0  0
  4 20  1  0  0  0  0
  4 21  1  0  0  0  0
  5  6  1  0  0  0  0
  5 22  1  0  0  0  0
  5 23  1  0  0  0  0
  6 11  1  0  0  0  0
  6  7  2  0  0  0  0
  7  8  1  0  0  0  0
  7 24  1  0  0  0  0
  8  9  2  0  0  0  0
  8 25  1  0  0  0  0
  9 10  1  0  0  0  0
  9 26  1  0  0  0  0
 10 11  2  0  0  0  0
 10 27  1  0  0  0  0
 12 18  1  0  0  0  0
 12 13  1  0  0  0  0
 13 14  1  0  0  0  0
 13 28  1  0  0  0  0
 13 29  1  0  0  0  0
 14 15  1  0  0  0  0
 14 30  1  0  0  0  0
 14 31  1  0  0  0  0
 15 16  1  0  0  0  0
 15 32  1  0  0  0  0
 15 33  1  0  0  0  0
 16 17  1  0  0  0  0
 16 34  1  0  0  0  0
 16 35  1  0  0  0  0
 17 18  1  0  0  0  0
 17 36  1  0  0  0  0
 17 37  1  0  0  0  0
 18 38  1  0  0  0  0
 18 39  1  0  0  0  0
M  END
> <s_m_source_file>
AV-unprocessed.smi

> <i_m_source_file_index>
3262

> <i_lp_mmshare_version>
43012

> <i_f3d_flags>
0

> <s_epik_input>
W0NIMl0xW0NIMl1bQ0gyXVtDSDJdW0NIMl1bQ0gyXU4xQyg9TylbTkhdW0NIMl1bQ0gyXWMyW2NIXVtjSF1bY0hdW2NIXW4y

> <s_epik_cmdline>
J2VwaWtfcHl0aG9uJywgJy1waCcsICc3LjAnLCAnLXRuJywgJzgnLCAnLW1hJywgJzIwMCcsICctbWV0YWxfYmluZGluZycsICctaW1hZScsICc8aW5maWxlLm1hZT4nLCAnLW9tYWUnLCAnPG91dGZpbGUubWFlPic=

> <r_epik_Ionization_Penalty>
0.0449498

> <r_epik_Ionization_Penalty_Charging>
0

> <r_epik_Ionization_Penalty_Neutral>
0.0449498

> <r_epik_State_Penalty>
0.0380669

> <r_epik_Charging_Adjusted_Penalty>
0.0380669

> <i_epik_Tot_Q>
0

> <i_epik_Tot_abs_Q>
0

> <r_epik_Metal_State_Penalty>
0.0353734

> <b_epik_Metal_Only>
0

> <s_lp_Force_Field>
OPLS_2005

> <r_lp_Energy>
31.2799

> <b_lp_Chiralities_Consistent>
1

> <s_lp_Variant>
AV-unprocessed.smi:3262-1

> <Gold.Version>
5.8.1

> <Gold.Id.Protein>
6NUR|6NUR_protein|mol2

> <Gold.PLP.Fitness>
42.1497

> <Gold.PLP.PLP>
-37.9243

> <Gold.PLP.part.hbond>
-2.0000

> <Gold.PLP.part.metal>
0.0000

> <Gold.PLP.part.buried>
0.2893

> <Gold.PLP.part.nonpolar>
-35.5936

> <Gold.PLP.part.repulsive>
0.2467

> <Gold.PLP.ligand.clash>
0.0000

> <Gold.PLP.ligand.torsion>
0.4969

> <Gold.PLP.Chemscore.Hbond>
1.7360

> <Gold.PLP.Chemscore.CHOScore>
0.0000

> <Gold.PLP.Chemscore.Metal>
0.0000

> <Gold.Chemscore.Hbonds>
donor molecule, donor type, donor heavy atom, donor atom, acceptor molecule, acceptor atom, score
      L1  H     3    19       P1  8028  0.69
      P1  H  7989  7998       L1     1  1.00

> <Gold.PLP.Chemscore.Internal.Correction>
0.0111

> <Gold.Rescore>
     Score         DG    S(hbond)    S(metal)    S(lipo)     H(rot)  DE(clash)    DE(int)     intcor
     17.39     -19.36       1.54        0.00     102.42       1.27       1.49       0.49       ----

> <Gold.Chemscore.Fitness>
17.3851

> <Gold.Chemscore.DG>
-19.3585

> <Gold.Chemscore.ZeroCoef>
-5.4800

> <Gold.Chemscore.Hbond>
1.5438

> <Gold.Chemscore.Metal>
0.0000

> <Gold.Chemscore.Lipo>
102.4222

> <Gold.Chemscore.Internal_Hbond>
0.0000

> <Gold.Chemscore.DEClash>
1.4866

> <Gold.Chemscore.DEInternal>
0.4868

> <Gold.Chemscore.Rot>
1.2738

> <Gold.Chemscore.Internal.Correction>
   9.000000E+99

> <Gold.Chemscore.Hbonds>
donor molecule, donor type, donor heavy atom, donor atom, acceptor molecule, acceptor atom, score
      L1  H     3    19       P1  8028  0.67
      P1  H  7989  7998       L1     1  0.84

> <Gold.Chemscore.Hbond.Weighted>
-5.1561

> <Gold.Chemscore.Metal.Weighted>
-0.0000

> <Gold.Chemscore.Lipo.Weighted>
-11.9834

> <Gold.Chemscore.Internal_Hbond.Weighted>
0.0000

> <Gold.Chemscore.DEClash.Weighted>
1.4866

> <Gold.Chemscore.DEInternal.Weighted>
0.4868

> <Gold.Chemscore.Rot.Weighted>
3.2610

> <Gold.Chemscore.Internal.Correction.Weighted>
   9.000000E+99

> <Gold.Protein.RotatedTorsions>
[ 6907 6896 6895 6894 ] final -155.15 input  -60.11 | X-H torsion
[ 7974 7965 7964 7962 ] final  -96.15 input  175.53 | X-H torsion
[ 8008 7997 7996 7995 ] final  170.40 input   59.86 | X-H torsion
[ 10167 10162 10161 10158 ] final   93.28 input  -65.29 | X-H torsion
[ 10718 10713 10712 10709 ] final  153.60 input   66.30 | X-H torsion
[ 10763 10752 10751 10750 ] final -112.81 input  -60.55 | X-H torsion
[ 11005 11000 10999 10996 ] final   86.95 input  -57.11 | X-H torsion

> <Gold.Protein.ActiveResidues>
 VAL166  LYS551  ARG553  GLY616  TRP617  ASP618  TYR619  PRO620  LYS621  CYS622 
 ASP623  PHE694  ASN695  SER759  ASP760  ASP761  ALA762  ILE779  LEU786  VAL792 
 PHE793  MET794  SER795  GLU796  ALA797  LYS798  CYS799  TRP800  GLU811  SER814 

> <Gold.Protein.RotatedAtoms>
  151.2682  133.4268  159.2619 H   0  0  0  0  0  0  0  0  0  0  0  0  # atno 6907 bound_to 6896
  151.0469  134.9646  159.8201 H   0  0  0  0  0  0  0  0  0  0  0  0  # atno 6908 bound_to 6896
  152.5375  134.2638  159.8998 H   0  0  0  0  0  0  0  0  0  0  0  0  # atno 6909 bound_to 6896
  145.3507  140.9476  143.2556 H   0  0  0  0  0  0  0  0  0  0  0  0  # atno 7974 bound_to 7965
  156.1369  140.1539  156.8981 H   0  0  0  0  0  0  0  0  0  0  0  0  # atno 8008 bound_to 7997
  154.4955  140.0839  156.7725 H   0  0  0  0  0  0  0  0  0  0  0  0  # atno 8009 bound_to 7997
  155.4152  140.3420  155.4269 H   0  0  0  0  0  0  0  0  0  0  0  0  # atno 8010 bound_to 7997
  139.8195  144.6737  150.9536 H   0  0  0  0  0  0  0  0  0  0  0  0  # atno 10167 bound_to 10162
  157.2426  131.0762  151.1782 H   0  0  0  0  0  0  0  0  0  0  0  0  # atno 10718 bound_to 10713
  154.8367  135.4477  154.1252 H   0  0  0  0  0  0  0  0  0  0  0  0  # atno 10763 bound_to 10752
  153.2477  135.6923  153.7719 H   0  0  0  0  0  0  0  0  0  0  0  0  # atno 10764 bound_to 10752
  153.7043  135.3367  155.3207 H   0  0  0  0  0  0  0  0  0  0  0  0  # atno 10765 bound_to 10752
  139.8931  134.8390  156.2792 H   0  0  0  0  0  0  0  0  0  0  0  0  # atno 11005 bound_to 11000
  144.8720  139.5024  143.6763 LP  0  0  0  0  0  0  0  0  0  0  0  0  # atno 17320 bound_to 7965
  146.2969  139.7306  142.9120 LP  0  0  0  0  0  0  0  0  0  0  0  0  # atno 17321 bound_to 7965
  140.7814  143.4105  151.1000 LP  0  0  0  0  0  0  0  0  0  0  0  0  # atno 17342 bound_to 10162
  139.7766  143.8416  152.3130 LP  0  0  0  0  0  0  0  0  0  0  0  0  # atno 17343 bound_to 10162
  157.3362  130.7010  149.6354 LP  0  0  0  0  0  0  0  0  0  0  0  0  # atno 17370 bound_to 10713
  155.9669  130.4293  150.4826 LP  0  0  0  0  0  0  0  0  0  0  0  0  # atno 17371 bound_to 10713
  141.0050  133.7129  156.1020 LP  0  0  0  0  0  0  0  0  0  0  0  0  # atno 17394 bound_to 11000
  140.7446  134.4112  157.5550 LP  0  0  0  0  0  0  0  0  0  0  0  0  # atno 17395 bound_to 11000

$$$$
