AV-unprocessed.smi:2093|AV-procd|sdf|8545|dock6
  -GOLD-   2272011263D 1   1.00000     0.00000
 Structure written by MMmdl.
 31 32  0  0  0  0  0  0  0  0  1 V2000
  151.5648  144.7087  158.4996 C   0  0  0  0  0  0  0  0  0  0  0  0
  151.3307  143.1919  158.4493 C   0  0  1  0  0  0  0  0  0  0  0  0
  150.9460  142.8196  157.0885 N   0  0  0  0  0  0  0  0  0  0  0  0
  149.9521  141.9837  156.7527 C   0  0  0  0  0  0  0  0  0  0  0  0
  149.2307  141.4162  157.5734 O   0  0  0  0  0  0  0  0  0  0  0  0
  149.8629  141.8500  155.4179 N   0  0  0  0  0  0  0  0  0  0  0  0
  148.9470  141.0611  154.6735 C   0  0  0  0  0  0  0  0  0  0  0  0
  149.1500  139.7811  154.3400 N   0  0  0  0  0  0  0  0  0  0  0  0
  148.0819  139.2536  153.6099 C   0  0  0  0  0  0  0  0  0  0  0  0
  147.0671  140.1526  153.3948 C   0  0  0  0  0  0  0  0  0  0  0  0
  147.4141  141.7062  154.1055 S   0  0  0  0  0  0  0  0  0  0  0  0
  152.5801  142.4017  158.8899 C   0  0  2  0  0  0  0  0  0  0  0  0
  152.3602  140.8991  159.0810 C   0  0  0  0  0  0  0  0  0  0  0  0
  153.4742  140.5464  160.0387 C   0  0  0  0  0  0  0  0  0  0  0  0
  153.4886  141.7653  160.9552 C   0  0  0  0  0  0  0  0  0  0  0  0
  153.0435  142.8606  160.1587 O   0  0  0  0  0  0  0  0  0  0  0  0
  151.8117  145.0360  159.5099 H   0  0  0  0  0  0  0  0  0  0  0  0
  150.6727  145.2536  158.1893 H   0  0  0  0  0  0  0  0  0  0  0  0
  152.3836  145.0076  157.8440 H   0  0  0  0  0  0  0  0  0  0  0  0
  150.5183  142.9628  159.1413 H   0  0  0  0  0  0  0  0  0  0  0  0
  151.4859  143.2323  156.3420 H   0  0  0  0  0  0  0  0  0  0  0  0
  150.5297  142.3724  154.8694 H   0  0  0  0  0  0  0  0  0  0  0  0
  148.1270  138.2255  153.2822 H   0  0  0  0  0  0  0  0  0  0  0  0
  146.1400  139.9952  152.8639 H   0  0  0  0  0  0  0  0  0  0  0  0
  153.3887  142.5495  158.1719 H   0  0  0  0  0  0  0  0  0  0  0  0
  151.3932  140.7074  159.5487 H   0  0  0  0  0  0  0  0  0  0  0  0
  152.4061  140.3382  158.1471 H   0  0  0  0  0  0  0  0  0  0  0  0
  153.3036  139.6119  160.5736 H   0  0  0  0  0  0  0  0  0  0  0  0
  154.4197  140.4671  159.5005 H   0  0  0  0  0  0  0  0  0  0  0  0
  152.7863  141.6306  161.7788 H   0  0  0  0  0  0  0  0  0  0  0  0
  154.4751  141.9547  161.3787 H   0  0  0  0  0  0  0  0  0  0  0  0
  1  2  1  0  0  0  0
  1 17  1  0  0  0  0
  1 18  1  0  0  0  0
  1 19  1  0  0  0  0
  2  3  1  0  0  0  0
  2 12  1  0  0  0  0
  2 20  1  0  0  0  0
  3  4  1  0  0  0  0
  3 21  1  0  0  0  0
  4  5  2  0  0  0  0
  4  6  1  0  0  0  0
  6  7  1  0  0  0  0
  6 22  1  0  0  0  0
  7 11  1  0  0  0  0
  7  8  2  0  0  0  0
  8  9  1  0  0  0  0
  9 10  2  0  0  0  0
  9 23  1  0  0  0  0
 10 11  1  0  0  0  0
 10 24  1  0  0  0  0
 12 16  1  0  0  0  0
 12 13  1  0  0  0  0
 12 25  1  0  0  0  0
 13 14  1  0  0  0  0
 13 26  1  0  0  0  0
 13 27  1  0  0  0  0
 14 15  1  0  0  0  0
 14 28  1  0  0  0  0
 14 29  1  0  0  0  0
 15 16  1  0  0  0  0
 15 30  1  0  0  0  0
 15 31  1  0  0  0  0
M  END
> <s_m_source_file>
AV-unprocessed.smi

> <i_m_source_file_index>
2093

> <i_lp_mmshare_version>
43012

> <i_f3d_flags>
0

> <s_epik_input>
TzFbQ0gyXVtDSDJdW0NIMl1bQ0BIXTFbQ0BIXShbQ0gzXSlbTkhdQyg9TylbTkhdYzJuW2NIXVtjSF1zMg==

> <s_epik_cmdline>
J2VwaWtfcHl0aG9uJywgJy1waCcsICc3LjAnLCAnLXRuJywgJzgnLCAnLW1hJywgJzIwMCcsICctbWV0YWxfYmluZGluZycsICctaW1hZScsICc8aW5maWxlLm1hZT4nLCAnLW9tYWUnLCAnPG91dGZpbGUubWFlPic=

> <r_lp_tautomer_probability>
0.999

> <r_epik_Ionization_Penalty>
0.000334433

> <r_epik_Ionization_Penalty_Charging>
0

> <r_epik_Ionization_Penalty_Neutral>
0.000334433

> <r_epik_State_Penalty>
0.000177984

> <r_epik_Charging_Adjusted_Penalty>
0.000177984

> <i_epik_Tot_Q>
0

> <i_epik_Tot_abs_Q>
0

> <r_epik_Metal_State_Penalty>
0.00767616

> <b_epik_Metal_Only>
0

> <s_lp_Force_Field>
OPLS_2005

> <r_lp_Energy>
15.8348

> <b_lp_Chiralities_Consistent>
1

> <s_lp_Variant>
AV-unprocessed.smi:2093-2

> <Gold.Version>
5.8.1

> <Gold.Id.Protein>
6NUR|6NUR_protein|mol2

> <Gold.PLP.Fitness>
35.7852

> <Gold.PLP.PLP>
-32.4079

> <Gold.PLP.part.hbond>
-1.7160

> <Gold.PLP.part.metal>
0.0000

> <Gold.PLP.part.buried>
-3.0763

> <Gold.PLP.part.nonpolar>
-28.4387

> <Gold.PLP.part.repulsive>
0.4071

> <Gold.PLP.ligand.clash>
0.0000

> <Gold.PLP.ligand.torsion>
1.0409

> <Gold.PLP.Chemscore.Hbond>
0.0000

> <Gold.PLP.Chemscore.CHOScore>
1.8171

> <Gold.PLP.Chemscore.Metal>
0.0000

> <Gold.Chemscore.Hbonds>
donor molecule, donor type, donor heavy atom, donor atom, acceptor molecule, acceptor atom, score
      L1  C     9    23       P1  7948  0.90
      L1  C    10    24       P1 10175  1.00

> <Gold.PLP.Chemscore.Internal.Correction>
0.0079

> <Gold.Rescore>
     Score         DG    S(hbond)    S(metal)    S(lipo)     H(rot)  DE(clash)    DE(int)     intcor
     10.92     -11.89       0.00        0.00      83.13       1.29       0.07       0.91       ----

> <Gold.Chemscore.Fitness>
10.9175

> <Gold.Chemscore.DG>
-11.8945

> <Gold.Chemscore.ZeroCoef>
-5.4800

> <Gold.Chemscore.Hbond>
0.0000

> <Gold.Chemscore.Metal>
0.0000

> <Gold.Chemscore.Lipo>
83.1341

> <Gold.Chemscore.Internal_Hbond>
0.0000

> <Gold.Chemscore.DEClash>
0.0684

> <Gold.Chemscore.DEInternal>
0.9086

> <Gold.Chemscore.Rot>
1.2938

> <Gold.Chemscore.Internal.Correction>
   9.000000E+99

> <Gold.Chemscore.Hbond.Weighted>
-0.0000

> <Gold.Chemscore.Metal.Weighted>
-0.0000

> <Gold.Chemscore.Lipo.Weighted>
-9.7267

> <Gold.Chemscore.Internal_Hbond.Weighted>
0.0000

> <Gold.Chemscore.DEClash.Weighted>
0.0684

> <Gold.Chemscore.DEInternal.Weighted>
0.9086

> <Gold.Chemscore.Rot.Weighted>
3.3122

> <Gold.Chemscore.Internal.Correction.Weighted>
   9.000000E+99

> <Gold.Protein.RotatedTorsions>
[ 6907 6896 6895 6894 ] final  141.50 input  -60.11 | X-H torsion
[ 7974 7965 7964 7962 ] final  -84.53 input  175.53 | X-H torsion
[ 8008 7997 7996 7995 ] final -171.62 input   59.86 | X-H torsion
[ 10167 10162 10161 10158 ] final  144.32 input  -65.29 | X-H torsion
[ 10718 10713 10712 10709 ] final -129.25 input   66.30 | X-H torsion
[ 10763 10752 10751 10750 ] final   51.49 input  -60.55 | X-H torsion
[ 11005 11000 10999 10996 ] final  179.76 input  -57.11 | X-H torsion

> <Gold.Protein.ActiveResidues>
 VAL166  LYS551  ARG553  GLY616  TRP617  ASP618  TYR619  PRO620  LYS621  CYS622 
 ASP623  PHE694  ASN695  SER759  ASP760  ASP761  ALA762  ILE779  LEU786  VAL792 
 PHE793  MET794  SER795  GLU796  ALA797  LYS798  CYS799  TRP800  GLU811  SER814 

> <Gold.Protein.RotatedAtoms>
  152.2302  133.5052  159.5211 H   0  0  0  0  0  0  0  0  0  0  0  0  # atno 6907 bound_to 6896
  150.7035  134.1226  159.4049 H   0  0  0  0  0  0  0  0  0  0  0  0  # atno 6908 bound_to 6896
  151.9147  135.0324  160.0568 H   0  0  0  0  0  0  0  0  0  0  0  0  # atno 6909 bound_to 6896
  145.5054  140.9544  143.1736 H   0  0  0  0  0  0  0  0  0  0  0  0  # atno 7974 bound_to 7965
  155.9339  140.1096  157.1110 H   0  0  0  0  0  0  0  0  0  0  0  0  # atno 8008 bound_to 7997
  154.4076  140.1232  156.4905 H   0  0  0  0  0  0  0  0  0  0  0  0  # atno 8009 bound_to 7997
  155.7045  140.3471  155.4949 H   0  0  0  0  0  0  0  0  0  0  0  0  # atno 8010 bound_to 7997
  139.4949  144.5980  151.6541 H   0  0  0  0  0  0  0  0  0  0  0  0  # atno 10167 bound_to 10162
  156.2029  130.6869  151.0560 H   0  0  0  0  0  0  0  0  0  0  0  0  # atno 10718 bound_to 10713
  152.9785  135.5844  154.4424 H   0  0  0  0  0  0  0  0  0  0  0  0  # atno 10763 bound_to 10752
  154.4023  135.2769  155.2090 H   0  0  0  0  0  0  0  0  0  0  0  0  # atno 10764 bound_to 10752
  154.3916  135.6124  153.5900 H   0  0  0  0  0  0  0  0  0  0  0  0  # atno 10765 bound_to 10752
  140.4097  134.6702  157.4607 H   0  0  0  0  0  0  0  0  0  0  0  0  # atno 11005 bound_to 11000
  144.7756  139.6637  143.7176 LP  0  0  0  0  0  0  0  0  0  0  0  0  # atno 17320 bound_to 7965
  146.2200  139.5618  142.9625 LP  0  0  0  0  0  0  0  0  0  0  0  0  # atno 17321 bound_to 7965
  140.5623  144.0248  150.6175 LP  0  0  0  0  0  0  0  0  0  0  0  0  # atno 17342 bound_to 10162
  140.3338  143.3061  152.0659 LP  0  0  0  0  0  0  0  0  0  0  0  0  # atno 17343 bound_to 10162
  157.6996  131.0781  150.6863 LP  0  0  0  0  0  0  0  0  0  0  0  0  # atno 17370 bound_to 10713
  156.6920  130.4598  149.5597 LP  0  0  0  0  0  0  0  0  0  0  0  0  # atno 17371 bound_to 10713
  140.0276  134.6454  155.9151 LP  0  0  0  0  0  0  0  0  0  0  0  0  # atno 17394 bound_to 11000
  141.1825  133.6549  156.5081 LP  0  0  0  0  0  0  0  0  0  0  0  0  # atno 17395 bound_to 11000

$$$$
