AV-unprocessed.smi:2514|AV-procd|sdf|9896|dock10
  -GOLD-   2272013533D 1   1.00000     0.00000
 Structure written by MMmdl.
 24 25  0  0  0  0  0  0  0  0  1 V2000
  152.1846  142.8784  158.8425 C   0  0  0  0  0  0  0  0  0  0  0  0
  151.1317  142.9551  157.7297 C   0  0  1  0  0  0  0  0  0  0  0  0
  151.3616  144.1017  156.9359 O   0  0  0  0  0  0  0  0  0  0  0  0
  151.1728  141.7660  156.8113 C   0  0  0  0  0  0  0  0  0  0  0  0
  151.8784  140.6046  156.9520 C   0  0  0  0  0  0  0  0  0  0  0  0
  151.5437  139.8860  155.8239 N   0  0  0  0  0  0  0  0  0  0  0  0
  152.0104  138.5803  155.4557 C   0  0  0  0  0  0  0  0  0  0  0  0
  152.9805  138.3591  154.2902 C   0  0  0  0  0  0  0  0  0  0  0  0
  152.2617  137.1224  154.0346 N   0  0  0  0  0  0  0  0  0  0  0  0
  151.0799  137.6130  154.7235 C   0  0  0  0  0  0  0  0  0  0  0  0
  150.6863  140.5723  155.0315 N   0  0  0  0  0  0  0  0  0  0  0  0
  150.4527  141.7053  155.6153 N   0  0  0  0  0  0  0  0  0  0  0  0
  152.0310  141.9959  159.4642 H   0  0  0  0  0  0  0  0  0  0  0  0
  152.1341  143.7526  159.4918 H   0  0  0  0  0  0  0  0  0  0  0  0
  153.1941  142.8258  158.4331 H   0  0  0  0  0  0  0  0  0  0  0  0
  150.1419  143.0492  158.1777 H   0  0  0  0  0  0  0  0  0  0  0  0
  150.5388  144.3744  156.5595 H   0  0  0  0  0  0  0  0  0  0  0  0
  152.5537  140.2453  157.7147 H   0  0  0  0  0  0  0  0  0  0  0  0
  152.3994  138.1284  156.3710 H   0  0  0  0  0  0  0  0  0  0  0  0
  152.8773  139.0643  153.4642 H   0  0  0  0  0  0  0  0  0  0  0  0
  154.0185  138.2151  154.5910 H   0  0  0  0  0  0  0  0  0  0  0  0
  152.0970  136.9696  153.0496 H   0  0  0  0  0  0  0  0  0  0  0  0
  150.6028  136.8749  155.3688 H   0  0  0  0  0  0  0  0  0  0  0  0
  150.3762  138.0929  154.0415 H   0  0  0  0  0  0  0  0  0  0  0  0
  1  2  1  0  0  0  0
  1 13  1  0  0  0  0
  1 14  1  0  0  0  0
  1 15  1  0  0  0  0
  2  3  1  0  0  0  0
  2  4  1  0  0  0  0
  2 16  1  0  0  0  0
  3 17  1  0  0  0  0
  4 12  1  0  0  0  0
  4  5  2  0  0  0  0
  5  6  1  0  0  0  0
  5 18  1  0  0  0  0
  6  7  1  0  0  0  0
  6 11  1  0  0  0  0
  7 10  1  0  0  0  0
  7  8  1  0  0  0  0
  7 19  1  0  0  0  0
  8  9  1  0  0  0  0
  8 20  1  0  0  0  0
  8 21  1  0  0  0  0
  9 10  1  0  0  0  0
  9 22  1  0  0  0  0
 10 23  1  0  0  0  0
 10 24  1  0  0  0  0
 11 12  2  0  0  0  0
M  END
> <s_m_source_file>
AV-unprocessed.smi

> <i_m_source_file_index>
2514

> <i_lp_mmshare_version>
43012

> <i_f3d_flags>
0

> <s_epik_input>
W0NIM11bQ0BIXShbT0hdKWMxW2NIXW4obm4xKVtDSF0yW0NIMl1bTkhdW0NIMl0y

> <s_epik_cmdline>
J2VwaWtfcHl0aG9uJywgJy1waCcsICc3LjAnLCAnLXRuJywgJzgnLCAnLW1hJywgJzIwMCcsICctbWV0YWxfYmluZGluZycsICctaW1hZScsICc8aW5maWxlLm1hZT4nLCAnLW9tYWUnLCAnPG91dGZpbGUubWFlPic=

> <r_lp_tautomer_probability>
1

> <r_epik_Ionization_Penalty>
0.704859

> <r_epik_Ionization_Penalty_Charging>
0

> <r_epik_Ionization_Penalty_Neutral>
0.704859

> <r_epik_State_Penalty>
0.727806

> <r_epik_Charging_Adjusted_Penalty>
0.727806

> <i_epik_Tot_Q>
0

> <i_epik_Tot_abs_Q>
0

> <r_epik_Metal_State_Penalty>
0.727738

> <b_epik_Metal_Only>
0

> <s_lp_Force_Field>
OPLS_2005

> <r_lp_Energy>
11.7069

> <b_lp_Chiralities_Consistent>
1

> <s_lp_Variant>
AV-unprocessed.smi:2514-4

> <Gold.Version>
5.8.1

> <Gold.Id.Protein>
6NUR|6NUR_protein|mol2

> <Gold.PLP.Fitness>
35.4621

> <Gold.PLP.PLP>
-25.1967

> <Gold.PLP.part.hbond>
-4.1677

> <Gold.PLP.part.metal>
0.0000

> <Gold.PLP.part.buried>
-4.9145

> <Gold.PLP.part.nonpolar>
-15.9863

> <Gold.PLP.part.repulsive>
0.1619

> <Gold.PLP.ligand.clash>
0.0000

> <Gold.PLP.ligand.torsion>
0.6343

> <Gold.PLP.Chemscore.Hbond>
3.7760

> <Gold.PLP.Chemscore.CHOScore>
0.0000

> <Gold.PLP.Chemscore.Metal>
0.0000

> <Gold.Chemscore.Hbonds>
donor molecule, donor type, donor heavy atom, donor atom, acceptor molecule, acceptor atom, score
      L1  H     3    17       P1  8028  1.00
      L1  H     9    22       P1  7949  0.94
      P1  H  7989  7998       L1    11  0.98
      P1  H 10752 10765       L1     9  0.69

> <Gold.PLP.Chemscore.Internal.Correction>
0.2060

> <Gold.Rescore>
     Score         DG    S(hbond)    S(metal)    S(lipo)     H(rot)  DE(clash)    DE(int)     intcor
     14.89     -15.60       2.42        0.00      56.40       1.78       0.38       0.33       ----

> <Gold.Chemscore.Fitness>
14.8938

> <Gold.Chemscore.DG>
-15.5991

> <Gold.Chemscore.ZeroCoef>
-5.4800

> <Gold.Chemscore.Hbond>
2.4200

> <Gold.Chemscore.Metal>
0.0000

> <Gold.Chemscore.Lipo>
56.4006

> <Gold.Chemscore.Internal_Hbond>
0.0000

> <Gold.Chemscore.DEClash>
0.3758

> <Gold.Chemscore.DEInternal>
0.3295

> <Gold.Chemscore.Rot>
1.7823

> <Gold.Chemscore.Internal.Correction>
   9.000000E+99

> <Gold.Chemscore.Hbonds>
donor molecule, donor type, donor heavy atom, donor atom, acceptor molecule, acceptor atom, score
      L1  H     3    17       P1  8028  0.99
      L1  H     9    22       P1  7949  0.87
      P1  H  7989  7998       L1    11  0.30
      P1  H 10752 10765       L1     9  0.13

> <Gold.Chemscore.Hbond.Weighted>
-8.0829

> <Gold.Chemscore.Metal.Weighted>
-0.0000

> <Gold.Chemscore.Lipo.Weighted>
-6.5989

> <Gold.Chemscore.Internal_Hbond.Weighted>
0.0000

> <Gold.Chemscore.DEClash.Weighted>
0.3758

> <Gold.Chemscore.DEInternal.Weighted>
0.3295

> <Gold.Chemscore.Rot.Weighted>
4.5627

> <Gold.Chemscore.Internal.Correction.Weighted>
   9.000000E+99

> <Gold.Protein.RotatedTorsions>
[ 6907 6896 6895 6894 ] final  119.92 input  -60.11 | X-H torsion
[ 7974 7965 7964 7962 ] final  -98.93 input  175.53 | X-H torsion
[ 8008 7997 7996 7995 ] final  175.53 input   59.86 | X-H torsion
[ 10167 10162 10161 10158 ] final -151.43 input  -65.29 | X-H torsion
[ 10718 10713 10712 10709 ] final -146.15 input   66.30 | X-H torsion
[ 10763 10752 10751 10750 ] final  169.22 input  -60.55 | X-H torsion
[ 11005 11000 10999 10996 ] final  148.24 input  -57.11 | X-H torsion

> <Gold.Protein.ActiveResidues>
 VAL166  LYS551  ARG553  GLY616  TRP617  ASP618  TYR619  PRO620  LYS621  CYS622 
 ASP623  PHE694  ASN695  SER759  ASP760  ASP761  ALA762  ILE779  LEU786  VAL792 
 PHE793  MET794  SER795  GLU796  ALA797  LYS798  CYS799  TRP800  GLU811  SER814 

> <Gold.Protein.RotatedAtoms>
  152.4437  133.7495  159.6685 H   0  0  0  0  0  0  0  0  0  0  0  0  # atno 6907 bound_to 6896
  150.8332  133.8046  159.3096 H   0  0  0  0  0  0  0  0  0  0  0  0  # atno 6908 bound_to 6896
  151.5693  135.1065  160.0043 H   0  0  0  0  0  0  0  0  0  0  0  0  # atno 6909 bound_to 6896
  145.3142  140.9407  143.2752 H   0  0  0  0  0  0  0  0  0  0  0  0  # atno 7974 bound_to 7965
  156.0861  140.1406  156.9652 H   0  0  0  0  0  0  0  0  0  0  0  0  # atno 8008 bound_to 7997
  154.4613  140.0942  156.6949 H   0  0  0  0  0  0  0  0  0  0  0  0  # atno 8009 bound_to 7997
  155.4997  140.3450  155.4371 H   0  0  0  0  0  0  0  0  0  0  0  0  # atno 8010 bound_to 7997
  139.7268  143.8871  152.2522 H   0  0  0  0  0  0  0  0  0  0  0  0  # atno 10167 bound_to 10162
  156.3913  130.7887  151.2089 H   0  0  0  0  0  0  0  0  0  0  0  0  # atno 10718 bound_to 10713
  154.3799  135.2753  155.2217 H   0  0  0  0  0  0  0  0  0  0  0  0  # atno 10763 bound_to 10752
  154.4328  135.5973  153.6083 H   0  0  0  0  0  0  0  0  0  0  0  0  # atno 10764 bound_to 10752
  152.9835  135.6000  154.4041 H   0  0  0  0  0  0  0  0  0  0  0  0  # atno 10765 bound_to 10752
  140.0943  134.9022  157.1699 H   0  0  0  0  0  0  0  0  0  0  0  0  # atno 11005 bound_to 11000
  144.8991  139.4673  143.6641 LP  0  0  0  0  0  0  0  0  0  0  0  0  # atno 17320 bound_to 7965
  146.3106  139.7734  142.9022 LP  0  0  0  0  0  0  0  0  0  0  0  0  # atno 17321 bound_to 7965
  139.8783  144.7031  150.8908 LP  0  0  0  0  0  0  0  0  0  0  0  0  # atno 17342 bound_to 10162
  140.7764  143.3682  151.1699 LP  0  0  0  0  0  0  0  0  0  0  0  0  # atno 17343 bound_to 10162
  157.7499  131.0314  150.4183 LP  0  0  0  0  0  0  0  0  0  0  0  0  # atno 17370 bound_to 10713
  156.4445  130.3998  149.6676 LP  0  0  0  0  0  0  0  0  0  0  0  0  # atno 17371 bound_to 10713
  140.3308  134.2812  155.7228 LP  0  0  0  0  0  0  0  0  0  0  0  0  # atno 17394 bound_to 11000
  141.2087  133.7769  157.0040 LP  0  0  0  0  0  0  0  0  0  0  0  0  # atno 17395 bound_to 11000

$$$$
