AV-unprocessed.smi:1324|AV-procd|sdf|5469|dock3
  -GOLD-   22720 5 43D 1   1.00000     0.00000
 Structure written by MMmdl.
 43 44  0  0  0  0  0  0  0  0  1 V2000
  146.2106  137.7343  153.1782 C   0  0  0  0  0  0  0  0  0  0  0  0
  147.0352  138.9051  153.6691 C   0  0  0  0  0  0  0  0  0  0  0  0
  146.5301  140.0278  154.0627 N   0  0  0  0  0  0  0  0  0  0  0  0
  147.3963  141.0406  154.4977 C   0  0  0  0  0  0  0  0  0  0  0  0
  146.7273  142.3291  154.9442 C   0  0  0  0  0  0  0  0  0  0  0  0
  148.7504  140.8663  154.5138 C   0  0  0  0  0  0  0  0  0  0  0  0
  149.7220  141.9498  154.9810 C   0  0  0  0  0  0  0  0  0  0  0  0
  150.3038  141.7826  156.3877 C   0  0  0  0  0  0  0  0  0  0  0  0
  150.6518  140.6747  156.7973 O   0  0  0  0  0  0  0  0  0  0  0  0
  150.4037  142.9047  157.1170 N   0  0  0  0  0  0  0  0  0  0  0  0
  150.9437  142.9950  158.4723 C   0  0  0  0  0  0  0  0  0  0  0  0
  151.0548  144.4839  158.8761 C   0  0  0  0  0  0  0  0  0  0  0  0
  151.9290  144.8212  160.0979 C   0  0  0  0  0  0  0  0  0  0  0  0
  151.9246  143.7863  161.2333 C   0  0  0  0  0  0  0  0  0  0  0  0
  152.9496  142.6617  161.0120 C   0  0  0  0  0  0  0  0  0  0  0  0
  152.5518  141.6318  159.9455 C   0  0  0  0  0  0  0  0  0  0  0  0
  152.2692  142.2095  158.5467 C   0  0  0  0  0  0  0  0  0  0  0  0
  149.3162  139.5820  154.0580 C   0  0  0  0  0  0  0  0  0  0  0  0
  150.5181  139.3229  154.0215 O   0  0  0  0  0  0  0  0  0  0  0  0
  148.4079  138.6628  153.6610 N   0  0  0  0  0  0  0  0  0  0  0  0
  148.7453  137.7665  153.3414 H   0  0  0  0  0  0  0  0  0  0  0  0
  145.6547  138.0161  152.2837 H   0  0  0  0  0  0  0  0  0  0  0  0
  145.4966  137.4313  153.9442 H   0  0  0  0  0  0  0  0  0  0  0  0
  146.8359  136.8740  152.9359 H   0  0  0  0  0  0  0  0  0  0  0  0
  146.9137  142.5100  156.0028 H   0  0  0  0  0  0  0  0  0  0  0  0
  145.6473  142.2859  154.7979 H   0  0  0  0  0  0  0  0  0  0  0  0
  147.1060  143.1773  154.3737 H   0  0  0  0  0  0  0  0  0  0  0  0
  150.5553  141.9968  154.2799 H   0  0  0  0  0  0  0  0  0  0  0  0
  149.2505  142.9314  154.9163 H   0  0  0  0  0  0  0  0  0  0  0  0
  150.0871  143.7669  156.6977 H   0  0  0  0  0  0  0  0  0  0  0  0
  150.2331  142.5058  159.1417 H   0  0  0  0  0  0  0  0  0  0  0  0
  151.4275  145.0672  158.0326 H   0  0  0  0  0  0  0  0  0  0  0  0
  150.0468  144.8575  159.0622 H   0  0  0  0  0  0  0  0  0  0  0  0
  152.9557  144.9931  159.7723 H   0  0  0  0  0  0  0  0  0  0  0  0
  151.5934  145.7803  160.4940 H   0  0  0  0  0  0  0  0  0  0  0  0
  152.1948  144.3010  162.1560 H   0  0  0  0  0  0  0  0  0  0  0  0
  150.9240  143.3852  161.3991 H   0  0  0  0  0  0  0  0  0  0  0  0
  153.9218  143.0899  160.7648 H   0  0  0  0  0  0  0  0  0  0  0  0
  153.0934  142.1330  161.9550 H   0  0  0  0  0  0  0  0  0  0  0  0
  153.3592  140.9035  159.8621 H   0  0  0  0  0  0  0  0  0  0  0  0
  151.6848  141.0671  160.2901 H   0  0  0  0  0  0  0  0  0  0  0  0
  152.2174  141.3619  157.8613 H   0  0  0  0  0  0  0  0  0  0  0  0
  153.1040  142.8196  158.1998 H   0  0  0  0  0  0  0  0  0  0  0  0
  1  2  1  0  0  0  0
  1 22  1  0  0  0  0
  1 23  1  0  0  0  0
  1 24  1  0  0  0  0
  2 20  1  0  0  0  0
  2  3  2  0  0  0  0
  3  4  1  0  0  0  0
  4  5  1  0  0  0  0
  4  6  2  0  0  0  0
  5 25  1  0  0  0  0
  5 26  1  0  0  0  0
  5 27  1  0  0  0  0
  6  7  1  0  0  0  0
  6 18  1  0  0  0  0
  7  8  1  0  0  0  0
  7 28  1  0  0  0  0
  7 29  1  0  0  0  0
  8  9  2  0  0  0  0
  8 10  1  0  0  0  0
 10 11  1  0  0  0  0
 10 30  1  0  0  0  0
 11 17  1  0  0  0  0
 11 12  1  0  0  0  0
 11 31  1  0  0  0  0
 12 13  1  0  0  0  0
 12 32  1  0  0  0  0
 12 33  1  0  0  0  0
 13 14  1  0  0  0  0
 13 34  1  0  0  0  0
 13 35  1  0  0  0  0
 14 15  1  0  0  0  0
 14 36  1  0  0  0  0
 14 37  1  0  0  0  0
 15 16  1  0  0  0  0
 15 38  1  0  0  0  0
 15 39  1  0  0  0  0
 16 17  1  0  0  0  0
 16 40  1  0  0  0  0
 16 41  1  0  0  0  0
 17 42  1  0  0  0  0
 17 43  1  0  0  0  0
 18 19  2  0  0  0  0
 18 20  1  0  0  0  0
 20 21  1  0  0  0  0
M  END
> <s_m_source_file>
AV-unprocessed.smi

> <i_m_source_file_index>
1324

> <i_lp_mmshare_version>
43012

> <i_f3d_flags>
0

> <s_epik_input>
W0NIM11jMW5jKFtDSDNdKWMoYyg9TylbbkhdMSlbQ0gyXUMoPU8pW05IXVtDSF0yW0NIMl1bQ0gyXVtDSDJdW0NIMl1bQ0gyXVtDSDJdMg==

> <s_epik_cmdline>
J2VwaWtfcHl0aG9uJywgJy1waCcsICc3LjAnLCAnLXRuJywgJzgnLCAnLW1hJywgJzIwMCcsICctbWV0YWxfYmluZGluZycsICctaW1hZScsICc8aW5maWxlLm1hZT4nLCAnLW9tYWUnLCAnPG91dGZpbGUubWFlPic=

> <r_lp_tautomer_probability>
0.839158

> <r_epik_Ionization_Penalty>
0.000386947

> <r_epik_Ionization_Penalty_Charging>
0.000354181

> <r_epik_Ionization_Penalty_Neutral>
3.27662e-05

> <r_epik_State_Penalty>
0.0469431

> <r_epik_Charging_Adjusted_Penalty>
0.0472973

> <i_epik_Tot_Q>
0

> <i_epik_Tot_abs_Q>
0

> <r_epik_Metal_State_Penalty>
0.222645

> <b_epik_Metal_Only>
0

> <s_lp_Force_Field>
OPLS_2005

> <r_lp_Energy>
17.0371

> <b_lp_Chiralities_Consistent>
1

> <s_lp_Variant>
AV-unprocessed.smi:1324-1

> <Gold.Version>
5.8.1

> <Gold.Id.Protein>
6NUR|6NUR_protein|mol2

> <Gold.PLP.Fitness>
47.2625

> <Gold.PLP.PLP>
-40.0422

> <Gold.PLP.part.hbond>
-3.6666

> <Gold.PLP.part.metal>
0.0000

> <Gold.PLP.part.buried>
-1.5179

> <Gold.PLP.part.nonpolar>
-35.0260

> <Gold.PLP.part.repulsive>
0.3856

> <Gold.PLP.ligand.clash>
0.0000

> <Gold.PLP.ligand.torsion>
0.6195

> <Gold.PLP.Chemscore.Hbond>
2.8130

> <Gold.PLP.Chemscore.CHOScore>
0.0000

> <Gold.PLP.Chemscore.Metal>
0.0000

> <Gold.Chemscore.Hbonds>
donor molecule, donor type, donor heavy atom, donor atom, acceptor molecule, acceptor atom, score
      L1  H    10    30       P1  8028  1.00
      L1  H    20    21       P1  7948  0.76
      P1  H  7989  7998       L1    19  1.00

> <Gold.PLP.Chemscore.Internal.Correction>
0.0203

> <Gold.Rescore>
     Score         DG    S(hbond)    S(metal)    S(lipo)     H(rot)  DE(clash)    DE(int)     intcor
     21.45     -22.92       2.78        0.00     101.96       1.48       0.84       0.63       ----

> <Gold.Chemscore.Fitness>
21.4521

> <Gold.Chemscore.DG>
-22.9208

> <Gold.Chemscore.ZeroCoef>
-5.4800

> <Gold.Chemscore.Hbond>
2.7846

> <Gold.Chemscore.Metal>
0.0000

> <Gold.Chemscore.Lipo>
101.9602

> <Gold.Chemscore.Internal_Hbond>
0.0000

> <Gold.Chemscore.DEClash>
0.8436

> <Gold.Chemscore.DEInternal>
0.6252

> <Gold.Chemscore.Rot>
1.4801

> <Gold.Chemscore.Internal.Correction>
   9.000000E+99

> <Gold.Chemscore.Hbonds>
donor molecule, donor type, donor heavy atom, donor atom, acceptor molecule, acceptor atom, score
      L1  H    10    30       P1  8028  0.96
      L1  H    20    21       P1  7948  0.72
      P1  H  7989  7998       L1    19  0.83

> <Gold.Chemscore.Hbond.Weighted>
-9.3006

> <Gold.Chemscore.Metal.Weighted>
-0.0000

> <Gold.Chemscore.Lipo.Weighted>
-11.9293

> <Gold.Chemscore.Internal_Hbond.Weighted>
0.0000

> <Gold.Chemscore.DEClash.Weighted>
0.8436

> <Gold.Chemscore.DEInternal.Weighted>
0.6252

> <Gold.Chemscore.Rot.Weighted>
3.7891

> <Gold.Chemscore.Internal.Correction.Weighted>
   9.000000E+99

> <Gold.Protein.RotatedTorsions>
[ 6907 6896 6895 6894 ] final  127.62 input  -60.11 | X-H torsion
[ 7974 7965 7964 7962 ] final  -48.10 input  175.53 | X-H torsion
[ 8008 7997 7996 7995 ] final  -70.73 input   59.86 | X-H torsion
[ 10167 10162 10161 10158 ] final  -52.04 input  -65.29 | X-H torsion
[ 10718 10713 10712 10709 ] final  -89.45 input   66.30 | X-H torsion
[ 10763 10752 10751 10750 ] final  -22.55 input  -60.55 | X-H torsion
[ 11005 11000 10999 10996 ] final  126.81 input  -57.11 | X-H torsion

> <Gold.Protein.ActiveResidues>
 VAL166  LYS551  ARG553  GLY616  TRP617  ASP618  TYR619  PRO620  LYS621  CYS622 
 ASP623  PHE694  ASN695  SER759  ASP760  ASP761  ALA762  ILE779  LEU786  VAL792 
 PHE793  MET794  SER795  GLU796  ALA797  LYS798  CYS799  TRP800  GLU811  SER814 

> <Gold.Protein.RotatedAtoms>
  152.3796  133.6527  159.6150 H   0  0  0  0  0  0  0  0  0  0  0  0  # atno 6907 bound_to 6896
  150.7730  133.9136  159.3386 H   0  0  0  0  0  0  0  0  0  0  0  0  # atno 6908 bound_to 6896
  151.6944  135.0942  160.0291 H   0  0  0  0  0  0  0  0  0  0  0  0  # atno 6909 bound_to 6896
  145.9547  140.7538  142.9487 H   0  0  0  0  0  0  0  0  0  0  0  0  # atno 7974 bound_to 7965
  154.5034  140.0829  156.7845 H   0  0  0  0  0  0  0  0  0  0  0  0  # atno 8008 bound_to 7997
  155.3950  140.3434  155.4235 H   0  0  0  0  0  0  0  0  0  0  0  0  # atno 8009 bound_to 7997
  156.1485  140.1551  156.8795 H   0  0  0  0  0  0  0  0  0  0  0  0  # atno 8010 bound_to 7997
  140.6557  143.2598  151.4591 H   0  0  0  0  0  0  0  0  0  0  0  0  # atno 10167 bound_to 10162
  155.9984  130.4873  150.5174 H   0  0  0  0  0  0  0  0  0  0  0  0  # atno 10718 bound_to 10713
  153.6538  135.6979  153.5200 H   0  0  0  0  0  0  0  0  0  0  0  0  # atno 10763 bound_to 10752
  153.2686  135.4222  155.0964 H   0  0  0  0  0  0  0  0  0  0  0  0  # atno 10764 bound_to 10752
  154.8469  135.3572  154.6082 H   0  0  0  0  0  0  0  0  0  0  0  0  # atno 10765 bound_to 10752
  139.9475  134.9627  156.8762 H   0  0  0  0  0  0  0  0  0  0  0  0  # atno 11005 bound_to 11000
  144.6803  140.2493  143.7334 LP  0  0  0  0  0  0  0  0  0  0  0  0  # atno 17320 bound_to 7965
  145.8122  139.2008  143.1986 LP  0  0  0  0  0  0  0  0  0  0  0  0  # atno 17321 bound_to 7965
  139.5780  144.1775  152.1929 LP  0  0  0  0  0  0  0  0  0  0  0  0  # atno 17342 bound_to 10162
  140.1091  144.5472  150.6937 LP  0  0  0  0  0  0  0  0  0  0  0  0  # atno 17343 bound_to 10162
  157.3139  131.0669  151.1981 LP  0  0  0  0  0  0  0  0  0  0  0  0  # atno 17370 bound_to 10713
  157.2917  130.6799  149.6118 LP  0  0  0  0  0  0  0  0  0  0  0  0  # atno 17371 bound_to 10713
  140.5799  134.0362  155.7460 LP  0  0  0  0  0  0  0  0  0  0  0  0  # atno 17394 bound_to 11000
  141.1129  133.9587  157.2876 LP  0  0  0  0  0  0  0  0  0  0  0  0  # atno 17395 bound_to 11000

$$$$
