AV-unprocessed.smi:1606|AV-procd|sdf|6461|dock6
  -GOLD-   22720 7113D 1   1.00000     0.00000
 Structure written by MMmdl.
 35 36  0  0  0  0  0  0  0  0  1 V2000
  151.4229  140.1253  154.8357 O   0  0  0  0  0  0  0  0  0  0  0  0
  150.4986  140.3625  155.6139 C   0  0  0  0  0  0  0  0  0  0  0  0
  150.6861  140.6499  156.9110 N   0  0  0  0  0  0  0  0  0  0  0  0
  151.9861  140.7795  157.5616 C   0  0  0  0  0  0  0  0  0  0  0  0
  151.8797  141.0455  159.0776 C   0  0  0  0  0  0  0  0  0  0  0  0
  151.8856  142.5211  159.4447 C   0  0  0  0  0  0  0  0  0  0  0  0
  152.0183  143.5069  158.4439 C   0  0  0  0  0  0  0  0  0  0  0  0
  152.0331  144.8606  158.8324 C   0  0  0  0  0  0  0  0  0  0  0  0
  151.9179  145.1753  160.2000 C   0  0  0  0  0  0  0  0  0  0  0  0
  151.7910  144.1178  161.1225 C   0  0  0  0  0  0  0  0  0  0  0  0
  151.7744  142.8173  160.7601 N   0  0  0  0  0  0  0  0  0  0  0  0
  149.0463  140.3568  155.1204 C   0  0  0  0  0  0  0  0  0  0  0  0
  148.7866  139.2050  154.1330 C   0  0  0  0  0  0  0  0  0  0  0  0
  147.3539  139.2829  153.5810 C   0  0  0  0  0  0  0  0  0  0  0  0
  147.1380  140.5471  152.9626 O   0  0  0  0  0  0  0  0  0  0  0  0
  147.2629  141.6385  153.8683 C   0  0  0  0  0  0  0  0  0  0  0  0
  148.6899  141.6890  154.4376 C   0  0  0  0  0  0  0  0  0  0  0  0
  149.8713  140.8320  157.4789 H   0  0  0  0  0  0  0  0  0  0  0  0
  152.5299  139.8494  157.3953 H   0  0  0  0  0  0  0  0  0  0  0  0
  152.5690  141.5657  157.0797 H   0  0  0  0  0  0  0  0  0  0  0  0
  150.9674  140.5890  159.4633 H   0  0  0  0  0  0  0  0  0  0  0  0
  152.7012  140.5503  159.5977 H   0  0  0  0  0  0  0  0  0  0  0  0
  152.1097  143.2337  157.4029 H   0  0  0  0  0  0  0  0  0  0  0  0
  152.1332  145.6431  158.0948 H   0  0  0  0  0  0  0  0  0  0  0  0
  151.9266  146.2022  160.5343 H   0  0  0  0  0  0  0  0  0  0  0  0
  151.7014  144.3210  162.1794 H   0  0  0  0  0  0  0  0  0  0  0  0
  148.3864  140.2245  155.9799 H   0  0  0  0  0  0  0  0  0  0  0  0
  149.4907  139.2497  153.3004 H   0  0  0  0  0  0  0  0  0  0  0  0
  148.9427  138.2430  154.6226 H   0  0  0  0  0  0  0  0  0  0  0  0
  147.1953  138.4983  152.8411 H   0  0  0  0  0  0  0  0  0  0  0  0
  146.6218  139.1249  154.3745 H   0  0  0  0  0  0  0  0  0  0  0  0
  147.0393  142.5638  153.3373 H   0  0  0  0  0  0  0  0  0  0  0  0
  146.5273  141.5460  154.6687 H   0  0  0  0  0  0  0  0  0  0  0  0
  148.7752  142.5133  155.1471 H   0  0  0  0  0  0  0  0  0  0  0  0
  149.3903  141.9005  153.6283 H   0  0  0  0  0  0  0  0  0  0  0  0
  1  2  2  0  0  0  0
  2  3  1  0  0  0  0
  2 12  1  0  0  0  0
  3  4  1  0  0  0  0
  3 18  1  0  0  0  0
  4  5  1  0  0  0  0
  4 19  1  0  0  0  0
  4 20  1  0  0  0  0
  5  6  1  0  0  0  0
  5 21  1  0  0  0  0
  5 22  1  0  0  0  0
  6 11  1  0  0  0  0
  6  7  2  0  0  0  0
  7  8  1  0  0  0  0
  7 23  1  0  0  0  0
  8  9  2  0  0  0  0
  8 24  1  0  0  0  0
  9 10  1  0  0  0  0
  9 25  1  0  0  0  0
 10 11  2  0  0  0  0
 10 26  1  0  0  0  0
 12 17  1  0  0  0  0
 12 13  1  0  0  0  0
 12 27  1  0  0  0  0
 13 14  1  0  0  0  0
 13 28  1  0  0  0  0
 13 29  1  0  0  0  0
 14 15  1  0  0  0  0
 14 30  1  0  0  0  0
 14 31  1  0  0  0  0
 15 16  1  0  0  0  0
 16 17  1  0  0  0  0
 16 32  1  0  0  0  0
 16 33  1  0  0  0  0
 17 34  1  0  0  0  0
 17 35  1  0  0  0  0
M  END
> <s_m_source_file>
AV-unprocessed.smi

> <i_m_source_file_index>
1606

> <i_lp_mmshare_version>
43012

> <i_f3d_flags>
0

> <s_epik_input>
W0NIMl0xW0NIMl1PW0NIMl1bQ0gyXVtDSF0xQyg9TylbTkhdW0NIMl1bQ0gyXWMyW2NIXVtjSF1bY0hdW2NIXW4y

> <s_epik_cmdline>
J2VwaWtfcHl0aG9uJywgJy1waCcsICc3LjAnLCAnLXRuJywgJzgnLCAnLW1hJywgJzIwMCcsICctbWV0YWxfYmluZGluZycsICctaW1hZScsICc8aW5maWxlLm1hZT4nLCAnLW9tYWUnLCAnPG91dGZpbGUubWFlPic=

> <r_epik_Ionization_Penalty>
0.0277532

> <r_epik_Ionization_Penalty_Charging>
0

> <r_epik_Ionization_Penalty_Neutral>
0.0277532

> <r_epik_State_Penalty>
0.022734

> <r_epik_Charging_Adjusted_Penalty>
0.022734

> <i_epik_Tot_Q>
0

> <i_epik_Tot_abs_Q>
0

> <r_epik_Metal_State_Penalty>
0.0217131

> <b_epik_Metal_Only>
0

> <s_lp_Force_Field>
OPLS_2005

> <r_lp_Energy>
8.37046

> <b_lp_Chiralities_Consistent>
1

> <s_lp_Variant>
AV-unprocessed.smi:1606-1

> <Gold.Version>
5.8.1

> <Gold.Id.Protein>
6NUR|6NUR_protein|mol2

> <Gold.PLP.Fitness>
41.8859

> <Gold.PLP.PLP>
-40.4881

> <Gold.PLP.part.hbond>
-1.4001

> <Gold.PLP.part.metal>
0.0000

> <Gold.PLP.part.buried>
-5.1869

> <Gold.PLP.part.nonpolar>
-33.6511

> <Gold.PLP.part.repulsive>
0.6282

> <Gold.PLP.ligand.clash>
0.0000

> <Gold.PLP.ligand.torsion>
0.8075

> <Gold.PLP.Chemscore.Hbond>
1.0000

> <Gold.PLP.Chemscore.CHOScore>
0.0000

> <Gold.PLP.Chemscore.Metal>
0.0000

> <Gold.Chemscore.Hbonds>
donor molecule, donor type, donor heavy atom, donor atom, acceptor molecule, acceptor atom, score
      P1  H  7989  7998       L1     1  1.00

> <Gold.PLP.Chemscore.Internal.Correction>
0.0128

> <Gold.Rescore>
     Score         DG    S(hbond)    S(metal)    S(lipo)     H(rot)  DE(clash)    DE(int)     intcor
     17.04     -17.43       0.98        0.00     106.24       1.47       0.02       0.37       ----

> <Gold.Chemscore.Fitness>
17.0375

> <Gold.Chemscore.DG>
-17.4273

> <Gold.Chemscore.ZeroCoef>
-5.4800

> <Gold.Chemscore.Hbond>
0.9804

> <Gold.Chemscore.Metal>
0.0000

> <Gold.Chemscore.Lipo>
106.2352

> <Gold.Chemscore.Internal_Hbond>
0.0000

> <Gold.Chemscore.DEClash>
0.0199

> <Gold.Chemscore.DEInternal>
0.3699

> <Gold.Chemscore.Rot>
1.4674

> <Gold.Chemscore.Internal.Correction>
   9.000000E+99

> <Gold.Chemscore.Hbonds>
donor molecule, donor type, donor heavy atom, donor atom, acceptor molecule, acceptor atom, score
      P1  H  7989  7998       L1     1  0.93

> <Gold.Chemscore.Hbond.Weighted>
-3.2744

> <Gold.Chemscore.Metal.Weighted>
-0.0000

> <Gold.Chemscore.Lipo.Weighted>
-12.4295

> <Gold.Chemscore.Internal_Hbond.Weighted>
0.0000

> <Gold.Chemscore.DEClash.Weighted>
0.0199

> <Gold.Chemscore.DEInternal.Weighted>
0.3699

> <Gold.Chemscore.Rot.Weighted>
3.7567

> <Gold.Chemscore.Internal.Correction.Weighted>
   9.000000E+99

> <Gold.Protein.RotatedTorsions>
[ 6907 6896 6895 6894 ] final   -2.07 input  -60.11 | X-H torsion
[ 7974 7965 7964 7962 ] final   23.49 input  175.53 | X-H torsion
[ 8008 7997 7996 7995 ] final -158.64 input   59.86 | X-H torsion
[ 10167 10162 10161 10158 ] final  -28.85 input  -65.29 | X-H torsion
[ 10718 10713 10712 10709 ] final -102.81 input   66.30 | X-H torsion
[ 10763 10752 10751 10750 ] final -169.90 input  -60.55 | X-H torsion
[ 11005 11000 10999 10996 ] final   36.46 input  -57.11 | X-H torsion

> <Gold.Protein.ActiveResidues>
 VAL166  LYS551  ARG553  GLY616  TRP617  ASP618  TYR619  PRO620  LYS621  CYS622 
 ASP623  PHE694  ASN695  SER759  ASP760  ASP761  ALA762  ILE779  LEU786  VAL792 
 PHE793  MET794  SER795  GLU796  ALA797  LYS798  CYS799  TRP800  GLU811  SER814 

> <Gold.Protein.RotatedAtoms>
  151.5358  135.1068  159.9913 H   0  0  0  0  0  0  0  0  0  0  0  0  # atno 6907 bound_to 6896
  152.4558  133.7715  159.6812 H   0  0  0  0  0  0  0  0  0  0  0  0  # atno 6908 bound_to 6896
  150.8501  133.7735  159.3053 H   0  0  0  0  0  0  0  0  0  0  0  0  # atno 6909 bound_to 6896
  146.1982  139.7737  142.8781 H   0  0  0  0  0  0  0  0  0  0  0  0  # atno 7974 bound_to 7965
  155.7505  140.0826  157.2203 H   0  0  0  0  0  0  0  0  0  0  0  0  # atno 8008 bound_to 7997
  154.4012  140.1561  156.2775 H   0  0  0  0  0  0  0  0  0  0  0  0  # atno 8009 bound_to 7997
  155.8935  140.3414  155.5976 H   0  0  0  0  0  0  0  0  0  0  0  0  # atno 8010 bound_to 7997
  140.7266  143.3976  151.1320 H   0  0  0  0  0  0  0  0  0  0  0  0  # atno 10167 bound_to 10162
  156.0242  130.5437  150.7162 H   0  0  0  0  0  0  0  0  0  0  0  0  # atno 10718 bound_to 10713
  154.6473  135.2906  155.0030 H   0  0  0  0  0  0  0  0  0  0  0  0  # atno 10763 bound_to 10752
  154.1136  135.6559  153.4893 H   0  0  0  0  0  0  0  0  0  0  0  0  # atno 10764 bound_to 10752
  153.0357  135.5271  154.7366 H   0  0  0  0  0  0  0  0  0  0  0  0  # atno 10765 bound_to 10752
  140.2324  134.3512  155.7958 H   0  0  0  0  0  0  0  0  0  0  0  0  # atno 11005 bound_to 11000
  145.3574  141.0319  143.3304 LP  0  0  0  0  0  0  0  0  0  0  0  0  # atno 17320 bound_to 7965
  144.8625  139.5156  143.6805 LP  0  0  0  0  0  0  0  0  0  0  0  0  # atno 17321 bound_to 7965
  139.7591  143.8662  152.3096 LP  0  0  0  0  0  0  0  0  0  0  0  0  # atno 17342 bound_to 10162
  139.8542  144.7149  150.9177 LP  0  0  0  0  0  0  0  0  0  0  0  0  # atno 17343 bound_to 10162
  157.4789  131.0900  151.0559 LP  0  0  0  0  0  0  0  0  0  0  0  0  # atno 17370 bound_to 10713
  157.0998  130.5977  149.5457 LP  0  0  0  0  0  0  0  0  0  0  0  0  # atno 17371 bound_to 10713
  141.2217  133.7252  156.8752 LP  0  0  0  0  0  0  0  0  0  0  0  0  # atno 17394 bound_to 11000
  140.1737  134.9082  157.2865 LP  0  0  0  0  0  0  0  0  0  0  0  0  # atno 17395 bound_to 11000

$$$$
