AV-unprocessed.smi:678|AV-procd|sdf|3315|dock1
  -GOLD-   22720 0283D 1   1.00000     0.00000
 Structure written by MMmdl.
 51 52  0  0  0  0  0  0  0  0  2 V2000
  151.0557  131.3203  156.6385 C   0  0  0  0  0  0  0  0  0  0  0  0
  150.2349  132.2282  155.7395 C   0  0  0  0  0  0  0  0  0  0  0  0
  149.6296  131.7592  154.6266 C   0  0  0  0  0  0  0  0  0  0  0  0
  148.8554  132.6298  153.7755 C   0  0  0  0  0  0  0  0  0  0  0  0
  148.7505  133.9217  154.1181 C   0  0  0  0  0  0  0  0  0  0  0  0
  149.3689  134.4354  155.2732 N   0  0  0  0  0  0  0  0  0  0  0  0
  149.1875  135.8714  155.5480 C   0  0  0  0  0  0  0  0  0  0  0  0
  150.5048  136.6581  155.5057 C   0  0  0  0  0  0  0  0  0  0  0  0
  151.5419  136.1681  155.9541 O   0  0  0  0  0  0  0  0  0  0  0  0
  150.4452  137.8818  154.9596 N   0  0  0  0  0  0  0  0  0  0  0  0
  151.5543  138.8273  154.8968 C   0  0  0  0  0  0  0  0  0  0  0  0
  151.3831  139.9564  155.9293 C   0  0  2  0  0  0  0  0  0  0  0  0
  151.6105  139.4562  157.3734 C   0  0  0  0  0  0  0  0  0  0  0  0
  151.3452  140.5221  158.3752 N   0  3  1  0  0  0  0  0  0  0  0  0
  152.4306  141.5304  158.5196 C   0  0  0  0  0  0  0  0  0  0  0  0
  152.1950  142.5074  159.6921 C   0  0  0  0  0  0  0  0  0  0  0  0
  152.6614  143.9331  159.3523 C   0  0  0  0  0  0  0  0  0  0  0  0
  152.8954  142.0039  160.9629 C   0  0  0  0  0  0  0  0  0  0  0  0
  150.0059  141.1197  158.1542 C   0  0  0  0  0  0  0  0  0  0  0  0
  149.8362  141.5784  156.6955 C   0  0  0  0  0  0  0  0  0  0  0  0
  150.0587  140.4722  155.8318 O   0  0  0  0  0  0  0  0  0  0  0  0
  150.1140  133.6499  156.1129 C   0  0  0  0  0  0  0  0  0  0  0  0
  150.6516  134.1150  157.1205 O   0  0  0  0  0  0  0  0  0  0  0  0
  151.0740  130.2974  156.2612 H   0  0  0  0  0  0  0  0  0  0  0  0
  150.6372  131.3003  157.6452 H   0  0  0  0  0  0  0  0  0  0  0  0
  152.0854  131.6742  156.7004 H   0  0  0  0  0  0  0  0  0  0  0  0
  149.7242  130.7164  154.3608 H   0  0  0  0  0  0  0  0  0  0  0  0
  148.3768  132.2518  152.8839 H   0  0  0  0  0  0  0  0  0  0  0  0
  148.1958  134.6393  153.5311 H   0  0  0  0  0  0  0  0  0  0  0  0
  148.5008  136.3238  154.8314 H   0  0  0  0  0  0  0  0  0  0  0  0
  148.7112  135.9996  156.5222 H   0  0  0  0  0  0  0  0  0  0  0  0
  149.5551  138.1974  154.6017 H   0  0  0  0  0  0  0  0  0  0  0  0
  152.5110  138.3193  155.0306 H   0  0  0  0  0  0  0  0  0  0  0  0
  151.5677  139.2482  153.8911 H   0  0  0  0  0  0  0  0  0  0  0  0
  152.0961  140.7472  155.6916 H   0  0  0  0  0  0  0  0  0  0  0  0
  150.9303  138.6282  157.5780 H   0  0  0  0  0  0  0  0  0  0  0  0
  152.6163  139.0541  157.4866 H   0  0  0  0  0  0  0  0  0  0  0  0
  153.3926  141.0301  158.6292 H   0  0  0  0  0  0  0  0  0  0  0  0
  152.5044  142.1170  157.6027 H   0  0  0  0  0  0  0  0  0  0  0  0
  151.1299  142.5488  159.9179 H   0  0  0  0  0  0  0  0  0  0  0  0
  153.7263  143.9572  159.1179 H   0  0  0  0  0  0  0  0  0  0  0  0
  152.4918  144.6105  160.1899 H   0  0  0  0  0  0  0  0  0  0  0  0
  152.1222  144.3374  158.4954 H   0  0  0  0  0  0  0  0  0  0  0  0
  153.9751  141.9402  160.8230 H   0  0  0  0  0  0  0  0  0  0  0  0
  152.5372  141.0131  161.2441 H   0  0  0  0  0  0  0  0  0  0  0  0
  152.7085  142.6699  161.8058 H   0  0  0  0  0  0  0  0  0  0  0  0
  149.2524  140.3648  158.3824 H   0  0  0  0  0  0  0  0  0  0  0  0
  149.8299  141.9445  158.8457 H   0  0  0  0  0  0  0  0  0  0  0  0
  148.8242  141.9503  156.5349 H   0  0  0  0  0  0  0  0  0  0  0  0
  150.5168  142.3953  156.4512 H   0  0  0  0  0  0  0  0  0  0  0  0
  151.2943  140.0659  159.2752 H   0  0  0  0  0  0  0  0  0  0  0  0
  1  2  1  0  0  0  0
  1 24  1  0  0  0  0
  1 25  1  0  0  0  0
  1 26  1  0  0  0  0
  2 22  1  0  0  0  0
  2  3  2  0  0  0  0
  3  4  1  0  0  0  0
  3 27  1  0  0  0  0
  4  5  2  0  0  0  0
  4 28  1  0  0  0  0
  5  6  1  0  0  0  0
  5 29  1  0  0  0  0
  6  7  1  0  0  0  0
  6 22  1  0  0  0  0
  7  8  1  0  0  0  0
  7 30  1  0  0  0  0
  7 31  1  0  0  0  0
  8  9  2  0  0  0  0
  8 10  1  0  0  0  0
 10 11  1  0  0  0  0
 10 32  1  0  0  0  0
 11 12  1  0  0  0  0
 11 33  1  0  0  0  0
 11 34  1  0  0  0  0
 12 21  1  0  0  0  0
 12 13  1  0  0  0  0
 12 35  1  0  0  0  0
 13 14  1  0  0  0  0
 13 36  1  0  0  0  0
 13 37  1  0  0  0  0
 14 15  1  0  0  0  0
 14 19  1  0  0  0  0
 14 51  1  0  0  0  0
 15 16  1  0  0  0  0
 15 38  1  0  0  0  0
 15 39  1  0  0  0  0
 16 17  1  0  0  0  0
 16 18  1  0  0  0  0
 16 40  1  0  0  0  0
 17 41  1  0  0  0  0
 17 42  1  0  0  0  0
 17 43  1  0  0  0  0
 18 44  1  0  0  0  0
 18 45  1  0  0  0  0
 18 46  1  0  0  0  0
 19 20  1  0  0  0  0
 19 47  1  0  0  0  0
 19 48  1  0  0  0  0
 20 21  1  0  0  0  0
 20 49  1  0  0  0  0
 20 50  1  0  0  0  0
 22 23  2  0  0  0  0
M  CHG  1  14   1
M  END
> <s_m_source_file>
AV-unprocessed.smi

> <i_m_source_file_index>
678

> <i_lp_mmshare_version>
43012

> <i_f3d_flags>
0

> <s_epik_input>
W0NIM11jMVtjSF1bY0hdW2NIXW4oYzE9TylbQ0gyXUMoPU8pW05IXVtDSDJdW0NAQEhdMltDSDJdTihbQ0gyXVtDSDJdTzIpW0NIMl1bQ0hdKFtDSDNdKVtDSDNd

> <s_epik_cmdline>
J2VwaWtfcHl0aG9uJywgJy1waCcsICc3LjAnLCAnLXRuJywgJzgnLCAnLW1hJywgJzIwMCcsICctbWV0YWxfYmluZGluZycsICctaW1hZScsICc8aW5maWxlLm1hZT4nLCAnLW9tYWUnLCAnPG91dGZpbGUubWFlPic=

> <r_lp_tautomer_probability>
1

> <r_epik_Ionization_Penalty>
0.0975937

> <r_epik_Ionization_Penalty_Charging>
0.0975937

> <r_epik_Ionization_Penalty_Neutral>
6.27044e-08

> <r_epik_State_Penalty>
0.0877056

> <r_epik_Charging_Adjusted_Penalty>
0.185299

> <i_epik_Tot_Q>
1

> <i_epik_Tot_abs_Q>
1

> <r_epik_Metal_State_Penalty>
0.0877109

> <b_epik_Metal_Only>
0

> <s_lp_Force_Field>
OPLS_2005

> <r_lp_Energy>
29.877

> <b_lp_Chiralities_Consistent>
1

> <s_lp_Variant>
AV-unprocessed.smi:678-3

> <Gold.Version>
5.8.1

> <Gold.Id.Protein>
6NUR|6NUR_protein|mol2

> <Gold.PLP.Fitness>
48.0138

> <Gold.PLP.PLP>
-43.7149

> <Gold.PLP.part.hbond>
-2.0000

> <Gold.PLP.part.metal>
0.0000

> <Gold.PLP.part.buried>
-5.9459

> <Gold.PLP.part.nonpolar>
-35.3979

> <Gold.PLP.part.repulsive>
0.2588

> <Gold.PLP.ligand.clash>
0.0000

> <Gold.PLP.ligand.torsion>
0.9754

> <Gold.PLP.Chemscore.Hbond>
1.0364

> <Gold.PLP.Chemscore.CHOScore>
1.0000

> <Gold.PLP.Chemscore.Metal>
0.0000

> <Gold.Chemscore.Hbonds>
donor molecule, donor type, donor heavy atom, donor atom, acceptor molecule, acceptor atom, score
      P1  H  6896  6909       L1    23  0.02
      P1  H 10752 10764       L1     9  1.00
      L1  C     5    29       P1  7948  0.99

> <Gold.PLP.Chemscore.Internal.Correction>
0.1405

> <Gold.Rescore>
     Score         DG    S(hbond)    S(metal)    S(lipo)     H(rot)  DE(clash)    DE(int)     intcor
     18.36     -19.04       1.95        0.00     101.42       1.89       0.07       0.62       ----

> <Gold.Chemscore.Fitness>
18.3592

> <Gold.Chemscore.DG>
-19.0420

> <Gold.Chemscore.ZeroCoef>
-5.4800

> <Gold.Chemscore.Hbond>
1.9540

> <Gold.Chemscore.Metal>
0.0000

> <Gold.Chemscore.Lipo>
101.4234

> <Gold.Chemscore.Internal_Hbond>
0.0000

> <Gold.Chemscore.DEClash>
0.0652

> <Gold.Chemscore.DEInternal>
0.6175

> <Gold.Chemscore.Rot>
1.8871

> <Gold.Chemscore.Internal.Correction>
   9.000000E+99

> <Gold.Chemscore.Hbonds>
donor molecule, donor type, donor heavy atom, donor atom, acceptor molecule, acceptor atom, score
      P1  H  6896  6909       L1    23  0.03
      P1  H 10752 10764       L1     9  0.99

> <Gold.Chemscore.Hbond.Weighted>
-6.5264

> <Gold.Chemscore.Metal.Weighted>
-0.0000

> <Gold.Chemscore.Lipo.Weighted>
-11.8665

> <Gold.Chemscore.Internal_Hbond.Weighted>
0.0000

> <Gold.Chemscore.DEClash.Weighted>
0.0652

> <Gold.Chemscore.DEInternal.Weighted>
0.6175

> <Gold.Chemscore.Rot.Weighted>
4.8309

> <Gold.Chemscore.Internal.Correction.Weighted>
   9.000000E+99

> <Gold.Protein.RotatedTorsions>
[ 6907 6896 6895 6894 ] final  -51.02 input  -60.11 | X-H torsion
[ 7974 7965 7964 7962 ] final -154.69 input  175.53 | X-H torsion
[ 8008 7997 7996 7995 ] final  115.74 input   59.86 | X-H torsion
[ 10167 10162 10161 10158 ] final   46.43 input  -65.29 | X-H torsion
[ 10718 10713 10712 10709 ] final -121.27 input   66.30 | X-H torsion
[ 10763 10752 10751 10750 ] final  -35.72 input  -60.55 | X-H torsion
[ 11005 11000 10999 10996 ] final -136.26 input  -57.11 | X-H torsion

> <Gold.Protein.ActiveResidues>
 VAL166  LYS551  ARG553  GLY616  TRP617  ASP618  TYR619  PRO620  LYS621  CYS622 
 ASP623  PHE694  ASN695  SER759  ASP760  ASP761  ALA762  ILE779  LEU786  VAL792 
 PHE793  MET794  SER795  GLU796  ALA797  LYS798  CYS799  TRP800  GLU811  SER814 

> <Gold.Protein.RotatedAtoms>
  150.8651  134.8012  159.7112 H   0  0  0  0  0  0  0  0  0  0  0  0  # atno 6907 bound_to 6896
  152.4675  134.5037  159.9742 H   0  0  0  0  0  0  0  0  0  0  0  0  # atno 6908 bound_to 6896
  151.5134  133.3442  159.2924 H   0  0  0  0  0  0  0  0  0  0  0  0  # atno 6909 bound_to 6896
  144.7676  140.4352  143.5930 H   0  0  0  0  0  0  0  0  0  0  0  0  # atno 7974 bound_to 7965
  156.2399  140.2932  156.0415 H   0  0  0  0  0  0  0  0  0  0  0  0  # atno 8008 bound_to 7997
  155.1982  140.0409  157.2930 H   0  0  0  0  0  0  0  0  0  0  0  0  # atno 8009 bound_to 7997
  154.6148  140.2461  155.7630 H   0  0  0  0  0  0  0  0  0  0  0  0  # atno 8010 bound_to 7997
  140.3140  144.2786  150.6194 H   0  0  0  0  0  0  0  0  0  0  0  0  # atno 10167 bound_to 10162
  156.1323  130.6405  150.9641 H   0  0  0  0  0  0  0  0  0  0  0  0  # atno 10718 bound_to 10713
  153.8679  135.6834  153.4777 H   0  0  0  0  0  0  0  0  0  0  0  0  # atno 10763 bound_to 10752
  153.1304  135.4700  154.9338 H   0  0  0  0  0  0  0  0  0  0  0  0  # atno 10764 bound_to 10752
  154.7728  135.3244  154.8104 H   0  0  0  0  0  0  0  0  0  0  0  0  # atno 10765 bound_to 10752
  140.8821  134.1918  157.4584 H   0  0  0  0  0  0  0  0  0  0  0  0  # atno 11005 bound_to 11000
  145.6421  139.1551  143.2910 LP  0  0  0  0  0  0  0  0  0  0  0  0  # atno 17320 bound_to 7965
  146.1797  140.6516  142.9195 LP  0  0  0  0  0  0  0  0  0  0  0  0  # atno 17321 bound_to 7965
  140.5543  143.2201  151.7875 LP  0  0  0  0  0  0  0  0  0  0  0  0  # atno 17342 bound_to 10162
  139.4888  144.4435  151.9737 LP  0  0  0  0  0  0  0  0  0  0  0  0  # atno 17343 bound_to 10162
  157.6500  131.0898  150.8071 LP  0  0  0  0  0  0  0  0  0  0  0  0  # atno 17370 bound_to 10713
  156.8155  130.4966  149.5350 LP  0  0  0  0  0  0  0  0  0  0  0  0  # atno 17371 bound_to 10713
  139.8721  134.9822  156.5146 LP  0  0  0  0  0  0  0  0  0  0  0  0  # atno 17394 bound_to 11000
  140.8448  133.8177  155.9110 LP  0  0  0  0  0  0  0  0  0  0  0  0  # atno 17395 bound_to 11000

$$$$
