AV-unprocessed.smi:1795|AV-procd|sdf|7244|dock4
  -GOLD-   22720 8493D 1   1.00000     0.00000
 Structure written by MMmdl.
 48 49  0  0  0  0  0  0  0  0  2 V2000
  149.1874  141.5085  154.7175 C   0  0  0  0  0  0  0  0  0  0  0  0
  149.6126  140.0607  154.9859 C   0  0  1  0  0  0  0  0  0  0  0  0
  149.0081  139.0799  153.9551 C   0  0  0  0  0  0  0  0  0  0  0  0
  149.5107  137.6919  154.1533 N   0  3  2  0  0  0  0  0  0  0  0  0
  148.8656  136.9574  155.2935 C   0  0  2  0  0  0  0  0  0  0  0  0
  149.1168  137.6221  156.6693 C   0  0  0  0  0  0  0  0  0  0  0  0
  149.3415  135.4791  155.3268 C   0  0  0  0  0  0  0  0  0  0  0  0
  149.0306  134.7572  154.0980 N   0  0  0  0  0  0  0  0  0  0  0  0
  148.1750  133.7269  154.0065 C   0  0  0  0  0  0  0  0  0  0  0  0
  147.5268  133.3022  154.9626 O   0  0  0  0  0  0  0  0  0  0  0  0
  148.0466  133.0555  152.6351 C   0  0  0  0  0  0  0  0  0  0  0  0
  146.6796  133.1572  152.0988 N   0  0  0  0  0  0  0  0  0  0  0  0
  146.1865  134.4566  151.8662 C   0  0  0  0  0  0  0  0  0  0  0  0
  144.9519  134.6734  151.3854 C   0  0  0  0  0  0  0  0  0  0  0  0
  144.1202  133.5284  151.1005 C   0  0  0  0  0  0  0  0  0  0  0  0
  144.5787  132.2814  151.3255 C   0  0  0  0  0  0  0  0  0  0  0  0
  145.9234  132.0406  151.8613 C   0  0  0  0  0  0  0  0  0  0  0  0
  146.3406  130.9050  152.0903 O   0  0  0  0  0  0  0  0  0  0  0  0
  150.9986  137.7246  154.1314 C   0  0  0  0  0  0  0  0  0  0  0  0
  151.5491  138.7005  155.1911 C   0  0  1  0  0  0  0  0  0  0  0  0
  153.0793  138.7815  155.1616 C   0  0  0  0  0  0  0  0  0  0  0  0
  151.0337  139.9996  154.9198 O   0  0  0  0  0  0  0  0  0  0  0  0
  148.1033  141.6150  154.7666 H   0  0  0  0  0  0  0  0  0  0  0  0
  149.5122  141.8402  153.7310 H   0  0  0  0  0  0  0  0  0  0  0  0
  149.6206  142.1846  155.4552 H   0  0  0  0  0  0  0  0  0  0  0  0
  149.2920  139.7993  155.9948 H   0  0  0  0  0  0  0  0  0  0  0  0
  147.9220  139.1315  153.9782 H   0  0  0  0  0  0  0  0  0  0  0  0
  149.2920  139.3974  152.9508 H   0  0  0  0  0  0  0  0  0  0  0  0
  147.7877  136.9710  155.1381 H   0  0  0  0  0  0  0  0  0  0  0  0
  148.6812  137.0449  157.4849 H   0  0  0  0  0  0  0  0  0  0  0  0
  148.6598  138.6088  156.7376 H   0  0  0  0  0  0  0  0  0  0  0  0
  150.1830  137.7224  156.8746 H   0  0  0  0  0  0  0  0  0  0  0  0
  150.4129  135.3891  155.4983 H   0  0  0  0  0  0  0  0  0  0  0  0
  148.8594  134.9559  156.1531 H   0  0  0  0  0  0  0  0  0  0  0  0
  149.5198  135.0428  153.2612 H   0  0  0  0  0  0  0  0  0  0  0  0
  148.7524  133.5182  151.9433 H   0  0  0  0  0  0  0  0  0  0  0  0
  148.3698  132.0160  152.7138 H   0  0  0  0  0  0  0  0  0  0  0  0
  146.8706  135.2567  152.1101 H   0  0  0  0  0  0  0  0  0  0  0  0
  144.5898  135.6771  151.2179 H   0  0  0  0  0  0  0  0  0  0  0  0
  143.1260  133.6723  150.7037 H   0  0  0  0  0  0  0  0  0  0  0  0
  143.9426  131.4367  151.1050 H   0  0  0  0  0  0  0  0  0  0  0  0
  151.4381  136.7331  154.2280 H   0  0  0  0  0  0  0  0  0  0  0  0
  151.3096  138.0669  153.1431 H   0  0  0  0  0  0  0  0  0  0  0  0
  151.2398  138.3892  156.1902 H   0  0  0  0  0  0  0  0  0  0  0  0
  153.5277  137.8101  155.3719 H   0  0  0  0  0  0  0  0  0  0  0  0
  153.4467  139.4848  155.9093 H   0  0  0  0  0  0  0  0  0  0  0  0
  153.4394  139.1133  154.1874 H   0  0  0  0  0  0  0  0  0  0  0  0
  149.2442  137.1711  153.3299 H   0  0  0  0  0  0  0  0  0  0  0  0
  1  2  1  0  0  0  0
  1 23  1  0  0  0  0
  1 24  1  0  0  0  0
  1 25  1  0  0  0  0
  2 22  1  0  0  0  0
  2  3  1  0  0  0  0
  2 26  1  0  0  0  0
  3  4  1  0  0  0  0
  3 27  1  0  0  0  0
  3 28  1  0  0  0  0
  4  5  1  0  0  0  0
  4 19  1  0  0  0  0
  4 48  1  0  0  0  0
  5  6  1  0  0  0  0
  5  7  1  0  0  0  0
  5 29  1  0  0  0  0
  6 30  1  0  0  0  0
  6 31  1  0  0  0  0
  6 32  1  0  0  0  0
  7  8  1  0  0  0  0
  7 33  1  0  0  0  0
  7 34  1  0  0  0  0
  8  9  1  0  0  0  0
  8 35  1  0  0  0  0
  9 10  2  0  0  0  0
  9 11  1  0  0  0  0
 11 12  1  0  0  0  0
 11 36  1  0  0  0  0
 11 37  1  0  0  0  0
 12 17  1  0  0  0  0
 12 13  1  0  0  0  0
 13 14  2  0  0  0  0
 13 38  1  0  0  0  0
 14 15  1  0  0  0  0
 14 39  1  0  0  0  0
 15 16  2  0  0  0  0
 15 40  1  0  0  0  0
 16 17  1  0  0  0  0
 16 41  1  0  0  0  0
 17 18  2  0  0  0  0
 19 20  1  0  0  0  0
 19 42  1  0  0  0  0
 19 43  1  0  0  0  0
 20 21  1  0  0  0  0
 20 22  1  0  0  0  0
 20 44  1  0  0  0  0
 21 45  1  0  0  0  0
 21 46  1  0  0  0  0
 21 47  1  0  0  0  0
M  CHG  1   4   1
M  END
> <s_m_source_file>
AV-unprocessed.smi

> <i_m_source_file_index>
1795

> <i_lp_mmshare_version>
43012

> <i_f3d_flags>
0

> <s_epik_input>
W0NIM11bQ0BASF0xW0NIMl1OKFtDSDJdW0NASF0oTzEpW0NIM10pW0NASF0oW0NIM10pW0NIMl1bTkhdQyg9TylbQ0gyXW4yW2NIXVtjSF1bY0hdW2NIXWMyPU8=

> <s_epik_cmdline>
J2VwaWtfcHl0aG9uJywgJy1waCcsICc3LjAnLCAnLXRuJywgJzgnLCAnLW1hJywgJzIwMCcsICctbWV0YWxfYmluZGluZycsICctaW1hZScsICc8aW5maWxlLm1hZT4nLCAnLW9tYWUnLCAnPG91dGZpbGUubWFlPic=

> <r_lp_tautomer_probability>
1

> <r_epik_Ionization_Penalty>
0.656654

> <r_epik_Ionization_Penalty_Charging>
0.656654

> <r_epik_Ionization_Penalty_Neutral>
8.90321e-08

> <r_epik_State_Penalty>
0.675641

> <r_epik_Charging_Adjusted_Penalty>
1.33229

> <i_epik_Tot_Q>
1

> <i_epik_Tot_abs_Q>
1

> <r_epik_Metal_State_Penalty>
0.675691

> <b_epik_Metal_Only>
0

> <s_lp_Force_Field>
OPLS_2005

> <r_lp_Energy>
32.228

> <b_lp_Chiralities_Consistent>
1

> <s_lp_Variant>
AV-unprocessed.smi:1795-8

> <Gold.Version>
5.8.1

> <Gold.Id.Protein>
6NUR|6NUR_protein|mol2

> <Gold.PLP.Fitness>
50.9566

> <Gold.PLP.PLP>
-38.2340

> <Gold.PLP.part.hbond>
-3.0000

> <Gold.PLP.part.metal>
0.0000

> <Gold.PLP.part.buried>
-2.1341

> <Gold.PLP.part.nonpolar>
-33.5920

> <Gold.PLP.part.repulsive>
0.2464

> <Gold.PLP.ligand.clash>
0.0000

> <Gold.PLP.ligand.torsion>
0.0509

> <Gold.PLP.Chemscore.Hbond>
3.2496

> <Gold.PLP.Chemscore.CHOScore>
1.0000

> <Gold.PLP.Chemscore.Metal>
0.0000

> <Gold.Chemscore.Hbonds>
donor molecule, donor type, donor heavy atom, donor atom, acceptor molecule, acceptor atom, score
      L1  H     4    48       P1  7948  2.00
      L1  H     8    35       P1  7948  0.25
      P1  H  7989  7998       L1    22  1.00
      L1  C    13    38       P1  7948  1.00

> <Gold.PLP.Chemscore.Internal.Correction>
0.0757

> <Gold.Rescore>
     Score         DG    S(hbond)    S(metal)    S(lipo)     H(rot)  DE(clash)    DE(int)     intcor
     14.41     -16.76       1.89        0.00      83.81       1.89       0.44       1.91       ----

> <Gold.Chemscore.Fitness>
14.4125

> <Gold.Chemscore.DG>
-16.7635

> <Gold.Chemscore.ZeroCoef>
-5.4800

> <Gold.Chemscore.Hbond>
1.8889

> <Gold.Chemscore.Metal>
0.0000

> <Gold.Chemscore.Lipo>
83.8060

> <Gold.Chemscore.Internal_Hbond>
0.0000

> <Gold.Chemscore.DEClash>
0.4410

> <Gold.Chemscore.DEInternal>
1.9100

> <Gold.Chemscore.Rot>
1.8870

> <Gold.Chemscore.Internal.Correction>
   9.000000E+99

> <Gold.Chemscore.Hbonds>
donor molecule, donor type, donor heavy atom, donor atom, acceptor molecule, acceptor atom, score
      L1  H     4    48       P1  7948  0.98
      L1  H     8    35       P1  7948  0.01
      P1  H  7989  7998       L1    22  0.75

> <Gold.Chemscore.Hbond.Weighted>
-6.3090

> <Gold.Chemscore.Metal.Weighted>
-0.0000

> <Gold.Chemscore.Lipo.Weighted>
-9.8053

> <Gold.Chemscore.Internal_Hbond.Weighted>
0.0000

> <Gold.Chemscore.DEClash.Weighted>
0.4410

> <Gold.Chemscore.DEInternal.Weighted>
1.9100

> <Gold.Chemscore.Rot.Weighted>
4.8308

> <Gold.Chemscore.Internal.Correction.Weighted>
   9.000000E+99

> <Gold.Protein.RotatedTorsions>
[ 6907 6896 6895 6894 ] final   52.80 input  -60.11 | X-H torsion
[ 7974 7965 7964 7962 ] final   93.39 input  175.53 | X-H torsion
[ 8008 7997 7996 7995 ] final -127.62 input   59.86 | X-H torsion
[ 10167 10162 10161 10158 ] final  134.78 input  -65.29 | X-H torsion
[ 10718 10713 10712 10709 ] final  -13.57 input   66.30 | X-H torsion
[ 10763 10752 10751 10750 ] final -123.53 input  -60.55 | X-H torsion
[ 11005 11000 10999 10996 ] final   -3.42 input  -57.11 | X-H torsion

> <Gold.Protein.ActiveResidues>
 VAL166  LYS551  ARG553  GLY616  TRP617  ASP618  TYR619  PRO620  LYS621  CYS622 
 ASP623  PHE694  ASN695  SER759  ASP760  ASP761  ALA762  ILE779  LEU786  VAL792 
 PHE793  MET794  SER795  GLU796  ALA797  LYS798  CYS799  TRP800  GLU811  SER814 

> <Gold.Protein.RotatedAtoms>
  152.3271  134.7307  160.0298 H   0  0  0  0  0  0  0  0  0  0  0  0  # atno 6907 bound_to 6896
  151.7736  133.3338  159.3459 H   0  0  0  0  0  0  0  0  0  0  0  0  # atno 6908 bound_to 6896
  150.7402  134.5927  159.6040 H   0  0  0  0  0  0  0  0  0  0  0  0  # atno 6909 bound_to 6896
  145.4796  139.2279  143.2890 H   0  0  0  0  0  0  0  0  0  0  0  0  # atno 7974 bound_to 7965
  155.2491  140.0431  157.2984 H   0  0  0  0  0  0  0  0  0  0  0  0  # atno 8008 bound_to 7997
  154.5780  140.2392  155.8064 H   0  0  0  0  0  0  0  0  0  0  0  0  # atno 8009 bound_to 7997
  156.2172  140.2981  155.9875 H   0  0  0  0  0  0  0  0  0  0  0  0  # atno 8010 bound_to 7997
  139.5242  144.6550  151.5189 H   0  0  0  0  0  0  0  0  0  0  0  0  # atno 10167 bound_to 10162
  156.6284  130.4894  149.6138 H   0  0  0  0  0  0  0  0  0  0  0  0  # atno 10718 bound_to 10713
  154.8709  135.4095  154.2959 H   0  0  0  0  0  0  0  0  0  0  0  0  # atno 10763 bound_to 10752
  153.3827  135.7012  153.6559 H   0  0  0  0  0  0  0  0  0  0  0  0  # atno 10764 bound_to 10752
  153.5375  135.3655  155.2675 H   0  0  0  0  0  0  0  0  0  0  0  0  # atno 10765 bound_to 10752
  140.6692  133.9252  155.8484 H   0  0  0  0  0  0  0  0  0  0  0  0  # atno 11005 bound_to 11000
  146.2349  140.5581  142.8959 LP  0  0  0  0  0  0  0  0  0  0  0  0  # atno 17320 bound_to 7965
  144.7897  140.6006  143.6550 LP  0  0  0  0  0  0  0  0  0  0  0  0  # atno 17321 bound_to 7965
  140.6371  143.8962  150.6657 LP  0  0  0  0  0  0  0  0  0  0  0  0  # atno 17342 bound_to 10162
  140.2284  143.3754  152.1585 LP  0  0  0  0  0  0  0  0  0  0  0  0  # atno 17343 bound_to 10162
  156.2255  130.6763  151.1411 LP  0  0  0  0  0  0  0  0  0  0  0  0  # atno 17370 bound_to 10713
  157.7207  131.0683  150.6146 LP  0  0  0  0  0  0  0  0  0  0  0  0  # atno 17371 bound_to 10713
  141.0406  134.0627  157.3907 LP  0  0  0  0  0  0  0  0  0  0  0  0  # atno 17394 bound_to 11000
  139.8987  135.0156  156.7162 LP  0  0  0  0  0  0  0  0  0  0  0  0  # atno 17395 bound_to 11000

$$$$
