AV-unprocessed.smi:2302|AV-procd|sdf|9237|dock6
  -GOLD-   2272012453D 1   1.00000     0.00000
 Structure written by MMmdl.
 40 41  0  0  0  0  0  0  0  0  2 V2000
  138.4477  136.4891  157.9233 C   0  0  0  0  0  0  0  0  0  0  0  0
  138.3941  136.6717  156.4210 C   0  0  0  0  0  0  0  0  0  0  0  0
  137.4091  137.4836  155.8257 C   0  0  0  0  0  0  0  0  0  0  0  0
  137.4115  137.6094  154.4250 C   0  0  0  0  0  0  0  0  0  0  0  0
  138.3901  136.9208  153.6824 C   0  0  0  0  0  0  0  0  0  0  0  0
  139.3420  136.1239  154.3574 C   0  0  0  0  0  0  0  0  0  0  0  0
  140.2841  135.4698  153.5193 N   0  0  0  0  0  0  0  0  0  0  0  0
  141.5630  135.1582  153.7939 C   0  0  0  0  0  0  0  0  0  0  0  0
  142.1457  135.4003  154.8516 O   0  0  0  0  0  0  0  0  0  0  0  0
  142.1484  134.5391  152.7586 N   0  0  0  0  0  0  0  0  0  0  0  0
  143.5262  134.0586  152.7466 C   0  0  0  0  0  0  0  0  0  0  0  0
  143.8245  133.1904  151.5109 C   0  0  1  0  0  0  0  0  0  0  0  0
  144.1494  134.0526  150.2723 C   0  0  0  0  0  0  0  0  0  0  0  0
  144.5363  133.2152  149.1114 N   0  3  2  0  0  0  0  0  0  0  0  0
  143.3880  132.5818  148.4222 C   0  0  0  0  0  0  0  0  0  0  0  0
  145.6131  132.2636  149.4742 C   0  0  0  0  0  0  0  0  0  0  0  0
  145.2538  131.4672  150.7423 C   0  0  0  0  0  0  0  0  0  0  0  0
  144.9503  132.3668  151.8015 O   0  0  0  0  0  0  0  0  0  0  0  0
  139.3324  136.0110  155.7091 N   0  0  0  0  0  0  0  0  0  0  0  0
  137.8740  137.2632  158.4339 H   0  0  0  0  0  0  0  0  0  0  0  0
  139.4766  136.5402  158.2814 H   0  0  0  0  0  0  0  0  0  0  0  0
  138.0352  135.5183  158.1992 H   0  0  0  0  0  0  0  0  0  0  0  0
  136.6703  137.9966  156.4240 H   0  0  0  0  0  0  0  0  0  0  0  0
  136.6746  138.2225  153.9277 H   0  0  0  0  0  0  0  0  0  0  0  0
  138.4046  137.0053  152.6055 H   0  0  0  0  0  0  0  0  0  0  0  0
  139.9416  135.2032  152.6081 H   0  0  0  0  0  0  0  0  0  0  0  0
  141.6024  134.3804  151.9243 H   0  0  0  0  0  0  0  0  0  0  0  0
  144.2058  134.9118  152.7824 H   0  0  0  0  0  0  0  0  0  0  0  0
  143.7008  133.4869  153.6585 H   0  0  0  0  0  0  0  0  0  0  0  0
  142.9592  132.5604  151.2999 H   0  0  0  0  0  0  0  0  0  0  0  0
  143.3037  134.6895  150.0093 H   0  0  0  0  0  0  0  0  0  0  0  0
  144.9805  134.7211  150.5014 H   0  0  0  0  0  0  0  0  0  0  0  0
  142.8753  131.8619  149.0601 H   0  0  0  0  0  0  0  0  0  0  0  0
  143.7227  132.0603  147.5252 H   0  0  0  0  0  0  0  0  0  0  0  0
  142.6642  133.3364  148.1128 H   0  0  0  0  0  0  0  0  0  0  0  0
  145.8264  131.5931  148.6408 H   0  0  0  0  0  0  0  0  0  0  0  0
  146.5255  132.8337  149.6543 H   0  0  0  0  0  0  0  0  0  0  0  0
  144.4132  130.7947  150.5658 H   0  0  0  0  0  0  0  0  0  0  0  0
  146.0965  130.8441  151.0425 H   0  0  0  0  0  0  0  0  0  0  0  0
  144.9346  133.8457  148.4298 H   0  0  0  0  0  0  0  0  0  0  0  0
  1  2  1  0  0  0  0
  1 20  1  0  0  0  0
  1 21  1  0  0  0  0
  1 22  1  0  0  0  0
  2 19  1  0  0  0  0
  2  3  2  0  0  0  0
  3  4  1  0  0  0  0
  3 23  1  0  0  0  0
  4  5  2  0  0  0  0
  4 24  1  0  0  0  0
  5  6  1  0  0  0  0
  5 25  1  0  0  0  0
  6  7  1  0  0  0  0
  6 19  2  0  0  0  0
  7  8  1  0  0  0  0
  7 26  1  0  0  0  0
  8  9  2  0  0  0  0
  8 10  1  0  0  0  0
 10 11  1  0  0  0  0
 10 27  1  0  0  0  0
 11 12  1  0  0  0  0
 11 28  1  0  0  0  0
 11 29  1  0  0  0  0
 12 18  1  0  0  0  0
 12 13  1  0  0  0  0
 12 30  1  0  0  0  0
 13 14  1  0  0  0  0
 13 31  1  0  0  0  0
 13 32  1  0  0  0  0
 14 15  1  0  0  0  0
 14 16  1  0  0  0  0
 14 40  1  0  0  0  0
 15 33  1  0  0  0  0
 15 34  1  0  0  0  0
 15 35  1  0  0  0  0
 16 17  1  0  0  0  0
 16 36  1  0  0  0  0
 16 37  1  0  0  0  0
 17 18  1  0  0  0  0
 17 38  1  0  0  0  0
 17 39  1  0  0  0  0
M  CHG  1  14   1
M  END
> <s_m_source_file>
AV-unprocessed.smi

> <i_m_source_file_index>
2302

> <i_lp_mmshare_version>
43012

> <i_f3d_flags>
0

> <s_epik_input>
W0NIM11jMVtjSF1bY0hdW2NIXWMobjEpW05IXUMoPU8pW05IXVtDSDJdW0NAQEhdMltDSDJdTihbQ0gzXSlbQ0gyXVtDSDJdTzI=

> <s_epik_cmdline>
J2VwaWtfcHl0aG9uJywgJy1waCcsICc3LjAnLCAnLXRuJywgJzgnLCAnLW1hJywgJzIwMCcsICctbWV0YWxfYmluZGluZycsICctaW1hZScsICc8aW5maWxlLm1hZT4nLCAnLW9tYWUnLCAnPG91dGZpbGUubWFlPic=

> <r_epik_Ionization_Penalty>
0.204647

> <r_epik_Ionization_Penalty_Charging>
0.204578

> <r_epik_Ionization_Penalty_Neutral>
6.91954e-05

> <r_epik_State_Penalty>
0.194513

> <r_epik_Charging_Adjusted_Penalty>
0.399091

> <i_epik_Tot_Q>
1

> <i_epik_Tot_abs_Q>
1

> <r_epik_Metal_State_Penalty>
0.194515

> <b_epik_Metal_Only>
0

> <s_lp_Force_Field>
OPLS_2005

> <r_lp_Energy>
17.5871

> <b_lp_Chiralities_Consistent>
1

> <s_lp_Variant>
AV-unprocessed.smi:2302-2

> <Gold.Version>
5.8.1

> <Gold.Id.Protein>
6NUR|6NUR_protein|mol2

> <Gold.PLP.Fitness>
42.7990

> <Gold.PLP.PLP>
-36.2343

> <Gold.PLP.part.hbond>
-4.0000

> <Gold.PLP.part.metal>
0.0000

> <Gold.PLP.part.buried>
-5.2979

> <Gold.PLP.part.nonpolar>
-28.9704

> <Gold.PLP.part.repulsive>
0.5697

> <Gold.PLP.ligand.clash>
0.0000

> <Gold.PLP.ligand.torsion>
0.4691

> <Gold.PLP.Chemscore.Hbond>
2.5000

> <Gold.PLP.Chemscore.CHOScore>
0.0000

> <Gold.PLP.Chemscore.Metal>
0.0000

> <Gold.Chemscore.Hbonds>
donor molecule, donor type, donor heavy atom, donor atom, acceptor molecule, acceptor atom, score
      L1  H     7    26       P1 10187  0.90
      L1  H    14    40       P1  7921  1.00
      P1  H 11000 11005       L1    19  0.67

> <Gold.PLP.Chemscore.Internal.Correction>
0.0029

> <Gold.Rescore>
     Score         DG    S(hbond)    S(metal)    S(lipo)     H(rot)  DE(clash)    DE(int)     intcor
     17.29     -18.64       1.92        0.00      85.55       1.27       0.11       1.24       ----

> <Gold.Chemscore.Fitness>
17.2910

> <Gold.Chemscore.DG>
-18.6437

> <Gold.Chemscore.ZeroCoef>
-5.4800

> <Gold.Chemscore.Hbond>
1.9204

> <Gold.Chemscore.Metal>
0.0000

> <Gold.Chemscore.Lipo>
85.5533

> <Gold.Chemscore.Internal_Hbond>
0.0000

> <Gold.Chemscore.DEClash>
0.1086

> <Gold.Chemscore.DEInternal>
1.2440

> <Gold.Chemscore.Rot>
1.2736

> <Gold.Chemscore.Internal.Correction>
   9.000000E+99

> <Gold.Chemscore.Hbonds>
donor molecule, donor type, donor heavy atom, donor atom, acceptor molecule, acceptor atom, score
      L1  H     7    26       P1 10187  0.17
      L1  H    14    40       P1  7921  0.97
      P1  H 11000 11005       L1    19  0.49

> <Gold.Chemscore.Hbond.Weighted>
-6.4142

> <Gold.Chemscore.Metal.Weighted>
-0.0000

> <Gold.Chemscore.Lipo.Weighted>
-10.0097

> <Gold.Chemscore.Internal_Hbond.Weighted>
0.0000

> <Gold.Chemscore.DEClash.Weighted>
0.1086

> <Gold.Chemscore.DEInternal.Weighted>
1.2440

> <Gold.Chemscore.Rot.Weighted>
3.2603

> <Gold.Chemscore.Internal.Correction.Weighted>
   9.000000E+99

> <Gold.Protein.RotatedTorsions>
[ 6907 6896 6895 6894 ] final  -71.24 input  -60.11 | X-H torsion
[ 7974 7965 7964 7962 ] final   69.88 input  175.53 | X-H torsion
[ 8008 7997 7996 7995 ] final  128.99 input   59.86 | X-H torsion
[ 10167 10162 10161 10158 ] final   24.71 input  -65.29 | X-H torsion
[ 10718 10713 10712 10709 ] final  -82.97 input   66.30 | X-H torsion
[ 10763 10752 10751 10750 ] final -131.49 input  -60.55 | X-H torsion
[ 11005 11000 10999 10996 ] final   73.54 input  -57.11 | X-H torsion

> <Gold.Protein.ActiveResidues>
 VAL166  LYS551  ARG553  GLY616  TRP617  ASP618  TYR619  PRO620  LYS621  CYS622 
 ASP623  PHE694  ASN695  SER759  ASP760  ASP761  ALA762  ILE779  LEU786  VAL792 
 PHE793  MET794  SER795  GLU796  ALA797  LYS798  CYS799  TRP800  GLU811  SER814 

> <Gold.Protein.RotatedAtoms>
  150.7221  134.5337  159.5712 H   0  0  0  0  0  0  0  0  0  0  0  0  # atno 6907 bound_to 6896
  152.2864  134.7768  160.0395 H   0  0  0  0  0  0  0  0  0  0  0  0  # atno 6908 bound_to 6896
  151.8397  133.3386  159.3676 H   0  0  0  0  0  0  0  0  0  0  0  0  # atno 6909 bound_to 6896
  145.7850  139.2906  143.1243 H   0  0  0  0  0  0  0  0  0  0  0  0  # atno 7974 bound_to 7965
  156.2927  140.2631  156.2526 H   0  0  0  0  0  0  0  0  0  0  0  0  # atno 8008 bound_to 7997
  154.9867  140.0389  157.2320 H   0  0  0  0  0  0  0  0  0  0  0  0  # atno 8009 bound_to 7997
  154.7723  140.2780  155.6133 H   0  0  0  0  0  0  0  0  0  0  0  0  # atno 8010 bound_to 7997
  140.5166  144.0072  150.6397 H   0  0  0  0  0  0  0  0  0  0  0  0  # atno 10167 bound_to 10162
  156.0025  130.4651  150.4186 H   0  0  0  0  0  0  0  0  0  0  0  0  # atno 10718 bound_to 10713
  154.8750  135.3828  154.4254 H   0  0  0  0  0  0  0  0  0  0  0  0  # atno 10763 bound_to 10752
  153.4954  135.7030  153.5866 H   0  0  0  0  0  0  0  0  0  0  0  0  # atno 10764 bound_to 10752
  153.4221  135.3899  155.2085 H   0  0  0  0  0  0  0  0  0  0  0  0  # atno 10765 bound_to 10752
  139.9435  134.7355  156.1038 H   0  0  0  0  0  0  0  0  0  0  0  0  # atno 11005 bound_to 11000
  146.0035  140.8499  143.0006 LP  0  0  0  0  0  0  0  0  0  0  0  0  # atno 17320 bound_to 7965
  144.6790  140.2387  143.7346 LP  0  0  0  0  0  0  0  0  0  0  0  0  # atno 17321 bound_to 7965
  140.3410  143.3020  152.0588 LP  0  0  0  0  0  0  0  0  0  0  0  0  # atno 17342 bound_to 10162
  139.4911  144.6443  151.6812 LP  0  0  0  0  0  0  0  0  0  0  0  0  # atno 17343 bound_to 10162
  157.2243  131.0489  151.2528 LP  0  0  0  0  0  0  0  0  0  0  0  0  # atno 17370 bound_to 10713
  157.3771  130.7211  149.6604 LP  0  0  0  0  0  0  0  0  0  0  0  0  # atno 17371 bound_to 10713
  141.1078  133.6654  156.2905 LP  0  0  0  0  0  0  0  0  0  0  0  0  # atno 17394 bound_to 11000
  140.5892  134.5668  157.5496 LP  0  0  0  0  0  0  0  0  0  0  0  0  # atno 17395 bound_to 11000

$$$$
