AV-unprocessed.smi:1492|AV-procd|sdf|6042|dock4
  -GOLD-   22720 6153D 1   1.00000     0.00000
 Structure written by MMmdl.
 53 54  0  0  0  0  0  0  0  0  2 V2000
  145.9309  143.0617  154.1909 C   0  0  0  0  0  0  0  0  0  0  0  0
  146.4788  141.6265  154.0671 C   0  0  0  0  0  0  0  0  0  0  0  0
  146.8093  140.8564  155.3897 C   0  0  1  0  0  0  0  0  0  0  0  0
  146.7069  141.8446  156.5781 C   0  0  0  0  0  0  0  0  0  0  0  0
  145.7635  139.7145  155.6012 C   0  0  0  0  0  0  0  0  0  0  0  0
  145.2808  139.1548  154.3402 N   0  0  0  0  0  0  0  0  0  0  0  0
  145.3198  137.8653  153.9727 C   0  0  0  0  0  0  0  0  0  0  0  0
  145.9059  136.9940  154.6117 O   0  0  0  0  0  0  0  0  0  0  0  0
  144.5532  137.4896  152.7016 C   0  0  0  0  0  0  0  0  0  0  0  0
  144.4991  135.9973  152.3691 C   0  0  0  0  0  0  0  0  0  0  0  0
  143.8229  135.0908  153.1196 C   0  0  0  0  0  0  0  0  0  0  0  0
  143.0269  135.4331  154.3663 C   0  0  0  0  0  0  0  0  0  0  0  0
  143.8227  133.7469  152.7897 N   0  0  0  0  0  0  0  0  0  0  0  0
  144.5505  133.3517  151.6795 C   0  0  0  0  0  0  0  0  0  0  0  0
  144.5034  131.8621  151.4207 C   0  0  0  0  0  0  0  0  0  0  0  0
  145.2359  134.1395  150.9084 N   0  0  0  0  0  0  0  0  0  0  0  0
  145.2600  135.5136  151.1933 C   0  0  0  0  0  0  0  0  0  0  0  0
  145.9114  136.2842  150.4895 O   0  0  0  0  0  0  0  0  0  0  0  0
  148.1992  140.2589  155.3027 N   0  3  0  0  0  0  0  0  0  0  0  0
  148.4887  139.4107  154.1098 C   0  0  0  0  0  0  0  0  0  0  0  0
  149.8741  138.7505  154.2231 C   0  0  0  0  0  0  0  0  0  0  0  0
  150.8761  139.7388  154.4056 O   0  0  0  0  0  0  0  0  0  0  0  0
  150.6663  140.4780  155.5985 C   0  0  0  0  0  0  0  0  0  0  0  0
  149.3236  141.2182  155.5104 C   0  0  0  0  0  0  0  0  0  0  0  0
  143.2957  133.1071  153.3673 H   0  0  0  0  0  0  0  0  0  0  0  0
  145.7927  143.4938  153.1997 H   0  0  0  0  0  0  0  0  0  0  0  0
  146.6151  143.7175  154.7277 H   0  0  0  0  0  0  0  0  0  0  0  0
  144.9626  143.1060  154.6846 H   0  0  0  0  0  0  0  0  0  0  0  0
  145.7811  141.0412  153.4667 H   0  0  0  0  0  0  0  0  0  0  0  0
  147.3809  141.7293  153.4660 H   0  0  0  0  0  0  0  0  0  0  0  0
  145.7009  142.2517  156.6737 H   0  0  0  0  0  0  0  0  0  0  0  0
  147.3865  142.6894  156.4658 H   0  0  0  0  0  0  0  0  0  0  0  0
  146.9242  141.3693  157.5338 H   0  0  0  0  0  0  0  0  0  0  0  0
  146.2098  138.8929  156.1606 H   0  0  0  0  0  0  0  0  0  0  0  0
  144.9350  140.0305  156.2341 H   0  0  0  0  0  0  0  0  0  0  0  0
  144.8060  139.7944  153.7200 H   0  0  0  0  0  0  0  0  0  0  0  0
  143.5438  137.8883  152.7984 H   0  0  0  0  0  0  0  0  0  0  0  0
  144.9855  138.0272  151.8561 H   0  0  0  0  0  0  0  0  0  0  0  0
  143.6602  135.9370  155.0971 H   0  0  0  0  0  0  0  0  0  0  0  0
  142.6153  134.5407  154.8395 H   0  0  0  0  0  0  0  0  0  0  0  0
  142.1952  136.0921  154.1163 H   0  0  0  0  0  0  0  0  0  0  0  0
  145.1216  131.5954  150.5626 H   0  0  0  0  0  0  0  0  0  0  0  0
  143.4806  131.5442  151.2167 H   0  0  0  0  0  0  0  0  0  0  0  0
  144.8719  131.3140  152.2883 H   0  0  0  0  0  0  0  0  0  0  0  0
  147.7726  138.5987  154.0059 H   0  0  0  0  0  0  0  0  0  0  0  0
  148.4382  140.0112  153.2012 H   0  0  0  0  0  0  0  0  0  0  0  0
  149.8977  138.0371  155.0472 H   0  0  0  0  0  0  0  0  0  0  0  0
  150.0956  138.1890  153.3153 H   0  0  0  0  0  0  0  0  0  0  0  0
  150.6931  139.8192  156.4663 H   0  0  0  0  0  0  0  0  0  0  0  0
  151.4812  141.1923  155.7170 H   0  0  0  0  0  0  0  0  0  0  0  0
  149.3706  141.9312  154.6874 H   0  0  0  0  0  0  0  0  0  0  0  0
  149.2009  141.7925  156.4262 H   0  0  0  0  0  0  0  0  0  0  0  0
  148.2455  139.6226  156.0857 H   0  0  0  0  0  0  0  0  0  0  0  0
  1  2  1  0  0  0  0
  1 26  1  0  0  0  0
  1 27  1  0  0  0  0
  1 28  1  0  0  0  0
  2  3  1  0  0  0  0
  2 29  1  0  0  0  0
  2 30  1  0  0  0  0
  3  4  1  0  0  0  0
  3  5  1  0  0  0  0
  3 19  1  0  0  0  0
  4 31  1  0  0  0  0
  4 32  1  0  0  0  0
  4 33  1  0  0  0  0
  5  6  1  0  0  0  0
  5 34  1  0  0  0  0
  5 35  1  0  0  0  0
  6  7  1  0  0  0  0
  6 36  1  0  0  0  0
  7  8  2  0  0  0  0
  7  9  1  0  0  0  0
  9 37  1  0  0  0  0
  9 38  1  0  0  0  0
  9 10  1  0  0  0  0
 10 17  1  0  0  0  0
 10 11  2  0  0  0  0
 11 12  1  0  0  0  0
 11 13  1  0  0  0  0
 12 39  1  0  0  0  0
 12 40  1  0  0  0  0
 12 41  1  0  0  0  0
 13 25  1  0  0  0  0
 13 14  1  0  0  0  0
 14 15  1  0  0  0  0
 14 16  2  0  0  0  0
 15 42  1  0  0  0  0
 15 43  1  0  0  0  0
 15 44  1  0  0  0  0
 16 17  1  0  0  0  0
 17 18  2  0  0  0  0
 19 24  1  0  0  0  0
 19 20  1  0  0  0  0
 19 53  1  0  0  0  0
 20 21  1  0  0  0  0
 20 45  1  0  0  0  0
 20 46  1  0  0  0  0
 21 22  1  0  0  0  0
 21 47  1  0  0  0  0
 21 48  1  0  0  0  0
 22 23  1  0  0  0  0
 23 24  1  0  0  0  0
 23 49  1  0  0  0  0
 23 50  1  0  0  0  0
 24 51  1  0  0  0  0
 24 52  1  0  0  0  0
M  CHG  1  19   1
M  END
> <s_m_source_file>
AV-unprocessed.smi

> <i_m_source_file_index>
1492

> <i_lp_mmshare_version>
43012

> <i_f3d_flags>
0

> <s_epik_input>
W0NIMl0xW0NIMl1PW0NIMl1bQ0gyXU4xW0NAQF0oW0NIM10pKFtDSDJdW0NIM10pW0NIMl1bTkhdQyg9TylbQ0gyXWMyYyhbQ0gzXSluYyhbQ0gzXSlbbkhdYzI9Tw==

> <s_epik_cmdline>
J2VwaWtfcHl0aG9uJywgJy1waCcsICc3LjAnLCAnLXRuJywgJzgnLCAnLW1hJywgJzIwMCcsICctbWV0YWxfYmluZGluZycsICctaW1hZScsICc8aW5maWxlLm1hZT4nLCAnLW9tYWUnLCAnPG91dGZpbGUubWFlPic=

> <r_lp_tautomer_probability>
0.156392

> <r_epik_Ionization_Penalty>
0.523233

> <r_epik_Ionization_Penalty_Charging>
0.523147

> <r_epik_Ionization_Penalty_Neutral>
8.52784e-05

> <r_epik_State_Penalty>
1.66677

> <r_epik_Charging_Adjusted_Penalty>
2.18991

> <i_epik_Tot_Q>
1

> <i_epik_Tot_abs_Q>
1

> <r_epik_Metal_State_Penalty>
1.84524

> <b_epik_Metal_Only>
0

> <s_lp_Force_Field>
OPLS_2005

> <r_lp_Energy>
37.6543

> <b_lp_Chiralities_Consistent>
1

> <s_lp_Variant>
AV-unprocessed.smi:1492-7

> <Gold.Version>
5.8.1

> <Gold.Id.Protein>
6NUR|6NUR_protein|mol2

> <Gold.PLP.Fitness>
39.3572

> <Gold.PLP.PLP>
-33.9684

> <Gold.PLP.part.hbond>
-3.0000

> <Gold.PLP.part.metal>
0.0000

> <Gold.PLP.part.buried>
-3.6088

> <Gold.PLP.part.nonpolar>
-27.8427

> <Gold.PLP.part.repulsive>
0.6335

> <Gold.PLP.ligand.clash>
0.0000

> <Gold.PLP.ligand.torsion>
1.9260

> <Gold.PLP.Chemscore.Hbond>
2.9913

> <Gold.PLP.Chemscore.CHOScore>
0.0000

> <Gold.PLP.Chemscore.Metal>
0.0000

> <Gold.Chemscore.Hbonds>
donor molecule, donor type, donor heavy atom, donor atom, acceptor molecule, acceptor atom, score
      L1  H     6    36       P1 10175  1.00
      L1  H    13    25       P1 10957  0.98
      P1  H  7989  7998       L1    22  1.00

> <Gold.PLP.Chemscore.Internal.Correction>
0.2671

> <Gold.Rescore>
     Score         DG    S(hbond)    S(metal)    S(lipo)     H(rot)  DE(clash)    DE(int)     intcor
     15.29     -17.25       2.90        0.00      65.77       2.19       0.04       1.93       ----

> <Gold.Chemscore.Fitness>
15.2890

> <Gold.Chemscore.DG>
-17.2520

> <Gold.Chemscore.ZeroCoef>
-5.4800

> <Gold.Chemscore.Hbond>
2.9013

> <Gold.Chemscore.Metal>
0.0000

> <Gold.Chemscore.Lipo>
65.7654

> <Gold.Chemscore.Internal_Hbond>
0.0000

> <Gold.Chemscore.DEClash>
0.0358

> <Gold.Chemscore.DEInternal>
1.9271

> <Gold.Chemscore.Rot>
2.1926

> <Gold.Chemscore.Internal.Correction>
   9.000000E+99

> <Gold.Chemscore.Hbonds>
donor molecule, donor type, donor heavy atom, donor atom, acceptor molecule, acceptor atom, score
      L1  H     6    36       P1 10175  1.00
      L1  H    13    25       P1 10957  0.80
      P1  H  7989  7998       L1    22  0.30

> <Gold.Chemscore.Hbond.Weighted>
-9.6904

> <Gold.Chemscore.Metal.Weighted>
-0.0000

> <Gold.Chemscore.Lipo.Weighted>
-7.6946

> <Gold.Chemscore.Internal_Hbond.Weighted>
0.0000

> <Gold.Chemscore.DEClash.Weighted>
0.0358

> <Gold.Chemscore.DEInternal.Weighted>
1.9271

> <Gold.Chemscore.Rot.Weighted>
5.6129

> <Gold.Chemscore.Internal.Correction.Weighted>
   9.000000E+99

> <Gold.Protein.RotatedTorsions>
[ 6907 6896 6895 6894 ] final -168.42 input  -60.11 | X-H torsion
[ 7974 7965 7964 7962 ] final   23.96 input  175.53 | X-H torsion
[ 8008 7997 7996 7995 ] final  122.64 input   59.86 | X-H torsion
[ 10167 10162 10161 10158 ] final  127.64 input  -65.29 | X-H torsion
[ 10718 10713 10712 10709 ] final  126.77 input   66.30 | X-H torsion
[ 10763 10752 10751 10750 ] final -172.76 input  -60.55 | X-H torsion
[ 11005 11000 10999 10996 ] final  -51.06 input  -57.11 | X-H torsion

> <Gold.Protein.ActiveResidues>
 VAL166  LYS551  ARG553  GLY616  TRP617  ASP618  TYR619  PRO620  LYS621  CYS622 
 ASP623  PHE694  ASN695  SER759  ASP760  ASP761  ALA762  ILE779  LEU786  VAL792 
 PHE793  MET794  SER795  GLU796  ALA797  LYS798  CYS799  TRP800  GLU811  SER814 

> <Gold.Protein.RotatedAtoms>
  151.4752  133.3559  159.2829 H   0  0  0  0  0  0  0  0  0  0  0  0  # atno 6907 bound_to 6896
  150.8934  134.8341  159.7320 H   0  0  0  0  0  0  0  0  0  0  0  0  # atno 6908 bound_to 6896
  152.4836  134.4665  159.9673 H   0  0  0  0  0  0  0  0  0  0  0  0  # atno 6909 bound_to 6896
  146.1960  139.7671  142.8797 H   0  0  0  0  0  0  0  0  0  0  0  0  # atno 7974 bound_to 7965
  156.2735  140.2781  156.1499 H   0  0  0  0  0  0  0  0  0  0  0  0  # atno 8008 bound_to 7997
  155.0864  140.0388  157.2673 H   0  0  0  0  0  0  0  0  0  0  0  0  # atno 8009 bound_to 7997
  154.6923  140.2632  155.6806 H   0  0  0  0  0  0  0  0  0  0  0  0  # atno 8010 bound_to 7997
  139.5568  144.6854  151.4159 H   0  0  0  0  0  0  0  0  0  0  0  0  # atno 10167 bound_to 10162
  157.5390  131.1097  150.8888 H   0  0  0  0  0  0  0  0  0  0  0  0  # atno 10718 bound_to 10713
  154.6156  135.2869  155.0383 H   0  0  0  0  0  0  0  0  0  0  0  0  # atno 10763 bound_to 10752
  154.1597  135.6490  153.4987 H   0  0  0  0  0  0  0  0  0  0  0  0  # atno 10764 bound_to 10752
  153.0214  135.5375  154.6926 H   0  0  0  0  0  0  0  0  0  0  0  0  # atno 10765 bound_to 10752
  141.0850  133.6644  156.3822 H   0  0  0  0  0  0  0  0  0  0  0  0  # atno 11005 bound_to 11000
  145.3642  141.0331  143.3268 LP  0  0  0  0  0  0  0  0  0  0  0  0  # atno 17320 bound_to 7965
  144.8581  139.5218  143.6825 LP  0  0  0  0  0  0  0  0  0  0  0  0  # atno 17321 bound_to 7965
  140.6842  143.8012  150.7163 LP  0  0  0  0  0  0  0  0  0  0  0  0  # atno 17342 bound_to 10162
  140.1475  143.4387  152.2153 LP  0  0  0  0  0  0  0  0  0  0  0  0  # atno 17343 bound_to 10162
  156.9447  130.5397  149.5281 LP  0  0  0  0  0  0  0  0  0  0  0  0  # atno 17370 bound_to 10713
  156.0482  130.5555  150.8929 LP  0  0  0  0  0  0  0  0  0  0  0  0  # atno 17371 bound_to 10713
  140.5383  134.6146  157.5372 LP  0  0  0  0  0  0  0  0  0  0  0  0  # atno 17394 bound_to 11000
  139.9668  134.7360  156.0123 LP  0  0  0  0  0  0  0  0  0  0  0  0  # atno 17395 bound_to 11000

$$$$
