AV-unprocessed.smi:1581|AV-procd|sdf|6360|dock10
  -GOLD-   22720 6583D 1   1.00000     0.00000
 Structure written by MMmdl.
 34 35  0  0  0  0  0  0  0  0  1 V2000
  146.3497  142.4880  156.8916 C   0  0  0  0  0  0  0  0  0  0  0  0
  147.3060  141.5418  156.1742 C   0  0  0  0  0  0  0  0  0  0  0  0
  147.2465  140.3299  156.3785 O   0  0  0  0  0  0  0  0  0  0  0  0
  148.1884  142.1115  155.3396 N   0  0  0  0  0  0  0  0  0  0  0  0
  149.1930  141.3896  154.5641 C   0  0  0  0  0  0  0  0  0  0  0  0
  150.3302  140.7884  155.3815 C   0  0  0  0  0  0  0  0  0  0  0  0
  150.8748  139.5463  155.0014 C   0  0  0  0  0  0  0  0  0  0  0  0
  151.9342  139.0156  155.7600 C   0  0  0  0  0  0  0  0  0  0  0  0
  152.4566  139.6368  156.8375 N   0  0  0  0  0  0  0  0  0  0  0  0
  151.9408  140.8319  157.2172 C   0  0  0  0  0  0  0  0  0  0  0  0
  152.4872  141.4686  158.3519 N   0  0  0  0  0  0  0  0  0  0  0  0
  152.0695  142.8543  158.5496 C   0  0  0  0  0  0  0  0  0  0  0  0
  152.9373  143.5280  159.6270 C   0  0  0  0  0  0  0  0  0  0  0  0
  152.9046  142.7603  160.8258 O   0  0  0  0  0  0  0  0  0  0  0  0
  153.4219  141.4485  160.6295 C   0  0  0  0  0  0  0  0  0  0  0  0
  152.5615  140.7039  159.5951 C   0  0  0  0  0  0  0  0  0  0  0  0
  150.8819  141.4440  156.5056 C   0  0  0  0  0  0  0  0  0  0  0  0
  146.9002  143.1447  157.5656 H   0  0  0  0  0  0  0  0  0  0  0  0
  145.6194  141.9300  157.4787 H   0  0  0  0  0  0  0  0  0  0  0  0
  145.8097  143.1038  156.1719 H   0  0  0  0  0  0  0  0  0  0  0  0
  148.1671  143.1155  155.2361 H   0  0  0  0  0  0  0  0  0  0  0  0
  148.7088  140.6029  153.9829 H   0  0  0  0  0  0  0  0  0  0  0  0
  149.6236  142.0834  153.8421 H   0  0  0  0  0  0  0  0  0  0  0  0
  150.4921  139.0097  154.1457 H   0  0  0  0  0  0  0  0  0  0  0  0
  152.3747  138.0661  155.4942 H   0  0  0  0  0  0  0  0  0  0  0  0
  152.1362  143.4306  157.6278 H   0  0  0  0  0  0  0  0  0  0  0  0
  151.0223  142.8649  158.8546 H   0  0  0  0  0  0  0  0  0  0  0  0
  153.9664  143.6395  159.2824 H   0  0  0  0  0  0  0  0  0  0  0  0
  152.5623  144.5297  159.8377 H   0  0  0  0  0  0  0  0  0  0  0  0
  154.4627  141.5007  160.3053 H   0  0  0  0  0  0  0  0  0  0  0  0
  153.4110  140.9158  161.5804 H   0  0  0  0  0  0  0  0  0  0  0  0
  151.5552  140.5513  159.9882 H   0  0  0  0  0  0  0  0  0  0  0  0
  152.9917  139.7194  159.4064 H   0  0  0  0  0  0  0  0  0  0  0  0
  150.5072  142.4089  156.8119 H   0  0  0  0  0  0  0  0  0  0  0  0
  1  2  1  0  0  0  0
  1 18  1  0  0  0  0
  1 19  1  0  0  0  0
  1 20  1  0  0  0  0
  2  3  2  0  0  0  0
  2  4  1  0  0  0  0
  4  5  1  0  0  0  0
  4 21  1  0  0  0  0
  5  6  1  0  0  0  0
  5 22  1  0  0  0  0
  5 23  1  0  0  0  0
  6 17  1  0  0  0  0
  6  7  2  0  0  0  0
  7  8  1  0  0  0  0
  7 24  1  0  0  0  0
  8  9  2  0  0  0  0
  8 25  1  0  0  0  0
  9 10  1  0  0  0  0
 10 11  1  0  0  0  0
 10 17  2  0  0  0  0
 11 16  1  0  0  0  0
 11 12  1  0  0  0  0
 12 13  1  0  0  0  0
 12 26  1  0  0  0  0
 12 27  1  0  0  0  0
 13 14  1  0  0  0  0
 13 28  1  0  0  0  0
 13 29  1  0  0  0  0
 14 15  1  0  0  0  0
 15 16  1  0  0  0  0
 15 30  1  0  0  0  0
 15 31  1  0  0  0  0
 16 32  1  0  0  0  0
 16 33  1  0  0  0  0
 17 34  1  0  0  0  0
M  END
> <s_m_source_file>
AV-unprocessed.smi

> <i_m_source_file_index>
1581

> <i_lp_mmshare_version>
43012

> <i_f3d_flags>
0

> <s_epik_input>
W0NIM11DKD1PKVtOSF1bQ0gyXWMxW2NIXVtjSF1uYyhbY0hdMSlOMltDSDJdW0NIMl1PW0NIMl1bQ0gyXTI=

> <s_epik_cmdline>
J2VwaWtfcHl0aG9uJywgJy1waCcsICc3LjAnLCAnLXRuJywgJzgnLCAnLW1hJywgJzIwMCcsICctbWV0YWxfYmluZGluZycsICctaW1hZScsICc8aW5maWxlLm1hZT4nLCAnLW9tYWUnLCAnPG91dGZpbGUubWFlPic=

> <r_lp_tautomer_probability>
1

> <r_epik_Ionization_Penalty>
0.0056686

> <r_epik_Ionization_Penalty_Charging>
0

> <r_epik_Ionization_Penalty_Neutral>
0.0056686

> <r_epik_State_Penalty>
0.00415614

> <r_epik_Charging_Adjusted_Penalty>
0.00415614

> <i_epik_Tot_Q>
0

> <i_epik_Tot_abs_Q>
0

> <r_epik_Metal_State_Penalty>
-0

> <b_epik_Metal_Only>
0

> <s_lp_Force_Field>
OPLS_2005

> <r_lp_Energy>
12.8791

> <b_lp_Chiralities_Consistent>
1

> <s_lp_Variant>
AV-unprocessed.smi:1581-1

> <Gold.Version>
5.8.1

> <Gold.Id.Protein>
6NUR|6NUR_protein|mol2

> <Gold.PLP.Fitness>
37.8166

> <Gold.PLP.PLP>
-32.5856

> <Gold.PLP.part.hbond>
-2.0000

> <Gold.PLP.part.metal>
0.0000

> <Gold.PLP.part.buried>
-2.1570

> <Gold.PLP.part.nonpolar>
-27.4148

> <Gold.PLP.part.repulsive>
0.1510

> <Gold.PLP.ligand.clash>
0.0000

> <Gold.PLP.ligand.torsion>
0.5408

> <Gold.PLP.Chemscore.Hbond>
2.0000

> <Gold.PLP.Chemscore.CHOScore>
0.0000

> <Gold.PLP.Chemscore.Metal>
0.0000

> <Gold.Chemscore.Hbonds>
donor molecule, donor type, donor heavy atom, donor atom, acceptor molecule, acceptor atom, score
      L1  H     4    21       P1  8028  0.99
      P1  H  7997  8008       L1     9  1.00

> <Gold.PLP.Chemscore.Internal.Correction>
0.3126

> <Gold.Rescore>
     Score         DG    S(hbond)    S(metal)    S(lipo)     H(rot)  DE(clash)    DE(int)     intcor
     14.61     -15.34       1.27        0.00      81.95       1.54       0.17       0.56       ----

> <Gold.Chemscore.Fitness>
14.6081

> <Gold.Chemscore.DG>
-15.3447

> <Gold.Chemscore.ZeroCoef>
-5.4800

> <Gold.Chemscore.Hbond>
1.2669

> <Gold.Chemscore.Metal>
0.0000

> <Gold.Chemscore.Lipo>
81.9479

> <Gold.Chemscore.Internal_Hbond>
0.0000

> <Gold.Chemscore.DEClash>
0.1736

> <Gold.Chemscore.DEInternal>
0.5630

> <Gold.Chemscore.Rot>
1.5448

> <Gold.Chemscore.Internal.Correction>
   9.000000E+99

> <Gold.Chemscore.Hbonds>
donor molecule, donor type, donor heavy atom, donor atom, acceptor molecule, acceptor atom, score
      L1  H     4    21       P1  8028  0.89
      P1  H  7997  8008       L1     9  0.24

> <Gold.Chemscore.Hbond.Weighted>
-4.2314

> <Gold.Chemscore.Metal.Weighted>
-0.0000

> <Gold.Chemscore.Lipo.Weighted>
-9.5879

> <Gold.Chemscore.Internal_Hbond.Weighted>
0.0000

> <Gold.Chemscore.DEClash.Weighted>
0.1736

> <Gold.Chemscore.DEInternal.Weighted>
0.5630

> <Gold.Chemscore.Rot.Weighted>
3.9546

> <Gold.Chemscore.Internal.Correction.Weighted>
   9.000000E+99

> <Gold.Protein.RotatedTorsions>
[ 6907 6896 6895 6894 ] final   46.57 input  -60.11 | X-H torsion
[ 7974 7965 7964 7962 ] final  -19.76 input  175.53 | X-H torsion
[ 8008 7997 7996 7995 ] final  -48.17 input   59.86 | X-H torsion
[ 10167 10162 10161 10158 ] final  -72.23 input  -65.29 | X-H torsion
[ 10718 10713 10712 10709 ] final   80.72 input   66.30 | X-H torsion
[ 10763 10752 10751 10750 ] final -115.20 input  -60.55 | X-H torsion
[ 11005 11000 10999 10996 ] final  -51.72 input  -57.11 | X-H torsion

> <Gold.Protein.ActiveResidues>
 VAL166  LYS551  ARG553  GLY616  TRP617  ASP618  TYR619  PRO620  LYS621  CYS622 
 ASP623  PHE694  ASN695  SER759  ASP760  ASP761  ALA762  ILE779  LEU786  VAL792 
 PHE793  MET794  SER795  GLU796  ALA797  LYS798  CYS799  TRP800  GLU811  SER814 

> <Gold.Protein.RotatedAtoms>
  152.2579  134.8065  160.0435 H   0  0  0  0  0  0  0  0  0  0  0  0  # atno 6907 bound_to 6896
  151.8722  133.3473  159.3746 H   0  0  0  0  0  0  0  0  0  0  0  0  # atno 6908 bound_to 6896
  150.7106  134.5029  159.5614 H   0  0  0  0  0  0  0  0  0  0  0  0  # atno 6909 bound_to 6896
  146.1824  140.4107  142.8489 H   0  0  0  0  0  0  0  0  0  0  0  0  # atno 7974 bound_to 7965
  154.4025  140.1328  156.4295 H   0  0  0  0  0  0  0  0  0  0  0  0  # atno 8008 bound_to 7997
  155.7565  140.3487  155.5156 H   0  0  0  0  0  0  0  0  0  0  0  0  # atno 8009 bound_to 7997
  155.8900  140.1001  157.1416 H   0  0  0  0  0  0  0  0  0  0  0  0  # atno 8010 bound_to 7997
  140.5209  143.2332  151.7431 H   0  0  0  0  0  0  0  0  0  0  0  0  # atno 10167 bound_to 10162
  157.6814  130.9972  150.2120 H   0  0  0  0  0  0  0  0  0  0  0  0  # atno 10718 bound_to 10713
  154.8471  135.4390  154.1626 H   0  0  0  0  0  0  0  0  0  0  0  0  # atno 10763 bound_to 10752
  153.2759  135.6949  153.7440 H   0  0  0  0  0  0  0  0  0  0  0  0  # atno 10764 bound_to 10752
  153.6663  135.3426  155.3116 H   0  0  0  0  0  0  0  0  0  0  0  0  # atno 10765 bound_to 10752
  141.0886  133.6637  156.3919 H   0  0  0  0  0  0  0  0  0  0  0  0  # atno 11005 bound_to 11000
  144.8338  140.6749  143.6274 LP  0  0  0  0  0  0  0  0  0  0  0  0  # atno 17320 bound_to 7965
  145.4037  139.1593  143.4163 LP  0  0  0  0  0  0  0  0  0  0  0  0  # atno 17321 bound_to 7965
  139.4923  144.4256  151.9930 LP  0  0  0  0  0  0  0  0  0  0  0  0  # atno 17342 bound_to 10162
  140.3352  144.3269  150.5978 LP  0  0  0  0  0  0  0  0  0  0  0  0  # atno 17343 bound_to 10162
  156.2789  130.3731  149.7955 LP  0  0  0  0  0  0  0  0  0  0  0  0  # atno 17370 bound_to 10713
  156.5650  130.8400  151.3340 LP  0  0  0  0  0  0  0  0  0  0  0  0  # atno 17371 bound_to 10713
  140.5304  134.6218  157.5348 LP  0  0  0  0  0  0  0  0  0  0  0  0  # atno 17394 bound_to 11000
  139.9708  134.7296  156.0045 LP  0  0  0  0  0  0  0  0  0  0  0  0  # atno 17395 bound_to 11000

$$$$
