AV-unprocessed.smi:1178|AV-procd|sdf|4956|dock5
  -GOLD-   22720 3543D 1   1.00000     0.00000
 Structure written by MMmdl.
 33 34  0  0  0  0  0  0  0  0  1 V2000
  150.1215  140.2085  154.4341 O   0  0  0  0  0  0  0  0  0  0  0  0
  149.4417  141.2006  154.7007 C   0  0  0  0  0  0  0  0  0  0  0  0
  148.1270  141.4721  153.9559 C   0  0  0  0  0  0  0  0  0  0  0  0
  147.2253  140.3112  153.9574 N   0  0  0  0  0  0  0  0  0  0  0  0
  147.1299  139.4958  152.8386 C   0  0  0  0  0  0  0  0  0  0  0  0
  146.3381  138.3989  152.7810 C   0  0  0  0  0  0  0  0  0  0  0  0
  145.5256  138.0132  153.9298 C   0  0  0  0  0  0  0  0  0  0  0  0
  144.7797  137.0375  153.9755 O   0  0  0  0  0  0  0  0  0  0  0  0
  145.6487  138.8585  155.0355 N   0  0  0  0  0  0  0  0  0  0  0  0
  146.4623  139.9905  155.1014 C   0  0  0  0  0  0  0  0  0  0  0  0
  146.4979  140.6665  156.1286 O   0  0  0  0  0  0  0  0  0  0  0  0
  149.7962  142.1059  155.6253 N   0  0  0  0  0  0  0  0  0  0  0  0
  150.9889  142.0344  156.4623 C   0  0  0  0  0  0  0  0  0  0  0  0
  150.6410  141.8745  157.9573 C   0  0  0  0  0  0  0  0  0  0  0  0
  151.8449  141.8005  158.7969 N   0  0  0  0  0  0  0  0  0  0  0  0
  152.8126  140.8743  158.6064 C   0  0  0  0  0  0  0  0  0  0  0  0
  152.7987  140.0123  157.7286 O   0  0  0  0  0  0  0  0  0  0  0  0
  153.9776  140.9605  159.5996 C   0  0  0  0  0  0  0  0  0  0  0  0
  153.5592  142.3273  160.6844 S   0  0  0  0  0  0  0  0  0  0  0  0
  152.0686  142.6269  159.8329 C   0  0  0  0  0  0  0  0  0  0  0  0
  151.3070  143.5262  160.1875 O   0  0  0  0  0  0  0  0  0  0  0  0
  145.1058  138.6305  155.8557 H   0  0  0  0  0  0  0  0  0  0  0  0
  147.6240  142.3393  154.3889 H   0  0  0  0  0  0  0  0  0  0  0  0
  148.3708  141.7615  152.9329 H   0  0  0  0  0  0  0  0  0  0  0  0
  147.7188  139.7394  151.9659 H   0  0  0  0  0  0  0  0  0  0  0  0
  146.3078  137.8016  151.8810 H   0  0  0  0  0  0  0  0  0  0  0  0
  149.1820  142.8933  155.7746 H   0  0  0  0  0  0  0  0  0  0  0  0
  151.5943  141.1867  156.1372 H   0  0  0  0  0  0  0  0  0  0  0  0
  151.6005  142.9210  156.2938 H   0  0  0  0  0  0  0  0  0  0  0  0
  149.9702  142.6671  158.2935 H   0  0  0  0  0  0  0  0  0  0  0  0
  150.0659  140.9561  158.0874 H   0  0  0  0  0  0  0  0  0  0  0  0
  154.0702  140.0345  160.1672 H   0  0  0  0  0  0  0  0  0  0  0  0
  154.9154  141.1562  159.0792 H   0  0  0  0  0  0  0  0  0  0  0  0
  1  2  2  0  0  0  0
  2  3  1  0  0  0  0
  2 12  1  0  0  0  0
  3  4  1  0  0  0  0
  3 23  1  0  0  0  0
  3 24  1  0  0  0  0
  4 10  1  0  0  0  0
  4  5  1  0  0  0  0
  5  6  2  0  0  0  0
  5 25  1  0  0  0  0
  6  7  1  0  0  0  0
  6 26  1  0  0  0  0
  7  8  2  0  0  0  0
  7  9  1  0  0  0  0
  9 22  1  0  0  0  0
  9 10  1  0  0  0  0
 10 11  2  0  0  0  0
 12 13  1  0  0  0  0
 12 27  1  0  0  0  0
 13 14  1  0  0  0  0
 13 28  1  0  0  0  0
 13 29  1  0  0  0  0
 14 15  1  0  0  0  0
 14 30  1  0  0  0  0
 14 31  1  0  0  0  0
 15 20  1  0  0  0  0
 15 16  1  0  0  0  0
 16 17  2  0  0  0  0
 16 18  1  0  0  0  0
 18 19  1  0  0  0  0
 18 32  1  0  0  0  0
 18 33  1  0  0  0  0
 19 20  1  0  0  0  0
 20 21  2  0  0  0  0
M  END
> <s_m_source_file>
AV-unprocessed.smi

> <i_m_source_file_index>
1178

> <i_lp_mmshare_version>
43012

> <i_f3d_flags>
0

> <s_epik_input>
Tz1jMVtuSF1jKD1PKVtjSF1bY0hdbjFbQ0gyXUMoPU8pW05IXVtDSDJdW0NIMl1OMkMoPU8pW0NIMl1TQzI9Tw==

> <s_epik_cmdline>
J2VwaWtfcHl0aG9uJywgJy1waCcsICc3LjAnLCAnLXRuJywgJzgnLCAnLW1hJywgJzIwMCcsICctbWV0YWxfYmluZGluZycsICctaW1hZScsICc8aW5maWxlLm1hZT4nLCAnLW9tYWUnLCAnPG91dGZpbGUubWFlPic=

> <r_lp_tautomer_probability>
0.999537

> <r_epik_Ionization_Penalty>
0.00339795

> <r_epik_Ionization_Penalty_Charging>
0.0033979

> <r_epik_Ionization_Penalty_Neutral>
5.48861e-08

> <r_epik_State_Penalty>
0.00240602

> <r_epik_Charging_Adjusted_Penalty>
0.00580392

> <i_epik_Tot_Q>
0

> <i_epik_Tot_abs_Q>
0

> <r_epik_Metal_State_Penalty>
0.366682

> <b_epik_Metal_Only>
0

> <s_lp_Force_Field>
OPLS_2005

> <r_lp_Energy>
11.0957

> <b_lp_Chiralities_Consistent>
1

> <s_lp_Variant>
AV-unprocessed.smi:1178-1

> <Gold.Version>
5.8.1

> <Gold.Id.Protein>
6NUR|6NUR_protein|mol2

> <Gold.PLP.Fitness>
47.1045

> <Gold.PLP.PLP>
-35.8231

> <Gold.PLP.part.hbond>
-3.1863

> <Gold.PLP.part.metal>
0.0000

> <Gold.PLP.part.buried>
-3.2487

> <Gold.PLP.part.nonpolar>
-27.6402

> <Gold.PLP.part.repulsive>
0.4546

> <Gold.PLP.ligand.clash>
0.0000

> <Gold.PLP.ligand.torsion>
0.3562

> <Gold.PLP.Chemscore.Hbond>
2.9920

> <Gold.PLP.Chemscore.CHOScore>
1.0000

> <Gold.PLP.Chemscore.Metal>
0.0000

> <Gold.Chemscore.Hbonds>
donor molecule, donor type, donor heavy atom, donor atom, acceptor molecule, acceptor atom, score
      L1  H    12    27       P1  8028  0.98
      P1  H  7989  7998       L1     1  1.00
      P1  H  7997  8008       L1    17  1.00
      L1  C     5    25       P1  7957  1.00

> <Gold.PLP.Chemscore.Internal.Correction>
0.0177

> <Gold.Rescore>
     Score         DG    S(hbond)    S(metal)    S(lipo)     H(rot)  DE(clash)    DE(int)     intcor
     12.55     -12.82       2.54        0.00      55.09       2.97       0.00       0.26       ----

> <Gold.Chemscore.Fitness>
12.5535

> <Gold.Chemscore.DG>
-12.8159

> <Gold.Chemscore.ZeroCoef>
-5.4800

> <Gold.Chemscore.Hbond>
2.5410

> <Gold.Chemscore.Metal>
0.0000

> <Gold.Chemscore.Lipo>
55.0862

> <Gold.Chemscore.Internal_Hbond>
0.0000

> <Gold.Chemscore.DEClash>
0.0047

> <Gold.Chemscore.DEInternal>
0.2577

> <Gold.Chemscore.Rot>
2.9672

> <Gold.Chemscore.Internal.Correction>
   9.000000E+99

> <Gold.Chemscore.Hbonds>
donor molecule, donor type, donor heavy atom, donor atom, acceptor molecule, acceptor atom, score
      L1  H    12    27       P1  8028  0.93
      P1  H  7989  7998       L1     1  0.48
      P1  H  7997  8008       L1    17  0.68

> <Gold.Chemscore.Hbond.Weighted>
-8.4868

> <Gold.Chemscore.Metal.Weighted>
-0.0000

> <Gold.Chemscore.Lipo.Weighted>
-6.4451

> <Gold.Chemscore.Internal_Hbond.Weighted>
0.0000

> <Gold.Chemscore.DEClash.Weighted>
0.0047

> <Gold.Chemscore.DEInternal.Weighted>
0.2577

> <Gold.Chemscore.Rot.Weighted>
7.5960

> <Gold.Chemscore.Internal.Correction.Weighted>
   9.000000E+99

> <Gold.Protein.RotatedTorsions>
[ 6907 6896 6895 6894 ] final  108.91 input  -60.11 | X-H torsion
[ 7974 7965 7964 7962 ] final   38.45 input  175.53 | X-H torsion
[ 8008 7997 7996 7995 ] final  -66.63 input   59.86 | X-H torsion
[ 10167 10162 10161 10158 ] final  -25.23 input  -65.29 | X-H torsion
[ 10718 10713 10712 10709 ] final   71.29 input   66.30 | X-H torsion
[ 10763 10752 10751 10750 ] final   31.06 input  -60.55 | X-H torsion
[ 11005 11000 10999 10996 ] final  167.34 input  -57.11 | X-H torsion

> <Gold.Protein.ActiveResidues>
 VAL166  LYS551  ARG553  GLY616  TRP617  ASP618  TYR619  PRO620  LYS621  CYS622 
 ASP623  PHE694  ASN695  SER759  ASP760  ASP761  ALA762  ILE779  LEU786  VAL792 
 PHE793  MET794  SER795  GLU796  ALA797  LYS798  CYS799  TRP800  GLU811  SER814 

> <Gold.Protein.RotatedAtoms>
  152.5091  133.9020  159.7445 H   0  0  0  0  0  0  0  0  0  0  0  0  # atno 6907 bound_to 6896
  150.9434  133.6622  159.2793 H   0  0  0  0  0  0  0  0  0  0  0  0  # atno 6908 bound_to 6896
  151.3926  135.0963  159.9583 H   0  0  0  0  0  0  0  0  0  0  0  0  # atno 6909 bound_to 6896
  146.1061  139.5771  142.9382 H   0  0  0  0  0  0  0  0  0  0  0  0  # atno 7974 bound_to 7965
  154.4747  140.0909  156.7231 H   0  0  0  0  0  0  0  0  0  0  0  0  # atno 8008 bound_to 7997
  155.4630  140.3461  155.4297 H   0  0  0  0  0  0  0  0  0  0  0  0  # atno 8009 bound_to 7997
  156.1096  140.1444  156.9345 H   0  0  0  0  0  0  0  0  0  0  0  0  # atno 8010 bound_to 7997
  140.7287  143.4283  151.0842 H   0  0  0  0  0  0  0  0  0  0  0  0  # atno 10167 bound_to 10162
  157.6444  130.9520  150.0768 H   0  0  0  0  0  0  0  0  0  0  0  0  # atno 10718 bound_to 10713
  153.0336  135.6448  154.1141 H   0  0  0  0  0  0  0  0  0  0  0  0  # atno 10763 bound_to 10752
  154.0859  135.2870  155.3283 H   0  0  0  0  0  0  0  0  0  0  0  0  # atno 10764 bound_to 10752
  154.6498  135.5430  153.7952 H   0  0  0  0  0  0  0  0  0  0  0  0  # atno 10765 bound_to 10752
  140.2758  134.7790  157.3715 H   0  0  0  0  0  0  0  0  0  0  0  0  # atno 11005 bound_to 11000
  145.5758  141.0389  143.2149 LP  0  0  0  0  0  0  0  0  0  0  0  0  # atno 17320 bound_to 7965
  144.7472  139.7288  143.7287 LP  0  0  0  0  0  0  0  0  0  0  0  0  # atno 17321 bound_to 7965
  139.7937  143.8182  152.3155 LP  0  0  0  0  0  0  0  0  0  0  0  0  # atno 17342 bound_to 10162
  139.8175  144.7310  150.9616 LP  0  0  0  0  0  0  0  0  0  0  0  0  # atno 17343 bound_to 10162
  156.1756  130.3648  149.9105 LP  0  0  0  0  0  0  0  0  0  0  0  0  # atno 17370 bound_to 10713
  156.7070  130.8955  151.3605 LP  0  0  0  0  0  0  0  0  0  0  0  0  # atno 17371 bound_to 10713
  140.1330  134.5070  155.8090 LP  0  0  0  0  0  0  0  0  0  0  0  0  # atno 17394 bound_to 11000
  141.2170  133.6797  156.7074 LP  0  0  0  0  0  0  0  0  0  0  0  0  # atno 17395 bound_to 11000

$$$$
