AV-unprocessed.smi:1999|AV-procd|sdf|8094|dock9
  -GOLD-   2272010313D 1   1.00000     0.00000
 Structure written by MMmdl.
 39 40  0  0  0  0  0  0  0  0  2 V2000
  143.8916  131.8046  150.3510 C   0  0  0  0  0  0  0  0  0  0  0  0
  144.3164  133.1266  150.8927 C   0  0  0  0  0  0  0  0  0  0  0  0
  143.4577  133.9823  151.4603 N   0  0  0  0  0  0  0  0  0  0  0  0
  144.0808  135.1450  151.8914 N   0  0  0  0  0  0  0  0  0  0  0  0
  145.3959  135.1320  151.6340 C   0  0  0  0  0  0  0  0  0  0  0  0
  146.2766  136.1922  151.9761 N   0  0  0  0  0  0  0  0  0  0  0  0
  145.9664  137.4079  152.4586 C   0  0  0  0  0  0  0  0  0  0  0  0
  144.8252  137.8258  152.6560 O   0  0  0  0  0  0  0  0  0  0  0  0
  147.0703  138.1255  152.7161 N   0  0  0  0  0  0  0  0  0  0  0  0
  147.1064  139.4991  153.2213 C   0  0  2  0  0  0  0  0  0  0  0  0
  148.5499  139.8487  153.6080 C   0  0  0  0  0  0  0  0  0  0  0  0
  146.1460  139.6899  154.4189 C   0  0  0  0  0  0  0  0  0  0  0  0
  145.5414  141.0453  154.4741 N   0  3  0  0  0  0  0  0  0  0  0  0
  144.9221  141.3525  155.7842 C   0  0  0  0  0  0  0  0  0  0  0  0
  144.2488  142.7352  155.7424 C   0  0  0  0  0  0  0  0  0  0  0  0
  145.2042  143.7229  155.3745 O   0  0  0  0  0  0  0  0  0  0  0  0
  145.7497  143.4823  154.0827 C   0  0  0  0  0  0  0  0  0  0  0  0
  146.4753  142.1270  154.0769 C   0  0  0  0  0  0  0  0  0  0  0  0
  145.9856  133.6816  150.8405 S   0  0  0  0  0  0  0  0  0  0  0  0
  143.0315  131.9266  149.6924 H   0  0  0  0  0  0  0  0  0  0  0  0
  143.6173  131.1373  151.1682 H   0  0  0  0  0  0  0  0  0  0  0  0
  144.7028  131.3479  149.7836 H   0  0  0  0  0  0  0  0  0  0  0  0
  147.2582  135.9970  151.8452 H   0  0  0  0  0  0  0  0  0  0  0  0
  147.9637  137.6962  152.5227 H   0  0  0  0  0  0  0  0  0  0  0  0
  146.8231  140.1808  152.4185 H   0  0  0  0  0  0  0  0  0  0  0  0
  148.6237  140.8796  153.9555 H   0  0  0  0  0  0  0  0  0  0  0  0
  149.2225  139.7418  152.7561 H   0  0  0  0  0  0  0  0  0  0  0  0
  148.9171  139.2021  154.4056 H   0  0  0  0  0  0  0  0  0  0  0  0
  145.3511  138.9469  154.3361 H   0  0  0  0  0  0  0  0  0  0  0  0
  146.6561  139.4819  155.3608 H   0  0  0  0  0  0  0  0  0  0  0  0
  144.1797  140.5929  156.0319 H   0  0  0  0  0  0  0  0  0  0  0  0
  145.6836  141.3268  156.5651 H   0  0  0  0  0  0  0  0  0  0  0  0
  143.4144  142.7405  155.0391 H   0  0  0  0  0  0  0  0  0  0  0  0
  143.8412  142.9847  156.7221 H   0  0  0  0  0  0  0  0  0  0  0  0
  144.9609  143.5057  153.3288 H   0  0  0  0  0  0  0  0  0  0  0  0
  146.4474  144.2835  153.8384 H   0  0  0  0  0  0  0  0  0  0  0  0
  147.3217  142.1544  154.7650 H   0  0  0  0  0  0  0  0  0  0  0  0
  146.8783  141.9368  153.0826 H   0  0  0  0  0  0  0  0  0  0  0  0
  144.7890  141.0480  153.7998 H   0  0  0  0  0  0  0  0  0  0  0  0
  1  2  1  0  0  0  0
  1 20  1  0  0  0  0
  1 21  1  0  0  0  0
  1 22  1  0  0  0  0
  2 19  1  0  0  0  0
  2  3  2  0  0  0  0
  3  4  1  0  0  0  0
  4  5  2  0  0  0  0
  5  6  1  0  0  0  0
  5 19  1  0  0  0  0
  6  7  1  0  0  0  0
  6 23  1  0  0  0  0
  7  8  2  0  0  0  0
  7  9  1  0  0  0  0
  9 10  1  0  0  0  0
  9 24  1  0  0  0  0
 10 11  1  0  0  0  0
 10 12  1  0  0  0  0
 10 25  1  0  0  0  0
 11 26  1  0  0  0  0
 11 27  1  0  0  0  0
 11 28  1  0  0  0  0
 12 13  1  0  0  0  0
 12 29  1  0  0  0  0
 12 30  1  0  0  0  0
 13 18  1  0  0  0  0
 13 14  1  0  0  0  0
 13 39  1  0  0  0  0
 14 15  1  0  0  0  0
 14 31  1  0  0  0  0
 14 32  1  0  0  0  0
 15 16  1  0  0  0  0
 15 33  1  0  0  0  0
 15 34  1  0  0  0  0
 16 17  1  0  0  0  0
 17 18  1  0  0  0  0
 17 35  1  0  0  0  0
 17 36  1  0  0  0  0
 18 37  1  0  0  0  0
 18 38  1  0  0  0  0
M  CHG  1  13   1
M  END
> <s_m_source_file>
AV-unprocessed.smi

> <i_m_source_file_index>
1999

> <i_lp_mmshare_version>
43012

> <i_f3d_flags>
0

> <s_epik_input>
W0NIM11jMW5uYyhzMSlbTkhdQyg9TylbTkhdW0NASF0oW0NIM10pW0NIMl1OMltDSDJdW0NIMl1PW0NIMl1bQ0gyXTI=

> <s_epik_cmdline>
J2VwaWtfcHl0aG9uJywgJy1waCcsICc3LjAnLCAnLXRuJywgJzgnLCAnLW1hJywgJzIwMCcsICctbWV0YWxfYmluZGluZycsICctaW1hZScsICc8aW5maWxlLm1hZT4nLCAnLW9tYWUnLCAnPG91dGZpbGUubWFlPic=

> <r_lp_tautomer_probability>
1

> <r_epik_Ionization_Penalty>
0.701298

> <r_epik_Ionization_Penalty_Charging>
0.695697

> <r_epik_Ionization_Penalty_Neutral>
0.00560124

> <r_epik_State_Penalty>
0.717972

> <r_epik_Charging_Adjusted_Penalty>
1.41367

> <i_epik_Tot_Q>
1

> <i_epik_Tot_abs_Q>
1

> <r_epik_Metal_State_Penalty>
1.07748

> <b_epik_Metal_Only>
0

> <s_lp_Force_Field>
OPLS_2005

> <r_lp_Energy>
20.3025

> <b_lp_Chiralities_Consistent>
1

> <s_lp_Variant>
AV-unprocessed.smi:1999-3

> <Gold.Version>
5.8.1

> <Gold.Id.Protein>
6NUR|6NUR_protein|mol2

> <Gold.PLP.Fitness>
37.5992

> <Gold.PLP.PLP>
-27.0035

> <Gold.PLP.part.hbond>
-3.0000

> <Gold.PLP.part.metal>
0.0000

> <Gold.PLP.part.buried>
-1.8501

> <Gold.PLP.part.nonpolar>
-24.6486

> <Gold.PLP.part.repulsive>
2.3461

> <Gold.PLP.ligand.clash>
0.0000

> <Gold.PLP.ligand.torsion>
0.7218

> <Gold.PLP.Chemscore.Hbond>
4.0000

> <Gold.PLP.Chemscore.CHOScore>
0.0000

> <Gold.PLP.Chemscore.Metal>
0.0000

> <Gold.Chemscore.Hbonds>
donor molecule, donor type, donor heavy atom, donor atom, acceptor molecule, acceptor atom, score
      L1  H     6    23       P1  7948  1.00
      L1  H     9    24       P1  7948  0.99
      L1  H    13    39       P1 10175  2.00

> <Gold.PLP.Chemscore.Internal.Correction>
0.0394

> <Gold.Rescore>
     Score         DG    S(hbond)    S(metal)    S(lipo)     H(rot)  DE(clash)    DE(int)     intcor
     13.06     -18.13       2.93        0.00      60.10       1.63       1.77       3.30       ----

> <Gold.Chemscore.Fitness>
13.0638

> <Gold.Chemscore.DG>
-18.1318

> <Gold.Chemscore.ZeroCoef>
-5.4800

> <Gold.Chemscore.Hbond>
2.9332

> <Gold.Chemscore.Metal>
0.0000

> <Gold.Chemscore.Lipo>
60.1037

> <Gold.Chemscore.Internal_Hbond>
0.0000

> <Gold.Chemscore.DEClash>
1.7711

> <Gold.Chemscore.DEInternal>
3.2969

> <Gold.Chemscore.Rot>
1.6317

> <Gold.Chemscore.Internal.Correction>
   9.000000E+99

> <Gold.Chemscore.Hbonds>
donor molecule, donor type, donor heavy atom, donor atom, acceptor molecule, acceptor atom, score
      L1  H     6    23       P1  7948  1.00
      L1  H     9    24       P1  7948  0.94
      L1  H    13    39       P1 10175  0.74

> <Gold.Chemscore.Hbond.Weighted>
-9.7969

> <Gold.Chemscore.Metal.Weighted>
-0.0000

> <Gold.Chemscore.Lipo.Weighted>
-7.0321

> <Gold.Chemscore.Internal_Hbond.Weighted>
0.0000

> <Gold.Chemscore.DEClash.Weighted>
1.7711

> <Gold.Chemscore.DEInternal.Weighted>
3.2969

> <Gold.Chemscore.Rot.Weighted>
4.1773

> <Gold.Chemscore.Internal.Correction.Weighted>
   9.000000E+99

> <Gold.Protein.RotatedTorsions>
[ 6907 6896 6895 6894 ] final  -27.75 input  -60.11 | X-H torsion
[ 7974 7965 7964 7962 ] final   83.18 input  175.53 | X-H torsion
[ 8008 7997 7996 7995 ] final -175.03 input   59.86 | X-H torsion
[ 10167 10162 10161 10158 ] final  157.22 input  -65.29 | X-H torsion
[ 10718 10713 10712 10709 ] final   42.45 input   66.30 | X-H torsion
[ 10763 10752 10751 10750 ] final  -23.17 input  -60.55 | X-H torsion
[ 11005 11000 10999 10996 ] final   78.88 input  -57.11 | X-H torsion

> <Gold.Protein.ActiveResidues>
 VAL166  LYS551  ARG553  GLY616  TRP617  ASP618  TYR619  PRO620  LYS621  CYS622 
 ASP623  PHE694  ASN695  SER759  ASP760  ASP761  ALA762  ILE779  LEU786  VAL792 
 PHE793  MET794  SER795  GLU796  ALA797  LYS798  CYS799  TRP800  GLU811  SER814 

> <Gold.Protein.RotatedAtoms>
  151.1425  135.0186  159.8631 H   0  0  0  0  0  0  0  0  0  0  0  0  # atno 6907 bound_to 6896
  152.5452  134.1483  159.8518 H   0  0  0  0  0  0  0  0  0  0  0  0  # atno 6908 bound_to 6896
  151.1560  133.4831  159.2627 H   0  0  0  0  0  0  0  0  0  0  0  0  # atno 6909 bound_to 6896
  145.6153  139.2376  143.2169 H   0  0  0  0  0  0  0  0  0  0  0  0  # atno 7974 bound_to 7965
  155.9775  140.1175  157.0756 H   0  0  0  0  0  0  0  0  0  0  0  0  # atno 8008 bound_to 7997
  154.4173  140.1151  156.5458 H   0  0  0  0  0  0  0  0  0  0  0  0  # atno 8009 bound_to 7997
  155.6514  140.3473  155.4752 H   0  0  0  0  0  0  0  0  0  0  0  0  # atno 8010 bound_to 7997
  139.4822  144.4937  151.8271 H   0  0  0  0  0  0  0  0  0  0  0  0  # atno 10167 bound_to 10162
  157.4050  130.7881  149.7381 H   0  0  0  0  0  0  0  0  0  0  0  0  # atno 10718 bound_to 10713
  153.6636  135.6975  153.5169 H   0  0  0  0  0  0  0  0  0  0  0  0  # atno 10763 bound_to 10752
  153.2612  135.4244  155.0895 H   0  0  0  0  0  0  0  0  0  0  0  0  # atno 10764 bound_to 10752
  154.8445  135.3555  154.6181 H   0  0  0  0  0  0  0  0  0  0  0  0  # atno 10765 bound_to 10752
  139.9195  134.7798  156.1707 H   0  0  0  0  0  0  0  0  0  0  0  0  # atno 11005 bound_to 11000
  146.1473  140.6975  142.9339 LP  0  0  0  0  0  0  0  0  0  0  0  0  # atno 17320 bound_to 7965
  144.7253  140.4504  143.6978 LP  0  0  0  0  0  0  0  0  0  0  0  0  # atno 17321 bound_to 7965
  140.4424  144.1968  150.5892 LP  0  0  0  0  0  0  0  0  0  0  0  0  # atno 17342 bound_to 10162
  140.4670  143.2427  151.9142 LP  0  0  0  0  0  0  0  0  0  0  0  0  # atno 17343 bound_to 10162
  155.9834  130.4001  150.3366 LP  0  0  0  0  0  0  0  0  0  0  0  0  # atno 17370 bound_to 10713
  157.1498  131.0318  151.2890 LP  0  0  0  0  0  0  0  0  0  0  0  0  # atno 17371 bound_to 10713
  141.0702  133.6800  156.2125 LP  0  0  0  0  0  0  0  0  0  0  0  0  # atno 17394 bound_to 11000
  140.6519  134.5058  157.5578 LP  0  0  0  0  0  0  0  0  0  0  0  0  # atno 17395 bound_to 11000

$$$$
