AV-unprocessed.smi:1947|AV-procd|sdf|7865|dock3
  -GOLD-   2272010 13D 1   1.00000     0.00000
 Structure written by MMmdl.
 39 40  0  0  0  0  0  0  0  0  1 V2000
  153.0101  141.8581  160.6136 C   0  0  0  0  0  0  0  0  0  0  0  0
  152.8215  142.5134  159.2346 C   0  0  2  0  0  0  0  0  0  0  0  0
  152.8369  144.0506  159.3542 C   0  0  0  0  0  0  0  0  0  0  0  0
  152.6391  144.7305  157.9906 C   0  0  0  0  0  0  0  0  0  0  0  0
  151.3431  144.2546  157.3191 C   0  0  0  0  0  0  0  0  0  0  0  0
  151.3221  142.7248  157.1842 C   0  0  0  0  0  0  0  0  0  0  0  0
  151.5228  142.0337  158.5486 C   0  0  1  0  0  0  0  0  0  0  0  0
  151.6290  140.6291  158.3586 O   0  0  0  0  0  0  0  0  0  0  0  0
  150.3889  139.9617  158.1764 C   0  0  0  0  0  0  0  0  0  0  0  0
  150.6617  138.5776  157.5686 C   0  0  0  0  0  0  0  0  0  0  0  0
  150.2644  137.5048  158.4748 N   0  0  0  0  0  0  0  0  0  0  0  0
  149.1520  137.4960  159.2221 C   0  0  0  0  0  0  0  0  0  0  0  0
  148.3029  138.3864  159.1853 O   0  0  0  0  0  0  0  0  0  0  0  0
  149.1023  136.4055  160.0038 N   0  0  0  0  0  0  0  0  0  0  0  0
  148.1133  136.0623  160.9589 C   0  0  0  0  0  0  0  0  0  0  0  0
  147.4777  137.0563  161.5905 N   0  0  0  0  0  0  0  0  0  0  0  0
  146.5343  136.5803  162.4933 N   0  0  0  0  0  0  0  0  0  0  0  0
  146.4958  135.2444  162.5072 C   0  0  0  0  0  0  0  0  0  0  0  0
  147.6081  134.4337  161.4192 S   0  0  0  0  0  0  0  0  0  0  0  0
  152.1873  142.1041  161.2856 H   0  0  0  0  0  0  0  0  0  0  0  0
  153.9351  142.1930  161.0837 H   0  0  0  0  0  0  0  0  0  0  0  0
  153.0598  140.7716  160.5350 H   0  0  0  0  0  0  0  0  0  0  0  0
  153.6652  142.2181  158.6087 H   0  0  0  0  0  0  0  0  0  0  0  0
  152.0506  144.3746  160.0376 H   0  0  0  0  0  0  0  0  0  0  0  0
  153.7798  144.3808  159.7920 H   0  0  0  0  0  0  0  0  0  0  0  0
  152.6176  145.8135  158.1143 H   0  0  0  0  0  0  0  0  0  0  0  0
  153.4893  144.5095  157.3440 H   0  0  0  0  0  0  0  0  0  0  0  0
  150.4839  144.5825  157.9059 H   0  0  0  0  0  0  0  0  0  0  0  0
  151.2419  144.7163  156.3365 H   0  0  0  0  0  0  0  0  0  0  0  0
  150.3786  142.4153  156.7349 H   0  0  0  0  0  0  0  0  0  0  0  0
  152.1088  142.4110  156.4967 H   0  0  0  0  0  0  0  0  0  0  0  0
  150.6828  142.2685  159.2055 H   0  0  0  0  0  0  0  0  0  0  0  0
  149.8670  139.8556  159.1287 H   0  0  0  0  0  0  0  0  0  0  0  0
  149.7419  140.5372  157.5144 H   0  0  0  0  0  0  0  0  0  0  0  0
  150.1409  138.4721  156.6157 H   0  0  0  0  0  0  0  0  0  0  0  0
  151.7255  138.4701  157.3565 H   0  0  0  0  0  0  0  0  0  0  0  0
  150.9068  136.7316  158.5680 H   0  0  0  0  0  0  0  0  0  0  0  0
  149.8697  135.7552  159.9205 H   0  0  0  0  0  0  0  0  0  0  0  0
  145.8069  134.7330  163.1632 H   0  0  0  0  0  0  0  0  0  0  0  0
  1  2  1  0  0  0  0
  1 20  1  0  0  0  0
  1 21  1  0  0  0  0
  1 22  1  0  0  0  0
  2  7  1  0  0  0  0
  2  3  1  0  0  0  0
  2 23  1  0  0  0  0
  3  4  1  0  0  0  0
  3 24  1  0  0  0  0
  3 25  1  0  0  0  0
  4  5  1  0  0  0  0
  4 26  1  0  0  0  0
  4 27  1  0  0  0  0
  5  6  1  0  0  0  0
  5 28  1  0  0  0  0
  5 29  1  0  0  0  0
  6  7  1  0  0  0  0
  6 30  1  0  0  0  0
  6 31  1  0  0  0  0
  7  8  1  0  0  0  0
  7 32  1  0  0  0  0
  8  9  1  0  0  0  0
  9 10  1  0  0  0  0
  9 33  1  0  0  0  0
  9 34  1  0  0  0  0
 10 11  1  0  0  0  0
 10 35  1  0  0  0  0
 10 36  1  0  0  0  0
 11 12  1  0  0  0  0
 11 37  1  0  0  0  0
 12 13  2  0  0  0  0
 12 14  1  0  0  0  0
 14 15  1  0  0  0  0
 14 38  1  0  0  0  0
 15 19  1  0  0  0  0
 15 16  2  0  0  0  0
 16 17  1  0  0  0  0
 17 18  2  0  0  0  0
 18 19  1  0  0  0  0
 18 39  1  0  0  0  0
M  END
> <s_m_source_file>
AV-unprocessed.smi

> <i_m_source_file_index>
1947

> <i_lp_mmshare_version>
43012

> <i_f3d_flags>
0

> <s_epik_input>
W0NIM11bQ0BASF0xW0NIMl1bQ0gyXVtDSDJdW0NIMl1bQ0BIXTFPW0NIMl1bQ0gyXVtOSF1DKD1PKVtOSF1jMm5uW2NIXXMy

> <s_epik_cmdline>
J2VwaWtfcHl0aG9uJywgJy1waCcsICc3LjAnLCAnLXRuJywgJzgnLCAnLW1hJywgJzIwMCcsICctbWV0YWxfYmluZGluZycsICctaW1hZScsICc8aW5maWxlLm1hZT4nLCAnLW9tYWUnLCAnPG91dGZpbGUubWFlPic=

> <r_lp_tautomer_probability>
1

> <r_epik_Ionization_Penalty>
0.00220897

> <r_epik_Ionization_Penalty_Charging>
0

> <r_epik_Ionization_Penalty_Neutral>
0.00220897

> <r_epik_State_Penalty>
-0

> <r_epik_Charging_Adjusted_Penalty>
0

> <i_epik_Tot_Q>
0

> <i_epik_Tot_abs_Q>
0

> <r_epik_Metal_State_Penalty>
0.345002

> <b_epik_Metal_Only>
0

> <s_lp_Force_Field>
OPLS_2005

> <r_lp_Energy>
7.38762

> <b_lp_Chiralities_Consistent>
1

> <s_lp_Variant>
AV-unprocessed.smi:1947-1

> <Gold.Version>
5.8.1

> <Gold.Id.Protein>
6NUR|6NUR_protein|mol2

> <Gold.PLP.Fitness>
41.0464

> <Gold.PLP.PLP>
-37.7230

> <Gold.PLP.part.hbond>
-3.6821

> <Gold.PLP.part.metal>
0.0000

> <Gold.PLP.part.buried>
-2.2592

> <Gold.PLP.part.nonpolar>
-32.3334

> <Gold.PLP.part.repulsive>
0.3620

> <Gold.PLP.ligand.clash>
0.0000

> <Gold.PLP.ligand.torsion>
0.9588

> <Gold.PLP.Chemscore.Hbond>
1.7432

> <Gold.PLP.Chemscore.CHOScore>
0.0000

> <Gold.PLP.Chemscore.Metal>
0.0000

> <Gold.Chemscore.Hbonds>
donor molecule, donor type, donor heavy atom, donor atom, acceptor molecule, acceptor atom, score
      P1  H  6931  6943       L1    16  0.95
      P1  H  6934  6947       L1    16  0.73

> <Gold.PLP.Chemscore.Internal.Correction>
0.0114

> <Gold.Rescore>
     Score         DG    S(hbond)    S(metal)    S(lipo)     H(rot)  DE(clash)    DE(int)     intcor
     12.51     -16.14       1.08        0.00     102.73       1.94       0.07       3.56       ----

> <Gold.Chemscore.Fitness>
12.5123

> <Gold.Chemscore.DG>
-16.1435

> <Gold.Chemscore.ZeroCoef>
-5.4800

> <Gold.Chemscore.Hbond>
1.0799

> <Gold.Chemscore.Metal>
0.0000

> <Gold.Chemscore.Lipo>
102.7266

> <Gold.Chemscore.Internal_Hbond>
0.0000

> <Gold.Chemscore.DEClash>
0.0736

> <Gold.Chemscore.DEInternal>
3.5576

> <Gold.Chemscore.Rot>
1.9385

> <Gold.Chemscore.Internal.Correction>
   9.000000E+99

> <Gold.Chemscore.Hbonds>
donor molecule, donor type, donor heavy atom, donor atom, acceptor molecule, acceptor atom, score
      P1  H  6931  6943       L1    16  0.20
      P1  H  6934  6947       L1    16  0.65

> <Gold.Chemscore.Hbond.Weighted>
-3.6070

> <Gold.Chemscore.Metal.Weighted>
-0.0000

> <Gold.Chemscore.Lipo.Weighted>
-12.0190

> <Gold.Chemscore.Internal_Hbond.Weighted>
0.0000

> <Gold.Chemscore.DEClash.Weighted>
0.0736

> <Gold.Chemscore.DEInternal.Weighted>
3.5576

> <Gold.Chemscore.Rot.Weighted>
4.9625

> <Gold.Chemscore.Internal.Correction.Weighted>
   9.000000E+99

> <Gold.Protein.RotatedTorsions>
[ 6907 6896 6895 6894 ] final  -24.88 input  -60.11 | X-H torsion
[ 7974 7965 7964 7962 ] final  -66.19 input  175.53 | X-H torsion
[ 8008 7997 7996 7995 ] final  101.18 input   59.86 | X-H torsion
[ 10167 10162 10161 10158 ] final  131.99 input  -65.29 | X-H torsion
[ 10718 10713 10712 10709 ] final  -97.49 input   66.30 | X-H torsion
[ 10763 10752 10751 10750 ] final   69.54 input  -60.55 | X-H torsion
[ 11005 11000 10999 10996 ] final  -70.72 input  -57.11 | X-H torsion

> <Gold.Protein.ActiveResidues>
 VAL166  LYS551  ARG553  GLY616  TRP617  ASP618  TYR619  PRO620  LYS621  CYS622 
 ASP623  PHE694  ASN695  SER759  ASP760  ASP761  ALA762  ILE779  LEU786  VAL792 
 PHE793  MET794  SER795  GLU796  ALA797  LYS798  CYS799  TRP800  GLU811  SER814 

> <Gold.Protein.RotatedAtoms>
  151.1832  135.0370  159.8800 H   0  0  0  0  0  0  0  0  0  0  0  0  # atno 6907 bound_to 6896
  152.5443  134.1040  159.8340 H   0  0  0  0  0  0  0  0  0  0  0  0  # atno 6908 bound_to 6896
  151.1159  133.5092  159.2636 H   0  0  0  0  0  0  0  0  0  0  0  0  # atno 6909 bound_to 6896
  145.7448  140.8936  143.0511 H   0  0  0  0  0  0  0  0  0  0  0  0  # atno 7974 bound_to 7965
  156.1275  140.3201  155.8298 H   0  0  0  0  0  0  0  0  0  0  0  0  # atno 8008 bound_to 7997
  155.4393  140.0524  157.3029 H   0  0  0  0  0  0  0  0  0  0  0  0  # atno 8009 bound_to 7997
  154.4873  140.2078  155.9639 H   0  0  0  0  0  0  0  0  0  0  0  0  # atno 8010 bound_to 7997
  139.5359  144.6682  151.4787 H   0  0  0  0  0  0  0  0  0  0  0  0  # atno 10167 bound_to 10162
  156.0085  130.5196  150.6382 H   0  0  0  0  0  0  0  0  0  0  0  0  # atno 10718 bound_to 10713
  153.0292  135.5207  154.7303 H   0  0  0  0  0  0  0  0  0  0  0  0  # atno 10763 bound_to 10752
  154.6333  135.2903  155.0193 H   0  0  0  0  0  0  0  0  0  0  0  0  # atno 10764 bound_to 10752
  154.1137  135.6618  153.4942 H   0  0  0  0  0  0  0  0  0  0  0  0  # atno 10765 bound_to 10752
  141.1579  133.6797  156.6795 H   0  0  0  0  0  0  0  0  0  0  0  0  # atno 11005 bound_to 11000
  144.6862  139.9510  143.7478 LP  0  0  0  0  0  0  0  0  0  0  0  0  # atno 17320 bound_to 7965
  146.0413  139.3424  143.0695 LP  0  0  0  0  0  0  0  0  0  0  0  0  # atno 17321 bound_to 7965
  140.6565  143.8587  150.6841 LP  0  0  0  0  0  0  0  0  0  0  0  0  # atno 17342 bound_to 10162
  140.1969  143.3991  152.1821 LP  0  0  0  0  0  0  0  0  0  0  0  0  # atno 17343 bound_to 10162
  157.4167  131.0831  151.1170 LP  0  0  0  0  0  0  0  0  0  0  0  0  # atno 17370 bound_to 10713
  157.1785  130.6299  149.5664 LP  0  0  0  0  0  0  0  0  0  0  0  0  # atno 17371 bound_to 10713
  140.3113  134.8084  157.4178 LP  0  0  0  0  0  0  0  0  0  0  0  0  # atno 17394 bound_to 11000
  140.1176  134.5262  155.8211 LP  0  0  0  0  0  0  0  0  0  0  0  0  # atno 17395 bound_to 11000

$$$$
