AV-unprocessed.smi:334|AV-procd|sdf|2367|dock3
  -GOLD-   2262022283D 1   1.00000     0.00000
 Structure written by MMmdl.
 44 46  0  0  0  0  0  0  0  0  3 V2000
  148.7627  145.2245  160.5657 C   0  0  0  0  0  0  0  0  0  0  0  0
  149.1546  144.0637  159.6368 C   0  0  1  0  0  0  0  0  0  0  0  0
  148.0370  143.7338  158.7588 N   0  0  0  0  0  0  0  0  0  0  0  0
  146.9209  143.0722  159.1087 C   0  0  0  0  0  0  0  0  0  0  0  0
  146.6845  142.7245  160.2649 O   0  0  0  0  0  0  0  0  0  0  0  0
  145.9108  142.7259  158.0007 C   0  0  0  0  0  0  0  0  0  0  0  0
  146.4867  142.6350  156.6456 N   0  0  0  0  0  0  0  0  0  0  0  0
  147.6207  141.8144  156.4866 C   0  0  0  0  0  0  0  0  0  0  0  0
  148.2197  141.6444  155.2917 C   0  0  0  0  0  0  0  0  0  0  0  0
  149.3791  140.7922  155.1459 N   0  3  0  0  0  0  0  0  0  0  0  0
  149.9562  140.7644  154.0639 O   0  0  0  0  0  0  0  0  0  0  0  0
  149.7506  140.1229  156.1054 O   0  5  0  0  0  0  0  0  0  0  0  0
  147.6583  142.3413  154.1507 C   0  0  0  0  0  0  0  0  0  0  0  0
  146.5722  143.1256  154.2953 C   0  0  0  0  0  0  0  0  0  0  0  0
  145.9198  143.3062  155.5960 C   0  0  0  0  0  0  0  0  0  0  0  0
  144.9185  144.0089  155.7319 O   0  0  0  0  0  0  0  0  0  0  0  0
  150.3879  144.3943  158.7642 C   0  0  2  0  0  0  0  0  0  0  0  0
  151.0214  143.1792  158.0468 C   0  0  0  0  0  0  0  0  0  0  0  0
  152.5193  143.3292  158.3709 C   0  0  2  0  0  0  0  0  0  0  0  0
  152.7554  142.9368  159.8405 C   0  0  0  0  0  0  0  0  0  0  0  0
  152.1487  144.1253  160.6085 C   0  0  0  0  0  0  0  0  0  0  0  0
  151.6088  145.0258  159.4779 C   0  0  1  0  0  0  0  0  0  0  0  0
  152.6909  144.8434  158.4177 C   0  0  0  0  0  0  0  0  0  0  0  0
  149.5631  145.4553  161.2690 H   0  0  0  0  0  0  0  0  0  0  0  0
  147.8780  144.9784  161.1534 H   0  0  0  0  0  0  0  0  0  0  0  0
  148.5447  146.1304  159.9994 H   0  0  0  0  0  0  0  0  0  0  0  0
  149.3751  143.1870  160.2462 H   0  0  0  0  0  0  0  0  0  0  0  0
  148.1431  143.9880  157.7876 H   0  0  0  0  0  0  0  0  0  0  0  0
  145.4200  141.7867  158.2620 H   0  0  0  0  0  0  0  0  0  0  0  0
  145.1159  143.4727  158.0257 H   0  0  0  0  0  0  0  0  0  0  0  0
  147.9572  141.3343  157.3943 H   0  0  0  0  0  0  0  0  0  0  0  0
  148.1035  142.2384  153.1722 H   0  0  0  0  0  0  0  0  0  0  0  0
  146.1699  143.6347  153.4318 H   0  0  0  0  0  0  0  0  0  0  0  0
  150.0638  145.0989  157.9956 H   0  0  0  0  0  0  0  0  0  0  0  0
  150.6289  142.2228  158.3952 H   0  0  0  0  0  0  0  0  0  0  0  0
  150.8431  143.2346  156.9722 H   0  0  0  0  0  0  0  0  0  0  0  0
  153.1731  142.8105  157.6692 H   0  0  0  0  0  0  0  0  0  0  0  0
  152.2807  141.9892  160.0980 H   0  0  0  0  0  0  0  0  0  0  0  0
  153.8212  142.8460  160.0538 H   0  0  0  0  0  0  0  0  0  0  0  0
  151.3883  143.8224  161.3268 H   0  0  0  0  0  0  0  0  0  0  0  0
  152.9268  144.6467  161.1676 H   0  0  0  0  0  0  0  0  0  0  0  0
  151.4498  146.0605  159.7832 H   0  0  0  0  0  0  0  0  0  0  0  0
  153.6823  145.1562  158.7504 H   0  0  0  0  0  0  0  0  0  0  0  0
  152.4609  145.3350  157.4706 H   0  0  0  0  0  0  0  0  0  0  0  0
  1  2  1  0  0  0  0
  1 24  1  0  0  0  0
  1 25  1  0  0  0  0
  1 26  1  0  0  0  0
  2  3  1  0  0  0  0
  2 17  1  0  0  0  0
  2 27  1  0  0  0  0
  3  4  1  0  0  0  0
  3 28  1  0  0  0  0
  4  5  2  0  0  0  0
  4  6  1  0  0  0  0
  6  7  1  0  0  0  0
  6 29  1  0  0  0  0
  6 30  1  0  0  0  0
  7 15  1  0  0  0  0
  7  8  1  0  0  0  0
  8  9  2  0  0  0  0
  8 31  1  0  0  0  0
  9 10  1  0  0  0  0
  9 13  1  0  0  0  0
 10 11  2  0  0  0  0
 10 12  1  0  0  0  0
 13 14  2  0  0  0  0
 13 32  1  0  0  0  0
 14 15  1  0  0  0  0
 14 33  1  0  0  0  0
 15 16  2  0  0  0  0
 17 22  1  0  0  0  0
 17 18  1  0  0  0  0
 17 34  1  0  0  0  0
 18 19  1  0  0  0  0
 18 35  1  0  0  0  0
 18 36  1  0  0  0  0
 19 23  1  0  0  0  0
 19 20  1  0  0  0  0
 19 37  1  0  0  0  0
 20 21  1  0  0  0  0
 20 38  1  0  0  0  0
 20 39  1  0  0  0  0
 21 22  1  0  0  0  0
 21 40  1  0  0  0  0
 21 41  1  0  0  0  0
 22 23  1  0  0  0  0
 22 42  1  0  0  0  0
 23 43  1  0  0  0  0
 23 44  1  0  0  0  0
M  CHG  1  10   1
M  CHG  1  12  -1
M  END
> <s_m_source_file>
AV-unprocessed.smi

> <i_m_source_file_index>
334

> <i_lp_mmshare_version>
43012

> <i_f3d_flags>
0

> <s_epik_input>
W0NIMl0xW0NIMl1bQ0BIXShbQ0gyXTIpW0NAQEhdKFtDSDJdW0NAQEhdMTIpW0NASF0oW0NIM10pW05IXUMoPU8pW0NIMl1uM1tjSF1jKFtOK10oPU8pW08tXSlbY0hdW2NIXWMzPU8=

> <s_epik_cmdline>
J2VwaWtfcHl0aG9uJywgJy1waCcsICc3LjAnLCAnLXRuJywgJzgnLCAnLW1hJywgJzIwMCcsICctbWV0YWxfYmluZGluZycsICctaW1hZScsICc8aW5maWxlLm1hZT4nLCAnLW9tYWUnLCAnPG91dGZpbGUubWFlPic=

> <r_lp_tautomer_probability>
1

> <r_epik_Ionization_Penalty>
2.17081e-08

> <r_epik_Ionization_Penalty_Charging>
8.1195e-11

> <r_epik_Ionization_Penalty_Neutral>
2.16269e-08

> <r_epik_State_Penalty>
-0

> <r_epik_Charging_Adjusted_Penalty>
8.1195e-11

> <i_epik_Tot_Q>
0

> <i_epik_Tot_abs_Q>
2

> <r_epik_Metal_State_Penalty>
-0

> <b_epik_Metal_Only>
0

> <s_lp_Force_Field>
OPLS_2005

> <r_lp_Energy>
62.3621

> <b_lp_Chiralities_Consistent>
1

> <s_lp_Variant>
AV-unprocessed.smi:334-6

> <Gold.Version>
5.8.1

> <Gold.Id.Protein>
6NUR|6NUR_protein|mol2

> <Gold.PLP.Fitness>
53.0055

> <Gold.PLP.PLP>
-46.5680

> <Gold.PLP.part.hbond>
-4.0000

> <Gold.PLP.part.metal>
0.0000

> <Gold.PLP.part.buried>
-6.4682

> <Gold.PLP.part.nonpolar>
-37.6097

> <Gold.PLP.part.repulsive>
0.3969

> <Gold.PLP.ligand.clash>
0.0000

> <Gold.PLP.ligand.torsion>
0.8129

> <Gold.PLP.Chemscore.Hbond>
2.6742

> <Gold.PLP.Chemscore.CHOScore>
0.0000

> <Gold.PLP.Chemscore.Metal>
0.0000

> <Gold.Chemscore.Hbonds>
donor molecule, donor type, donor heavy atom, donor atom, acceptor molecule, acceptor atom, score
      L1  H     3    28       P1  8029  0.17
      P1  H  6933  6944       L1     5  0.50
      P1  H  6934  6946       L1     5  1.00
      P1  H  7989  7998       L1    11  0.61
      P1  H  8011  8017       L1    11  0.09

> <Gold.PLP.Chemscore.Internal.Correction>
0.0406

> <Gold.Rescore>
     Score         DG    S(hbond)    S(metal)    S(lipo)     H(rot)  DE(clash)    DE(int)     intcor
     20.89     -21.67       2.29        0.00     111.30       1.75       0.22       0.56       ----

> <Gold.Chemscore.Fitness>
20.8896

> <Gold.Chemscore.DG>
-21.6684

> <Gold.Chemscore.ZeroCoef>
-5.4800

> <Gold.Chemscore.Hbond>
2.2872

> <Gold.Chemscore.Metal>
0.0000

> <Gold.Chemscore.Lipo>
111.3031

> <Gold.Chemscore.Internal_Hbond>
0.0000

> <Gold.Chemscore.DEClash>
0.2227

> <Gold.Chemscore.DEInternal>
0.5560

> <Gold.Chemscore.Rot>
1.7474

> <Gold.Chemscore.Internal.Correction>
   9.000000E+99

> <Gold.Chemscore.Hbonds>
donor molecule, donor type, donor heavy atom, donor atom, acceptor molecule, acceptor atom, score
      L1  H     3    28       P1  8029  0.01
      P1  H  6933  6944       L1     5  0.43
      P1  H  6934  6946       L1     5  0.92
      P1  H  7989  7998       L1    11  0.60
      P1  H  8011  8017       L1    11  0.11

> <Gold.Chemscore.Hbond.Weighted>
-7.6392

> <Gold.Chemscore.Metal.Weighted>
-0.0000

> <Gold.Chemscore.Lipo.Weighted>
-13.0225

> <Gold.Chemscore.Internal_Hbond.Weighted>
0.0000

> <Gold.Chemscore.DEClash.Weighted>
0.2227

> <Gold.Chemscore.DEInternal.Weighted>
0.5560

> <Gold.Chemscore.Rot.Weighted>
4.4733

> <Gold.Chemscore.Internal.Correction.Weighted>
   9.000000E+99

> <Gold.Protein.RotatedTorsions>
[ 6907 6896 6895 6894 ] final  -94.41 input  -60.11 | X-H torsion
[ 7974 7965 7964 7962 ] final   61.81 input  175.53 | X-H torsion
[ 8008 7997 7996 7995 ] final  141.73 input   59.86 | X-H torsion
[ 10167 10162 10161 10158 ] final   54.11 input  -65.29 | X-H torsion
[ 10718 10713 10712 10709 ] final  107.70 input   66.30 | X-H torsion
[ 10763 10752 10751 10750 ] final  164.95 input  -60.55 | X-H torsion
[ 11005 11000 10999 10996 ] final -135.79 input  -57.11 | X-H torsion

> <Gold.Protein.ActiveResidues>
 VAL166  LYS551  ARG553  GLY616  TRP617  ASP618  TYR619  PRO620  LYS621  CYS622 
 ASP623  PHE694  ASN695  SER759  ASP760  ASP761  ALA762  ILE779  LEU786  VAL792 
 PHE793  MET794  SER795  GLU796  ALA797  LYS798  CYS799  TRP800  GLU811  SER814 

> <Gold.Protein.RotatedAtoms>
  150.6941  134.1816  159.4250 H   0  0  0  0  0  0  0  0  0  0  0  0  # atno 6907 bound_to 6896
  151.9790  135.0036  160.0566 H   0  0  0  0  0  0  0  0  0  0  0  0  # atno 6908 bound_to 6896
  152.1772  133.4648  159.4976 H   0  0  0  0  0  0  0  0  0  0  0  0  # atno 6909 bound_to 6896
  145.8805  139.3440  143.0709 H   0  0  0  0  0  0  0  0  0  0  0  0  # atno 7974 bound_to 7965
  156.2961  140.2307  156.4612 H   0  0  0  0  0  0  0  0  0  0  0  0  # atno 8008 bound_to 7997
  154.8017  140.0448  157.1298 H   0  0  0  0  0  0  0  0  0  0  0  0  # atno 8009 bound_to 7997
  154.9526  140.3044  155.5071 H   0  0  0  0  0  0  0  0  0  0  0  0  # atno 8010 bound_to 7997
  140.2337  144.3659  150.6405 H   0  0  0  0  0  0  0  0  0  0  0  0  # atno 10167 bound_to 10162
  157.6617  131.0878  150.6196 H   0  0  0  0  0  0  0  0  0  0  0  0  # atno 10718 bound_to 10713
  154.3167  135.2756  155.2540 H   0  0  0  0  0  0  0  0  0  0  0  0  # atno 10763 bound_to 10752
  154.4911  135.5833  153.6463 H   0  0  0  0  0  0  0  0  0  0  0  0  # atno 10764 bound_to 10752
  152.9881  135.6135  154.3348 H   0  0  0  0  0  0  0  0  0  0  0  0  # atno 10765 bound_to 10752
  140.8865  134.1866  157.4556 H   0  0  0  0  0  0  0  0  0  0  0  0  # atno 11005 bound_to 11000
  145.9029  140.9231  143.0494 LP  0  0  0  0  0  0  0  0  0  0  0  0  # atno 17320 bound_to 7965
  144.6727  140.1056  143.7458 LP  0  0  0  0  0  0  0  0  0  0  0  0  # atno 17321 bound_to 7965
  140.6166  143.2173  151.6779 LP  0  0  0  0  0  0  0  0  0  0  0  0  # atno 17342 bound_to 10162
  139.5101  144.3554  152.0613 LP  0  0  0  0  0  0  0  0  0  0  0  0  # atno 17343 bound_to 10162
  156.6498  130.4482  149.5723 LP  0  0  0  0  0  0  0  0  0  0  0  0  # atno 17370 bound_to 10713
  156.2146  130.6700  151.1305 LP  0  0  0  0  0  0  0  0  0  0  0  0  # atno 17371 bound_to 10713
  139.8725  134.9840  156.5221 LP  0  0  0  0  0  0  0  0  0  0  0  0  # atno 17394 bound_to 11000
  140.8399  133.8213  155.9064 LP  0  0  0  0  0  0  0  0  0  0  0  0  # atno 17395 bound_to 11000

$$$$
