AV-unprocessed.smi:3284|AV-procd|sdf|12577|dock1
  -GOLD-   2272018503D 1   1.00000     0.00000
 Structure written by MMmdl.
 45 46  0  0  0  0  0  0  0  0  3 V2000
  146.7822  141.7942  157.6907 C   0  0  0  0  0  0  0  0  0  0  0  0
  147.7048  141.6610  156.4892 C   0  0  0  0  0  0  0  0  0  0  0  0
  147.2124  141.8440  155.2491 C   0  0  0  0  0  0  0  0  0  0  0  0
  148.0118  141.6662  153.9790 C   0  0  0  0  0  0  0  0  0  0  0  0
  149.2483  140.7984  154.2252 C   0  0  0  0  0  0  0  0  0  0  0  0
  150.0433  141.2889  155.4463 C   0  0  2  0  0  0  0  0  0  0  0  0
  151.3285  140.4508  155.5905 C   0  0  0  0  0  0  0  0  0  0  0  0
  149.1823  141.2939  156.7472 C   0  0  1  0  0  0  0  0  0  0  0  0
  149.8442  142.1951  157.8227 C   0  0  0  0  0  0  0  0  0  0  0  0
  150.5847  143.3273  157.2310 N   0  3  0  0  0  0  0  0  0  0  0  0
  151.2172  144.2289  158.2144 C   0  0  0  0  0  0  0  0  0  0  0  0
  152.5980  143.7092  158.6489 C   0  0  0  0  0  0  0  0  0  0  0  0
  152.6990  143.4164  160.1177 C   0  0  0  0  0  0  0  0  0  0  0  0
  152.1719  144.1653  161.0947 N   0  3  0  0  0  0  0  0  0  0  0  0
  152.4670  143.6307  162.3192 C   0  0  0  0  0  0  0  0  0  0  0  0
  153.2068  142.5027  162.0803 C   0  0  0  0  0  0  0  0  0  0  0  0
  153.3315  142.3939  160.7189 N   0  0  0  0  0  0  0  0  0  0  0  0
  154.0392  141.3357  159.9951 C   0  0  0  0  0  0  0  0  0  0  0  0
  146.8657  140.9201  158.3366 H   0  0  0  0  0  0  0  0  0  0  0  0
  145.7396  141.8753  157.3817 H   0  0  0  0  0  0  0  0  0  0  0  0
  147.0175  142.6882  158.2677 H   0  0  0  0  0  0  0  0  0  0  0  0
  146.1769  142.1224  155.1151 H   0  0  0  0  0  0  0  0  0  0  0  0
  147.3808  141.2020  153.2208 H   0  0  0  0  0  0  0  0  0  0  0  0
  148.2948  142.6499  153.6029 H   0  0  0  0  0  0  0  0  0  0  0  0
  148.9408  139.7633  154.3817 H   0  0  0  0  0  0  0  0  0  0  0  0
  149.8754  140.8018  153.3329 H   0  0  0  0  0  0  0  0  0  0  0  0
  150.3418  142.3171  155.2346 H   0  0  0  0  0  0  0  0  0  0  0  0
  151.0981  139.4091  155.8163 H   0  0  0  0  0  0  0  0  0  0  0  0
  151.9838  140.8226  156.3766 H   0  0  0  0  0  0  0  0  0  0  0  0
  151.9075  140.4641  154.6664 H   0  0  0  0  0  0  0  0  0  0  0  0
  149.1645  140.2699  157.1235 H   0  0  0  0  0  0  0  0  0  0  0  0
  149.1067  142.6187  158.5025 H   0  0  0  0  0  0  0  0  0  0  0  0
  150.5151  141.5917  158.4360 H   0  0  0  0  0  0  0  0  0  0  0  0
  151.3135  142.9395  156.6494 H   0  0  0  0  0  0  0  0  0  0  0  0
  151.3139  145.2221  157.7749 H   0  0  0  0  0  0  0  0  0  0  0  0
  150.5676  144.3296  159.0839 H   0  0  0  0  0  0  0  0  0  0  0  0
  152.8467  142.7880  158.1200 H   0  0  0  0  0  0  0  0  0  0  0  0
  153.3766  144.4335  158.4086 H   0  0  0  0  0  0  0  0  0  0  0  0
  152.1362  144.0801  163.2444 H   0  0  0  0  0  0  0  0  0  0  0  0
  153.6407  141.7860  162.7628 H   0  0  0  0  0  0  0  0  0  0  0  0
  154.3400  140.5555  160.6952 H   0  0  0  0  0  0  0  0  0  0  0  0
  154.9274  141.7517  159.5206 H   0  0  0  0  0  0  0  0  0  0  0  0
  153.3804  140.9030  159.2419 H   0  0  0  0  0  0  0  0  0  0  0  0
  149.9541  143.8595  156.6480 H   0  0  0  0  0  0  0  0  0  0  0  0
  151.6235  145.0037  160.9483 H   0  0  0  0  0  0  0  0  0  0  0  0
  1  2  1  0  0  0  0
  1 19  1  0  0  0  0
  1 20  1  0  0  0  0
  1 21  1  0  0  0  0
  2  8  1  0  0  0  0
  2  3  2  0  0  0  0
  3  4  1  0  0  0  0
  3 22  1  0  0  0  0
  4  5  1  0  0  0  0
  4 23  1  0  0  0  0
  4 24  1  0  0  0  0
  5  6  1  0  0  0  0
  5 25  1  0  0  0  0
  5 26  1  0  0  0  0
  6  7  1  0  0  0  0
  6  8  1  0  0  0  0
  6 27  1  0  0  0  0
  7 28  1  0  0  0  0
  7 29  1  0  0  0  0
  7 30  1  0  0  0  0
  8  9  1  0  0  0  0
  8 31  1  0  0  0  0
  9 10  1  0  0  0  0
  9 32  1  0  0  0  0
  9 33  1  0  0  0  0
 10 11  1  0  0  0  0
 10 34  1  0  0  0  0
 10 44  1  0  0  0  0
 11 12  1  0  0  0  0
 11 35  1  0  0  0  0
 11 36  1  0  0  0  0
 12 13  1  0  0  0  0
 12 37  1  0  0  0  0
 12 38  1  0  0  0  0
 13 17  1  0  0  0  0
 13 14  2  0  0  0  0
 14 15  1  0  0  0  0
 14 45  1  0  0  0  0
 15 16  2  0  0  0  0
 15 39  1  0  0  0  0
 16 17  1  0  0  0  0
 16 40  1  0  0  0  0
 17 18  1  0  0  0  0
 18 41  1  0  0  0  0
 18 42  1  0  0  0  0
 18 43  1  0  0  0  0
M  CHG  1  10   1
M  CHG  1  14   1
M  END
> <s_m_source_file>
AV-unprocessed.smi

> <i_m_source_file_index>
3284

> <i_lp_mmshare_version>
43012

> <i_f3d_flags>
0

> <s_epik_input>
W0NIM11DMT1bQ0hdW0NIMl1bQ0gyXVtDQEBIXShbQ0gzXSlbQ0BIXTFbQ0gyXVtOSF1bQ0gyXVtDSDJdYzJuW2NIXVtjSF1uMltDSDNd

> <s_epik_cmdline>
J2VwaWtfcHl0aG9uJywgJy1waCcsICc3LjAnLCAnLXRuJywgJzgnLCAnLW1hJywgJzIwMCcsICctbWV0YWxfYmluZGluZycsICctaW1hZScsICc8aW5maWxlLm1hZT4nLCAnLW9tYWUnLCAnPG91dGZpbGUubWFlPic=

> <r_lp_tautomer_probability>
1

> <r_epik_Ionization_Penalty>
0.892846

> <r_epik_Ionization_Penalty_Charging>
0.00275802

> <r_epik_Ionization_Penalty_Neutral>
0.890088

> <r_epik_State_Penalty>
0.485211

> <r_epik_Charging_Adjusted_Penalty>
0.487969

> <i_epik_Tot_Q>
2

> <i_epik_Tot_abs_Q>
2

> <r_epik_Metal_State_Penalty>
4.22898

> <b_epik_Metal_Only>
0

> <s_lp_Force_Field>
OPLS_2005

> <r_lp_Energy>
25.617

> <b_lp_Chiralities_Consistent>
1

> <s_lp_Variant>
AV-unprocessed.smi:3284-6

> <Gold.Version>
5.8.1

> <Gold.Id.Protein>
6NUR|6NUR_protein|mol2

> <Gold.PLP.Fitness>
51.2218

> <Gold.PLP.PLP>
-47.5225

> <Gold.PLP.part.hbond>
-1.0000

> <Gold.PLP.part.metal>
0.0000

> <Gold.PLP.part.buried>
-3.8783

> <Gold.PLP.part.nonpolar>
-43.2334

> <Gold.PLP.part.repulsive>
0.0462

> <Gold.PLP.ligand.clash>
0.0000

> <Gold.PLP.ligand.torsion>
1.2108

> <Gold.PLP.Chemscore.Hbond>
2.0000

> <Gold.PLP.Chemscore.CHOScore>
0.0000

> <Gold.PLP.Chemscore.Metal>
0.0000

> <Gold.Chemscore.Hbonds>
donor molecule, donor type, donor heavy atom, donor atom, acceptor molecule, acceptor atom, score
      L1  H    10    44       P1  8028  2.00

> <Gold.PLP.Chemscore.Internal.Correction>
0.1209

> <Gold.Rescore>
     Score         DG    S(hbond)    S(metal)    S(lipo)     H(rot)  DE(clash)    DE(int)     intcor
     15.75     -17.04       0.98        0.00     107.87       1.70       0.10       1.18       ----

> <Gold.Chemscore.Fitness>
15.7541

> <Gold.Chemscore.DG>
-17.0388

> <Gold.Chemscore.ZeroCoef>
-5.4800

> <Gold.Chemscore.Hbond>
0.9848

> <Gold.Chemscore.Metal>
0.0000

> <Gold.Chemscore.Lipo>
107.8701

> <Gold.Chemscore.Internal_Hbond>
0.0000

> <Gold.Chemscore.DEClash>
0.1027

> <Gold.Chemscore.DEInternal>
1.1820

> <Gold.Chemscore.Rot>
1.6997

> <Gold.Chemscore.Internal.Correction>
   9.000000E+99

> <Gold.Chemscore.Hbonds>
donor molecule, donor type, donor heavy atom, donor atom, acceptor molecule, acceptor atom, score
      L1  H    10    44       P1  8028  1.00

> <Gold.Chemscore.Hbond.Weighted>
-3.2893

> <Gold.Chemscore.Metal.Weighted>
-0.0000

> <Gold.Chemscore.Lipo.Weighted>
-12.6208

> <Gold.Chemscore.Internal_Hbond.Weighted>
0.0000

> <Gold.Chemscore.DEClash.Weighted>
0.1027

> <Gold.Chemscore.DEInternal.Weighted>
1.1820

> <Gold.Chemscore.Rot.Weighted>
4.3512

> <Gold.Chemscore.Internal.Correction.Weighted>
   9.000000E+99

> <Gold.Protein.RotatedTorsions>
[ 6907 6896 6895 6894 ] final   21.57 input  -60.11 | X-H torsion
[ 7974 7965 7964 7962 ] final   27.84 input  175.53 | X-H torsion
[ 8008 7997 7996 7995 ] final    3.32 input   59.86 | X-H torsion
[ 10167 10162 10161 10158 ] final   -5.56 input  -65.29 | X-H torsion
[ 10718 10713 10712 10709 ] final  155.49 input   66.30 | X-H torsion
[ 10763 10752 10751 10750 ] final   -0.97 input  -60.55 | X-H torsion
[ 11005 11000 10999 10996 ] final  127.26 input  -57.11 | X-H torsion

> <Gold.Protein.ActiveResidues>
 VAL166  LYS551  ARG553  GLY616  TRP617  ASP618  TYR619  PRO620  LYS621  CYS622 
 ASP623  PHE694  ASN695  SER759  ASP760  ASP761  ALA762  ILE779  LEU786  VAL792 
 PHE793  MET794  SER795  GLU796  ALA797  LYS798  CYS799  TRP800  GLU811  SER814 

> <Gold.Protein.RotatedAtoms>
  151.9137  135.0328  160.0516 H   0  0  0  0  0  0  0  0  0  0  0  0  # atno 6907 bound_to 6896
  152.2257  133.5014  159.5196 H   0  0  0  0  0  0  0  0  0  0  0  0  # atno 6908 bound_to 6896
  150.7012  134.1199  159.4074 H   0  0  0  0  0  0  0  0  0  0  0  0  # atno 6909 bound_to 6896
  146.1762  139.7137  142.8933 H   0  0  0  0  0  0  0  0  0  0  0  0  # atno 7974 bound_to 7965
  154.7023  140.2675  155.6708 H   0  0  0  0  0  0  0  0  0  0  0  0  # atno 8008 bound_to 7997
  156.2769  140.2770  156.1561 H   0  0  0  0  0  0  0  0  0  0  0  0  # atno 8009 bound_to 7997
  155.0748  140.0372  157.2610 H   0  0  0  0  0  0  0  0  0  0  0  0  # atno 8010 bound_to 7997
  140.6967  143.6295  150.8536 H   0  0  0  0  0  0  0  0  0  0  0  0  # atno 10167 bound_to 10162
  157.2176  131.0711  151.1931 H   0  0  0  0  0  0  0  0  0  0  0  0  # atno 10718 bound_to 10713
  153.3387  135.6979  153.6885 H   0  0  0  0  0  0  0  0  0  0  0  0  # atno 10763 bound_to 10752
  153.5658  135.3526  155.2818 H   0  0  0  0  0  0  0  0  0  0  0  0  # atno 10764 bound_to 10752
  154.8632  135.4260  154.2595 H   0  0  0  0  0  0  0  0  0  0  0  0  # atno 10765 bound_to 10752
  139.9498  134.9624  156.8828 H   0  0  0  0  0  0  0  0  0  0  0  0  # atno 11005 bound_to 11000
  145.4204  141.0406  143.2967 LP  0  0  0  0  0  0  0  0  0  0  0  0  # atno 17320 bound_to 7965
  144.8240  139.5742  143.6974 LP  0  0  0  0  0  0  0  0  0  0  0  0  # atno 17321 bound_to 7965
  140.0013  143.5741  152.2874 LP  0  0  0  0  0  0  0  0  0  0  0  0  # atno 17342 bound_to 10162
  139.6431  144.7656  151.2298 LP  0  0  0  0  0  0  0  0  0  0  0  0  # atno 17343 bound_to 10162
  157.3608  130.7130  149.6501 LP  0  0  0  0  0  0  0  0  0  0  0  0  # atno 17370 bound_to 10713
  155.9685  130.4226  150.4523 LP  0  0  0  0  0  0  0  0  0  0  0  0  # atno 17371 bound_to 10713
  140.5746  134.0410  155.7442 LP  0  0  0  0  0  0  0  0  0  0  0  0  # atno 17394 bound_to 11000
  141.1158  133.9542  157.2825 LP  0  0  0  0  0  0  0  0  0  0  0  0  # atno 17395 bound_to 11000

$$$$
