AV-unprocessed.smi:148|AV-procd|sdf|1212|dock9
  -GOLD-   2262018393D 1   1.00000     0.00000
 Structure written by MMmdl.
 63 67  0  0  0  0  0  0  0  0  1 V2000
  142.7076  134.3038  153.4453 O   0  0  0  0  0  0  0  0  0  0  0  0
  143.9862  134.8524  153.6919 C   0  0  0  0  0  0  0  0  0  0  0  0
  145.1106  133.9372  153.1409 C   0  0  2  0  0  0  0  0  0  0  0  0
  146.4974  134.3453  153.7069 C   0  0  0  0  0  0  0  0  0  0  0  0
  146.5910  134.1946  155.1487 N   0  0  0  0  0  0  0  0  0  0  0  0
  145.6057  133.7260  155.9875 C   0  0  0  0  0  0  0  0  0  0  0  0
  145.9218  133.6930  157.2531 N   0  0  0  0  0  0  0  0  0  0  0  0
  147.2273  134.1684  157.2872 C   0  0  0  0  0  0  0  0  0  0  0  0
  148.1765  134.3978  158.3233 C   0  0  0  0  0  0  0  0  0  0  0  0
  147.9481  134.1819  159.6370 N   0  0  0  0  0  0  0  0  0  0  0  0
  146.9548  135.1523  160.1039 C   0  0  0  0  0  0  0  0  0  0  0  0
  146.8311  135.1458  161.6297 C   0  0  0  0  0  0  0  0  0  0  0  0
  146.5078  133.7330  162.1144 C   0  0  0  0  0  0  0  0  0  0  0  0
  147.5793  132.7574  161.6135 C   0  0  0  0  0  0  0  0  0  0  0  0
  147.7441  132.7821  160.0684 C   0  0  2  0  0  0  0  0  0  0  0  0
  148.8972  131.8101  159.6359 C   0  0  2  0  0  0  0  0  0  0  0  0
  149.0388  131.5068  158.1281 C   0  0  0  0  0  0  0  0  0  0  0  0
  149.7606  130.1569  158.0050 C   0  0  0  0  0  0  0  0  0  0  0  0
  149.8546  129.5914  159.4244 C   0  0  0  0  0  0  0  0  0  0  0  0
  148.8434  130.3927  160.2451 C   0  0  2  0  0  0  0  0  0  0  0  0
  147.5637  129.8066  160.0795 O   0  0  0  0  0  0  0  0  0  0  0  0
  149.3883  134.8997  157.9794 N   0  0  0  0  0  0  0  0  0  0  0  0
  149.6679  135.1443  156.6956 C   0  0  0  0  0  0  0  0  0  0  0  0
  148.8912  134.9720  155.6236 N   0  0  0  0  0  0  0  0  0  0  0  0
  147.6667  134.4811  155.9706 C   0  0  0  0  0  0  0  0  0  0  0  0
  145.1297  133.8490  151.5837 C   0  0  2  0  0  0  0  0  0  0  0  0
  143.9569  133.1042  150.9541 C   0  0  0  0  0  0  0  0  0  0  0  0
  144.3695  131.6377  151.0590 C   0  0  0  0  0  0  0  0  0  0  0  0
  145.7926  131.6399  151.0982 O   0  0  0  0  0  0  0  0  0  0  0  0
  146.2688  132.9789  151.0328 C   0  0  0  0  0  0  0  0  0  0  0  0
  142.6179  133.5101  153.9504 H   0  0  0  0  0  0  0  0  0  0  0  0
  144.0293  135.8442  153.2432 H   0  0  0  0  0  0  0  0  0  0  0  0
  144.0988  135.0246  154.7609 H   0  0  0  0  0  0  0  0  0  0  0  0
  144.8978  132.9360  153.5185 H   0  0  0  0  0  0  0  0  0  0  0  0
  147.2974  133.7475  153.2748 H   0  0  0  0  0  0  0  0  0  0  0  0
  146.7218  135.3807  153.4479 H   0  0  0  0  0  0  0  0  0  0  0  0
  144.6359  133.4139  155.6279 H   0  0  0  0  0  0  0  0  0  0  0  0
  147.2259  136.1558  159.7708 H   0  0  0  0  0  0  0  0  0  0  0  0
  145.9842  134.9236  159.6614 H   0  0  0  0  0  0  0  0  0  0  0  0
  147.7630  135.4911  162.0798 H   0  0  0  0  0  0  0  0  0  0  0  0
  146.0524  135.8404  161.9456 H   0  0  0  0  0  0  0  0  0  0  0  0
  146.4559  133.7106  163.2033 H   0  0  0  0  0  0  0  0  0  0  0  0
  145.5277  133.4284  161.7457 H   0  0  0  0  0  0  0  0  0  0  0  0
  148.5324  133.0004  162.0855 H   0  0  0  0  0  0  0  0  0  0  0  0
  147.3088  131.7626  161.9640 H   0  0  0  0  0  0  0  0  0  0  0  0
  146.8099  132.4291  159.6302 H   0  0  0  0  0  0  0  0  0  0  0  0
  149.8388  132.2526  159.9662 H   0  0  0  0  0  0  0  0  0  0  0  0
  148.0535  131.4282  157.6672 H   0  0  0  0  0  0  0  0  0  0  0  0
  149.5912  132.2797  157.5956 H   0  0  0  0  0  0  0  0  0  0  0  0
  149.1922  129.4871  157.3589 H   0  0  0  0  0  0  0  0  0  0  0  0
  150.7527  130.2699  157.5668 H   0  0  0  0  0  0  0  0  0  0  0  0
  149.6837  128.5149  159.4637 H   0  0  0  0  0  0  0  0  0  0  0  0
  150.8566  129.7740  159.8151 H   0  0  0  0  0  0  0  0  0  0  0  0
  149.1070  130.3847  161.3031 H   0  0  0  0  0  0  0  0  0  0  0  0
  146.9142  130.4031  160.4189 H   0  0  0  0  0  0  0  0  0  0  0  0
  150.6550  135.5362  156.4986 H   0  0  0  0  0  0  0  0  0  0  0  0
  145.1926  134.8590  151.1765 H   0  0  0  0  0  0  0  0  0  0  0  0
  142.9799  133.3079  151.3873 H   0  0  0  0  0  0  0  0  0  0  0  0
  143.8898  133.3785  149.9000 H   0  0  0  0  0  0  0  0  0  0  0  0
  143.9941  131.1943  151.9819 H   0  0  0  0  0  0  0  0  0  0  0  0
  143.9964  131.0470  150.2222 H   0  0  0  0  0  0  0  0  0  0  0  0
  146.4495  133.2248  149.9852 H   0  0  0  0  0  0  0  0  0  0  0  0
  147.2192  133.0812  151.5527 H   0  0  0  0  0  0  0  0  0  0  0  0
  1  2  1  0  0  0  0
  1 31  1  0  0  0  0
  2  3  1  0  0  0  0
  2 32  1  0  0  0  0
  2 33  1  0  0  0  0
  3  4  1  0  0  0  0
  3 26  1  0  0  0  0
  3 34  1  0  0  0  0
  4  5  1  0  0  0  0
  4 35  1  0  0  0  0
  4 36  1  0  0  0  0
  5 25  1  0  0  0  0
  5  6  1  0  0  0  0
  6  7  2  0  0  0  0
  6 37  1  0  0  0  0
  7  8  1  0  0  0  0
  8 25  2  0  0  0  0
  8  9  1  0  0  0  0
  9 10  1  0  0  0  0
  9 22  2  0  0  0  0
 10 15  1  0  0  0  0
 10 11  1  0  0  0  0
 11 12  1  0  0  0  0
 11 38  1  0  0  0  0
 11 39  1  0  0  0  0
 12 13  1  0  0  0  0
 12 40  1  0  0  0  0
 12 41  1  0  0  0  0
 13 14  1  0  0  0  0
 13 42  1  0  0  0  0
 13 43  1  0  0  0  0
 14 15  1  0  0  0  0
 14 44  1  0  0  0  0
 14 45  1  0  0  0  0
 15 16  1  0  0  0  0
 15 46  1  0  0  0  0
 16 20  1  0  0  0  0
 16 17  1  0  0  0  0
 16 47  1  0  0  0  0
 17 18  1  0  0  0  0
 17 48  1  0  0  0  0
 17 49  1  0  0  0  0
 18 19  1  0  0  0  0
 18 50  1  0  0  0  0
 18 51  1  0  0  0  0
 19 20  1  0  0  0  0
 19 52  1  0  0  0  0
 19 53  1  0  0  0  0
 20 21  1  0  0  0  0
 20 54  1  0  0  0  0
 21 55  1  0  0  0  0
 22 23  1  0  0  0  0
 23 24  2  0  0  0  0
 23 56  1  0  0  0  0
 24 25  1  0  0  0  0
 26 30  1  0  0  0  0
 26 27  1  0  0  0  0
 26 57  1  0  0  0  0
 27 28  1  0  0  0  0
 27 58  1  0  0  0  0
 27 59  1  0  0  0  0
 28 29  1  0  0  0  0
 28 60  1  0  0  0  0
 28 61  1  0  0  0  0
 29 30  1  0  0  0  0
 30 62  1  0  0  0  0
 30 63  1  0  0  0  0
M  END
> <s_m_source_file>
AV-unprocessed.smi

> <i_m_source_file_index>
148

> <i_lp_mmshare_version>
43012

> <i_f3d_flags>
0

> <s_epik_input>
W0NIMl0xT1tDSDJdW0NIMl1bQ0BIXTFbQ0BIXShbQ0gyXVtPSF0pW0NIMl1uKFtjSF1uMiljKGMyMyluW2NIXW5jM040W0NIMl1bQ0gyXVtDSDJdW0NIMl1bQ0BIXTRbQ0BASF01W0NIMl1bQ0gyXVtDSDJdW0NASF01W09IXQ==

> <s_epik_cmdline>
J2VwaWtfcHl0aG9uJywgJy1waCcsICc3LjAnLCAnLXRuJywgJzgnLCAnLW1hJywgJzIwMCcsICctbWV0YWxfYmluZGluZycsICctaW1hZScsICc8aW5maWxlLm1hZT4nLCAnLW9tYWUnLCAnPG91dGZpbGUubWFlPic=

> <r_lp_tautomer_probability>
1

> <r_epik_Ionization_Penalty>
0.00556303

> <r_epik_Ionization_Penalty_Charging>
0

> <r_epik_Ionization_Penalty_Neutral>
0.00556303

> <r_epik_State_Penalty>
0.00401767

> <r_epik_Charging_Adjusted_Penalty>
0.00401767

> <i_epik_Tot_Q>
0

> <i_epik_Tot_abs_Q>
0

> <r_epik_Metal_State_Penalty>
-0

> <b_epik_Metal_Only>
0

> <s_lp_Force_Field>
OPLS_2005

> <r_lp_Energy>
72.8369

> <b_lp_Chiralities_Consistent>
1

> <s_lp_Variant>
AV-unprocessed.smi:148-11

> <Gold.Version>
5.8.1

> <Gold.Id.Protein>
6NUR|6NUR_protein|mol2

> <Gold.PLP.Fitness>
39.3616

> <Gold.PLP.PLP>
-31.6241

> <Gold.PLP.part.hbond>
-2.0000

> <Gold.PLP.part.metal>
0.0000

> <Gold.PLP.part.buried>
-6.5489

> <Gold.PLP.part.nonpolar>
-23.5852

> <Gold.PLP.part.repulsive>
0.1936

> <Gold.PLP.ligand.clash>
0.0000

> <Gold.PLP.ligand.torsion>
0.4043

> <Gold.PLP.Chemscore.Hbond>
2.0000

> <Gold.PLP.Chemscore.CHOScore>
0.6383

> <Gold.PLP.Chemscore.Metal>
0.0000

> <Gold.Chemscore.Hbonds>
donor molecule, donor type, donor heavy atom, donor atom, acceptor molecule, acceptor atom, score
      L1  H     1    31       P1 10957  1.00
      P1  H  6896  6907       L1    22  0.99
      L1  C     6    37       P1 10957  0.60

> <Gold.PLP.Chemscore.Internal.Correction>
0.6313

> <Gold.Rescore>
     Score         DG    S(hbond)    S(metal)    S(lipo)     H(rot)  DE(clash)    DE(int)     intcor
      9.63     -12.88       1.88        0.00      82.25       3.32       0.00       3.25       ----

> <Gold.Chemscore.Fitness>
9.6280

> <Gold.Chemscore.DG>
-12.8794

> <Gold.Chemscore.ZeroCoef>
-5.4800

> <Gold.Chemscore.Hbond>
1.8790

> <Gold.Chemscore.Metal>
0.0000

> <Gold.Chemscore.Lipo>
82.2525

> <Gold.Chemscore.Internal_Hbond>
0.0000

> <Gold.Chemscore.DEClash>
0.0015

> <Gold.Chemscore.DEInternal>
3.2500

> <Gold.Chemscore.Rot>
3.3203

> <Gold.Chemscore.Internal.Correction>
   9.000000E+99

> <Gold.Chemscore.Hbonds>
donor molecule, donor type, donor heavy atom, donor atom, acceptor molecule, acceptor atom, score
      L1  H     1    31       P1 10957  1.00
      P1  H  6896  6907       L1    22  0.40

> <Gold.Chemscore.Hbond.Weighted>
-6.2759

> <Gold.Chemscore.Metal.Weighted>
-0.0000

> <Gold.Chemscore.Lipo.Weighted>
-9.6235

> <Gold.Chemscore.Internal_Hbond.Weighted>
0.0000

> <Gold.Chemscore.DEClash.Weighted>
0.0015

> <Gold.Chemscore.DEInternal.Weighted>
3.2500

> <Gold.Chemscore.Rot.Weighted>
8.5000

> <Gold.Chemscore.Internal.Correction.Weighted>
   9.000000E+99

> <Gold.Protein.RotatedTorsions>
[ 6907 6896 6895 6894 ] final -101.81 input  -60.11 | X-H torsion
[ 7974 7965 7964 7962 ] final   37.07 input  175.53 | X-H torsion
[ 8008 7997 7996 7995 ] final  -17.12 input   59.86 | X-H torsion
[ 10167 10162 10161 10158 ] final  165.90 input  -65.29 | X-H torsion
[ 10718 10713 10712 10709 ] final  -70.59 input   66.30 | X-H torsion
[ 10763 10752 10751 10750 ] final   -3.59 input  -60.55 | X-H torsion
[ 11005 11000 10999 10996 ] final    9.55 input  -57.11 | X-H torsion

> <Gold.Protein.ActiveResidues>
 VAL166  LYS551  ARG553  GLY616  TRP617  ASP618  TYR619  PRO620  LYS621  CYS622 
 ASP623  PHE694  ASN695  SER759  ASP760  ASP761  ALA762  ILE779  LEU786  VAL792 
 PHE793  MET794  SER795  GLU796  ALA797  LYS798  CYS799  TRP800  GLU811  SER814 

> <Gold.Protein.RotatedAtoms>
  150.7170  134.0677  159.3853 H   0  0  0  0  0  0  0  0  0  0  0  0  # atno 6907 bound_to 6896
  151.8659  135.0505  160.0483 H   0  0  0  0  0  0  0  0  0  0  0  0  # atno 6908 bound_to 6896
  152.2681  133.5322  159.5459 H   0  0  0  0  0  0  0  0  0  0  0  0  # atno 6909 bound_to 6896
  146.1164  139.5939  142.9318 H   0  0  0  0  0  0  0  0  0  0  0  0  # atno 7974 bound_to 7965
  154.5002  140.2151  155.9363 H   0  0  0  0  0  0  0  0  0  0  0  0  # atno 8008 bound_to 7997
  156.1424  140.3177  155.8483 H   0  0  0  0  0  0  0  0  0  0  0  0  # atno 8009 bound_to 7997
  155.4096  140.0489  157.3023 H   0  0  0  0  0  0  0  0  0  0  0  0  # atno 8010 bound_to 7997
  139.4914  144.4083  151.9329 H   0  0  0  0  0  0  0  0  0  0  0  0  # atno 10167 bound_to 10162
  156.0401  130.4334  150.2317 H   0  0  0  0  0  0  0  0  0  0  0  0  # atno 10718 bound_to 10713
  153.3734  135.6995  153.6620 H   0  0  0  0  0  0  0  0  0  0  0  0  # atno 10763 bound_to 10752
  153.5260  135.3602  155.2654 H   0  0  0  0  0  0  0  0  0  0  0  0  # atno 10764 bound_to 10752
  154.8684  135.4169  154.3017 H   0  0  0  0  0  0  0  0  0  0  0  0  # atno 10765 bound_to 10752
  140.5244  134.0527  155.7854 H   0  0  0  0  0  0  0  0  0  0  0  0  # atno 11005 bound_to 11000
  145.5557  141.0409  143.2254 LP  0  0  0  0  0  0  0  0  0  0  0  0  # atno 17320 bound_to 7965
  144.7557  139.7080  143.7255 LP  0  0  0  0  0  0  0  0  0  0  0  0  # atno 17321 bound_to 7965
  140.3524  144.3073  150.5947 LP  0  0  0  0  0  0  0  0  0  0  0  0  # atno 17342 bound_to 10162
  140.5473  143.2212  151.7985 LP  0  0  0  0  0  0  0  0  0  0  0  0  # atno 17343 bound_to 10162
  157.0413  131.0036  151.3282 LP  0  0  0  0  0  0  0  0  0  0  0  0  # atno 17370 bound_to 10713
  157.5207  130.7996  149.7806 LP  0  0  0  0  0  0  0  0  0  0  0  0  # atno 17371 bound_to 10713
  141.1316  133.9292  157.2523 LP  0  0  0  0  0  0  0  0  0  0  0  0  # atno 17394 bound_to 11000
  139.9588  135.0159  156.9203 LP  0  0  0  0  0  0  0  0  0  0  0  0  # atno 17395 bound_to 11000

$$$$
