AV-unprocessed.smi:1021|AV-procd|sdf|4454|dock7
  -GOLD-   22720 2423D 1   1.00000     0.00000
 Structure written by MMmdl.
 42 44  0  0  0  0  0  0  0  0  1 V2000
  150.8957  137.7567  153.7980 O   0  0  0  0  0  0  0  0  0  0  0  0
  152.1324  138.0736  154.4020 C   0  0  0  0  0  0  0  0  0  0  0  0
  152.0065  139.3457  155.2516 C   0  0  0  0  0  0  0  0  0  0  0  0
  151.6536  139.0679  156.7211 C   0  0  0  0  0  0  0  0  0  0  0  0
  151.7273  140.3004  157.5757 C   0  0  0  0  0  0  0  0  0  0  0  0
  152.5640  140.3508  158.6133 N   0  0  0  0  0  0  0  0  0  0  0  0
  152.3321  141.6052  159.1374 C   0  0  0  0  0  0  0  0  0  0  0  0
  152.9078  142.2537  160.2533 C   0  0  0  0  0  0  0  0  0  0  0  0
  152.4990  143.5546  160.6121 C   0  0  0  0  0  0  0  0  0  0  0  0
  151.5093  144.2225  159.8629 C   0  0  0  0  0  0  0  0  0  0  0  0
  150.9252  143.5944  158.7462 C   0  0  0  0  0  0  0  0  0  0  0  0
  151.3406  142.2971  158.3878 C   0  0  0  0  0  0  0  0  0  0  0  0
  150.9819  141.4207  157.3653 N   0  0  0  0  0  0  0  0  0  0  0  0
  149.9826  141.7011  156.3369 C   0  0  0  0  0  0  0  0  0  0  0  0
  148.5898  141.1300  156.6755 C   0  0  2  0  0  0  0  0  0  0  0  0
  148.5617  139.7747  156.2755 O   0  0  0  0  0  0  0  0  0  0  0  0
  147.4552  141.9348  156.0587 C   0  0  0  0  0  0  0  0  0  0  0  0
  146.5307  142.5991  156.8933 C   0  0  0  0  0  0  0  0  0  0  0  0
  145.4755  143.3445  156.3321 C   0  0  0  0  0  0  0  0  0  0  0  0
  145.3386  143.4301  154.9331 C   0  0  0  0  0  0  0  0  0  0  0  0
  144.3254  144.1486  154.3941 F   0  0  0  0  0  0  0  0  0  0  0  0
  146.2588  142.7713  154.0953 C   0  0  0  0  0  0  0  0  0  0  0  0
  147.3155  142.0276  154.6559 C   0  0  0  0  0  0  0  0  0  0  0  0
  151.0127  136.9895  153.2586 H   0  0  0  0  0  0  0  0  0  0  0  0
  152.4704  137.2326  155.0080 H   0  0  0  0  0  0  0  0  0  0  0  0
  152.8713  138.2224  153.6141 H   0  0  0  0  0  0  0  0  0  0  0  0
  152.9502  139.8909  155.2124 H   0  0  0  0  0  0  0  0  0  0  0  0
  151.2637  140.0047  154.8084 H   0  0  0  0  0  0  0  0  0  0  0  0
  150.6787  138.5945  156.8004 H   0  0  0  0  0  0  0  0  0  0  0  0
  152.3557  138.3368  157.1234 H   0  0  0  0  0  0  0  0  0  0  0  0
  153.6631  141.7474  160.8359 H   0  0  0  0  0  0  0  0  0  0  0  0
  152.9443  144.0405  161.4678 H   0  0  0  0  0  0  0  0  0  0  0  0
  151.1986  145.2174  160.1464 H   0  0  0  0  0  0  0  0  0  0  0  0
  150.1653  144.1051  158.1739 H   0  0  0  0  0  0  0  0  0  0  0  0
  149.9123  142.7663  156.1316 H   0  0  0  0  0  0  0  0  0  0  0  0
  150.3453  141.2475  155.4134 H   0  0  0  0  0  0  0  0  0  0  0  0
  148.4527  141.1221  157.7568 H   0  0  0  0  0  0  0  0  0  0  0  0
  147.6689  139.5425  156.0698 H   0  0  0  0  0  0  0  0  0  0  0  0
  146.6301  142.5423  157.9675 H   0  0  0  0  0  0  0  0  0  0  0  0
  144.7722  143.8518  156.9757 H   0  0  0  0  0  0  0  0  0  0  0  0
  146.1582  142.8407  153.0223 H   0  0  0  0  0  0  0  0  0  0  0  0
  148.0204  141.5324  154.0043 H   0  0  0  0  0  0  0  0  0  0  0  0
  1  2  1  0  0  0  0
  1 24  1  0  0  0  0
  2  3  1  0  0  0  0
  2 25  1  0  0  0  0
  2 26  1  0  0  0  0
  3  4  1  0  0  0  0
  3 27  1  0  0  0  0
  3 28  1  0  0  0  0
  4  5  1  0  0  0  0
  4 29  1  0  0  0  0
  4 30  1  0  0  0  0
  5 13  1  0  0  0  0
  5  6  2  0  0  0  0
  6  7  1  0  0  0  0
  7 12  2  0  0  0  0
  7  8  1  0  0  0  0
  8  9  2  0  0  0  0
  8 31  1  0  0  0  0
  9 10  1  0  0  0  0
  9 32  1  0  0  0  0
 10 11  2  0  0  0  0
 10 33  1  0  0  0  0
 11 12  1  0  0  0  0
 11 34  1  0  0  0  0
 12 13  1  0  0  0  0
 13 14  1  0  0  0  0
 14 15  1  0  0  0  0
 14 35  1  0  0  0  0
 14 36  1  0  0  0  0
 15 16  1  0  0  0  0
 15 17  1  0  0  0  0
 15 37  1  0  0  0  0
 16 38  1  0  0  0  0
 17 23  1  0  0  0  0
 17 18  2  0  0  0  0
 18 19  1  0  0  0  0
 18 39  1  0  0  0  0
 19 20  2  0  0  0  0
 19 40  1  0  0  0  0
 20 21  1  0  0  0  0
 20 22  1  0  0  0  0
 22 23  2  0  0  0  0
 22 41  1  0  0  0  0
 23 42  1  0  0  0  0
M  END
> <s_m_source_file>
AV-unprocessed.smi

> <i_m_source_file_index>
1021

> <i_lp_mmshare_version>
43012

> <i_f3d_flags>
0

> <s_epik_input>
W09IXVtDSDJdW0NIMl1bQ0gyXWMobjEpbihjKGMxMilbY0hdW2NIXVtjSF1bY0hdMilbQ0gyXVtDQEhdKFtPSF0pYzNbY0hdW2NIXWMoRilbY0hdW2NIXTM=

> <s_epik_cmdline>
J2VwaWtfcHl0aG9uJywgJy1waCcsICc3LjAnLCAnLXRuJywgJzgnLCAnLW1hJywgJzIwMCcsICctbWV0YWxfYmluZGluZycsICctaW1hZScsICc8aW5maWxlLm1hZT4nLCAnLW9tYWUnLCAnPG91dGZpbGUubWFlPic=

> <r_epik_Ionization_Penalty>
0.182562

> <r_epik_Ionization_Penalty_Charging>
0

> <r_epik_Ionization_Penalty_Neutral>
0.182562

> <r_epik_State_Penalty>
0.172086

> <r_epik_Charging_Adjusted_Penalty>
0.172086

> <i_epik_Tot_Q>
0

> <i_epik_Tot_abs_Q>
0

> <r_epik_Metal_State_Penalty>
0.000199649

> <b_epik_Metal_Only>
0

> <s_lp_Force_Field>
OPLS_2005

> <r_lp_Energy>
12.4475

> <b_lp_Chiralities_Consistent>
1

> <s_lp_Variant>
AV-unprocessed.smi:1021-1

> <Gold.Version>
5.8.1

> <Gold.Id.Protein>
6NUR|6NUR_protein|mol2

> <Gold.PLP.Fitness>
49.2953

> <Gold.PLP.PLP>
-47.9903

> <Gold.PLP.part.hbond>
-1.8242

> <Gold.PLP.part.metal>
0.0000

> <Gold.PLP.part.buried>
-5.1647

> <Gold.PLP.part.nonpolar>
-41.4873

> <Gold.PLP.part.repulsive>
0.0000

> <Gold.PLP.ligand.clash>
0.0000

> <Gold.PLP.ligand.torsion>
0.8669

> <Gold.PLP.Chemscore.Hbond>
0.9750

> <Gold.PLP.Chemscore.CHOScore>
0.0000

> <Gold.PLP.Chemscore.Metal>
0.0000

> <Gold.Chemscore.Hbonds>
donor molecule, donor type, donor heavy atom, donor atom, acceptor molecule, acceptor atom, score
      L1  H     1    24       P1  7949  0.99

> <Gold.PLP.Chemscore.Internal.Correction>
0.1137

> <Gold.Rescore>
     Score         DG    S(hbond)    S(metal)    S(lipo)     H(rot)  DE(clash)    DE(int)     intcor
     13.10     -14.22       0.78        0.00     119.61       3.07       0.26       0.86       ----

> <Gold.Chemscore.Fitness>
13.0955

> <Gold.Chemscore.DG>
-14.2154

> <Gold.Chemscore.ZeroCoef>
-5.4800

> <Gold.Chemscore.Hbond>
0.7816

> <Gold.Chemscore.Metal>
0.0000

> <Gold.Chemscore.Lipo>
119.6125

> <Gold.Chemscore.Internal_Hbond>
0.0000

> <Gold.Chemscore.DEClash>
0.2583

> <Gold.Chemscore.DEInternal>
0.8616

> <Gold.Chemscore.Rot>
3.0741

> <Gold.Chemscore.Internal.Correction>
   9.000000E+99

> <Gold.Chemscore.Hbonds>
donor molecule, donor type, donor heavy atom, donor atom, acceptor molecule, acceptor atom, score
      L1  H     1    24       P1  7949  0.27

> <Gold.Chemscore.Hbond.Weighted>
-2.6105

> <Gold.Chemscore.Metal.Weighted>
-0.0000

> <Gold.Chemscore.Lipo.Weighted>
-13.9947

> <Gold.Chemscore.Internal_Hbond.Weighted>
0.0000

> <Gold.Chemscore.DEClash.Weighted>
0.2583

> <Gold.Chemscore.DEInternal.Weighted>
0.8616

> <Gold.Chemscore.Rot.Weighted>
7.8698

> <Gold.Chemscore.Internal.Correction.Weighted>
   9.000000E+99

> <Gold.Protein.RotatedTorsions>
[ 6907 6896 6895 6894 ] final   37.80 input  -60.11 | X-H torsion
[ 7974 7965 7964 7962 ] final  161.10 input  175.53 | X-H torsion
[ 8008 7997 7996 7995 ] final   45.41 input   59.86 | X-H torsion
[ 10167 10162 10161 10158 ] final  147.54 input  -65.29 | X-H torsion
[ 10718 10713 10712 10709 ] final   21.29 input   66.30 | X-H torsion
[ 10763 10752 10751 10750 ] final  146.17 input  -60.55 | X-H torsion
[ 11005 11000 10999 10996 ] final  118.80 input  -57.11 | X-H torsion

> <Gold.Protein.ActiveResidues>
 VAL166  LYS551  ARG553  GLY616  TRP617  ASP618  TYR619  PRO620  LYS621  CYS622 
 ASP623  PHE694  ASN695  SER759  ASP760  ASP761  ALA762  ILE779  LEU786  VAL792 
 PHE793  MET794  SER795  GLU796  ALA797  LYS798  CYS799  TRP800  GLU811  SER814 

> <Gold.Protein.RotatedAtoms>
  152.1479  134.9011  160.0549 H   0  0  0  0  0  0  0  0  0  0  0  0  # atno 6907 bound_to 6896
  152.0054  133.3836  159.4206 H   0  0  0  0  0  0  0  0  0  0  0  0  # atno 6908 bound_to 6896
  150.6872  134.3710  159.5036 H   0  0  0  0  0  0  0  0  0  0  0  0  # atno 6909 bound_to 6896
  144.7703  139.7851  143.6299 H   0  0  0  0  0  0  0  0  0  0  0  0  # atno 7974 bound_to 7965
  155.3354  140.3405  155.4239 H   0  0  0  0  0  0  0  0  0  0  0  0  # atno 8008 bound_to 7997
  156.1840  140.1674  156.8256 H   0  0  0  0  0  0  0  0  0  0  0  0  # atno 8009 bound_to 7997
  154.5366  140.0734  156.8420 H   0  0  0  0  0  0  0  0  0  0  0  0  # atno 8010 bound_to 7997
  139.4888  144.5748  151.6986 H   0  0  0  0  0  0  0  0  0  0  0  0  # atno 10167 bound_to 10162
  157.1363  130.6613  149.5967 H   0  0  0  0  0  0  0  0  0  0  0  0  # atno 10718 bound_to 10713
  154.0174  135.2909  155.3385 H   0  0  0  0  0  0  0  0  0  0  0  0  # atno 10763 bound_to 10752
  154.7066  135.5166  153.8608 H   0  0  0  0  0  0  0  0  0  0  0  0  # atno 10764 bound_to 10752
  153.0696  135.6643  154.0400 H   0  0  0  0  0  0  0  0  0  0  0  0  # atno 10765 bound_to 10752
  139.9123  134.9623  156.7559 H   0  0  0  0  0  0  0  0  0  0  0  0  # atno 11005 bound_to 11000
  146.1843  139.5051  142.9846 LP  0  0  0  0  0  0  0  0  0  0  0  0  # atno 17320 bound_to 7965
  145.6345  141.0297  143.1845 LP  0  0  0  0  0  0  0  0  0  0  0  0  # atno 17321 bound_to 7965
  140.5342  144.0682  150.6064 LP  0  0  0  0  0  0  0  0  0  0  0  0  # atno 17342 bound_to 10162
  140.3683  143.2869  152.0307 LP  0  0  0  0  0  0  0  0  0  0  0  0  # atno 17343 bound_to 10162
  155.9797  130.4793  150.6733 LP  0  0  0  0  0  0  0  0  0  0  0  0  # atno 17370 bound_to 10713
  157.4347  131.0854  151.1004 LP  0  0  0  0  0  0  0  0  0  0  0  0  # atno 17371 bound_to 10713
  140.6736  133.9537  155.7870 LP  0  0  0  0  0  0  0  0  0  0  0  0  # atno 17394 bound_to 11000
  141.0560  134.0416  157.3722 LP  0  0  0  0  0  0  0  0  0  0  0  0  # atno 17395 bound_to 11000

$$$$
