AV-unprocessed.smi:1038|AV-procd|sdf|4521|dock8
  -GOLD-   22720 2533D 1   1.00000     0.00000
 Structure written by MMmdl.
 57 58  0  0  0  0  0  0  0  0  2 V2000
  151.6378  140.8285  157.4284 C   0  0  0  0  0  0  0  0  0  0  0  0
  150.6650  141.7579  156.9854 O   0  0  0  0  0  0  0  0  0  0  0  0
  150.4030  142.7700  157.9435 C   0  0  0  0  0  0  0  0  0  0  0  0
  151.6873  143.5651  158.2292 C   0  0  0  0  0  0  0  0  0  0  0  0
  152.2927  143.1841  159.5136 N   0  0  0  0  0  0  0  0  0  0  0  0
  153.3677  142.2755  159.4622 C   0  0  0  0  0  0  0  0  0  0  0  0
  154.0061  141.8491  160.5694 C   0  0  0  0  0  0  0  0  0  0  0  0
  155.1167  140.9021  160.4465 C   0  0  0  0  0  0  0  0  0  0  0  0
  155.5124  140.4192  159.3845 O   0  0  0  0  0  0  0  0  0  0  0  0
  155.6885  140.5876  161.6195 N   0  0  0  0  0  0  0  0  0  0  0  0
  156.8105  139.6681  161.7847 C   0  0  0  0  0  0  0  0  0  0  0  0
  156.4215  138.3604  162.5457 C   0  0  0  0  0  0  0  0  0  0  0  0
  157.6425  137.4916  162.7208 N   0  3  0  0  0  0  0  0  0  0  0  0
  158.7259  138.0587  163.5674 C   0  0  0  0  0  0  0  0  0  0  0  0
  158.2230  136.9463  161.4648 C   0  0  0  0  0  0  0  0  0  0  0  0
  155.8032  138.7849  163.9192 C   0  0  0  0  0  0  0  0  0  0  0  0
  155.4579  137.6780  164.9327 C   0  0  0  0  0  0  0  0  0  0  0  0
  154.4217  136.6555  164.4496 C   0  0  0  0  0  0  0  0  0  0  0  0
  155.0161  135.6594  163.4488 C   0  0  0  0  0  0  0  0  0  0  0  0
  155.0284  136.1341  161.9883 C   0  0  0  0  0  0  0  0  0  0  0  0
  155.3190  137.6283  161.7141 C   0  0  0  0  0  0  0  0  0  0  0  0
  153.5438  142.3698  161.8476 C   0  0  0  0  0  0  0  0  0  0  0  0
  152.5192  143.2431  161.9014 C   0  0  0  0  0  0  0  0  0  0  0  0
  151.8309  143.7018  160.6915 C   0  0  0  0  0  0  0  0  0  0  0  0
  150.8968  144.5024  160.7384 O   0  0  0  0  0  0  0  0  0  0  0  0
  151.8082  140.0795  156.6552 H   0  0  0  0  0  0  0  0  0  0  0  0
  151.3074  140.3121  158.3307 H   0  0  0  0  0  0  0  0  0  0  0  0
  152.5886  141.3214  157.6353 H   0  0  0  0  0  0  0  0  0  0  0  0
  149.6394  143.4451  157.5542 H   0  0  0  0  0  0  0  0  0  0  0  0
  150.0109  142.3340  158.8639 H   0  0  0  0  0  0  0  0  0  0  0  0
  152.3890  143.4531  157.4010 H   0  0  0  0  0  0  0  0  0  0  0  0
  151.4494  144.6296  158.2497 H   0  0  0  0  0  0  0  0  0  0  0  0
  153.6312  141.9581  158.4627 H   0  0  0  0  0  0  0  0  0  0  0  0
  155.3180  141.0155  162.4557 H   0  0  0  0  0  0  0  0  0  0  0  0
  157.1933  139.4427  160.7889 H   0  0  0  0  0  0  0  0  0  0  0  0
  157.6041  140.1998  162.3108 H   0  0  0  0  0  0  0  0  0  0  0  0
  159.1837  138.9323  163.1038 H   0  0  0  0  0  0  0  0  0  0  0  0
  159.5134  137.3178  163.7097 H   0  0  0  0  0  0  0  0  0  0  0  0
  158.3889  138.3384  164.5632 H   0  0  0  0  0  0  0  0  0  0  0  0
  158.7481  137.7163  160.8993 H   0  0  0  0  0  0  0  0  0  0  0  0
  157.4815  136.4955  160.8088 H   0  0  0  0  0  0  0  0  0  0  0  0
  158.9490  136.1672  161.6996 H   0  0  0  0  0  0  0  0  0  0  0  0
  156.4647  139.4976  164.4126 H   0  0  0  0  0  0  0  0  0  0  0  0
  154.8875  139.3517  163.7474 H   0  0  0  0  0  0  0  0  0  0  0  0
  156.3573  137.1610  165.2655 H   0  0  0  0  0  0  0  0  0  0  0  0
  155.0613  138.1620  165.8262 H   0  0  0  0  0  0  0  0  0  0  0  0
  154.0776  136.0946  165.3195 H   0  0  0  0  0  0  0  0  0  0  0  0
  153.5373  137.1469  164.0422 H   0  0  0  0  0  0  0  0  0  0  0  0
  156.0252  135.3865  163.7592 H   0  0  0  0  0  0  0  0  0  0  0  0
  154.4457  134.7308  163.4940 H   0  0  0  0  0  0  0  0  0  0  0  0
  155.7340  135.5118  161.4387 H   0  0  0  0  0  0  0  0  0  0  0  0
  154.0573  135.9069  161.5465 H   0  0  0  0  0  0  0  0  0  0  0  0
  154.3788  138.1703  161.8244 H   0  0  0  0  0  0  0  0  0  0  0  0
  155.5473  137.7160  160.6511 H   0  0  0  0  0  0  0  0  0  0  0  0
  154.0072  142.0745  162.7774 H   0  0  0  0  0  0  0  0  0  0  0  0
  152.1944  143.6171  162.8614 H   0  0  0  0  0  0  0  0  0  0  0  0
  157.3062  136.6856  163.2286 H   0  0  0  0  0  0  0  0  0  0  0  0
  1  2  1  0  0  0  0
  1 26  1  0  0  0  0
  1 27  1  0  0  0  0
  1 28  1  0  0  0  0
  2  3  1  0  0  0  0
  3  4  1  0  0  0  0
  3 29  1  0  0  0  0
  3 30  1  0  0  0  0
  4  5  1  0  0  0  0
  4 31  1  0  0  0  0
  4 32  1  0  0  0  0
  5 24  1  0  0  0  0
  5  6  1  0  0  0  0
  6  7  2  0  0  0  0
  6 33  1  0  0  0  0
  7  8  1  0  0  0  0
  7 22  1  0  0  0  0
  8  9  2  0  0  0  0
  8 10  1  0  0  0  0
 10 11  1  0  0  0  0
 10 34  1  0  0  0  0
 11 12  1  0  0  0  0
 11 35  1  0  0  0  0
 11 36  1  0  0  0  0
 12 21  1  0  0  0  0
 12 13  1  0  0  0  0
 12 16  1  0  0  0  0
 13 14  1  0  0  0  0
 13 15  1  0  0  0  0
 13 57  1  0  0  0  0
 14 37  1  0  0  0  0
 14 38  1  0  0  0  0
 14 39  1  0  0  0  0
 15 40  1  0  0  0  0
 15 41  1  0  0  0  0
 15 42  1  0  0  0  0
 16 17  1  0  0  0  0
 16 43  1  0  0  0  0
 16 44  1  0  0  0  0
 17 18  1  0  0  0  0
 17 45  1  0  0  0  0
 17 46  1  0  0  0  0
 18 19  1  0  0  0  0
 18 47  1  0  0  0  0
 18 48  1  0  0  0  0
 19 20  1  0  0  0  0
 19 49  1  0  0  0  0
 19 50  1  0  0  0  0
 20 21  1  0  0  0  0
 20 51  1  0  0  0  0
 20 52  1  0  0  0  0
 21 53  1  0  0  0  0
 21 54  1  0  0  0  0
 22 23  2  0  0  0  0
 22 55  1  0  0  0  0
 23 24  1  0  0  0  0
 23 56  1  0  0  0  0
 24 25  2  0  0  0  0
M  CHG  1  13   1
M  END
> <s_m_source_file>
AV-unprocessed.smi

> <i_m_source_file_index>
1038

> <i_lp_mmshare_version>
43012

> <i_f3d_flags>
0

> <s_epik_input>
W0NIM11PW0NIMl1bQ0gyXW4xW2NIXWMoW2NIXVtjSF1jMT1PKUMoPU8pW05IXVtDSDJdQzIoTihbQ0gzXSlbQ0gzXSlbQ0gyXVtDSDJdW0NIMl1bQ0gyXVtDSDJdW0NIMl0y

> <s_epik_cmdline>
J2VwaWtfcHl0aG9uJywgJy1waCcsICc3LjAnLCAnLXRuJywgJzgnLCAnLW1hJywgJzIwMCcsICctbWV0YWxfYmluZGluZycsICctaW1hZScsICc8aW5maWxlLm1hZT4nLCAnLW9tYWUnLCAnPG91dGZpbGUubWFlPic=

> <r_lp_tautomer_probability>
1

> <r_epik_Ionization_Penalty>
0.00379096

> <r_epik_Ionization_Penalty_Charging>
0.0037899

> <r_epik_Ionization_Penalty_Neutral>
1.06849e-06

> <r_epik_State_Penalty>
0.00270348

> <r_epik_Charging_Adjusted_Penalty>
0.00649338

> <i_epik_Tot_Q>
1

> <i_epik_Tot_abs_Q>
1

> <r_epik_Metal_State_Penalty>
-0

> <b_epik_Metal_Only>
0

> <s_lp_Force_Field>
OPLS_2005

> <r_lp_Energy>
50.9414

> <b_lp_Chiralities_Consistent>
1

> <s_lp_Variant>
AV-unprocessed.smi:1038-1

> <Gold.Version>
5.8.1

> <Gold.Id.Protein>
6NUR|6NUR_protein|mol2

> <Gold.PLP.Fitness>
51.4519

> <Gold.PLP.PLP>
-49.9561

> <Gold.PLP.part.hbond>
-2.0000

> <Gold.PLP.part.metal>
0.0000

> <Gold.PLP.part.buried>
-4.4749

> <Gold.PLP.part.nonpolar>
-43.0888

> <Gold.PLP.part.repulsive>
0.2598

> <Gold.PLP.ligand.clash>
0.0000

> <Gold.PLP.ligand.torsion>
0.6822

> <Gold.PLP.Chemscore.Hbond>
0.8736

> <Gold.PLP.Chemscore.CHOScore>
0.0000

> <Gold.PLP.Chemscore.Metal>
0.0000

> <Gold.Chemscore.Hbonds>
donor molecule, donor type, donor heavy atom, donor atom, acceptor molecule, acceptor atom, score
      P1  H  7997  8008       L1     9  0.80

> <Gold.PLP.Chemscore.Internal.Correction>
0.2395

> <Gold.Rescore>
     Score         DG    S(hbond)    S(metal)    S(lipo)     H(rot)  DE(clash)    DE(int)     intcor
     17.60     -18.34       0.92        0.00     124.36       1.86       0.07       0.67       ----

> <Gold.Chemscore.Fitness>
17.6015

> <Gold.Chemscore.DG>
-18.3422

> <Gold.Chemscore.ZeroCoef>
-5.4800

> <Gold.Chemscore.Hbond>
0.9239

> <Gold.Chemscore.Metal>
0.0000

> <Gold.Chemscore.Lipo>
124.3616

> <Gold.Chemscore.Internal_Hbond>
0.0000

> <Gold.Chemscore.DEClash>
0.0708

> <Gold.Chemscore.DEInternal>
0.6698

> <Gold.Chemscore.Rot>
1.8649

> <Gold.Chemscore.Internal.Correction>
   9.000000E+99

> <Gold.Chemscore.Hbonds>
donor molecule, donor type, donor heavy atom, donor atom, acceptor molecule, acceptor atom, score
      P1  H  7997  8008       L1     9  0.76

> <Gold.Chemscore.Hbond.Weighted>
-3.0860

> <Gold.Chemscore.Metal.Weighted>
-0.0000

> <Gold.Chemscore.Lipo.Weighted>
-14.5503

> <Gold.Chemscore.Internal_Hbond.Weighted>
0.0000

> <Gold.Chemscore.DEClash.Weighted>
0.0708

> <Gold.Chemscore.DEInternal.Weighted>
0.6698

> <Gold.Chemscore.Rot.Weighted>
4.7741

> <Gold.Chemscore.Internal.Correction.Weighted>
   9.000000E+99

> <Gold.Protein.RotatedTorsions>
[ 6907 6896 6895 6894 ] final   48.61 input  -60.11 | X-H torsion
[ 7974 7965 7964 7962 ] final   35.47 input  175.53 | X-H torsion
[ 8008 7997 7996 7995 ] final -135.57 input   59.86 | X-H torsion
[ 10167 10162 10161 10158 ] final  106.05 input  -65.29 | X-H torsion
[ 10718 10713 10712 10709 ] final   70.68 input   66.30 | X-H torsion
[ 10763 10752 10751 10750 ] final -113.46 input  -60.55 | X-H torsion
[ 11005 11000 10999 10996 ] final  -86.96 input  -57.11 | X-H torsion

> <Gold.Protein.ActiveResidues>
 VAL166  LYS551  ARG553  GLY616  TRP617  ASP618  TYR619  PRO620  LYS621  CYS622 
 ASP623  PHE694  ASN695  SER759  ASP760  ASP761  ALA762  ILE779  LEU786  VAL792 
 PHE793  MET794  SER795  GLU796  ALA797  LYS798  CYS799  TRP800  GLU811  SER814 

> <Gold.Protein.RotatedAtoms>
  152.2814  134.7824  160.0395 H   0  0  0  0  0  0  0  0  0  0  0  0  # atno 6907 bound_to 6896
  151.8401  133.3417  159.3648 H   0  0  0  0  0  0  0  0  0  0  0  0  # atno 6908 bound_to 6896
  150.7191  134.5327  159.5753 H   0  0  0  0  0  0  0  0  0  0  0  0  # atno 6909 bound_to 6896
  146.1281  139.6139  142.9245 H   0  0  0  0  0  0  0  0  0  0  0  0  # atno 7974 bound_to 7965
  155.3808  140.0494  157.3043 H   0  0  0  0  0  0  0  0  0  0  0  0  # atno 8008 bound_to 7997
  154.5083  140.2182  155.9168 H   0  0  0  0  0  0  0  0  0  0  0  0  # atno 8009 bound_to 7997
  156.1553  140.3127  155.8720 H   0  0  0  0  0  0  0  0  0  0  0  0  # atno 8010 bound_to 7997
  139.7041  144.7089  151.1135 H   0  0  0  0  0  0  0  0  0  0  0  0  # atno 10167 bound_to 10162
  157.6412  130.9489  150.0684 H   0  0  0  0  0  0  0  0  0  0  0  0  # atno 10718 bound_to 10713
  154.8397  135.4453  154.1353 H   0  0  0  0  0  0  0  0  0  0  0  0  # atno 10763 bound_to 10752
  153.2552  135.6930  153.7643 H   0  0  0  0  0  0  0  0  0  0  0  0  # atno 10764 bound_to 10752
  153.6940  135.3382  155.3184 H   0  0  0  0  0  0  0  0  0  0  0  0  # atno 10765 bound_to 10752
  141.1623  133.7484  156.9237 H   0  0  0  0  0  0  0  0  0  0  0  0  # atno 11005 bound_to 11000
  145.5321  141.0426  143.2377 LP  0  0  0  0  0  0  0  0  0  0  0  0  # atno 17320 bound_to 7965
  144.7662  139.6839  143.7214 LP  0  0  0  0  0  0  0  0  0  0  0  0  # atno 17321 bound_to 7965
  140.7717  143.5383  150.9343 LP  0  0  0  0  0  0  0  0  0  0  0  0  # atno 17342 bound_to 10162
  139.9065  143.6772  152.3122 LP  0  0  0  0  0  0  0  0  0  0  0  0  # atno 17343 bound_to 10162
  156.1695  130.3646  149.9184 LP  0  0  0  0  0  0  0  0  0  0  0  0  # atno 17370 bound_to 10713
  156.7163  130.8989  151.3614 LP  0  0  0  0  0  0  0  0  0  0  0  0  # atno 17371 bound_to 10713
  140.1434  134.9278  157.2497 LP  0  0  0  0  0  0  0  0  0  0  0  0  # atno 17394 bound_to 11000
  140.2809  134.3351  155.7343 LP  0  0  0  0  0  0  0  0  0  0  0  0  # atno 17395 bound_to 11000

$$$$
