AV-unprocessed.smi:10|AV-procd|sdf|53|dock8
  -GOLD-   2262015173D 1   1.00000     0.00000
 Structure written by MMmdl.
 34 36  0  0  0  0  0  0  0  0  1 V2000
  152.5841  144.0647  161.5492 C   0  0  0  0  0  0  0  0  0  0  0  0
  152.7500  142.8422  160.7903 N   0  0  0  0  0  0  0  0  0  0  0  0
  153.4902  141.7678  161.1227 C   0  0  0  0  0  0  0  0  0  0  0  0
  153.4662  140.7700  160.2410 N   0  0  0  0  0  0  0  0  0  0  0  0
  152.6251  141.2677  159.2522 C   0  0  0  0  0  0  0  0  0  0  0  0
  152.1670  140.6609  157.9814 C   0  0  0  0  0  0  0  0  0  0  0  0
  152.5074  139.5311  157.6301 O   0  0  0  0  0  0  0  0  0  0  0  0
  151.3398  141.4791  157.2655 N   0  0  0  0  0  0  0  0  0  0  0  0
  150.7792  141.0403  155.9786 C   0  0  0  0  0  0  0  0  0  0  0  0
  149.3194  141.5156  155.7968 C   0  0  2  0  0  0  0  0  0  0  0  0
  148.5188  140.9168  156.7955 O   0  0  0  0  0  0  0  0  0  0  0  0
  148.7300  141.0968  154.4506 C   0  0  0  0  0  0  0  0  0  0  0  0
  147.3057  141.5352  154.0729 C   0  0  0  0  0  0  0  0  0  0  0  0
  147.1289  140.1944  153.3565 C   0  0  0  0  0  0  0  0  0  0  0  0
  148.2514  139.6506  154.2432 C   0  0  0  0  0  0  0  0  0  0  0  0
  150.9500  142.7741  157.7243 C   0  0  0  0  0  0  0  0  0  0  0  0
  151.3346  143.3337  158.8419 N   0  0  0  0  0  0  0  0  0  0  0  0
  152.1792  142.5217  159.5647 C   0  0  0  0  0  0  0  0  0  0  0  0
  153.2478  144.0655  162.4145 H   0  0  0  0  0  0  0  0  0  0  0  0
  151.5525  144.1457  161.8920 H   0  0  0  0  0  0  0  0  0  0  0  0
  152.8207  144.9233  160.9201 H   0  0  0  0  0  0  0  0  0  0  0  0
  154.0624  141.7148  162.0374 H   0  0  0  0  0  0  0  0  0  0  0  0
  151.3993  141.4347  155.1717 H   0  0  0  0  0  0  0  0  0  0  0  0
  150.8555  139.9576  155.8582 H   0  0  0  0  0  0  0  0  0  0  0  0
  149.2545  142.5998  155.9016 H   0  0  0  0  0  0  0  0  0  0  0  0
  149.0374  140.2707  157.2512 H   0  0  0  0  0  0  0  0  0  0  0  0
  149.3992  141.3675  153.6305 H   0  0  0  0  0  0  0  0  0  0  0  0
  146.6512  141.6392  154.9400 H   0  0  0  0  0  0  0  0  0  0  0  0
  147.2543  142.4099  153.4240 H   0  0  0  0  0  0  0  0  0  0  0  0
  146.1580  139.7209  153.5045 H   0  0  0  0  0  0  0  0  0  0  0  0
  147.4053  140.2369  152.3018 H   0  0  0  0  0  0  0  0  0  0  0  0
  148.9658  139.0042  153.7328 H   0  0  0  0  0  0  0  0  0  0  0  0
  147.8779  139.1909  155.1597 H   0  0  0  0  0  0  0  0  0  0  0  0
  150.2688  143.2915  157.0464 H   0  0  0  0  0  0  0  0  0  0  0  0
  1  2  1  0  0  0  0
  1 19  1  0  0  0  0
  1 20  1  0  0  0  0
  1 21  1  0  0  0  0
  2 18  1  0  0  0  0
  2  3  1  0  0  0  0
  3  4  2  0  0  0  0
  3 22  1  0  0  0  0
  4  5  1  0  0  0  0
  5 18  2  0  0  0  0
  5  6  1  0  0  0  0
  6  7  2  0  0  0  0
  6  8  1  0  0  0  0
  8  9  1  0  0  0  0
  8 16  1  0  0  0  0
  9 10  1  0  0  0  0
  9 23  1  0  0  0  0
  9 24  1  0  0  0  0
 10 11  1  0  0  0  0
 10 12  1  0  0  0  0
 10 25  1  0  0  0  0
 11 26  1  0  0  0  0
 12 15  1  0  0  0  0
 12 13  1  0  0  0  0
 12 27  1  0  0  0  0
 13 14  1  0  0  0  0
 13 28  1  0  0  0  0
 13 29  1  0  0  0  0
 14 15  1  0  0  0  0
 14 30  1  0  0  0  0
 14 31  1  0  0  0  0
 15 32  1  0  0  0  0
 15 33  1  0  0  0  0
 16 17  2  0  0  0  0
 16 34  1  0  0  0  0
 17 18  1  0  0  0  0
M  END
> <s_m_source_file>
AV-unprocessed.smi

> <i_m_source_file_index>
10

> <i_lp_mmshare_version>
43012

> <i_f3d_flags>
0

> <s_epik_input>
bjFbY0hdbihbQ0gzXSljKGMxMiluW2NIXW4oYzI9TylbQ0gyXVtDQEhdKFtPSF0pW0NIXTNbQ0gyXVtDSDJdW0NIMl0z

> <s_epik_cmdline>
J2VwaWtfcHl0aG9uJywgJy1waCcsICc3LjAnLCAnLXRuJywgJzgnLCAnLW1hJywgJzIwMCcsICctbWV0YWxfYmluZGluZycsICctaW1hZScsICc8aW5maWxlLm1hZT4nLCAnLW9tYWUnLCAnPG91dGZpbGUubWFlPic=

> <r_lp_tautomer_probability>
1

> <r_epik_Ionization_Penalty>
0.0003743

> <r_epik_Ionization_Penalty_Charging>
2.98177e-12

> <r_epik_Ionization_Penalty_Neutral>
0.000374299

> <r_epik_State_Penalty>
0.000224514

> <r_epik_Charging_Adjusted_Penalty>
0.000224514

> <i_epik_Tot_Q>
0

> <i_epik_Tot_abs_Q>
0

> <r_epik_Metal_State_Penalty>
-0

> <b_epik_Metal_Only>
0

> <s_lp_Force_Field>
OPLS_2005

> <r_lp_Energy>
32.1402

> <b_lp_Chiralities_Consistent>
1

> <s_lp_Variant>
AV-unprocessed.smi:10-1

> <Gold.Version>
5.8.1

> <Gold.Id.Protein>
6NUR|6NUR_protein|mol2

> <Gold.PLP.Fitness>
45.5398

> <Gold.PLP.PLP>
-40.3875

> <Gold.PLP.part.hbond>
-1.0000

> <Gold.PLP.part.metal>
0.0000

> <Gold.PLP.part.buried>
-3.1777

> <Gold.PLP.part.nonpolar>
-35.1548

> <Gold.PLP.part.repulsive>
0.0548

> <Gold.PLP.ligand.clash>
0.0000

> <Gold.PLP.ligand.torsion>
0.4839

> <Gold.PLP.Chemscore.Hbond>
1.0000

> <Gold.PLP.Chemscore.CHOScore>
1.0000

> <Gold.PLP.Chemscore.Metal>
0.0000

> <Gold.Chemscore.Hbonds>
donor molecule, donor type, donor heavy atom, donor atom, acceptor molecule, acceptor atom, score
      P1  H  7997  8009       L1     7  0.52
      L1  C    16    34       P1  8028  1.00

> <Gold.PLP.Chemscore.Internal.Correction>
0.1200

> <Gold.Rescore>
     Score         DG    S(hbond)    S(metal)    S(lipo)     H(rot)  DE(clash)    DE(int)     intcor
      9.67     -10.05       0.95        0.00      61.87       2.28       0.08       0.30       ----

> <Gold.Chemscore.Fitness>
9.6694

> <Gold.Chemscore.DG>
-10.0489

> <Gold.Chemscore.ZeroCoef>
-5.4800

> <Gold.Chemscore.Hbond>
0.9500

> <Gold.Chemscore.Metal>
0.0000

> <Gold.Chemscore.Lipo>
61.8726

> <Gold.Chemscore.Internal_Hbond>
0.0000

> <Gold.Chemscore.DEClash>
0.0761

> <Gold.Chemscore.DEInternal>
0.3034

> <Gold.Chemscore.Rot>
2.2824

> <Gold.Chemscore.Internal.Correction>
   9.000000E+99

> <Gold.Chemscore.Hbonds>
donor molecule, donor type, donor heavy atom, donor atom, acceptor molecule, acceptor atom, score
      P1  H  7997  8009       L1     7  0.09

> <Gold.Chemscore.Hbond.Weighted>
-3.1729

> <Gold.Chemscore.Metal.Weighted>
-0.0000

> <Gold.Chemscore.Lipo.Weighted>
-7.2391

> <Gold.Chemscore.Internal_Hbond.Weighted>
0.0000

> <Gold.Chemscore.DEClash.Weighted>
0.0761

> <Gold.Chemscore.DEInternal.Weighted>
0.3034

> <Gold.Chemscore.Rot.Weighted>
5.8431

> <Gold.Chemscore.Internal.Correction.Weighted>
   9.000000E+99

> <Gold.Protein.RotatedTorsions>
[ 6907 6896 6895 6894 ] final -177.13 input  -60.11 | X-H torsion
[ 7974 7965 7964 7962 ] final  158.03 input  175.53 | X-H torsion
[ 8008 7997 7996 7995 ] final  162.13 input   59.86 | X-H torsion
[ 10167 10162 10161 10158 ] final   -6.88 input  -65.29 | X-H torsion
[ 10718 10713 10712 10709 ] final  151.88 input   66.30 | X-H torsion
[ 10763 10752 10751 10750 ] final  -11.16 input  -60.55 | X-H torsion
[ 11005 11000 10999 10996 ] final  -73.49 input  -57.11 | X-H torsion

> <Gold.Protein.ActiveResidues>
 VAL166  LYS551  ARG553  GLY616  TRP617  ASP618  TYR619  PRO620  LYS621  CYS622 
 ASP623  PHE694  ASN695  SER759  ASP760  ASP761  ALA762  ILE779  LEU786  VAL792 
 PHE793  MET794  SER795  GLU796  ALA797  LYS798  CYS799  TRP800  GLU811  SER814 

> <Gold.Protein.RotatedAtoms>
  151.6160  133.3343  159.3077 H   0  0  0  0  0  0  0  0  0  0  0  0  # atno 6907 bound_to 6896
  150.8131  134.7301  159.6717 H   0  0  0  0  0  0  0  0  0  0  0  0  # atno 6908 bound_to 6896
  152.4227  134.5930  160.0031 H   0  0  0  0  0  0  0  0  0  0  0  0  # atno 6909 bound_to 6896
  144.7869  139.7423  143.6237 H   0  0  0  0  0  0  0  0  0  0  0  0  # atno 7974 bound_to 7965
  156.2054  140.1758  156.7812 H   0  0  0  0  0  0  0  0  0  0  0  0  # atno 8008 bound_to 7997
  154.5647  140.0693  156.8904 H   0  0  0  0  0  0  0  0  0  0  0  0  # atno 8009 bound_to 7997
  155.2782  140.3347  155.4262 H   0  0  0  0  0  0  0  0  0  0  0  0  # atno 8010 bound_to 7997
  140.7011  143.6143  150.8673 H   0  0  0  0  0  0  0  0  0  0  0  0  # atno 10167 bound_to 10162
  157.2650  131.0805  151.1639 H   0  0  0  0  0  0  0  0  0  0  0  0  # atno 10718 bound_to 10713
  153.4797  135.7017  153.5945 H   0  0  0  0  0  0  0  0  0  0  0  0  # atno 10763 bound_to 10752
  153.4163  135.3836  155.2083 H   0  0  0  0  0  0  0  0  0  0  0  0  # atno 10764 bound_to 10752
  154.8722  135.3917  154.4245 H   0  0  0  0  0  0  0  0  0  0  0  0  # atno 10765 bound_to 10752
  141.1623  133.6880  156.7220 H   0  0  0  0  0  0  0  0  0  0  0  0  # atno 11005 bound_to 11000
  146.2104  139.5457  142.9685 LP  0  0  0  0  0  0  0  0  0  0  0  0  # atno 17320 bound_to 7965
  145.5898  141.0371  143.2076 LP  0  0  0  0  0  0  0  0  0  0  0  0  # atno 17321 bound_to 7965
  139.9866  143.5893  152.2925 LP  0  0  0  0  0  0  0  0  0  0  0  0  # atno 17342 bound_to 10162
  139.6533  144.7661  151.2105 LP  0  0  0  0  0  0  0  0  0  0  0  0  # atno 17343 bound_to 10162
  157.3134  130.6901  149.6228 LP  0  0  0  0  0  0  0  0  0  0  0  0  # atno 17370 bound_to 10713
  155.9663  130.4357  150.5101 LP  0  0  0  0  0  0  0  0  0  0  0  0  # atno 17371 bound_to 10713
  140.2809  134.8318  157.3932 LP  0  0  0  0  0  0  0  0  0  0  0  0  # atno 17394 bound_to 11000
  140.1434  134.4942  155.8014 LP  0  0  0  0  0  0  0  0  0  0  0  0  # atno 17395 bound_to 11000

$$$$
