AV-unprocessed.smi:160|AV-procd|sdf|1356|dock1
  -GOLD-   2262019 63D 1   1.00000     0.00000
 Structure written by MMmdl.
 29 30  0  0  0  0  0  0  0  0  1 V2000
  153.9658  140.6292  160.9174 N   0  0  0  0  0  0  0  0  0  0  0  0
  153.7398  140.0989  159.7109 C   0  0  0  0  0  0  0  0  0  0  0  0
  154.3743  139.1341  159.2871 O   0  0  0  0  0  0  0  0  0  0  0  0
  152.6602  140.7497  158.8904 C   0  0  0  0  0  0  0  0  0  0  0  0
  151.7847  141.6350  159.4522 N   0  0  0  0  0  0  0  0  0  0  0  0
  151.0560  141.9172  158.3798 C   0  0  0  0  0  0  0  0  0  0  0  0
  151.4503  141.2843  157.2680 N   0  0  0  0  0  0  0  0  0  0  0  0
  150.9006  141.2947  155.8757 C   0  0  1  0  0  0  0  0  0  0  0  0
  151.5393  140.2859  155.1520 O   0  0  0  0  0  0  0  0  0  0  0  0
  150.7472  139.1038  155.1900 C   0  0  2  0  0  0  0  0  0  0  0  0
  151.1810  138.1023  154.1050 C   0  0  0  0  0  0  0  0  0  0  0  0
  150.3610  136.9541  154.1507 O   0  0  0  0  0  0  0  0  0  0  0  0
  149.3324  139.6766  155.0402 C   0  0  2  0  0  0  0  0  0  0  0  0
  149.0489  139.9499  153.6770 O   0  0  0  0  0  0  0  0  0  0  0  0
  149.3990  140.9441  155.8941 C   0  0  2  0  0  0  0  0  0  0  0  0
  148.5740  141.9832  155.4011 O   0  0  0  0  0  0  0  0  0  0  0  0
  152.5049  140.4949  157.5896 N   0  0  0  0  0  0  0  0  0  0  0  0
  151.1419  142.2841  155.4852 H   0  0  0  0  0  0  0  0  0  0  0  0
  150.8294  138.6445  156.1773 H   0  0  0  0  0  0  0  0  0  0  0  0
  148.5756  138.9844  155.4108 H   0  0  0  0  0  0  0  0  0  0  0  0
  149.0907  140.7050  156.9133 H   0  0  0  0  0  0  0  0  0  0  0  0
  154.6795  140.2374  161.5140 H   0  0  0  0  0  0  0  0  0  0  0  0
  153.4200  141.4220  161.2226 H   0  0  0  0  0  0  0  0  0  0  0  0
  150.2193  142.6001  158.4077 H   0  0  0  0  0  0  0  0  0  0  0  0
  151.0654  138.5469  153.1161 H   0  0  0  0  0  0  0  0  0  0  0  0
  152.2290  137.8220  154.2165 H   0  0  0  0  0  0  0  0  0  0  0  0
  149.8985  136.8831  153.3296 H   0  0  0  0  0  0  0  0  0  0  0  0
  149.8457  139.8384  153.1805 H   0  0  0  0  0  0  0  0  0  0  0  0
  148.9185  142.8087  155.7063 H   0  0  0  0  0  0  0  0  0  0  0  0
  1  2  1  0  0  0  0
  1 22  1  0  0  0  0
  1 23  1  0  0  0  0
  2  3  2  0  0  0  0
  2  4  1  0  0  0  0
  4 17  2  0  0  0  0
  4  5  1  0  0  0  0
  5  6  2  0  0  0  0
  6  7  1  0  0  0  0
  6 24  1  0  0  0  0
  7  8  1  0  0  0  0
  7 17  1  0  0  0  0
  8 18  1  0  0  0  0
  8 15  1  0  0  0  0
  8  9  1  0  0  0  0
  9 10  1  0  0  0  0
 10 19  1  0  0  0  0
 10 11  1  0  0  0  0
 10 13  1  0  0  0  0
 11 12  1  0  0  0  0
 11 25  1  0  0  0  0
 11 26  1  0  0  0  0
 12 27  1  0  0  0  0
 13 20  1  0  0  0  0
 13 14  1  0  0  0  0
 13 15  1  0  0  0  0
 14 28  1  0  0  0  0
 15 21  1  0  0  0  0
 15 16  1  0  0  0  0
 16 29  1  0  0  0  0
M  END
> <s_m_source_file>
AV-unprocessed.smi

> <i_m_source_file_index>
160

> <i_lp_mmshare_version>
43012

> <i_f3d_flags>
0

> <s_epik_input>
W05IMl1DKD1PKWMxbltjSF1uKG4xKVtDQEBIXTJPW0NASF0oW0NIMl1bT0hdKVtDQEBIXShbT0hdKVtDQEhdMltPSF0=

> <s_epik_cmdline>
J2VwaWtfcHl0aG9uJywgJy1waCcsICc3LjAnLCAnLXRuJywgJzgnLCAnLW1hJywgJzIwMCcsICctbWV0YWxfYmluZGluZycsICctaW1hZScsICc8aW5maWxlLm1hZT4nLCAnLW9tYWUnLCAnPG91dGZpbGUubWFlPic=

> <r_lp_tautomer_probability>
1

> <r_epik_Ionization_Penalty>
1.06932e-05

> <r_epik_Ionization_Penalty_Charging>
0

> <r_epik_Ionization_Penalty_Neutral>
1.06932e-05

> <r_epik_State_Penalty>
-0

> <r_epik_Charging_Adjusted_Penalty>
0

> <i_epik_Tot_Q>
0

> <i_epik_Tot_abs_Q>
0

> <r_epik_Metal_State_Penalty>
0.0142097

> <b_epik_Metal_Only>
0

> <s_epik_Chemistry_Notes>
This compound contains an acetal/aminal-like group ( X-CH(R)-Y where X, Y are N, S, or O) that may be acid/base labile, releasing an aldehyde.

> <s_lp_Force_Field>
OPLS_2005

> <r_lp_Energy>
42.1222

> <b_lp_Chiralities_Consistent>
1

> <s_lp_Variant>
AV-unprocessed.smi:160-14

> <Gold.Version>
5.8.1

> <Gold.Id.Protein>
6NUR|6NUR_protein|mol2

> <Gold.PLP.Fitness>
38.5709

> <Gold.PLP.PLP>
-27.1853

> <Gold.PLP.part.hbond>
-6.2291

> <Gold.PLP.part.metal>
0.0000

> <Gold.PLP.part.buried>
-4.1986

> <Gold.PLP.part.nonpolar>
-15.2125

> <Gold.PLP.part.repulsive>
0.0594

> <Gold.PLP.ligand.clash>
0.0000

> <Gold.PLP.ligand.torsion>
0.1821

> <Gold.PLP.Chemscore.Hbond>
3.9063

> <Gold.PLP.Chemscore.CHOScore>
0.0000

> <Gold.PLP.Chemscore.Metal>
0.0000

> <Gold.Chemscore.Hbonds>
donor molecule, donor type, donor heavy atom, donor atom, acceptor molecule, acceptor atom, score
      L1  H    12    27       P1  7948  1.00
      L1  H    14    28       P1  7957  0.30
      L1  H    16    29       P1  8028  0.98
      P1  H  7989  7998       L1     9  0.96
      P1  H  7997  8010       L1    17  0.67

> <Gold.PLP.Chemscore.Internal.Correction>
0.0310

> <Gold.Rescore>
     Score         DG    S(hbond)    S(metal)    S(lipo)     H(rot)  DE(clash)    DE(int)     intcor
      8.18      -8.54       3.17        0.00      24.55       4.06       0.03       0.33       ----

> <Gold.Chemscore.Fitness>
8.1771

> <Gold.Chemscore.DG>
-8.5363

> <Gold.Chemscore.ZeroCoef>
-5.4800

> <Gold.Chemscore.Hbond>
3.1669

> <Gold.Chemscore.Metal>
0.0000

> <Gold.Chemscore.Lipo>
24.5508

> <Gold.Chemscore.Internal_Hbond>
0.0000

> <Gold.Chemscore.DEClash>
0.0313

> <Gold.Chemscore.DEInternal>
0.3279

> <Gold.Chemscore.Rot>
4.0600

> <Gold.Chemscore.Internal.Correction>
   9.000000E+99

> <Gold.Chemscore.Hbonds>
donor molecule, donor type, donor heavy atom, donor atom, acceptor molecule, acceptor atom, score
      L1  H    12    27       P1  7948  0.26
      L1  H    14    28       P1  7957  0.27
      L1  H    16    29       P1  8028  0.92
      P1  H  7989  7998       L1     9  0.38
      P1  H  7997  8010       L1    17  0.46

> <Gold.Chemscore.Hbond.Weighted>
-10.5775

> <Gold.Chemscore.Metal.Weighted>
-0.0000

> <Gold.Chemscore.Lipo.Weighted>
-2.8724

> <Gold.Chemscore.Internal_Hbond.Weighted>
0.0000

> <Gold.Chemscore.DEClash.Weighted>
0.0313

> <Gold.Chemscore.DEInternal.Weighted>
0.3279

> <Gold.Chemscore.Rot.Weighted>
10.3936

> <Gold.Chemscore.Internal.Correction.Weighted>
   9.000000E+99

> <Gold.Protein.RotatedTorsions>
[ 6907 6896 6895 6894 ] final   66.96 input  -60.11 | X-H torsion
[ 7974 7965 7964 7962 ] final   -3.17 input  175.53 | X-H torsion
[ 8008 7997 7996 7995 ] final   55.60 input   59.86 | X-H torsion
[ 10167 10162 10161 10158 ] final   91.80 input  -65.29 | X-H torsion
[ 10718 10713 10712 10709 ] final  -41.22 input   66.30 | X-H torsion
[ 10763 10752 10751 10750 ] final -158.52 input  -60.55 | X-H torsion
[ 11005 11000 10999 10996 ] final  165.62 input  -57.11 | X-H torsion

> <Gold.Protein.ActiveResidues>
 VAL166  LYS551  ARG553  GLY616  TRP617  ASP618  TYR619  PRO620  LYS621  CYS622 
 ASP623  PHE694  ASN695  SER759  ASP760  ASP761  ALA762  ILE779  LEU786  VAL792 
 PHE793  MET794  SER795  GLU796  ALA797  LYS798  CYS799  TRP800  GLU811  SER814 

> <Gold.Protein.RotatedAtoms>
  152.4518  134.5376  159.9829 H   0  0  0  0  0  0  0  0  0  0  0  0  # atno 6907 bound_to 6896
  151.5447  133.3421  159.2950 H   0  0  0  0  0  0  0  0  0  0  0  0  # atno 6908 bound_to 6896
  150.8450  134.7787  159.7026 H   0  0  0  0  0  0  0  0  0  0  0  0  # atno 6909 bound_to 6896
  146.2394  140.1680  142.8332 H   0  0  0  0  0  0  0  0  0  0  0  0  # atno 7974 bound_to 7965
  155.5038  140.3475  155.4376 H   0  0  0  0  0  0  0  0  0  0  0  0  # atno 8008 bound_to 7997
  156.0896  140.1407  156.9637 H   0  0  0  0  0  0  0  0  0  0  0  0  # atno 8009 bound_to 7997
  154.4627  140.0929  156.6913 H   0  0  0  0  0  0  0  0  0  0  0  0  # atno 8010 bound_to 7997
  139.8339  144.6674  150.9365 H   0  0  0  0  0  0  0  0  0  0  0  0  # atno 10167 bound_to 10162
  156.2727  130.4208  149.8421 H   0  0  0  0  0  0  0  0  0  0  0  0  # atno 10718 bound_to 10713
  154.7550  135.3102  154.8487 H   0  0  0  0  0  0  0  0  0  0  0  0  # atno 10763 bound_to 10752
  153.9263  135.6790  153.4750 H   0  0  0  0  0  0  0  0  0  0  0  0  # atno 10764 bound_to 10752
  153.1147  135.4850  154.9025 H   0  0  0  0  0  0  0  0  0  0  0  0  # atno 10765 bound_to 10752
  140.2581  134.7924  157.3564 H   0  0  0  0  0  0  0  0  0  0  0  0  # atno 11005 bound_to 11000
  145.0034  140.8652  143.5267 LP  0  0  0  0  0  0  0  0  0  0  0  0  # atno 17320 bound_to 7965
  145.1703  139.2408  143.5345 LP  0  0  0  0  0  0  0  0  0  0  0  0  # atno 17321 bound_to 7965
  140.7804  143.3975  151.1205 LP  0  0  0  0  0  0  0  0  0  0  0  0  # atno 17342 bound_to 10162
  139.7626  143.8612  152.3103 LP  0  0  0  0  0  0  0  0  0  0  0  0  # atno 17343 bound_to 10162
  156.5896  130.8501  151.3404 LP  0  0  0  0  0  0  0  0  0  0  0  0  # atno 17370 bound_to 10713
  157.7289  130.9663  150.1763 LP  0  0  0  0  0  0  0  0  0  0  0  0  # atno 17371 bound_to 10713
  140.1492  134.4872  155.7974 LP  0  0  0  0  0  0  0  0  0  0  0  0  # atno 17394 bound_to 11000
  141.2194  133.6855  156.7348 LP  0  0  0  0  0  0  0  0  0  0  0  0  # atno 17395 bound_to 11000

$$$$
