AV-unprocessed.smi:2727|AV-procd|sdf|10522|dock1
  -GOLD-   2272014563D 1   1.00000     0.00000
 Structure written by MMmdl.
 40 41  0  0  0  0  0  0  0  0  1 V2000
  155.6006  139.8758  163.8130 O   0  0  0  0  0  0  0  0  0  0  0  0
  155.3046  141.0517  163.5767 C   0  0  0  0  0  0  0  0  0  0  0  0
  154.9423  141.4480  162.3470 N   0  0  0  0  0  0  0  0  0  0  0  0
  154.8431  140.5826  161.1762 C   0  0  0  0  0  0  0  0  0  0  0  0
  154.6203  141.3973  159.8857 C   0  0  0  0  0  0  0  0  0  0  0  0
  153.2678  141.1193  159.2048 C   0  0  0  0  0  0  0  0  0  0  0  0
  153.1801  140.1831  158.4079 O   0  0  0  0  0  0  0  0  0  0  0  0
  152.2097  141.9173  159.4914 N   0  0  0  0  0  0  0  0  0  0  0  0
  150.9188  141.7508  158.8127 C   0  0  0  0  0  0  0  0  0  0  0  0
  150.8924  142.4502  157.4382 C   0  0  0  0  0  0  0  0  0  0  0  0
  151.6853  143.7721  157.3376 C   0  0  0  0  0  0  0  0  0  0  0  0
  151.5594  144.7116  158.5533 C   0  0  0  0  0  0  0  0  0  0  0  0
  152.5351  144.3756  159.7015 C   0  0  0  0  0  0  0  0  0  0  0  0
  152.2377  143.0502  160.4276 C   0  0  0  0  0  0  0  0  0  0  0  0
  155.2745  142.1284  164.4512 N   0  0  0  0  0  0  0  0  0  0  0  0
  155.4657  141.9315  165.7193 C   0  0  0  0  0  0  0  0  0  0  0  0
  155.4699  142.8789  166.7309 N   0  0  0  0  0  0  0  0  0  0  0  0
  155.7024  142.2360  167.9154 C   0  0  0  0  0  0  0  0  0  0  0  0
  155.8412  140.9381  167.6615 C   0  0  0  0  0  0  0  0  0  0  0  0
  155.7018  140.7185  166.3245 O   0  0  0  0  0  0  0  0  0  0  0  0
  154.7096  142.4218  162.2151 H   0  0  0  0  0  0  0  0  0  0  0  0
  155.7405  139.9660  161.0982 H   0  0  0  0  0  0  0  0  0  0  0  0
  154.0093  139.8981  161.3359 H   0  0  0  0  0  0  0  0  0  0  0  0
  154.6894  142.4619  160.1117 H   0  0  0  0  0  0  0  0  0  0  0  0
  155.4189  141.1672  159.1811 H   0  0  0  0  0  0  0  0  0  0  0  0
  150.6702  140.6943  158.6993 H   0  0  0  0  0  0  0  0  0  0  0  0
  150.1135  142.1560  159.4262 H   0  0  0  0  0  0  0  0  0  0  0  0
  151.2774  141.7658  156.6816 H   0  0  0  0  0  0  0  0  0  0  0  0
  149.8524  142.6317  157.1657 H   0  0  0  0  0  0  0  0  0  0  0  0
  152.7397  143.5550  157.1600 H   0  0  0  0  0  0  0  0  0  0  0  0
  151.3463  144.2992  156.4453 H   0  0  0  0  0  0  0  0  0  0  0  0
  151.7820  145.7258  158.2193 H   0  0  0  0  0  0  0  0  0  0  0  0
  150.5303  144.7370  158.9134 H   0  0  0  0  0  0  0  0  0  0  0  0
  153.5553  144.3684  159.3173 H   0  0  0  0  0  0  0  0  0  0  0  0
  152.5029  145.1825  160.4343 H   0  0  0  0  0  0  0  0  0  0  0  0
  151.2844  143.1317  160.9509 H   0  0  0  0  0  0  0  0  0  0  0  0
  152.9643  142.8940  161.2245 H   0  0  0  0  0  0  0  0  0  0  0  0
  155.3241  143.8754  166.6561 H   0  0  0  0  0  0  0  0  0  0  0  0
  155.7440  142.7920  168.8402 H   0  0  0  0  0  0  0  0  0  0  0  0
  156.0319  140.0830  168.2929 H   0  0  0  0  0  0  0  0  0  0  0  0
  1  2  2  0  0  0  0
  2 15  1  0  0  0  0
  2  3  1  0  0  0  0
  3  4  1  0  0  0  0
  3 21  1  0  0  0  0
  4  5  1  0  0  0  0
  4 22  1  0  0  0  0
  4 23  1  0  0  0  0
  5  6  1  0  0  0  0
  5 24  1  0  0  0  0
  5 25  1  0  0  0  0
  6  7  2  0  0  0  0
  6  8  1  0  0  0  0
  8 14  1  0  0  0  0
  8  9  1  0  0  0  0
  9 10  1  0  0  0  0
  9 26  1  0  0  0  0
  9 27  1  0  0  0  0
 10 11  1  0  0  0  0
 10 28  1  0  0  0  0
 10 29  1  0  0  0  0
 11 12  1  0  0  0  0
 11 30  1  0  0  0  0
 11 31  1  0  0  0  0
 12 13  1  0  0  0  0
 12 32  1  0  0  0  0
 12 33  1  0  0  0  0
 13 14  1  0  0  0  0
 13 34  1  0  0  0  0
 13 35  1  0  0  0  0
 14 36  1  0  0  0  0
 14 37  1  0  0  0  0
 15 16  2  0  0  0  0
 16 20  1  0  0  0  0
 16 17  1  0  0  0  0
 17 38  1  0  0  0  0
 17 18  1  0  0  0  0
 18 39  1  0  0  0  0
 18 19  2  0  0  0  0
 19 40  1  0  0  0  0
 19 20  1  0  0  0  0
M  END
> <s_m_source_file>
AV-unprocessed.smi

> <i_m_source_file_index>
2727

> <i_lp_mmshare_version>
43012

> <i_f3d_flags>
0

> <s_epik_input>
bzFbY0hdW2NIXW5jMVtOSF1DKD1PKVtOSF1bQ0gyXVtDSDJdQyg9TylOMltDSDJdW0NIMl1bQ0gyXVtDSDJdW0NIMl1bQ0gyXTI=

> <s_epik_cmdline>
J2VwaWtfcHl0aG9uJywgJy1waCcsICc3LjAnLCAnLXRuJywgJzgnLCAnLW1hJywgJzIwMCcsICctbWV0YWxfYmluZGluZycsICctaW1hZScsICc8aW5maWxlLm1hZT4nLCAnLW9tYWUnLCAnPG91dGZpbGUubWFlPic=

> <r_lp_tautomer_probability>
0.107061

> <r_epik_Ionization_Penalty>
0.376272

> <r_epik_Ionization_Penalty_Charging>
0.375918

> <r_epik_Ionization_Penalty_Neutral>
0.000353756

> <r_epik_State_Penalty>
2.48665

> <r_epik_Charging_Adjusted_Penalty>
2.86256

> <i_epik_Tot_Q>
0

> <i_epik_Tot_abs_Q>
0

> <r_epik_Metal_State_Penalty>
4.1171

> <b_epik_Metal_Only>
0

> <s_lp_Force_Field>
OPLS_2005

> <r_lp_Energy>
48.3689

> <b_lp_Chiralities_Consistent>
1

> <s_lp_Variant>
AV-unprocessed.smi:2727-2

> <Gold.Version>
5.8.1

> <Gold.Id.Protein>
6NUR|6NUR_protein|mol2

> <Gold.PLP.Fitness>
41.9344

> <Gold.PLP.PLP>
-40.5572

> <Gold.PLP.part.hbond>
-3.0000

> <Gold.PLP.part.metal>
0.0000

> <Gold.PLP.part.buried>
-3.5636

> <Gold.PLP.part.nonpolar>
-32.7846

> <Gold.PLP.part.repulsive>
0.0937

> <Gold.PLP.ligand.clash>
0.0000

> <Gold.PLP.ligand.torsion>
0.7864

> <Gold.PLP.Chemscore.Hbond>
0.9760

> <Gold.PLP.Chemscore.CHOScore>
0.0000

> <Gold.PLP.Chemscore.Metal>
0.0000

> <Gold.Chemscore.Hbonds>
donor molecule, donor type, donor heavy atom, donor atom, acceptor molecule, acceptor atom, score
      P1  H  7997  8008       L1     7  0.96

> <Gold.PLP.Chemscore.Internal.Correction>
0.0221

> <Gold.Rescore>
     Score         DG    S(hbond)    S(metal)    S(lipo)     H(rot)  DE(clash)    DE(int)     intcor
     11.35     -14.92       0.88        0.00      92.74       1.70       1.24       2.33       ----

> <Gold.Chemscore.Fitness>
11.3493

> <Gold.Chemscore.DG>
-14.9176

> <Gold.Chemscore.ZeroCoef>
-5.4800

> <Gold.Chemscore.Hbond>
0.8820

> <Gold.Chemscore.Metal>
0.0000

> <Gold.Chemscore.Lipo>
92.7368

> <Gold.Chemscore.Internal_Hbond>
0.0000

> <Gold.Chemscore.DEClash>
1.2350

> <Gold.Chemscore.DEInternal>
2.3333

> <Gold.Chemscore.Rot>
1.7025

> <Gold.Chemscore.Internal.Correction>
   9.000000E+99

> <Gold.Chemscore.Hbonds>
donor molecule, donor type, donor heavy atom, donor atom, acceptor molecule, acceptor atom, score
      P1  H  7997  8008       L1     7  0.85

> <Gold.Chemscore.Hbond.Weighted>
-2.9457

> <Gold.Chemscore.Metal.Weighted>
-0.0000

> <Gold.Chemscore.Lipo.Weighted>
-10.8502

> <Gold.Chemscore.Internal_Hbond.Weighted>
0.0000

> <Gold.Chemscore.DEClash.Weighted>
1.2350

> <Gold.Chemscore.DEInternal.Weighted>
2.3333

> <Gold.Chemscore.Rot.Weighted>
4.3584

> <Gold.Chemscore.Internal.Correction.Weighted>
   9.000000E+99

> <Gold.Protein.RotatedTorsions>
[ 6907 6896 6895 6894 ] final -107.98 input  -60.11 | X-H torsion
[ 7974 7965 7964 7962 ] final   25.89 input  175.53 | X-H torsion
[ 8008 7997 7996 7995 ] final  -81.69 input   59.86 | X-H torsion
[ 10167 10162 10161 10158 ] final   48.35 input  -65.29 | X-H torsion
[ 10718 10713 10712 10709 ] final   11.23 input   66.30 | X-H torsion
[ 10763 10752 10751 10750 ] final -130.72 input  -60.55 | X-H torsion
[ 11005 11000 10999 10996 ] final  -88.46 input  -57.11 | X-H torsion

> <Gold.Protein.ActiveResidues>
 VAL166  LYS551  ARG553  GLY616  TRP617  ASP618  TYR619  PRO620  LYS621  CYS622 
 ASP623  PHE694  ASN695  SER759  ASP760  ASP761  ALA762  ILE779  LEU786  VAL792 
 PHE793  MET794  SER795  GLU796  ALA797  LYS798  CYS799  TRP800  GLU811  SER814 

> <Gold.Protein.RotatedAtoms>
  150.7475  133.9746  159.3556 H   0  0  0  0  0  0  0  0  0  0  0  0  # atno 6907 bound_to 6896
  151.7682  135.0791  160.0365 H   0  0  0  0  0  0  0  0  0  0  0  0  # atno 6908 bound_to 6896
  152.3357  133.5972  159.5877 H   0  0  0  0  0  0  0  0  0  0  0  0  # atno 6909 bound_to 6896
  146.1866  139.7404  142.8862 H   0  0  0  0  0  0  0  0  0  0  0  0  # atno 7974 bound_to 7965
  154.6009  140.0644  156.9367 H   0  0  0  0  0  0  0  0  0  0  0  0  # atno 8008 bound_to 7997
  155.2133  140.3324  155.4307 H   0  0  0  0  0  0  0  0  0  0  0  0  # atno 8009 bound_to 7997
  156.2318  140.1844  156.7208 H   0  0  0  0  0  0  0  0  0  0  0  0  # atno 8010 bound_to 7997
  140.2941  144.3011  150.6233 H   0  0  0  0  0  0  0  0  0  0  0  0  # atno 10167 bound_to 10162
  156.9926  130.6048  149.5687 H   0  0  0  0  0  0  0  0  0  0  0  0  # atno 10718 bound_to 10713
  154.8754  135.3853  154.4130 H   0  0  0  0  0  0  0  0  0  0  0  0  # atno 10763 bound_to 10752
  153.4842  135.7030  153.5926 H   0  0  0  0  0  0  0  0  0  0  0  0  # atno 10764 bound_to 10752
  153.4328  135.3874  155.2148 H   0  0  0  0  0  0  0  0  0  0  0  0  # atno 10765 bound_to 10752
  141.1601  133.7571  156.9455 H   0  0  0  0  0  0  0  0  0  0  0  0  # atno 11005 bound_to 11000
  145.3921  141.0374  143.3118 LP  0  0  0  0  0  0  0  0  0  0  0  0  # atno 17320 bound_to 7965
  144.8408  139.5475  143.6901 LP  0  0  0  0  0  0  0  0  0  0  0  0  # atno 17321 bound_to 7965
  140.5707  143.2181  151.7604 LP  0  0  0  0  0  0  0  0  0  0  0  0  # atno 17342 bound_to 10162
  139.4930  144.4221  151.9966 LP  0  0  0  0  0  0  0  0  0  0  0  0  # atno 17343 bound_to 10162
  156.0201  130.5296  150.8251 LP  0  0  0  0  0  0  0  0  0  0  0  0  # atno 17370 bound_to 10713
  157.5448  131.0942  150.9778 LP  0  0  0  0  0  0  0  0  0  0  0  0  # atno 17371 bound_to 10713
  140.1293  134.9366  157.2314 LP  0  0  0  0  0  0  0  0  0  0  0  0  # atno 17394 bound_to 11000
  140.2973  134.3171  155.7299 LP  0  0  0  0  0  0  0  0  0  0  0  0  # atno 17395 bound_to 11000

$$$$
