AV-unprocessed.smi:1035|AV-procd|sdf|4515|dock8
  -GOLD-   22720 2523D 1   1.00000     0.00000
 Structure written by MMmdl.
 42 43  0  0  0  0  0  0  0  0  1 V2000
  153.6451  141.7423  160.6680 C   0  0  0  0  0  0  0  0  0  0  0  0
  152.7270  142.4026  159.6543 C   0  0  0  0  0  0  0  0  0  0  0  0
  152.2896  143.6698  159.8200 C   0  0  0  0  0  0  0  0  0  0  0  0
  151.4135  144.2882  158.8548 C   0  0  0  0  0  0  0  0  0  0  0  0
  151.0439  143.5712  157.7842 C   0  0  0  0  0  0  0  0  0  0  0  0
  151.4874  142.2503  157.5863 N   0  0  0  0  0  0  0  0  0  0  0  0
  151.0101  141.5611  156.3749 C   0  0  0  0  0  0  0  0  0  0  0  0
  149.4912  141.3349  156.3556 C   0  0  0  0  0  0  0  0  0  0  0  0
  148.9108  140.8258  157.3157 O   0  0  0  0  0  0  0  0  0  0  0  0
  148.8552  141.7356  155.2462 N   0  0  0  0  0  0  0  0  0  0  0  0
  147.4197  141.6083  155.0265 C   0  0  0  0  0  0  0  0  0  0  0  0
  146.9964  142.2425  153.6903 C   0  0  0  0  0  0  0  0  0  0  0  0
  145.9552  143.3425  153.8381 C   0  0  0  0  0  0  0  0  0  0  0  0
  145.5722  144.1078  152.7973 C   0  0  0  0  0  0  0  0  0  0  0  0
  144.5245  145.2039  152.8841 C   0  0  0  0  0  0  0  0  0  0  0  0
  143.7016  145.1265  154.1811 C   0  0  0  0  0  0  0  0  0  0  0  0
  144.6014  144.8506  155.3920 C   0  0  0  0  0  0  0  0  0  0  0  0
  145.3650  143.5238  155.2319 C   0  0  0  0  0  0  0  0  0  0  0  0
  152.3180  141.6190  158.4735 C   0  0  0  0  0  0  0  0  0  0  0  0
  152.6966  140.4608  158.2872 O   0  0  0  0  0  0  0  0  0  0  0  0
  153.8841  142.4188  161.4892 H   0  0  0  0  0  0  0  0  0  0  0  0
  154.5812  141.4417  160.1964 H   0  0  0  0  0  0  0  0  0  0  0  0
  153.1712  140.8555  161.0900 H   0  0  0  0  0  0  0  0  0  0  0  0
  152.5938  144.2359  160.6885 H   0  0  0  0  0  0  0  0  0  0  0  0
  151.0615  145.2998  158.9935 H   0  0  0  0  0  0  0  0  0  0  0  0
  150.3850  143.9568  157.0196 H   0  0  0  0  0  0  0  0  0  0  0  0
  151.2806  142.1273  155.4824 H   0  0  0  0  0  0  0  0  0  0  0  0
  151.5163  140.6000  156.2648 H   0  0  0  0  0  0  0  0  0  0  0  0
  149.4000  142.1450  154.5010 H   0  0  0  0  0  0  0  0  0  0  0  0
  147.1444  140.5528  155.0473 H   0  0  0  0  0  0  0  0  0  0  0  0
  146.8831  142.0894  155.8457 H   0  0  0  0  0  0  0  0  0  0  0  0
  147.8704  142.6565  153.1867 H   0  0  0  0  0  0  0  0  0  0  0  0
  146.6092  141.4636  153.0318 H   0  0  0  0  0  0  0  0  0  0  0  0
  146.0250  143.9619  151.8274 H   0  0  0  0  0  0  0  0  0  0  0  0
  145.0364  146.1646  152.8193 H   0  0  0  0  0  0  0  0  0  0  0  0
  143.8622  145.1383  152.0205 H   0  0  0  0  0  0  0  0  0  0  0  0
  143.1436  146.0523  154.3247 H   0  0  0  0  0  0  0  0  0  0  0  0
  142.9617  144.3293  154.0969 H   0  0  0  0  0  0  0  0  0  0  0  0
  145.3138  145.6695  155.5019 H   0  0  0  0  0  0  0  0  0  0  0  0
  144.0103  144.8313  156.3080 H   0  0  0  0  0  0  0  0  0  0  0  0
  144.6933  142.6873  155.4276 H   0  0  0  0  0  0  0  0  0  0  0  0
  146.1607  143.4707  155.9757 H   0  0  0  0  0  0  0  0  0  0  0  0
  1  2  1  0  0  0  0
  1 21  1  0  0  0  0
  1 22  1  0  0  0  0
  1 23  1  0  0  0  0
  2 19  1  0  0  0  0
  2  3  2  0  0  0  0
  3  4  1  0  0  0  0
  3 24  1  0  0  0  0
  4  5  2  0  0  0  0
  4 25  1  0  0  0  0
  5  6  1  0  0  0  0
  5 26  1  0  0  0  0
  6  7  1  0  0  0  0
  6 19  1  0  0  0  0
  7  8  1  0  0  0  0
  7 27  1  0  0  0  0
  7 28  1  0  0  0  0
  8  9  2  0  0  0  0
  8 10  1  0  0  0  0
 10 11  1  0  0  0  0
 10 29  1  0  0  0  0
 11 12  1  0  0  0  0
 11 30  1  0  0  0  0
 11 31  1  0  0  0  0
 12 13  1  0  0  0  0
 12 32  1  0  0  0  0
 12 33  1  0  0  0  0
 13 18  1  0  0  0  0
 13 14  2  0  0  0  0
 14 15  1  0  0  0  0
 14 34  1  0  0  0  0
 15 16  1  0  0  0  0
 15 35  1  0  0  0  0
 15 36  1  0  0  0  0
 16 17  1  0  0  0  0
 16 37  1  0  0  0  0
 16 38  1  0  0  0  0
 17 18  1  0  0  0  0
 17 39  1  0  0  0  0
 17 40  1  0  0  0  0
 18 41  1  0  0  0  0
 18 42  1  0  0  0  0
 19 20  2  0  0  0  0
M  END
> <s_m_source_file>
AV-unprocessed.smi

> <i_m_source_file_index>
1035

> <i_lp_mmshare_version>
43012

> <i_f3d_flags>
0

> <s_epik_input>
W0NIM11jMVtjSF1bY0hdW2NIXW4oYzE9TylbQ0gyXUMoPU8pW05IXVtDSDJdW0NIMl1DMj1bQ0hdW0NIMl1bQ0gyXVtDSDJdW0NIMl0y

> <s_epik_cmdline>
J2VwaWtfcHl0aG9uJywgJy1waCcsICc3LjAnLCAnLXRuJywgJzgnLCAnLW1hJywgJzIwMCcsICctbWV0YWxfYmluZGluZycsICctaW1hZScsICc8aW5maWxlLm1hZT4nLCAnLW9tYWUnLCAnPG91dGZpbGUubWFlPic=

> <r_lp_tautomer_probability>
1

> <r_epik_Ionization_Penalty>
7.80073e-07

> <r_epik_Ionization_Penalty_Charging>
7.6197e-07

> <r_epik_Ionization_Penalty_Neutral>
1.81035e-08

> <r_epik_State_Penalty>
-0

> <r_epik_Charging_Adjusted_Penalty>
7.6197e-07

> <i_epik_Tot_Q>
0

> <i_epik_Tot_abs_Q>
0

> <r_epik_Metal_State_Penalty>
-0

> <b_epik_Metal_Only>
0

> <s_lp_Force_Field>
OPLS_2005

> <r_lp_Energy>
17.5966

> <b_lp_Chiralities_Consistent>
1

> <s_lp_Variant>
AV-unprocessed.smi:1035-1

> <Gold.Version>
5.8.1

> <Gold.Id.Protein>
6NUR|6NUR_protein|mol2

> <Gold.PLP.Fitness>
51.1471

> <Gold.PLP.PLP>
-46.4221

> <Gold.PLP.part.hbond>
-2.0000

> <Gold.PLP.part.metal>
0.0000

> <Gold.PLP.part.buried>
-6.2091

> <Gold.PLP.part.nonpolar>
-37.5614

> <Gold.PLP.part.repulsive>
0.1843

> <Gold.PLP.ligand.clash>
0.0000

> <Gold.PLP.ligand.torsion>
0.5408

> <Gold.PLP.Chemscore.Hbond>
0.9280

> <Gold.PLP.Chemscore.CHOScore>
1.0000

> <Gold.PLP.Chemscore.Metal>
0.0000

> <Gold.Chemscore.Hbonds>
donor molecule, donor type, donor heavy atom, donor atom, acceptor molecule, acceptor atom, score
      P1  H  7997  8008       L1    20  0.28
      L1  C     5    26       P1  8028  1.00

> <Gold.PLP.Chemscore.Internal.Correction>
0.0227

> <Gold.Rescore>
     Score         DG    S(hbond)    S(metal)    S(lipo)     H(rot)  DE(clash)    DE(int)     intcor
     16.40     -17.21       0.90        0.00     110.19       1.63       0.22       0.59       ----

> <Gold.Chemscore.Fitness>
16.4002

> <Gold.Chemscore.DG>
-17.2121

> <Gold.Chemscore.ZeroCoef>
-5.4800

> <Gold.Chemscore.Hbond>
0.9029

> <Gold.Chemscore.Metal>
0.0000

> <Gold.Chemscore.Lipo>
110.1893

> <Gold.Chemscore.Internal_Hbond>
0.0000

> <Gold.Chemscore.DEClash>
0.2239

> <Gold.Chemscore.DEInternal>
0.5880

> <Gold.Chemscore.Rot>
1.6311

> <Gold.Chemscore.Internal.Correction>
   9.000000E+99

> <Gold.Chemscore.Hbonds>
donor molecule, donor type, donor heavy atom, donor atom, acceptor molecule, acceptor atom, score
      P1  H  7997  8008       L1    20  0.27

> <Gold.Chemscore.Hbond.Weighted>
-3.0157

> <Gold.Chemscore.Metal.Weighted>
-0.0000

> <Gold.Chemscore.Lipo.Weighted>
-12.8921

> <Gold.Chemscore.Internal_Hbond.Weighted>
0.0000

> <Gold.Chemscore.DEClash.Weighted>
0.2239

> <Gold.Chemscore.DEInternal.Weighted>
0.5880

> <Gold.Chemscore.Rot.Weighted>
4.1757

> <Gold.Chemscore.Internal.Correction.Weighted>
   9.000000E+99

> <Gold.Protein.RotatedTorsions>
[ 6907 6896 6895 6894 ] final    1.27 input  -60.11 | X-H torsion
[ 7974 7965 7964 7962 ] final -160.53 input  175.53 | X-H torsion
[ 8008 7997 7996 7995 ] final  -77.20 input   59.86 | X-H torsion
[ 10167 10162 10161 10158 ] final  -68.68 input  -65.29 | X-H torsion
[ 10718 10713 10712 10709 ] final  161.76 input   66.30 | X-H torsion
[ 10763 10752 10751 10750 ] final  -77.24 input  -60.55 | X-H torsion
[ 11005 11000 10999 10996 ] final  175.76 input  -57.11 | X-H torsion

> <Gold.Protein.ActiveResidues>
 VAL166  LYS551  ARG553  GLY616  TRP617  ASP618  TYR619  PRO620  LYS621  CYS622 
 ASP623  PHE694  ASN695  SER759  ASP760  ASP761  ALA762  ILE779  LEU786  VAL792 
 PHE793  MET794  SER795  GLU796  ALA797  LYS798  CYS799  TRP800  GLU811  SER814 

> <Gold.Protein.RotatedAtoms>
  151.5898  135.1054  160.0036 H   0  0  0  0  0  0  0  0  0  0  0  0  # atno 6907 bound_to 6896
  152.4312  133.7276  159.6580 H   0  0  0  0  0  0  0  0  0  0  0  0  # atno 6908 bound_to 6896
  150.8204  133.8191  159.3164 H   0  0  0  0  0  0  0  0  0  0  0  0  # atno 6909 bound_to 6896
  144.7423  140.3528  143.6112 H   0  0  0  0  0  0  0  0  0  0  0  0  # atno 7974 bound_to 7965
  154.5575  140.0714  156.8766 H   0  0  0  0  0  0  0  0  0  0  0  0  # atno 8008 bound_to 7997
  155.2875  140.3376  155.4236 H   0  0  0  0  0  0  0  0  0  0  0  0  # atno 8009 bound_to 7997
  156.2014  140.1723  156.7877 H   0  0  0  0  0  0  0  0  0  0  0  0  # atno 8010 bound_to 7997
  140.5489  143.2312  151.6949 H   0  0  0  0  0  0  0  0  0  0  0  0  # atno 10167 bound_to 10162
  157.1321  131.0519  151.2367 H   0  0  0  0  0  0  0  0  0  0  0  0  # atno 10718 bound_to 10713
  154.5103  135.5771  153.6600 H   0  0  0  0  0  0  0  0  0  0  0  0  # atno 10763 bound_to 10752
  152.9896  135.6157  154.2887 H   0  0  0  0  0  0  0  0  0  0  0  0  # atno 10764 bound_to 10752
  154.2801  135.2851  155.2680 H   0  0  0  0  0  0  0  0  0  0  0  0  # atno 10765 bound_to 10752
  140.3657  134.7074  157.4360 H   0  0  0  0  0  0  0  0  0  0  0  0  # atno 11005 bound_to 11000
  145.7259  139.1722  143.2458 LP  0  0  0  0  0  0  0  0  0  0  0  0  # atno 17320 bound_to 7965
  146.1243  140.7269  142.9443 LP  0  0  0  0  0  0  0  0  0  0  0  0  # atno 17321 bound_to 7965
  139.5019  144.3850  152.0337 LP  0  0  0  0  0  0  0  0  0  0  0  0  # atno 17342 bound_to 10162
  140.2965  144.3694  150.6072 LP  0  0  0  0  0  0  0  0  0  0  0  0  # atno 17343 bound_to 10162
  157.4383  130.7530  149.7048 LP  0  0  0  0  0  0  0  0  0  0  0  0  # atno 17370 bound_to 10713
  155.9806  130.4028  150.3520 LP  0  0  0  0  0  0  0  0  0  0  0  0  # atno 17371 bound_to 10713
  140.0591  134.6020  155.8769 LP  0  0  0  0  0  0  0  0  0  0  0  0  # atno 17394 bound_to 11000
  141.1970  133.6594  156.5721 LP  0  0  0  0  0  0  0  0  0  0  0  0  # atno 17395 bound_to 11000

$$$$
