AV-unprocessed.smi:122|AV-procd|sdf|1141|dock2
  -GOLD-   2262018273D 1   1.00000     0.00000
 Structure written by MMmdl.
 48 50  0  0  0  0  0  0  0  0  1 V2000
  158.5539  140.2380  161.3838 C   0  0  0  0  0  0  0  0  0  0  0  0
  157.0112  139.6693  162.2088 S   0  0  0  0  0  0  0  0  0  0  0  0
  157.3757  138.7189  163.2705 O   0  0  0  0  0  0  0  0  0  0  0  0
  156.1922  140.8488  162.5271 O   0  0  0  0  0  0  0  0  0  0  0  0
  156.2083  138.7844  160.9527 N   0  0  0  0  0  0  0  0  0  0  0  0
  156.7588  138.8657  159.5801 C   0  0  0  0  0  0  0  0  0  0  0  0
  156.1505  137.7961  158.6550 C   0  0  0  0  0  0  0  0  0  0  0  0
  154.6928  137.8904  158.7218 N   0  0  0  0  0  0  0  0  0  0  0  0
  153.9307  138.3728  157.7119 C   0  0  0  0  0  0  0  0  0  0  0  0
  154.4158  138.7027  156.6277 O   0  0  0  0  0  0  0  0  0  0  0  0
  152.4103  138.5176  157.9314 C   0  0  0  0  0  0  0  0  0  0  0  0
  151.8926  139.8708  157.6297 N   0  0  0  0  0  0  0  0  0  0  0  0
  150.8555  140.0057  156.6734 C   0  0  0  0  0  0  0  0  0  0  0  0
  150.3806  139.0220  156.1040 O   0  0  0  0  0  0  0  0  0  0  0  0
  150.4115  141.3706  156.4141 C   0  0  0  0  0  0  0  0  0  0  0  0
  149.4310  141.5927  155.5225 F   0  0  0  0  0  0  0  0  0  0  0  0
  150.9714  142.4178  157.0541 C   0  0  0  0  0  0  0  0  0  0  0  0
  151.9856  142.2717  157.9841 N   0  0  0  0  0  0  0  0  0  0  0  0
  152.6159  143.4587  158.6819 C   0  0  2  0  0  0  0  0  0  0  0  0
  152.4101  143.3647  160.2058 C   0  0  0  0  0  0  0  0  0  0  0  0
  151.8404  144.7263  160.5503 C   0  0  0  0  0  0  0  0  0  0  0  0
  151.1075  145.0923  159.2687 C   0  0  0  0  0  0  0  0  0  0  0  0
  152.0003  144.6421  158.2583 O   0  0  0  0  0  0  0  0  0  0  0  0
  152.4761  140.9821  158.2836 C   0  0  0  0  0  0  0  0  0  0  0  0
  153.3940  140.8325  159.0935 O   0  0  0  0  0  0  0  0  0  0  0  0
  154.2311  137.5393  160.0653 C   0  0  0  0  0  0  0  0  0  0  0  0
  154.7424  138.6006  161.0557 C   0  0  0  0  0  0  0  0  0  0  0  0
  159.1553  140.8025  162.0959 H   0  0  0  0  0  0  0  0  0  0  0  0
  158.3039  140.8772  160.5376 H   0  0  0  0  0  0  0  0  0  0  0  0
  159.1231  139.3768  161.0355 H   0  0  0  0  0  0  0  0  0  0  0  0
  156.5594  139.8603  159.1795 H   0  0  0  0  0  0  0  0  0  0  0  0
  157.8419  138.7471  159.6102 H   0  0  0  0  0  0  0  0  0  0  0  0
  156.5361  137.9196  157.6421 H   0  0  0  0  0  0  0  0  0  0  0  0
  156.4683  136.8013  158.9707 H   0  0  0  0  0  0  0  0  0  0  0  0
  151.8980  137.7671  157.3277 H   0  0  0  0  0  0  0  0  0  0  0  0
  152.1738  138.2466  158.9617 H   0  0  0  0  0  0  0  0  0  0  0  0
  150.5991  143.4016  156.8132 H   0  0  0  0  0  0  0  0  0  0  0  0
  153.6621  143.4641  158.3704 H   0  0  0  0  0  0  0  0  0  0  0  0
  151.6885  142.5807  160.4423 H   0  0  0  0  0  0  0  0  0  0  0  0
  153.3492  143.1479  160.7159 H   0  0  0  0  0  0  0  0  0  0  0  0
  151.1901  144.7098  161.4252 H   0  0  0  0  0  0  0  0  0  0  0  0
  152.6476  145.4368  160.7342 H   0  0  0  0  0  0  0  0  0  0  0  0
  150.1585  144.5588  159.1984 H   0  0  0  0  0  0  0  0  0  0  0  0
  150.9106  146.1612  159.1838 H   0  0  0  0  0  0  0  0  0  0  0  0
  153.1496  137.4442  160.1465 H   0  0  0  0  0  0  0  0  0  0  0  0
  154.6248  136.5589  160.3381 H   0  0  0  0  0  0  0  0  0  0  0  0
  154.4795  138.3067  162.0718 H   0  0  0  0  0  0  0  0  0  0  0  0
  154.2527  139.5561  160.8646 H   0  0  0  0  0  0  0  0  0  0  0  0
  1  2  1  0  0  0  0
  1 28  1  0  0  0  0
  1 29  1  0  0  0  0
  1 30  1  0  0  0  0
  2  3  2  0  0  0  0
  2  4  2  0  0  0  0
  2  5  1  0  0  0  0
  5 27  1  0  0  0  0
  5  6  1  0  0  0  0
  6  7  1  0  0  0  0
  6 31  1  0  0  0  0
  6 32  1  0  0  0  0
  7  8  1  0  0  0  0
  7 33  1  0  0  0  0
  7 34  1  0  0  0  0
  8  9  1  0  0  0  0
  8 26  1  0  0  0  0
  9 10  2  0  0  0  0
  9 11  1  0  0  0  0
 11 12  1  0  0  0  0
 11 35  1  0  0  0  0
 11 36  1  0  0  0  0
 12 24  1  0  0  0  0
 12 13  1  0  0  0  0
 13 14  2  0  0  0  0
 13 15  1  0  0  0  0
 15 16  1  0  0  0  0
 15 17  2  0  0  0  0
 17 18  1  0  0  0  0
 17 37  1  0  0  0  0
 18 19  1  0  0  0  0
 18 24  1  0  0  0  0
 19 23  1  0  0  0  0
 19 20  1  0  0  0  0
 19 38  1  0  0  0  0
 20 21  1  0  0  0  0
 20 39  1  0  0  0  0
 20 40  1  0  0  0  0
 21 22  1  0  0  0  0
 21 41  1  0  0  0  0
 21 42  1  0  0  0  0
 22 23  1  0  0  0  0
 22 43  1  0  0  0  0
 22 44  1  0  0  0  0
 24 25  2  0  0  0  0
 26 27  1  0  0  0  0
 26 45  1  0  0  0  0
 26 46  1  0  0  0  0
 27 47  1  0  0  0  0
 27 48  1  0  0  0  0
M  END
> <s_m_source_file>
AV-unprocessed.smi

> <i_m_source_file_index>
122

> <i_lp_mmshare_version>
43012

> <i_f3d_flags>
0

> <s_epik_input>
W0NIM11TKD1PKSg9TylOMVtDSDJdW0NIMl1OKFtDSDJdW0NIMl0xKUMoPU8pW0NIMl1uMmMoPU8pYyhGKVtjSF1uKGMyPU8pW0NAQEhdM1tDSDJdW0NIMl1bQ0gyXU8z

> <s_epik_cmdline>
J2VwaWtfcHl0aG9uJywgJy1waCcsICc3LjAnLCAnLXRuJywgJzgnLCAnLW1hJywgJzIwMCcsICctbWV0YWxfYmluZGluZycsICctaW1hZScsICc8aW5maWxlLm1hZT4nLCAnLW9tYWUnLCAnPG91dGZpbGUubWFlPic=

> <r_lp_tautomer_probability>
1

> <r_epik_Ionization_Penalty>
4.55442e-09

> <r_epik_Ionization_Penalty_Charging>
4.02834e-09

> <r_epik_Ionization_Penalty_Neutral>
5.2608e-10

> <r_epik_State_Penalty>
-0

> <r_epik_Charging_Adjusted_Penalty>
4.02834e-09

> <i_epik_Tot_Q>
0

> <i_epik_Tot_abs_Q>
0

> <r_epik_Metal_State_Penalty>
-0

> <b_epik_Metal_Only>
0

> <s_epik_Chemistry_Notes>
This compound contains an acetal/aminal-like group ( X-CH(R)-Y where X, Y are N, S, or O) that may be acid/base labile, releasing an aldehyde.

> <s_lp_Force_Field>
OPLS_2005

> <r_lp_Energy>
39.2384

> <b_lp_Chiralities_Consistent>
1

> <s_lp_Variant>
AV-unprocessed.smi:122-1

> <Gold.Version>
5.8.1

> <Gold.Id.Protein>
6NUR|6NUR_protein|mol2

> <Gold.PLP.Fitness>
47.0094

> <Gold.PLP.PLP>
-42.1483

> <Gold.PLP.part.hbond>
-2.0000

> <Gold.PLP.part.metal>
0.0000

> <Gold.PLP.part.buried>
-7.1305

> <Gold.PLP.part.nonpolar>
-33.4052

> <Gold.PLP.part.repulsive>
0.0658

> <Gold.PLP.ligand.clash>
0.0000

> <Gold.PLP.ligand.torsion>
1.2975

> <Gold.PLP.Chemscore.Hbond>
0.7840

> <Gold.PLP.Chemscore.CHOScore>
1.0000

> <Gold.PLP.Chemscore.Metal>
0.0000

> <Gold.Chemscore.Hbonds>
donor molecule, donor type, donor heavy atom, donor atom, acceptor molecule, acceptor atom, score
      P1  H  7997  8008       L1    10  0.13
      L1  C    17    37       P1  8028  1.00

> <Gold.PLP.Chemscore.Internal.Correction>
2.1041

> <Gold.Rescore>
     Score         DG    S(hbond)    S(metal)    S(lipo)     H(rot)  DE(clash)    DE(int)     intcor
      8.92     -13.01       0.87        0.00      76.34       1.69       0.04       4.04       ----

> <Gold.Chemscore.Fitness>
8.9227

> <Gold.Chemscore.DG>
-13.0086

> <Gold.Chemscore.ZeroCoef>
-5.4800

> <Gold.Chemscore.Hbond>
0.8745

> <Gold.Chemscore.Metal>
0.0000

> <Gold.Chemscore.Lipo>
76.3391

> <Gold.Chemscore.Internal_Hbond>
0.0000

> <Gold.Chemscore.DEClash>
0.0445

> <Gold.Chemscore.DEInternal>
4.0415

> <Gold.Chemscore.Rot>
1.6890

> <Gold.Chemscore.Internal.Correction>
   9.000000E+99

> <Gold.Chemscore.Hbonds>
donor molecule, donor type, donor heavy atom, donor atom, acceptor molecule, acceptor atom, score
      P1  H  7997  8008       L1    10  0.02

> <Gold.Chemscore.Hbond.Weighted>
-2.9208

> <Gold.Chemscore.Metal.Weighted>
-0.0000

> <Gold.Chemscore.Lipo.Weighted>
-8.9317

> <Gold.Chemscore.Internal_Hbond.Weighted>
0.0000

> <Gold.Chemscore.DEClash.Weighted>
0.0445

> <Gold.Chemscore.DEInternal.Weighted>
4.0415

> <Gold.Chemscore.Rot.Weighted>
4.3239

> <Gold.Chemscore.Internal.Correction.Weighted>
   9.000000E+99

> <Gold.Protein.RotatedTorsions>
[ 6907 6896 6895 6894 ] final   45.46 input  -60.11 | X-H torsion
[ 7974 7965 7964 7962 ] final   40.29 input  175.53 | X-H torsion
[ 8008 7997 7996 7995 ] final  -80.89 input   59.86 | X-H torsion
[ 10167 10162 10161 10158 ] final   50.44 input  -65.29 | X-H torsion
[ 10718 10713 10712 10709 ] final  105.45 input   66.30 | X-H torsion
[ 10763 10752 10751 10750 ] final   90.84 input  -60.55 | X-H torsion
[ 11005 11000 10999 10996 ] final   78.06 input  -57.11 | X-H torsion

> <Gold.Protein.ActiveResidues>
 VAL166  LYS551  ARG553  GLY616  TRP617  ASP618  TYR619  PRO620  LYS621  CYS622 
 ASP623  PHE694  ASN695  SER759  ASP760  ASP761  ALA762  ILE779  LEU786  VAL792 
 PHE793  MET794  SER795  GLU796  ALA797  LYS798  CYS799  TRP800  GLU811  SER814 

> <Gold.Protein.RotatedAtoms>
  152.2448  134.8192  160.0454 H   0  0  0  0  0  0  0  0  0  0  0  0  # atno 6907 bound_to 6896
  151.8893  133.3507  159.3801 H   0  0  0  0  0  0  0  0  0  0  0  0  # atno 6908 bound_to 6896
  150.7065  134.4866  159.5540 H   0  0  0  0  0  0  0  0  0  0  0  0  # atno 6909 bound_to 6896
  146.0917  139.5551  142.9471 H   0  0  0  0  0  0  0  0  0  0  0  0  # atno 7974 bound_to 7965
  154.5929  140.0656  156.9263 H   0  0  0  0  0  0  0  0  0  0  0  0  # atno 8008 bound_to 7997
  155.2265  140.3334  155.4290 H   0  0  0  0  0  0  0  0  0  0  0  0  # atno 8009 bound_to 7997
  156.2267  140.1822  156.7328 H   0  0  0  0  0  0  0  0  0  0  0  0  # atno 8010 bound_to 7997
  140.2724  144.3250  150.6286 H   0  0  0  0  0  0  0  0  0  0  0  0  # atno 10167 bound_to 10162
  157.6705  131.0828  150.5859 H   0  0  0  0  0  0  0  0  0  0  0  0  # atno 10718 bound_to 10713
  153.2018  135.4419  155.0276 H   0  0  0  0  0  0  0  0  0  0  0  0  # atno 10763 bound_to 10752
  154.8151  135.3311  154.7200 H   0  0  0  0  0  0  0  0  0  0  0  0  # atno 10764 bound_to 10752
  153.7645  135.6989  153.4974 H   0  0  0  0  0  0  0  0  0  0  0  0  # atno 10765 bound_to 10752
  139.9228  134.7733  156.1601 H   0  0  0  0  0  0  0  0  0  0  0  0  # atno 11005 bound_to 11000
  145.6026  141.0353  143.2010 LP  0  0  0  0  0  0  0  0  0  0  0  0  # atno 17320 bound_to 7965
  144.7365  139.7571  143.7327 LP  0  0  0  0  0  0  0  0  0  0  0  0  # atno 17321 bound_to 7965
  140.5878  143.2169  151.7309 LP  0  0  0  0  0  0  0  0  0  0  0  0  # atno 17342 bound_to 10162
  139.4985  144.3984  152.0207 LP  0  0  0  0  0  0  0  0  0  0  0  0  # atno 17343 bound_to 10162
  156.6160  130.4393  149.5840 LP  0  0  0  0  0  0  0  0  0  0  0  0  # atno 17370 bound_to 10713
  156.2393  130.6841  151.1540 LP  0  0  0  0  0  0  0  0  0  0  0  0  # atno 17371 bound_to 10713
  141.0763  133.6774  156.2243 LP  0  0  0  0  0  0  0  0  0  0  0  0  # atno 17394 bound_to 11000
  140.6423  134.5153  157.5570 LP  0  0  0  0  0  0  0  0  0  0  0  0  # atno 17395 bound_to 11000

$$$$
