AV-unprocessed.smi:560|AV-procd|sdf|2929|dock1
  -GOLD-   2262023423D 1   1.00000     0.00000
 Structure written by MMmdl.
 42 43  0  0  0  0  0  0  0  0  2 V2000
  153.4536  140.7586  160.4203 C   0  0  0  0  0  0  0  0  0  0  0  0
  153.1585  141.7207  159.2514 C   0  0  1  0  0  0  0  0  0  0  0  0
  152.2338  141.1078  158.1857 C   0  0  0  0  0  0  0  0  0  0  0  0
  152.5622  140.0920  157.5713 O   0  0  0  0  0  0  0  0  0  0  0  0
  151.0721  141.7461  157.9699 N   0  0  0  0  0  0  0  0  0  0  0  0
  150.0423  141.3247  157.0259 C   0  0  2  0  0  0  0  0  0  0  0  0
  150.3482  141.8433  155.6086 C   0  0  0  0  0  0  0  0  0  0  0  0
  149.2120  141.4976  154.6315 C   0  0  0  0  0  0  0  0  0  0  0  0
  147.9108  142.0270  155.1135 N   0  3  1  0  0  0  0  0  0  0  0  0
  146.8184  141.8370  154.1248 C   0  0  0  0  0  0  0  0  0  0  0  0
  145.6046  142.7327  154.3944 C   0  0  0  0  0  0  0  0  0  0  0  0
  145.2868  143.6174  153.4467 N   0  0  0  0  0  0  0  0  0  0  0  0
  144.9714  142.6410  155.4448 O   0  0  0  0  0  0  0  0  0  0  0  0
  147.5752  141.5010  156.4642 C   0  0  0  0  0  0  0  0  0  0  0  0
  148.6724  141.8516  157.4826 C   0  0  0  0  0  0  0  0  0  0  0  0
  152.6281  142.9971  159.7183 N   0  0  0  0  0  0  0  0  0  0  0  0
  152.3297  143.3699  161.0136 C   0  0  0  0  0  0  0  0  0  0  0  0
  151.8904  144.6622  160.9786 C   0  0  0  0  0  0  0  0  0  0  0  0
  151.9631  145.0064  159.6002 C   0  0  0  0  0  0  0  0  0  0  0  0
  152.4112  144.0129  158.8505 N   0  0  0  0  0  0  0  0  0  0  0  0
  153.9138  139.8360  160.0643 H   0  0  0  0  0  0  0  0  0  0  0  0
  152.5491  140.4880  160.9668 H   0  0  0  0  0  0  0  0  0  0  0  0
  154.1441  141.2131  161.1311 H   0  0  0  0  0  0  0  0  0  0  0  0
  154.1101  141.9293  158.7601 H   0  0  0  0  0  0  0  0  0  0  0  0
  150.8810  142.5733  158.5166 H   0  0  0  0  0  0  0  0  0  0  0  0
  150.0007  140.2337  157.0069 H   0  0  0  0  0  0  0  0  0  0  0  0
  150.4890  142.9250  155.6318 H   0  0  0  0  0  0  0  0  0  0  0  0
  151.2842  141.4185  155.2438 H   0  0  0  0  0  0  0  0  0  0  0  0
  149.4428  141.9208  153.6530 H   0  0  0  0  0  0  0  0  0  0  0  0
  149.1413  140.4164  154.5016 H   0  0  0  0  0  0  0  0  0  0  0  0
  147.1778  142.0932  153.1271 H   0  0  0  0  0  0  0  0  0  0  0  0
  146.5212  140.7872  154.0911 H   0  0  0  0  0  0  0  0  0  0  0  0
  144.4935  144.2306  153.5681 H   0  0  0  0  0  0  0  0  0  0  0  0
  145.8410  143.6680  152.6036 H   0  0  0  0  0  0  0  0  0  0  0  0
  146.6268  141.9167  156.8057 H   0  0  0  0  0  0  0  0  0  0  0  0
  147.4435  140.4189  156.4128 H   0  0  0  0  0  0  0  0  0  0  0  0
  148.4170  141.4333  158.4574 H   0  0  0  0  0  0  0  0  0  0  0  0
  148.7128  142.9345  157.6114 H   0  0  0  0  0  0  0  0  0  0  0  0
  152.4529  142.6913  161.8447 H   0  0  0  0  0  0  0  0  0  0  0  0
  151.5679  145.2702  161.8109 H   0  0  0  0  0  0  0  0  0  0  0  0
  151.7093  145.9430  159.1257 H   0  0  0  0  0  0  0  0  0  0  0  0
  148.0286  143.0260  155.2080 H   0  0  0  0  0  0  0  0  0  0  0  0
  1  2  1  0  0  0  0
  1 21  1  0  0  0  0
  1 22  1  0  0  0  0
  1 23  1  0  0  0  0
  2  3  1  0  0  0  0
  2 16  1  0  0  0  0
  2 24  1  0  0  0  0
  3  4  2  0  0  0  0
  3  5  1  0  0  0  0
  5  6  1  0  0  0  0
  5 25  1  0  0  0  0
  6 15  1  0  0  0  0
  6  7  1  0  0  0  0
  6 26  1  0  0  0  0
  7  8  1  0  0  0  0
  7 27  1  0  0  0  0
  7 28  1  0  0  0  0
  8  9  1  0  0  0  0
  8 29  1  0  0  0  0
  8 30  1  0  0  0  0
  9 10  1  0  0  0  0
  9 14  1  0  0  0  0
  9 42  1  0  0  0  0
 10 11  1  0  0  0  0
 10 31  1  0  0  0  0
 10 32  1  0  0  0  0
 11 12  1  0  0  0  0
 11 13  2  0  0  0  0
 12 33  1  0  0  0  0
 12 34  1  0  0  0  0
 14 15  1  0  0  0  0
 14 35  1  0  0  0  0
 14 36  1  0  0  0  0
 15 37  1  0  0  0  0
 15 38  1  0  0  0  0
 16 20  1  0  0  0  0
 16 17  1  0  0  0  0
 17 18  2  0  0  0  0
 17 39  1  0  0  0  0
 18 19  1  0  0  0  0
 18 40  1  0  0  0  0
 19 20  2  0  0  0  0
 19 41  1  0  0  0  0
M  CHG  1   9   1
M  END
> <s_m_source_file>
AV-unprocessed.smi

> <i_m_source_file_index>
560

> <i_lp_mmshare_version>
43012

> <i_f3d_flags>
0

> <s_epik_input>
bjFbY0hdW2NIXVtjSF1uMVtDQEhdKFtDSDNdKUMoPU8pW05IXVtDSF0yW0NIMl1bQ0gyXU4oW0NIMl1bQ0gyXTIpW0NIMl1DKD1PKVtOSDJd

> <s_epik_cmdline>
J2VwaWtfcHl0aG9uJywgJy1waCcsICc3LjAnLCAnLXRuJywgJzgnLCAnLW1hJywgJzIwMCcsICctbWV0YWxfYmluZGluZycsICctaW1hZScsICc8aW5maWxlLm1hZT4nLCAnLW9tYWUnLCAnPG91dGZpbGUubWFlPic=

> <r_lp_tautomer_probability>
1

> <r_epik_Ionization_Penalty>
1.02943

> <r_epik_Ionization_Penalty_Charging>
1.02936

> <r_epik_Ionization_Penalty_Neutral>
7.4537e-05

> <r_epik_State_Penalty>
1.08036

> <r_epik_Charging_Adjusted_Penalty>
2.10972

> <i_epik_Tot_Q>
1

> <i_epik_Tot_abs_Q>
1

> <r_epik_Metal_State_Penalty>
1.09347

> <b_epik_Metal_Only>
0

> <s_lp_Force_Field>
OPLS_2005

> <r_lp_Energy>
15.5023

> <b_lp_Chiralities_Consistent>
1

> <s_lp_Variant>
AV-unprocessed.smi:560-4

> <Gold.Version>
5.8.1

> <Gold.Id.Protein>
6NUR|6NUR_protein|mol2

> <Gold.PLP.Fitness>
50.8468

> <Gold.PLP.PLP>
-42.7867

> <Gold.PLP.part.hbond>
-2.7806

> <Gold.PLP.part.metal>
0.0000

> <Gold.PLP.part.buried>
-7.3616

> <Gold.PLP.part.nonpolar>
-33.4790

> <Gold.PLP.part.repulsive>
0.4136

> <Gold.PLP.ligand.clash>
0.0000

> <Gold.PLP.ligand.torsion>
0.5284

> <Gold.PLP.Chemscore.Hbond>
2.9913

> <Gold.PLP.Chemscore.CHOScore>
0.0000

> <Gold.PLP.Chemscore.Metal>
0.0000

> <Gold.Chemscore.Hbonds>
donor molecule, donor type, donor heavy atom, donor atom, acceptor molecule, acceptor atom, score
      L1  H     9    42       P1  8028  2.00
      P1  H  7997  8009       L1     4  1.00

> <Gold.PLP.Chemscore.Internal.Correction>
0.1431

> <Gold.Rescore>
     Score         DG    S(hbond)    S(metal)    S(lipo)     H(rot)  DE(clash)    DE(int)     intcor
     10.46     -12.55       0.92        0.00      89.30       2.52       0.08       2.01       ----

> <Gold.Chemscore.Fitness>
10.4626

> <Gold.Chemscore.DG>
-12.5549

> <Gold.Chemscore.ZeroCoef>
-5.4800

> <Gold.Chemscore.Hbond>
0.9250

> <Gold.Chemscore.Metal>
0.0000

> <Gold.Chemscore.Lipo>
89.2966

> <Gold.Chemscore.Internal_Hbond>
0.0000

> <Gold.Chemscore.DEClash>
0.0833

> <Gold.Chemscore.DEInternal>
2.0090

> <Gold.Chemscore.Rot>
2.5243

> <Gold.Chemscore.Internal.Correction>
   9.000000E+99

> <Gold.Chemscore.Hbonds>
donor molecule, donor type, donor heavy atom, donor atom, acceptor molecule, acceptor atom, score
      L1  H     9    42       P1  8028  0.90
      P1  H  7997  8009       L1     4  0.85

> <Gold.Chemscore.Hbond.Weighted>
-3.0894

> <Gold.Chemscore.Metal.Weighted>
-0.0000

> <Gold.Chemscore.Lipo.Weighted>
-10.4477

> <Gold.Chemscore.Internal_Hbond.Weighted>
0.0000

> <Gold.Chemscore.DEClash.Weighted>
0.0833

> <Gold.Chemscore.DEInternal.Weighted>
2.0090

> <Gold.Chemscore.Rot.Weighted>
6.4622

> <Gold.Chemscore.Internal.Correction.Weighted>
   9.000000E+99

> <Gold.Protein.RotatedTorsions>
[ 6907 6896 6895 6894 ] final -140.97 input  -60.11 | X-H torsion
[ 7974 7965 7964 7962 ] final -154.38 input  175.53 | X-H torsion
[ 8008 7997 7996 7995 ] final  171.83 input   59.86 | X-H torsion
[ 10167 10162 10161 10158 ] final   15.36 input  -65.29 | X-H torsion
[ 10718 10713 10712 10709 ] final   45.81 input   66.30 | X-H torsion
[ 10763 10752 10751 10750 ] final  -82.43 input  -60.55 | X-H torsion
[ 11005 11000 10999 10996 ] final -169.64 input  -57.11 | X-H torsion

> <Gold.Protein.ActiveResidues>
 VAL166  LYS551  ARG553  GLY616  TRP617  ASP618  TYR619  PRO620  LYS621  CYS622 
 ASP623  PHE694  ASN695  SER759  ASP760  ASP761  ALA762  ILE779  LEU786  VAL792 
 PHE793  MET794  SER795  GLU796  ALA797  LYS798  CYS799  TRP800  GLU811  SER814 

> <Gold.Protein.RotatedAtoms>
  151.0676  133.5492  159.2629 H   0  0  0  0  0  0  0  0  0  0  0  0  # atno 6907 bound_to 6896
  151.2443  135.0599  159.9047 H   0  0  0  0  0  0  0  0  0  0  0  0  # atno 6908 bound_to 6896
  152.5407  134.0447  159.8137 H   0  0  0  0  0  0  0  0  0  0  0  0  # atno 6909 bound_to 6896
  144.7692  140.4396  143.5919 H   0  0  0  0  0  0  0  0  0  0  0  0  # atno 7974 bound_to 7965
  156.1233  140.1501  156.9172 H   0  0  0  0  0  0  0  0  0  0  0  0  # atno 8008 bound_to 7997
  154.4852  140.0867  156.7512 H   0  0  0  0  0  0  0  0  0  0  0  0  # atno 8009 bound_to 7997
  155.4388  140.3430  155.4290 H   0  0  0  0  0  0  0  0  0  0  0  0  # atno 8010 bound_to 7997
  140.5873  143.8865  150.6841 H   0  0  0  0  0  0  0  0  0  0  0  0  # atno 10167 bound_to 10162
  157.4415  130.8084  149.7698 H   0  0  0  0  0  0  0  0  0  0  0  0  # atno 10718 bound_to 10713
  154.5756  135.5591  153.7137 H   0  0  0  0  0  0  0  0  0  0  0  0  # atno 10763 bound_to 10752
  153.0063  135.6307  154.2053 H   0  0  0  0  0  0  0  0  0  0  0  0  # atno 10764 bound_to 10752
  154.1993  135.2878  155.2976 H   0  0  0  0  0  0  0  0  0  0  0  0  # atno 10765 bound_to 10752
  140.5285  134.5639  157.5068 H   0  0  0  0  0  0  0  0  0  0  0  0  # atno 11005 bound_to 11000
  145.6375  139.1545  143.2934 LP  0  0  0  0  0  0  0  0  0  0  0  0  # atno 17320 bound_to 7965
  146.1826  140.6474  142.9182 LP  0  0  0  0  0  0  0  0  0  0  0  0  # atno 17321 bound_to 7965
  140.2379  143.3686  152.1511 LP  0  0  0  0  0  0  0  0  0  0  0  0  # atno 17342 bound_to 10162
  139.5205  144.7034  151.5426 LP  0  0  0  0  0  0  0  0  0  0  0  0  # atno 17343 bound_to 10162
  155.9950  130.3914  150.2835 LP  0  0  0  0  0  0  0  0  0  0  0  0  # atno 17370 bound_to 10713
  157.1000  131.0193  151.3089 LP  0  0  0  0  0  0  0  0  0  0  0  0  # atno 17371 bound_to 10713
  139.9567  134.7523  156.0326 LP  0  0  0  0  0  0  0  0  0  0  0  0  # atno 17394 bound_to 11000
  141.1294  133.6590  156.3425 LP  0  0  0  0  0  0  0  0  0  0  0  0  # atno 17395 bound_to 11000

$$$$
