AV-unprocessed.smi:1099|AV-procd|sdf|4758|dock3
  -GOLD-   22720 3293D 1   1.00000     0.00000
 Structure written by MMmdl.
 41 43  0  0  0  0  0  0  0  0  1 V2000
  146.7838  134.7974  162.8170 C   0  0  0  0  0  0  0  0  0  0  0  0
  147.2302  136.1978  162.3872 C   0  0  0  0  0  0  0  0  0  0  0  0
  147.5824  136.2729  160.9391 C   0  0  0  0  0  0  0  0  0  0  0  0
  147.9955  137.3916  160.3379 N   0  0  0  0  0  0  0  0  0  0  0  0
  148.2576  137.2067  158.9763 C   0  0  0  0  0  0  0  0  0  0  0  0
  148.7434  138.3570  158.1420 C   0  0  0  0  0  0  0  0  0  0  0  0
  150.2234  138.7189  158.3735 C   0  0  0  0  0  0  0  0  0  0  0  0
  150.4920  140.1471  158.2167 N   0  0  0  0  0  0  0  0  0  0  0  0
  151.6481  140.7598  158.5200 C   0  0  0  0  0  0  0  0  0  0  0  0
  152.6220  140.1636  158.9811 O   0  0  0  0  0  0  0  0  0  0  0  0
  151.7008  142.2766  158.2662 C   0  0  1  0  0  0  0  0  0  0  0  0
  150.5136  143.0462  158.8951 C   0  0  0  0  0  0  0  0  0  0  0  0
  151.2036  144.1017  159.7812 C   0  0  2  0  0  0  0  0  0  0  0  0
  151.8980  145.1449  158.8857 C   0  0  0  0  0  0  0  0  0  0  0  0
  153.1005  144.3619  158.3229 C   0  0  0  0  0  0  0  0  0  0  0  0
  152.9127  142.9645  158.9445 C   0  0  1  0  0  0  0  0  0  0  0  0
  152.3913  143.3273  160.3347 C   0  0  0  0  0  0  0  0  0  0  0  0
  148.0616  135.9139  158.5588 C   0  0  0  0  0  0  0  0  0  0  0  0
  147.5446  134.8814  159.8628 S   0  0  0  0  0  0  0  0  0  0  0  0
  146.5168  134.7816  163.8738 H   0  0  0  0  0  0  0  0  0  0  0  0
  147.5832  134.0724  162.6663 H   0  0  0  0  0  0  0  0  0  0  0  0
  145.9150  134.4670  162.2467 H   0  0  0  0  0  0  0  0  0  0  0  0
  146.4367  136.9175  162.5904 H   0  0  0  0  0  0  0  0  0  0  0  0
  148.0930  136.5107  162.9763 H   0  0  0  0  0  0  0  0  0  0  0  0
  148.5951  138.1334  157.0851 H   0  0  0  0  0  0  0  0  0  0  0  0
  148.1319  139.2384  158.3401 H   0  0  0  0  0  0  0  0  0  0  0  0
  150.5327  138.3798  159.3636 H   0  0  0  0  0  0  0  0  0  0  0  0
  150.8467  138.1743  157.6641 H   0  0  0  0  0  0  0  0  0  0  0  0
  149.7403  140.7135  157.8511 H   0  0  0  0  0  0  0  0  0  0  0  0
  151.7284  142.4480  157.1885 H   0  0  0  0  0  0  0  0  0  0  0  0
  149.8836  143.5097  158.1358 H   0  0  0  0  0  0  0  0  0  0  0  0
  149.8739  142.4007  159.4996 H   0  0  0  0  0  0  0  0  0  0  0  0
  150.5459  144.5384  160.5332 H   0  0  0  0  0  0  0  0  0  0  0  0
  151.2395  145.5199  158.1011 H   0  0  0  0  0  0  0  0  0  0  0  0
  152.2380  145.9985  159.4736 H   0  0  0  0  0  0  0  0  0  0  0  0
  153.1118  144.3384  157.2325 H   0  0  0  0  0  0  0  0  0  0  0  0
  154.0377  144.8101  158.6554 H   0  0  0  0  0  0  0  0  0  0  0  0
  153.8243  142.3651  158.9438 H   0  0  0  0  0  0  0  0  0  0  0  0
  153.0828  143.9486  160.9067 H   0  0  0  0  0  0  0  0  0  0  0  0
  152.1030  142.4721  160.9460 H   0  0  0  0  0  0  0  0  0  0  0  0
  148.2073  135.5042  157.5703 H   0  0  0  0  0  0  0  0  0  0  0  0
  1  2  1  0  0  0  0
  1 20  1  0  0  0  0
  1 21  1  0  0  0  0
  1 22  1  0  0  0  0
  2  3  1  0  0  0  0
  2 23  1  0  0  0  0
  2 24  1  0  0  0  0
  3 19  1  0  0  0  0
  3  4  2  0  0  0  0
  4  5  1  0  0  0  0
  5  6  1  0  0  0  0
  5 18  2  0  0  0  0
  6  7  1  0  0  0  0
  6 25  1  0  0  0  0
  6 26  1  0  0  0  0
  7  8  1  0  0  0  0
  7 27  1  0  0  0  0
  7 28  1  0  0  0  0
  8  9  1  0  0  0  0
  8 29  1  0  0  0  0
  9 10  2  0  0  0  0
  9 11  1  0  0  0  0
 11 16  1  0  0  0  0
 11 12  1  0  0  0  0
 11 30  1  0  0  0  0
 12 13  1  0  0  0  0
 12 31  1  0  0  0  0
 12 32  1  0  0  0  0
 13 17  1  0  0  0  0
 13 14  1  0  0  0  0
 13 33  1  0  0  0  0
 14 15  1  0  0  0  0
 14 34  1  0  0  0  0
 14 35  1  0  0  0  0
 15 16  1  0  0  0  0
 15 36  1  0  0  0  0
 15 37  1  0  0  0  0
 16 17  1  0  0  0  0
 16 38  1  0  0  0  0
 17 39  1  0  0  0  0
 17 40  1  0  0  0  0
 18 19  1  0  0  0  0
 18 41  1  0  0  0  0
M  END
> <s_m_source_file>
AV-unprocessed.smi

> <i_m_source_file_index>
1099

> <i_lp_mmshare_version>
43012

> <i_f3d_flags>
0

> <s_epik_input>
W0NIM11bQ0gyXWMxbmMoW2NIXXMxKVtDSDJdW0NIMl1bTkhdQyg9TylbQ0BIXShbQ0gyXVtDQEBIXTIzKVtDQEBIXShbQ0gyXTMpW0NIMl1bQ0gyXTI=

> <s_epik_cmdline>
J2VwaWtfcHl0aG9uJywgJy1waCcsICc3LjAnLCAnLXRuJywgJzgnLCAnLW1hJywgJzIwMCcsICctbWV0YWxfYmluZGluZycsICctaW1hZScsICc8aW5maWxlLm1hZT4nLCAnLW9tYWUnLCAnPG91dGZpbGUubWFlPic=

> <r_epik_Ionization_Penalty>
0.00110131

> <r_epik_Ionization_Penalty_Charging>
0

> <r_epik_Ionization_Penalty_Neutral>
0.00110131

> <r_epik_State_Penalty>
0.00072257

> <r_epik_Charging_Adjusted_Penalty>
0.00072257

> <i_epik_Tot_Q>
0

> <i_epik_Tot_abs_Q>
0

> <r_epik_Metal_State_Penalty>
-0

> <b_epik_Metal_Only>
0

> <s_lp_Force_Field>
OPLS_2005

> <r_lp_Energy>
38.7505

> <b_lp_Chiralities_Consistent>
1

> <s_lp_Variant>
AV-unprocessed.smi:1099-4

> <Gold.Version>
5.8.1

> <Gold.Id.Protein>
6NUR|6NUR_protein|mol2

> <Gold.PLP.Fitness>
45.4149

> <Gold.PLP.PLP>
-43.5886

> <Gold.PLP.part.hbond>
-2.0000

> <Gold.PLP.part.metal>
0.0000

> <Gold.PLP.part.buried>
-5.9632

> <Gold.PLP.part.nonpolar>
-35.9397

> <Gold.PLP.part.repulsive>
0.1441

> <Gold.PLP.ligand.clash>
0.0000

> <Gold.PLP.ligand.torsion>
0.7051

> <Gold.PLP.Chemscore.Hbond>
1.0597

> <Gold.PLP.Chemscore.CHOScore>
0.0000

> <Gold.PLP.Chemscore.Metal>
0.0000

> <Gold.Chemscore.Hbonds>
donor molecule, donor type, donor heavy atom, donor atom, acceptor molecule, acceptor atom, score
      P1  H  6931  6943       L1     4  0.59
      P1  H  6934  6947       L1     4  0.70

> <Gold.PLP.Chemscore.Internal.Correction>
0.0575

> <Gold.Rescore>
     Score         DG    S(hbond)    S(metal)    S(lipo)     H(rot)  DE(clash)    DE(int)     intcor
     19.07     -19.87       0.99        0.00     125.72       1.42       0.04       0.77       ----

> <Gold.Chemscore.Fitness>
19.0695

> <Gold.Chemscore.DG>
-19.8743

> <Gold.Chemscore.ZeroCoef>
-5.4800

> <Gold.Chemscore.Hbond>
0.9914

> <Gold.Chemscore.Metal>
0.0000

> <Gold.Chemscore.Lipo>
125.7182

> <Gold.Chemscore.Internal_Hbond>
0.0000

> <Gold.Chemscore.DEClash>
0.0376

> <Gold.Chemscore.DEInternal>
0.7671

> <Gold.Chemscore.Rot>
1.4165

> <Gold.Chemscore.Internal.Correction>
   9.000000E+99

> <Gold.Chemscore.Hbonds>
donor molecule, donor type, donor heavy atom, donor atom, acceptor molecule, acceptor atom, score
      P1  H  6931  6943       L1     4  0.14
      P1  H  6934  6947       L1     4  0.64

> <Gold.Chemscore.Hbond.Weighted>
-3.3114

> <Gold.Chemscore.Metal.Weighted>
-0.0000

> <Gold.Chemscore.Lipo.Weighted>
-14.7090

> <Gold.Chemscore.Internal_Hbond.Weighted>
0.0000

> <Gold.Chemscore.DEClash.Weighted>
0.0376

> <Gold.Chemscore.DEInternal.Weighted>
0.7671

> <Gold.Chemscore.Rot.Weighted>
3.6262

> <Gold.Chemscore.Internal.Correction.Weighted>
   9.000000E+99

> <Gold.Protein.RotatedTorsions>
[ 6907 6896 6895 6894 ] final   35.20 input  -60.11 | X-H torsion
[ 7974 7965 7964 7962 ] final  -46.71 input  175.53 | X-H torsion
[ 8008 7997 7996 7995 ] final  169.26 input   59.86 | X-H torsion
[ 10167 10162 10161 10158 ] final -116.21 input  -65.29 | X-H torsion
[ 10718 10713 10712 10709 ] final  159.68 input   66.30 | X-H torsion
[ 10763 10752 10751 10750 ] final  103.48 input  -60.55 | X-H torsion
[ 11005 11000 10999 10996 ] final  -73.37 input  -57.11 | X-H torsion

> <Gold.Protein.ActiveResidues>
 VAL166  LYS551  ARG553  GLY616  TRP617  ASP618  TYR619  PRO620  LYS621  CYS622 
 ASP623  PHE694  ASN695  SER759  ASP760  ASP761  ALA762  ILE779  LEU786  VAL792 
 PHE793  MET794  SER795  GLU796  ALA797  LYS798  CYS799  TRP800  GLU811  SER814 

> <Gold.Protein.RotatedAtoms>
  152.1128  134.9262  160.0565 H   0  0  0  0  0  0  0  0  0  0  0  0  # atno 6907 bound_to 6896
  152.0432  133.3982  159.4354 H   0  0  0  0  0  0  0  0  0  0  0  0  # atno 6908 bound_to 6896
  150.6844  134.3311  159.4871 H   0  0  0  0  0  0  0  0  0  0  0  0  # atno 6909 bound_to 6896
  145.9691  140.7402  142.9419 H   0  0  0  0  0  0  0  0  0  0  0  0  # atno 7974 bound_to 7965
  156.1473  140.1569  156.8826 H   0  0  0  0  0  0  0  0  0  0  0  0  # atno 8008 bound_to 7997
  154.5040  140.0818  156.7893 H   0  0  0  0  0  0  0  0  0  0  0  0  # atno 8009 bound_to 7997
  155.3964  140.3412  155.4256 H   0  0  0  0  0  0  0  0  0  0  0  0  # atno 8010 bound_to 7997
  140.0817  143.4782  152.1922 H   0  0  0  0  0  0  0  0  0  0  0  0  # atno 10167 bound_to 10162
  157.1609  131.0587  151.2233 H   0  0  0  0  0  0  0  0  0  0  0  0  # atno 10718 bound_to 10713
  153.3532  135.3975  155.1662 H   0  0  0  0  0  0  0  0  0  0  0  0  # atno 10763 bound_to 10752
  154.8666  135.3661  154.5195 H   0  0  0  0  0  0  0  0  0  0  0  0  # atno 10764 bound_to 10752
  153.5648  135.7080  153.5591 H   0  0  0  0  0  0  0  0  0  0  0  0  # atno 10765 bound_to 10752
  141.1622  133.6876  156.7202 H   0  0  0  0  0  0  0  0  0  0  0  0  # atno 11005 bound_to 11000
  144.6832  140.2718  143.7305 LP  0  0  0  0  0  0  0  0  0  0  0  0  # atno 17320 bound_to 7965
  145.7932  139.1935  143.2091 LP  0  0  0  0  0  0  0  0  0  0  0  0  # atno 17321 bound_to 7965
  139.5776  144.7495  151.3725 LP  0  0  0  0  0  0  0  0  0  0  0  0  # atno 17342 bound_to 10162
  140.7074  143.7478  150.7506 LP  0  0  0  0  0  0  0  0  0  0  0  0  # atno 17343 bound_to 10162
  157.4133  130.7397  149.6856 LP  0  0  0  0  0  0  0  0  0  0  0  0  # atno 17370 bound_to 10713
  155.9754  130.4089  150.3852 LP  0  0  0  0  0  0  0  0  0  0  0  0  # atno 17371 bound_to 10713
  140.2822  134.8308  157.3943 LP  0  0  0  0  0  0  0  0  0  0  0  0  # atno 17394 bound_to 11000
  140.1423  134.4956  155.8022 LP  0  0  0  0  0  0  0  0  0  0  0  0  # atno 17395 bound_to 11000

$$$$
