AV-unprocessed.smi:2191|AV-procd|sdf|8894|dock4
  -GOLD-   2272012103D 1   1.00000     0.00000
 Structure written by MMmdl.
 37 39  0  0  0  0  0  0  0  0  2 V2000
  150.2019  140.4810  157.7766 O   0  0  0  0  0  0  0  0  0  0  0  0
  151.3881  139.8040  157.4097 C   0  0  2  0  0  0  0  0  0  0  0  0
  152.5062  140.2215  158.3782 C   0  0  0  0  0  0  0  0  0  0  0  0
  152.5424  141.6407  158.4525 O   0  0  0  0  0  0  0  0  0  0  0  0
  152.6333  142.2277  159.6965 C   0  0  0  0  0  0  0  0  0  0  0  0
  153.3060  141.4995  160.6997 C   0  0  0  0  0  0  0  0  0  0  0  0
  153.4476  142.0232  161.9993 C   0  0  0  0  0  0  0  0  0  0  0  0
  152.9126  143.2868  162.3104 C   0  0  0  0  0  0  0  0  0  0  0  0
  152.2372  144.0238  161.3199 C   0  0  0  0  0  0  0  0  0  0  0  0
  152.0975  143.5006  160.0196 C   0  0  0  0  0  0  0  0  0  0  0  0
  151.7384  140.1438  155.9473 C   0  0  0  0  0  0  0  0  0  0  0  0
  150.7660  139.6010  154.9870 N   0  0  0  0  0  0  0  0  0  0  0  0
  150.8044  138.4402  154.2783 C   0  0  0  0  0  0  0  0  0  0  0  0
  149.6720  138.3799  153.5246 N   0  3  0  0  0  0  0  0  0  0  0  0
  148.8973  139.5185  153.7549 C   0  0  0  0  0  0  0  0  0  0  0  0
  147.6699  139.9064  153.2261 C   0  0  0  0  0  0  0  0  0  0  0  0
  147.1463  141.1356  153.6776 C   0  0  0  0  0  0  0  0  0  0  0  0
  147.8368  141.9266  154.6186 C   0  0  0  0  0  0  0  0  0  0  0  0
  149.0806  141.5238  155.1475 C   0  0  0  0  0  0  0  0  0  0  0  0
  149.5932  140.3080  154.6950 C   0  0  0  0  0  0  0  0  0  0  0  0
  149.5408  140.2963  157.1263 H   0  0  0  0  0  0  0  0  0  0  0  0
  151.2175  138.7294  157.4887 H   0  0  0  0  0  0  0  0  0  0  0  0
  152.2861  139.8323  159.3738 H   0  0  0  0  0  0  0  0  0  0  0  0
  153.4657  139.8070  158.0632 H   0  0  0  0  0  0  0  0  0  0  0  0
  153.7199  140.5285  160.4698 H   0  0  0  0  0  0  0  0  0  0  0  0
  153.9668  141.4550  162.7570 H   0  0  0  0  0  0  0  0  0  0  0  0
  153.0200  143.6902  163.3066 H   0  0  0  0  0  0  0  0  0  0  0  0
  151.8255  144.9938  161.5571 H   0  0  0  0  0  0  0  0  0  0  0  0
  151.5734  144.0963  159.2880 H   0  0  0  0  0  0  0  0  0  0  0  0
  151.8336  141.2199  155.8018 H   0  0  0  0  0  0  0  0  0  0  0  0
  152.7084  139.7161  155.6911 H   0  0  0  0  0  0  0  0  0  0  0  0
  151.5905  137.6998  154.3095 H   0  0  0  0  0  0  0  0  0  0  0  0
  147.1379  139.3019  152.5062 H   0  0  0  0  0  0  0  0  0  0  0  0
  146.1953  141.4780  153.2960 H   0  0  0  0  0  0  0  0  0  0  0  0
  147.4031  142.8614  154.9428 H   0  0  0  0  0  0  0  0  0  0  0  0
  149.5961  142.1358  155.8726 H   0  0  0  0  0  0  0  0  0  0  0  0
  149.4468  137.6153  152.9010 H   0  0  0  0  0  0  0  0  0  0  0  0
  1  2  1  0  0  0  0
  1 21  1  0  0  0  0
  2  3  1  0  0  0  0
  2 11  1  0  0  0  0
  2 22  1  0  0  0  0
  3  4  1  0  0  0  0
  3 23  1  0  0  0  0
  3 24  1  0  0  0  0
  4  5  1  0  0  0  0
  5 10  1  0  0  0  0
  5  6  2  0  0  0  0
  6  7  1  0  0  0  0
  6 25  1  0  0  0  0
  7  8  2  0  0  0  0
  7 26  1  0  0  0  0
  8  9  1  0  0  0  0
  8 27  1  0  0  0  0
  9 10  2  0  0  0  0
  9 28  1  0  0  0  0
 10 29  1  0  0  0  0
 11 12  1  0  0  0  0
 11 30  1  0  0  0  0
 11 31  1  0  0  0  0
 12 20  1  0  0  0  0
 12 13  1  0  0  0  0
 13 14  2  0  0  0  0
 13 32  1  0  0  0  0
 14 15  1  0  0  0  0
 14 37  1  0  0  0  0
 15 20  2  0  0  0  0
 15 16  1  0  0  0  0
 16 17  2  0  0  0  0
 16 33  1  0  0  0  0
 17 18  1  0  0  0  0
 17 34  1  0  0  0  0
 18 19  2  0  0  0  0
 18 35  1  0  0  0  0
 19 20  1  0  0  0  0
 19 36  1  0  0  0  0
M  CHG  1  14   1
M  END
> <s_m_source_file>
AV-unprocessed.smi

> <i_m_source_file_index>
2191

> <i_lp_mmshare_version>
43012

> <i_f3d_flags>
0

> <s_epik_input>
W2NIXTFbY0hdW2NIXVtjSF1jKGMxMiluKFtjSF1uMilbQ0gyXVtDQEhdKFtPSF0pW0NIMl1PYzNbY0hdW2NIXVtjSF1bY0hdW2NIXTM=

> <s_epik_cmdline>
J2VwaWtfcHl0aG9uJywgJy1waCcsICc3LjAnLCAnLXRuJywgJzgnLCAnLW1hJywgJzIwMCcsICctbWV0YWxfYmluZGluZycsICctaW1hZScsICc8aW5maWxlLm1hZT4nLCAnLW9tYWUnLCAnPG91dGZpbGUubWFlPic=

> <r_lp_tautomer_probability>
1

> <r_epik_Ionization_Penalty>
1.35015

> <r_epik_Ionization_Penalty_Charging>
1.35015

> <r_epik_Ionization_Penalty_Neutral>
2.3993e-06

> <r_epik_State_Penalty>
1.42814

> <r_epik_Charging_Adjusted_Penalty>
2.77829

> <i_epik_Tot_Q>
1

> <i_epik_Tot_abs_Q>
1

> <r_epik_Metal_State_Penalty>
5.46522

> <b_epik_Metal_Only>
0

> <s_lp_Force_Field>
OPLS_2005

> <r_lp_Energy>
21.7284

> <b_lp_Chiralities_Consistent>
1

> <s_lp_Variant>
AV-unprocessed.smi:2191-3

> <Gold.Version>
5.8.1

> <Gold.Id.Protein>
6NUR|6NUR_protein|mol2

> <Gold.PLP.Fitness>
52.8865

> <Gold.PLP.PLP>
-49.0725

> <Gold.PLP.part.hbond>
-2.0000

> <Gold.PLP.part.metal>
0.0000

> <Gold.PLP.part.buried>
2.1040

> <Gold.PLP.part.nonpolar>
-48.1761

> <Gold.PLP.part.repulsive>
0.0729

> <Gold.PLP.ligand.clash>
0.0000

> <Gold.PLP.ligand.torsion>
1.1232

> <Gold.PLP.Chemscore.Hbond>
2.0000

> <Gold.PLP.Chemscore.CHOScore>
0.0000

> <Gold.PLP.Chemscore.Metal>
0.0000

> <Gold.Chemscore.Hbonds>
donor molecule, donor type, donor heavy atom, donor atom, acceptor molecule, acceptor atom, score
      L1  H    14    37       P1  7948  2.00

> <Gold.PLP.Chemscore.Internal.Correction>
0.0604

> <Gold.Rescore>
     Score         DG    S(hbond)    S(metal)    S(lipo)     H(rot)  DE(clash)    DE(int)     intcor
     16.15     -17.68       0.99        0.00     126.51       2.31       0.37       1.16       ----

> <Gold.Chemscore.Fitness>
16.1487

> <Gold.Chemscore.DG>
-17.6780

> <Gold.Chemscore.ZeroCoef>
-5.4800

> <Gold.Chemscore.Hbond>
0.9873

> <Gold.Chemscore.Metal>
0.0000

> <Gold.Chemscore.Lipo>
126.5107

> <Gold.Chemscore.Internal_Hbond>
0.0000

> <Gold.Chemscore.DEClash>
0.3716

> <Gold.Chemscore.DEInternal>
1.1576

> <Gold.Chemscore.Rot>
2.3053

> <Gold.Chemscore.Internal.Correction>
   9.000000E+99

> <Gold.Chemscore.Hbonds>
donor molecule, donor type, donor heavy atom, donor atom, acceptor molecule, acceptor atom, score
      L1  H    14    37       P1  7948  0.85

> <Gold.Chemscore.Hbond.Weighted>
-3.2977

> <Gold.Chemscore.Metal.Weighted>
-0.0000

> <Gold.Chemscore.Lipo.Weighted>
-14.8017

> <Gold.Chemscore.Internal_Hbond.Weighted>
0.0000

> <Gold.Chemscore.DEClash.Weighted>
0.3716

> <Gold.Chemscore.DEInternal.Weighted>
1.1576

> <Gold.Chemscore.Rot.Weighted>
5.9015

> <Gold.Chemscore.Internal.Correction.Weighted>
   9.000000E+99

> <Gold.Protein.RotatedTorsions>
[ 6907 6896 6895 6894 ] final  -40.94 input  -60.11 | X-H torsion
[ 7974 7965 7964 7962 ] final  -37.25 input  175.53 | X-H torsion
[ 8008 7997 7996 7995 ] final -108.73 input   59.86 | X-H torsion
[ 10167 10162 10161 10158 ] final  -49.40 input  -65.29 | X-H torsion
[ 10718 10713 10712 10709 ] final -147.86 input   66.30 | X-H torsion
[ 10763 10752 10751 10750 ] final   81.16 input  -60.55 | X-H torsion
[ 11005 11000 10999 10996 ] final   88.23 input  -57.11 | X-H torsion

> <Gold.Protein.ActiveResidues>
 VAL166  LYS551  ARG553  GLY616  TRP617  ASP618  TYR619  PRO620  LYS621  CYS622 
 ASP623  PHE694  ASN695  SER759  ASP760  ASP761  ALA762  ILE779  LEU786  VAL792 
 PHE793  MET794  SER795  GLU796  ALA797  LYS798  CYS799  TRP800  GLU811  SER814 

> <Gold.Protein.RotatedAtoms>
  150.9725  134.9095  159.7796 H   0  0  0  0  0  0  0  0  0  0  0  0  # atno 6907 bound_to 6896
  152.5195  134.3521  159.9265 H   0  0  0  0  0  0  0  0  0  0  0  0  # atno 6908 bound_to 6896
  151.3530  133.3877  159.2716 H   0  0  0  0  0  0  0  0  0  0  0  0  # atno 6909 bound_to 6896
  146.0591  140.6373  142.9005 H   0  0  0  0  0  0  0  0  0  0  0  0  # atno 7974 bound_to 7965
  154.9487  140.0401  157.2133 H   0  0  0  0  0  0  0  0  0  0  0  0  # atno 8008 bound_to 7997
  154.8000  140.2850  155.5907 H   0  0  0  0  0  0  0  0  0  0  0  0  # atno 8009 bound_to 7997
  156.2960  140.2557  156.2866 H   0  0  0  0  0  0  0  0  0  0  0  0  # atno 8010 bound_to 7997
  140.6687  143.2699  151.4209 H   0  0  0  0  0  0  0  0  0  0  0  0  # atno 10167 bound_to 10162
  156.4130  130.7991  151.2209 H   0  0  0  0  0  0  0  0  0  0  0  0  # atno 10718 bound_to 10713
  153.1093  135.4776  154.9007 H   0  0  0  0  0  0  0  0  0  0  0  0  # atno 10763 bound_to 10752
  154.7464  135.3095  154.8639 H   0  0  0  0  0  0  0  0  0  0  0  0  # atno 10764 bound_to 10752
  153.9233  135.6852  153.4800 H   0  0  0  0  0  0  0  0  0  0  0  0  # atno 10765 bound_to 10752
  139.8901  134.8474  156.2971 H   0  0  0  0  0  0  0  0  0  0  0  0  # atno 11005 bound_to 11000
  144.7165  140.4226  143.7040 LP  0  0  0  0  0  0  0  0  0  0  0  0  # atno 17320 bound_to 7965
  145.6591  139.1578  143.2818 LP  0  0  0  0  0  0  0  0  0  0  0  0  # atno 17321 bound_to 7965
  139.5946  144.1426  152.2128 LP  0  0  0  0  0  0  0  0  0  0  0  0  # atno 17342 bound_to 10162
  140.0791  144.5716  150.7135 LP  0  0  0  0  0  0  0  0  0  0  0  0  # atno 17343 bound_to 10162
  157.7507  131.0252  150.3908 LP  0  0  0  0  0  0  0  0  0  0  0  0  # atno 17370 bound_to 10713
  156.4210  130.3953  149.6825 LP  0  0  0  0  0  0  0  0  0  0  0  0  # atno 17371 bound_to 10713
  140.9938  133.7192  156.0854 LP  0  0  0  0  0  0  0  0  0  0  0  0  # atno 17394 bound_to 11000
  140.7589  134.3961  157.5529 LP  0  0  0  0  0  0  0  0  0  0  0  0  # atno 17395 bound_to 11000

$$$$
