AV-unprocessed.smi:1851|AV-procd|sdf|7524|dock6
  -GOLD-   22720 9233D 1   1.00000     0.00000
 Structure written by MMmdl.
 40 42  0  0  0  0  0  0  0  0  2 V2000
  149.9148  134.8242  156.5207 O   0  0  0  0  0  0  0  0  0  0  0  0
  149.8280  135.4209  155.4488 C   0  0  0  0  0  0  0  0  0  0  0  0
  149.5734  134.8284  154.2736 N   0  0  0  0  0  0  0  0  0  0  0  0
  149.3092  133.4035  154.0960 C   0  0  0  0  0  0  0  0  0  0  0  0
  148.1440  133.0955  153.2028 C   0  0  0  0  0  0  0  0  0  0  0  0
  147.5792  133.9200  152.2729 N   0  3  0  0  0  0  0  0  0  0  0  0
  146.5127  133.2727  151.6481 C   0  0  0  0  0  0  0  0  0  0  0  0
  145.6425  133.7017  150.6507 C   0  0  0  0  0  0  0  0  0  0  0  0
  144.6529  132.7854  150.2376 C   0  0  0  0  0  0  0  0  0  0  0  0
  144.5560  131.5007  150.8113 C   0  0  0  0  0  0  0  0  0  0  0  0
  145.4457  131.0767  151.8205 C   0  0  0  0  0  0  0  0  0  0  0  0
  146.4215  131.9886  152.2214 C   0  0  0  0  0  0  0  0  0  0  0  0
  147.4489  131.9224  153.1683 N   0  0  0  0  0  0  0  0  0  0  0  0
  147.6290  130.6893  153.9446 C   0  0  0  0  0  0  0  0  0  0  0  0
  148.6817  129.7657  153.3201 C   0  0  0  0  0  0  0  0  0  0  0  0
  148.3948  128.4314  153.7121 O   0  0  0  0  0  0  0  0  0  0  0  0
  148.4444  127.4440  152.7519 C   0  0  0  0  0  0  0  0  0  0  0  0
  148.1982  127.8357  151.4196 C   0  0  0  0  0  0  0  0  0  0  0  0
  148.2278  126.8934  150.3736 C   0  0  0  0  0  0  0  0  0  0  0  0
  148.5054  125.5422  150.6520 C   0  0  0  0  0  0  0  0  0  0  0  0
  148.5424  124.3854  149.3725 Cl  0  0  0  0  0  0  0  0  0  0  0  0
  148.7533  125.1373  151.9770 C   0  0  0  0  0  0  0  0  0  0  0  0
  148.7240  126.0804  153.0229 C   0  0  0  0  0  0  0  0  0  0  0  0
  149.9517  136.5076  155.3237 H   0  0  0  0  0  0  0  0  0  0  0  0
  149.5269  135.4092  153.4486 H   0  0  0  0  0  0  0  0  0  0  0  0
  150.1965  132.8996  153.7097 H   0  0  0  0  0  0  0  0  0  0  0  0
  149.1153  132.9755  155.0798 H   0  0  0  0  0  0  0  0  0  0  0  0
  145.7146  134.6855  150.2104 H   0  0  0  0  0  0  0  0  0  0  0  0
  143.9537  133.0737  149.4659 H   0  0  0  0  0  0  0  0  0  0  0  0
  143.7840  130.8261  150.4707 H   0  0  0  0  0  0  0  0  0  0  0  0
  145.3632  130.0911  152.2545 H   0  0  0  0  0  0  0  0  0  0  0  0
  147.8938  130.9530  154.9691 H   0  0  0  0  0  0  0  0  0  0  0  0
  146.6656  130.1813  153.9954 H   0  0  0  0  0  0  0  0  0  0  0  0
  148.6523  129.8546  152.2329 H   0  0  0  0  0  0  0  0  0  0  0  0
  149.6779  130.0525  153.6603 H   0  0  0  0  0  0  0  0  0  0  0  0
  147.9840  128.8707  151.1968 H   0  0  0  0  0  0  0  0  0  0  0  0
  148.0373  127.2099  149.3586 H   0  0  0  0  0  0  0  0  0  0  0  0
  148.9672  124.1010  152.1937 H   0  0  0  0  0  0  0  0  0  0  0  0
  148.9196  125.7311  154.0252 H   0  0  0  0  0  0  0  0  0  0  0  0
  147.9076  134.8575  152.0801 H   0  0  0  0  0  0  0  0  0  0  0  0
  1  2  2  0  0  0  0
  2  3  1  0  0  0  0
  2 24  1  0  0  0  0
  3  4  1  0  0  0  0
  3 25  1  0  0  0  0
  4  5  1  0  0  0  0
  4 26  1  0  0  0  0
  4 27  1  0  0  0  0
  5 13  1  0  0  0  0
  5  6  2  0  0  0  0
  6  7  1  0  0  0  0
  6 40  1  0  0  0  0
  7 12  2  0  0  0  0
  7  8  1  0  0  0  0
  8  9  2  0  0  0  0
  8 28  1  0  0  0  0
  9 10  1  0  0  0  0
  9 29  1  0  0  0  0
 10 11  2  0  0  0  0
 10 30  1  0  0  0  0
 11 12  1  0  0  0  0
 11 31  1  0  0  0  0
 12 13  1  0  0  0  0
 13 14  1  0  0  0  0
 14 15  1  0  0  0  0
 14 32  1  0  0  0  0
 14 33  1  0  0  0  0
 15 16  1  0  0  0  0
 15 34  1  0  0  0  0
 15 35  1  0  0  0  0
 16 17  1  0  0  0  0
 17 23  1  0  0  0  0
 17 18  2  0  0  0  0
 18 19  1  0  0  0  0
 18 36  1  0  0  0  0
 19 20  2  0  0  0  0
 19 37  1  0  0  0  0
 20 21  1  0  0  0  0
 20 22  1  0  0  0  0
 22 23  2  0  0  0  0
 22 38  1  0  0  0  0
 23 39  1  0  0  0  0
M  CHG  1   6   1
M  END
> <s_m_source_file>
AV-unprocessed.smi

> <i_m_source_file_index>
1851

> <i_lp_mmshare_version>
43012

> <i_f3d_flags>
0

> <s_epik_input>
Tz1bQ0hdW05IXVtDSDJdYyhuMSluKGMoYzEyKVtjSF1bY0hdW2NIXVtjSF0yKVtDSDJdW0NIMl1PYzNbY0hdW2NIXWMoQ2wpW2NIXVtjSF0z

> <s_epik_cmdline>
J2VwaWtfcHl0aG9uJywgJy1waCcsICc3LjAnLCAnLXRuJywgJzgnLCAnLW1hJywgJzIwMCcsICctbWV0YWxfYmluZGluZycsICctaW1hZScsICc8aW5maWxlLm1hZT4nLCAnLW9tYWUnLCAnPG91dGZpbGUubWFlPic=

> <r_lp_tautomer_probability>
1

> <r_epik_Ionization_Penalty>
1.32442

> <r_epik_Ionization_Penalty_Charging>
1.32442

> <r_epik_Ionization_Penalty_Neutral>
7.38905e-08

> <r_epik_State_Penalty>
1.4003

> <r_epik_Charging_Adjusted_Penalty>
2.72472

> <i_epik_Tot_Q>
1

> <i_epik_Tot_abs_Q>
1

> <r_epik_Metal_State_Penalty>
1.46133

> <b_epik_Metal_Only>
0

> <s_lp_Force_Field>
OPLS_2005

> <r_lp_Energy>
15.621

> <b_lp_Chiralities_Consistent>
1

> <s_lp_Variant>
AV-unprocessed.smi:1851-2

> <Gold.Version>
5.8.1

> <Gold.Id.Protein>
6NUR|6NUR_protein|mol2

> <Gold.PLP.Fitness>
51.6659

> <Gold.PLP.PLP>
-45.7008

> <Gold.PLP.part.hbond>
-2.0000

> <Gold.PLP.part.metal>
0.0000

> <Gold.PLP.part.buried>
-6.0144

> <Gold.PLP.part.nonpolar>
-37.3722

> <Gold.PLP.part.repulsive>
0.1230

> <Gold.PLP.ligand.clash>
0.0000

> <Gold.PLP.ligand.torsion>
1.5565

> <Gold.PLP.Chemscore.Hbond>
3.0000

> <Gold.PLP.Chemscore.CHOScore>
0.0000

> <Gold.PLP.Chemscore.Metal>
0.0000

> <Gold.Chemscore.Hbonds>
donor molecule, donor type, donor heavy atom, donor atom, acceptor molecule, acceptor atom, score
      L1  H     3    25       P1  7948  0.70
      L1  H     6    40       P1  7948  2.00

> <Gold.PLP.Chemscore.Internal.Correction>
0.0781

> <Gold.Rescore>
     Score         DG    S(hbond)    S(metal)    S(lipo)     H(rot)  DE(clash)    DE(int)     intcor
     16.33     -17.93       1.68        0.00     112.95       2.49       0.09       1.51       ----

> <Gold.Chemscore.Fitness>
16.3286

> <Gold.Chemscore.DG>
-17.9303

> <Gold.Chemscore.ZeroCoef>
-5.4800

> <Gold.Chemscore.Hbond>
1.6759

> <Gold.Chemscore.Metal>
0.0000

> <Gold.Chemscore.Lipo>
112.9515

> <Gold.Chemscore.Internal_Hbond>
0.0000

> <Gold.Chemscore.DEClash>
0.0883

> <Gold.Chemscore.DEInternal>
1.5134

> <Gold.Chemscore.Rot>
2.4854

> <Gold.Chemscore.Internal.Correction>
   9.000000E+99

> <Gold.Chemscore.Hbonds>
donor molecule, donor type, donor heavy atom, donor atom, acceptor molecule, acceptor atom, score
      L1  H     3    25       P1  7948  0.07
      L1  H     6    40       P1  7948  0.55

> <Gold.Chemscore.Hbond.Weighted>
-5.5977

> <Gold.Chemscore.Metal.Weighted>
-0.0000

> <Gold.Chemscore.Lipo.Weighted>
-13.2153

> <Gold.Chemscore.Internal_Hbond.Weighted>
0.0000

> <Gold.Chemscore.DEClash.Weighted>
0.0883

> <Gold.Chemscore.DEInternal.Weighted>
1.5134

> <Gold.Chemscore.Rot.Weighted>
6.3627

> <Gold.Chemscore.Internal.Correction.Weighted>
   9.000000E+99

> <Gold.Protein.RotatedTorsions>
[ 6907 6896 6895 6894 ] final -174.85 input  -60.11 | X-H torsion
[ 7974 7965 7964 7962 ] final  -85.14 input  175.53 | X-H torsion
[ 8008 7997 7996 7995 ] final  -56.00 input   59.86 | X-H torsion
[ 10167 10162 10161 10158 ] final  -43.87 input  -65.29 | X-H torsion
[ 10718 10713 10712 10709 ] final   87.93 input   66.30 | X-H torsion
[ 10763 10752 10751 10750 ] final -115.98 input  -60.55 | X-H torsion
[ 11005 11000 10999 10996 ] final  158.52 input  -57.11 | X-H torsion

> <Gold.Protein.ActiveResidues>
 VAL166  LYS551  ARG553  GLY616  TRP617  ASP618  TYR619  PRO620  LYS621  CYS622 
 ASP623  PHE694  ASN695  SER759  ASP760  ASP761  ALA762  ILE779  LEU786  VAL792 
 PHE793  MET794  SER795  GLU796  ALA797  LYS798  CYS799  TRP800  GLU811  SER814 

> <Gold.Protein.RotatedAtoms>
  151.5790  133.3380  159.3004 H   0  0  0  0  0  0  0  0  0  0  0  0  # atno 6907 bound_to 6896
  150.8324  134.7586  159.6876 H   0  0  0  0  0  0  0  0  0  0  0  0  # atno 6908 bound_to 6896
  152.4405  134.5606  159.9944 H   0  0  0  0  0  0  0  0  0  0  0  0  # atno 6909 bound_to 6896
  145.4973  140.9549  143.1779 H   0  0  0  0  0  0  0  0  0  0  0  0  # atno 7974 bound_to 7965
  154.4214  140.1140  156.5567 H   0  0  0  0  0  0  0  0  0  0  0  0  # atno 8008 bound_to 7997
  155.6354  140.3496  155.4678 H   0  0  0  0  0  0  0  0  0  0  0  0  # atno 8009 bound_to 7997
  155.9914  140.1180  157.0624 H   0  0  0  0  0  0  0  0  0  0  0  0  # atno 8010 bound_to 7997
  140.6918  143.2960  151.3414 H   0  0  0  0  0  0  0  0  0  0  0  0  # atno 10167 bound_to 10162
  157.6945  131.0275  150.3197 H   0  0  0  0  0  0  0  0  0  0  0  0  # atno 10718 bound_to 10713
  154.8502  135.4362  154.1749 H   0  0  0  0  0  0  0  0  0  0  0  0  # atno 10763 bound_to 10752
  153.2854  135.6957  153.7351 H   0  0  0  0  0  0  0  0  0  0  0  0  # atno 10764 bound_to 10752
  153.6539  135.3446  155.3082 H   0  0  0  0  0  0  0  0  0  0  0  0  # atno 10765 bound_to 10752
  140.1873  134.8433  157.2872 H   0  0  0  0  0  0  0  0  0  0  0  0  # atno 11005 bound_to 11000
  144.7800  139.6547  143.7158 LP  0  0  0  0  0  0  0  0  0  0  0  0  # atno 17320 bound_to 7965
  146.2248  139.5701  142.9595 LP  0  0  0  0  0  0  0  0  0  0  0  0  # atno 17321 bound_to 7965
  139.6329  144.0686  152.2491 LP  0  0  0  0  0  0  0  0  0  0  0  0  # atno 17342 bound_to 10162
  140.0167  144.6184  150.7601 LP  0  0  0  0  0  0  0  0  0  0  0  0  # atno 17343 bound_to 10162
  156.3686  130.3859  149.7193 LP  0  0  0  0  0  0  0  0  0  0  0  0  # atno 17370 bound_to 10713
  156.4615  130.7954  151.2974 LP  0  0  0  0  0  0  0  0  0  0  0  0  # atno 17371 bound_to 10713
  140.2199  134.4036  155.7571 LP  0  0  0  0  0  0  0  0  0  0  0  0  # atno 17394 bound_to 11000
  141.2225  133.7161  156.8474 LP  0  0  0  0  0  0  0  0  0  0  0  0  # atno 17395 bound_to 11000

$$$$
