AV-unprocessed.smi:21|AV-procd|sdf|144|dock6
  -GOLD-   2262015353D 1   1.00000     0.00000
 Structure written by MMmdl.
 62 65  0  0  0  0  0  0  0  0  2 V2000
  146.5268  132.9624  151.6249 C   0  0  0  0  0  0  0  0  0  0  0  0
  145.2716  133.4366  152.0869 O   0  0  0  0  0  0  0  0  0  0  0  0
  144.6177  134.3118  151.1769 C   0  0  2  0  0  0  0  0  0  0  0  0
  145.2864  135.6864  151.1291 C   0  0  0  0  0  0  0  0  0  0  0  0
  144.7041  136.4623  152.3248 C   0  0  2  0  0  0  0  0  0  0  0  0
  145.6575  136.5464  153.5359 C   0  0  0  0  0  0  0  0  0  0  0  0
  146.4638  137.7704  153.5540 N   0  0  0  0  0  0  0  0  0  0  0  0
  146.6705  138.4939  152.3050 C   0  0  0  0  0  0  0  0  0  0  0  0
  146.9441  138.2696  154.7315 C   0  0  0  0  0  0  0  0  0  0  0  0
  146.8871  137.4778  155.8374 N   0  0  0  0  0  0  0  0  0  0  0  0
  147.3357  137.9091  157.0184 C   0  0  0  0  0  0  0  0  0  0  0  0
  147.8754  139.0882  157.3226 N   0  0  0  0  0  0  0  0  0  0  0  0
  147.9423  139.8949  156.2265 C   0  0  0  0  0  0  0  0  0  0  0  0
  147.5061  139.5739  154.9067 C   0  0  0  0  0  0  0  0  0  0  0  0
  147.7369  140.6648  154.0725 N   0  0  0  0  0  0  0  0  0  0  0  0
  148.2757  141.5659  154.8466 C   0  0  0  0  0  0  0  0  0  0  0  0
  148.4392  141.1837  156.1566 N   0  0  0  0  0  0  0  0  0  0  0  0
  149.0010  141.9774  157.2349 C   0  0  0  0  0  0  0  0  0  0  0  0
  150.3880  141.4822  157.7242 C   0  0  1  0  0  0  0  0  0  0  0  0
  151.3535  141.1854  156.5480 C   0  0  0  0  0  0  0  0  0  0  0  0
  150.9008  140.1103  155.7513 O   0  0  0  0  0  0  0  0  0  0  0  0
  151.0139  142.5019  158.7110 C   0  0  2  0  0  0  0  0  0  0  0  0
  151.5120  143.7960  158.0651 C   0  0  0  0  0  0  0  0  0  0  0  0
  152.7986  144.1462  158.8187 C   0  0  0  0  0  0  0  0  0  0  0  0
  152.8728  143.2146  159.8856 O   0  0  0  0  0  0  0  0  0  0  0  0
  152.2719  142.0142  159.4349 C   0  0  0  0  0  0  0  0  0  0  0  0
  143.4700  135.7385  152.7155 N   0  3  1  0  0  0  0  0  0  0  0  0
  142.2929  136.6052  152.9377 C   0  0  0  0  0  0  0  0  0  0  0  0
  143.2422  134.6454  151.7477 C   0  0  0  0  0  0  0  0  0  0  0  0
  144.5324  133.8501  150.1917 H   0  0  0  0  0  0  0  0  0  0  0  0
  144.4480  137.4689  151.9907 H   0  0  0  0  0  0  0  0  0  0  0  0
  146.9552  132.2884  152.3665 H   0  0  0  0  0  0  0  0  0  0  0  0
  147.2361  133.7747  151.4668 H   0  0  0  0  0  0  0  0  0  0  0  0
  146.4188  132.4069  150.6926 H   0  0  0  0  0  0  0  0  0  0  0  0
  146.3738  135.6438  151.1165 H   0  0  0  0  0  0  0  0  0  0  0  0
  144.9859  136.1868  150.2076 H   0  0  0  0  0  0  0  0  0  0  0  0
  145.0913  136.4726  154.4650 H   0  0  0  0  0  0  0  0  0  0  0  0
  146.3170  135.6778  153.5394 H   0  0  0  0  0  0  0  0  0  0  0  0
  147.7317  138.6820  152.1396 H   0  0  0  0  0  0  0  0  0  0  0  0
  146.1412  139.4468  152.3190 H   0  0  0  0  0  0  0  0  0  0  0  0
  146.3018  137.9255  151.4508 H   0  0  0  0  0  0  0  0  0  0  0  0
  147.2494  137.2097  157.8367 H   0  0  0  0  0  0  0  0  0  0  0  0
  148.5741  142.5373  154.4798 H   0  0  0  0  0  0  0  0  0  0  0  0
  149.0676  143.0144  156.9032 H   0  0  0  0  0  0  0  0  0  0  0  0
  148.2765  141.9621  158.0489 H   0  0  0  0  0  0  0  0  0  0  0  0
  150.2393  140.5547  158.2797 H   0  0  0  0  0  0  0  0  0  0  0  0
  151.4898  142.0701  155.9253 H   0  0  0  0  0  0  0  0  0  0  0  0
  152.3424  140.9043  156.9080 H   0  0  0  0  0  0  0  0  0  0  0  0
  149.9727  140.2137  155.6059 H   0  0  0  0  0  0  0  0  0  0  0  0
  150.2756  142.7645  159.4708 H   0  0  0  0  0  0  0  0  0  0  0  0
  151.7305  143.6637  157.0044 H   0  0  0  0  0  0  0  0  0  0  0  0
  150.7680  144.5882  158.1535 H   0  0  0  0  0  0  0  0  0  0  0  0
  153.6678  144.0203  158.1715 H   0  0  0  0  0  0  0  0  0  0  0  0
  152.7994  145.1698  159.1942 H   0  0  0  0  0  0  0  0  0  0  0  0
  152.0508  141.3523  160.2725 H   0  0  0  0  0  0  0  0  0  0  0  0
  152.9499  141.4973  158.7532 H   0  0  0  0  0  0  0  0  0  0  0  0
  142.0171  137.1372  152.0262 H   0  0  0  0  0  0  0  0  0  0  0  0
  142.5052  137.3416  153.7134 H   0  0  0  0  0  0  0  0  0  0  0  0
  141.4377  136.0109  153.2609 H   0  0  0  0  0  0  0  0  0  0  0  0
  142.5970  135.0019  150.9428 H   0  0  0  0  0  0  0  0  0  0  0  0
  142.7536  133.7881  152.2120 H   0  0  0  0  0  0  0  0  0  0  0  0
  143.6822  135.2901  153.5953 H   0  0  0  0  0  0  0  0  0  0  0  0
  1  2  1  0  0  0  0
  1 32  1  0  0  0  0
  1 33  1  0  0  0  0
  1 34  1  0  0  0  0
  2  3  1  0  0  0  0
  3 30  1  0  0  0  0
  3 29  1  0  0  0  0
  3  4  1  0  0  0  0
  4  5  1  0  0  0  0
  4 35  1  0  0  0  0
  4 36  1  0  0  0  0
  5 31  1  0  0  0  0
  5  6  1  0  0  0  0
  5 27  1  0  0  0  0
  6  7  1  0  0  0  0
  6 37  1  0  0  0  0
  6 38  1  0  0  0  0
  7  8  1  0  0  0  0
  7  9  1  0  0  0  0
  8 39  1  0  0  0  0
  8 40  1  0  0  0  0
  8 41  1  0  0  0  0
  9 14  1  0  0  0  0
  9 10  2  0  0  0  0
 10 11  1  0  0  0  0
 11 12  2  0  0  0  0
 11 42  1  0  0  0  0
 12 13  1  0  0  0  0
 13 17  1  0  0  0  0
 13 14  2  0  0  0  0
 14 15  1  0  0  0  0
 15 16  2  0  0  0  0
 16 17  1  0  0  0  0
 16 43  1  0  0  0  0
 17 18  1  0  0  0  0
 18 19  1  0  0  0  0
 18 44  1  0  0  0  0
 18 45  1  0  0  0  0
 19 20  1  0  0  0  0
 19 22  1  0  0  0  0
 19 46  1  0  0  0  0
 20 21  1  0  0  0  0
 20 47  1  0  0  0  0
 20 48  1  0  0  0  0
 21 49  1  0  0  0  0
 22 26  1  0  0  0  0
 22 23  1  0  0  0  0
 22 50  1  0  0  0  0
 23 24  1  0  0  0  0
 23 51  1  0  0  0  0
 23 52  1  0  0  0  0
 24 25  1  0  0  0  0
 24 53  1  0  0  0  0
 24 54  1  0  0  0  0
 25 26  1  0  0  0  0
 26 55  1  0  0  0  0
 26 56  1  0  0  0  0
 27 28  1  0  0  0  0
 27 29  1  0  0  0  0
 27 62  1  0  0  0  0
 28 57  1  0  0  0  0
 28 58  1  0  0  0  0
 28 59  1  0  0  0  0
 29 60  1  0  0  0  0
 29 61  1  0  0  0  0
M  CHG  1  27   1
M  END
> <s_m_source_file>
AV-unprocessed.smi

> <i_m_source_file_index>
21

> <i_lp_mmshare_version>
43012

> <i_f3d_flags>
0

> <s_epik_input>
W0NIM11PW0NASF0xW0NIMl1bQ0BIXShOKFtDSDNdKVtDSDJdMSlbQ0gyXU4oW0NIM10pYyhuW2NIXW4yKWMoYzIzKW5bY0hdbjNbQ0gyXVtDQEhdKFtDSDJdW09IXSlbQ0BASF00W0NIMl1bQ0gyXU9bQ0gyXTQ=

> <s_epik_cmdline>
J2VwaWtfcHl0aG9uJywgJy1waCcsICc3LjAnLCAnLXRuJywgJzgnLCAnLW1hJywgJzIwMCcsICctbWV0YWxfYmluZGluZycsICctaW1hZScsICc8aW5maWxlLm1hZT4nLCAnLW9tYWUnLCAnPG91dGZpbGUubWFlPic=

> <r_lp_tautomer_probability>
1

> <r_epik_Ionization_Penalty>
0.0157465

> <r_epik_Ionization_Penalty_Charging>
0.015354

> <r_epik_Ionization_Penalty_Neutral>
0.000392529

> <r_epik_State_Penalty>
0.0120612

> <r_epik_Charging_Adjusted_Penalty>
0.0274152

> <i_epik_Tot_Q>
1

> <i_epik_Tot_abs_Q>
1

> <r_epik_Metal_State_Penalty>
0.0121253

> <b_epik_Metal_Only>
0

> <s_lp_Force_Field>
OPLS_2005

> <r_lp_Energy>
59.4837

> <b_lp_Chiralities_Consistent>
1

> <s_lp_Variant>
AV-unprocessed.smi:21-24

> <Gold.Version>
5.8.1

> <Gold.Id.Protein>
6NUR|6NUR_protein|mol2

> <Gold.PLP.Fitness>
46.4071

> <Gold.PLP.PLP>
-42.1942

> <Gold.PLP.part.hbond>
-1.0000

> <Gold.PLP.part.metal>
0.0000

> <Gold.PLP.part.buried>
-7.4959

> <Gold.PLP.part.nonpolar>
-35.0999

> <Gold.PLP.part.repulsive>
0.2927

> <Gold.PLP.ligand.clash>
0.0000

> <Gold.PLP.ligand.torsion>
1.1468

> <Gold.PLP.Chemscore.Hbond>
0.9760

> <Gold.PLP.Chemscore.CHOScore>
1.0000

> <Gold.PLP.Chemscore.Metal>
0.0000

> <Gold.Chemscore.Hbonds>
donor molecule, donor type, donor heavy atom, donor atom, acceptor molecule, acceptor atom, score
      L1  C    16    43       P1  8028  1.00

> <Gold.PLP.Chemscore.Internal.Correction>
0.5785

> <Gold.Rescore>
     Score         DG    S(hbond)    S(metal)    S(lipo)     H(rot)  DE(clash)    DE(int)     intcor
      8.78     -12.25       0.78        0.00     102.84       3.08       0.07       3.40       ----

> <Gold.Chemscore.Fitness>
8.7767

> <Gold.Chemscore.DG>
-12.2468

> <Gold.Chemscore.ZeroCoef>
-5.4800

> <Gold.Chemscore.Hbond>
0.7810

> <Gold.Chemscore.Metal>
0.0000

> <Gold.Chemscore.Lipo>
102.8414

> <Gold.Chemscore.Internal_Hbond>
0.0000

> <Gold.Chemscore.DEClash>
0.0727

> <Gold.Chemscore.DEInternal>
3.3974

> <Gold.Chemscore.Rot>
3.0758

> <Gold.Chemscore.Internal.Correction>
   9.000000E+99

> <Gold.Chemscore.Hbond.Weighted>
-2.6085

> <Gold.Chemscore.Metal.Weighted>
-0.0000

> <Gold.Chemscore.Lipo.Weighted>
-12.0324

> <Gold.Chemscore.Internal_Hbond.Weighted>
0.0000

> <Gold.Chemscore.DEClash.Weighted>
0.0727

> <Gold.Chemscore.DEInternal.Weighted>
3.3974

> <Gold.Chemscore.Rot.Weighted>
7.8741

> <Gold.Chemscore.Internal.Correction.Weighted>
   9.000000E+99

> <Gold.Protein.RotatedTorsions>
[ 6907 6896 6895 6894 ] final  -90.60 input  -60.11 | X-H torsion
[ 7974 7965 7964 7962 ] final  153.18 input  175.53 | X-H torsion
[ 8008 7997 7996 7995 ] final -148.60 input   59.86 | X-H torsion
[ 10167 10162 10161 10158 ] final -118.59 input  -65.29 | X-H torsion
[ 10718 10713 10712 10709 ] final   64.44 input   66.30 | X-H torsion
[ 10763 10752 10751 10750 ] final -178.33 input  -60.55 | X-H torsion
[ 11005 11000 10999 10996 ] final  169.97 input  -57.11 | X-H torsion

> <Gold.Protein.ActiveResidues>
 VAL166  LYS551  ARG553  GLY616  TRP617  ASP618  TYR619  PRO620  LYS621  CYS622 
 ASP623  PHE694  ASN695  SER759  ASP760  ASP761  ALA762  ILE779  LEU786  VAL792 
 PHE793  MET794  SER795  GLU796  ALA797  LYS798  CYS799  TRP800  GLU811  SER814 

> <Gold.Protein.RotatedAtoms>
  150.6883  134.2406  159.4470 H   0  0  0  0  0  0  0  0  0  0  0  0  # atno 6907 bound_to 6896
  152.0351  134.9742  160.0582 H   0  0  0  0  0  0  0  0  0  0  0  0  # atno 6908 bound_to 6896
  152.1266  133.4349  159.4738 H   0  0  0  0  0  0  0  0  0  0  0  0  # atno 6909 bound_to 6896
  144.8172  139.6766  143.6116 H   0  0  0  0  0  0  0  0  0  0  0  0  # atno 7974 bound_to 7965
  155.5943  140.0655  157.2750 H   0  0  0  0  0  0  0  0  0  0  0  0  # atno 8008 bound_to 7997
  154.4296  140.1830  156.1153 H   0  0  0  0  0  0  0  0  0  0  0  0  # atno 8009 bound_to 7997
  156.0209  140.3317  155.7041 H   0  0  0  0  0  0  0  0  0  0  0  0  # atno 8010 bound_to 7997
  140.0559  143.5015  152.2057 H   0  0  0  0  0  0  0  0  0  0  0  0  # atno 10167 bound_to 10162
  157.6039  130.9160  149.9845 H   0  0  0  0  0  0  0  0  0  0  0  0  # atno 10718 bound_to 10713
  154.5491  135.2811  155.1025 H   0  0  0  0  0  0  0  0  0  0  0  0  # atno 10763 bound_to 10752
  154.2478  135.6345  153.5233 H   0  0  0  0  0  0  0  0  0  0  0  0  # atno 10764 bound_to 10752
  152.9998  135.5575  154.6051 H   0  0  0  0  0  0  0  0  0  0  0  0  # atno 10765 bound_to 10752
  140.3034  134.7576  157.3934 H   0  0  0  0  0  0  0  0  0  0  0  0  # atno 11005 bound_to 11000
  146.2476  139.6130  142.9449 LP  0  0  0  0  0  0  0  0  0  0  0  0  # atno 17320 bound_to 7965
  145.5188  141.0433  143.2447 LP  0  0  0  0  0  0  0  0  0  0  0  0  # atno 17321 bound_to 7965
  139.5924  144.7555  151.3368 LP  0  0  0  0  0  0  0  0  0  0  0  0  # atno 17342 bound_to 10162
  140.7195  143.7175  150.7721 LP  0  0  0  0  0  0  0  0  0  0  0  0  # atno 17343 bound_to 10162
  156.1120  130.3649  150.0033 LP  0  0  0  0  0  0  0  0  0  0  0  0  # atno 17370 bound_to 10713
  156.8129  130.9331  151.3643 LP  0  0  0  0  0  0  0  0  0  0  0  0  # atno 17371 bound_to 10713
  140.1089  134.5372  155.8284 LP  0  0  0  0  0  0  0  0  0  0  0  0  # atno 17394 bound_to 11000
  141.2123  133.6718  156.6651 LP  0  0  0  0  0  0  0  0  0  0  0  0  # atno 17395 bound_to 11000

$$$$
