AV-unprocessed.smi:2020|AV-procd|sdf|8173|dock1
  -GOLD-   2272010423D 1   1.00000     0.00000
 Structure written by MMmdl.
 40 41  0  0  0  0  0  0  0  0  1 V2000
  153.3786  137.9917  157.2727 C   0  0  0  0  0  0  0  0  0  0  0  0
  152.2943  137.4311  156.4176 C   0  0  0  0  0  0  0  0  0  0  0  0
  151.5361  136.3905  156.7725 N   0  0  0  0  0  0  0  0  0  0  0  0
  150.5894  136.0572  155.7985 C   0  0  0  0  0  0  0  0  0  0  0  0
  149.6453  134.9171  156.0300 C   0  0  0  0  0  0  0  0  0  0  0  0
  149.7418  133.8526  154.9244 C   0  0  0  0  0  0  0  0  0  0  0  0
  148.8493  134.1466  153.8087 N   0  0  0  0  0  0  0  0  0  0  0  0
  147.6707  133.5461  153.5913 C   0  0  0  0  0  0  0  0  0  0  0  0
  147.1978  132.6754  154.3222 O   0  0  0  0  0  0  0  0  0  0  0  0
  147.0750  134.0092  152.4830 N   0  0  0  0  0  0  0  0  0  0  0  0
  145.7867  133.5658  151.9565 C   0  0  2  0  0  0  0  0  0  0  0  0
  145.8850  132.0918  151.5189 C   0  0  0  0  0  0  0  0  0  0  0  0
  144.5737  131.6058  150.8807 C   0  0  0  0  0  0  0  0  0  0  0  0
  144.1655  132.5053  149.7013 C   0  0  1  0  0  0  0  0  0  0  0  0
  142.9254  132.0713  149.1842 O   0  0  0  0  0  0  0  0  0  0  0  0
  144.0542  133.9761  150.1390 C   0  0  0  0  0  0  0  0  0  0  0  0
  145.3643  134.4649  150.7784 C   0  0  0  0  0  0  0  0  0  0  0  0
  150.6412  136.8693  154.6933 C   0  0  0  0  0  0  0  0  0  0  0  0
  151.8851  138.0809  154.8347 S   0  0  0  0  0  0  0  0  0  0  0  0
  153.4908  137.4057  158.1857 H   0  0  0  0  0  0  0  0  0  0  0  0
  153.1432  139.0208  157.5447 H   0  0  0  0  0  0  0  0  0  0  0  0
  154.3242  137.9785  156.7311 H   0  0  0  0  0  0  0  0  0  0  0  0
  149.8528  134.4620  156.9993 H   0  0  0  0  0  0  0  0  0  0  0  0
  148.6214  135.2889  156.0887 H   0  0  0  0  0  0  0  0  0  0  0  0
  150.7611  133.8080  154.5393 H   0  0  0  0  0  0  0  0  0  0  0  0
  149.5191  132.8631  155.3275 H   0  0  0  0  0  0  0  0  0  0  0  0
  149.1564  134.8493  153.1522 H   0  0  0  0  0  0  0  0  0  0  0  0
  147.5531  134.7259  151.9566 H   0  0  0  0  0  0  0  0  0  0  0  0
  145.0179  133.6361  152.7285 H   0  0  0  0  0  0  0  0  0  0  0  0
  146.6996  131.9706  150.8033 H   0  0  0  0  0  0  0  0  0  0  0  0
  146.1306  131.4637  152.3760 H   0  0  0  0  0  0  0  0  0  0  0  0
  144.6875  130.5744  150.5449 H   0  0  0  0  0  0  0  0  0  0  0  0
  143.7855  131.6012  151.6351 H   0  0  0  0  0  0  0  0  0  0  0  0
  144.9084  132.4195  148.9072 H   0  0  0  0  0  0  0  0  0  0  0  0
  142.2895  132.7588  149.3113 H   0  0  0  0  0  0  0  0  0  0  0  0
  143.8047  134.6046  149.2833 H   0  0  0  0  0  0  0  0  0  0  0  0
  143.2392  134.0900  150.8552 H   0  0  0  0  0  0  0  0  0  0  0  0
  145.2448  135.4943  151.1183 H   0  0  0  0  0  0  0  0  0  0  0  0
  146.1504  134.4787  150.0218 H   0  0  0  0  0  0  0  0  0  0  0  0
  150.0231  136.8290  153.8085 H   0  0  0  0  0  0  0  0  0  0  0  0
  1  2  1  0  0  0  0
  1 20  1  0  0  0  0
  1 21  1  0  0  0  0
  1 22  1  0  0  0  0
  2 19  1  0  0  0  0
  2  3  2  0  0  0  0
  3  4  1  0  0  0  0
  4  5  1  0  0  0  0
  4 18  2  0  0  0  0
  5  6  1  0  0  0  0
  5 23  1  0  0  0  0
  5 24  1  0  0  0  0
  6  7  1  0  0  0  0
  6 25  1  0  0  0  0
  6 26  1  0  0  0  0
  7  8  1  0  0  0  0
  7 27  1  0  0  0  0
  8  9  2  0  0  0  0
  8 10  1  0  0  0  0
 10 11  1  0  0  0  0
 10 28  1  0  0  0  0
 11 17  1  0  0  0  0
 11 12  1  0  0  0  0
 11 29  1  0  0  0  0
 12 13  1  0  0  0  0
 12 30  1  0  0  0  0
 12 31  1  0  0  0  0
 13 14  1  0  0  0  0
 13 32  1  0  0  0  0
 13 33  1  0  0  0  0
 14 15  1  0  0  0  0
 14 16  1  0  0  0  0
 14 34  1  0  0  0  0
 15 35  1  0  0  0  0
 16 17  1  0  0  0  0
 16 36  1  0  0  0  0
 16 37  1  0  0  0  0
 17 38  1  0  0  0  0
 17 39  1  0  0  0  0
 18 19  1  0  0  0  0
 18 40  1  0  0  0  0
M  END
> <s_m_source_file>
AV-unprocessed.smi

> <i_m_source_file_index>
2020

> <i_lp_mmshare_version>
43012

> <i_f3d_flags>
0

> <s_epik_input>
W0NIM11jMW5jKFtjSF1zMSlbQ0gyXVtDSDJdW05IXUMoPU8pW05IXVtDQEBIXTJbQ0gyXVtDSDJdW0NAQEhdKFtPSF0pW0NIMl1bQ0gyXTI=

> <s_epik_cmdline>
J2VwaWtfcHl0aG9uJywgJy1waCcsICc3LjAnLCAnLXRuJywgJzgnLCAnLW1hJywgJzIwMCcsICctbWV0YWxfYmluZGluZycsICctaW1hZScsICc8aW5maWxlLm1hZT4nLCAnLW9tYWUnLCAnPG91dGZpbGUubWFlPic=

> <r_epik_Ionization_Penalty>
0.00202099

> <r_epik_Ionization_Penalty_Charging>
0

> <r_epik_Ionization_Penalty_Neutral>
0.00202099

> <r_epik_State_Penalty>
0.00133629

> <r_epik_Charging_Adjusted_Penalty>
0.00133629

> <i_epik_Tot_Q>
0

> <i_epik_Tot_abs_Q>
0

> <r_epik_Metal_State_Penalty>
-0

> <b_epik_Metal_Only>
0

> <s_lp_Force_Field>
OPLS_2005

> <r_lp_Energy>
0.764429

> <b_lp_Chiralities_Consistent>
1

> <s_lp_Variant>
AV-unprocessed.smi:2020-1

> <Gold.Version>
5.8.1

> <Gold.Id.Protein>
6NUR|6NUR_protein|mol2

> <Gold.PLP.Fitness>
46.9696

> <Gold.PLP.PLP>
-34.0445

> <Gold.PLP.part.hbond>
-5.0000

> <Gold.PLP.part.metal>
0.0000

> <Gold.PLP.part.buried>
-5.2659

> <Gold.PLP.part.nonpolar>
-25.1571

> <Gold.PLP.part.repulsive>
0.0547

> <Gold.PLP.ligand.clash>
0.0000

> <Gold.PLP.ligand.torsion>
0.3402

> <Gold.PLP.Chemscore.Hbond>
3.5175

> <Gold.PLP.Chemscore.CHOScore>
1.0154

> <Gold.PLP.Chemscore.Metal>
0.0000

> <Gold.Chemscore.Hbonds>
donor molecule, donor type, donor heavy atom, donor atom, acceptor molecule, acceptor atom, score
      L1  H     7    27       P1  7948  0.60
      L1  H    10    28       P1  7948  1.00
      L1  H    15    35       P1 10186  0.81
      P1  H 10785 10796       L1    15  1.00
      L1  C    18    40       P1  7948  1.00
      L1  C    18    40       P1  7949  0.01

> <Gold.PLP.Chemscore.Internal.Correction>
0.0070

> <Gold.Rescore>
     Score         DG    S(hbond)    S(metal)    S(lipo)     H(rot)  DE(clash)    DE(int)     intcor
     18.77     -19.23       2.97        0.00      78.76       2.10       0.20       0.26       ----

> <Gold.Chemscore.Fitness>
18.7671

> <Gold.Chemscore.DG>
-19.2335

> <Gold.Chemscore.ZeroCoef>
-5.4800

> <Gold.Chemscore.Hbond>
2.9682

> <Gold.Chemscore.Metal>
0.0000

> <Gold.Chemscore.Lipo>
78.7613

> <Gold.Chemscore.Internal_Hbond>
0.0000

> <Gold.Chemscore.DEClash>
0.2047

> <Gold.Chemscore.DEInternal>
0.2617

> <Gold.Chemscore.Rot>
2.0997

> <Gold.Chemscore.Internal.Correction>
   9.000000E+99

> <Gold.Chemscore.Hbonds>
donor molecule, donor type, donor heavy atom, donor atom, acceptor molecule, acceptor atom, score
      L1  H     7    27       P1  7948  0.04
      L1  H    10    28       P1  7948  0.59
      L1  H    15    35       P1 10186  0.80
      P1  H 10785 10796       L1    15  0.48

> <Gold.Chemscore.Hbond.Weighted>
-9.9137

> <Gold.Chemscore.Metal.Weighted>
-0.0000

> <Gold.Chemscore.Lipo.Weighted>
-9.2151

> <Gold.Chemscore.Internal_Hbond.Weighted>
0.0000

> <Gold.Chemscore.DEClash.Weighted>
0.2047

> <Gold.Chemscore.DEInternal.Weighted>
0.2617

> <Gold.Chemscore.Rot.Weighted>
5.3752

> <Gold.Chemscore.Internal.Correction.Weighted>
   9.000000E+99

> <Gold.Protein.RotatedTorsions>
[ 6907 6896 6895 6894 ] final   24.78 input  -60.11 | X-H torsion
[ 7974 7965 7964 7962 ] final -106.97 input  175.53 | X-H torsion
[ 8008 7997 7996 7995 ] final   28.42 input   59.86 | X-H torsion
[ 10167 10162 10161 10158 ] final   14.62 input  -65.29 | X-H torsion
[ 10718 10713 10712 10709 ] final -141.03 input   66.30 | X-H torsion
[ 10763 10752 10751 10750 ] final   49.56 input  -60.55 | X-H torsion
[ 11005 11000 10999 10996 ] final   50.88 input  -57.11 | X-H torsion

> <Gold.Protein.ActiveResidues>
 VAL166  LYS551  ARG553  GLY616  TRP617  ASP618  TYR619  PRO620  LYS621  CYS622 
 ASP623  PHE694  ASN695  SER759  ASP760  ASP761  ALA762  ILE779  LEU786  VAL792 
 PHE793  MET794  SER795  GLU796  ALA797  LYS798  CYS799  TRP800  GLU811  SER814 

> <Gold.Protein.RotatedAtoms>
  151.9627  135.0116  160.0548 H   0  0  0  0  0  0  0  0  0  0  0  0  # atno 6907 bound_to 6896
  152.1854  133.4731  159.4988 H   0  0  0  0  0  0  0  0  0  0  0  0  # atno 6908 bound_to 6896
  150.6925  134.1697  159.4250 H   0  0  0  0  0  0  0  0  0  0  0  0  # atno 6909 bound_to 6896
  145.2112  140.9097  143.3313 H   0  0  0  0  0  0  0  0  0  0  0  0  # atno 7974 bound_to 7965
  155.0584  140.3187  155.4668 H   0  0  0  0  0  0  0  0  0  0  0  0  # atno 8008 bound_to 7997
  156.2818  140.2133  156.5655 H   0  0  0  0  0  0  0  0  0  0  0  0  # atno 8009 bound_to 7997
  154.7152  140.0494  157.0575 H   0  0  0  0  0  0  0  0  0  0  0  0  # atno 8010 bound_to 7997
  140.5923  143.8770  150.6885 H   0  0  0  0  0  0  0  0  0  0  0  0  # atno 10167 bound_to 10162
  156.3292  130.7577  151.1691 H   0  0  0  0  0  0  0  0  0  0  0  0  # atno 10718 bound_to 10713
  152.9786  135.5908  154.4109 H   0  0  0  0  0  0  0  0  0  0  0  0  # atno 10763 bound_to 10752
  154.3744  135.2767  155.2250 H   0  0  0  0  0  0  0  0  0  0  0  0  # atno 10764 bound_to 10752
  154.4191  135.6063  153.6053 H   0  0  0  0  0  0  0  0  0  0  0  0  # atno 10765 bound_to 10752
  140.0980  134.5120  155.8789 H   0  0  0  0  0  0  0  0  0  0  0  0  # atno 11005 bound_to 11000
  144.9854  139.3741  143.6241 LP  0  0  0  0  0  0  0  0  0  0  0  0  # atno 17320 bound_to 7965
  146.3397  139.9014  142.8794 LP  0  0  0  0  0  0  0  0  0  0  0  0  # atno 17321 bound_to 7965
  140.2296  143.3746  152.1576 LP  0  0  0  0  0  0  0  0  0  0  0  0  # atno 17342 bound_to 10162
  139.5236  144.7073  151.5315 LP  0  0  0  0  0  0  0  0  0  0  0  0  # atno 17343 bound_to 10162
  157.7427  131.0486  150.5003 LP  0  0  0  0  0  0  0  0  0  0  0  0  # atno 17370 bound_to 10713
  156.5166  130.4152  149.6272 LP  0  0  0  0  0  0  0  0  0  0  0  0  # atno 17371 bound_to 10713
  141.2097  133.6687  156.6460 LP  0  0  0  0  0  0  0  0  0  0  0  0  # atno 17394 bound_to 11000
  140.3260  134.7968  157.4289 LP  0  0  0  0  0  0  0  0  0  0  0  0  # atno 17395 bound_to 11000

$$$$
