AV-unprocessed.smi:914|AV-procd|sdf|4150|dock1
  -GOLD-   22720 2 53D 1   1.00000     0.00000
 Structure written by MMmdl.
 33 34  0  0  0  0  0  0  0  0  1 V2000
  146.9327  139.3457  152.4321 O   0  0  0  0  0  0  0  0  0  0  0  0
  147.8384  139.7178  153.1757 C   0  0  0  0  0  0  0  0  0  0  0  0
  148.9238  138.8728  153.4273 N   0  0  0  0  0  0  0  0  0  0  0  0
  150.0132  139.1716  154.2464 C   0  0  0  0  0  0  0  0  0  0  0  0
  150.9091  138.3420  154.4038 O   0  0  0  0  0  0  0  0  0  0  0  0
  150.0148  140.4429  154.8646 N   0  0  0  0  0  0  0  0  0  0  0  0
  151.1075  140.7641  155.7502 C   0  0  0  0  0  0  0  0  0  0  0  0
  150.6480  141.0047  157.1971 C   0  0  0  0  0  0  0  0  0  0  0  0
  151.7657  140.8668  158.0584 O   0  0  0  0  0  0  0  0  0  0  0  0
  151.6128  141.5635  159.2821 C   0  0  0  0  0  0  0  0  0  0  0  0
  151.3677  143.0443  158.9702 C   0  0  2  0  0  0  0  0  0  0  0  0
  152.6462  143.8420  158.7282 C   0  0  0  0  0  0  0  0  0  0  0  0
  152.1776  145.2532  159.0028 C   0  0  0  0  0  0  0  0  0  0  0  0
  151.1951  145.0520  160.1556 C   0  0  0  0  0  0  0  0  0  0  0  0
  150.7682  143.6931  160.0870 O   0  0  0  0  0  0  0  0  0  0  0  0
  148.9542  141.3099  154.6513 C   0  0  0  0  0  0  0  0  0  0  0  0
  147.8984  141.0109  153.8565 C   0  0  0  0  0  0  0  0  0  0  0  0
  146.6125  142.1444  153.6430 Cl  0  0  0  0  0  0  0  0  0  0  0  0
  148.9158  137.9667  152.9823 H   0  0  0  0  0  0  0  0  0  0  0  0
  151.8422  139.9599  155.6748 H   0  0  0  0  0  0  0  0  0  0  0  0
  151.5865  141.6546  155.3401 H   0  0  0  0  0  0  0  0  0  0  0  0
  150.2044  141.9963  157.2989 H   0  0  0  0  0  0  0  0  0  0  0  0
  149.8825  140.2775  157.4710 H   0  0  0  0  0  0  0  0  0  0  0  0
  150.7848  141.1552  159.8639 H   0  0  0  0  0  0  0  0  0  0  0  0
  152.5214  141.4515  159.8756 H   0  0  0  0  0  0  0  0  0  0  0  0
  150.7085  143.1497  158.1069 H   0  0  0  0  0  0  0  0  0  0  0  0
  153.4181  143.5588  159.4454 H   0  0  0  0  0  0  0  0  0  0  0  0
  153.0462  143.7119  157.7222 H   0  0  0  0  0  0  0  0  0  0  0  0
  152.9914  145.9350  159.2506 H   0  0  0  0  0  0  0  0  0  0  0  0
  151.6554  145.6482  158.1303 H   0  0  0  0  0  0  0  0  0  0  0  0
  151.6862  145.2129  161.1157 H   0  0  0  0  0  0  0  0  0  0  0  0
  150.3468  145.7337  160.0905 H   0  0  0  0  0  0  0  0  0  0  0  0
  148.9631  142.2708  155.1463 H   0  0  0  0  0  0  0  0  0  0  0  0
  1  2  2  0  0  0  0
  2 17  1  0  0  0  0
  2  3  1  0  0  0  0
  3 19  1  0  0  0  0
  3  4  1  0  0  0  0
  4  5  2  0  0  0  0
  4  6  1  0  0  0  0
  6  7  1  0  0  0  0
  6 16  1  0  0  0  0
  7  8  1  0  0  0  0
  7 20  1  0  0  0  0
  7 21  1  0  0  0  0
  8  9  1  0  0  0  0
  8 22  1  0  0  0  0
  8 23  1  0  0  0  0
  9 10  1  0  0  0  0
 10 11  1  0  0  0  0
 10 24  1  0  0  0  0
 10 25  1  0  0  0  0
 11 15  1  0  0  0  0
 11 12  1  0  0  0  0
 11 26  1  0  0  0  0
 12 13  1  0  0  0  0
 12 27  1  0  0  0  0
 12 28  1  0  0  0  0
 13 14  1  0  0  0  0
 13 29  1  0  0  0  0
 13 30  1  0  0  0  0
 14 15  1  0  0  0  0
 14 31  1  0  0  0  0
 14 32  1  0  0  0  0
 16 17  2  0  0  0  0
 16 33  1  0  0  0  0
 17 18  1  0  0  0  0
M  END
> <s_m_source_file>
AV-unprocessed.smi

> <i_m_source_file_index>
914

> <i_lp_mmshare_version>
43012

> <i_f3d_flags>
0

> <s_epik_input>
Tz1jMVtuSF1jKD1PKW4oW2NIXWMxQ2wpW0NIMl1bQ0gyXU9bQ0gyXVtDQEBIXTJbQ0gyXVtDSDJdW0NIMl1PMg==

> <s_epik_cmdline>
J2VwaWtfcHl0aG9uJywgJy1waCcsICc3LjAnLCAnLXRuJywgJzgnLCAnLW1hJywgJzIwMCcsICctbWV0YWxfYmluZGluZycsICctaW1hZScsICc8aW5maWxlLm1hZT4nLCAnLW9tYWUnLCAnPG91dGZpbGUubWFlPic=

> <r_lp_tautomer_probability>
0.999537

> <r_epik_Ionization_Penalty>
0.030751

> <r_epik_Ionization_Penalty_Charging>
0.030751

> <r_epik_Ionization_Penalty_Neutral>
1.46719e-11

> <r_epik_State_Penalty>
0.0253757

> <r_epik_Charging_Adjusted_Penalty>
0.0561266

> <i_epik_Tot_Q>
0

> <i_epik_Tot_abs_Q>
0

> <r_epik_Metal_State_Penalty>
2.25222

> <b_epik_Metal_Only>
0

> <s_lp_Force_Field>
OPLS_2005

> <r_lp_Energy>
20.707

> <b_lp_Chiralities_Consistent>
1

> <s_lp_Variant>
AV-unprocessed.smi:914-1

> <Gold.Version>
5.8.1

> <Gold.Id.Protein>
6NUR|6NUR_protein|mol2

> <Gold.PLP.Fitness>
45.7511

> <Gold.PLP.PLP>
-40.5741

> <Gold.PLP.part.hbond>
-2.4059

> <Gold.PLP.part.metal>
0.0000

> <Gold.PLP.part.buried>
-2.9307

> <Gold.PLP.part.nonpolar>
-35.4918

> <Gold.PLP.part.repulsive>
0.6386

> <Gold.PLP.ligand.clash>
0.0000

> <Gold.PLP.ligand.torsion>
0.4399

> <Gold.PLP.Chemscore.Hbond>
0.9913

> <Gold.PLP.Chemscore.CHOScore>
0.9998

> <Gold.PLP.Chemscore.Metal>
0.0000

> <Gold.Chemscore.Hbonds>
donor molecule, donor type, donor heavy atom, donor atom, acceptor molecule, acceptor atom, score
      L1  H     3    19       P1  7948  0.98
      L1  C    16    33       P1  8028  1.00

> <Gold.PLP.Chemscore.Internal.Correction>
0.0835

> <Gold.Rescore>
     Score         DG    S(hbond)    S(metal)    S(lipo)     H(rot)  DE(clash)    DE(int)     intcor
     13.12     -13.63       0.98        0.00      88.45       2.14       0.12       0.39       ----

> <Gold.Chemscore.Fitness>
13.1225

> <Gold.Chemscore.DG>
-13.6349

> <Gold.Chemscore.ZeroCoef>
-5.4800

> <Gold.Chemscore.Hbond>
0.9817

> <Gold.Chemscore.Metal>
0.0000

> <Gold.Chemscore.Lipo>
88.4539

> <Gold.Chemscore.Internal_Hbond>
0.0000

> <Gold.Chemscore.DEClash>
0.1205

> <Gold.Chemscore.DEInternal>
0.3919

> <Gold.Chemscore.Rot>
2.1379

> <Gold.Chemscore.Internal.Correction>
   9.000000E+99

> <Gold.Chemscore.Hbonds>
donor molecule, donor type, donor heavy atom, donor atom, acceptor molecule, acceptor atom, score
      L1  H     3    19       P1  7948  0.92

> <Gold.Chemscore.Hbond.Weighted>
-3.2788

> <Gold.Chemscore.Metal.Weighted>
-0.0000

> <Gold.Chemscore.Lipo.Weighted>
-10.3491

> <Gold.Chemscore.Internal_Hbond.Weighted>
0.0000

> <Gold.Chemscore.DEClash.Weighted>
0.1205

> <Gold.Chemscore.DEInternal.Weighted>
0.3919

> <Gold.Chemscore.Rot.Weighted>
5.4730

> <Gold.Chemscore.Internal.Correction.Weighted>
   9.000000E+99

> <Gold.Protein.RotatedTorsions>
[ 6907 6896 6895 6894 ] final   17.99 input  -60.11 | X-H torsion
[ 7974 7965 7964 7962 ] final   78.22 input  175.53 | X-H torsion
[ 8008 7997 7996 7995 ] final -166.56 input   59.86 | X-H torsion
[ 10167 10162 10161 10158 ] final  147.69 input  -65.29 | X-H torsion
[ 10718 10713 10712 10709 ] final  100.60 input   66.30 | X-H torsion
[ 10763 10752 10751 10750 ] final -107.85 input  -60.55 | X-H torsion
[ 11005 11000 10999 10996 ] final  155.10 input  -57.11 | X-H torsion

> <Gold.Protein.ActiveResidues>
 VAL166  LYS551  ARG553  GLY616  TRP617  ASP618  TYR619  PRO620  LYS621  CYS622 
 ASP623  PHE694  ASN695  SER759  ASP760  ASP761  ALA762  ILE779  LEU786  VAL792 
 PHE793  MET794  SER795  GLU796  ALA797  LYS798  CYS799  TRP800  GLU811  SER814 

> <Gold.Protein.RotatedAtoms>
  151.8583  135.0533  160.0466 H   0  0  0  0  0  0  0  0  0  0  0  0  # atno 6907 bound_to 6896
  152.2683  133.5355  159.5432 H   0  0  0  0  0  0  0  0  0  0  0  0  # atno 6908 bound_to 6896
  150.7142  134.0650  159.3886 H   0  0  0  0  0  0  0  0  0  0  0  0  # atno 6909 bound_to 6896
  145.6800  139.2521  143.1820 H   0  0  0  0  0  0  0  0  0  0  0  0  # atno 7974 bound_to 7965
  155.8655  140.0985  157.1585 H   0  0  0  0  0  0  0  0  0  0  0  0  # atno 8008 bound_to 7997
  154.3993  140.1357  156.4076 H   0  0  0  0  0  0  0  0  0  0  0  0  # atno 8009 bound_to 7997
  155.7809  140.3458  155.5299 H   0  0  0  0  0  0  0  0  0  0  0  0  # atno 8010 bound_to 7997
  139.4886  144.5736  151.7007 H   0  0  0  0  0  0  0  0  0  0  0  0  # atno 10167 bound_to 10162
  157.6850  131.0703  150.5125 H   0  0  0  0  0  0  0  0  0  0  0  0  # atno 10718 bound_to 10713
  154.8100  135.4659  154.0492 H   0  0  0  0  0  0  0  0  0  0  0  0  # atno 10763 bound_to 10752
  153.1930  135.6858  153.8334 H   0  0  0  0  0  0  0  0  0  0  0  0  # atno 10764 bound_to 10752
  153.7846  135.3252  155.3347 H   0  0  0  0  0  0  0  0  0  0  0  0  # atno 10765 bound_to 10752
  140.1550  134.8649  157.2503 H   0  0  0  0  0  0  0  0  0  0  0  0  # atno 11005 bound_to 11000
  146.0973  140.7586  142.9566 LP  0  0  0  0  0  0  0  0  0  0  0  0  # atno 17320 bound_to 7965
  144.7029  140.3731  143.7141 LP  0  0  0  0  0  0  0  0  0  0  0  0  # atno 17321 bound_to 7965
  140.5328  144.0703  150.6060 LP  0  0  0  0  0  0  0  0  0  0  0  0  # atno 17342 bound_to 10162
  140.3699  143.2860  152.0290 LP  0  0  0  0  0  0  0  0  0  0  0  0  # atno 17343 bound_to 10162
  156.5441  130.4215  149.6139 LP  0  0  0  0  0  0  0  0  0  0  0  0  # atno 17370 bound_to 10713
  156.2959  130.7150  151.2010 LP  0  0  0  0  0  0  0  0  0  0  0  0  # atno 17371 bound_to 10713
  140.2558  134.3629  155.7425 LP  0  0  0  0  0  0  0  0  0  0  0  0  # atno 17394 bound_to 11000
  141.2203  133.7342  156.9005 LP  0  0  0  0  0  0  0  0  0  0  0  0  # atno 17395 bound_to 11000

$$$$
