AV-unprocessed.smi:3211|AV-procd|sdf|12276|dock2
  -GOLD-   2272018113D 1   1.00000     0.00000
 Structure written by MMmdl.
 34 35  0  0  0  0  0  0  0  0  1 V2000
  152.9029  142.4002  161.9415 C   0  0  0  0  0  0  0  0  0  0  0  0
  152.0423  143.6247  161.6118 C   0  0  0  0  0  0  0  0  0  0  0  0
  151.7387  143.7375  160.1553 C   0  0  0  0  0  0  0  0  0  0  0  0
  151.3029  142.7168  159.4117 N   0  0  0  0  0  0  0  0  0  0  0  0
  151.0659  143.0811  158.0824 C   0  0  0  0  0  0  0  0  0  0  0  0
  150.5912  142.0565  157.0972 C   0  0  0  0  0  0  0  0  0  0  0  0
  151.4069  140.7559  157.1772 C   0  0  0  0  0  0  0  0  0  0  0  0
  150.9560  139.7766  156.1948 N   0  0  0  0  0  0  0  0  0  0  0  0
  151.6384  139.4156  155.0973 C   0  0  0  0  0  0  0  0  0  0  0  0
  152.7371  139.8926  154.8103 O   0  0  0  0  0  0  0  0  0  0  0  0
  150.9440  138.3784  154.2698 C   0  0  2  0  0  0  0  0  0  0  0  0
  149.5426  137.9681  154.6778 C   0  0  0  0  0  0  0  0  0  0  0  0
  150.6811  136.9894  154.8383 C   0  0  2  0  0  0  0  0  0  0  0  0
  151.1191  136.5286  156.2176 C   0  0  0  0  0  0  0  0  0  0  0  0
  151.3149  144.4077  157.8326 C   0  0  0  0  0  0  0  0  0  0  0  0
  151.8570  145.2475  159.2592 S   0  0  0  0  0  0  0  0  0  0  0  0
  153.1105  142.3475  163.0105 H   0  0  0  0  0  0  0  0  0  0  0  0
  153.8586  142.4390  161.4179 H   0  0  0  0  0  0  0  0  0  0  0  0
  152.3998  141.4767  161.6531 H   0  0  0  0  0  0  0  0  0  0  0  0
  151.1016  143.5770  162.1613 H   0  0  0  0  0  0  0  0  0  0  0  0
  152.5482  144.5340  161.9384 H   0  0  0  0  0  0  0  0  0  0  0  0
  149.5370  141.8358  157.2699 H   0  0  0  0  0  0  0  0  0  0  0  0
  150.6487  142.4640  156.0870 H   0  0  0  0  0  0  0  0  0  0  0  0
  152.4696  140.9634  157.0402 H   0  0  0  0  0  0  0  0  0  0  0  0
  151.3041  140.3125  158.1681 H   0  0  0  0  0  0  0  0  0  0  0  0
  150.0625  139.3379  156.3646 H   0  0  0  0  0  0  0  0  0  0  0  0
  151.1507  138.4142  153.2010 H   0  0  0  0  0  0  0  0  0  0  0  0
  149.1157  138.3999  155.5815 H   0  0  0  0  0  0  0  0  0  0  0  0
  148.8278  137.7901  153.8770 H   0  0  0  0  0  0  0  0  0  0  0  0
  150.7422  136.1918  154.1003 H   0  0  0  0  0  0  0  0  0  0  0  0
  150.8484  137.2495  156.9881 H   0  0  0  0  0  0  0  0  0  0  0  0
  152.1987  136.3791  156.2378 H   0  0  0  0  0  0  0  0  0  0  0  0
  150.6347  135.5832  156.4615 H   0  0  0  0  0  0  0  0  0  0  0  0
  151.2116  144.9400  156.8986 H   0  0  0  0  0  0  0  0  0  0  0  0
  1  2  1  0  0  0  0
  1 17  1  0  0  0  0
  1 18  1  0  0  0  0
  1 19  1  0  0  0  0
  2  3  1  0  0  0  0
  2 20  1  0  0  0  0
  2 21  1  0  0  0  0
  3 16  1  0  0  0  0
  3  4  2  0  0  0  0
  4  5  1  0  0  0  0
  5  6  1  0  0  0  0
  5 15  2  0  0  0  0
  6  7  1  0  0  0  0
  6 22  1  0  0  0  0
  6 23  1  0  0  0  0
  7  8  1  0  0  0  0
  7 24  1  0  0  0  0
  7 25  1  0  0  0  0
  8  9  1  0  0  0  0
  8 26  1  0  0  0  0
  9 10  2  0  0  0  0
  9 11  1  0  0  0  0
 11 13  1  0  0  0  0
 11 12  1  0  0  0  0
 11 27  1  0  0  0  0
 12 13  1  0  0  0  0
 12 28  1  0  0  0  0
 12 29  1  0  0  0  0
 13 14  1  0  0  0  0
 13 30  1  0  0  0  0
 14 31  1  0  0  0  0
 14 32  1  0  0  0  0
 14 33  1  0  0  0  0
 15 16  1  0  0  0  0
 15 34  1  0  0  0  0
M  END
> <s_m_source_file>
AV-unprocessed.smi

> <i_m_source_file_index>
3211

> <i_lp_mmshare_version>
43012

> <i_f3d_flags>
0

> <s_epik_input>
W0NIM11bQ0gyXWMxbmMoW2NIXXMxKVtDSDJdW0NIMl1bTkhdQyg9TylbQ0BASF0yW0NIMl1bQ0BIXTJbQ0gzXQ==

> <s_epik_cmdline>
J2VwaWtfcHl0aG9uJywgJy1waCcsICc3LjAnLCAnLXRuJywgJzgnLCAnLW1hJywgJzIwMCcsICctbWV0YWxfYmluZGluZycsICctaW1hZScsICc8aW5maWxlLm1hZT4nLCAnLW9tYWUnLCAnPG91dGZpbGUubWFlPic=

> <r_epik_Ionization_Penalty>
0.00109667

> <r_epik_Ionization_Penalty_Charging>
0

> <r_epik_Ionization_Penalty_Neutral>
0.00109667

> <r_epik_State_Penalty>
0.000719322

> <r_epik_Charging_Adjusted_Penalty>
0.000719322

> <i_epik_Tot_Q>
0

> <i_epik_Tot_abs_Q>
0

> <r_epik_Metal_State_Penalty>
-0

> <b_epik_Metal_Only>
0

> <s_lp_Force_Field>
OPLS_2005

> <r_lp_Energy>
-0.716075

> <b_lp_Chiralities_Consistent>
1

> <s_lp_Variant>
AV-unprocessed.smi:3211-3

> <Gold.Version>
5.8.1

> <Gold.Id.Protein>
6NUR|6NUR_protein|mol2

> <Gold.PLP.Fitness>
45.0321

> <Gold.PLP.PLP>
-40.1909

> <Gold.PLP.part.hbond>
-2.0000

> <Gold.PLP.part.metal>
0.0000

> <Gold.PLP.part.buried>
-4.0085

> <Gold.PLP.part.nonpolar>
-34.7621

> <Gold.PLP.part.repulsive>
0.1202

> <Gold.PLP.ligand.clash>
0.0000

> <Gold.PLP.ligand.torsion>
0.4154

> <Gold.PLP.Chemscore.Hbond>
1.1120

> <Gold.PLP.Chemscore.CHOScore>
0.7368

> <Gold.PLP.Chemscore.Metal>
0.0000

> <Gold.Chemscore.Hbonds>
donor molecule, donor type, donor heavy atom, donor atom, acceptor molecule, acceptor atom, score
      P1  H  7989  7998       L1    10  0.07
      P1  H  7997  8009       L1    10  0.96
      L1  C    15    34       P1  8028  0.62

> <Gold.PLP.Chemscore.Internal.Correction>
0.1257

> <Gold.Rescore>
     Score         DG    S(hbond)    S(metal)    S(lipo)     H(rot)  DE(clash)    DE(int)     intcor
     17.54     -18.10       1.00        0.00     112.35       1.51       0.03       0.53       ----

> <Gold.Chemscore.Fitness>
17.5370

> <Gold.Chemscore.DG>
-18.1007

> <Gold.Chemscore.ZeroCoef>
-5.4800

> <Gold.Chemscore.Hbond>
1.0000

> <Gold.Chemscore.Metal>
0.0000

> <Gold.Chemscore.Lipo>
112.3525

> <Gold.Chemscore.Internal_Hbond>
0.0000

> <Gold.Chemscore.DEClash>
0.0291

> <Gold.Chemscore.DEInternal>
0.5346

> <Gold.Chemscore.Rot>
1.5096

> <Gold.Chemscore.Internal.Correction>
   9.000000E+99

> <Gold.Chemscore.Hbonds>
donor molecule, donor type, donor heavy atom, donor atom, acceptor molecule, acceptor atom, score
      P1  H  7997  8009       L1    10  0.91

> <Gold.Chemscore.Hbond.Weighted>
-3.3400

> <Gold.Chemscore.Metal.Weighted>
-0.0000

> <Gold.Chemscore.Lipo.Weighted>
-13.1452

> <Gold.Chemscore.Internal_Hbond.Weighted>
0.0000

> <Gold.Chemscore.DEClash.Weighted>
0.0291

> <Gold.Chemscore.DEInternal.Weighted>
0.5346

> <Gold.Chemscore.Rot.Weighted>
3.8646

> <Gold.Chemscore.Internal.Correction.Weighted>
   9.000000E+99

> <Gold.Protein.RotatedTorsions>
[ 6907 6896 6895 6894 ] final   27.71 input  -60.11 | X-H torsion
[ 7974 7965 7964 7962 ] final -129.49 input  175.53 | X-H torsion
[ 8008 7997 7996 7995 ] final -132.85 input   59.86 | X-H torsion
[ 10167 10162 10161 10158 ] final -103.59 input  -65.29 | X-H torsion
[ 10718 10713 10712 10709 ] final    4.66 input   66.30 | X-H torsion
[ 10763 10752 10751 10750 ] final  162.57 input  -60.55 | X-H torsion
[ 11005 11000 10999 10996 ] final  142.52 input  -57.11 | X-H torsion

> <Gold.Protein.ActiveResidues>
 VAL166  LYS551  ARG553  GLY616  TRP617  ASP618  TYR619  PRO620  LYS621  CYS622 
 ASP623  PHE694  ASN695  SER759  ASP760  ASP761  ALA762  ILE779  LEU786  VAL792 
 PHE793  MET794  SER795  GLU796  ALA797  LYS798  CYS799  TRP800  GLU811  SER814 

> <Gold.Protein.RotatedAtoms>
  152.0063  134.9901  160.0566 H   0  0  0  0  0  0  0  0  0  0  0  0  # atno 6907 bound_to 6896
  152.1471  133.4494  159.4803 H   0  0  0  0  0  0  0  0  0  0  0  0  # atno 6908 bound_to 6896
  150.6871  134.2152  159.4418 H   0  0  0  0  0  0  0  0  0  0  0  0  # atno 6909 bound_to 6896
  144.9567  140.7403  143.4754 H   0  0  0  0  0  0  0  0  0  0  0  0  # atno 7974 bound_to 7965
  155.3358  140.0469  157.3044 H   0  0  0  0  0  0  0  0  0  0  0  0  # atno 8008 bound_to 7997
  154.5303  140.2255  155.8781 H   0  0  0  0  0  0  0  0  0  0  0  0  # atno 8009 bound_to 7997
  156.1782  140.3080  155.9105 H   0  0  0  0  0  0  0  0  0  0  0  0  # atno 8010 bound_to 7997
  140.2184  143.3694  152.0991 H   0  0  0  0  0  0  0  0  0  0  0  0  # atno 10167 bound_to 10162
  156.8959  130.5704  149.5649 H   0  0  0  0  0  0  0  0  0  0  0  0  # atno 10718 bound_to 10713
  154.2804  135.2763  155.2699 H   0  0  0  0  0  0  0  0  0  0  0  0  # atno 10763 bound_to 10752
  154.5223  135.5753  153.6694 H   0  0  0  0  0  0  0  0  0  0  0  0  # atno 10764 bound_to 10752
  152.9930  135.6207  154.2963 H   0  0  0  0  0  0  0  0  0  0  0  0  # atno 10765 bound_to 10752
  140.0483  134.9269  157.0971 H   0  0  0  0  0  0  0  0  0  0  0  0  # atno 11005 bound_to 11000
  145.2762  139.1935  143.4815 LP  0  0  0  0  0  0  0  0  0  0  0  0  # atno 17320 bound_to 7965
  146.3339  140.2716  142.8606 LP  0  0  0  0  0  0  0  0  0  0  0  0  # atno 17321 bound_to 7965
  139.5153  144.6961  151.5625 LP  0  0  0  0  0  0  0  0  0  0  0  0  # atno 17342 bound_to 10162
  140.6273  143.9144  150.6575 LP  0  0  0  0  0  0  0  0  0  0  0  0  # atno 17343 bound_to 10162
  156.0606  130.5659  150.9184 LP  0  0  0  0  0  0  0  0  0  0  0  0  # atno 17370 bound_to 10713
  157.6055  131.0939  150.8886 LP  0  0  0  0  0  0  0  0  0  0  0  0  # atno 17371 bound_to 10713
  140.3958  134.2136  155.7164 LP  0  0  0  0  0  0  0  0  0  0  0  0  # atno 17394 bound_to 11000
  141.1918  133.8187  157.0865 LP  0  0  0  0  0  0  0  0  0  0  0  0  # atno 17395 bound_to 11000

$$$$
