AV-unprocessed.smi:858|AV-procd|sdf|3962|dock7
  -GOLD-   22720 1433D 1   1.00000     0.00000
 Structure written by MMmdl.
 44 45  0  0  0  0  0  0  0  0  1 V2000
  150.5434  131.3288  156.1017 C   0  0  0  0  0  0  0  0  0  0  0  0
  150.2469  132.8196  156.2886 C   0  0  0  0  0  0  0  0  0  0  0  0
  150.6106  133.3562  157.3359 O   0  0  0  0  0  0  0  0  0  0  0  0
  149.5992  133.4972  155.3093 N   0  0  0  0  0  0  0  0  0  0  0  0
  149.1755  132.7952  154.0943 C   0  0  0  0  0  0  0  0  0  0  0  0
  149.2787  134.9326  155.3776 C   0  0  0  0  0  0  0  0  0  0  0  0
  150.5149  135.8398  155.3040 C   0  0  0  0  0  0  0  0  0  0  0  0
  151.3902  135.7877  156.1691 O   0  0  0  0  0  0  0  0  0  0  0  0
  150.5614  136.6831  154.2614 N   0  0  0  0  0  0  0  0  0  0  0  0
  151.6220  137.6520  154.0111 C   0  0  0  0  0  0  0  0  0  0  0  0
  151.6997  138.7149  155.0913 C   0  0  0  0  0  0  0  0  0  0  0  0
  150.6911  139.6886  155.2232 C   0  0  0  0  0  0  0  0  0  0  0  0
  150.7976  140.6452  156.2507 C   0  0  0  0  0  0  0  0  0  0  0  0
  151.9112  140.6002  157.1233 C   0  0  0  0  0  0  0  0  0  0  0  0
  152.0338  141.5461  158.1633 N   0  0  0  0  0  0  0  0  0  0  0  0
  152.0297  140.9987  159.5174 C   0  0  0  0  0  0  0  0  0  0  0  0
  152.4748  142.0694  160.5287 C   0  0  0  0  0  0  0  0  0  0  0  0
  151.6588  143.2287  160.3964 O   0  0  0  0  0  0  0  0  0  0  0  0
  151.7672  143.8078  159.1002 C   0  0  0  0  0  0  0  0  0  0  0  0
  151.2910  142.7989  158.0416 C   0  0  0  0  0  0  0  0  0  0  0  0
  152.8762  139.6558  156.9952 N   0  0  0  0  0  0  0  0  0  0  0  0
  152.7714  138.7438  156.0058 C   0  0  0  0  0  0  0  0  0  0  0  0
  149.6197  130.7512  156.0676 H   0  0  0  0  0  0  0  0  0  0  0  0
  151.1394  130.9506  156.9332 H   0  0  0  0  0  0  0  0  0  0  0  0
  151.1060  131.1512  155.1852 H   0  0  0  0  0  0  0  0  0  0  0  0
  150.0401  132.5483  153.4767 H   0  0  0  0  0  0  0  0  0  0  0  0
  148.4936  133.3955  153.4907 H   0  0  0  0  0  0  0  0  0  0  0  0
  148.6513  131.8689  154.3361 H   0  0  0  0  0  0  0  0  0  0  0  0
  148.5715  135.2125  154.5960 H   0  0  0  0  0  0  0  0  0  0  0  0
  148.7598  135.1484  156.3125 H   0  0  0  0  0  0  0  0  0  0  0  0
  149.7992  136.6612  153.5993 H   0  0  0  0  0  0  0  0  0  0  0  0
  152.5880  137.1532  153.9128 H   0  0  0  0  0  0  0  0  0  0  0  0
  151.4289  138.1307  153.0506 H   0  0  0  0  0  0  0  0  0  0  0  0
  149.8447  139.7014  154.5522 H   0  0  0  0  0  0  0  0  0  0  0  0
  150.0212  141.3863  156.3687 H   0  0  0  0  0  0  0  0  0  0  0  0
  151.0209  140.6587  159.7551 H   0  0  0  0  0  0  0  0  0  0  0  0
  152.6845  140.1328  159.6048 H   0  0  0  0  0  0  0  0  0  0  0  0
  152.3831  141.6862  161.5451 H   0  0  0  0  0  0  0  0  0  0  0  0
  153.5238  142.3312  160.3810 H   0  0  0  0  0  0  0  0  0  0  0  0
  151.1559  144.7095  159.0612 H   0  0  0  0  0  0  0  0  0  0  0  0
  152.7977  144.1130  158.9109 H   0  0  0  0  0  0  0  0  0  0  0  0
  151.4302  143.2247  157.0472 H   0  0  0  0  0  0  0  0  0  0  0  0
  150.2254  142.6015  158.1670 H   0  0  0  0  0  0  0  0  0  0  0  0
  153.5641  138.0125  155.9476 H   0  0  0  0  0  0  0  0  0  0  0  0
  1  2  1  0  0  0  0
  1 23  1  0  0  0  0
  1 24  1  0  0  0  0
  1 25  1  0  0  0  0
  2  3  2  0  0  0  0
  2  4  1  0  0  0  0
  4  5  1  0  0  0  0
  4  6  1  0  0  0  0
  5 26  1  0  0  0  0
  5 27  1  0  0  0  0
  5 28  1  0  0  0  0
  6  7  1  0  0  0  0
  6 29  1  0  0  0  0
  6 30  1  0  0  0  0
  7  8  2  0  0  0  0
  7  9  1  0  0  0  0
  9 10  1  0  0  0  0
  9 31  1  0  0  0  0
 10 11  1  0  0  0  0
 10 32  1  0  0  0  0
 10 33  1  0  0  0  0
 11 22  1  0  0  0  0
 11 12  2  0  0  0  0
 12 13  1  0  0  0  0
 12 34  1  0  0  0  0
 13 14  2  0  0  0  0
 13 35  1  0  0  0  0
 14 15  1  0  0  0  0
 14 21  1  0  0  0  0
 15 20  1  0  0  0  0
 15 16  1  0  0  0  0
 16 17  1  0  0  0  0
 16 36  1  0  0  0  0
 16 37  1  0  0  0  0
 17 18  1  0  0  0  0
 17 38  1  0  0  0  0
 17 39  1  0  0  0  0
 18 19  1  0  0  0  0
 19 20  1  0  0  0  0
 19 40  1  0  0  0  0
 19 41  1  0  0  0  0
 20 42  1  0  0  0  0
 20 43  1  0  0  0  0
 21 22  2  0  0  0  0
 22 44  1  0  0  0  0
M  END
> <s_m_source_file>
AV-unprocessed.smi

> <i_m_source_file_index>
858

> <i_lp_mmshare_version>
43012

> <i_f3d_flags>
0

> <s_epik_input>
W0NIM11DKD1PKU4oW0NIM10pW0NIMl1DKD1PKVtOSF1bQ0gyXWMxW2NIXVtjSF1jKG5bY0hdMSlOMltDSDJdW0NIMl1PW0NIMl1bQ0gyXTI=

> <s_epik_cmdline>
J2VwaWtfcHl0aG9uJywgJy1waCcsICc3LjAnLCAnLXRuJywgJzgnLCAnLW1hJywgJzIwMCcsICctbWV0YWxfYmluZGluZycsICctaW1hZScsICc8aW5maWxlLm1hZT4nLCAnLW9tYWUnLCAnPG91dGZpbGUubWFlPic=

> <r_lp_tautomer_probability>
1

> <r_epik_Ionization_Penalty>
0.00462928

> <r_epik_Ionization_Penalty_Charging>
0

> <r_epik_Ionization_Penalty_Neutral>
0.00462928

> <r_epik_State_Penalty>
0.00334737

> <r_epik_Charging_Adjusted_Penalty>
0.00334737

> <i_epik_Tot_Q>
0

> <i_epik_Tot_abs_Q>
0

> <r_epik_Metal_State_Penalty>
-0

> <b_epik_Metal_Only>
0

> <s_lp_Force_Field>
OPLS_2005

> <r_lp_Energy>
20.1823

> <b_lp_Chiralities_Consistent>
1

> <s_lp_Variant>
AV-unprocessed.smi:858-1

> <Gold.Version>
5.8.1

> <Gold.Id.Protein>
6NUR|6NUR_protein|mol2

> <Gold.PLP.Fitness>
52.1319

> <Gold.PLP.PLP>
-41.4228

> <Gold.PLP.part.hbond>
-4.9766

> <Gold.PLP.part.metal>
0.0000

> <Gold.PLP.part.buried>
-1.0702

> <Gold.PLP.part.nonpolar>
-35.0657

> <Gold.PLP.part.repulsive>
0.1527

> <Gold.PLP.ligand.clash>
0.0000

> <Gold.PLP.ligand.torsion>
0.4812

> <Gold.PLP.Chemscore.Hbond>
3.7673

> <Gold.PLP.Chemscore.CHOScore>
0.0000

> <Gold.PLP.Chemscore.Metal>
0.0000

> <Gold.Chemscore.Hbonds>
donor molecule, donor type, donor heavy atom, donor atom, acceptor molecule, acceptor atom, score
      L1  H     9    31       P1  7948  1.00
      P1  H  6896  6907       L1     3  0.93
      P1  H  7997  8008       L1    21  0.80
      P1  H 10752 10764       L1     8  0.86

> <Gold.PLP.Chemscore.Internal.Correction>
0.3697

> <Gold.Rescore>
     Score         DG    S(hbond)    S(metal)    S(lipo)     H(rot)  DE(clash)    DE(int)     intcor
     18.59     -21.26       3.11        0.00      89.79       2.00       0.81       1.86       ----

> <Gold.Chemscore.Fitness>
18.5863

> <Gold.Chemscore.DG>
-21.2603

> <Gold.Chemscore.ZeroCoef>
-5.4800

> <Gold.Chemscore.Hbond>
3.1087

> <Gold.Chemscore.Metal>
0.0000

> <Gold.Chemscore.Lipo>
89.7943

> <Gold.Chemscore.Internal_Hbond>
0.0000

> <Gold.Chemscore.DEClash>
0.8127

> <Gold.Chemscore.DEInternal>
1.8613

> <Gold.Chemscore.Rot>
1.9956

> <Gold.Chemscore.Internal.Correction>
   9.000000E+99

> <Gold.Chemscore.Hbonds>
donor molecule, donor type, donor heavy atom, donor atom, acceptor molecule, acceptor atom, score
      L1  H     9    31       P1  7948  0.38
      P1  H  6896  6907       L1     3  0.89
      P1  H  7997  8008       L1    21  0.11
      P1  H 10752 10764       L1     8  0.25

> <Gold.Chemscore.Hbond.Weighted>
-10.3830

> <Gold.Chemscore.Metal.Weighted>
-0.0000

> <Gold.Chemscore.Lipo.Weighted>
-10.5059

> <Gold.Chemscore.Internal_Hbond.Weighted>
0.0000

> <Gold.Chemscore.DEClash.Weighted>
0.8127

> <Gold.Chemscore.DEInternal.Weighted>
1.8613

> <Gold.Chemscore.Rot.Weighted>
5.1087

> <Gold.Chemscore.Internal.Correction.Weighted>
   9.000000E+99

> <Gold.Protein.RotatedTorsions>
[ 6907 6896 6895 6894 ] final -142.83 input  -60.11 | X-H torsion
[ 7974 7965 7964 7962 ] final  164.66 input  175.53 | X-H torsion
[ 8008 7997 7996 7995 ] final  -62.84 input   59.86 | X-H torsion
[ 10167 10162 10161 10158 ] final   -4.71 input  -65.29 | X-H torsion
[ 10718 10713 10712 10709 ] final -124.18 input   66.30 | X-H torsion
[ 10763 10752 10751 10750 ] final  -34.51 input  -60.55 | X-H torsion
[ 11005 11000 10999 10996 ] final   20.89 input  -57.11 | X-H torsion

> <Gold.Protein.ActiveResidues>
 VAL166  LYS551  ARG553  GLY616  TRP617  ASP618  TYR619  PRO620  LYS621  CYS622 
 ASP623  PHE694  ASN695  SER759  ASP760  ASP761  ALA762  ILE779  LEU786  VAL792 
 PHE793  MET794  SER795  GLU796  ALA797  LYS798  CYS799  TRP800  GLU811  SER814 

> <Gold.Protein.RotatedAtoms>
  151.0923  133.5306  159.2614 H   0  0  0  0  0  0  0  0  0  0  0  0  # atno 6907 bound_to 6896
  151.2169  135.0502  159.8944 H   0  0  0  0  0  0  0  0  0  0  0  0  # atno 6908 bound_to 6896
  152.5435  134.0731  159.8256 H   0  0  0  0  0  0  0  0  0  0  0  0  # atno 6909 bound_to 6896
  144.7536  139.8357  143.6358 H   0  0  0  0  0  0  0  0  0  0  0  0  # atno 7974 bound_to 7965
  154.4521  140.0987  156.6649 H   0  0  0  0  0  0  0  0  0  0  0  0  # atno 8008 bound_to 7997
  155.5252  140.3480  155.4396 H   0  0  0  0  0  0  0  0  0  0  0  0  # atno 8009 bound_to 7997
  156.0703  140.1347  156.9826 H   0  0  0  0  0  0  0  0  0  0  0  0  # atno 8010 bound_to 7997
  140.6937  143.6392  150.8451 H   0  0  0  0  0  0  0  0  0  0  0  0  # atno 10167 bound_to 10162
  156.1565  130.6572  150.9989 H   0  0  0  0  0  0  0  0  0  0  0  0  # atno 10718 bound_to 10713
  153.8479  135.6851  153.4795 H   0  0  0  0  0  0  0  0  0  0  0  0  # atno 10763 bound_to 10752
  153.1415  135.4655  154.9500 H   0  0  0  0  0  0  0  0  0  0  0  0  # atno 10764 bound_to 10752
  154.7816  135.3270  154.7926 H   0  0  0  0  0  0  0  0  0  0  0  0  # atno 10765 bound_to 10752
  140.3977  134.1752  155.7663 H   0  0  0  0  0  0  0  0  0  0  0  0  # atno 11005 bound_to 11000
  146.1517  139.4603  143.0044 LP  0  0  0  0  0  0  0  0  0  0  0  0  # atno 17320 bound_to 7965
  145.6858  141.0178  143.1582 LP  0  0  0  0  0  0  0  0  0  0  0  0  # atno 17321 bound_to 7965
  140.0108  143.5645  152.2840 LP  0  0  0  0  0  0  0  0  0  0  0  0  # atno 17342 bound_to 10162
  139.6368  144.7651  151.2422 LP  0  0  0  0  0  0  0  0  0  0  0  0  # atno 17343 bound_to 10162
  157.6699  131.0863  150.7637 LP  0  0  0  0  0  0  0  0  0  0  0  0  # atno 17370 bound_to 10713
  156.7702  130.4826  149.5420 LP  0  0  0  0  0  0  0  0  0  0  0  0  # atno 17371 bound_to 10713
  141.1868  133.8294  157.1055 LP  0  0  0  0  0  0  0  0  0  0  0  0  # atno 17394 bound_to 11000
  140.0360  134.9878  157.0871 LP  0  0  0  0  0  0  0  0  0  0  0  0  # atno 17395 bound_to 11000

$$$$
