AV-unprocessed.smi:203|AV-procd|sdf|1595|dock4
  -GOLD-   2262019493D 1   1.00000     0.00000
 Structure written by MMmdl.
 57 61  0  0  0  0  0  0  0  0  1 V2000
  149.0616  129.4777  159.9718 O   0  0  0  0  0  0  0  0  0  0  0  0
  148.1806  130.2435  160.3553 C   0  0  0  0  0  0  0  0  0  0  0  0
  147.6830  131.4254  159.5408 C   0  0  0  0  0  0  0  0  0  0  0  0
  146.7875  132.1974  160.5297 C   0  0  2  0  0  0  0  0  0  0  0  0
  147.3723  133.5773  160.9712 C   0  0  2  0  0  0  0  0  0  0  0  0
  146.8016  134.0642  162.3295 C   0  0  0  0  0  0  0  0  0  0  0  0
  147.3880  135.4211  162.7407 C   0  0  0  0  0  0  0  0  0  0  0  0
  147.1491  136.4493  161.6304 C   0  0  0  0  0  0  0  0  0  0  0  0
  147.7335  135.9460  160.3041 C   0  0  0  0  0  0  0  0  0  0  0  0
  147.2016  134.6295  159.9524 N   0  0  0  0  0  0  0  0  0  0  0  0
  147.5567  134.3037  158.6894 C   0  0  0  0  0  0  0  0  0  0  0  0
  148.8818  134.2821  158.4045 N   0  0  0  0  0  0  0  0  0  0  0  0
  149.2934  133.9802  157.1692 C   0  0  0  0  0  0  0  0  0  0  0  0
  148.5608  133.6731  156.0961 N   0  0  0  0  0  0  0  0  0  0  0  0
  147.2278  133.6858  156.3846 C   0  0  0  0  0  0  0  0  0  0  0  0
  146.6419  133.9862  157.6460 C   0  0  0  0  0  0  0  0  0  0  0  0
  145.2576  133.8986  157.5599 N   0  0  0  0  0  0  0  0  0  0  0  0
  145.0370  133.5696  156.3164 C   0  0  0  0  0  0  0  0  0  0  0  0
  146.1638  133.4247  155.5396 N   0  0  0  0  0  0  0  0  0  0  0  0
  146.2042  133.0701  154.1316 C   0  0  0  0  0  0  0  0  0  0  0  0
  145.6705  134.2003  153.2252 C   0  0  1  0  0  0  0  0  0  0  0  0
  146.6505  135.2196  153.1707 O   0  0  0  0  0  0  0  0  0  0  0  0
  145.3899  133.7388  151.7810 C   0  0  1  0  0  0  0  0  0  0  0  0
  146.4397  132.7939  151.1923 C   0  0  0  0  0  0  0  0  0  0  0  0
  145.6784  132.0377  150.1163 C   0  0  0  0  0  0  0  0  0  0  0  0
  144.2099  132.2422  150.4953 C   0  0  0  0  0  0  0  0  0  0  0  0
  144.2396  132.9060  151.7515 O   0  0  0  0  0  0  0  0  0  0  0  0
  146.5497  131.2150  161.6989 C   0  0  0  0  0  0  0  0  0  0  0  0
  147.5312  130.1640  161.5145 N   0  0  0  0  0  0  0  0  0  0  0  0
  148.5059  132.0199  159.1440 H   0  0  0  0  0  0  0  0  0  0  0  0
  147.1027  131.0512  158.6968 H   0  0  0  0  0  0  0  0  0  0  0  0
  145.8369  132.3620  160.0214 H   0  0  0  0  0  0  0  0  0  0  0  0
  148.4455  133.4434  161.1107 H   0  0  0  0  0  0  0  0  0  0  0  0
  145.7168  134.1548  162.2741 H   0  0  0  0  0  0  0  0  0  0  0  0
  147.0067  133.3416  163.1187 H   0  0  0  0  0  0  0  0  0  0  0  0
  146.9351  135.7608  163.6726 H   0  0  0  0  0  0  0  0  0  0  0  0
  148.4576  135.3206  162.9295 H   0  0  0  0  0  0  0  0  0  0  0  0
  146.0791  136.6287  161.5170 H   0  0  0  0  0  0  0  0  0  0  0  0
  147.5996  137.4052  161.8990 H   0  0  0  0  0  0  0  0  0  0  0  0
  147.5068  136.6627  159.5132 H   0  0  0  0  0  0  0  0  0  0  0  0
  148.8203  135.8899  160.3799 H   0  0  0  0  0  0  0  0  0  0  0  0
  150.3628  133.9872  157.0184 H   0  0  0  0  0  0  0  0  0  0  0  0
  144.0394  133.4257  155.9275 H   0  0  0  0  0  0  0  0  0  0  0  0
  147.2291  132.8139  153.8604 H   0  0  0  0  0  0  0  0  0  0  0  0
  145.6137  132.1626  154.0045 H   0  0  0  0  0  0  0  0  0  0  0  0
  144.7592  134.6110  153.6620 H   0  0  0  0  0  0  0  0  0  0  0  0
  147.4141  134.8787  152.7306 H   0  0  0  0  0  0  0  0  0  0  0  0
  145.2486  134.5927  151.1149 H   0  0  0  0  0  0  0  0  0  0  0  0
  147.3111  133.3192  150.8004 H   0  0  0  0  0  0  0  0  0  0  0  0
  146.7825  132.0922  151.9542 H   0  0  0  0  0  0  0  0  0  0  0  0
  145.8770  132.4520  149.1271 H   0  0  0  0  0  0  0  0  0  0  0  0
  145.9562  130.9832  150.1021 H   0  0  0  0  0  0  0  0  0  0  0  0
  143.7092  132.8775  149.7635 H   0  0  0  0  0  0  0  0  0  0  0  0
  143.6612  131.3027  150.5647 H   0  0  0  0  0  0  0  0  0  0  0  0
  146.6522  131.6781  162.6804 H   0  0  0  0  0  0  0  0  0  0  0  0
  145.5512  130.7803  161.6428 H   0  0  0  0  0  0  0  0  0  0  0  0
  147.7023  129.4529  162.2106 H   0  0  0  0  0  0  0  0  0  0  0  0
  1  2  2  0  0  0  0
  2 29  1  0  0  0  0
  2  3  1  0  0  0  0
  3  4  1  0  0  0  0
  3 30  1  0  0  0  0
  3 31  1  0  0  0  0
  4  5  1  0  0  0  0
  4 28  1  0  0  0  0
  4 32  1  0  0  0  0
  5 10  1  0  0  0  0
  5  6  1  0  0  0  0
  5 33  1  0  0  0  0
  6  7  1  0  0  0  0
  6 34  1  0  0  0  0
  6 35  1  0  0  0  0
  7  8  1  0  0  0  0
  7 36  1  0  0  0  0
  7 37  1  0  0  0  0
  8  9  1  0  0  0  0
  8 38  1  0  0  0  0
  8 39  1  0  0  0  0
  9 10  1  0  0  0  0
  9 40  1  0  0  0  0
  9 41  1  0  0  0  0
 10 11  1  0  0  0  0
 11 16  1  0  0  0  0
 11 12  2  0  0  0  0
 12 13  1  0  0  0  0
 13 14  2  0  0  0  0
 13 42  1  0  0  0  0
 14 15  1  0  0  0  0
 15 19  1  0  0  0  0
 15 16  2  0  0  0  0
 16 17  1  0  0  0  0
 17 18  2  0  0  0  0
 18 19  1  0  0  0  0
 18 43  1  0  0  0  0
 19 20  1  0  0  0  0
 20 21  1  0  0  0  0
 20 44  1  0  0  0  0
 20 45  1  0  0  0  0
 21 22  1  0  0  0  0
 21 23  1  0  0  0  0
 21 46  1  0  0  0  0
 22 47  1  0  0  0  0
 23 27  1  0  0  0  0
 23 24  1  0  0  0  0
 23 48  1  0  0  0  0
 24 25  1  0  0  0  0
 24 49  1  0  0  0  0
 24 50  1  0  0  0  0
 25 26  1  0  0  0  0
 25 51  1  0  0  0  0
 25 52  1  0  0  0  0
 26 27  1  0  0  0  0
 26 53  1  0  0  0  0
 26 54  1  0  0  0  0
 28 29  1  0  0  0  0
 28 55  1  0  0  0  0
 28 56  1  0  0  0  0
 29 57  1  0  0  0  0
M  END
> <s_m_source_file>
AV-unprocessed.smi

> <i_m_source_file_index>
203

> <i_lp_mmshare_version>
43012

> <i_f3d_flags>
0

> <s_epik_input>
Tz1DMVtDSDJdW0NASF0oW0NIMl1bTkhdMSlbQ0BASF0yW0NIMl1bQ0gyXVtDSDJdW0NIMl1OMmMobltjSF1uMyljKGMzNCluW2NIXW40W0NIMl1bQ0BIXShbT0hdKVtDQEBIXTVbQ0gyXVtDSDJdW0NIMl1PNQ==

> <s_epik_cmdline>
J2VwaWtfcHl0aG9uJywgJy1waCcsICc3LjAnLCAnLXRuJywgJzgnLCAnLW1hJywgJzIwMCcsICctbWV0YWxfYmluZGluZycsICctaW1hZScsICc8aW5maWxlLm1hZT4nLCAnLW9tYWUnLCAnPG91dGZpbGUubWFlPic=

> <r_lp_tautomer_probability>
1

> <r_epik_Ionization_Penalty>
0.00175146

> <r_epik_Ionization_Penalty_Charging>
0

> <r_epik_Ionization_Penalty_Neutral>
0.00175146

> <r_epik_State_Penalty>
0.00109045

> <r_epik_Charging_Adjusted_Penalty>
0.00109045

> <i_epik_Tot_Q>
0

> <i_epik_Tot_abs_Q>
0

> <r_epik_Metal_State_Penalty>
-0

> <b_epik_Metal_Only>
0

> <s_lp_Force_Field>
OPLS_2005

> <r_lp_Energy>
56.5765

> <b_lp_Chiralities_Consistent>
1

> <s_lp_Variant>
AV-unprocessed.smi:203-14

> <Gold.Version>
5.8.1

> <Gold.Id.Protein>
6NUR|6NUR_protein|mol2

> <Gold.PLP.Fitness>
43.8922

> <Gold.PLP.PLP>
-36.6832

> <Gold.PLP.part.hbond>
-1.9938

> <Gold.PLP.part.metal>
0.0000

> <Gold.PLP.part.buried>
-5.8028

> <Gold.PLP.part.nonpolar>
-29.6536

> <Gold.PLP.part.repulsive>
0.1731

> <Gold.PLP.ligand.clash>
0.0000

> <Gold.PLP.ligand.torsion>
1.0378

> <Gold.PLP.Chemscore.Hbond>
2.0000

> <Gold.PLP.Chemscore.CHOScore>
0.9979

> <Gold.PLP.Chemscore.Metal>
0.0000

> <Gold.Chemscore.Hbonds>
donor molecule, donor type, donor heavy atom, donor atom, acceptor molecule, acceptor atom, score
      L1  H    22    47       P1  7948  0.26
      P1  H  6896  6908       L1    12  0.98
      L1  C    18    43       P1 10957  1.00

> <Gold.PLP.Chemscore.Internal.Correction>
0.2910

> <Gold.Rescore>
     Score         DG    S(hbond)    S(metal)    S(lipo)     H(rot)  DE(clash)    DE(int)     intcor
     12.32     -14.52       1.79        0.00      85.68       2.72       0.02       2.18       ----

> <Gold.Chemscore.Fitness>
12.3195

> <Gold.Chemscore.DG>
-14.5177

> <Gold.Chemscore.ZeroCoef>
-5.4800

> <Gold.Chemscore.Hbond>
1.7872

> <Gold.Chemscore.Metal>
0.0000

> <Gold.Chemscore.Lipo>
85.6765

> <Gold.Chemscore.Internal_Hbond>
0.0000

> <Gold.Chemscore.DEClash>
0.0178

> <Gold.Chemscore.DEInternal>
2.1805

> <Gold.Chemscore.Rot>
2.7171

> <Gold.Chemscore.Internal.Correction>
   9.000000E+99

> <Gold.Chemscore.Hbonds>
donor molecule, donor type, donor heavy atom, donor atom, acceptor molecule, acceptor atom, score
      L1  H    22    47       P1  7948  0.27
      P1  H  6896  6908       L1    12  0.36

> <Gold.Chemscore.Hbond.Weighted>
-5.9693

> <Gold.Chemscore.Metal.Weighted>
-0.0000

> <Gold.Chemscore.Lipo.Weighted>
-10.0241

> <Gold.Chemscore.Internal_Hbond.Weighted>
0.0000

> <Gold.Chemscore.DEClash.Weighted>
0.0178

> <Gold.Chemscore.DEInternal.Weighted>
2.1805

> <Gold.Chemscore.Rot.Weighted>
6.9557

> <Gold.Chemscore.Internal.Correction.Weighted>
   9.000000E+99

> <Gold.Protein.RotatedTorsions>
[ 6907 6896 6895 6894 ] final  156.31 input  -60.11 | X-H torsion
[ 7974 7965 7964 7962 ] final  172.11 input  175.53 | X-H torsion
[ 8008 7997 7996 7995 ] final   22.83 input   59.86 | X-H torsion
[ 10167 10162 10161 10158 ] final -160.72 input  -65.29 | X-H torsion
[ 10718 10713 10712 10709 ] final  178.25 input   66.30 | X-H torsion
[ 10763 10752 10751 10750 ] final  108.76 input  -60.55 | X-H torsion
[ 11005 11000 10999 10996 ] final  142.57 input  -57.11 | X-H torsion

> <Gold.Protein.ActiveResidues>
 VAL166  LYS551  ARG553  GLY616  TRP617  ASP618  TYR619  PRO620  LYS621  CYS622 
 ASP623  PHE694  ASN695  SER759  ASP760  ASP761  ALA762  ILE779  LEU786  VAL792 
 PHE793  MET794  SER795  GLU796  ALA797  LYS798  CYS799  TRP800  GLU811  SER814 

> <Gold.Protein.RotatedAtoms>
  152.0315  133.3939  159.4298 H   0  0  0  0  0  0  0  0  0  0  0  0  # atno 6907 bound_to 6896
  150.6882  134.3516  159.4920 H   0  0  0  0  0  0  0  0  0  0  0  0  # atno 6908 bound_to 6896
  152.1302  134.9140  160.0610 H   0  0  0  0  0  0  0  0  0  0  0  0  # atno 6909 bound_to 6896
  144.7276  139.9451  143.6430 H   0  0  0  0  0  0  0  0  0  0  0  0  # atno 7974 bound_to 7965
  154.9716  140.3091  155.4985 H   0  0  0  0  0  0  0  0  0  0  0  0  # atno 8008 bound_to 7997
  156.2965  140.2283  156.4748 H   0  0  0  0  0  0  0  0  0  0  0  0  # atno 8009 bound_to 7997
  154.7871  140.0442  157.1161 H   0  0  0  0  0  0  0  0  0  0  0  0  # atno 8010 bound_to 7997
  139.6519  144.0069  152.2167 H   0  0  0  0  0  0  0  0  0  0  0  0  # atno 10167 bound_to 10162
  156.8934  130.9855  151.3046 H   0  0  0  0  0  0  0  0  0  0  0  0  # atno 10718 bound_to 10713
  153.4253  135.3801  155.2136 H   0  0  0  0  0  0  0  0  0  0  0  0  # atno 10763 bound_to 10752
  154.8747  135.3827  154.4334 H   0  0  0  0  0  0  0  0  0  0  0  0  # atno 10764 bound_to 10752
  153.4860  135.7088  153.5974 H   0  0  0  0  0  0  0  0  0  0  0  0  # atno 10765 bound_to 10752
  140.0487  134.9267  157.0977 H   0  0  0  0  0  0  0  0  0  0  0  0  # atno 11005 bound_to 11000
  146.0755  139.3743  143.0497 LP  0  0  0  0  0  0  0  0  0  0  0  0  # atno 17320 bound_to 7965
  145.7911  140.9814  143.1048 LP  0  0  0  0  0  0  0  0  0  0  0  0  # atno 17321 bound_to 7965
  139.9785  144.6444  150.7922 LP  0  0  0  0  0  0  0  0  0  0  0  0  # atno 17342 bound_to 10162
  140.7541  143.3021  151.3053 LP  0  0  0  0  0  0  0  0  0  0  0  0  # atno 17343 bound_to 10162
  157.6070  130.8554  149.8891 LP  0  0  0  0  0  0  0  0  0  0  0  0  # atno 17370 bound_to 10713
  156.0618  130.3698  150.0966 LP  0  0  0  0  0  0  0  0  0  0  0  0  # atno 17371 bound_to 10713
  140.3953  134.2141  155.7165 LP  0  0  0  0  0  0  0  0  0  0  0  0  # atno 17394 bound_to 11000
  141.1919  133.8184  157.0859 LP  0  0  0  0  0  0  0  0  0  0  0  0  # atno 17395 bound_to 11000

$$$$
