AV-unprocessed.smi:103|AV-procd|sdf|983|dock10
  -GOLD-   2262017553D 1   1.00000     0.00000
 Structure written by MMmdl.
 53 55  0  0  0  0  0  0  0  0  1 V2000
  147.1289  134.8614  162.7119 C   0  0  0  0  0  0  0  0  0  0  0  0
  147.0290  136.0100  161.7168 C   0  0  0  0  0  0  0  0  0  0  0  0
  147.5330  137.1089  161.9489 O   0  0  0  0  0  0  0  0  0  0  0  0
  146.3490  135.6697  160.6129 O   0  0  0  0  0  0  0  0  0  0  0  0
  146.6589  136.2859  159.3739 C   0  0  0  0  0  0  0  0  0  0  0  0
  148.0805  135.8951  158.9539 C   0  0  2  0  0  0  0  0  0  0  0  0
  148.9994  136.8778  159.4043 O   0  0  0  0  0  0  0  0  0  0  0  0
  150.1366  136.8579  158.6008 C   0  0  2  0  0  0  0  0  0  0  0  0
  150.5479  138.2819  158.3623 N   0  0  0  0  0  0  0  0  0  0  0  0
  151.7526  138.9101  158.6099 C   0  0  0  0  0  0  0  0  0  0  0  0
  153.2273  138.1576  159.2900 S   0  0  0  0  0  0  0  0  0  0  0  0
  153.5436  139.1992  160.7726 C   0  0  0  0  0  0  0  0  0  0  0  0
  152.8561  136.8023  159.7262 O   0  0  0  0  0  0  0  0  0  0  0  0
  154.3075  138.3574  158.3120 O   0  0  0  0  0  0  0  0  0  0  0  0
  151.8474  140.1605  158.2462 N   0  0  0  0  0  0  0  0  0  0  0  0
  150.5916  140.4331  157.7233 C   0  0  0  0  0  0  0  0  0  0  0  0
  149.9902  141.5834  157.1534 C   0  0  0  0  0  0  0  0  0  0  0  0
  150.6295  142.7541  157.0217 N   0  0  0  0  0  0  0  0  0  0  0  0
  148.7114  141.4963  156.7186 N   0  0  0  0  0  0  0  0  0  0  0  0
  148.0529  140.3387  156.8355 C   0  0  0  0  0  0  0  0  0  0  0  0
  148.4818  139.1818  157.3465 N   0  0  0  0  0  0  0  0  0  0  0  0
  149.7707  139.2711  157.7900 C   0  0  0  0  0  0  0  0  0  0  0  0
  149.7850  136.1147  157.2935 C   0  0  2  0  0  0  0  0  0  0  0  0
  150.0573  136.8953  156.1330 O   0  0  0  0  0  0  0  0  0  0  0  0
  151.3125  137.0260  155.6788 C   0  0  0  0  0  0  0  0  0  0  0  0
  151.3954  137.9513  154.4727 C   0  0  0  0  0  0  0  0  0  0  0  0
  152.3141  136.4853  156.1473 O   0  0  0  0  0  0  0  0  0  0  0  0
  148.2943  135.8501  157.4405 C   0  0  1  0  0  0  0  0  0  0  0  0
  147.9912  134.5626  156.9167 O   0  0  0  0  0  0  0  0  0  0  0  0
  148.6124  133.4679  157.3890 C   0  0  0  0  0  0  0  0  0  0  0  0
  148.1662  132.1977  156.6781 C   0  0  0  0  0  0  0  0  0  0  0  0
  149.4577  133.4392  158.2831 O   0  0  0  0  0  0  0  0  0  0  0  0
  147.8702  134.1358  162.3774 H   0  0  0  0  0  0  0  0  0  0  0  0
  146.1673  134.3564  162.8078 H   0  0  0  0  0  0  0  0  0  0  0  0
  147.4237  135.2309  163.6942 H   0  0  0  0  0  0  0  0  0  0  0  0
  145.9469  135.9915  158.6010 H   0  0  0  0  0  0  0  0  0  0  0  0
  146.5858  137.3677  159.4912 H   0  0  0  0  0  0  0  0  0  0  0  0
  148.3701  134.9458  159.4086 H   0  0  0  0  0  0  0  0  0  0  0  0
  150.9589  136.3907  159.1353 H   0  0  0  0  0  0  0  0  0  0  0  0
  154.4033  138.8056  161.3143 H   0  0  0  0  0  0  0  0  0  0  0  0
  152.6677  139.1837  161.4210 H   0  0  0  0  0  0  0  0  0  0  0  0
  153.7499  140.2236  160.4670 H   0  0  0  0  0  0  0  0  0  0  0  0
  151.5849  142.8440  157.3364 H   0  0  0  0  0  0  0  0  0  0  0  0
  150.1528  143.5458  156.6153 H   0  0  0  0  0  0  0  0  0  0  0  0
  147.0375  140.3391  156.4671 H   0  0  0  0  0  0  0  0  0  0  0  0
  150.3492  135.1803  157.2968 H   0  0  0  0  0  0  0  0  0  0  0  0
  151.0165  138.9408  154.7287 H   0  0  0  0  0  0  0  0  0  0  0  0
  150.8002  137.5540  153.6504 H   0  0  0  0  0  0  0  0  0  0  0  0
  152.4274  138.0515  154.1360 H   0  0  0  0  0  0  0  0  0  0  0  0
  147.7344  136.6560  156.9629 H   0  0  0  0  0  0  0  0  0  0  0  0
  147.0855  132.2002  156.5349 H   0  0  0  0  0  0  0  0  0  0  0  0
  148.4341  131.3181  157.2634 H   0  0  0  0  0  0  0  0  0  0  0  0
  148.6463  132.1238  155.7022 H   0  0  0  0  0  0  0  0  0  0  0  0
  1  2  1  0  0  0  0
  1 33  1  0  0  0  0
  1 34  1  0  0  0  0
  1 35  1  0  0  0  0
  2  3  2  0  0  0  0
  2  4  1  0  0  0  0
  4  5  1  0  0  0  0
  5  6  1  0  0  0  0
  5 36  1  0  0  0  0
  5 37  1  0  0  0  0
  6 28  1  0  0  0  0
  6  7  1  0  0  0  0
  6 38  1  0  0  0  0
  7  8  1  0  0  0  0
  8  9  1  0  0  0  0
  8 23  1  0  0  0  0
  8 39  1  0  0  0  0
  9 22  1  0  0  0  0
  9 10  1  0  0  0  0
 10 11  1  0  0  0  0
 10 15  2  0  0  0  0
 11 12  1  0  0  0  0
 11 13  2  0  0  0  0
 11 14  2  0  0  0  0
 12 40  1  0  0  0  0
 12 41  1  0  0  0  0
 12 42  1  0  0  0  0
 15 16  1  0  0  0  0
 16 22  2  0  0  0  0
 16 17  1  0  0  0  0
 17 18  1  0  0  0  0
 17 19  2  0  0  0  0
 18 43  1  0  0  0  0
 18 44  1  0  0  0  0
 19 20  1  0  0  0  0
 20 21  2  0  0  0  0
 20 45  1  0  0  0  0
 21 22  1  0  0  0  0
 23 24  1  0  0  0  0
 23 28  1  0  0  0  0
 23 46  1  0  0  0  0
 24 25  1  0  0  0  0
 25 26  1  0  0  0  0
 25 27  2  0  0  0  0
 26 47  1  0  0  0  0
 26 48  1  0  0  0  0
 26 49  1  0  0  0  0
 28 29  1  0  0  0  0
 28 50  1  0  0  0  0
 29 30  1  0  0  0  0
 30 31  1  0  0  0  0
 30 32  2  0  0  0  0
 31 51  1  0  0  0  0
 31 52  1  0  0  0  0
 31 53  1  0  0  0  0
M  END
> <s_m_source_file>
AV-unprocessed.smi

> <i_m_source_file_index>
103

> <i_lp_mmshare_version>
43012

> <i_f3d_flags>
0

> <s_epik_input>
W0NIM11DKD1PKU9bQ0gyXVtDQEBIXTFPW0NASF0oW0NAQEhdKE9DKD1PKVtDSDNdKVtDQEhdMU9DKD1PKVtDSDNdKW4oYyhuMilTKD1PKSg9TylbQ0gzXSljKGMyMyluW2NIXW5jM1tOSDJd

> <s_epik_cmdline>
J2VwaWtfcHl0aG9uJywgJy1waCcsICc3LjAnLCAnLXRuJywgJzgnLCAnLW1hJywgJzIwMCcsICctbWV0YWxfYmluZGluZycsICctaW1hZScsICc8aW5maWxlLm1hZT4nLCAnLW9tYWUnLCAnPG91dGZpbGUubWFlPic=

> <r_lp_tautomer_probability>
1

> <r_epik_Ionization_Penalty>
1.51338e-05

> <r_epik_Ionization_Penalty_Charging>
0

> <r_epik_Ionization_Penalty_Neutral>
1.51338e-05

> <r_epik_State_Penalty>
-0

> <r_epik_Charging_Adjusted_Penalty>
0

> <i_epik_Tot_Q>
0

> <i_epik_Tot_abs_Q>
0

> <r_epik_Metal_State_Penalty>
-0

> <b_epik_Metal_Only>
0

> <s_epik_Chemistry_Notes>
This compound has an ester and may undergo hydrolysis at high or low pH. This compound contains an acetal/aminal-like group ( X-CH(R)-Y where X, Y are N, S, or O) that may be acid/base labile, releasing an aldehyde.

> <s_lp_Force_Field>
OPLS_2005

> <r_lp_Energy>
14.5233

> <b_lp_Chiralities_Consistent>
1

> <s_lp_Variant>
AV-unprocessed.smi:103-7

> <Gold.Version>
5.8.1

> <Gold.Id.Protein>
6NUR|6NUR_protein|mol2

> <Gold.PLP.Fitness>
53.2897

> <Gold.PLP.PLP>
-35.8994

> <Gold.PLP.part.hbond>
-7.0000

> <Gold.PLP.part.metal>
0.0000

> <Gold.PLP.part.buried>
-7.7191

> <Gold.PLP.part.nonpolar>
-21.8705

> <Gold.PLP.part.repulsive>
0.2002

> <Gold.PLP.ligand.clash>
0.0000

> <Gold.PLP.ligand.torsion>
2.0082

> <Gold.PLP.Chemscore.Hbond>
6.3601

> <Gold.PLP.Chemscore.CHOScore>
0.0000

> <Gold.PLP.Chemscore.Metal>
0.0000

> <Gold.Chemscore.Hbonds>
donor molecule, donor type, donor heavy atom, donor atom, acceptor molecule, acceptor atom, score
      L1  H    18    44       P1  8028  1.00
      P1  H  6896  6907       L1    13  1.00
      P1  H  6896  6909       L1    32  1.00
      P1  H  6931  6943       L1     3  0.99
      P1  H  6934  6947       L1     3  0.43
      P1  H  7997  8010       L1    14  0.96
      P1  H 10752 10763       L1    27  0.94

> <Gold.PLP.Chemscore.Internal.Correction>
2.3266

> <Gold.Rescore>
     Score         DG    S(hbond)    S(metal)    S(lipo)     H(rot)  DE(clash)    DE(int)     intcor
     13.49     -20.22       6.30        0.00      39.01       4.25       0.01       6.72       ----

> <Gold.Chemscore.Fitness>
13.4914

> <Gold.Chemscore.DG>
-20.2163

> <Gold.Chemscore.ZeroCoef>
-5.4800

> <Gold.Chemscore.Hbond>
6.2997

> <Gold.Chemscore.Metal>
0.0000

> <Gold.Chemscore.Lipo>
39.0065

> <Gold.Chemscore.Internal_Hbond>
0.0000

> <Gold.Chemscore.DEClash>
0.0089

> <Gold.Chemscore.DEInternal>
6.7159

> <Gold.Chemscore.Rot>
4.2456

> <Gold.Chemscore.Internal.Correction>
   9.000000E+99

> <Gold.Chemscore.Hbonds>
donor molecule, donor type, donor heavy atom, donor atom, acceptor molecule, acceptor atom, score
      L1  H    18    44       P1  8028  0.98
      P1  H  6896  6907       L1    13  0.99
      P1  H  6896  6909       L1    32  0.98
      P1  H  6931  6943       L1     3  0.93
      P1  H  6934  6947       L1     3  0.42
      P1  H  7997  8010       L1    14  0.88
      P1  H 10752 10763       L1    27  0.51

> <Gold.Chemscore.Hbond.Weighted>
-21.0412

> <Gold.Chemscore.Metal.Weighted>
-0.0000

> <Gold.Chemscore.Lipo.Weighted>
-4.5638

> <Gold.Chemscore.Internal_Hbond.Weighted>
0.0000

> <Gold.Chemscore.DEClash.Weighted>
0.0089

> <Gold.Chemscore.DEInternal.Weighted>
6.7159

> <Gold.Chemscore.Rot.Weighted>
10.8687

> <Gold.Chemscore.Internal.Correction.Weighted>
   9.000000E+99

> <Gold.Protein.RotatedTorsions>
[ 6907 6896 6895 6894 ] final   22.01 input  -60.11 | X-H torsion
[ 7974 7965 7964 7962 ] final    3.83 input  175.53 | X-H torsion
[ 8008 7997 7996 7995 ] final   21.79 input   59.86 | X-H torsion
[ 10167 10162 10161 10158 ] final   33.20 input  -65.29 | X-H torsion
[ 10718 10713 10712 10709 ] final -156.89 input   66.30 | X-H torsion
[ 10763 10752 10751 10750 ] final   73.47 input  -60.55 | X-H torsion
[ 11005 11000 10999 10996 ] final -171.25 input  -57.11 | X-H torsion

> <Gold.Protein.ActiveResidues>
 VAL166  LYS551  ARG553  GLY616  TRP617  ASP618  TYR619  PRO620  LYS621  CYS622 
 ASP623  PHE694  ASN695  SER759  ASP760  ASP761  ALA762  ILE779  LEU786  VAL792 
 PHE793  MET794  SER795  GLU796  ALA797  LYS798  CYS799  TRP800  GLU811  SER814 

> <Gold.Protein.RotatedAtoms>
  151.9206  135.0300  160.0521 H   0  0  0  0  0  0  0  0  0  0  0  0  # atno 6907 bound_to 6896
  152.2202  133.4973  159.5167 H   0  0  0  0  0  0  0  0  0  0  0  0  # atno 6908 bound_to 6896
  150.6998  134.1269  159.4098 H   0  0  0  0  0  0  0  0  0  0  0  0  # atno 6909 bound_to 6896
  146.2445  140.0626  142.8367 H   0  0  0  0  0  0  0  0  0  0  0  0  # atno 7974 bound_to 7965
  154.9559  140.3071  155.5053 H   0  0  0  0  0  0  0  0  0  0  0  0  # atno 8008 bound_to 7997
  156.2982  140.2310  156.4578 H   0  0  0  0  0  0  0  0  0  0  0  0  # atno 8009 bound_to 7997
  154.8011  140.0434  157.1261 H   0  0  0  0  0  0  0  0  0  0  0  0  # atno 8010 bound_to 7997
  140.4429  144.1161  150.6177 H   0  0  0  0  0  0  0  0  0  0  0  0  # atno 10167 bound_to 10162
  156.5328  130.8528  151.2722 H   0  0  0  0  0  0  0  0  0  0  0  0  # atno 10718 bound_to 10713
  153.0523  135.5062  154.7898 H   0  0  0  0  0  0  0  0  0  0  0  0  # atno 10763 bound_to 10752
  154.6750  135.2959  154.9693 H   0  0  0  0  0  0  0  0  0  0  0  0  # atno 10764 bound_to 10752
  154.0498  135.6705  153.4852 H   0  0  0  0  0  0  0  0  0  0  0  0  # atno 10765 bound_to 10752
  140.5103  134.5808  157.5017 H   0  0  0  0  0  0  0  0  0  0  0  0  # atno 11005 bound_to 11000
  145.0887  140.9270  143.4782 LP  0  0  0  0  0  0  0  0  0  0  0  0  # atno 17320 bound_to 7965
  145.0794  139.2971  143.5791 LP  0  0  0  0  0  0  0  0  0  0  0  0  # atno 17321 bound_to 7965
  140.4297  143.2574  151.9611 LP  0  0  0  0  0  0  0  0  0  0  0  0  # atno 17342 bound_to 10162
  139.4791  144.5755  151.8018 LP  0  0  0  0  0  0  0  0  0  0  0  0  # atno 17343 bound_to 10162
  157.7419  130.9879  150.2476 LP  0  0  0  0  0  0  0  0  0  0  0  0  # atno 17370 bound_to 10713
  156.3044  130.3763  149.7720 LP  0  0  0  0  0  0  0  0  0  0  0  0  # atno 17371 bound_to 10713
  139.9662  134.7368  156.0133 LP  0  0  0  0  0  0  0  0  0  0  0  0  # atno 17394 bound_to 11000
  141.1389  133.6569  156.3672 LP  0  0  0  0  0  0  0  0  0  0  0  0  # atno 17395 bound_to 11000

$$$$
