AV-unprocessed.smi:3274|AV-procd|sdf|12524|dock7
  -GOLD-   2272018443D 1   1.00000     0.00000
 Structure written by MMmdl.
 43 44  0  0  0  0  0  0  0  0  2 V2000
  154.1215  140.9276  161.3160 C   0  0  0  0  0  0  0  0  0  0  0  0
  153.2512  142.1371  161.0165 C   0  0  0  0  0  0  0  0  0  0  0  0
  152.9753  143.0198  161.9957 C   0  0  0  0  0  0  0  0  0  0  0  0
  152.1861  144.2935  161.7984 C   0  0  0  0  0  0  0  0  0  0  0  0
  152.1652  144.7057  160.3247 C   0  0  0  0  0  0  0  0  0  0  0  0
  151.7681  143.5285  159.4195 C   0  0  1  0  0  0  0  0  0  0  0  0
  151.6556  144.0174  157.9619 C   0  0  0  0  0  0  0  0  0  0  0  0
  152.7358  142.3141  159.5734 C   0  0  2  0  0  0  0  0  0  0  0  0
  152.0754  141.0304  159.0061 C   0  0  0  0  0  0  0  0  0  0  0  0
  151.9324  141.0588  157.5340 N   0  3  0  0  0  0  0  0  0  0  0  0
  150.6559  140.5150  157.0182 C   0  0  2  0  0  0  0  0  0  0  0  0
  150.3824  139.1539  157.6717 C   0  0  0  0  0  0  0  0  0  0  0  0
  150.6872  140.3890  155.4806 C   0  0  0  0  0  0  0  0  0  0  0  0
  151.6133  139.3721  155.0164 N   0  0  0  0  0  0  0  0  0  0  0  0
  151.3962  138.2367  154.3509 C   0  0  0  0  0  0  0  0  0  0  0  0
  152.5016  137.5572  154.0795 N   0  0  0  0  0  0  0  0  0  0  0  0
  153.4261  138.3824  154.6547 C   0  0  0  0  0  0  0  0  0  0  0  0
  152.9463  139.4882  155.2241 N   0  0  0  0  0  0  0  0  0  0  0  0
  154.9362  140.8550  160.5950 H   0  0  0  0  0  0  0  0  0  0  0  0
  153.5361  140.0087  161.2860 H   0  0  0  0  0  0  0  0  0  0  0  0
  154.5663  140.9958  162.3093 H   0  0  0  0  0  0  0  0  0  0  0  0
  153.3388  142.8447  162.9981 H   0  0  0  0  0  0  0  0  0  0  0  0
  151.1736  144.1394  162.1731 H   0  0  0  0  0  0  0  0  0  0  0  0
  152.6325  145.0880  162.3971 H   0  0  0  0  0  0  0  0  0  0  0  0
  151.4747  145.5397  160.1940 H   0  0  0  0  0  0  0  0  0  0  0  0
  153.1508  145.0728  160.0342 H   0  0  0  0  0  0  0  0  0  0  0  0
  150.7736  143.2104  159.7369 H   0  0  0  0  0  0  0  0  0  0  0  0
  152.6292  144.3030  157.5624 H   0  0  0  0  0  0  0  0  0  0  0  0
  151.0046  144.8894  157.8924 H   0  0  0  0  0  0  0  0  0  0  0  0
  151.2340  143.2621  157.3016 H   0  0  0  0  0  0  0  0  0  0  0  0
  153.6216  142.5324  158.9745 H   0  0  0  0  0  0  0  0  0  0  0  0
  152.6533  140.1529  159.2992 H   0  0  0  0  0  0  0  0  0  0  0  0
  151.0818  140.8908  159.4262 H   0  0  0  0  0  0  0  0  0  0  0  0
  152.0239  142.0129  157.2145 H   0  0  0  0  0  0  0  0  0  0  0  0
  149.8386  141.1804  157.3019 H   0  0  0  0  0  0  0  0  0  0  0  0
  149.4299  138.7420  157.3368 H   0  0  0  0  0  0  0  0  0  0  0  0
  150.3380  139.2413  158.7579 H   0  0  0  0  0  0  0  0  0  0  0  0
  151.1614  138.4307  157.4273 H   0  0  0  0  0  0  0  0  0  0  0  0
  149.6922  140.1635  155.0929 H   0  0  0  0  0  0  0  0  0  0  0  0
  150.9850  141.3389  155.0347 H   0  0  0  0  0  0  0  0  0  0  0  0
  150.4125  137.9037  154.0531 H   0  0  0  0  0  0  0  0  0  0  0  0
  154.4843  138.1667  154.6451 H   0  0  0  0  0  0  0  0  0  0  0  0
  152.6898  140.5169  157.1432 H   0  0  0  0  0  0  0  0  0  0  0  0
  1  2  1  0  0  0  0
  1 19  1  0  0  0  0
  1 20  1  0  0  0  0
  1 21  1  0  0  0  0
  2  8  1  0  0  0  0
  2  3  2  0  0  0  0
  3  4  1  0  0  0  0
  3 22  1  0  0  0  0
  4  5  1  0  0  0  0
  4 23  1  0  0  0  0
  4 24  1  0  0  0  0
  5  6  1  0  0  0  0
  5 25  1  0  0  0  0
  5 26  1  0  0  0  0
  6  7  1  0  0  0  0
  6  8  1  0  0  0  0
  6 27  1  0  0  0  0
  7 28  1  0  0  0  0
  7 29  1  0  0  0  0
  7 30  1  0  0  0  0
  8  9  1  0  0  0  0
  8 31  1  0  0  0  0
  9 10  1  0  0  0  0
  9 32  1  0  0  0  0
  9 33  1  0  0  0  0
 10 11  1  0  0  0  0
 10 34  1  0  0  0  0
 10 43  1  0  0  0  0
 11 12  1  0  0  0  0
 11 13  1  0  0  0  0
 11 35  1  0  0  0  0
 12 36  1  0  0  0  0
 12 37  1  0  0  0  0
 12 38  1  0  0  0  0
 13 14  1  0  0  0  0
 13 39  1  0  0  0  0
 13 40  1  0  0  0  0
 14 18  1  0  0  0  0
 14 15  1  0  0  0  0
 15 16  2  0  0  0  0
 15 41  1  0  0  0  0
 16 17  1  0  0  0  0
 17 18  2  0  0  0  0
 17 42  1  0  0  0  0
M  CHG  1  10   1
M  END
> <s_m_source_file>
AV-unprocessed.smi

> <i_m_source_file_index>
3274

> <i_lp_mmshare_version>
43012

> <i_f3d_flags>
0

> <s_epik_input>
W0NIM11DMT1bQ0hdW0NIMl1bQ0gyXVtDQEBIXShbQ0gzXSlbQ0BIXTFbQ0gyXVtOSF1bQ0BIXShbQ0gzXSlbQ0gyXW4yW2NIXW5bY0hdbjI=

> <s_epik_cmdline>
J2VwaWtfcHl0aG9uJywgJy1waCcsICc3LjAnLCAnLXRuJywgJzgnLCAnLW1hJywgJzIwMCcsICctbWV0YWxfYmluZGluZycsICctaW1hZScsICc8aW5maWxlLm1hZT4nLCAnLW9tYWUnLCAnPG91dGZpbGUubWFlPic=

> <r_lp_tautomer_probability>
1

> <r_epik_Ionization_Penalty>
0.0017527

> <r_epik_Ionization_Penalty_Charging>
0.00175191

> <r_epik_Ionization_Penalty_Neutral>
7.94565e-07

> <r_epik_State_Penalty>
0.00118605

> <r_epik_Charging_Adjusted_Penalty>
0.00293796

> <i_epik_Tot_Q>
1

> <i_epik_Tot_abs_Q>
1

> <r_epik_Metal_State_Penalty>
-0

> <b_epik_Metal_Only>
0

> <s_lp_Force_Field>
OPLS_2005

> <r_lp_Energy>
18.1094

> <b_lp_Chiralities_Consistent>
1

> <s_lp_Variant>
AV-unprocessed.smi:3274-3

> <Gold.Version>
5.8.1

> <Gold.Id.Protein>
6NUR|6NUR_protein|mol2

> <Gold.PLP.Fitness>
52.0367

> <Gold.PLP.PLP>
-47.6697

> <Gold.PLP.part.hbond>
-2.2610

> <Gold.PLP.part.metal>
0.0000

> <Gold.PLP.part.buried>
-2.1307

> <Gold.PLP.part.nonpolar>
-42.7118

> <Gold.PLP.part.repulsive>
0.2269

> <Gold.PLP.ligand.clash>
0.0000

> <Gold.PLP.ligand.torsion>
0.4648

> <Gold.PLP.Chemscore.Hbond>
1.7360

> <Gold.PLP.Chemscore.CHOScore>
0.0000

> <Gold.PLP.Chemscore.Metal>
0.0000

> <Gold.Chemscore.Hbonds>
donor molecule, donor type, donor heavy atom, donor atom, acceptor molecule, acceptor atom, score
      P1  H  7997  8010       L1    18  0.98
      P1  H 10752 10765       L1    16  0.69

> <Gold.PLP.Chemscore.Internal.Correction>
0.0887

> <Gold.Rescore>
     Score         DG    S(hbond)    S(metal)    S(lipo)     H(rot)  DE(clash)    DE(int)     intcor
     14.10     -17.02       1.28        0.00     113.82       2.36       0.38       2.54       ----

> <Gold.Chemscore.Fitness>
14.0958

> <Gold.Chemscore.DG>
-17.0174

> <Gold.Chemscore.ZeroCoef>
-5.4800

> <Gold.Chemscore.Hbond>
1.2772

> <Gold.Chemscore.Metal>
0.0000

> <Gold.Chemscore.Lipo>
113.8192

> <Gold.Chemscore.Internal_Hbond>
0.0000

> <Gold.Chemscore.DEClash>
0.3816

> <Gold.Chemscore.DEInternal>
2.5400

> <Gold.Chemscore.Rot>
2.3615

> <Gold.Chemscore.Internal.Correction>
   9.000000E+99

> <Gold.Chemscore.Hbonds>
donor molecule, donor type, donor heavy atom, donor atom, acceptor molecule, acceptor atom, score
      P1  H  7997  8010       L1    18  0.47
      P1  H 10752 10765       L1    16  0.58

> <Gold.Chemscore.Hbond.Weighted>
-4.2659

> <Gold.Chemscore.Metal.Weighted>
-0.0000

> <Gold.Chemscore.Lipo.Weighted>
-13.3168

> <Gold.Chemscore.Internal_Hbond.Weighted>
0.0000

> <Gold.Chemscore.DEClash.Weighted>
0.3816

> <Gold.Chemscore.DEInternal.Weighted>
2.5400

> <Gold.Chemscore.Rot.Weighted>
6.0454

> <Gold.Chemscore.Internal.Correction.Weighted>
   9.000000E+99

> <Gold.Protein.RotatedTorsions>
[ 6907 6896 6895 6894 ] final   50.50 input  -60.11 | X-H torsion
[ 7974 7965 7964 7962 ] final  -14.96 input  175.53 | X-H torsion
[ 8008 7997 7996 7995 ] final   77.06 input   59.86 | X-H torsion
[ 10167 10162 10161 10158 ] final    5.00 input  -65.29 | X-H torsion
[ 10718 10713 10712 10709 ] final    3.62 input   66.30 | X-H torsion
[ 10763 10752 10751 10750 ] final  150.51 input  -60.55 | X-H torsion
[ 11005 11000 10999 10996 ] final  -35.51 input  -57.11 | X-H torsion

> <Gold.Protein.ActiveResidues>
 VAL166  LYS551  ARG553  GLY616  TRP617  ASP618  TYR619  PRO620  LYS621  CYS622 
 ASP623  PHE694  ASN695  SER759  ASP760  ASP761  ALA762  ILE779  LEU786  VAL792 
 PHE793  MET794  SER795  GLU796  ALA797  LYS798  CYS799  TRP800  GLU811  SER814 

> <Gold.Protein.RotatedAtoms>
  152.3024  134.7595  160.0354 H   0  0  0  0  0  0  0  0  0  0  0  0  # atno 6907 bound_to 6896
  151.8103  133.3375  159.3561 H   0  0  0  0  0  0  0  0  0  0  0  0  # atno 6908 bound_to 6896
  150.7280  134.5600  159.5882 H   0  0  0  0  0  0  0  0  0  0  0  0  # atno 6909 bound_to 6896
  146.2052  140.3424  142.8409 H   0  0  0  0  0  0  0  0  0  0  0  0  # atno 7974 bound_to 7965
  155.8363  140.3464  155.5603 H   0  0  0  0  0  0  0  0  0  0  0  0  # atno 8008 bound_to 7997
  155.8189  140.0910  157.1880 H   0  0  0  0  0  0  0  0  0  0  0  0  # atno 8009 bound_to 7997
  154.4004  140.1434  156.3463 H   0  0  0  0  0  0  0  0  0  0  0  0  # atno 8010 bound_to 7997
  140.6505  143.7556  150.7567 H   0  0  0  0  0  0  0  0  0  0  0  0  # atno 10167 bound_to 10162
  156.8805  130.5652  149.5653 H   0  0  0  0  0  0  0  0  0  0  0  0  # atno 10718 bound_to 10713
  154.0887  135.2854  155.3276 H   0  0  0  0  0  0  0  0  0  0  0  0  # atno 10763 bound_to 10752
  154.6634  135.5326  153.8050 H   0  0  0  0  0  0  0  0  0  0  0  0  # atno 10764 bound_to 10752
  153.0421  135.6539  154.1058 H   0  0  0  0  0  0  0  0  0  0  0  0  # atno 10765 bound_to 10752
  140.9802  133.7060  156.1671 H   0  0  0  0  0  0  0  0  0  0  0  0  # atno 11005 bound_to 11000
  144.8776  140.7357  143.6007 LP  0  0  0  0  0  0  0  0  0  0  0  0  # atno 17320 bound_to 7965
  145.3344  139.1750  143.4519 LP  0  0  0  0  0  0  0  0  0  0  0  0  # atno 17321 bound_to 7965
  140.1206  143.4616  152.2315 LP  0  0  0  0  0  0  0  0  0  0  0  0  # atno 17342 bound_to 10162
  139.5720  144.7467  151.3866 LP  0  0  0  0  0  0  0  0  0  0  0  0  # atno 17343 bound_to 10162
  156.0679  130.5719  150.9326 LP  0  0  0  0  0  0  0  0  0  0  0  0  # atno 17370 bound_to 10713
  157.6143  131.0934  150.8739 LP  0  0  0  0  0  0  0  0  0  0  0  0  # atno 17371 bound_to 10713
  140.7198  134.4371  157.5575 LP  0  0  0  0  0  0  0  0  0  0  0  0  # atno 17394 bound_to 11000
  139.8947  134.8700  156.2165 LP  0  0  0  0  0  0  0  0  0  0  0  0  # atno 17395 bound_to 11000

$$$$
