AV-unprocessed.smi:826|AV-procd|sdf|3855|dock9
  -GOLD-   22720 1303D 1   1.00000     0.00000
 Structure written by MMmdl.
 38 39  0  0  0  0  0  0  0  0  2 V2000
  146.1123  133.8538  161.6886 C   0  0  0  0  0  0  0  0  0  0  0  0
  146.8589  134.8959  160.9290 C   0  0  0  0  0  0  0  0  0  0  0  0
  146.8566  136.1859  161.2738 N   0  0  0  0  0  0  0  0  0  0  0  0
  147.6285  136.9575  160.4170 N   0  0  0  0  0  0  0  0  0  0  0  0
  148.2120  136.2407  159.4459 C   0  0  0  0  0  0  0  0  0  0  0  0
  149.0028  136.7988  158.5146 N   0  5  0  0  0  0  0  0  0  0  0  0
  150.0915  137.5075  158.8915 C   0  0  0  0  0  0  0  0  0  0  0  0
  150.9874  137.1224  159.6470 O   0  0  0  0  0  0  0  0  0  0  0  0
  150.1511  138.7363  158.3558 N   0  0  0  0  0  0  0  0  0  0  0  0
  151.2161  139.7147  158.5727 C   0  0  1  0  0  0  0  0  0  0  0  0
  152.3814  139.3671  157.6307 C   0  0  0  0  0  0  0  0  0  0  0  0
  150.7223  141.1284  158.2275 C   0  0  0  0  0  0  0  0  0  0  0  0
  149.5919  141.3053  157.7702 O   0  0  0  0  0  0  0  0  0  0  0  0
  151.5957  142.1251  158.4347 N   0  0  0  0  0  0  0  0  0  0  0  0
  151.3421  143.5361  158.1593 C   0  0  0  0  0  0  0  0  0  0  0  0
  152.5241  144.4215  158.6073 C   0  0  0  0  0  0  0  0  0  0  0  0
  151.9251  145.5224  159.4856 C   0  0  0  0  0  0  0  0  0  0  0  0
  150.6687  144.8942  160.0809 C   0  0  0  0  0  0  0  0  0  0  0  0
  150.1164  144.0274  158.9497 C   0  0  0  0  0  0  0  0  0  0  0  0
  147.8194  134.5224  159.5084 S   0  0  0  0  0  0  0  0  0  0  0  0
  146.7733  133.3783  162.4133 H   0  0  0  0  0  0  0  0  0  0  0  0
  145.7328  133.0924  161.0071 H   0  0  0  0  0  0  0  0  0  0  0  0
  145.2693  134.2977  162.2193 H   0  0  0  0  0  0  0  0  0  0  0  0
  149.3925  139.0156  157.7515 H   0  0  0  0  0  0  0  0  0  0  0  0
  151.5621  139.6709  159.6075 H   0  0  0  0  0  0  0  0  0  0  0  0
  153.2082  140.0686  157.7482 H   0  0  0  0  0  0  0  0  0  0  0  0
  152.0784  139.3808  156.5826 H   0  0  0  0  0  0  0  0  0  0  0  0
  152.7692  138.3711  157.8461 H   0  0  0  0  0  0  0  0  0  0  0  0
  152.4992  141.8887  158.8178 H   0  0  0  0  0  0  0  0  0  0  0  0
  151.1495  143.6702  157.0931 H   0  0  0  0  0  0  0  0  0  0  0  0
  153.2372  143.8433  159.1972 H   0  0  0  0  0  0  0  0  0  0  0  0
  153.0710  144.8335  157.7587 H   0  0  0  0  0  0  0  0  0  0  0  0
  152.6201  145.8756  160.2477 H   0  0  0  0  0  0  0  0  0  0  0  0
  151.6482  146.3765  158.8662 H   0  0  0  0  0  0  0  0  0  0  0  0
  150.9381  144.2643  160.9296 H   0  0  0  0  0  0  0  0  0  0  0  0
  149.9507  145.6372  160.4294 H   0  0  0  0  0  0  0  0  0  0  0  0
  149.4951  144.6442  158.2989 H   0  0  0  0  0  0  0  0  0  0  0  0
  149.4850  143.2183  159.3196 H   0  0  0  0  0  0  0  0  0  0  0  0
  1  2  1  0  0  0  0
  1 21  1  0  0  0  0
  1 22  1  0  0  0  0
  1 23  1  0  0  0  0
  2 20  1  0  0  0  0
  2  3  2  0  0  0  0
  3  4  1  0  0  0  0
  4  5  2  0  0  0  0
  5  6  1  0  0  0  0
  5 20  1  0  0  0  0
  6  7  1  0  0  0  0
  7  8  2  0  0  0  0
  7  9  1  0  0  0  0
  9 10  1  0  0  0  0
  9 24  1  0  0  0  0
 10 11  1  0  0  0  0
 10 12  1  0  0  0  0
 10 25  1  0  0  0  0
 11 26  1  0  0  0  0
 11 27  1  0  0  0  0
 11 28  1  0  0  0  0
 12 13  2  0  0  0  0
 12 14  1  0  0  0  0
 14 15  1  0  0  0  0
 14 29  1  0  0  0  0
 15 19  1  0  0  0  0
 15 16  1  0  0  0  0
 15 30  1  0  0  0  0
 16 17  1  0  0  0  0
 16 31  1  0  0  0  0
 16 32  1  0  0  0  0
 17 18  1  0  0  0  0
 17 33  1  0  0  0  0
 17 34  1  0  0  0  0
 18 19  1  0  0  0  0
 18 35  1  0  0  0  0
 18 36  1  0  0  0  0
 19 37  1  0  0  0  0
 19 38  1  0  0  0  0
M  CHG  1   6  -1
M  END
> <s_m_source_file>
AV-unprocessed.smi

> <i_m_source_file_index>
826

> <i_lp_mmshare_version>
43012

> <i_f3d_flags>
0

> <s_epik_input>
W0NIM11jMW5uYyhzMSlbTkhdQyg9TylbTkhdW0NASF0oW0NIM10pQyg9TylbTkhdW0NIXTJbQ0gyXVtDSDJdW0NIMl1bQ0gyXTI=

> <s_epik_cmdline>
J2VwaWtfcHl0aG9uJywgJy1waCcsICc3LjAnLCAnLXRuJywgJzgnLCAnLW1hJywgJzIwMCcsICctbWV0YWxfYmluZGluZycsICctaW1hZScsICc8aW5maWxlLm1hZT4nLCAnLW9tYWUnLCAnPG91dGZpbGUubWFlPic=

> <r_lp_tautomer_probability>
1

> <r_epik_Ionization_Penalty>
3.15008

> <r_epik_Ionization_Penalty_Charging>
3.01509

> <r_epik_Ionization_Penalty_Neutral>
0.134987

> <r_epik_State_Penalty>
3.01143

> <r_epik_Charging_Adjusted_Penalty>
6.02652

> <i_epik_Tot_Q>
-1

> <i_epik_Tot_abs_Q>
1

> <r_epik_Metal_State_Penalty>
0.454645

> <b_epik_Metal_Only>
1

> <s_lp_Force_Field>
OPLS_2005

> <r_lp_Energy>
16.5176

> <b_lp_Chiralities_Consistent>
1

> <s_lp_Variant>
AV-unprocessed.smi:826-4

> <Gold.Version>
5.8.1

> <Gold.Id.Protein>
6NUR|6NUR_protein|mol2

> <Gold.PLP.Fitness>
44.0328

> <Gold.PLP.PLP>
-38.5161

> <Gold.PLP.part.hbond>
-2.9439

> <Gold.PLP.part.metal>
0.0000

> <Gold.PLP.part.buried>
-6.6126

> <Gold.PLP.part.nonpolar>
-29.4008

> <Gold.PLP.part.repulsive>
0.2847

> <Gold.PLP.ligand.clash>
0.0000

> <Gold.PLP.ligand.torsion>
1.3377

> <Gold.PLP.Chemscore.Hbond>
2.7173

> <Gold.PLP.Chemscore.CHOScore>
0.0000

> <Gold.PLP.Chemscore.Metal>
0.0000

> <Gold.Chemscore.Hbonds>
donor molecule, donor type, donor heavy atom, donor atom, acceptor molecule, acceptor atom, score
      P1  H  6896  6907       L1     8  1.00
      P1  H  6931  6943       L1     4  0.03
      P1  H  6934  6947       L1     4  0.63

> <Gold.PLP.Chemscore.Internal.Correction>
0.0401

> <Gold.Rescore>
     Score         DG    S(hbond)    S(metal)    S(lipo)     H(rot)  DE(clash)    DE(int)     intcor
     17.88     -20.14       2.56        0.00      87.69       1.62       0.06       2.21       ----

> <Gold.Chemscore.Fitness>
17.8769

> <Gold.Chemscore.DG>
-20.1400

> <Gold.Chemscore.ZeroCoef>
-5.4800

> <Gold.Chemscore.Hbond>
2.5594

> <Gold.Chemscore.Metal>
0.0000

> <Gold.Chemscore.Lipo>
87.6856

> <Gold.Chemscore.Internal_Hbond>
0.0000

> <Gold.Chemscore.DEClash>
0.0560

> <Gold.Chemscore.DEInternal>
2.2071

> <Gold.Chemscore.Rot>
1.6201

> <Gold.Chemscore.Internal.Correction>
   9.000000E+99

> <Gold.Chemscore.Hbonds>
donor molecule, donor type, donor heavy atom, donor atom, acceptor molecule, acceptor atom, score
      P1  H  6896  6907       L1     8  0.93
      P1  H  6931  6943       L1     4  0.03
      P1  H  6934  6947       L1     4  0.33

> <Gold.Chemscore.Hbond.Weighted>
-8.5483

> <Gold.Chemscore.Metal.Weighted>
-0.0000

> <Gold.Chemscore.Lipo.Weighted>
-10.2592

> <Gold.Chemscore.Internal_Hbond.Weighted>
0.0000

> <Gold.Chemscore.DEClash.Weighted>
0.0560

> <Gold.Chemscore.DEInternal.Weighted>
2.2071

> <Gold.Chemscore.Rot.Weighted>
4.1475

> <Gold.Chemscore.Internal.Correction.Weighted>
   9.000000E+99

> <Gold.Protein.RotatedTorsions>
[ 6907 6896 6895 6894 ] final  -14.71 input  -60.11 | X-H torsion
[ 7974 7965 7964 7962 ] final -128.61 input  175.53 | X-H torsion
[ 8008 7997 7996 7995 ] final   91.21 input   59.86 | X-H torsion
[ 10167 10162 10161 10158 ] final   83.81 input  -65.29 | X-H torsion
[ 10718 10713 10712 10709 ] final  107.50 input   66.30 | X-H torsion
[ 10763 10752 10751 10750 ] final -139.73 input  -60.55 | X-H torsion
[ 11005 11000 10999 10996 ] final  163.46 input  -57.11 | X-H torsion

> <Gold.Protein.ActiveResidues>
 VAL166  LYS551  ARG553  GLY616  TRP617  ASP618  TYR619  PRO620  LYS621  CYS622 
 ASP623  PHE694  ASN695  SER759  ASP760  ASP761  ALA762  ILE779  LEU786  VAL792 
 PHE793  MET794  SER795  GLU796  ALA797  LYS798  CYS799  TRP800  GLU811  SER814 

> <Gold.Protein.RotatedAtoms>
  151.3352  135.0851  159.9352 H   0  0  0  0  0  0  0  0  0  0  0  0  # atno 6907 bound_to 6896
  152.5225  133.9502  159.7678 H   0  0  0  0  0  0  0  0  0  0  0  0  # atno 6908 bound_to 6896
  150.9848  133.6155  159.2747 H   0  0  0  0  0  0  0  0  0  0  0  0  # atno 6909 bound_to 6896
  144.9653  140.7490  143.4704 H   0  0  0  0  0  0  0  0  0  0  0  0  # atno 7974 bound_to 7965
  156.0211  140.3340  155.7039 H   0  0  0  0  0  0  0  0  0  0  0  0  # atno 8008 bound_to 7997
  155.6021  140.0657  157.2747 H   0  0  0  0  0  0  0  0  0  0  0  0  # atno 8009 bound_to 7997
  154.4316  140.1808  156.1172 H   0  0  0  0  0  0  0  0  0  0  0  0  # atno 8010 bound_to 7997
  139.9145  144.6251  150.8503 H   0  0  0  0  0  0  0  0  0  0  0  0  # atno 10167 bound_to 10162
  157.6626  131.0874  150.6165 H   0  0  0  0  0  0  0  0  0  0  0  0  # atno 10718 bound_to 10713
  154.8600  135.3574  154.5593 H   0  0  0  0  0  0  0  0  0  0  0  0  # atno 10763 bound_to 10752
  153.6209  135.7006  153.5316 H   0  0  0  0  0  0  0  0  0  0  0  0  # atno 10764 bound_to 10752
  153.3130  135.4173  155.1312 H   0  0  0  0  0  0  0  0  0  0  0  0  # atno 10765 bound_to 10752
  140.2360  134.8088  157.3364 H   0  0  0  0  0  0  0  0  0  0  0  0  # atno 11005 bound_to 11000
  145.2639  139.1981  143.4877 LP  0  0  0  0  0  0  0  0  0  0  0  0  # atno 17320 bound_to 7965
  146.3366  140.2573  142.8600 LP  0  0  0  0  0  0  0  0  0  0  0  0  # atno 17321 bound_to 7965
  140.7677  143.3341  151.2346 LP  0  0  0  0  0  0  0  0  0  0  0  0  # atno 17342 bound_to 10162
  139.6914  143.9686  152.2861 LP  0  0  0  0  0  0  0  0  0  0  0  0  # atno 17343 bound_to 10162
  156.6467  130.4473  149.5733 LP  0  0  0  0  0  0  0  0  0  0  0  0  # atno 17370 bound_to 10713
  156.2168  130.6713  151.1327 LP  0  0  0  0  0  0  0  0  0  0  0  0  # atno 17371 bound_to 10713
  140.1702  134.4618  155.7837 LP  0  0  0  0  0  0  0  0  0  0  0  0  # atno 17394 bound_to 11000
  141.2214  133.6938  156.7694 LP  0  0  0  0  0  0  0  0  0  0  0  0  # atno 17395 bound_to 11000

$$$$
