AV-unprocessed.smi:365|AV-procd|sdf|2428|dock5
  -GOLD-   2262022363D 1   1.00000     0.00000
 Structure written by MMmdl.
 53 54  0  0  0  0  0  0  0  0  1 V2000
  146.6393  136.9226  156.0315 C   0  0  0  0  0  0  0  0  0  0  0  0
  147.5096  136.9729  154.7596 C   0  0  1  0  0  0  0  0  0  0  0  0
  146.9157  136.2870  153.6068 N   0  0  0  0  0  0  0  0  0  0  0  0
  145.6302  135.9444  153.3956 C   0  0  0  0  0  0  0  0  0  0  0  0
  144.7252  136.2154  154.1856 O   0  0  0  0  0  0  0  0  0  0  0  0
  145.3263  135.1977  152.0749 C   0  0  0  0  0  0  0  0  0  0  0  0
  143.8264  134.8392  152.0266 C   0  0  0  0  0  0  0  0  0  0  0  0
  146.1487  133.8920  151.9863 C   0  0  0  0  0  0  0  0  0  0  0  0
  145.6971  136.0900  150.8704 C   0  0  0  0  0  0  0  0  0  0  0  0
  148.0296  138.3769  154.4203 C   0  0  0  0  0  0  0  0  0  0  0  0
  147.2522  139.2742  154.0934 O   0  0  0  0  0  0  0  0  0  0  0  0
  149.3548  138.5591  154.5276 N   0  0  0  0  0  0  0  0  0  0  0  0
  150.0485  139.8224  154.2993 C   0  0  0  0  0  0  0  0  0  0  0  0
  150.5718  140.4800  155.5680 C   0  0  0  0  0  0  0  0  0  0  0  0
  151.4550  139.7848  156.4159 C   0  0  0  0  0  0  0  0  0  0  0  0
  151.9122  140.4084  157.5928 C   0  0  0  0  0  0  0  0  0  0  0  0
  151.4686  141.7204  157.9007 C   0  0  0  0  0  0  0  0  0  0  0  0
  151.8916  142.4066  159.0637 N   0  0  0  0  0  0  0  0  0  0  0  0
  151.2488  143.6923  159.3399 C   0  0  0  0  0  0  0  0  0  0  0  0
  152.0295  144.4733  160.4104 C   0  0  0  0  0  0  0  0  0  0  0  0
  152.1947  143.6684  161.5718 O   0  0  0  0  0  0  0  0  0  0  0  0
  152.9502  142.4959  161.2918 C   0  0  0  0  0  0  0  0  0  0  0  0
  152.2060  141.6303  160.2610 C   0  0  0  0  0  0  0  0  0  0  0  0
  150.6162  142.3814  157.0799 N   0  0  0  0  0  0  0  0  0  0  0  0
  150.1817  141.7798  155.9533 C   0  0  0  0  0  0  0  0  0  0  0  0
  147.2036  137.2643  156.8998 H   0  0  0  0  0  0  0  0  0  0  0  0
  146.3039  135.9064  156.2406 H   0  0  0  0  0  0  0  0  0  0  0  0
  145.7585  137.5600  155.9544 H   0  0  0  0  0  0  0  0  0  0  0  0
  148.3933  136.3724  154.9807 H   0  0  0  0  0  0  0  0  0  0  0  0
  147.5668  136.0305  152.8792 H   0  0  0  0  0  0  0  0  0  0  0  0
  143.5855  134.2743  151.1255 H   0  0  0  0  0  0  0  0  0  0  0  0
  143.1946  135.7284  152.0266 H   0  0  0  0  0  0  0  0  0  0  0  0
  143.5338  134.2281  152.8819 H   0  0  0  0  0  0  0  0  0  0  0  0
  145.9044  133.2044  152.7974 H   0  0  0  0  0  0  0  0  0  0  0  0
  147.2214  134.0872  152.0284 H   0  0  0  0  0  0  0  0  0  0  0  0
  145.9538  133.3662  151.0510 H   0  0  0  0  0  0  0  0  0  0  0  0
  145.5454  135.5612  149.9287 H   0  0  0  0  0  0  0  0  0  0  0  0
  146.7439  136.3949  150.9067 H   0  0  0  0  0  0  0  0  0  0  0  0
  145.0902  136.9953  150.8284 H   0  0  0  0  0  0  0  0  0  0  0  0
  149.9212  137.7706  154.8049 H   0  0  0  0  0  0  0  0  0  0  0  0
  150.8972  139.6272  153.6435 H   0  0  0  0  0  0  0  0  0  0  0  0
  149.3988  140.5155  153.7616 H   0  0  0  0  0  0  0  0  0  0  0  0
  151.7797  138.7839  156.1719 H   0  0  0  0  0  0  0  0  0  0  0  0
  152.5837  139.8601  158.2353 H   0  0  0  0  0  0  0  0  0  0  0  0
  151.1796  144.3106  158.4450 H   0  0  0  0  0  0  0  0  0  0  0  0
  150.2291  143.5081  159.6806 H   0  0  0  0  0  0  0  0  0  0  0  0
  153.0028  144.7870  160.0295 H   0  0  0  0  0  0  0  0  0  0  0  0
  151.4880  145.3794  160.6821 H   0  0  0  0  0  0  0  0  0  0  0  0
  153.9427  142.7674  160.9281 H   0  0  0  0  0  0  0  0  0  0  0  0
  153.0935  141.9372  162.2166 H   0  0  0  0  0  0  0  0  0  0  0  0
  151.2817  141.2436  160.6920 H   0  0  0  0  0  0  0  0  0  0  0  0
  152.8361  140.7776  160.0076 H   0  0  0  0  0  0  0  0  0  0  0  0
  149.4966  142.3573  155.3500 H   0  0  0  0  0  0  0  0  0  0  0  0
  1  2  1  0  0  0  0
  1 26  1  0  0  0  0
  1 27  1  0  0  0  0
  1 28  1  0  0  0  0
  2  3  1  0  0  0  0
  2 10  1  0  0  0  0
  2 29  1  0  0  0  0
  3  4  1  0  0  0  0
  3 30  1  0  0  0  0
  4  5  2  0  0  0  0
  4  6  1  0  0  0  0
  6  7  1  0  0  0  0
  6  8  1  0  0  0  0
  6  9  1  0  0  0  0
  7 31  1  0  0  0  0
  7 32  1  0  0  0  0
  7 33  1  0  0  0  0
  8 34  1  0  0  0  0
  8 35  1  0  0  0  0
  8 36  1  0  0  0  0
  9 37  1  0  0  0  0
  9 38  1  0  0  0  0
  9 39  1  0  0  0  0
 10 11  2  0  0  0  0
 10 12  1  0  0  0  0
 12 13  1  0  0  0  0
 12 40  1  0  0  0  0
 13 14  1  0  0  0  0
 13 41  1  0  0  0  0
 13 42  1  0  0  0  0
 14 25  1  0  0  0  0
 14 15  2  0  0  0  0
 15 16  1  0  0  0  0
 15 43  1  0  0  0  0
 16 17  2  0  0  0  0
 16 44  1  0  0  0  0
 17 18  1  0  0  0  0
 17 24  1  0  0  0  0
 18 23  1  0  0  0  0
 18 19  1  0  0  0  0
 19 20  1  0  0  0  0
 19 45  1  0  0  0  0
 19 46  1  0  0  0  0
 20 21  1  0  0  0  0
 20 47  1  0  0  0  0
 20 48  1  0  0  0  0
 21 22  1  0  0  0  0
 22 23  1  0  0  0  0
 22 49  1  0  0  0  0
 22 50  1  0  0  0  0
 23 51  1  0  0  0  0
 23 52  1  0  0  0  0
 24 25  2  0  0  0  0
 25 53  1  0  0  0  0
M  END
> <s_m_source_file>
AV-unprocessed.smi

> <i_m_source_file_index>
365

> <i_lp_mmshare_version>
43012

> <i_f3d_flags>
0

> <s_epik_input>
W0NIM11DKFtDSDNdKShbQ0gzXSlDKD1PKVtOSF1bQ0BASF0oW0NIM10pQyg9TylbTkhdW0NIMl1jMVtjSF1bY0hdYyhuW2NIXTEpTjJbQ0gyXVtDSDJdT1tDSDJdW0NIMl0y

> <s_epik_cmdline>
J2VwaWtfcHl0aG9uJywgJy1waCcsICc3LjAnLCAnLXRuJywgJzgnLCAnLW1hJywgJzIwMCcsICctbWV0YWxfYmluZGluZycsICctaW1hZScsICc8aW5maWxlLm1hZT4nLCAnLW9tYWUnLCAnPG91dGZpbGUubWFlPic=

> <r_lp_tautomer_probability>
1

> <r_epik_Ionization_Penalty>
0.00484327

> <r_epik_Ionization_Penalty_Charging>
0

> <r_epik_Ionization_Penalty_Neutral>
0.00484327

> <r_epik_State_Penalty>
0.0035131

> <r_epik_Charging_Adjusted_Penalty>
0.0035131

> <i_epik_Tot_Q>
0

> <i_epik_Tot_abs_Q>
0

> <r_epik_Metal_State_Penalty>
-0

> <b_epik_Metal_Only>
0

> <s_lp_Force_Field>
OPLS_2005

> <r_lp_Energy>
26.0036

> <b_lp_Chiralities_Consistent>
1

> <s_lp_Variant>
AV-unprocessed.smi:365-2

> <Gold.Version>
5.8.1

> <Gold.Id.Protein>
6NUR|6NUR_protein|mol2

> <Gold.PLP.Fitness>
43.4649

> <Gold.PLP.PLP>
-38.1906

> <Gold.PLP.part.hbond>
-1.0000

> <Gold.PLP.part.metal>
0.0000

> <Gold.PLP.part.buried>
-5.1034

> <Gold.PLP.part.nonpolar>
-33.0392

> <Gold.PLP.part.repulsive>
0.4116

> <Gold.PLP.ligand.clash>
0.0000

> <Gold.PLP.ligand.torsion>
0.7359

> <Gold.PLP.Chemscore.Hbond>
1.0000

> <Gold.PLP.Chemscore.CHOScore>
0.9925

> <Gold.PLP.Chemscore.Metal>
0.0000

> <Gold.Chemscore.Hbonds>
donor molecule, donor type, donor heavy atom, donor atom, acceptor molecule, acceptor atom, score
      L1  H     3    30       P1  7948  1.00
      L1  C    25    53       P1  8028  0.95

> <Gold.PLP.Chemscore.Internal.Correction>
0.7684

> <Gold.Rescore>
     Score         DG    S(hbond)    S(metal)    S(lipo)     H(rot)  DE(clash)    DE(int)     intcor
     12.56     -15.07       0.95        0.00      99.33       2.04       0.38       2.13       ----

> <Gold.Chemscore.Fitness>
12.5623

> <Gold.Chemscore.DG>
-15.0729

> <Gold.Chemscore.ZeroCoef>
-5.4800

> <Gold.Chemscore.Hbond>
0.9537

> <Gold.Chemscore.Metal>
0.0000

> <Gold.Chemscore.Lipo>
99.3304

> <Gold.Chemscore.Internal_Hbond>
0.0000

> <Gold.Chemscore.DEClash>
0.3785

> <Gold.Chemscore.DEInternal>
2.1321

> <Gold.Chemscore.Rot>
2.0367

> <Gold.Chemscore.Internal.Correction>
   9.000000E+99

> <Gold.Chemscore.Hbonds>
donor molecule, donor type, donor heavy atom, donor atom, acceptor molecule, acceptor atom, score
      L1  H     3    30       P1  7948  0.99

> <Gold.Chemscore.Hbond.Weighted>
-3.1852

> <Gold.Chemscore.Metal.Weighted>
-0.0000

> <Gold.Chemscore.Lipo.Weighted>
-11.6217

> <Gold.Chemscore.Internal_Hbond.Weighted>
0.0000

> <Gold.Chemscore.DEClash.Weighted>
0.3785

> <Gold.Chemscore.DEInternal.Weighted>
2.1321

> <Gold.Chemscore.Rot.Weighted>
5.2140

> <Gold.Chemscore.Internal.Correction.Weighted>
   9.000000E+99

> <Gold.Protein.RotatedTorsions>
[ 6907 6896 6895 6894 ] final  175.12 input  -60.11 | X-H torsion
[ 7974 7965 7964 7962 ] final -155.32 input  175.53 | X-H torsion
[ 8008 7997 7996 7995 ] final  -52.26 input   59.86 | X-H torsion
[ 10167 10162 10161 10158 ] final   37.05 input  -65.29 | X-H torsion
[ 10718 10713 10712 10709 ] final  165.72 input   66.30 | X-H torsion
[ 10763 10752 10751 10750 ] final   -0.30 input  -60.55 | X-H torsion
[ 11005 11000 10999 10996 ] final  152.77 input  -57.11 | X-H torsion

> <Gold.Protein.ActiveResidues>
 VAL166  LYS551  ARG553  GLY616  TRP617  ASP618  TYR619  PRO620  LYS621  CYS622 
 ASP623  PHE694  ASN695  SER759  ASP760  ASP761  ALA762  ILE779  LEU786  VAL792 
 PHE793  MET794  SER795  GLU796  ALA797  LYS798  CYS799  TRP800  GLU811  SER814 

> <Gold.Protein.RotatedAtoms>
  151.7413  133.3322  159.3366 H   0  0  0  0  0  0  0  0  0  0  0  0  # atno 6907 bound_to 6896
  150.7572  134.6276  159.6178 H   0  0  0  0  0  0  0  0  0  0  0  0  # atno 6908 bound_to 6896
  152.3529  134.6983  160.0282 H   0  0  0  0  0  0  0  0  0  0  0  0  # atno 6909 bound_to 6896
  144.7646  140.4266  143.5951 H   0  0  0  0  0  0  0  0  0  0  0  0  # atno 7974 bound_to 7965
  154.4102  140.1228  156.4963 H   0  0  0  0  0  0  0  0  0  0  0  0  # atno 8008 bound_to 7997
  155.6940  140.3495  155.4886 H   0  0  0  0  0  0  0  0  0  0  0  0  # atno 8009 bound_to 7997
  155.9444  140.1093  157.1019 H   0  0  0  0  0  0  0  0  0  0  0  0  # atno 8010 bound_to 7997
  140.4069  144.1646  150.6137 H   0  0  0  0  0  0  0  0  0  0  0  0  # atno 10167 bound_to 10162
  157.0761  131.0379  151.2593 H   0  0  0  0  0  0  0  0  0  0  0  0  # atno 10718 bound_to 10713
  153.3301  135.6974  153.6955 H   0  0  0  0  0  0  0  0  0  0  0  0  # atno 10763 bound_to 10752
  153.5760  135.3507  155.2857 H   0  0  0  0  0  0  0  0  0  0  0  0  # atno 10764 bound_to 10752
  154.8616  135.4283  154.2488 H   0  0  0  0  0  0  0  0  0  0  0  0  # atno 10765 bound_to 10752
  140.1337  134.8785  157.2238 H   0  0  0  0  0  0  0  0  0  0  0  0  # atno 11005 bound_to 11000
  145.6511  139.1565  143.2861 LP  0  0  0  0  0  0  0  0  0  0  0  0  # atno 17320 bound_to 7965
  146.1741  140.6600  142.9219 LP  0  0  0  0  0  0  0  0  0  0  0  0  # atno 17321 bound_to 7965
  140.4679  143.2424  151.9129 LP  0  0  0  0  0  0  0  0  0  0  0  0  # atno 17342 bound_to 10162
  139.4783  144.5400  151.8542 LP  0  0  0  0  0  0  0  0  0  0  0  0  # atno 17343 bound_to 10162
  157.4839  130.7781  149.7440 LP  0  0  0  0  0  0  0  0  0  0  0  0  # atno 17370 bound_to 10713
  155.9937  130.3923  150.2891 LP  0  0  0  0  0  0  0  0  0  0  0  0  # atno 17371 bound_to 10713
  140.2809  134.3351  155.7343 LP  0  0  0  0  0  0  0  0  0  0  0  0  # atno 17394 bound_to 11000
  141.2174  133.7478  156.9363 LP  0  0  0  0  0  0  0  0  0  0  0  0  # atno 17395 bound_to 11000

$$$$
