AV-unprocessed.smi:2026|AV-procd|sdf|8207|dock6
  -GOLD-   2272010463D 1   1.00000     0.00000
 Structure written by MMmdl.
 46 48  0  0  0  0  0  0  0  0  3 V2000
  151.8968  145.2340  160.7745 C   0  0  0  0  0  0  0  0  0  0  0  0
  151.8429  144.0198  159.8634 C   0  0  0  0  0  0  0  0  0  0  0  0
  151.2074  144.1466  158.6066 C   0  0  0  0  0  0  0  0  0  0  0  0
  151.1737  143.0175  157.7963 C   0  0  0  0  0  0  0  0  0  0  0  0
  150.6342  142.8158  156.5232 N   0  3  0  0  0  0  0  0  0  0  0  0
  150.8509  141.5274  156.1359 C   0  0  0  0  0  0  0  0  0  0  0  0
  151.5202  140.9058  157.1434 N   0  0  0  0  0  0  0  0  0  0  0  0
  152.0065  139.5261  157.2557 C   0  0  0  0  0  0  0  0  0  0  0  0
  151.8663  138.7475  155.9311 C   0  0  2  0  0  0  0  0  0  0  0  0
  152.6238  139.3939  154.9282 O   0  0  0  0  0  0  0  0  0  0  0  0
  150.4108  138.6108  155.4406 C   0  0  0  0  0  0  0  0  0  0  0  0
  149.6179  137.7112  156.2892 N   0  0  0  0  0  0  0  0  0  0  0  0
  149.8102  136.3836  156.4127 C   0  0  0  0  0  0  0  0  0  0  0  0
  150.7015  135.7881  155.8084 O   0  0  0  0  0  0  0  0  0  0  0  0
  148.9027  135.8374  157.2558 N   0  5  0  0  0  0  0  0  0  0  0  0
  148.0242  136.8827  157.7404 C   0  0  0  0  0  0  0  0  0  0  0  0
  146.5723  136.5937  157.3141 C   0  0  0  0  0  0  0  0  0  0  0  0
  148.1486  137.0165  159.2697 C   0  0  0  0  0  0  0  0  0  0  0  0
  148.5788  138.1060  157.0332 C   0  0  0  0  0  0  0  0  0  0  0  0
  148.1187  139.2436  157.1388 O   0  0  0  0  0  0  0  0  0  0  0  0
  151.7437  141.7950  158.1987 C   0  0  0  0  0  0  0  0  0  0  0  0
  152.3754  141.6528  159.4310 C   0  0  0  0  0  0  0  0  0  0  0  0
  152.4210  142.7887  160.2695 C   0  0  0  0  0  0  0  0  0  0  0  0
  153.1051  142.6625  161.6201 C   0  0  0  0  0  0  0  0  0  0  0  0
  151.3807  146.0875  160.3336 H   0  0  0  0  0  0  0  0  0  0  0  0
  152.9305  145.5277  160.9579 H   0  0  0  0  0  0  0  0  0  0  0  0
  151.4225  145.0166  161.7318 H   0  0  0  0  0  0  0  0  0  0  0  0
  150.7680  145.0814  158.2900 H   0  0  0  0  0  0  0  0  0  0  0  0
  150.5503  141.0810  155.1990 H   0  0  0  0  0  0  0  0  0  0  0  0
  153.0438  139.5692  157.5882 H   0  0  0  0  0  0  0  0  0  0  0  0
  151.4481  139.0339  158.0531 H   0  0  0  0  0  0  0  0  0  0  0  0
  152.2906  137.7504  156.0507 H   0  0  0  0  0  0  0  0  0  0  0  0
  152.2287  140.2337  154.7507 H   0  0  0  0  0  0  0  0  0  0  0  0
  149.9459  139.5958  155.3771 H   0  0  0  0  0  0  0  0  0  0  0  0
  150.4018  138.2191  154.4218 H   0  0  0  0  0  0  0  0  0  0  0  0
  145.8996  137.3912  157.6315 H   0  0  0  0  0  0  0  0  0  0  0  0
  146.2100  135.6660  157.7583 H   0  0  0  0  0  0  0  0  0  0  0  0
  146.4795  136.4936  156.2321 H   0  0  0  0  0  0  0  0  0  0  0  0
  147.4965  137.8029  159.6517 H   0  0  0  0  0  0  0  0  0  0  0  0
  149.1680  137.2584  159.5744 H   0  0  0  0  0  0  0  0  0  0  0  0
  147.8685  136.0888  159.7698 H   0  0  0  0  0  0  0  0  0  0  0  0
  152.8175  140.7155  159.7351 H   0  0  0  0  0  0  0  0  0  0  0  0
  153.5421  141.6727  161.7549 H   0  0  0  0  0  0  0  0  0  0  0  0
  152.3905  142.8244  162.4271 H   0  0  0  0  0  0  0  0  0  0  0  0
  153.9083  143.3935  161.7148 H   0  0  0  0  0  0  0  0  0  0  0  0
  150.1550  143.5043  155.9574 H   0  0  0  0  0  0  0  0  0  0  0  0
  1  2  1  0  0  0  0
  1 25  1  0  0  0  0
  1 26  1  0  0  0  0
  1 27  1  0  0  0  0
  2 23  1  0  0  0  0
  2  3  2  0  0  0  0
  3  4  1  0  0  0  0
  3 28  1  0  0  0  0
  4 21  2  0  0  0  0
  4  5  1  0  0  0  0
  5  6  2  0  0  0  0
  5 46  1  0  0  0  0
  6  7  1  0  0  0  0
  6 29  1  0  0  0  0
  7  8  1  0  0  0  0
  7 21  1  0  0  0  0
  8  9  1  0  0  0  0
  8 30  1  0  0  0  0
  8 31  1  0  0  0  0
  9 10  1  0  0  0  0
  9 11  1  0  0  0  0
  9 32  1  0  0  0  0
 10 33  1  0  0  0  0
 11 12  1  0  0  0  0
 11 34  1  0  0  0  0
 11 35  1  0  0  0  0
 12 19  1  0  0  0  0
 12 13  1  0  0  0  0
 13 14  2  0  0  0  0
 13 15  1  0  0  0  0
 15 16  1  0  0  0  0
 16 17  1  0  0  0  0
 16 18  1  0  0  0  0
 16 19  1  0  0  0  0
 17 36  1  0  0  0  0
 17 37  1  0  0  0  0
 17 38  1  0  0  0  0
 18 39  1  0  0  0  0
 18 40  1  0  0  0  0
 18 41  1  0  0  0  0
 19 20  2  0  0  0  0
 21 22  1  0  0  0  0
 22 23  2  0  0  0  0
 22 42  1  0  0  0  0
 23 24  1  0  0  0  0
 24 43  1  0  0  0  0
 24 44  1  0  0  0  0
 24 45  1  0  0  0  0
M  CHG  1   5   1
M  CHG  1  15  -1
M  END
> <s_m_source_file>
AV-unprocessed.smi

> <i_m_source_file_index>
2026

> <i_lp_mmshare_version>
43012

> <i_f3d_flags>
0

> <s_epik_input>
W0NIM11jKFtjSF0xKWMoW0NIM10pW2NIXWMoYzEyKW4oW2NIXW4yKVtDSDJdW0NASF0oW09IXSlbQ0gyXU4oQzM9TylDKD1PKVtOSF1DMyhbQ0gzXSlbQ0gzXQ==

> <s_epik_cmdline>
J2VwaWtfcHl0aG9uJywgJy1waCcsICc3LjAnLCAnLXRuJywgJzgnLCAnLW1hJywgJzIwMCcsICctbWV0YWxfYmluZGluZycsICctaW1hZScsICc8aW5maWxlLm1hZT4nLCAnLW9tYWUnLCAnPG91dGZpbGUubWFlPic=

> <r_lp_tautomer_probability>
1

> <r_epik_Ionization_Penalty>
6.70784

> <r_epik_Ionization_Penalty_Charging>
6.70784

> <r_epik_Ionization_Penalty_Neutral>
1.13852e-06

> <r_epik_State_Penalty>
6.78089

> <r_epik_Charging_Adjusted_Penalty>
13.4887

> <i_epik_Tot_Q>
0

> <i_epik_Tot_abs_Q>
2

> <r_epik_Metal_State_Penalty>
2.84685

> <b_epik_Metal_Only>
1

> <s_lp_Force_Field>
OPLS_2005

> <r_lp_Energy>
17.8482

> <b_lp_Chiralities_Consistent>
1

> <s_lp_Variant>
AV-unprocessed.smi:2026-7

> <Gold.Version>
5.8.1

> <Gold.Id.Protein>
6NUR|6NUR_protein|mol2

> <Gold.PLP.Fitness>
53.4476

> <Gold.PLP.PLP>
-41.7575

> <Gold.PLP.part.hbond>
-3.9940

> <Gold.PLP.part.metal>
0.0000

> <Gold.PLP.part.buried>
-4.8816

> <Gold.PLP.part.nonpolar>
-32.1216

> <Gold.PLP.part.repulsive>
0.1720

> <Gold.PLP.ligand.clash>
0.0000

> <Gold.PLP.ligand.torsion>
0.1689

> <Gold.PLP.Chemscore.Hbond>
4.0000

> <Gold.PLP.Chemscore.CHOScore>
0.0000

> <Gold.PLP.Chemscore.Metal>
0.0000

> <Gold.Chemscore.Hbonds>
donor molecule, donor type, donor heavy atom, donor atom, acceptor molecule, acceptor atom, score
      L1  H     5    46       P1  8028  2.00
      P1  H  7997  8010       L1    10  0.38

> <Gold.PLP.Chemscore.Internal.Correction>
0.0279

> <Gold.Rescore>
     Score         DG    S(hbond)    S(metal)    S(lipo)     H(rot)  DE(clash)    DE(int)     intcor
     17.37     -19.71       2.26        0.00     110.53       2.44       0.43       1.92       ----

> <Gold.Chemscore.Fitness>
17.3687

> <Gold.Chemscore.DG>
-19.7093

> <Gold.Chemscore.ZeroCoef>
-5.4800

> <Gold.Chemscore.Hbond>
2.2554

> <Gold.Chemscore.Metal>
0.0000

> <Gold.Chemscore.Lipo>
110.5276

> <Gold.Chemscore.Internal_Hbond>
0.0000

> <Gold.Chemscore.DEClash>
0.4251

> <Gold.Chemscore.DEInternal>
1.9155

> <Gold.Chemscore.Rot>
2.4357

> <Gold.Chemscore.Internal.Correction>
   9.000000E+99

> <Gold.Chemscore.Hbonds>
donor molecule, donor type, donor heavy atom, donor atom, acceptor molecule, acceptor atom, score
      L1  H     5    46       P1  8028  0.98
      P1  H  7997  8010       L1    10  0.04
      P1  H 10752 10764       L1    14  0.01

> <Gold.Chemscore.Hbond.Weighted>
-7.5329

> <Gold.Chemscore.Metal.Weighted>
-0.0000

> <Gold.Chemscore.Lipo.Weighted>
-12.9317

> <Gold.Chemscore.Internal_Hbond.Weighted>
0.0000

> <Gold.Chemscore.DEClash.Weighted>
0.4251

> <Gold.Chemscore.DEInternal.Weighted>
1.9155

> <Gold.Chemscore.Rot.Weighted>
6.2353

> <Gold.Chemscore.Internal.Correction.Weighted>
   9.000000E+99

> <Gold.Protein.RotatedTorsions>
[ 6907 6896 6895 6894 ] final   66.56 input  -60.11 | X-H torsion
[ 7974 7965 7964 7962 ] final -115.44 input  175.53 | X-H torsion
[ 8008 7997 7996 7995 ] final  113.62 input   59.86 | X-H torsion
[ 10167 10162 10161 10158 ] final  -95.97 input  -65.29 | X-H torsion
[ 10718 10713 10712 10709 ] final   71.38 input   66.30 | X-H torsion
[ 10763 10752 10751 10750 ] final  -56.96 input  -60.55 | X-H torsion
[ 11005 11000 10999 10996 ] final   12.90 input  -57.11 | X-H torsion

> <Gold.Protein.ActiveResidues>
 VAL166  LYS551  ARG553  GLY616  TRP617  ASP618  TYR619  PRO620  LYS621  CYS622 
 ASP623  PHE694  ASN695  SER759  ASP760  ASP761  ALA762  ILE779  LEU786  VAL792 
 PHE793  MET794  SER795  GLU796  ALA797  LYS798  CYS799  TRP800  GLU811  SER814 

> <Gold.Protein.RotatedAtoms>
  152.4490  134.5435  159.9845 H   0  0  0  0  0  0  0  0  0  0  0  0  # atno 6907 bound_to 6896
  151.5512  133.3411  159.2961 H   0  0  0  0  0  0  0  0  0  0  0  0  # atno 6908 bound_to 6896
  150.8413  134.7738  159.6998 H   0  0  0  0  0  0  0  0  0  0  0  0  # atno 6909 bound_to 6896
  145.1084  140.8596  143.3884 H   0  0  0  0  0  0  0  0  0  0  0  0  # atno 7974 bound_to 7965
  156.2269  140.2976  156.0090 H   0  0  0  0  0  0  0  0  0  0  0  0  # atno 8008 bound_to 7997
  155.2331  140.0419  157.2982 H   0  0  0  0  0  0  0  0  0  0  0  0  # atno 8009 bound_to 7997
  154.5931  140.2407  155.7901 H   0  0  0  0  0  0  0  0  0  0  0  0  # atno 8010 bound_to 7997
  140.2986  143.3176  152.0271 H   0  0  0  0  0  0  0  0  0  0  0  0  # atno 10167 bound_to 10162
  157.6449  130.9525  150.0782 H   0  0  0  0  0  0  0  0  0  0  0  0  # atno 10718 bound_to 10713
  154.2149  135.6388  153.5126 H   0  0  0  0  0  0  0  0  0  0  0  0  # atno 10763 bound_to 10752
  152.9981  135.5483  154.6176 H   0  0  0  0  0  0  0  0  0  0  0  0  # atno 10764 bound_to 10752
  154.5622  135.2910  155.0882 H   0  0  0  0  0  0  0  0  0  0  0  0  # atno 10765 bound_to 10752
  140.4868  134.0880  155.7762 H   0  0  0  0  0  0  0  0  0  0  0  0  # atno 11005 bound_to 11000
  145.0875  139.2914  143.5752 LP  0  0  0  0  0  0  0  0  0  0  0  0  # atno 17320 bound_to 7965
  146.3527  140.0401  142.8643 LP  0  0  0  0  0  0  0  0  0  0  0  0  # atno 17321 bound_to 7965
  139.4920  144.6472  151.6753 LP  0  0  0  0  0  0  0  0  0  0  0  0  # atno 17342 bound_to 10162
  140.5670  144.0173  150.6197 LP  0  0  0  0  0  0  0  0  0  0  0  0  # atno 17343 bound_to 10162
  156.1766  130.3648  149.9092 LP  0  0  0  0  0  0  0  0  0  0  0  0  # atno 17370 bound_to 10713
  156.7055  130.8950  151.3604 LP  0  0  0  0  0  0  0  0  0  0  0  0  # atno 17371 bound_to 10713
  141.1504  133.8979  157.2112 LP  0  0  0  0  0  0  0  0  0  0  0  0  # atno 17394 bound_to 11000
  139.9793  135.0103  156.9710 LP  0  0  0  0  0  0  0  0  0  0  0  0  # atno 17395 bound_to 11000

$$$$
