AV-unprocessed.smi:82|AV-procd|sdf|796|dock1
  -GOLD-   2262017173D 1   1.00000     0.00000
 Structure written by MMmdl.
 59 62  0  0  0  0  0  0  0  0  2 V2000
  151.3483  144.3207  160.0154 C   0  0  0  0  0  0  0  0  0  0  0  0
  150.6558  143.2755  159.3504 O   0  0  0  0  0  0  0  0  0  0  0  0
  151.1089  143.0211  158.0271 C   0  0  0  0  0  0  0  0  0  0  0  0
  150.5770  141.6817  157.4809 C   0  0  0  0  0  0  0  0  0  0  0  0
  149.4932  141.8459  156.4742 N   0  3  2  0  0  0  0  0  0  0  0  0
  148.1420  141.7734  157.0897 C   0  0  0  0  0  0  0  0  0  0  0  0
  147.0439  142.1117  156.0665 C   0  0  0  0  0  0  0  0  0  0  0  0
  147.1685  141.2867  154.8676 N   0  0  0  0  0  0  0  0  0  0  0  0
  146.4912  140.1093  154.7913 C   0  0  0  0  0  0  0  0  0  0  0  0
  145.8041  139.6577  155.8746 N   0  0  0  0  0  0  0  0  0  0  0  0
  145.1483  138.4950  155.8269 C   0  0  0  0  0  0  0  0  0  0  0  0
  145.0416  137.6400  154.8092 N   0  0  0  0  0  0  0  0  0  0  0  0
  145.7119  138.0921  153.7112 C   0  0  0  0  0  0  0  0  0  0  0  0
  146.4576  139.3016  153.6174 C   0  0  0  0  0  0  0  0  0  0  0  0
  146.9935  139.4223  152.3409 N   0  0  0  0  0  0  0  0  0  0  0  0
  146.5986  138.3435  151.7216 C   0  0  0  0  0  0  0  0  0  0  0  0
  145.8119  137.4931  152.4674 N   0  0  0  0  0  0  0  0  0  0  0  0
  145.2471  136.2350  152.0668 C   0  0  0  0  0  0  0  0  0  0  0  0
  145.6514  134.9415  152.7731 C   0  0  0  0  0  0  0  0  0  0  0  0
  145.4121  134.1615  151.4590 C   0  0  0  0  0  0  0  0  0  0  0  0
  146.4561  133.0816  151.1285 C   0  0  0  0  0  0  0  0  0  0  0  0
  146.2550  132.5551  149.8326 O   0  0  0  0  0  0  0  0  0  0  0  0
  143.9994  133.5638  151.2957 C   0  0  0  0  0  0  0  0  0  0  0  0
  143.7453  133.1973  149.9545 O   0  0  0  0  0  0  0  0  0  0  0  0
  145.6345  135.5250  150.7656 C   0  0  0  0  0  0  0  0  0  0  0  0
  148.4850  141.3449  154.2360 C   0  0  0  0  0  0  0  0  0  0  0  0
  149.6218  141.0195  155.2323 C   0  0  2  0  0  0  0  0  0  0  0  0
  149.7355  139.5051  155.5071 C   0  0  0  0  0  0  0  0  0  0  0  0
  150.8970  144.4873  160.9935 H   0  0  0  0  0  0  0  0  0  0  0  0
  151.2866  145.2552  159.4565 H   0  0  0  0  0  0  0  0  0  0  0  0
  152.3980  144.0757  160.1759 H   0  0  0  0  0  0  0  0  0  0  0  0
  150.7824  143.8435  157.3914 H   0  0  0  0  0  0  0  0  0  0  0  0
  152.1993  143.0398  157.9908 H   0  0  0  0  0  0  0  0  0  0  0  0
  151.3947  141.0949  157.0624 H   0  0  0  0  0  0  0  0  0  0  0  0
  150.1976  141.0886  158.3130 H   0  0  0  0  0  0  0  0  0  0  0  0
  147.9820  140.7796  157.5086 H   0  0  0  0  0  0  0  0  0  0  0  0
  148.0784  142.4749  157.9219 H   0  0  0  0  0  0  0  0  0  0  0  0
  146.0539  142.0153  156.5137 H   0  0  0  0  0  0  0  0  0  0  0  0
  147.1360  143.1564  155.7668 H   0  0  0  0  0  0  0  0  0  0  0  0
  144.6355  138.2096  156.7337 H   0  0  0  0  0  0  0  0  0  0  0  0
  146.8755  138.1479  150.6967 H   0  0  0  0  0  0  0  0  0  0  0  0
  144.1641  136.3668  152.1037 H   0  0  0  0  0  0  0  0  0  0  0  0
  146.6982  134.9484  153.0827 H   0  0  0  0  0  0  0  0  0  0  0  0
  145.0023  134.6640  153.6040 H   0  0  0  0  0  0  0  0  0  0  0  0
  147.4649  133.4938  151.1665 H   0  0  0  0  0  0  0  0  0  0  0  0
  146.4337  132.2650  151.8504 H   0  0  0  0  0  0  0  0  0  0  0  0
  146.0199  133.2641  149.2537 H   0  0  0  0  0  0  0  0  0  0  0  0
  143.8720  132.6742  151.9124 H   0  0  0  0  0  0  0  0  0  0  0  0
  143.2294  134.2652  151.6181 H   0  0  0  0  0  0  0  0  0  0  0  0
  142.9047  133.5475  149.7021 H   0  0  0  0  0  0  0  0  0  0  0  0
  144.9664  135.7229  149.9267 H   0  0  0  0  0  0  0  0  0  0  0  0
  146.6755  135.6765  150.4771 H   0  0  0  0  0  0  0  0  0  0  0  0
  148.5578  140.6922  153.3674 H   0  0  0  0  0  0  0  0  0  0  0  0
  148.6189  142.3584  153.8561 H   0  0  0  0  0  0  0  0  0  0  0  0
  150.5428  141.3168  154.7319 H   0  0  0  0  0  0  0  0  0  0  0  0
  149.7662  138.9458  154.5715 H   0  0  0  0  0  0  0  0  0  0  0  0
  148.8939  139.1252  156.0849 H   0  0  0  0  0  0  0  0  0  0  0  0
  150.6486  139.2598  156.0483 H   0  0  0  0  0  0  0  0  0  0  0  0
  149.5767  142.8014  156.1570 H   0  0  0  0  0  0  0  0  0  0  0  0
  1  2  1  0  0  0  0
  1 29  1  0  0  0  0
  1 30  1  0  0  0  0
  1 31  1  0  0  0  0
  2  3  1  0  0  0  0
  3  4  1  0  0  0  0
  3 32  1  0  0  0  0
  3 33  1  0  0  0  0
  4  5  1  0  0  0  0
  4 34  1  0  0  0  0
  4 35  1  0  0  0  0
  5 27  1  0  0  0  0
  5  6  1  0  0  0  0
  5 59  1  0  0  0  0
  6  7  1  0  0  0  0
  6 36  1  0  0  0  0
  6 37  1  0  0  0  0
  7  8  1  0  0  0  0
  7 38  1  0  0  0  0
  7 39  1  0  0  0  0
  8  9  1  0  0  0  0
  8 26  1  0  0  0  0
  9 14  1  0  0  0  0
  9 10  2  0  0  0  0
 10 11  1  0  0  0  0
 11 12  2  0  0  0  0
 11 40  1  0  0  0  0
 12 13  1  0  0  0  0
 13 17  1  0  0  0  0
 13 14  2  0  0  0  0
 14 15  1  0  0  0  0
 15 16  2  0  0  0  0
 16 17  1  0  0  0  0
 16 41  1  0  0  0  0
 17 18  1  0  0  0  0
 18 25  1  0  0  0  0
 18 19  1  0  0  0  0
 18 42  1  0  0  0  0
 19 20  1  0  0  0  0
 19 43  1  0  0  0  0
 19 44  1  0  0  0  0
 20 21  1  0  0  0  0
 20 23  1  0  0  0  0
 20 25  1  0  0  0  0
 21 22  1  0  0  0  0
 21 45  1  0  0  0  0
 21 46  1  0  0  0  0
 22 47  1  0  0  0  0
 23 24  1  0  0  0  0
 23 48  1  0  0  0  0
 23 49  1  0  0  0  0
 24 50  1  0  0  0  0
 25 51  1  0  0  0  0
 25 52  1  0  0  0  0
 26 27  1  0  0  0  0
 26 53  1  0  0  0  0
 26 54  1  0  0  0  0
 27 28  1  0  0  0  0
 27 55  1  0  0  0  0
 28 56  1  0  0  0  0
 28 57  1  0  0  0  0
 28 58  1  0  0  0  0
M  CHG  1   5   1
M  END
> <s_m_source_file>
AV-unprocessed.smi

> <i_m_source_file_index>
82

> <i_lp_mmshare_version>
43012

> <i_f3d_flags>
0

> <s_epik_input>
W0NIM11PW0NIMl1bQ0gyXU4xW0NIMl1bQ0gyXU4oW0NIMl1bQ0BIXTFbQ0gzXSljKG5bY0hdbjIpYyhjMjMpbltjSF1uM1tDSF0oW0NIMl00KVtDSDJdQzQoW0NIMl1bT0hdKVtDSDJdW09IXQ==

> <s_epik_cmdline>
J2VwaWtfcHl0aG9uJywgJy1waCcsICc3LjAnLCAnLXRuJywgJzgnLCAnLW1hJywgJzIwMCcsICctbWV0YWxfYmluZGluZycsICctaW1hZScsICc8aW5maWxlLm1hZT4nLCAnLW9tYWUnLCAnPG91dGZpbGUubWFlPic=

> <r_lp_tautomer_probability>
1

> <r_epik_Ionization_Penalty>
0.304275

> <r_epik_Ionization_Penalty_Charging>
0.304214

> <r_epik_Ionization_Penalty_Neutral>
6.13137e-05

> <r_epik_State_Penalty>
0.300354

> <r_epik_Charging_Adjusted_Penalty>
0.604567

> <i_epik_Tot_Q>
1

> <i_epik_Tot_abs_Q>
1

> <r_epik_Metal_State_Penalty>
0.301147

> <b_epik_Metal_Only>
0

> <s_lp_Force_Field>
OPLS_2005

> <r_lp_Energy>
59.6891

> <b_lp_Chiralities_Consistent>
1

> <s_lp_Variant>
AV-unprocessed.smi:82-3

> <Gold.Version>
5.8.1

> <Gold.Id.Protein>
6NUR|6NUR_protein|mol2

> <Gold.PLP.Fitness>
53.4143

> <Gold.PLP.PLP>
-43.9024

> <Gold.PLP.part.hbond>
-3.0000

> <Gold.PLP.part.metal>
0.0000

> <Gold.PLP.part.buried>
-2.9606

> <Gold.PLP.part.nonpolar>
-38.8280

> <Gold.PLP.part.repulsive>
1.0141

> <Gold.PLP.ligand.clash>
0.0000

> <Gold.PLP.ligand.torsion>
1.5300

> <Gold.PLP.Chemscore.Hbond>
3.7040

> <Gold.PLP.Chemscore.CHOScore>
0.1582

> <Gold.PLP.Chemscore.Metal>
0.0000

> <Gold.Chemscore.Hbonds>
donor molecule, donor type, donor heavy atom, donor atom, acceptor molecule, acceptor atom, score
      L1  H     5    59       P1  8028  1.66
      L1  H    22    47       P1  7921  0.20
      L1  H    24    50       P1 10186  0.84

> <Gold.PLP.Chemscore.Internal.Correction>
0.9854

> <Gold.Rescore>
     Score         DG    S(hbond)    S(metal)    S(lipo)     H(rot)  DE(clash)    DE(int)     intcor
     11.76     -14.11       2.20        0.00      89.74       3.60       1.04       1.31       ----

> <Gold.Chemscore.Fitness>
11.7607

> <Gold.Chemscore.DG>
-14.1088

> <Gold.Chemscore.ZeroCoef>
-5.4800

> <Gold.Chemscore.Hbond>
2.1958

> <Gold.Chemscore.Metal>
0.0000

> <Gold.Chemscore.Lipo>
89.7404

> <Gold.Chemscore.Internal_Hbond>
0.0000

> <Gold.Chemscore.DEClash>
1.0425

> <Gold.Chemscore.DEInternal>
1.3056

> <Gold.Chemscore.Rot>
3.5956

> <Gold.Chemscore.Internal.Correction>
   9.000000E+99

> <Gold.Chemscore.Hbonds>
donor molecule, donor type, donor heavy atom, donor atom, acceptor molecule, acceptor atom, score
      L1  H     5    59       P1  8028  0.79
      L1  H    22    47       P1  7921  0.01
      L1  H    24    50       P1 10186  0.82

> <Gold.Chemscore.Hbond.Weighted>
-7.3339

> <Gold.Chemscore.Metal.Weighted>
-0.0000

> <Gold.Chemscore.Lipo.Weighted>
-10.4996

> <Gold.Chemscore.Internal_Hbond.Weighted>
0.0000

> <Gold.Chemscore.DEClash.Weighted>
1.0425

> <Gold.Chemscore.DEInternal.Weighted>
1.3056

> <Gold.Chemscore.Rot.Weighted>
9.2047

> <Gold.Chemscore.Internal.Correction.Weighted>
   9.000000E+99

> <Gold.Protein.RotatedTorsions>
[ 6907 6896 6895 6894 ] final   26.79 input  -60.11 | X-H torsion
[ 7974 7965 7964 7962 ] final  -88.44 input  175.53 | X-H torsion
[ 8008 7997 7996 7995 ] final  -43.20 input   59.86 | X-H torsion
[ 10167 10162 10161 10158 ] final  -61.40 input  -65.29 | X-H torsion
[ 10718 10713 10712 10709 ] final   71.76 input   66.30 | X-H torsion
[ 10763 10752 10751 10750 ] final  147.91 input  -60.55 | X-H torsion
[ 11005 11000 10999 10996 ] final   60.25 input  -57.11 | X-H torsion

> <Gold.Protein.ActiveResidues>
 VAL166  LYS551  ARG553  GLY616  TRP617  ASP618  TYR619  PRO620  LYS621  CYS622 
 ASP623  PHE694  ASN695  SER759  ASP760  ASP761  ALA762  ILE779  LEU786  VAL792 
 PHE793  MET794  SER795  GLU796  ALA797  LYS798  CYS799  TRP800  GLU811  SER814 

> <Gold.Protein.RotatedAtoms>
  151.9927  134.9970  160.0561 H   0  0  0  0  0  0  0  0  0  0  0  0  # atno 6907 bound_to 6896
  152.1593  133.4567  159.4861 H   0  0  0  0  0  0  0  0  0  0  0  0  # atno 6908 bound_to 6896
  150.6885  134.2009  159.4365 H   0  0  0  0  0  0  0  0  0  0  0  0  # atno 6909 bound_to 6896
  145.4532  140.9561  143.2011 H   0  0  0  0  0  0  0  0  0  0  0  0  # atno 7974 bound_to 7965
  154.3997  140.1454  156.3480 H   0  0  0  0  0  0  0  0  0  0  0  0  # atno 8008 bound_to 7997
  155.8295  140.3466  155.5542 H   0  0  0  0  0  0  0  0  0  0  0  0  # atno 8009 bound_to 7997
  155.8203  140.0897  157.1843 H   0  0  0  0  0  0  0  0  0  0  0  0  # atno 8010 bound_to 7997
  140.6008  143.2361  151.5932 H   0  0  0  0  0  0  0  0  0  0  0  0  # atno 10167 bound_to 10162
  157.6468  130.9545  150.0834 H   0  0  0  0  0  0  0  0  0  0  0  0  # atno 10718 bound_to 10713
  154.0461  135.2885  155.3348 H   0  0  0  0  0  0  0  0  0  0  0  0  # atno 10763 bound_to 10752
  154.6899  135.5230  153.8381 H   0  0  0  0  0  0  0  0  0  0  0  0  # atno 10764 bound_to 10752
  153.0580  135.6603  154.0661 H   0  0  0  0  0  0  0  0  0  0  0  0  # atno 10765 bound_to 10752
  140.0245  134.6103  155.9592 H   0  0  0  0  0  0  0  0  0  0  0  0  # atno 11005 bound_to 11000
  144.8049  139.6071  143.7055 LP  0  0  0  0  0  0  0  0  0  0  0  0  # atno 17320 bound_to 7965
  146.2493  139.6165  142.9438 LP  0  0  0  0  0  0  0  0  0  0  0  0  # atno 17321 bound_to 7965
  139.5290  144.2973  152.1103 LP  0  0  0  0  0  0  0  0  0  0  0  0  # atno 17342 bound_to 10162
  140.2154  144.4521  150.6366 LP  0  0  0  0  0  0  0  0  0  0  0  0  # atno 17343 bound_to 10162
  156.1804  130.3650  149.9043 LP  0  0  0  0  0  0  0  0  0  0  0  0  # atno 17370 bound_to 10713
  156.6997  130.8928  151.3598 LP  0  0  0  0  0  0  0  0  0  0  0  0  # atno 17371 bound_to 10713
  141.1794  133.6544  156.4959 LP  0  0  0  0  0  0  0  0  0  0  0  0  # atno 17394 bound_to 11000
  140.4330  134.7085  157.4952 LP  0  0  0  0  0  0  0  0  0  0  0  0  # atno 17395 bound_to 11000

$$$$
