AV-unprocessed.smi:1774|AV-procd|sdf|7164|dock4
  -GOLD-   22720 8403D 1   1.00000     0.00000
 Structure written by MMmdl.
 45 46  0  0  0  0  0  0  0  0  1 V2000
  145.1636  135.0132  151.2399 C   0  0  0  0  0  0  0  0  0  0  0  0
  145.2499  133.4962  151.2828 C   0  0  0  0  0  0  0  0  0  0  0  0
  144.2300  132.7292  150.6806 C   0  0  0  0  0  0  0  0  0  0  0  0
  144.3107  131.3268  150.7230 C   0  0  0  0  0  0  0  0  0  0  0  0
  145.4150  130.7469  151.3704 C   0  0  0  0  0  0  0  0  0  0  0  0
  146.3942  131.4719  151.9481 N   0  0  0  0  0  0  0  0  0  0  0  0
  146.3318  132.8270  151.9162 C   0  0  0  0  0  0  0  0  0  0  0  0
  147.3334  133.6555  152.4967 N   0  0  0  0  0  0  0  0  0  0  0  0
  148.0182  133.4655  153.6383 C   0  0  0  0  0  0  0  0  0  0  0  0
  147.8493  132.5323  154.4235 O   0  0  0  0  0  0  0  0  0  0  0  0
  148.9229  134.4378  153.8261 N   0  0  0  0  0  0  0  0  0  0  0  0
  149.8514  134.5222  154.9491 C   0  0  0  0  0  0  0  0  0  0  0  0
  149.6581  135.8247  155.7511 C   0  0  0  0  0  0  0  0  0  0  0  0
  149.9994  137.0584  155.0428 N   0  0  0  0  0  0  0  0  0  0  0  0
  151.4275  137.3612  155.0950 C   0  0  0  0  0  0  0  0  0  0  0  0
  151.7646  138.6606  154.3395 C   0  0  2  0  0  0  0  0  0  0  0  0
  153.2474  139.0287  154.4522 C   0  0  0  0  0  0  0  0  0  0  0  0
  150.9930  139.7288  154.8826 O   0  0  0  0  0  0  0  0  0  0  0  0
  149.5882  139.4980  154.8174 C   0  0  2  0  0  0  0  0  0  0  0  0
  148.8717  140.7130  155.4156 C   0  0  0  0  0  0  0  0  0  0  0  0
  149.2572  138.1960  155.5715 C   0  0  0  0  0  0  0  0  0  0  0  0
  144.2580  135.3455  150.7317 H   0  0  0  0  0  0  0  0  0  0  0  0
  146.0191  135.4296  150.7075 H   0  0  0  0  0  0  0  0  0  0  0  0
  145.1497  135.4234  152.2501 H   0  0  0  0  0  0  0  0  0  0  0  0
  143.3941  133.2069  150.1908 H   0  0  0  0  0  0  0  0  0  0  0  0
  143.5465  130.7117  150.2712 H   0  0  0  0  0  0  0  0  0  0  0  0
  145.5159  129.6731  151.4261 H   0  0  0  0  0  0  0  0  0  0  0  0
  147.5642  134.4850  151.9707 H   0  0  0  0  0  0  0  0  0  0  0  0
  148.9877  135.1661  153.1303 H   0  0  0  0  0  0  0  0  0  0  0  0
  149.6413  133.6746  155.6016 H   0  0  0  0  0  0  0  0  0  0  0  0
  150.8833  134.3914  154.6227 H   0  0  0  0  0  0  0  0  0  0  0  0
  148.6139  135.8693  156.0637 H   0  0  0  0  0  0  0  0  0  0  0  0
  150.2389  135.7658  156.6728 H   0  0  0  0  0  0  0  0  0  0  0  0
  151.7477  137.4500  156.1345 H   0  0  0  0  0  0  0  0  0  0  0  0
  152.0046  136.5463  154.6603 H   0  0  0  0  0  0  0  0  0  0  0  0
  151.5126  138.5431  153.2840 H   0  0  0  0  0  0  0  0  0  0  0  0
  153.8782  138.2433  154.0350 H   0  0  0  0  0  0  0  0  0  0  0  0
  153.5400  139.1768  155.4920 H   0  0  0  0  0  0  0  0  0  0  0  0
  153.4619  139.9500  153.9102 H   0  0  0  0  0  0  0  0  0  0  0  0
  149.2950  139.3982  153.7709 H   0  0  0  0  0  0  0  0  0  0  0  0
  147.7892  140.5872  155.3795 H   0  0  0  0  0  0  0  0  0  0  0  0
  149.1194  141.6207  154.8649 H   0  0  0  0  0  0  0  0  0  0  0  0
  149.1575  140.8663  156.4565 H   0  0  0  0  0  0  0  0  0  0  0  0
  148.1864  138.0016  155.4992 H   0  0  0  0  0  0  0  0  0  0  0  0
  149.4807  138.3215  156.6322 H   0  0  0  0  0  0  0  0  0  0  0  0
  1  2  1  0  0  0  0
  1 22  1  0  0  0  0
  1 23  1  0  0  0  0
  1 24  1  0  0  0  0
  2  7  1  0  0  0  0
  2  3  2  0  0  0  0
  3  4  1  0  0  0  0
  3 25  1  0  0  0  0
  4  5  2  0  0  0  0
  4 26  1  0  0  0  0
  5  6  1  0  0  0  0
  5 27  1  0  0  0  0
  6  7  2  0  0  0  0
  7  8  1  0  0  0  0
  8  9  1  0  0  0  0
  8 28  1  0  0  0  0
  9 10  2  0  0  0  0
  9 11  1  0  0  0  0
 11 12  1  0  0  0  0
 11 29  1  0  0  0  0
 12 13  1  0  0  0  0
 12 30  1  0  0  0  0
 12 31  1  0  0  0  0
 13 14  1  0  0  0  0
 13 32  1  0  0  0  0
 13 33  1  0  0  0  0
 14 21  1  0  0  0  0
 14 15  1  0  0  0  0
 15 16  1  0  0  0  0
 15 34  1  0  0  0  0
 15 35  1  0  0  0  0
 16 17  1  0  0  0  0
 16 18  1  0  0  0  0
 16 36  1  0  0  0  0
 17 37  1  0  0  0  0
 17 38  1  0  0  0  0
 17 39  1  0  0  0  0
 18 19  1  0  0  0  0
 19 20  1  0  0  0  0
 19 21  1  0  0  0  0
 19 40  1  0  0  0  0
 20 41  1  0  0  0  0
 20 42  1  0  0  0  0
 20 43  1  0  0  0  0
 21 44  1  0  0  0  0
 21 45  1  0  0  0  0
M  END
> <s_m_source_file>
AV-unprocessed.smi

> <i_m_source_file_index>
1774

> <i_lp_mmshare_version>
43012

> <i_f3d_flags>
0

> <s_epik_input>
W0NIM11jMVtjSF1bY0hdW2NIXW5jMVtOSF1DKD1PKVtOSF1bQ0gyXVtDSDJdTjJbQ0gyXVtDQEBIXShbQ0gzXSlPW0NAQEhdKFtDSDNdKVtDSDJdMg==

> <s_epik_cmdline>
J2VwaWtfcHl0aG9uJywgJy1waCcsICc3LjAnLCAnLXRuJywgJzgnLCAnLW1hJywgJzIwMCcsICctbWV0YWxfYmluZGluZycsICctaW1hZScsICc8aW5maWxlLm1hZT4nLCAnLW9tYWUnLCAnPG91dGZpbGUubWFlPic=

> <r_epik_Ionization_Penalty>
0.266047

> <r_epik_Ionization_Penalty_Charging>
0

> <r_epik_Ionization_Penalty_Neutral>
0.266047

> <r_epik_State_Penalty>
0.257924

> <r_epik_Charging_Adjusted_Penalty>
0.257924

> <i_epik_Tot_Q>
0

> <i_epik_Tot_abs_Q>
0

> <r_epik_Metal_State_Penalty>
0.257922

> <b_epik_Metal_Only>
0

> <s_lp_Force_Field>
OPLS_2005

> <r_lp_Energy>
26.8029

> <b_lp_Chiralities_Consistent>
1

> <s_lp_Variant>
AV-unprocessed.smi:1774-1

> <Gold.Version>
5.8.1

> <Gold.Id.Protein>
6NUR|6NUR_protein|mol2

> <Gold.PLP.Fitness>
44.7667

> <Gold.PLP.PLP>
-37.0559

> <Gold.PLP.part.hbond>
-3.0000

> <Gold.PLP.part.metal>
0.0000

> <Gold.PLP.part.buried>
-4.5088

> <Gold.PLP.part.nonpolar>
-30.1508

> <Gold.PLP.part.repulsive>
0.3887

> <Gold.PLP.ligand.clash>
0.0000

> <Gold.PLP.ligand.torsion>
0.5647

> <Gold.PLP.Chemscore.Hbond>
2.9280

> <Gold.PLP.Chemscore.CHOScore>
0.0000

> <Gold.PLP.Chemscore.Metal>
0.0000

> <Gold.Chemscore.Hbonds>
donor molecule, donor type, donor heavy atom, donor atom, acceptor molecule, acceptor atom, score
      L1  H     8    28       P1  7948  0.55
      L1  H    11    29       P1  7948  1.00
      P1  H  7989  7998       L1    18  0.45

> <Gold.PLP.Chemscore.Internal.Correction>
0.0562

> <Gold.Rescore>
     Score         DG    S(hbond)    S(metal)    S(lipo)     H(rot)  DE(clash)    DE(int)     intcor
     14.96     -15.64       1.08        0.00      87.95       1.46       0.08       0.60       ----

> <Gold.Chemscore.Fitness>
14.9650

> <Gold.Chemscore.DG>
-15.6434

> <Gold.Chemscore.ZeroCoef>
-5.4800

> <Gold.Chemscore.Hbond>
1.0782

> <Gold.Chemscore.Metal>
0.0000

> <Gold.Chemscore.Lipo>
87.9497

> <Gold.Chemscore.Internal_Hbond>
0.0000

> <Gold.Chemscore.DEClash>
0.0803

> <Gold.Chemscore.DEInternal>
0.5982

> <Gold.Chemscore.Rot>
1.4562

> <Gold.Chemscore.Internal.Correction>
   9.000000E+99

> <Gold.Chemscore.Hbonds>
donor molecule, donor type, donor heavy atom, donor atom, acceptor molecule, acceptor atom, score
      L1  H     8    28       P1  7948  0.25
      L1  H    11    29       P1  7948  0.30
      P1  H  7989  7998       L1    18  0.01

> <Gold.Chemscore.Hbond.Weighted>
-3.6012

> <Gold.Chemscore.Metal.Weighted>
-0.0000

> <Gold.Chemscore.Lipo.Weighted>
-10.2901

> <Gold.Chemscore.Internal_Hbond.Weighted>
0.0000

> <Gold.Chemscore.DEClash.Weighted>
0.0803

> <Gold.Chemscore.DEInternal.Weighted>
0.5982

> <Gold.Chemscore.Rot.Weighted>
3.7278

> <Gold.Chemscore.Internal.Correction.Weighted>
   9.000000E+99

> <Gold.Protein.RotatedTorsions>
[ 6907 6896 6895 6894 ] final  -91.38 input  -60.11 | X-H torsion
[ 7974 7965 7964 7962 ] final  100.29 input  175.53 | X-H torsion
[ 8008 7997 7996 7995 ] final   -3.90 input   59.86 | X-H torsion
[ 10167 10162 10161 10158 ] final   97.71 input  -65.29 | X-H torsion
[ 10718 10713 10712 10709 ] final -161.06 input   66.30 | X-H torsion
[ 10763 10752 10751 10750 ] final   91.83 input  -60.55 | X-H torsion
[ 11005 11000 10999 10996 ] final  -24.64 input  -57.11 | X-H torsion

> <Gold.Protein.ActiveResidues>
 VAL166  LYS551  ARG553  GLY616  TRP617  ASP618  TYR619  PRO620  LYS621  CYS622 
 ASP623  PHE694  ASN695  SER759  ASP760  ASP761  ALA762  ILE779  LEU786  VAL792 
 PHE793  MET794  SER795  GLU796  ALA797  LYS798  CYS799  TRP800  GLU811  SER814 

> <Gold.Protein.RotatedAtoms>
  150.6892  134.2287  159.4425 H   0  0  0  0  0  0  0  0  0  0  0  0  # atno 6907 bound_to 6896
  152.0238  134.9805  160.0580 H   0  0  0  0  0  0  0  0  0  0  0  0  # atno 6908 bound_to 6896
  152.1371  133.4407  159.4785 H   0  0  0  0  0  0  0  0  0  0  0  0  # atno 6909 bound_to 6896
  145.3875  139.2369  143.3370 H   0  0  0  0  0  0  0  0  0  0  0  0  # atno 7974 bound_to 7965
  154.6200  140.2497  155.7561 H   0  0  0  0  0  0  0  0  0  0  0  0  # atno 8008 bound_to 7997
  156.2421  140.2928  156.0422 H   0  0  0  0  0  0  0  0  0  0  0  0  # atno 8009 bound_to 7997
  155.1912  140.0391  157.2891 H   0  0  0  0  0  0  0  0  0  0  0  0  # atno 8010 bound_to 7997
  139.7775  144.6900  151.0068 H   0  0  0  0  0  0  0  0  0  0  0  0  # atno 10167 bound_to 10162
  156.5909  130.8769  151.2889 H   0  0  0  0  0  0  0  0  0  0  0  0  # atno 10718 bound_to 10713
  153.2125  135.4383  155.0396 H   0  0  0  0  0  0  0  0  0  0  0  0  # atno 10763 bound_to 10752
  154.8207  135.3336  154.7048 H   0  0  0  0  0  0  0  0  0  0  0  0  # atno 10764 bound_to 10752
  153.7485  135.7000  153.5007 H   0  0  0  0  0  0  0  0  0  0  0  0  # atno 10765 bound_to 10752
  140.8864  133.7618  156.0366 H   0  0  0  0  0  0  0  0  0  0  0  0  # atno 11005 bound_to 11000
  146.2813  140.4552  142.8775 LP  0  0  0  0  0  0  0  0  0  0  0  0  # atno 17320 bound_to 7965
  144.8464  140.6935  143.6196 LP  0  0  0  0  0  0  0  0  0  0  0  0  # atno 17321 bound_to 7965
  140.7817  143.4519  151.0400 LP  0  0  0  0  0  0  0  0  0  0  0  0  # atno 17342 bound_to 10162
  139.8201  143.7832  152.3176 LP  0  0  0  0  0  0  0  0  0  0  0  0  # atno 17343 bound_to 10162
  157.7304  130.9685  150.1831 LP  0  0  0  0  0  0  0  0  0  0  0  0  # atno 17370 bound_to 10713
  156.2551  130.3704  149.8190 LP  0  0  0  0  0  0  0  0  0  0  0  0  # atno 17371 bound_to 10713
  140.8400  134.3078  157.5317 LP  0  0  0  0  0  0  0  0  0  0  0  0  # atno 17394 bound_to 11000
  139.8725  134.9410  156.3786 LP  0  0  0  0  0  0  0  0  0  0  0  0  # atno 17395 bound_to 11000

$$$$
