AV-unprocessed.smi:1966|AV-procd|sdf|7949|dock1
  -GOLD-   2272010113D 1   1.00000     0.00000
 Structure written by MMmdl.
 53 54  0  0  0  0  0  0  0  0  1 V2000
  146.4818  134.2531  153.6891 C   0  0  0  0  0  0  0  0  0  0  0  0
  147.7866  134.1615  154.4722 C   0  0  0  0  0  0  0  0  0  0  0  0
  147.7993  133.6609  155.5965 O   0  0  0  0  0  0  0  0  0  0  0  0
  148.8794  134.6515  153.8653 N   0  0  0  0  0  0  0  0  0  0  0  0
  150.2321  134.6552  154.4272 C   0  0  1  0  0  0  0  0  0  0  0  0
  150.3250  135.7709  155.4867 C   0  0  0  0  0  0  0  0  0  0  0  0
  149.6492  135.6989  156.5138 O   0  0  0  0  0  0  0  0  0  0  0  0
  151.1988  136.7575  155.2131 N   0  0  0  0  0  0  0  0  0  0  0  0
  151.5144  137.9107  155.9815 C   0  0  0  0  0  0  0  0  0  0  0  0
  150.6343  138.2692  157.0208 C   0  0  0  0  0  0  0  0  0  0  0  0
  150.9243  139.3960  157.8128 C   0  0  0  0  0  0  0  0  0  0  0  0
  152.0998  140.1384  157.5519 C   0  0  0  0  0  0  0  0  0  0  0  0
  152.4113  141.2719  158.3338 N   0  0  0  0  0  0  0  0  0  0  0  0
  151.5240  142.4184  158.1591 C   0  0  0  0  0  0  0  0  0  0  0  0
  152.1308  143.6750  158.8124 C   0  0  1  0  0  0  0  0  0  0  0  0
  151.1717  144.8685  158.7616 C   0  0  0  0  0  0  0  0  0  0  0  0
  152.4283  143.3995  160.1784 O   0  0  0  0  0  0  0  0  0  0  0  0
  153.3831  142.3524  160.3261 C   0  0  1  0  0  0  0  0  0  0  0  0
  153.7060  142.2026  161.8163 C   0  0  0  0  0  0  0  0  0  0  0  0
  152.8069  141.0571  159.7243 C   0  0  0  0  0  0  0  0  0  0  0  0
  152.9508  139.7890  156.5561 N   0  0  0  0  0  0  0  0  0  0  0  0
  152.6699  138.7070  155.7994 C   0  0  0  0  0  0  0  0  0  0  0  0
  150.5113  133.2696  155.0817 C   0  0  0  0  0  0  0  0  0  0  0  0
  151.8689  133.2090  155.8128 C   0  0  0  0  0  0  0  0  0  0  0  0
  150.4438  132.1250  154.0515 C   0  0  0  0  0  0  0  0  0  0  0  0
  146.5711  133.7306  152.7363 H   0  0  0  0  0  0  0  0  0  0  0  0
  146.2298  135.2953  153.4908 H   0  0  0  0  0  0  0  0  0  0  0  0
  145.6613  133.8034  154.2494 H   0  0  0  0  0  0  0  0  0  0  0  0
  148.7733  135.0365  152.9381 H   0  0  0  0  0  0  0  0  0  0  0  0
  150.9592  134.8318  153.6315 H   0  0  0  0  0  0  0  0  0  0  0  0
  151.7372  136.6429  154.3667 H   0  0  0  0  0  0  0  0  0  0  0  0
  149.7404  137.6924  157.2089 H   0  0  0  0  0  0  0  0  0  0  0  0
  150.2397  139.6833  158.5967 H   0  0  0  0  0  0  0  0  0  0  0  0
  151.3344  142.6219  157.1063 H   0  0  0  0  0  0  0  0  0  0  0  0
  150.5604  142.1858  158.6148 H   0  0  0  0  0  0  0  0  0  0  0  0
  153.0521  143.9486  158.2950 H   0  0  0  0  0  0  0  0  0  0  0  0
  150.9253  145.1298  157.7323 H   0  0  0  0  0  0  0  0  0  0  0  0
  151.6172  145.7462  159.2304 H   0  0  0  0  0  0  0  0  0  0  0  0
  150.2402  144.6484  159.2840 H   0  0  0  0  0  0  0  0  0  0  0  0
  154.2992  142.6262  159.7991 H   0  0  0  0  0  0  0  0  0  0  0  0
  154.4409  141.4142  161.9809 H   0  0  0  0  0  0  0  0  0  0  0  0
  152.8130  141.9547  162.3906 H   0  0  0  0  0  0  0  0  0  0  0  0
  154.1156  143.1289  162.2205 H   0  0  0  0  0  0  0  0  0  0  0  0
  151.9387  140.7293  160.2980 H   0  0  0  0  0  0  0  0  0  0  0  0
  153.5554  140.2658  159.7831 H   0  0  0  0  0  0  0  0  0  0  0  0
  153.4112  138.4821  155.0493 H   0  0  0  0  0  0  0  0  0  0  0  0
  149.7361  133.0748  155.8252 H   0  0  0  0  0  0  0  0  0  0  0  0
  152.6912  133.4452  155.1367 H   0  0  0  0  0  0  0  0  0  0  0  0
  152.0515  132.2138  156.2194 H   0  0  0  0  0  0  0  0  0  0  0  0
  151.9168  133.9029  156.6521 H   0  0  0  0  0  0  0  0  0  0  0  0
  151.1706  132.2717  153.2521 H   0  0  0  0  0  0  0  0  0  0  0  0
  149.4578  132.0435  153.5941 H   0  0  0  0  0  0  0  0  0  0  0  0
  150.6559  131.1631  154.5190 H   0  0  0  0  0  0  0  0  0  0  0  0
  1  2  1  0  0  0  0
  1 26  1  0  0  0  0
  1 27  1  0  0  0  0
  1 28  1  0  0  0  0
  2  3  2  0  0  0  0
  2  4  1  0  0  0  0
  4  5  1  0  0  0  0
  4 29  1  0  0  0  0
  5  6  1  0  0  0  0
  5 23  1  0  0  0  0
  5 30  1  0  0  0  0
  6  7  2  0  0  0  0
  6  8  1  0  0  0  0
  8  9  1  0  0  0  0
  8 31  1  0  0  0  0
  9 22  1  0  0  0  0
  9 10  2  0  0  0  0
 10 11  1  0  0  0  0
 10 32  1  0  0  0  0
 11 12  2  0  0  0  0
 11 33  1  0  0  0  0
 12 13  1  0  0  0  0
 12 21  1  0  0  0  0
 13 20  1  0  0  0  0
 13 14  1  0  0  0  0
 14 15  1  0  0  0  0
 14 34  1  0  0  0  0
 14 35  1  0  0  0  0
 15 16  1  0  0  0  0
 15 17  1  0  0  0  0
 15 36  1  0  0  0  0
 16 37  1  0  0  0  0
 16 38  1  0  0  0  0
 16 39  1  0  0  0  0
 17 18  1  0  0  0  0
 18 19  1  0  0  0  0
 18 20  1  0  0  0  0
 18 40  1  0  0  0  0
 19 41  1  0  0  0  0
 19 42  1  0  0  0  0
 19 43  1  0  0  0  0
 20 44  1  0  0  0  0
 20 45  1  0  0  0  0
 21 22  2  0  0  0  0
 22 46  1  0  0  0  0
 23 24  1  0  0  0  0
 23 25  1  0  0  0  0
 23 47  1  0  0  0  0
 24 48  1  0  0  0  0
 24 49  1  0  0  0  0
 24 50  1  0  0  0  0
 25 51  1  0  0  0  0
 25 52  1  0  0  0  0
 25 53  1  0  0  0  0
M  END
> <s_m_source_file>
AV-unprocessed.smi

> <i_m_source_file_index>
1966

> <i_lp_mmshare_version>
43012

> <i_f3d_flags>
0

> <s_epik_input>
W0NIM11DKD1PKVtOSF1bQ0BASF0oW0NIXShbQ0gzXSlbQ0gzXSlDKD1PKVtOSF1jMVtjSF1bY0hdYyhuW2NIXTEpTjJbQ0gyXVtDQEBIXShbQ0gzXSlPW0NAQEhdKFtDSDNdKVtDSDJdMg==

> <s_epik_cmdline>
J2VwaWtfcHl0aG9uJywgJy1waCcsICc3LjAnLCAnLXRuJywgJzgnLCAnLW1hJywgJzIwMCcsICctbWV0YWxfYmluZGluZycsICctaW1hZScsICc8aW5maWxlLm1hZT4nLCAnLW9tYWUnLCAnPG91dGZpbGUubWFlPic=

> <r_lp_tautomer_probability>
1

> <r_epik_Ionization_Penalty>
0.000679699

> <r_epik_Ionization_Penalty_Charging>
0

> <r_epik_Ionization_Penalty_Neutral>
0.000679699

> <r_epik_State_Penalty>
0.000430485

> <r_epik_Charging_Adjusted_Penalty>
0.000430485

> <i_epik_Tot_Q>
0

> <i_epik_Tot_abs_Q>
0

> <r_epik_Metal_State_Penalty>
-0

> <b_epik_Metal_Only>
0

> <s_lp_Force_Field>
OPLS_2005

> <r_lp_Energy>
24.6084

> <b_lp_Chiralities_Consistent>
1

> <s_lp_Variant>
AV-unprocessed.smi:1966-2

> <Gold.Version>
5.8.1

> <Gold.Id.Protein>
6NUR|6NUR_protein|mol2

> <Gold.PLP.Fitness>
46.3178

> <Gold.PLP.PLP>
-40.9165

> <Gold.PLP.part.hbond>
-2.0000

> <Gold.PLP.part.metal>
0.0000

> <Gold.PLP.part.buried>
-6.2043

> <Gold.PLP.part.nonpolar>
-32.4759

> <Gold.PLP.part.repulsive>
0.1151

> <Gold.PLP.ligand.clash>
0.0000

> <Gold.PLP.ligand.torsion>
0.4821

> <Gold.PLP.Chemscore.Hbond>
2.0000

> <Gold.PLP.Chemscore.CHOScore>
0.0000

> <Gold.PLP.Chemscore.Metal>
0.0000

> <Gold.Chemscore.Hbonds>
donor molecule, donor type, donor heavy atom, donor atom, acceptor molecule, acceptor atom, score
      L1  H     4    29       P1  7948  1.00
      P1  H  7997  8010       L1    21  0.75

> <Gold.PLP.Chemscore.Internal.Correction>
0.3656

> <Gold.Rescore>
     Score         DG    S(hbond)    S(metal)    S(lipo)     H(rot)  DE(clash)    DE(int)     intcor
     14.95     -19.61       1.90        0.00     103.17       1.68       0.01       4.65       ----

> <Gold.Chemscore.Fitness>
14.9498

> <Gold.Chemscore.DG>
-19.6067

> <Gold.Chemscore.ZeroCoef>
-5.4800

> <Gold.Chemscore.Hbond>
1.8999

> <Gold.Chemscore.Metal>
0.0000

> <Gold.Chemscore.Lipo>
103.1732

> <Gold.Chemscore.Internal_Hbond>
0.0000

> <Gold.Chemscore.DEClash>
0.0073

> <Gold.Chemscore.DEInternal>
4.6495

> <Gold.Chemscore.Rot>
1.6759

> <Gold.Chemscore.Internal.Correction>
   9.000000E+99

> <Gold.Chemscore.Hbonds>
donor molecule, donor type, donor heavy atom, donor atom, acceptor molecule, acceptor atom, score
      L1  H     4    29       P1  7948  0.28
      P1  H  7997  8010       L1    21  0.59

> <Gold.Chemscore.Hbond.Weighted>
-6.3457

> <Gold.Chemscore.Metal.Weighted>
-0.0000

> <Gold.Chemscore.Lipo.Weighted>
-12.0713

> <Gold.Chemscore.Internal_Hbond.Weighted>
0.0000

> <Gold.Chemscore.DEClash.Weighted>
0.0073

> <Gold.Chemscore.DEInternal.Weighted>
4.6495

> <Gold.Chemscore.Rot.Weighted>
4.2902

> <Gold.Chemscore.Internal.Correction.Weighted>
   9.000000E+99

> <Gold.Protein.RotatedTorsions>
[ 6907 6896 6895 6894 ] final    0.65 input  -60.11 | X-H torsion
[ 7974 7965 7964 7962 ] final  -58.94 input  175.53 | X-H torsion
[ 8008 7997 7996 7995 ] final   68.16 input   59.86 | X-H torsion
[ 10167 10162 10161 10158 ] final  -57.99 input  -65.29 | X-H torsion
[ 10718 10713 10712 10709 ] final   11.69 input   66.30 | X-H torsion
[ 10763 10752 10751 10750 ] final   -8.52 input  -60.55 | X-H torsion
[ 11005 11000 10999 10996 ] final    9.76 input  -57.11 | X-H torsion

> <Gold.Protein.ActiveResidues>
 VAL166  LYS551  ARG553  GLY616  TRP617  ASP618  TYR619  PRO620  LYS621  CYS622 
 ASP623  PHE694  ASN695  SER759  ASP760  ASP761  ALA762  ILE779  LEU786  VAL792 
 PHE793  MET794  SER795  GLU796  ALA797  LYS798  CYS799  TRP800  GLU811  SER814 

> <Gold.Protein.RotatedAtoms>
  151.5798  135.1059  160.0014 H   0  0  0  0  0  0  0  0  0  0  0  0  # atno 6907 bound_to 6896
  152.4359  133.7356  159.6623 H   0  0  0  0  0  0  0  0  0  0  0  0  # atno 6908 bound_to 6896
  150.8257  133.8106  159.3143 H   0  0  0  0  0  0  0  0  0  0  0  0  # atno 6909 bound_to 6896
  145.8334  140.8465  143.0072 H   0  0  0  0  0  0  0  0  0  0  0  0  # atno 7974 bound_to 7965
  155.7041  140.3495  155.4945 H   0  0  0  0  0  0  0  0  0  0  0  0  # atno 8008 bound_to 7997
  155.9415  140.1102  157.1074 H   0  0  0  0  0  0  0  0  0  0  0  0  # atno 8009 bound_to 7997
  154.4103  140.1212  156.4919 H   0  0  0  0  0  0  0  0  0  0  0  0  # atno 8010 bound_to 7997
  140.6225  143.2425  151.5446 H   0  0  0  0  0  0  0  0  0  0  0  0  # atno 10167 bound_to 10162
  156.9993  130.6073  149.5694 H   0  0  0  0  0  0  0  0  0  0  0  0  # atno 10718 bound_to 10713
  153.4416  135.7014  153.6165 H   0  0  0  0  0  0  0  0  0  0  0  0  # atno 10763 bound_to 10752
  153.4538  135.3752  155.2299 H   0  0  0  0  0  0  0  0  0  0  0  0  # atno 10764 bound_to 10752
  154.8727  135.4003  154.3815 H   0  0  0  0  0  0  0  0  0  0  0  0  # atno 10765 bound_to 10752
  140.5221  134.0548  155.7848 H   0  0  0  0  0  0  0  0  0  0  0  0  # atno 11005 bound_to 11000
  144.6738  140.0705  143.7473 LP  0  0  0  0  0  0  0  0  0  0  0  0  # atno 17320 bound_to 7965
  145.9546  139.2757  143.1192 LP  0  0  0  0  0  0  0  0  0  0  0  0  # atno 17321 bound_to 7965
  139.5451  144.2544  152.1426 LP  0  0  0  0  0  0  0  0  0  0  0  0  # atno 17342 bound_to 10162
  140.1767  144.4883  150.6550 LP  0  0  0  0  0  0  0  0  0  0  0  0  # atno 17343 bound_to 10162
  156.0177  130.5272  150.8184 LP  0  0  0  0  0  0  0  0  0  0  0  0  # atno 17370 bound_to 10713
  157.5402  131.0940  150.9837 LP  0  0  0  0  0  0  0  0  0  0  0  0  # atno 17371 bound_to 10713
  141.1328  133.9273  157.2498 LP  0  0  0  0  0  0  0  0  0  0  0  0  # atno 17394 bound_to 11000
  139.9600  135.0156  156.9234 LP  0  0  0  0  0  0  0  0  0  0  0  0  # atno 17395 bound_to 11000

$$$$
