AV-unprocessed.smi:3291|AV-procd|sdf|12619|dock4
  -GOLD-   2272018553D 1   1.00000     0.00000
 Structure written by MMmdl.
 43 45  0  0  0  0  0  0  0  0  2 V2000
  152.4201  138.8917  154.4790 C   0  0  0  0  0  0  0  0  0  0  0  0
  151.8337  138.1868  155.6689 C   0  0  0  0  0  0  0  0  0  0  0  0
  152.1077  136.9093  155.8666 N   0  0  0  0  0  0  0  0  0  0  0  0
  151.4300  136.5505  157.0341 O   0  0  0  0  0  0  0  0  0  0  0  0
  150.7666  137.6381  157.5013 C   0  0  0  0  0  0  0  0  0  0  0  0
  149.9811  137.4344  158.7543 C   0  0  0  0  0  0  0  0  0  0  0  0
  150.9762  138.7150  156.6781 C   0  0  0  0  0  0  0  0  0  0  0  0
  150.4545  140.1314  156.7747 C   0  0  2  0  0  0  0  0  0  0  0  0
  150.0271  140.6342  155.3846 C   0  0  0  0  0  0  0  0  0  0  0  0
  151.4892  141.0605  157.4381 C   0  0  0  0  0  0  0  0  0  0  0  0
  150.8784  142.3289  157.8887 N   0  3  0  0  0  0  0  0  0  0  0  0
  151.4708  142.9115  159.1121 C   0  0  0  0  0  0  0  0  0  0  0  0
  151.2310  144.4104  159.1094 C   0  0  0  0  0  0  0  0  0  0  0  0
  152.2339  145.3616  158.4976 C   0  0  0  0  0  0  0  0  0  0  0  0
  152.0375  145.3321  159.9945 C   0  0  0  0  0  0  0  0  0  0  0  0
  152.9582  142.6002  159.1906 C   0  0  0  0  0  0  0  0  0  0  0  0
  153.4616  141.2762  159.7210 C   0  0  0  0  0  0  0  0  0  0  0  0
  153.6725  142.5368  160.5222 C   0  0  0  0  0  0  0  0  0  0  0  0
  153.0520  139.7227  154.7923 H   0  0  0  0  0  0  0  0  0  0  0  0
  151.6349  139.2938  153.8386 H   0  0  0  0  0  0  0  0  0  0  0  0
  153.0309  138.2228  153.8711 H   0  0  0  0  0  0  0  0  0  0  0  0
  150.0896  138.2824  159.4296 H   0  0  0  0  0  0  0  0  0  0  0  0
  150.3157  136.5424  159.2849 H   0  0  0  0  0  0  0  0  0  0  0  0
  148.9216  137.3120  158.5295 H   0  0  0  0  0  0  0  0  0  0  0  0
  149.5646  140.1417  157.4053 H   0  0  0  0  0  0  0  0  0  0  0  0
  149.2786  139.9735  154.9455 H   0  0  0  0  0  0  0  0  0  0  0  0
  150.8703  140.6813  154.6958 H   0  0  0  0  0  0  0  0  0  0  0  0
  149.5875  141.6304  155.4356 H   0  0  0  0  0  0  0  0  0  0  0  0
  151.9294  140.5632  158.3037 H   0  0  0  0  0  0  0  0  0  0  0  0
  152.2997  141.2744  156.7431 H   0  0  0  0  0  0  0  0  0  0  0  0
  150.9391  143.0079  157.1436 H   0  0  0  0  0  0  0  0  0  0  0  0
  150.9708  142.4883  159.9852 H   0  0  0  0  0  0  0  0  0  0  0  0
  150.1865  144.6839  158.9687 H   0  0  0  0  0  0  0  0  0  0  0  0
  153.1649  144.9508  158.1124 H   0  0  0  0  0  0  0  0  0  0  0  0
  151.8439  146.2201  157.9548 H   0  0  0  0  0  0  0  0  0  0  0  0
  151.5188  146.1737  160.4493 H   0  0  0  0  0  0  0  0  0  0  0  0
  152.8330  144.8952  160.5951 H   0  0  0  0  0  0  0  0  0  0  0  0
  153.5367  143.0404  158.3800 H   0  0  0  0  0  0  0  0  0  0  0  0
  152.7272  140.5640  160.0924 H   0  0  0  0  0  0  0  0  0  0  0  0
  154.3288  140.8377  159.2313 H   0  0  0  0  0  0  0  0  0  0  0  0
  154.6820  142.9401  160.5695 H   0  0  0  0  0  0  0  0  0  0  0  0
  153.0829  142.6509  161.4292 H   0  0  0  0  0  0  0  0  0  0  0  0
  149.9030  142.1453  158.0754 H   0  0  0  0  0  0  0  0  0  0  0  0
  1  2  1  0  0  0  0
  1 19  1  0  0  0  0
  1 20  1  0  0  0  0
  1 21  1  0  0  0  0
  2  7  1  0  0  0  0
  2  3  2  0  0  0  0
  3  4  1  0  0  0  0
  4  5  1  0  0  0  0
  5  6  1  0  0  0  0
  5  7  2  0  0  0  0
  6 22  1  0  0  0  0
  6 23  1  0  0  0  0
  6 24  1  0  0  0  0
  7  8  1  0  0  0  0
  8  9  1  0  0  0  0
  8 10  1  0  0  0  0
  8 25  1  0  0  0  0
  9 26  1  0  0  0  0
  9 27  1  0  0  0  0
  9 28  1  0  0  0  0
 10 11  1  0  0  0  0
 10 29  1  0  0  0  0
 10 30  1  0  0  0  0
 11 12  1  0  0  0  0
 11 31  1  0  0  0  0
 11 43  1  0  0  0  0
 12 13  1  0  0  0  0
 12 16  1  0  0  0  0
 12 32  1  0  0  0  0
 13 15  1  0  0  0  0
 13 14  1  0  0  0  0
 13 33  1  0  0  0  0
 14 15  1  0  0  0  0
 14 34  1  0  0  0  0
 14 35  1  0  0  0  0
 15 36  1  0  0  0  0
 15 37  1  0  0  0  0
 16 18  1  0  0  0  0
 16 17  1  0  0  0  0
 16 38  1  0  0  0  0
 17 18  1  0  0  0  0
 17 39  1  0  0  0  0
 17 40  1  0  0  0  0
 18 41  1  0  0  0  0
 18 42  1  0  0  0  0
M  CHG  1  11   1
M  END
> <s_m_source_file>
AV-unprocessed.smi

> <i_m_source_file_index>
3291

> <i_lp_mmshare_version>
43012

> <i_f3d_flags>
0

> <s_epik_input>
W0NIM11jMW5vYyhbQ0gzXSljMVtDQEhdKFtDSDNdKVtDSDJdW05IXVtDSF0oW0NIXTJbQ0gyXVtDSDJdMilbQ0hdM1tDSDJdW0NIMl0z

> <s_epik_cmdline>
J2VwaWtfcHl0aG9uJywgJy1waCcsICc3LjAnLCAnLXRuJywgJzgnLCAnLW1hJywgJzIwMCcsICctbWV0YWxfYmluZGluZycsICctaW1hZScsICc8aW5maWxlLm1hZT4nLCAnLW9tYWUnLCAnPG91dGZpbGUubWFlPic=

> <r_lp_tautomer_probability>
1

> <r_epik_Ionization_Penalty>
0.000158108

> <r_epik_Ionization_Penalty_Charging>
0.000158108

> <r_epik_Ionization_Penalty_Neutral>
1.14678e-10

> <r_epik_State_Penalty>
-0

> <r_epik_Charging_Adjusted_Penalty>
0.000158108

> <i_epik_Tot_Q>
1

> <i_epik_Tot_abs_Q>
1

> <r_epik_Metal_State_Penalty>
-0

> <b_epik_Metal_Only>
0

> <s_lp_Force_Field>
OPLS_2005

> <r_lp_Energy>
25.2548

> <b_lp_Chiralities_Consistent>
1

> <s_lp_Variant>
AV-unprocessed.smi:3291-1

> <Gold.Version>
5.8.1

> <Gold.Id.Protein>
6NUR|6NUR_protein|mol2

> <Gold.PLP.Fitness>
40.7912

> <Gold.PLP.PLP>
-40.0871

> <Gold.PLP.part.hbond>
-1.0000

> <Gold.PLP.part.metal>
0.0000

> <Gold.PLP.part.buried>
-5.1583

> <Gold.PLP.part.nonpolar>
-33.6289

> <Gold.PLP.part.repulsive>
0.0463

> <Gold.PLP.ligand.clash>
0.0000

> <Gold.PLP.ligand.torsion>
2.2644

> <Gold.PLP.Chemscore.Hbond>
1.0000

> <Gold.PLP.Chemscore.CHOScore>
0.0000

> <Gold.PLP.Chemscore.Metal>
0.0000

> <Gold.Chemscore.Hbonds>
donor molecule, donor type, donor heavy atom, donor atom, acceptor molecule, acceptor atom, score
      P1  H 10752 10764       L1     3  0.98

> <Gold.PLP.Chemscore.Internal.Correction>
2.2329

> <Gold.Rescore>
     Score         DG    S(hbond)    S(metal)    S(lipo)     H(rot)  DE(clash)    DE(int)     intcor
     16.86     -19.20       0.95        0.00     123.10       1.50       0.05       2.29       ----

> <Gold.Chemscore.Fitness>
16.8574

> <Gold.Chemscore.DG>
-19.2026

> <Gold.Chemscore.ZeroCoef>
-5.4800

> <Gold.Chemscore.Hbond>
0.9472

> <Gold.Chemscore.Metal>
0.0000

> <Gold.Chemscore.Lipo>
123.1009

> <Gold.Chemscore.Internal_Hbond>
0.0000

> <Gold.Chemscore.DEClash>
0.0513

> <Gold.Chemscore.DEInternal>
2.2939

> <Gold.Chemscore.Rot>
1.5015

> <Gold.Chemscore.Internal.Correction>
   9.000000E+99

> <Gold.Chemscore.Hbonds>
donor molecule, donor type, donor heavy atom, donor atom, acceptor molecule, acceptor atom, score
      P1  H 10752 10764       L1     3  0.84

> <Gold.Chemscore.Hbond.Weighted>
-3.1636

> <Gold.Chemscore.Metal.Weighted>
-0.0000

> <Gold.Chemscore.Lipo.Weighted>
-14.4028

> <Gold.Chemscore.Internal_Hbond.Weighted>
0.0000

> <Gold.Chemscore.DEClash.Weighted>
0.0513

> <Gold.Chemscore.DEInternal.Weighted>
2.2939

> <Gold.Chemscore.Rot.Weighted>
3.8438

> <Gold.Chemscore.Internal.Correction.Weighted>
   9.000000E+99

> <Gold.Protein.RotatedTorsions>
[ 6907 6896 6895 6894 ] final -121.54 input  -60.11 | X-H torsion
[ 7974 7965 7964 7962 ] final   56.47 input  175.53 | X-H torsion
[ 8008 7997 7996 7995 ] final   73.38 input   59.86 | X-H torsion
[ 10167 10162 10161 10158 ] final -145.43 input  -65.29 | X-H torsion
[ 10718 10713 10712 10709 ] final  -99.26 input   66.30 | X-H torsion
[ 10763 10752 10751 10750 ] final  -28.45 input  -60.55 | X-H torsion
[ 11005 11000 10999 10996 ] final  159.16 input  -57.11 | X-H torsion

> <Gold.Protein.ActiveResidues>
 VAL166  LYS551  ARG553  GLY616  TRP617  ASP618  TYR619  PRO620  LYS621  CYS622 
 ASP623  PHE694  ASN695  SER759  ASP760  ASP761  ALA762  ILE779  LEU786  VAL792 
 PHE793  MET794  SER795  GLU796  ALA797  LYS798  CYS799  TRP800  GLU811  SER814 

> <Gold.Protein.RotatedAtoms>
  150.8492  133.7813  159.3031 H   0  0  0  0  0  0  0  0  0  0  0  0  # atno 6907 bound_to 6896
  151.5490  135.1066  159.9954 H   0  0  0  0  0  0  0  0  0  0  0  0  # atno 6908 bound_to 6896
  152.4539  133.7640  159.6818 H   0  0  0  0  0  0  0  0  0  0  0  0  # atno 6909 bound_to 6896
  145.9394  139.3875  143.0372 H   0  0  0  0  0  0  0  0  0  0  0  0  # atno 7974 bound_to 7965
  155.7828  140.3481  155.5306 H   0  0  0  0  0  0  0  0  0  0  0  0  # atno 8008 bound_to 7997
  155.8711  140.0987  157.1570 H   0  0  0  0  0  0  0  0  0  0  0  0  # atno 8009 bound_to 7997
  154.4017  140.1340  156.4067 H   0  0  0  0  0  0  0  0  0  0  0  0  # atno 8010 bound_to 7997
  139.7806  143.8106  152.2638 H   0  0  0  0  0  0  0  0  0  0  0  0  # atno 10167 bound_to 10162
  156.0129  130.5274  150.6644 H   0  0  0  0  0  0  0  0  0  0  0  0  # atno 10718 bound_to 10713
  153.7485  135.6927  153.4951 H   0  0  0  0  0  0  0  0  0  0  0  0  # atno 10763 bound_to 10752
  153.2020  135.4433  155.0276 H   0  0  0  0  0  0  0  0  0  0  0  0  # atno 10764 bound_to 10752
  154.8196  135.3415  154.7007 H   0  0  0  0  0  0  0  0  0  0  0  0  # atno 10765 bound_to 10752
  140.1935  134.8390  157.2938 H   0  0  0  0  0  0  0  0  0  0  0  0  # atno 11005 bound_to 11000
  145.8320  140.9626  143.0844 LP  0  0  0  0  0  0  0  0  0  0  0  0  # atno 17320 bound_to 7965
  144.6777  140.0174  143.7484 LP  0  0  0  0  0  0  0  0  0  0  0  0  # atno 17321 bound_to 7965
  139.8168  144.7313  150.9625 LP  0  0  0  0  0  0  0  0  0  0  0  0  # atno 17342 bound_to 10162
  140.7818  143.4198  151.0860 LP  0  0  0  0  0  0  0  0  0  0  0  0  # atno 17343 bound_to 10162
  157.4380  131.0857  151.0973 LP  0  0  0  0  0  0  0  0  0  0  0  0  # atno 17370 bound_to 10713
  157.1525  130.6190  149.5586 LP  0  0  0  0  0  0  0  0  0  0  0  0  # atno 17371 bound_to 10713
  140.2133  134.4112  155.7601 LP  0  0  0  0  0  0  0  0  0  0  0  0  # atno 17394 bound_to 11000
  141.2226  133.7129  156.8374 LP  0  0  0  0  0  0  0  0  0  0  0  0  # atno 17395 bound_to 11000

$$$$
