AV-unprocessed.smi:40|AV-procd|sdf|378|dock7
  -GOLD-   2262016233D 1   1.00000     0.00000
 Structure written by MMmdl.
 47 48  0  0  0  0  0  0  0  0  1 V2000
  142.4020  134.5510  162.5498 C   0  0  0  0  0  0  0  0  0  0  0  0
  143.7306  133.7882  162.5182 C   0  0  0  0  0  0  0  0  0  0  0  0
  144.9466  134.7183  162.6353 C   0  0  0  0  0  0  0  0  0  0  0  0
  146.2772  133.9593  162.5517 C   0  0  0  0  0  0  0  0  0  0  0  0
  147.4885  134.9042  162.5510 C   0  0  0  0  0  0  0  0  0  0  0  0
  148.0896  134.9464  161.2639 O   0  0  0  0  0  0  0  0  0  0  0  0
  148.1865  136.1109  160.5840 C   0  0  0  0  0  0  0  0  0  0  0  0
  147.6062  137.1498  160.8984 O   0  0  0  0  0  0  0  0  0  0  0  0
  149.0902  135.9810  159.4594 N   0  0  0  0  0  0  0  0  0  0  0  0
  149.4189  136.9438  158.5711 C   0  0  0  0  0  0  0  0  0  0  0  0
  149.8008  138.1106  159.0539 N   0  0  0  0  0  0  0  0  0  0  0  0
  150.1633  139.1744  158.2723 C   0  0  0  0  0  0  0  0  0  0  0  0
  150.5659  140.2166  158.7869 O   0  0  0  0  0  0  0  0  0  0  0  0
  150.0683  139.0226  156.8661 N   0  0  0  0  0  0  0  0  0  0  0  0
  150.5022  140.1799  155.9794 C   0  0  1  0  0  0  0  0  0  0  0  0
  150.4595  139.7850  154.6353 O   0  0  0  0  0  0  0  0  0  0  0  0
  149.3357  140.3515  153.9670 C   0  0  1  0  0  0  0  0  0  0  0  0
  148.1153  139.4139  154.0556 C   0  0  0  0  0  0  0  0  0  0  0  0
  149.1775  141.7033  154.6661 C   0  0  1  0  0  0  0  0  0  0  0  0
  147.8628  142.2168  154.5711 O   0  0  0  0  0  0  0  0  0  0  0  0
  149.5639  141.4062  156.1098 C   0  0  2  0  0  0  0  0  0  0  0  0
  150.2328  142.5257  156.6556 O   0  0  0  0  0  0  0  0  0  0  0  0
  149.7019  137.7873  156.3441 C   0  0  0  0  0  0  0  0  0  0  0  0
  149.3607  136.7470  157.1341 C   0  0  0  0  0  0  0  0  0  0  0  0
  148.9703  135.5810  156.5897 F   0  0  0  0  0  0  0  0  0  0  0  0
  151.5359  140.3739  156.2711 H   0  0  0  0  0  0  0  0  0  0  0  0
  149.5836  140.4950  152.9148 H   0  0  0  0  0  0  0  0  0  0  0  0
  149.8783  142.4116  154.2207 H   0  0  0  0  0  0  0  0  0  0  0  0
  148.6836  141.1492  156.7014 H   0  0  0  0  0  0  0  0  0  0  0  0
  141.5587  133.8652  162.4641 H   0  0  0  0  0  0  0  0  0  0  0  0
  142.3368  135.2620  161.7256 H   0  0  0  0  0  0  0  0  0  0  0  0
  142.2876  135.1052  163.4818 H   0  0  0  0  0  0  0  0  0  0  0  0
  143.7471  133.0602  163.3300 H   0  0  0  0  0  0  0  0  0  0  0  0
  143.7937  133.2181  161.5907 H   0  0  0  0  0  0  0  0  0  0  0  0
  144.9080  135.4671  161.8431 H   0  0  0  0  0  0  0  0  0  0  0  0
  144.8978  135.2639  163.5785 H   0  0  0  0  0  0  0  0  0  0  0  0
  146.3591  133.2696  163.3927 H   0  0  0  0  0  0  0  0  0  0  0  0
  146.2870  133.3478  161.6486 H   0  0  0  0  0  0  0  0  0  0  0  0
  147.2034  135.9043  162.8814 H   0  0  0  0  0  0  0  0  0  0  0  0
  148.2333  134.5431  163.2605 H   0  0  0  0  0  0  0  0  0  0  0  0
  149.4659  135.0544  159.3208 H   0  0  0  0  0  0  0  0  0  0  0  0
  147.2709  139.8150  153.4948 H   0  0  0  0  0  0  0  0  0  0  0  0
  147.7863  139.2669  155.0840 H   0  0  0  0  0  0  0  0  0  0  0  0
  148.3460  138.4360  153.6332 H   0  0  0  0  0  0  0  0  0  0  0  0
  147.8221  143.0224  155.0637 H   0  0  0  0  0  0  0  0  0  0  0  0
  149.7107  143.2953  156.4840 H   0  0  0  0  0  0  0  0  0  0  0  0
  149.6725  137.6207  155.2784 H   0  0  0  0  0  0  0  0  0  0  0  0
  1  2  1  0  0  0  0
  1 30  1  0  0  0  0
  1 31  1  0  0  0  0
  1 32  1  0  0  0  0
  2  3  1  0  0  0  0
  2 33  1  0  0  0  0
  2 34  1  0  0  0  0
  3  4  1  0  0  0  0
  3 35  1  0  0  0  0
  3 36  1  0  0  0  0
  4  5  1  0  0  0  0
  4 37  1  0  0  0  0
  4 38  1  0  0  0  0
  5  6  1  0  0  0  0
  5 39  1  0  0  0  0
  5 40  1  0  0  0  0
  6  7  1  0  0  0  0
  7  8  2  0  0  0  0
  7  9  1  0  0  0  0
  9 10  1  0  0  0  0
  9 41  1  0  0  0  0
 10 24  1  0  0  0  0
 10 11  2  0  0  0  0
 11 12  1  0  0  0  0
 12 13  2  0  0  0  0
 12 14  1  0  0  0  0
 14 15  1  0  0  0  0
 14 23  1  0  0  0  0
 15 26  1  0  0  0  0
 15 21  1  0  0  0  0
 15 16  1  0  0  0  0
 16 17  1  0  0  0  0
 17 27  1  0  0  0  0
 17 18  1  0  0  0  0
 17 19  1  0  0  0  0
 18 42  1  0  0  0  0
 18 43  1  0  0  0  0
 18 44  1  0  0  0  0
 19 28  1  0  0  0  0
 19 20  1  0  0  0  0
 19 21  1  0  0  0  0
 20 45  1  0  0  0  0
 21 29  1  0  0  0  0
 21 22  1  0  0  0  0
 22 46  1  0  0  0  0
 23 24  2  0  0  0  0
 23 47  1  0  0  0  0
 24 25  1  0  0  0  0
M  END
> <s_m_source_file>
AV-unprocessed.smi

> <i_m_source_file_index>
40

> <i_lp_mmshare_version>
43012

> <i_f3d_flags>
0

> <s_epik_input>
W0NIM11bQ0gyXVtDSDJdW0NIMl1bQ0gyXU9DKD1PKVtOSF1jMW5jKD1PKW4oW2NIXWMxRilbQ0BASF0yT1tDQEhdKFtDSDNdKVtDQEBIXShbT0hdKVtDQEhdMltPSF0=

> <s_epik_cmdline>
J2VwaWtfcHl0aG9uJywgJy1waCcsICc3LjAnLCAnLXRuJywgJzgnLCAnLW1hJywgJzIwMCcsICctbWV0YWxfYmluZGluZycsICctaW1hZScsICc8aW5maWxlLm1hZT4nLCAnLW9tYWUnLCAnPG91dGZpbGUubWFlPic=

> <r_lp_tautomer_probability>
1

> <r_epik_Ionization_Penalty>
2.29506e-06

> <r_epik_Ionization_Penalty_Charging>
8.26867e-09

> <r_epik_Ionization_Penalty_Neutral>
2.2868e-06

> <r_epik_State_Penalty>
-0

> <r_epik_Charging_Adjusted_Penalty>
8.26867e-09

> <i_epik_Tot_Q>
0

> <i_epik_Tot_abs_Q>
0

> <r_epik_Metal_State_Penalty>
-0

> <b_epik_Metal_Only>
0

> <s_epik_Chemistry_Notes>
This compound has an ester and may undergo hydrolysis at high or low pH. This compound contains an acetal/aminal-like group ( X-CH(R)-Y where X, Y are N, S, or O) that may be acid/base labile, releasing an aldehyde.

> <s_lp_Force_Field>
OPLS_2005

> <r_lp_Energy>
34.9505

> <b_lp_Chiralities_Consistent>
1

> <s_lp_Variant>
AV-unprocessed.smi:40-12

> <Gold.Version>
5.8.1

> <Gold.Id.Protein>
6NUR|6NUR_protein|mol2

> <Gold.PLP.Fitness>
47.4164

> <Gold.PLP.PLP>
-36.5368

> <Gold.PLP.part.hbond>
-5.0938

> <Gold.PLP.part.metal>
0.0000

> <Gold.PLP.part.buried>
-1.8438

> <Gold.PLP.part.nonpolar>
-29.1847

> <Gold.PLP.part.repulsive>
0.2661

> <Gold.PLP.ligand.clash>
0.0000

> <Gold.PLP.ligand.torsion>
1.3448

> <Gold.PLP.Chemscore.Hbond>
4.4699

> <Gold.PLP.Chemscore.CHOScore>
0.0000

> <Gold.PLP.Chemscore.Metal>
0.0000

> <Gold.Chemscore.Hbonds>
donor molecule, donor type, donor heavy atom, donor atom, acceptor molecule, acceptor atom, score
      L1  H    20    45       P1  8028  0.84
      L1  H    22    46       P1  8028  1.00
      P1  H  6931  6943       L1     8  0.80
      P1  H  6934  6947       L1     8  0.96
      P1  H  7989  7998       L1    16  0.45

> <Gold.PLP.Chemscore.Internal.Correction>
0.1596

> <Gold.Rescore>
     Score         DG    S(hbond)    S(metal)    S(lipo)     H(rot)  DE(clash)    DE(int)     intcor
     11.54     -15.81       3.35        0.00      73.49       3.70       1.80       2.47       ----

> <Gold.Chemscore.Fitness>
11.5423

> <Gold.Chemscore.DG>
-15.8140

> <Gold.Chemscore.ZeroCoef>
-5.4800

> <Gold.Chemscore.Hbond>
3.3522

> <Gold.Chemscore.Metal>
0.0000

> <Gold.Chemscore.Lipo>
73.4908

> <Gold.Chemscore.Internal_Hbond>
0.0000

> <Gold.Chemscore.DEClash>
1.7997

> <Gold.Chemscore.DEInternal>
2.4720

> <Gold.Chemscore.Rot>
3.6957

> <Gold.Chemscore.Internal.Correction>
   9.000000E+99

> <Gold.Chemscore.Hbonds>
donor molecule, donor type, donor heavy atom, donor atom, acceptor molecule, acceptor atom, score
      L1  H    20    45       P1  8028  0.62
      L1  H    22    46       P1  8028  1.00
      P1  H  6931  6943       L1     8  0.38
      P1  H  6934  6947       L1     8  0.92
      P1  H  7989  7998       L1    16  0.01

> <Gold.Chemscore.Hbond.Weighted>
-11.1965

> <Gold.Chemscore.Metal.Weighted>
-0.0000

> <Gold.Chemscore.Lipo.Weighted>
-8.5984

> <Gold.Chemscore.Internal_Hbond.Weighted>
0.0000

> <Gold.Chemscore.DEClash.Weighted>
1.7997

> <Gold.Chemscore.DEInternal.Weighted>
2.4720

> <Gold.Chemscore.Rot.Weighted>
9.4610

> <Gold.Chemscore.Internal.Correction.Weighted>
   9.000000E+99

> <Gold.Protein.RotatedTorsions>
[ 6907 6896 6895 6894 ] final  -54.58 input  -60.11 | X-H torsion
[ 7974 7965 7964 7962 ] final   50.59 input  175.53 | X-H torsion
[ 8008 7997 7996 7995 ] final  155.50 input   59.86 | X-H torsion
[ 10167 10162 10161 10158 ] final -125.07 input  -65.29 | X-H torsion
[ 10718 10713 10712 10709 ] final  145.68 input   66.30 | X-H torsion
[ 10763 10752 10751 10750 ] final   46.22 input  -60.55 | X-H torsion
[ 11005 11000 10999 10996 ] final -149.20 input  -57.11 | X-H torsion

> <Gold.Protein.ActiveResidues>
 VAL166  LYS551  ARG553  GLY616  TRP617  ASP618  TYR619  PRO620  LYS621  CYS622 
 ASP623  PHE694  ASN695  SER759  ASP760  ASP761  ALA762  ILE779  LEU786  VAL792 
 PHE793  MET794  SER795  GLU796  ALA797  LYS798  CYS799  TRP800  GLU811  SER814 

> <Gold.Protein.RotatedAtoms>
  150.8325  134.7585  159.6865 H   0  0  0  0  0  0  0  0  0  0  0  0  # atno 6907 bound_to 6896
  152.4428  134.5553  159.9888 H   0  0  0  0  0  0  0  0  0  0  0  0  # atno 6908 bound_to 6896
  151.5711  133.3352  159.3025 H   0  0  0  0  0  0  0  0  0  0  0  0  # atno 6909 bound_to 6896
  145.9997  139.4426  143.0023 H   0  0  0  0  0  0  0  0  0  0  0  0  # atno 7974 bound_to 7965
  156.2474  140.1937  156.6812 H   0  0  0  0  0  0  0  0  0  0  0  0  # atno 8008 bound_to 7997
  154.6321  140.0594  156.9770 H   0  0  0  0  0  0  0  0  0  0  0  0  # atno 8009 bound_to 7997
  155.1695  140.3267  155.4398 H   0  0  0  0  0  0  0  0  0  0  0  0  # atno 8010 bound_to 7997
  139.9860  143.5691  152.2360 H   0  0  0  0  0  0  0  0  0  0  0  0  # atno 10167 bound_to 10162
  157.3424  131.0938  151.1071 H   0  0  0  0  0  0  0  0  0  0  0  0  # atno 10718 bound_to 10713
  152.9813  135.6015  154.3564 H   0  0  0  0  0  0  0  0  0  0  0  0  # atno 10763 bound_to 10752
  154.3249  135.2769  155.2503 H   0  0  0  0  0  0  0  0  0  0  0  0  # atno 10764 bound_to 10752
  154.4653  135.5955  153.6339 H   0  0  0  0  0  0  0  0  0  0  0  0  # atno 10765 bound_to 10752
  140.7533  134.3382  157.5120 H   0  0  0  0  0  0  0  0  0  0  0  0  # atno 11005 bound_to 11000
  145.7507  140.9973  143.1252 LP  0  0  0  0  0  0  0  0  0  0  0  0  # atno 17320 bound_to 7965
  144.6915  139.9210  143.7468 LP  0  0  0  0  0  0  0  0  0  0  0  0  # atno 17321 bound_to 7965
  139.6375  144.7651  151.2408 LP  0  0  0  0  0  0  0  0  0  0  0  0  # atno 17342 bound_to 10162
  140.7472  143.6374  150.8366 LP  0  0  0  0  0  0  0  0  0  0  0  0  # atno 17343 bound_to 10162
  157.2278  130.6511  149.5837 LP  0  0  0  0  0  0  0  0  0  0  0  0  # atno 17370 bound_to 10713
  155.9709  130.4608  150.6088 LP  0  0  0  0  0  0  0  0  0  0  0  0  # atno 17371 bound_to 10713
  139.8783  134.9156  156.3134 LP  0  0  0  0  0  0  0  0  0  0  0  0  # atno 17394 bound_to 11000
  140.9731  133.7315  156.0563 LP  0  0  0  0  0  0  0  0  0  0  0  0  # atno 17395 bound_to 11000

$$$$
