AV-unprocessed.smi:2134|AV-procd|sdf|8695|dock2
  -GOLD-   2272011453D 1   1.00000     0.00000
 Structure written by MMmdl.
 36 37  0  0  0  0  0  0  0  0  2 V2000
  154.2373  140.3894  161.4941 C   0  0  0  0  0  0  0  0  0  0  0  0
  153.3987  141.5267  161.1203 N   0  0  0  0  0  0  0  0  0  0  0  0
  152.8364  141.4432  159.8631 N   0  0  0  0  0  0  0  0  0  0  0  0
  152.2584  142.4572  159.2992 C   0  0  0  0  0  0  0  0  0  0  0  0
  151.6879  142.3223  157.9329 C   0  0  0  0  0  0  0  0  0  0  0  0
  151.2279  143.2979  157.3385 O   0  0  0  0  0  0  0  0  0  0  0  0
  151.7271  141.0877  157.3971 N   0  0  0  0  0  0  0  0  0  0  0  0
  151.2703  140.7238  156.0579 C   0  0  0  0  0  0  0  0  0  0  0  0
  150.0116  141.5068  155.6364 C   0  0  0  0  0  0  0  0  0  0  0  0
  149.0925  140.7289  154.7101 C   0  0  0  0  0  0  0  0  0  0  0  0
  147.8944  141.3045  154.2310 C   0  0  0  0  0  0  0  0  0  0  0  0
  147.0470  140.5447  153.3981 C   0  0  0  0  0  0  0  0  0  0  0  0
  147.4171  139.2266  153.0620 C   0  0  0  0  0  0  0  0  0  0  0  0
  148.5721  138.7106  153.5365 N   0  3  0  0  0  0  0  0  0  0  0  0
  149.4113  139.4059  154.3350 C   0  0  0  0  0  0  0  0  0  0  0  0
  152.1896  143.7967  160.0052 C   0  0  0  0  0  0  0  0  0  0  0  0
  152.2293  143.6466  161.5389 C   0  0  0  0  0  0  0  0  0  0  0  0
  153.1961  142.5479  161.9897 C   0  0  0  0  0  0  0  0  0  0  0  0
  153.7210  142.6144  163.1011 O   0  0  0  0  0  0  0  0  0  0  0  0
  153.8343  139.8881  162.3751 H   0  0  0  0  0  0  0  0  0  0  0  0
  155.2519  140.7184  161.7230 H   0  0  0  0  0  0  0  0  0  0  0  0
  154.3033  139.6487  160.6957 H   0  0  0  0  0  0  0  0  0  0  0  0
  152.1170  140.3455  157.9608 H   0  0  0  0  0  0  0  0  0  0  0  0
  152.0791  140.9312  155.3571 H   0  0  0  0  0  0  0  0  0  0  0  0
  151.0848  139.6502  155.9944 H   0  0  0  0  0  0  0  0  0  0  0  0
  149.4539  141.8076  156.5243 H   0  0  0  0  0  0  0  0  0  0  0  0
  150.3063  142.4310  155.1380 H   0  0  0  0  0  0  0  0  0  0  0  0
  147.6202  142.3125  154.5059 H   0  0  0  0  0  0  0  0  0  0  0  0
  146.1248  140.9662  153.0256 H   0  0  0  0  0  0  0  0  0  0  0  0
  146.8283  138.5742  152.4339 H   0  0  0  0  0  0  0  0  0  0  0  0
  150.2989  138.8817  154.6582 H   0  0  0  0  0  0  0  0  0  0  0  0
  153.0182  144.4219  159.6708 H   0  0  0  0  0  0  0  0  0  0  0  0
  151.2756  144.3271  159.7342 H   0  0  0  0  0  0  0  0  0  0  0  0
  152.4946  144.5955  162.0065 H   0  0  0  0  0  0  0  0  0  0  0  0
  151.2376  143.3814  161.9072 H   0  0  0  0  0  0  0  0  0  0  0  0
  148.8202  137.7536  153.2838 H   0  0  0  0  0  0  0  0  0  0  0  0
  1  2  1  0  0  0  0
  1 20  1  0  0  0  0
  1 21  1  0  0  0  0
  1 22  1  0  0  0  0
  2 18  1  0  0  0  0
  2  3  1  0  0  0  0
  3  4  2  0  0  0  0
  4  5  1  0  0  0  0
  4 16  1  0  0  0  0
  5  6  2  0  0  0  0
  5  7  1  0  0  0  0
  7  8  1  0  0  0  0
  7 23  1  0  0  0  0
  8  9  1  0  0  0  0
  8 24  1  0  0  0  0
  8 25  1  0  0  0  0
  9 10  1  0  0  0  0
  9 26  1  0  0  0  0
  9 27  1  0  0  0  0
 10 15  1  0  0  0  0
 10 11  2  0  0  0  0
 11 12  1  0  0  0  0
 11 28  1  0  0  0  0
 12 13  2  0  0  0  0
 12 29  1  0  0  0  0
 13 14  1  0  0  0  0
 13 30  1  0  0  0  0
 14 15  2  0  0  0  0
 14 36  1  0  0  0  0
 15 31  1  0  0  0  0
 16 17  1  0  0  0  0
 16 32  1  0  0  0  0
 16 33  1  0  0  0  0
 17 18  1  0  0  0  0
 17 34  1  0  0  0  0
 17 35  1  0  0  0  0
 18 19  2  0  0  0  0
M  CHG  1  14   1
M  END
> <s_m_source_file>
AV-unprocessed.smi

> <i_m_source_file_index>
2134

> <i_lp_mmshare_version>
43012

> <i_f3d_flags>
0

> <s_epik_input>
Tz1DMVtDSDJdW0NIMl1DKD1OTjFbQ0gzXSlDKD1PKVtOSF1bQ0gyXVtDSDJdYzJbY0hdW2NIXVtjSF1uW2NIXTI=

> <s_epik_cmdline>
J2VwaWtfcHl0aG9uJywgJy1waCcsICc3LjAnLCAnLXRuJywgJzgnLCAnLW1hJywgJzIwMCcsICctbWV0YWxfYmluZGluZycsICctaW1hZScsICc8aW5maWxlLm1hZT4nLCAnLW9tYWUnLCAnPG91dGZpbGUubWFlPic=

> <r_epik_Ionization_Penalty>
2.46483

> <r_epik_Ionization_Penalty_Charging>
2.46471

> <r_epik_Ionization_Penalty_Neutral>
0.00011851

> <r_epik_State_Penalty>
2.62717

> <r_epik_Charging_Adjusted_Penalty>
5.09187

> <i_epik_Tot_Q>
1

> <i_epik_Tot_abs_Q>
1

> <r_epik_Metal_State_Penalty>
2.80118

> <b_epik_Metal_Only>
0

> <s_epik_Chemistry_Notes>
This compound has an imine and may undergo hydrolysis.

> <s_lp_Force_Field>
OPLS_2005

> <r_lp_Energy>
23.6794

> <b_lp_Chiralities_Consistent>
1

> <s_lp_Variant>
AV-unprocessed.smi:2134-2

> <Gold.Version>
5.8.1

> <Gold.Id.Protein>
6NUR|6NUR_protein|mol2

> <Gold.PLP.Fitness>
50.1387

> <Gold.PLP.PLP>
-44.8846

> <Gold.PLP.part.hbond>
-2.1836

> <Gold.PLP.part.metal>
0.0000

> <Gold.PLP.part.buried>
-3.8104

> <Gold.PLP.part.nonpolar>
-39.0930

> <Gold.PLP.part.repulsive>
0.3405

> <Gold.PLP.ligand.clash>
0.0000

> <Gold.PLP.ligand.torsion>
0.3767

> <Gold.PLP.Chemscore.Hbond>
2.0000

> <Gold.PLP.Chemscore.CHOScore>
0.0000

> <Gold.PLP.Chemscore.Metal>
0.0000

> <Gold.Chemscore.Hbonds>
donor molecule, donor type, donor heavy atom, donor atom, acceptor molecule, acceptor atom, score
      L1  H    14    36       P1  7948  1.81

> <Gold.PLP.Chemscore.Internal.Correction>
0.0075

> <Gold.Rescore>
     Score         DG    S(hbond)    S(metal)    S(lipo)     H(rot)  DE(clash)    DE(int)     intcor
     13.39     -15.29       0.90        0.00      91.39       1.52       0.02       1.88       ----

> <Gold.Chemscore.Fitness>
13.3877

> <Gold.Chemscore.DG>
-15.2896

> <Gold.Chemscore.ZeroCoef>
-5.4800

> <Gold.Chemscore.Hbond>
0.8975

> <Gold.Chemscore.Metal>
0.0000

> <Gold.Chemscore.Lipo>
91.3850

> <Gold.Chemscore.Internal_Hbond>
0.0000

> <Gold.Chemscore.DEClash>
0.0234

> <Gold.Chemscore.DEInternal>
1.8785

> <Gold.Chemscore.Rot>
1.5157

> <Gold.Chemscore.Internal.Correction>
   9.000000E+99

> <Gold.Chemscore.Hbonds>
donor molecule, donor type, donor heavy atom, donor atom, acceptor molecule, acceptor atom, score
      L1  H    14    36       P1  7948  0.82

> <Gold.Chemscore.Hbond.Weighted>
-2.9977

> <Gold.Chemscore.Metal.Weighted>
-0.0000

> <Gold.Chemscore.Lipo.Weighted>
-10.6920

> <Gold.Chemscore.Internal_Hbond.Weighted>
0.0000

> <Gold.Chemscore.DEClash.Weighted>
0.0234

> <Gold.Chemscore.DEInternal.Weighted>
1.8785

> <Gold.Chemscore.Rot.Weighted>
3.8801

> <Gold.Chemscore.Internal.Correction.Weighted>
   9.000000E+99

> <Gold.Protein.RotatedTorsions>
[ 6907 6896 6895 6894 ] final -158.10 input  -60.11 | X-H torsion
[ 7974 7965 7964 7962 ] final  121.82 input  175.53 | X-H torsion
[ 8008 7997 7996 7995 ] final   99.68 input   59.86 | X-H torsion
[ 10167 10162 10161 10158 ] final -163.65 input  -65.29 | X-H torsion
[ 10718 10713 10712 10709 ] final -104.38 input   66.30 | X-H torsion
[ 10763 10752 10751 10750 ] final  109.38 input  -60.55 | X-H torsion
[ 11005 11000 10999 10996 ] final -119.01 input  -57.11 | X-H torsion

> <Gold.Protein.ActiveResidues>
 VAL166  LYS551  ARG553  GLY616  TRP617  ASP618  TYR619  PRO620  LYS621  CYS622 
 ASP623  PHE694  ASN695  SER759  ASP760  ASP761  ALA762  ILE779  LEU786  VAL792 
 PHE793  MET794  SER795  GLU796  ALA797  LYS798  CYS799  TRP800  GLU811  SER814 

> <Gold.Protein.RotatedAtoms>
  151.3129  133.4073  159.2648 H   0  0  0  0  0  0  0  0  0  0  0  0  # atno 6907 bound_to 6896
  151.0099  134.9389  159.8011 H   0  0  0  0  0  0  0  0  0  0  0  0  # atno 6908 bound_to 6896
  152.5298  134.3094  159.9160 H   0  0  0  0  0  0  0  0  0  0  0  0  # atno 6909 bound_to 6896
  145.1148  139.3428  143.4745 H   0  0  0  0  0  0  0  0  0  0  0  0  # atno 7974 bound_to 7965
  156.1129  140.3225  155.8098 H   0  0  0  0  0  0  0  0  0  0  0  0  # atno 8008 bound_to 7997
  155.4641  140.0541  157.3004 H   0  0  0  0  0  0  0  0  0  0  0  0  # atno 8009 bound_to 7997
  154.4772  140.2037  155.9863 H   0  0  0  0  0  0  0  0  0  0  0  0  # atno 8010 bound_to 7997
  139.6305  144.0448  152.2012 H   0  0  0  0  0  0  0  0  0  0  0  0  # atno 10167 bound_to 10162
  156.0302  130.5512  150.7388 H   0  0  0  0  0  0  0  0  0  0  0  0  # atno 10718 bound_to 10713
  153.4340  135.3782  155.2187 H   0  0  0  0  0  0  0  0  0  0  0  0  # atno 10763 bound_to 10752
  154.8751  135.3847  154.4234 H   0  0  0  0  0  0  0  0  0  0  0  0  # atno 10764 bound_to 10752
  153.4770  135.7088  153.6023 H   0  0  0  0  0  0  0  0  0  0  0  0  # atno 10765 bound_to 10752
  141.0245  134.0074  157.3234 H   0  0  0  0  0  0  0  0  0  0  0  0  # atno 11005 bound_to 11000
  146.3524  140.1082  142.8605 LP  0  0  0  0  0  0  0  0  0  0  0  0  # atno 17320 bound_to 7965
  145.0807  140.9219  143.4827 LP  0  0  0  0  0  0  0  0  0  0  0  0  # atno 17321 bound_to 7965
  140.0113  144.6222  150.7645 LP  0  0  0  0  0  0  0  0  0  0  0  0  # atno 17342 bound_to 10162
  140.7436  143.2849  151.3492 LP  0  0  0  0  0  0  0  0  0  0  0  0  # atno 17343 bound_to 10162
  157.4962  131.0915  151.0368 LP  0  0  0  0  0  0  0  0  0  0  0  0  # atno 17370 bound_to 10713
  157.0761  130.5884  149.5411 LP  0  0  0  0  0  0  0  0  0  0  0  0  # atno 17371 bound_to 10713
  139.9167  135.0197  156.7909 LP  0  0  0  0  0  0  0  0  0  0  0  0  # atno 17394 bound_to 11000
  140.6515  133.9727  155.7757 LP  0  0  0  0  0  0  0  0  0  0  0  0  # atno 17395 bound_to 11000

$$$$
