AV-unprocessed.smi:3149|AV-procd|sdf|12004|dock8
  -GOLD-   2272017413D 1   1.00000     0.00000
 Structure written by MMmdl.
 37 38  0  0  0  0  0  0  0  0  1 V2000
  149.2544  141.9924  157.3614 C   0  0  0  0  0  0  0  0  0  0  0  0
  150.3017  141.2993  156.4623 C   0  0  1  0  0  0  0  0  0  0  0  0
  151.3695  140.7577  157.2990 N   0  0  0  0  0  0  0  0  0  0  0  0
  151.8134  141.6854  158.3466 C   0  0  0  0  0  0  0  0  0  0  0  0
  152.9901  141.1069  159.1365 C   0  0  0  0  0  0  0  0  0  0  0  0
  153.5684  140.0981  158.7324 O   0  0  0  0  0  0  0  0  0  0  0  0
  153.4316  141.8098  160.2608 N   0  0  0  0  0  0  0  0  0  0  0  0
  152.5301  142.6712  161.0106 C   0  0  0  0  0  0  0  0  0  0  0  0
  153.4014  142.3392  162.2266 C   0  0  0  0  0  0  0  0  0  0  0  0
  153.9250  141.1277  161.4480 C   0  0  0  0  0  0  0  0  0  0  0  0
  149.7103  140.1351  155.6204 C   0  0  2  0  0  0  0  0  0  0  0  0
  150.7629  139.4653  154.7146 C   0  0  0  0  0  0  0  0  0  0  0  0
  148.5642  140.5576  154.8239 N   0  0  0  0  0  0  0  0  0  0  0  0
  148.1164  141.8414  154.5890 C   0  0  0  0  0  0  0  0  0  0  0  0
  147.0165  141.7504  153.7848 C   0  0  0  0  0  0  0  0  0  0  0  0
  146.8638  140.3512  153.5781 C   0  0  0  0  0  0  0  0  0  0  0  0
  147.7895  139.6401  154.2006 N   0  0  0  0  0  0  0  0  0  0  0  0
  148.4580  142.4476  156.7728 H   0  0  0  0  0  0  0  0  0  0  0  0
  149.6906  142.7946  157.9555 H   0  0  0  0  0  0  0  0  0  0  0  0
  148.7923  141.2834  158.0489 H   0  0  0  0  0  0  0  0  0  0  0  0
  150.7160  142.0373  155.7731 H   0  0  0  0  0  0  0  0  0  0  0  0
  151.0864  139.8667  157.6817 H   0  0  0  0  0  0  0  0  0  0  0  0
  152.0965  142.6440  157.9095 H   0  0  0  0  0  0  0  0  0  0  0  0
  150.9997  141.8830  159.0438 H   0  0  0  0  0  0  0  0  0  0  0  0
  152.5564  143.7165  160.7018 H   0  0  0  0  0  0  0  0  0  0  0  0
  151.5142  142.2783  161.0896 H   0  0  0  0  0  0  0  0  0  0  0  0
  154.1686  143.0894  162.4267 H   0  0  0  0  0  0  0  0  0  0  0  0
  152.8386  142.0851  163.1252 H   0  0  0  0  0  0  0  0  0  0  0  0
  153.3877  140.2064  161.6803 H   0  0  0  0  0  0  0  0  0  0  0  0
  155.0079  141.0036  161.4736 H   0  0  0  0  0  0  0  0  0  0  0  0
  149.3398  139.3738  156.3095 H   0  0  0  0  0  0  0  0  0  0  0  0
  151.5621  139.0098  155.2992 H   0  0  0  0  0  0  0  0  0  0  0  0
  151.2208  140.1834  154.0335 H   0  0  0  0  0  0  0  0  0  0  0  0
  150.3140  138.6750  154.1119 H   0  0  0  0  0  0  0  0  0  0  0  0
  148.6131  142.7041  155.0078 H   0  0  0  0  0  0  0  0  0  0  0  0
  146.4130  142.5600  153.4024 H   0  0  0  0  0  0  0  0  0  0  0  0
  146.1131  139.8346  152.9982 H   0  0  0  0  0  0  0  0  0  0  0  0
  1  2  1  0  0  0  0
  1 18  1  0  0  0  0
  1 19  1  0  0  0  0
  1 20  1  0  0  0  0
  2  3  1  0  0  0  0
  2 11  1  0  0  0  0
  2 21  1  0  0  0  0
  3  4  1  0  0  0  0
  3 22  1  0  0  0  0
  4  5  1  0  0  0  0
  4 23  1  0  0  0  0
  4 24  1  0  0  0  0
  5  6  2  0  0  0  0
  5  7  1  0  0  0  0
  7 10  1  0  0  0  0
  7  8  1  0  0  0  0
  8  9  1  0  0  0  0
  8 25  1  0  0  0  0
  8 26  1  0  0  0  0
  9 10  1  0  0  0  0
  9 27  1  0  0  0  0
  9 28  1  0  0  0  0
 10 29  1  0  0  0  0
 10 30  1  0  0  0  0
 11 12  1  0  0  0  0
 11 13  1  0  0  0  0
 11 31  1  0  0  0  0
 12 32  1  0  0  0  0
 12 33  1  0  0  0  0
 12 34  1  0  0  0  0
 13 17  1  0  0  0  0
 13 14  1  0  0  0  0
 14 15  2  0  0  0  0
 14 35  1  0  0  0  0
 15 16  1  0  0  0  0
 15 36  1  0  0  0  0
 16 17  2  0  0  0  0
 16 37  1  0  0  0  0
M  END
> <s_m_source_file>
AV-unprocessed.smi

> <i_m_source_file_index>
3149

> <i_lp_mmshare_version>
43012

> <i_f3d_flags>
0

> <s_epik_input>
bjFbY0hdW2NIXVtjSF1uMVtDQEBIXShbQ0gzXSlbQ0BIXShbQ0gzXSlbTkhdW0NIMl1DKD1PKU4yW0NIMl1bQ0gyXVtDSDJdMg==

> <s_epik_cmdline>
J2VwaWtfcHl0aG9uJywgJy1waCcsICc3LjAnLCAnLXRuJywgJzgnLCAnLW1hJywgJzIwMCcsICctbWV0YWxfYmluZGluZycsICctaW1hZScsICc8aW5maWxlLm1hZT4nLCAnLW9tYWUnLCAnPG91dGZpbGUubWFlPic=

> <r_lp_tautomer_probability>
1

> <r_epik_Ionization_Penalty>
0.918674

> <r_epik_Ionization_Penalty_Charging>
0

> <r_epik_Ionization_Penalty_Neutral>
0.918674

> <r_epik_State_Penalty>
0.958258

> <r_epik_Charging_Adjusted_Penalty>
0.958258

> <i_epik_Tot_Q>
0

> <i_epik_Tot_abs_Q>
0

> <r_epik_Metal_State_Penalty>
0.956881

> <b_epik_Metal_Only>
0

> <s_lp_Force_Field>
OPLS_2005

> <r_lp_Energy>
23.4298

> <b_lp_Chiralities_Consistent>
1

> <s_lp_Variant>
AV-unprocessed.smi:3149-6

> <Gold.Version>
5.8.1

> <Gold.Id.Protein>
6NUR|6NUR_protein|mol2

> <Gold.PLP.Fitness>
44.9988

> <Gold.PLP.PLP>
-36.5972

> <Gold.PLP.part.hbond>
-1.0000

> <Gold.PLP.part.metal>
0.0000

> <Gold.PLP.part.buried>
-2.4095

> <Gold.PLP.part.nonpolar>
-33.1997

> <Gold.PLP.part.repulsive>
0.1327

> <Gold.PLP.ligand.clash>
0.0000

> <Gold.PLP.ligand.torsion>
0.7350

> <Gold.PLP.Chemscore.Hbond>
1.0000

> <Gold.PLP.Chemscore.CHOScore>
1.9892

> <Gold.PLP.Chemscore.Metal>
0.0000

> <Gold.Chemscore.Hbonds>
donor molecule, donor type, donor heavy atom, donor atom, acceptor molecule, acceptor atom, score
      P1  H  7997  8008       L1     6  1.00
      L1  C    14    35       P1  8028  1.00
      L1  C    16    37       P1 10175  0.91

> <Gold.PLP.Chemscore.Internal.Correction>
0.9041

> <Gold.Rescore>
     Score         DG    S(hbond)    S(metal)    S(lipo)     H(rot)  DE(clash)    DE(int)     intcor
     12.98     -14.14       0.91        0.00      87.32       1.79       0.08       1.09       ----

> <Gold.Chemscore.Fitness>
12.9751

> <Gold.Chemscore.DG>
-14.1443

> <Gold.Chemscore.ZeroCoef>
-5.4800

> <Gold.Chemscore.Hbond>
0.9052

> <Gold.Chemscore.Metal>
0.0000

> <Gold.Chemscore.Lipo>
87.3238

> <Gold.Chemscore.Internal_Hbond>
0.0000

> <Gold.Chemscore.DEClash>
0.0781

> <Gold.Chemscore.DEInternal>
1.0912

> <Gold.Chemscore.Rot>
1.7874

> <Gold.Chemscore.Internal.Correction>
   9.000000E+99

> <Gold.Chemscore.Hbonds>
donor molecule, donor type, donor heavy atom, donor atom, acceptor molecule, acceptor atom, score
      P1  H  7997  8008       L1     6  0.93

> <Gold.Chemscore.Hbond.Weighted>
-3.0233

> <Gold.Chemscore.Metal.Weighted>
-0.0000

> <Gold.Chemscore.Lipo.Weighted>
-10.2169

> <Gold.Chemscore.Internal_Hbond.Weighted>
0.0000

> <Gold.Chemscore.DEClash.Weighted>
0.0781

> <Gold.Chemscore.DEInternal.Weighted>
1.0912

> <Gold.Chemscore.Rot.Weighted>
4.5758

> <Gold.Chemscore.Internal.Correction.Weighted>
   9.000000E+99

> <Gold.Protein.RotatedTorsions>
[ 6907 6896 6895 6894 ] final   53.93 input  -60.11 | X-H torsion
[ 7974 7965 7964 7962 ] final  -99.39 input  175.53 | X-H torsion
[ 8008 7997 7996 7995 ] final  -98.63 input   59.86 | X-H torsion
[ 10167 10162 10161 10158 ] final  -58.74 input  -65.29 | X-H torsion
[ 10718 10713 10712 10709 ] final -136.08 input   66.30 | X-H torsion
[ 10763 10752 10751 10750 ] final  -12.03 input  -60.55 | X-H torsion
[ 11005 11000 10999 10996 ] final  140.11 input  -57.11 | X-H torsion

> <Gold.Protein.ActiveResidues>
 VAL166  LYS551  ARG553  GLY616  TRP617  ASP618  TYR619  PRO620  LYS621  CYS622 
 ASP623  PHE694  ASN695  SER759  ASP760  ASP761  ALA762  ILE779  LEU786  VAL792 
 PHE793  MET794  SER795  GLU796  ALA797  LYS798  CYS799  TRP800  GLU811  SER814 

> <Gold.Protein.RotatedAtoms>
  152.3387  134.7163  160.0269 H   0  0  0  0  0  0  0  0  0  0  0  0  # atno 6907 bound_to 6896
  151.7556  133.3325  159.3411 H   0  0  0  0  0  0  0  0  0  0  0  0  # atno 6908 bound_to 6896
  150.7466  134.6085  159.6118 H   0  0  0  0  0  0  0  0  0  0  0  0  # atno 6909 bound_to 6896
  145.3081  140.9394  143.2785 H   0  0  0  0  0  0  0  0  0  0  0  0  # atno 7974 bound_to 7965
  154.8038  140.0454  157.1292 H   0  0  0  0  0  0  0  0  0  0  0  0  # atno 8008 bound_to 7997
  154.9448  140.3057  155.5083 H   0  0  0  0  0  0  0  0  0  0  0  0  # atno 8009 bound_to 7997
  156.2964  140.2299  156.4520 H   0  0  0  0  0  0  0  0  0  0  0  0  # atno 8010 bound_to 7997
  140.6178  143.2408  151.5554 H   0  0  0  0  0  0  0  0  0  0  0  0  # atno 10167 bound_to 10162
  156.2732  130.7277  151.1251 H   0  0  0  0  0  0  0  0  0  0  0  0  # atno 10718 bound_to 10713
  153.4925  135.7017  153.5876 H   0  0  0  0  0  0  0  0  0  0  0  0  # atno 10763 bound_to 10752
  153.4043  135.3864  155.2008 H   0  0  0  0  0  0  0  0  0  0  0  0  # atno 10764 bound_to 10752
  154.8716  135.3889  154.4387 H   0  0  0  0  0  0  0  0  0  0  0  0  # atno 10765 bound_to 10752
  140.0303  134.9355  157.0650 H   0  0  0  0  0  0  0  0  0  0  0  0  # atno 11005 bound_to 11000
  144.9038  139.4615  143.6620 LP  0  0  0  0  0  0  0  0  0  0  0  0  # atno 17320 bound_to 7965
  146.3128  139.7807  142.9007 LP  0  0  0  0  0  0  0  0  0  0  0  0  # atno 17321 bound_to 7965
  139.5413  144.2639  152.1356 LP  0  0  0  0  0  0  0  0  0  0  0  0  # atno 17342 bound_to 10162
  140.1853  144.4805  150.6507 LP  0  0  0  0  0  0  0  0  0  0  0  0  # atno 17343 bound_to 10162
  157.7291  131.0627  150.5791 LP  0  0  0  0  0  0  0  0  0  0  0  0  # atno 17370 bound_to 10713
  156.5890  130.4324  149.5945 LP  0  0  0  0  0  0  0  0  0  0  0  0  # atno 17371 bound_to 10713
  140.4236  134.1854  155.7165 LP  0  0  0  0  0  0  0  0  0  0  0  0  # atno 17394 bound_to 11000
  141.1827  133.8379  157.1199 LP  0  0  0  0  0  0  0  0  0  0  0  0  # atno 17395 bound_to 11000

$$$$
