AV-unprocessed.smi:3222|AV-procd|sdf|12305|dock10
  -GOLD-   2272018153D 1   1.00000     0.00000
 Structure written by MMmdl.
 41 42  0  0  0  0  0  0  0  0  2 V2000
  152.8710  138.7545  155.3901 C   0  0  0  0  0  0  0  0  0  0  0  0
  151.6330  139.6669  155.3136 C   0  0  2  0  0  0  0  0  0  0  0  0
  151.1476  139.9236  156.6887 N   0  3  0  0  0  0  0  0  0  0  0  0
  152.0643  140.7140  157.5350 C   0  0  0  0  0  0  0  0  0  0  0  0
  151.3248  141.2974  158.7488 C   0  0  0  0  0  0  0  0  0  0  0  0
  151.6542  142.7052  158.9544 N   0  0  0  0  0  0  0  0  0  0  0  0
  151.5550  143.6595  157.8628 C   0  0  0  0  0  0  0  0  0  0  0  0
  152.1399  144.9658  158.4191 C   0  0  0  0  0  0  0  0  0  0  0  0
  152.2454  144.7657  159.9349 C   0  0  0  0  0  0  0  0  0  0  0  0
  152.0101  143.2754  160.1114 C   0  0  0  0  0  0  0  0  0  0  0  0
  152.1380  142.7012  161.1916 O   0  0  0  0  0  0  0  0  0  0  0  0
  150.4965  139.0767  154.4345 C   0  0  1  0  0  0  0  0  0  0  0  0
  150.1620  137.6134  154.7819 C   0  0  0  0  0  0  0  0  0  0  0  0
  149.2864  139.8875  154.4865 N   0  0  0  0  0  0  0  0  0  0  0  0
  148.1079  139.7095  153.7912 C   0  0  0  0  0  0  0  0  0  0  0  0
  147.2576  140.7100  154.1656 C   0  0  0  0  0  0  0  0  0  0  0  0
  148.0126  141.4606  155.1093 C   0  0  0  0  0  0  0  0  0  0  0  0
  149.2250  140.9663  155.3000 N   0  0  0  0  0  0  0  0  0  0  0  0
  153.3353  138.6155  154.4136 H   0  0  0  0  0  0  0  0  0  0  0  0
  152.6144  137.7690  155.7800 H   0  0  0  0  0  0  0  0  0  0  0  0
  153.6313  139.1827  156.0441 H   0  0  0  0  0  0  0  0  0  0  0  0
  151.9615  140.6094  154.8716 H   0  0  0  0  0  0  0  0  0  0  0  0
  150.2590  140.4002  156.6316 H   0  0  0  0  0  0  0  0  0  0  0  0
  152.8822  140.0700  157.8605 H   0  0  0  0  0  0  0  0  0  0  0  0
  152.5041  141.5198  156.9463 H   0  0  0  0  0  0  0  0  0  0  0  0
  150.2472  141.1958  158.6117 H   0  0  0  0  0  0  0  0  0  0  0  0
  151.5748  140.7357  159.6504 H   0  0  0  0  0  0  0  0  0  0  0  0
  152.1008  143.3150  156.9834 H   0  0  0  0  0  0  0  0  0  0  0  0
  150.5069  143.7867  157.5883 H   0  0  0  0  0  0  0  0  0  0  0  0
  153.1307  145.1431  157.9986 H   0  0  0  0  0  0  0  0  0  0  0  0
  151.5183  145.8251  158.1651 H   0  0  0  0  0  0  0  0  0  0  0  0
  153.2202  145.0632  160.3228 H   0  0  0  0  0  0  0  0  0  0  0  0
  151.4718  145.3215  160.4655 H   0  0  0  0  0  0  0  0  0  0  0  0
  150.8350  139.0951  153.3972 H   0  0  0  0  0  0  0  0  0  0  0  0
  151.0096  136.9537  154.5978 H   0  0  0  0  0  0  0  0  0  0  0  0
  149.3343  137.2476  154.1734 H   0  0  0  0  0  0  0  0  0  0  0  0
  149.8765  137.5052  155.8289 H   0  0  0  0  0  0  0  0  0  0  0  0
  147.9726  138.8952  153.0945 H   0  0  0  0  0  0  0  0  0  0  0  0
  146.2487  140.8792  153.8193 H   0  0  0  0  0  0  0  0  0  0  0  0
  147.7177  142.3432  155.6576 H   0  0  0  0  0  0  0  0  0  0  0  0
  151.0041  139.0322  157.1414 H   0  0  0  0  0  0  0  0  0  0  0  0
  1  2  1  0  0  0  0
  1 19  1  0  0  0  0
  1 20  1  0  0  0  0
  1 21  1  0  0  0  0
  2  3  1  0  0  0  0
  2 12  1  0  0  0  0
  2 22  1  0  0  0  0
  3  4  1  0  0  0  0
  3 23  1  0  0  0  0
  3 41  1  0  0  0  0
  4  5  1  0  0  0  0
  4 24  1  0  0  0  0
  4 25  1  0  0  0  0
  5  6  1  0  0  0  0
  5 26  1  0  0  0  0
  5 27  1  0  0  0  0
  6 10  1  0  0  0  0
  6  7  1  0  0  0  0
  7  8  1  0  0  0  0
  7 28  1  0  0  0  0
  7 29  1  0  0  0  0
  8  9  1  0  0  0  0
  8 30  1  0  0  0  0
  8 31  1  0  0  0  0
  9 10  1  0  0  0  0
  9 32  1  0  0  0  0
  9 33  1  0  0  0  0
 10 11  2  0  0  0  0
 12 13  1  0  0  0  0
 12 14  1  0  0  0  0
 12 34  1  0  0  0  0
 13 35  1  0  0  0  0
 13 36  1  0  0  0  0
 13 37  1  0  0  0  0
 14 18  1  0  0  0  0
 14 15  1  0  0  0  0
 15 16  2  0  0  0  0
 15 38  1  0  0  0  0
 16 17  1  0  0  0  0
 16 39  1  0  0  0  0
 17 18  2  0  0  0  0
 17 40  1  0  0  0  0
M  CHG  1   3   1
M  END
> <s_m_source_file>
AV-unprocessed.smi

> <i_m_source_file_index>
3222

> <i_lp_mmshare_version>
43012

> <i_f3d_flags>
0

> <s_epik_input>
bjFbY0hdW2NIXVtjSF1uMVtDQEBIXShbQ0gzXSlbQ0BIXShbQ0gzXSlbTkhdW0NIMl1bQ0gyXU4yW0NIMl1bQ0gyXVtDSDJdQzI9Tw==

> <s_epik_cmdline>
J2VwaWtfcHl0aG9uJywgJy1waCcsICc3LjAnLCAnLXRuJywgJzgnLCAnLW1hJywgJzIwMCcsICctbWV0YWxfYmluZGluZycsICctaW1hZScsICc8aW5maWxlLm1hZT4nLCAnLW9tYWUnLCAnPG91dGZpbGUubWFlPic=

> <r_lp_tautomer_probability>
1

> <r_epik_Ionization_Penalty>
0.0064019

> <r_epik_Ionization_Penalty_Charging>
0.00639164

> <r_epik_Ionization_Penalty_Neutral>
1.02567e-05

> <r_epik_State_Penalty>
0.00472531

> <r_epik_Charging_Adjusted_Penalty>
0.011117

> <i_epik_Tot_Q>
1

> <i_epik_Tot_abs_Q>
1

> <r_epik_Metal_State_Penalty>
-0

> <b_epik_Metal_Only>
0

> <s_lp_Force_Field>
OPLS_2005

> <r_lp_Energy>
25.0095

> <b_lp_Chiralities_Consistent>
1

> <s_lp_Variant>
AV-unprocessed.smi:3222-3

> <Gold.Version>
5.8.1

> <Gold.Id.Protein>
6NUR|6NUR_protein|mol2

> <Gold.PLP.Fitness>
44.4957

> <Gold.PLP.PLP>
-40.7851

> <Gold.PLP.part.hbond>
-1.0000

> <Gold.PLP.part.metal>
0.0000

> <Gold.PLP.part.buried>
-0.4995

> <Gold.PLP.part.nonpolar>
-39.3873

> <Gold.PLP.part.repulsive>
0.2787

> <Gold.PLP.ligand.clash>
0.0000

> <Gold.PLP.ligand.torsion>
0.6589

> <Gold.PLP.Chemscore.Hbond>
0.2821

> <Gold.PLP.Chemscore.CHOScore>
1.3634

> <Gold.PLP.Chemscore.Metal>
0.0000

> <Gold.Chemscore.Hbonds>
donor molecule, donor type, donor heavy atom, donor atom, acceptor molecule, acceptor atom, score
      L1  C    15    38       P1  7957  0.12
      L1  C    17    40       P1  8028  0.74

> <Gold.PLP.Chemscore.Internal.Correction>
0.0920

> <Gold.Rescore>
     Score         DG    S(hbond)    S(metal)    S(lipo)     H(rot)  DE(clash)    DE(int)     intcor
     11.16     -14.02       0.63        0.00      98.56       1.99       0.55       2.31       ----

> <Gold.Chemscore.Fitness>
11.1614

> <Gold.Chemscore.DG>
-14.0187

> <Gold.Chemscore.ZeroCoef>
-5.4800

> <Gold.Chemscore.Hbond>
0.6308

> <Gold.Chemscore.Metal>
0.0000

> <Gold.Chemscore.Lipo>
98.5635

> <Gold.Chemscore.Internal_Hbond>
0.0000

> <Gold.Chemscore.DEClash>
0.5495

> <Gold.Chemscore.DEInternal>
2.3078

> <Gold.Chemscore.Rot>
1.9922

> <Gold.Chemscore.Internal.Correction>
   9.000000E+99

> <Gold.Chemscore.Hbond.Weighted>
-2.1069

> <Gold.Chemscore.Metal.Weighted>
-0.0000

> <Gold.Chemscore.Lipo.Weighted>
-11.5319

> <Gold.Chemscore.Internal_Hbond.Weighted>
0.0000

> <Gold.Chemscore.DEClash.Weighted>
0.5495

> <Gold.Chemscore.DEInternal.Weighted>
2.3078

> <Gold.Chemscore.Rot.Weighted>
5.1002

> <Gold.Chemscore.Internal.Correction.Weighted>
   9.000000E+99

> <Gold.Protein.RotatedTorsions>
[ 6907 6896 6895 6894 ] final   54.16 input  -60.11 | X-H torsion
[ 7974 7965 7964 7962 ] final  106.03 input  175.53 | X-H torsion
[ 8008 7997 7996 7995 ] final  -70.02 input   59.86 | X-H torsion
[ 10167 10162 10161 10158 ] final  -61.60 input  -65.29 | X-H torsion
[ 10718 10713 10712 10709 ] final  113.46 input   66.30 | X-H torsion
[ 10763 10752 10751 10750 ] final  -97.29 input  -60.55 | X-H torsion
[ 11005 11000 10999 10996 ] final -169.95 input  -57.11 | X-H torsion

> <Gold.Protein.ActiveResidues>
 VAL166  LYS551  ARG553  GLY616  TRP617  ASP618  TYR619  PRO620  LYS621  CYS622 
 ASP623  PHE694  ASN695  SER759  ASP760  ASP761  ALA762  ILE779  LEU786  VAL792 
 PHE793  MET794  SER795  GLU796  ALA797  LYS798  CYS799  TRP800  GLU811  SER814 

> <Gold.Protein.RotatedAtoms>
  152.3410  134.7134  160.0263 H   0  0  0  0  0  0  0  0  0  0  0  0  # atno 6907 bound_to 6896
  151.7519  133.3322  159.3402 H   0  0  0  0  0  0  0  0  0  0  0  0  # atno 6908 bound_to 6896
  150.7480  134.6117  159.6134 H   0  0  0  0  0  0  0  0  0  0  0  0  # atno 6909 bound_to 6896
  145.3119  139.2538  143.3758 H   0  0  0  0  0  0  0  0  0  0  0  0  # atno 7974 bound_to 7965
  154.4981  140.0842  156.7740 H   0  0  0  0  0  0  0  0  0  0  0  0  # atno 8008 bound_to 7997
  155.4068  140.3439  155.4242 H   0  0  0  0  0  0  0  0  0  0  0  0  # atno 8009 bound_to 7997
  156.1421  140.1532  156.8893 H   0  0  0  0  0  0  0  0  0  0  0  0  # atno 8010 bound_to 7997
  140.5995  143.2358  151.5960 H   0  0  0  0  0  0  0  0  0  0  0  0  # atno 10167 bound_to 10162
  157.6337  131.0984  150.7043 H   0  0  0  0  0  0  0  0  0  0  0  0  # atno 10718 bound_to 10713
  154.7315  135.5052  153.8972 H   0  0  0  0  0  0  0  0  0  0  0  0  # atno 10763 bound_to 10752
  153.0954  135.6671  153.9781 H   0  0  0  0  0  0  0  0  0  0  0  0  # atno 10764 bound_to 10752
  153.9581  135.3050  155.3414 H   0  0  0  0  0  0  0  0  0  0  0  0  # atno 10765 bound_to 10752
  140.5250  134.5672  157.5058 H   0  0  0  0  0  0  0  0  0  0  0  0  # atno 11005 bound_to 11000
  146.3114  140.3657  142.8669 LP  0  0  0  0  0  0  0  0  0  0  0  0  # atno 17320 bound_to 7965
  144.9008  140.7641  143.5868 LP  0  0  0  0  0  0  0  0  0  0  0  0  # atno 17321 bound_to 7965
  139.5281  144.2997  152.1083 LP  0  0  0  0  0  0  0  0  0  0  0  0  # atno 17342 bound_to 10162
  140.2175  144.4500  150.6357 LP  0  0  0  0  0  0  0  0  0  0  0  0  # atno 17343 bound_to 10162
  156.7378  130.4730  149.5484 LP  0  0  0  0  0  0  0  0  0  0  0  0  # atno 17370 bound_to 10713
  156.1559  130.6341  151.0657 LP  0  0  0  0  0  0  0  0  0  0  0  0  # atno 17371 bound_to 10713
  139.9585  134.7493  156.0288 LP  0  0  0  0  0  0  0  0  0  0  0  0  # atno 17394 bound_to 11000
  141.1313  133.6586  156.3473 LP  0  0  0  0  0  0  0  0  0  0  0  0  # atno 17395 bound_to 11000

$$$$
