AV-unprocessed.smi:265|AV-procd|sdf|2029|dock7
  -GOLD-   2262021233D 1   1.00000     0.00000
 Structure written by MMmdl.
 52 56  0  0  0  0  0  0  0  0  1 V2000
  148.1567  131.8357  156.2143 C   0  0  0  0  0  0  0  0  0  0  0  0
  149.4167  132.5953  155.7711 C   0  0  2  0  0  0  0  0  0  0  0  0
  150.5634  131.7462  155.7762 O   0  0  0  0  0  0  0  0  0  0  0  0
  151.6705  132.4074  156.3782 C   0  0  0  0  0  0  0  0  0  0  0  0
  151.3000  133.8870  156.3913 C   0  0  0  0  0  0  0  0  0  0  0  0
  149.7914  133.8485  156.5939 C   0  0  2  0  0  0  0  0  0  0  0  0
  149.5290  133.6313  157.9704 O   0  0  0  0  0  0  0  0  0  0  0  0
  149.0397  135.1511  156.2148 C   0  0  0  0  0  0  0  0  0  0  0  0
  149.6728  136.3807  156.6658 N   0  0  0  0  0  0  0  0  0  0  0  0
  149.9269  136.7507  157.9684 C   0  0  0  0  0  0  0  0  0  0  0  0
  150.5058  137.9112  158.1169 N   0  0  0  0  0  0  0  0  0  0  0  0
  150.6432  138.3845  156.8187 C   0  0  0  0  0  0  0  0  0  0  0  0
  151.1789  139.5700  156.2530 C   0  0  0  0  0  0  0  0  0  0  0  0
  151.7166  140.5453  157.0149 N   0  0  0  0  0  0  0  0  0  0  0  0
  152.2843  140.0603  158.2737 C   0  0  0  0  0  0  0  0  0  0  0  0
  153.0563  141.1780  159.0007 C   0  0  0  0  0  0  0  0  0  0  0  0
  152.1497  142.4035  159.1808 C   0  0  1  0  0  0  0  0  0  0  0  0
  152.8454  143.5026  159.7493 O   0  0  0  0  0  0  0  0  0  0  0  0
  151.9943  144.6071  160.0765 C   0  0  0  0  0  0  0  0  0  0  0  0
  151.0151  144.9677  158.9384 C   0  0  0  0  0  0  0  0  0  0  0  0
  150.3971  146.0293  158.9765 O   0  0  0  0  0  0  0  0  0  0  0  0
  150.8359  144.0767  157.9492 N   0  0  0  0  0  0  0  0  0  0  0  0
  151.6401  142.8704  157.8078 C   0  0  2  0  0  0  0  0  0  0  0  0
  150.8686  141.7322  157.1209 C   0  0  0  0  0  0  0  0  0  0  0  0
  151.1422  139.7071  154.9015 N   0  0  0  0  0  0  0  0  0  0  0  0
  150.6102  138.7384  154.1492 C   0  0  0  0  0  0  0  0  0  0  0  0
  150.0748  137.5783  154.5371 N   0  0  0  0  0  0  0  0  0  0  0  0
  150.1158  137.4411  155.8941 C   0  0  0  0  0  0  0  0  0  0  0  0
  151.3143  142.1293  159.8290 H   0  0  0  0  0  0  0  0  0  0  0  0
  152.4952  143.1355  157.1832 H   0  0  0  0  0  0  0  0  0  0  0  0
  147.2846  132.4897  156.2102 H   0  0  0  0  0  0  0  0  0  0  0  0
  148.2660  131.4244  157.2179 H   0  0  0  0  0  0  0  0  0  0  0  0
  147.9501  131.0043  155.5404 H   0  0  0  0  0  0  0  0  0  0  0  0
  149.2928  132.8751  154.7261 H   0  0  0  0  0  0  0  0  0  0  0  0
  151.7904  132.0334  157.3957 H   0  0  0  0  0  0  0  0  0  0  0  0
  152.5954  132.2118  155.8351 H   0  0  0  0  0  0  0  0  0  0  0  0
  151.8314  134.4555  157.1554 H   0  0  0  0  0  0  0  0  0  0  0  0
  151.5545  134.3128  155.4216 H   0  0  0  0  0  0  0  0  0  0  0  0
  148.7754  133.0666  158.0478 H   0  0  0  0  0  0  0  0  0  0  0  0
  148.9262  135.2104  155.1312 H   0  0  0  0  0  0  0  0  0  0  0  0
  148.0278  135.1284  156.6221 H   0  0  0  0  0  0  0  0  0  0  0  0
  149.6737  136.1242  158.8115 H   0  0  0  0  0  0  0  0  0  0  0  0
  151.4824  139.6904  158.9145 H   0  0  0  0  0  0  0  0  0  0  0  0
  152.9501  139.2187  158.0771 H   0  0  0  0  0  0  0  0  0  0  0  0
  153.4105  140.8225  159.9686 H   0  0  0  0  0  0  0  0  0  0  0  0
  153.9404  141.4509  158.4231 H   0  0  0  0  0  0  0  0  0  0  0  0
  151.4170  144.3630  160.9690 H   0  0  0  0  0  0  0  0  0  0  0  0
  152.6123  145.4718  160.3194 H   0  0  0  0  0  0  0  0  0  0  0  0
  150.1708  144.2874  157.2194 H   0  0  0  0  0  0  0  0  0  0  0  0
  150.5490  142.0451  156.1257 H   0  0  0  0  0  0  0  0  0  0  0  0
  149.9685  141.4912  157.6888 H   0  0  0  0  0  0  0  0  0  0  0  0
  150.6152  138.9174  153.0841 H   0  0  0  0  0  0  0  0  0  0  0  0
  1  2  1  0  0  0  0
  1 31  1  0  0  0  0
  1 32  1  0  0  0  0
  1 33  1  0  0  0  0
  2  6  1  0  0  0  0
  2  3  1  0  0  0  0
  2 34  1  0  0  0  0
  3  4  1  0  0  0  0
  4  5  1  0  0  0  0
  4 35  1  0  0  0  0
  4 36  1  0  0  0  0
  5  6  1  0  0  0  0
  5 37  1  0  0  0  0
  5 38  1  0  0  0  0
  6  7  1  0  0  0  0
  6  8  1  0  0  0  0
  7 39  1  0  0  0  0
  8  9  1  0  0  0  0
  8 40  1  0  0  0  0
  8 41  1  0  0  0  0
  9 28  1  0  0  0  0
  9 10  1  0  0  0  0
 10 11  2  0  0  0  0
 10 42  1  0  0  0  0
 11 12  1  0  0  0  0
 12 28  2  0  0  0  0
 12 13  1  0  0  0  0
 13 14  1  0  0  0  0
 13 25  2  0  0  0  0
 14 24  1  0  0  0  0
 14 15  1  0  0  0  0
 15 16  1  0  0  0  0
 15 43  1  0  0  0  0
 15 44  1  0  0  0  0
 16 17  1  0  0  0  0
 16 45  1  0  0  0  0
 16 46  1  0  0  0  0
 17 29  1  0  0  0  0
 17 23  1  0  0  0  0
 17 18  1  0  0  0  0
 18 19  1  0  0  0  0
 19 20  1  0  0  0  0
 19 47  1  0  0  0  0
 19 48  1  0  0  0  0
 20 21  2  0  0  0  0
 20 22  1  0  0  0  0
 22 23  1  0  0  0  0
 22 49  1  0  0  0  0
 23 30  1  0  0  0  0
 23 24  1  0  0  0  0
 24 50  1  0  0  0  0
 24 51  1  0  0  0  0
 25 26  1  0  0  0  0
 26 27  2  0  0  0  0
 26 52  1  0  0  0  0
 27 28  1  0  0  0  0
M  END
> <s_m_source_file>
AV-unprocessed.smi

> <i_m_source_file_index>
265

> <i_lp_mmshare_version>
43012

> <i_f3d_flags>
0

> <s_epik_input>
W0NIMl0xW0NIMl1PW0NAQEhdKFtDSDNdKVtDQEBdMShbT0hdKVtDSDJdbihbY0hdbjIpYyhjMjMpbltjSF1uYzNOKFtDSDJdW0NIMl00KVtDSDJdW0NAQEhdKFtDQEhdNDUpW05IXUMoPU8pW0NIMl1PNQ==

> <s_epik_cmdline>
J2VwaWtfcHl0aG9uJywgJy1waCcsICc3LjAnLCAnLXRuJywgJzgnLCAnLW1hJywgJzIwMCcsICctbWV0YWxfYmluZGluZycsICctaW1hZScsICc8aW5maWxlLm1hZT4nLCAnLW9tYWUnLCAnPG91dGZpbGUubWFlPic=

> <r_lp_tautomer_probability>
1

> <r_epik_Ionization_Penalty>
0.00221504

> <r_epik_Ionization_Penalty_Charging>
0

> <r_epik_Ionization_Penalty_Neutral>
0.00221504

> <r_epik_State_Penalty>
-0

> <r_epik_Charging_Adjusted_Penalty>
0

> <i_epik_Tot_Q>
0

> <i_epik_Tot_abs_Q>
0

> <r_epik_Metal_State_Penalty>
-0

> <b_epik_Metal_Only>
0

> <s_lp_Force_Field>
OPLS_2005

> <r_lp_Energy>
49.142

> <b_lp_Chiralities_Consistent>
1

> <s_lp_Variant>
AV-unprocessed.smi:265-15

> <Gold.Version>
5.8.1

> <Gold.Id.Protein>
6NUR|6NUR_protein|mol2

> <Gold.PLP.Fitness>
43.9579

> <Gold.PLP.PLP>
-33.5585

> <Gold.PLP.part.hbond>
-5.1031

> <Gold.PLP.part.metal>
0.0000

> <Gold.PLP.part.buried>
-4.9242

> <Gold.PLP.part.nonpolar>
-24.9972

> <Gold.PLP.part.repulsive>
1.3076

> <Gold.PLP.ligand.clash>
0.0000

> <Gold.PLP.ligand.torsion>
0.7450

> <Gold.PLP.Chemscore.Hbond>
2.8913

> <Gold.PLP.Chemscore.CHOScore>
1.0000

> <Gold.PLP.Chemscore.Metal>
0.0000

> <Gold.Chemscore.Hbonds>
donor molecule, donor type, donor heavy atom, donor atom, acceptor molecule, acceptor atom, score
      L1  H    22    49       P1  8028  0.98
      P1  H  6896  6907       L1     7  1.00
      P1  H  7989  7998       L1    25  0.90
      L1  C    26    52       P1  7957  1.00

> <Gold.PLP.Chemscore.Internal.Correction>
0.2155

> <Gold.Rescore>
     Score         DG    S(hbond)    S(metal)    S(lipo)     H(rot)  DE(clash)    DE(int)     intcor
     12.71     -17.01       2.45        0.00      77.84       2.25       2.07       2.24       ----

> <Gold.Chemscore.Fitness>
12.7062

> <Gold.Chemscore.DG>
-17.0110

> <Gold.Chemscore.ZeroCoef>
-5.4800

> <Gold.Chemscore.Hbond>
2.4466

> <Gold.Chemscore.Metal>
0.0000

> <Gold.Chemscore.Lipo>
77.8396

> <Gold.Chemscore.Internal_Hbond>
0.0000

> <Gold.Chemscore.DEClash>
2.0687

> <Gold.Chemscore.DEInternal>
2.2361

> <Gold.Chemscore.Rot>
2.2453

> <Gold.Chemscore.Internal.Correction>
   9.000000E+99

> <Gold.Chemscore.Hbonds>
donor molecule, donor type, donor heavy atom, donor atom, acceptor molecule, acceptor atom, score
      L1  H    22    49       P1  8028  0.65
      P1  H  6896  6907       L1     7  0.99
      P1  H  7989  7998       L1    25  0.18

> <Gold.Chemscore.Hbond.Weighted>
-8.1717

> <Gold.Chemscore.Metal.Weighted>
-0.0000

> <Gold.Chemscore.Lipo.Weighted>
-9.1072

> <Gold.Chemscore.Internal_Hbond.Weighted>
0.0000

> <Gold.Chemscore.DEClash.Weighted>
2.0687

> <Gold.Chemscore.DEInternal.Weighted>
2.2361

> <Gold.Chemscore.Rot.Weighted>
5.7479

> <Gold.Chemscore.Internal.Correction.Weighted>
   9.000000E+99

> <Gold.Protein.RotatedTorsions>
[ 6907 6896 6895 6894 ] final -115.41 input  -60.11 | X-H torsion
[ 7974 7965 7964 7962 ] final -106.15 input  175.53 | X-H torsion
[ 8008 7997 7996 7995 ] final  127.11 input   59.86 | X-H torsion
[ 10167 10162 10161 10158 ] final   86.35 input  -65.29 | X-H torsion
[ 10718 10713 10712 10709 ] final  151.00 input   66.30 | X-H torsion
[ 10763 10752 10751 10750 ] final  -35.81 input  -60.55 | X-H torsion
[ 11005 11000 10999 10996 ] final  155.15 input  -57.11 | X-H torsion

> <Gold.Protein.ActiveResidues>
 VAL166  LYS551  ARG553  GLY616  TRP617  ASP618  TYR619  PRO620  LYS621  CYS622 
 ASP623  PHE694  ASN695  SER759  ASP760  ASP761  ALA762  ILE779  LEU786  VAL792 
 PHE793  MET794  SER795  GLU796  ALA797  LYS798  CYS799  TRP800  GLU811  SER814 

> <Gold.Protein.RotatedAtoms>
  150.7975  133.8663  159.3245 H   0  0  0  0  0  0  0  0  0  0  0  0  # atno 6907 bound_to 6896
  151.6484  135.1003  160.0165 H   0  0  0  0  0  0  0  0  0  0  0  0  # atno 6908 bound_to 6896
  152.4059  133.6849  159.6391 H   0  0  0  0  0  0  0  0  0  0  0  0  # atno 6909 bound_to 6896
  145.2215  140.9136  143.3257 H   0  0  0  0  0  0  0  0  0  0  0  0  # atno 7974 bound_to 7965
  156.2882  140.2677  156.2220 H   0  0  0  0  0  0  0  0  0  0  0  0  # atno 8008 bound_to 7997
  155.0159  140.0387  157.2436 H   0  0  0  0  0  0  0  0  0  0  0  0  # atno 8009 bound_to 7997
  154.7478  140.2737  155.6323 H   0  0  0  0  0  0  0  0  0  0  0  0  # atno 8010 bound_to 7997
  139.8885  144.6399  150.8765 H   0  0  0  0  0  0  0  0  0  0  0  0  # atno 10167 bound_to 10162
  157.2763  131.0827  151.1564 H   0  0  0  0  0  0  0  0  0  0  0  0  # atno 10718 bound_to 10713
  153.8694  135.6832  153.4775 H   0  0  0  0  0  0  0  0  0  0  0  0  # atno 10763 bound_to 10752
  153.1296  135.4704  154.9325 H   0  0  0  0  0  0  0  0  0  0  0  0  # atno 10764 bound_to 10752
  154.7721  135.3242  154.8118 H   0  0  0  0  0  0  0  0  0  0  0  0  # atno 10765 bound_to 10752
  140.1554  134.8646  157.2508 H   0  0  0  0  0  0  0  0  0  0  0  0  # atno 11005 bound_to 11000
  144.9761  139.3830  143.6285 LP  0  0  0  0  0  0  0  0  0  0  0  0  # atno 17320 bound_to 7965
  146.3375  139.8881  142.8813 LP  0  0  0  0  0  0  0  0  0  0  0  0  # atno 17321 bound_to 7965
  140.7731  143.3529  151.1978 LP  0  0  0  0  0  0  0  0  0  0  0  0  # atno 17342 bound_to 10162
  139.7131  143.9344  152.2956 LP  0  0  0  0  0  0  0  0  0  0  0  0  # atno 17343 bound_to 10162
  157.3015  130.6845  149.6167 LP  0  0  0  0  0  0  0  0  0  0  0  0  # atno 17370 bound_to 10713
  155.9664  130.4390  150.5242 LP  0  0  0  0  0  0  0  0  0  0  0  0  # atno 17371 bound_to 10713
  140.2553  134.3634  155.7426 LP  0  0  0  0  0  0  0  0  0  0  0  0  # atno 17394 bound_to 11000
  141.2204  133.7339  156.8998 LP  0  0  0  0  0  0  0  0  0  0  0  0  # atno 17395 bound_to 11000

$$$$
