AV-unprocessed.smi:67|AV-procd|sdf|637|dock3
  -GOLD-   2262016533D 1   1.00000     0.00000
 Structure written by MMmdl.
 48 50  0  0  0  0  0  0  0  0  2 V2000
  155.1606  134.5022  162.8039 O   0  0  0  0  0  0  0  0  0  0  0  0
  155.0864  135.9165  162.7748 C   0  0  1  0  0  0  0  0  0  0  0  0
  155.1825  136.3877  161.2980 C   0  0  0  0  0  0  0  0  0  0  0  0
  155.2646  137.8647  161.1072 N   0  3  2  0  0  0  0  0  0  0  0  0
  153.9509  138.5152  161.3592 C   0  0  0  0  0  0  0  0  0  0  0  0
  154.0489  140.0479  161.2920 C   0  0  0  0  0  0  0  0  0  0  0  0
  154.6117  140.5148  159.9368 C   0  0  2  0  0  0  0  0  0  0  0  0
  153.7421  140.1623  158.8627 O   0  0  0  0  0  0  0  0  0  0  0  0
  152.6389  140.9415  158.5808 C   0  0  0  0  0  0  0  0  0  0  0  0
  151.5582  140.5438  157.7543 C   0  0  0  0  0  0  0  0  0  0  0  0
  150.4734  141.4138  157.5345 C   0  0  0  0  0  0  0  0  0  0  0  0
  150.4532  142.6867  158.1333 C   0  0  0  0  0  0  0  0  0  0  0  0
  151.5218  143.0998  158.9556 C   0  0  0  0  0  0  0  0  0  0  0  0
  151.4996  144.4710  159.6143 C   0  0  0  0  0  0  0  0  0  0  0  0
  150.2543  144.9415  159.6952 F   0  0  0  0  0  0  0  0  0  0  0  0
  152.0038  144.4131  160.8475 F   0  0  0  0  0  0  0  0  0  0  0  0
  152.2316  145.3164  158.8900 F   0  0  0  0  0  0  0  0  0  0  0  0
  152.6025  142.2190  159.1767 C   0  0  0  0  0  0  0  0  0  0  0  0
  155.9559  139.8158  159.6927 C   0  0  0  0  0  0  0  0  0  0  0  0
  155.8395  138.2847  159.8007 C   0  0  0  0  0  0  0  0  0  0  0  0
  153.8441  136.4369  163.5330 C   0  0  0  0  0  0  0  0  0  0  0  0
  154.3889  137.1405  164.7751 C   0  0  0  0  0  0  0  0  0  0  0  0
  155.7310  137.5478  164.4061 N   0  0  0  0  0  0  0  0  0  0  0  0
  156.2665  136.4556  163.6124 C   0  0  0  0  0  0  0  0  0  0  0  0
  154.3391  134.1626  163.1248 H   0  0  0  0  0  0  0  0  0  0  0  0
  156.0085  135.8946  160.7830 H   0  0  0  0  0  0  0  0  0  0  0  0
  154.2775  136.0484  160.7920 H   0  0  0  0  0  0  0  0  0  0  0  0
  153.2207  138.1535  160.6335 H   0  0  0  0  0  0  0  0  0  0  0  0
  153.5809  138.2318  162.3454 H   0  0  0  0  0  0  0  0  0  0  0  0
  153.0695  140.4859  161.4817 H   0  0  0  0  0  0  0  0  0  0  0  0
  154.6976  140.4028  162.0939 H   0  0  0  0  0  0  0  0  0  0  0  0
  154.7969  141.5891  159.9416 H   0  0  0  0  0  0  0  0  0  0  0  0
  151.5329  139.5772  157.2763 H   0  0  0  0  0  0  0  0  0  0  0  0
  149.6524  141.1027  156.9053 H   0  0  0  0  0  0  0  0  0  0  0  0
  149.6128  143.3429  157.9606 H   0  0  0  0  0  0  0  0  0  0  0  0
  153.4202  142.5233  159.8134 H   0  0  0  0  0  0  0  0  0  0  0  0
  156.3453  140.0905  158.7118 H   0  0  0  0  0  0  0  0  0  0  0  0
  156.6855  140.1722  160.4211 H   0  0  0  0  0  0  0  0  0  0  0  0
  156.8396  137.8758  159.6804 H   0  0  0  0  0  0  0  0  0  0  0  0
  155.2293  137.8906  158.9865 H   0  0  0  0  0  0  0  0  0  0  0  0
  153.3091  137.1752  162.9350 H   0  0  0  0  0  0  0  0  0  0  0  0
  153.1353  135.6492  163.7924 H   0  0  0  0  0  0  0  0  0  0  0  0
  153.7746  137.9871  165.0830 H   0  0  0  0  0  0  0  0  0  0  0  0
  154.4319  136.4370  165.6076 H   0  0  0  0  0  0  0  0  0  0  0  0
  156.2994  137.7056  165.2326 H   0  0  0  0  0  0  0  0  0  0  0  0
  156.6359  135.6809  164.2868 H   0  0  0  0  0  0  0  0  0  0  0  0
  157.1150  136.7791  163.0086 H   0  0  0  0  0  0  0  0  0  0  0  0
  155.8916  138.2057  161.8223 H   0  0  0  0  0  0  0  0  0  0  0  0
  1  2  1  0  0  0  0
  1 25  1  0  0  0  0
  2 24  1  0  0  0  0
  2  3  1  0  0  0  0
  2 21  1  0  0  0  0
  3  4  1  0  0  0  0
  3 26  1  0  0  0  0
  3 27  1  0  0  0  0
  4 20  1  0  0  0  0
  4  5  1  0  0  0  0
  4 48  1  0  0  0  0
  5  6  1  0  0  0  0
  5 28  1  0  0  0  0
  5 29  1  0  0  0  0
  6  7  1  0  0  0  0
  6 30  1  0  0  0  0
  6 31  1  0  0  0  0
  7  8  1  0  0  0  0
  7 19  1  0  0  0  0
  7 32  1  0  0  0  0
  8  9  1  0  0  0  0
  9 18  1  0  0  0  0
  9 10  2  0  0  0  0
 10 11  1  0  0  0  0
 10 33  1  0  0  0  0
 11 12  2  0  0  0  0
 11 34  1  0  0  0  0
 12 13  1  0  0  0  0
 12 35  1  0  0  0  0
 13 14  1  0  0  0  0
 13 18  2  0  0  0  0
 14 15  1  0  0  0  0
 14 16  1  0  0  0  0
 14 17  1  0  0  0  0
 18 36  1  0  0  0  0
 19 20  1  0  0  0  0
 19 37  1  0  0  0  0
 19 38  1  0  0  0  0
 20 39  1  0  0  0  0
 20 40  1  0  0  0  0
 21 22  1  0  0  0  0
 21 41  1  0  0  0  0
 21 42  1  0  0  0  0
 22 23  1  0  0  0  0
 22 43  1  0  0  0  0
 22 44  1  0  0  0  0
 23 24  1  0  0  0  0
 23 45  1  0  0  0  0
 24 46  1  0  0  0  0
 24 47  1  0  0  0  0
M  CHG  1   4   1
M  END
> <s_m_source_file>
AV-unprocessed.smi

> <i_m_source_file_index>
67

> <i_lp_mmshare_version>
43012

> <i_f3d_flags>
0

> <s_epik_input>
W0NIMl0xW05IXVtDSDJdW0NIMl1bQ0BAXTEoW09IXSlbQ0gyXU4yW0NIMl1bQ0gyXVtDSF0oW0NIMl1bQ0gyXTIpT2MzW2NIXVtjSF1bY0hdYyhDKEYpKEYpRilbY0hdMw==

> <s_epik_cmdline>
J2VwaWtfcHl0aG9uJywgJy1waCcsICc3LjAnLCAnLXRuJywgJzgnLCAnLW1hJywgJzIwMCcsICctbWV0YWxfYmluZGluZycsICctaW1hZScsICc8aW5maWxlLm1hZT4nLCAnLW9tYWUnLCAnPG91dGZpbGUubWFlPic=

> <r_epik_Ionization_Penalty>
2.37709

> <r_epik_Ionization_Penalty_Charging>
0.0305656

> <r_epik_Ionization_Penalty_Neutral>
2.34653

> <r_epik_State_Penalty>
2.56959

> <r_epik_Charging_Adjusted_Penalty>
2.60016

> <i_epik_Tot_Q>
1

> <i_epik_Tot_abs_Q>
1

> <r_epik_Metal_State_Penalty>
2.56925

> <b_epik_Metal_Only>
0

> <s_lp_Force_Field>
OPLS_2005

> <r_lp_Energy>
51.6978

> <b_lp_Chiralities_Consistent>
1

> <s_lp_Variant>
AV-unprocessed.smi:67-9

> <Gold.Version>
5.8.1

> <Gold.Id.Protein>
6NUR|6NUR_protein|mol2

> <Gold.PLP.Fitness>
47.1076

> <Gold.PLP.PLP>
-45.6772

> <Gold.PLP.part.hbond>
-1.0000

> <Gold.PLP.part.metal>
0.0000

> <Gold.PLP.part.buried>
-5.4571

> <Gold.PLP.part.nonpolar>
-39.7596

> <Gold.PLP.part.repulsive>
0.0000

> <Gold.PLP.ligand.clash>
0.2904

> <Gold.PLP.ligand.torsion>
1.4795

> <Gold.PLP.Chemscore.Hbond>
0.9440

> <Gold.PLP.Chemscore.CHOScore>
0.0000

> <Gold.PLP.Chemscore.Metal>
0.0000

> <Gold.Chemscore.Hbonds>
donor molecule, donor type, donor heavy atom, donor atom, acceptor molecule, acceptor atom, score
      P1  H  7997  8010       L1     8  0.96

> <Gold.PLP.Chemscore.Internal.Correction>
1.8478

> <Gold.Rescore>
     Score         DG    S(hbond)    S(metal)    S(lipo)     H(rot)  DE(clash)    DE(int)     intcor
     14.79     -15.97       0.52        0.00     122.51       2.17       0.10       1.08       ----

> <Gold.Chemscore.Fitness>
14.7912

> <Gold.Chemscore.DG>
-15.9706

> <Gold.Chemscore.ZeroCoef>
-5.4800

> <Gold.Chemscore.Hbond>
0.5153

> <Gold.Chemscore.Metal>
0.0000

> <Gold.Chemscore.Lipo>
122.5080

> <Gold.Chemscore.Internal_Hbond>
0.0000

> <Gold.Chemscore.DEClash>
0.1017

> <Gold.Chemscore.DEInternal>
1.0777

> <Gold.Chemscore.Rot>
2.1734

> <Gold.Chemscore.Internal.Correction>
   9.000000E+99

> <Gold.Chemscore.Hbonds>
donor molecule, donor type, donor heavy atom, donor atom, acceptor molecule, acceptor atom, score
      P1  H  7997  8010       L1     8  0.39

> <Gold.Chemscore.Hbond.Weighted>
-1.7212

> <Gold.Chemscore.Metal.Weighted>
-0.0000

> <Gold.Chemscore.Lipo.Weighted>
-14.3334

> <Gold.Chemscore.Internal_Hbond.Weighted>
0.0000

> <Gold.Chemscore.DEClash.Weighted>
0.1017

> <Gold.Chemscore.DEInternal.Weighted>
1.0777

> <Gold.Chemscore.Rot.Weighted>
5.5640

> <Gold.Chemscore.Internal.Correction.Weighted>
   9.000000E+99

> <Gold.Protein.RotatedTorsions>
[ 6907 6896 6895 6894 ] final  139.53 input  -60.11 | X-H torsion
[ 7974 7965 7964 7962 ] final -163.67 input  175.53 | X-H torsion
[ 8008 7997 7996 7995 ] final   16.73 input   59.86 | X-H torsion
[ 10167 10162 10161 10158 ] final  -12.10 input  -65.29 | X-H torsion
[ 10718 10713 10712 10709 ] final   98.13 input   66.30 | X-H torsion
[ 10763 10752 10751 10750 ] final -137.11 input  -60.55 | X-H torsion
[ 11005 11000 10999 10996 ] final -108.89 input  -57.11 | X-H torsion

> <Gold.Protein.ActiveResidues>
 VAL166  LYS551  ARG553  GLY616  TRP617  ASP618  TYR619  PRO620  LYS621  CYS622 
 ASP623  PHE694  ASN695  SER759  ASP760  ASP761  ALA762  ILE779  LEU786  VAL792 
 PHE793  MET794  SER795  GLU796  ALA797  LYS798  CYS799  TRP800  GLU811  SER814 

> <Gold.Protein.RotatedAtoms>
  152.2538  133.5238  159.5340 H   0  0  0  0  0  0  0  0  0  0  0  0  # atno 6907 bound_to 6896
  150.7102  134.0923  159.3945 H   0  0  0  0  0  0  0  0  0  0  0  0  # atno 6908 bound_to 6896
  151.8842  135.0441  160.0542 H   0  0  0  0  0  0  0  0  0  0  0  0  # atno 6909 bound_to 6896
  144.7319  140.3074  143.6194 H   0  0  0  0  0  0  0  0  0  0  0  0  # atno 7974 bound_to 7965
  154.8812  140.2973  155.5424 H   0  0  0  0  0  0  0  0  0  0  0  0  # atno 8008 bound_to 7997
  156.3022  140.2442  156.3748 H   0  0  0  0  0  0  0  0  0  0  0  0  # atno 8009 bound_to 7997
  154.8715  140.0401  157.1716 H   0  0  0  0  0  0  0  0  0  0  0  0  # atno 8010 bound_to 7997
  140.7153  143.5569  150.9239 H   0  0  0  0  0  0  0  0  0  0  0  0  # atno 10167 bound_to 10162
  157.6901  131.0631  150.4749 H   0  0  0  0  0  0  0  0  0  0  0  0  # atno 10718 bound_to 10713
  154.8669  135.3652  154.5170 H   0  0  0  0  0  0  0  0  0  0  0  0  # atno 10763 bound_to 10752
  153.5802  135.7018  153.5471 H   0  0  0  0  0  0  0  0  0  0  0  0  # atno 10764 bound_to 10752
  153.3464  135.4084  155.1574 H   0  0  0  0  0  0  0  0  0  0  0  0  # atno 10765 bound_to 10752
  141.0877  133.9109  157.2147 H   0  0  0  0  0  0  0  0  0  0  0  0  # atno 11005 bound_to 11000
  145.7699  139.1854  143.2218 LP  0  0  0  0  0  0  0  0  0  0  0  0  # atno 17320 bound_to 7965
  146.0919  140.7646  142.9591 LP  0  0  0  0  0  0  0  0  0  0  0  0  # atno 17321 bound_to 7965
  139.9294  143.6511  152.3079 LP  0  0  0  0  0  0  0  0  0  0  0  0  # atno 17342 bound_to 10162
  139.6957  144.7641  151.1361 LP  0  0  0  0  0  0  0  0  0  0  0  0  # atno 17343 bound_to 10162
  156.5085  130.4134  149.6314 LP  0  0  0  0  0  0  0  0  0  0  0  0  # atno 17370 bound_to 10713
  156.3262  130.7307  151.2228 LP  0  0  0  0  0  0  0  0  0  0  0  0  # atno 17371 bound_to 10713
  139.9698  135.0131  156.9482 LP  0  0  0  0  0  0  0  0  0  0  0  0  # atno 17394 bound_to 11000
  140.5324  134.0800  155.7319 LP  0  0  0  0  0  0  0  0  0  0  0  0  # atno 17395 bound_to 11000

$$$$
