AV-unprocessed.smi:1504|AV-procd|sdf|6071|dock2
  -GOLD-   22720 6193D 1   1.00000     0.00000
 Structure written by MMmdl.
 39 40  0  0  0  0  0  0  0  0  1 V2000
  153.1003  139.0143  157.4302 O   0  0  0  0  0  0  0  0  0  0  0  0
  152.1740  139.7579  157.7533 C   0  0  0  0  0  0  0  0  0  0  0  0
  152.1756  140.5242  158.8525 N   0  0  0  0  0  0  0  0  0  0  0  0
  153.2572  140.5810  159.8317 C   0  0  0  0  0  0  0  0  0  0  0  0
  153.1687  141.8077  160.7617 C   0  0  0  0  0  0  0  0  0  0  0  0
  152.5204  143.0191  160.1132 C   0  0  0  0  0  0  0  0  0  0  0  0
  153.0372  143.5601  158.9164 C   0  0  0  0  0  0  0  0  0  0  0  0
  152.3971  144.6818  158.3553 C   0  0  0  0  0  0  0  0  0  0  0  0
  151.2710  145.2174  159.0095 C   0  0  0  0  0  0  0  0  0  0  0  0
  150.8337  144.6046  160.2008 C   0  0  0  0  0  0  0  0  0  0  0  0
  151.4396  143.5281  160.7467 N   0  0  0  0  0  0  0  0  0  0  0  0
  151.0395  139.8951  157.0527 N   0  0  0  0  0  0  0  0  0  0  0  0
  150.7273  139.2039  155.8052 C   0  0  0  0  0  0  0  0  0  0  0  0
  150.7444  137.6698  155.9626 C   0  0  2  0  0  0  0  0  0  0  0  0
  150.7052  136.8976  154.6262 C   0  0  0  0  0  0  0  0  0  0  0  0
  150.4292  135.4202  154.9192 C   0  0  0  0  0  0  0  0  0  0  0  0
  149.3109  135.4091  156.3677 S   0  0  0  0  0  0  0  0  0  0  0  0
  147.9225  135.2392  155.9134 O   0  0  0  0  0  0  0  0  0  0  0  0
  149.8800  134.5371  157.4064 O   0  0  0  0  0  0  0  0  0  0  0  0
  149.5756  137.1652  156.8250 C   0  0  0  0  0  0  0  0  0  0  0  0
  151.3697  141.1055  159.0311 H   0  0  0  0  0  0  0  0  0  0  0  0
  153.2048  139.6699  160.4283 H   0  0  0  0  0  0  0  0  0  0  0  0
  154.2226  140.5595  159.3238 H   0  0  0  0  0  0  0  0  0  0  0  0
  152.6073  141.5452  161.6592 H   0  0  0  0  0  0  0  0  0  0  0  0
  154.1667  142.0819  161.1061 H   0  0  0  0  0  0  0  0  0  0  0  0
  153.9018  143.1249  158.4367 H   0  0  0  0  0  0  0  0  0  0  0  0
  152.7634  145.1232  157.4403 H   0  0  0  0  0  0  0  0  0  0  0  0
  150.7556  146.0777  158.6091 H   0  0  0  0  0  0  0  0  0  0  0  0
  149.9740  144.9898  160.7290 H   0  0  0  0  0  0  0  0  0  0  0  0
  150.3398  140.5323  157.4043 H   0  0  0  0  0  0  0  0  0  0  0  0
  149.7317  139.5245  155.4973 H   0  0  0  0  0  0  0  0  0  0  0  0
  151.4051  139.5160  155.0087 H   0  0  0  0  0  0  0  0  0  0  0  0
  151.6663  137.3862  156.4729 H   0  0  0  0  0  0  0  0  0  0  0  0
  149.8967  137.2914  154.0087 H   0  0  0  0  0  0  0  0  0  0  0  0
  151.6277  137.0158  154.0575 H   0  0  0  0  0  0  0  0  0  0  0  0
  149.9707  134.8946  154.0814 H   0  0  0  0  0  0  0  0  0  0  0  0
  151.3477  134.9032  155.1979 H   0  0  0  0  0  0  0  0  0  0  0  0
  149.7712  137.2483  157.8942 H   0  0  0  0  0  0  0  0  0  0  0  0
  148.6567  137.7069  156.5990 H   0  0  0  0  0  0  0  0  0  0  0  0
  1  2  2  0  0  0  0
  2  3  1  0  0  0  0
  2 12  1  0  0  0  0
  3  4  1  0  0  0  0
  3 21  1  0  0  0  0
  4  5  1  0  0  0  0
  4 22  1  0  0  0  0
  4 23  1  0  0  0  0
  5  6  1  0  0  0  0
  5 24  1  0  0  0  0
  5 25  1  0  0  0  0
  6 11  1  0  0  0  0
  6  7  2  0  0  0  0
  7  8  1  0  0  0  0
  7 26  1  0  0  0  0
  8  9  2  0  0  0  0
  8 27  1  0  0  0  0
  9 10  1  0  0  0  0
  9 28  1  0  0  0  0
 10 11  2  0  0  0  0
 10 29  1  0  0  0  0
 12 13  1  0  0  0  0
 12 30  1  0  0  0  0
 13 14  1  0  0  0  0
 13 31  1  0  0  0  0
 13 32  1  0  0  0  0
 14 20  1  0  0  0  0
 14 15  1  0  0  0  0
 14 33  1  0  0  0  0
 15 16  1  0  0  0  0
 15 34  1  0  0  0  0
 15 35  1  0  0  0  0
 16 17  1  0  0  0  0
 16 36  1  0  0  0  0
 16 37  1  0  0  0  0
 17 18  2  0  0  0  0
 17 19  2  0  0  0  0
 17 20  1  0  0  0  0
 20 38  1  0  0  0  0
 20 39  1  0  0  0  0
M  END
> <s_m_source_file>
AV-unprocessed.smi

> <i_m_source_file_index>
1504

> <i_lp_mmshare_version>
43012

> <i_f3d_flags>
0

> <s_epik_input>
Tz1TMSg9TylbQ0gyXVtDSDJdW0NASF0oW0NIMl0xKVtDSDJdW05IXUMoPU8pW05IXVtDSDJdW0NIMl1jMltjSF1bY0hdW2NIXVtjSF1uMg==

> <s_epik_cmdline>
J2VwaWtfcHl0aG9uJywgJy1waCcsICc3LjAnLCAnLXRuJywgJzgnLCAnLW1hJywgJzIwMCcsICctbWV0YWxfYmluZGluZycsICctaW1hZScsICc8aW5maWxlLm1hZT4nLCAnLW9tYWUnLCAnPG91dGZpbGUubWFlPic=

> <r_epik_Ionization_Penalty>
0.0431785

> <r_epik_Ionization_Penalty_Charging>
0

> <r_epik_Ionization_Penalty_Neutral>
0.0431785

> <r_epik_State_Penalty>
0.0364691

> <r_epik_Charging_Adjusted_Penalty>
0.0364691

> <i_epik_Tot_Q>
0

> <i_epik_Tot_abs_Q>
0

> <r_epik_Metal_State_Penalty>
0.0339827

> <b_epik_Metal_Only>
0

> <s_lp_Force_Field>
OPLS_2005

> <r_lp_Energy>
2.61241

> <b_lp_Chiralities_Consistent>
1

> <s_lp_Variant>
AV-unprocessed.smi:1504-1

> <Gold.Version>
5.8.1

> <Gold.Id.Protein>
6NUR|6NUR_protein|mol2

> <Gold.PLP.Fitness>
43.8350

> <Gold.PLP.PLP>
-38.6967

> <Gold.PLP.part.hbond>
-2.2676

> <Gold.PLP.part.metal>
0.0000

> <Gold.PLP.part.buried>
-6.0537

> <Gold.PLP.part.nonpolar>
-31.3496

> <Gold.PLP.part.repulsive>
0.3171

> <Gold.PLP.ligand.clash>
0.0000

> <Gold.PLP.ligand.torsion>
0.3566

> <Gold.PLP.Chemscore.Hbond>
1.9440

> <Gold.PLP.Chemscore.CHOScore>
0.0000

> <Gold.PLP.Chemscore.Metal>
0.0000

> <Gold.Chemscore.Hbonds>
donor molecule, donor type, donor heavy atom, donor atom, acceptor molecule, acceptor atom, score
      P1  H  6896  6908       L1    19  0.68
      P1  H  7997  8008       L1     1  1.00

> <Gold.PLP.Chemscore.Internal.Correction>
0.0194

> <Gold.Rescore>
     Score         DG    S(hbond)    S(metal)    S(lipo)     H(rot)  DE(clash)    DE(int)     intcor
     18.91     -19.31       1.89        0.00     106.08       1.91       0.04       0.36       ----

> <Gold.Chemscore.Fitness>
18.9054

> <Gold.Chemscore.DG>
-19.3068

> <Gold.Chemscore.ZeroCoef>
-5.4800

> <Gold.Chemscore.Hbond>
1.8881

> <Gold.Chemscore.Metal>
0.0000

> <Gold.Chemscore.Lipo>
106.0802

> <Gold.Chemscore.Internal_Hbond>
0.0000

> <Gold.Chemscore.DEClash>
0.0416

> <Gold.Chemscore.DEInternal>
0.3598

> <Gold.Chemscore.Rot>
1.9105

> <Gold.Chemscore.Internal.Correction>
   9.000000E+99

> <Gold.Chemscore.Hbonds>
donor molecule, donor type, donor heavy atom, donor atom, acceptor molecule, acceptor atom, score
      P1  H  6896  6908       L1    19  0.66
      P1  H  7997  8008       L1     1  0.65

> <Gold.Chemscore.Hbond.Weighted>
-6.3062

> <Gold.Chemscore.Metal.Weighted>
-0.0000

> <Gold.Chemscore.Lipo.Weighted>
-12.4114

> <Gold.Chemscore.Internal_Hbond.Weighted>
0.0000

> <Gold.Chemscore.DEClash.Weighted>
0.0416

> <Gold.Chemscore.DEInternal.Weighted>
0.3598

> <Gold.Chemscore.Rot.Weighted>
4.8908

> <Gold.Chemscore.Internal.Correction.Weighted>
   9.000000E+99

> <Gold.Protein.RotatedTorsions>
[ 6907 6896 6895 6894 ] final  139.55 input  -60.11 | X-H torsion
[ 7974 7965 7964 7962 ] final  -15.85 input  175.53 | X-H torsion
[ 8008 7997 7996 7995 ] final  -73.02 input   59.86 | X-H torsion
[ 10167 10162 10161 10158 ] final   60.45 input  -65.29 | X-H torsion
[ 10718 10713 10712 10709 ] final  121.27 input   66.30 | X-H torsion
[ 10763 10752 10751 10750 ] final   84.83 input  -60.55 | X-H torsion
[ 11005 11000 10999 10996 ] final  123.85 input  -57.11 | X-H torsion

> <Gold.Protein.ActiveResidues>
 VAL166  LYS551  ARG553  GLY616  TRP617  ASP618  TYR619  PRO620  LYS621  CYS622 
 ASP623  PHE694  ASN695  SER759  ASP760  ASP761  ALA762  ILE779  LEU786  VAL792 
 PHE793  MET794  SER795  GLU796  ALA797  LYS798  CYS799  TRP800  GLU811  SER814 

> <Gold.Protein.RotatedAtoms>
  152.2536  133.5236  159.5339 H   0  0  0  0  0  0  0  0  0  0  0  0  # atno 6907 bound_to 6896
  150.7101  134.0927  159.3946 H   0  0  0  0  0  0  0  0  0  0  0  0  # atno 6908 bound_to 6896
  151.8846  135.0440  160.0543 H   0  0  0  0  0  0  0  0  0  0  0  0  # atno 6909 bound_to 6896
  146.2014  140.3552  142.8422 H   0  0  0  0  0  0  0  0  0  0  0  0  # atno 7974 bound_to 7965
  154.5214  140.0786  156.8178 H   0  0  0  0  0  0  0  0  0  0  0  0  # atno 8008 bound_to 7997
  155.3569  140.3416  155.4222 H   0  0  0  0  0  0  0  0  0  0  0  0  # atno 8009 bound_to 7997
  156.1684  140.1611  156.8477 H   0  0  0  0  0  0  0  0  0  0  0  0  # atno 8010 bound_to 7997
  140.1654  144.4329  150.6688 H   0  0  0  0  0  0  0  0  0  0  0  0  # atno 10167 bound_to 10162
  157.5830  131.1073  150.8151 H   0  0  0  0  0  0  0  0  0  0  0  0  # atno 10718 bound_to 10713
  153.1418  135.4639  154.9507 H   0  0  0  0  0  0  0  0  0  0  0  0  # atno 10763 bound_to 10752
  154.7753  135.3171  154.8107 H   0  0  0  0  0  0  0  0  0  0  0  0  # atno 10764 bound_to 10752
  153.8628  135.6911  153.4835 H   0  0  0  0  0  0  0  0  0  0  0  0  # atno 10765 bound_to 10752
  139.9331  134.9641  156.8322 H   0  0  0  0  0  0  0  0  0  0  0  0  # atno 11005 bound_to 11000
  144.8692  140.7248  143.6058 LP  0  0  0  0  0  0  0  0  0  0  0  0  # atno 17320 bound_to 7965
  145.3471  139.1716  143.4454 LP  0  0  0  0  0  0  0  0  0  0  0  0  # atno 17321 bound_to 7965
  140.6616  143.2254  151.5842 LP  0  0  0  0  0  0  0  0  0  0  0  0  # atno 17342 bound_to 10162
  139.5362  144.2775  152.1256 LP  0  0  0  0  0  0  0  0  0  0  0  0  # atno 17343 bound_to 10162
  156.8592  130.5107  149.5305 LP  0  0  0  0  0  0  0  0  0  0  0  0  # atno 17370 bound_to 10713
  156.0877  130.5871  150.9677 LP  0  0  0  0  0  0  0  0  0  0  0  0  # atno 17371 bound_to 10713
  140.6147  134.0050  155.7592 LP  0  0  0  0  0  0  0  0  0  0  0  0  # atno 17394 bound_to 11000
  141.0931  133.9885  157.3204 LP  0  0  0  0  0  0  0  0  0  0  0  0  # atno 17395 bound_to 11000

$$$$
