AV-unprocessed.smi:922|AV-procd|sdf|4174|dock2
  -GOLD-   22720 2 83D 1   1.00000     0.00000
 Structure written by MMmdl.
 32 33  0  0  0  0  0  0  0  0  2 V2000
  154.0056  141.4347  160.5047 C   0  0  0  0  0  0  0  0  0  0  0  0
  153.1058  142.1429  159.4872 C   0  0  1  0  0  0  0  0  0  0  0  0
  151.8359  141.3279  159.1791 C   0  0  0  0  0  0  0  0  0  0  0  0
  150.9505  142.0809  158.3009 N   0  0  0  0  0  0  0  0  0  0  0  0
  150.4160  141.6097  157.1007 C   0  0  0  0  0  0  0  0  0  0  0  0
  151.3070  140.9376  156.1225 C   0  0  0  0  0  0  0  0  0  0  0  0
  150.8911  140.4839  155.0075 N   0  0  0  0  0  0  0  0  0  0  0  0
  149.5030  140.6080  154.6271 N   0  5  0  0  0  0  0  0  0  0  0  0
  148.6106  141.2040  155.4739 C   0  0  0  0  0  0  0  0  0  0  0  0
  147.4197  141.3180  155.1880 O   0  0  0  0  0  0  0  0  0  0  0  0
  149.1008  141.7199  156.7592 C   0  0  0  0  0  0  0  0  0  0  0  0
  147.9272  142.4146  157.8303 Cl  0  0  0  0  0  0  0  0  0  0  0  0
  150.5889  143.3608  158.8984 C   0  0  0  0  0  0  0  0  0  0  0  0
  151.8476  144.1961  159.2263 C   0  0  0  0  0  0  0  0  0  0  0  0
  152.5544  144.7030  157.9506 C   0  0  0  0  0  0  0  0  0  0  0  0
  151.4576  145.3982  160.1000 C   0  0  0  0  0  0  0  0  0  0  0  0
  152.7352  143.4106  160.0313 O   0  0  0  0  0  0  0  0  0  0  0  0
  154.3318  140.4642  160.1300 H   0  0  0  0  0  0  0  0  0  0  0  0
  153.4836  141.2721  161.4481 H   0  0  0  0  0  0  0  0  0  0  0  0
  154.8968  142.0268  160.7143 H   0  0  0  0  0  0  0  0  0  0  0  0
  153.6855  142.2932  158.5774 H   0  0  0  0  0  0  0  0  0  0  0  0
  152.0906  140.3642  158.7384 H   0  0  0  0  0  0  0  0  0  0  0  0
  151.3004  141.1083  160.1036 H   0  0  0  0  0  0  0  0  0  0  0  0
  152.3574  140.8548  156.4130 H   0  0  0  0  0  0  0  0  0  0  0  0
  149.9374  143.9268  158.2315 H   0  0  0  0  0  0  0  0  0  0  0  0
  150.0150  143.1659  159.8054 H   0  0  0  0  0  0  0  0  0  0  0  0
  151.9131  145.3893  157.3970 H   0  0  0  0  0  0  0  0  0  0  0  0
  152.8135  143.8950  157.2672 H   0  0  0  0  0  0  0  0  0  0  0  0
  153.4734  145.2355  158.1959 H   0  0  0  0  0  0  0  0  0  0  0  0
  150.7611  146.0570  159.5800 H   0  0  0  0  0  0  0  0  0  0  0  0
  152.3327  145.9889  160.3725 H   0  0  0  0  0  0  0  0  0  0  0  0
  150.9795  145.0752  161.0252 H   0  0  0  0  0  0  0  0  0  0  0  0
  1  2  1  0  0  0  0
  1 18  1  0  0  0  0
  1 19  1  0  0  0  0
  1 20  1  0  0  0  0
  2 17  1  0  0  0  0
  2  3  1  0  0  0  0
  2 21  1  0  0  0  0
  3  4  1  0  0  0  0
  3 22  1  0  0  0  0
  3 23  1  0  0  0  0
  4  5  1  0  0  0  0
  4 13  1  0  0  0  0
  5 11  2  0  0  0  0
  5  6  1  0  0  0  0
  6  7  2  0  0  0  0
  6 24  1  0  0  0  0
  7  8  1  0  0  0  0
  8  9  1  0  0  0  0
  9 10  2  0  0  0  0
  9 11  1  0  0  0  0
 11 12  1  0  0  0  0
 13 14  1  0  0  0  0
 13 25  1  0  0  0  0
 13 26  1  0  0  0  0
 14 15  1  0  0  0  0
 14 16  1  0  0  0  0
 14 17  1  0  0  0  0
 15 27  1  0  0  0  0
 15 28  1  0  0  0  0
 15 29  1  0  0  0  0
 16 30  1  0  0  0  0
 16 31  1  0  0  0  0
 16 32  1  0  0  0  0
M  CHG  1   8  -1
M  END
> <s_m_source_file>
AV-unprocessed.smi

> <i_m_source_file_index>
922

> <i_lp_mmshare_version>
43012

> <i_f3d_flags>
0

> <s_epik_input>
W0NIM11bQ0BASF0oTzEpW0NIMl1OKFtDSDJdQzEoW0NIM10pW0NIM10pYzJbY0hdbltuSF1jKD1PKWMyQ2w=

> <s_epik_cmdline>
J2VwaWtfcHl0aG9uJywgJy1waCcsICc3LjAnLCAnLXRuJywgJzgnLCAnLW1hJywgJzIwMCcsICctbWV0YWxfYmluZGluZycsICctaW1hZScsICc8aW5maWxlLm1hZT4nLCAnLW9tYWUnLCAnPG91dGZpbGUubWFlPic=

> <r_lp_tautomer_probability>
1

> <r_epik_Ionization_Penalty>
2.48086

> <r_epik_Ionization_Penalty_Charging>
0.00187014

> <r_epik_Ionization_Penalty_Neutral>
2.47899

> <r_epik_State_Penalty>
0.0455822

> <r_epik_Charging_Adjusted_Penalty>
0.0474524

> <i_epik_Tot_Q>
-1

> <i_epik_Tot_abs_Q>
1

> <r_epik_Metal_State_Penalty>
0.000768086

> <b_epik_Metal_Only>
0

> <s_lp_Force_Field>
OPLS_2005

> <r_lp_Energy>
41.3096

> <b_lp_Chiralities_Consistent>
1

> <s_lp_Variant>
AV-unprocessed.smi:922-2

> <Gold.Version>
5.8.1

> <Gold.Id.Protein>
6NUR|6NUR_protein|mol2

> <Gold.PLP.Fitness>
41.2291

> <Gold.PLP.PLP>
-38.7329

> <Gold.PLP.part.hbond>
-1.3520

> <Gold.PLP.part.metal>
0.0000

> <Gold.PLP.part.buried>
-6.0147

> <Gold.PLP.part.nonpolar>
-31.5403

> <Gold.PLP.part.repulsive>
0.2692

> <Gold.PLP.ligand.clash>
0.0000

> <Gold.PLP.ligand.torsion>
0.7371

> <Gold.PLP.Chemscore.Hbond>
1.0000

> <Gold.PLP.Chemscore.CHOScore>
0.0000

> <Gold.PLP.Chemscore.Metal>
0.0000

> <Gold.Chemscore.Hbonds>
donor molecule, donor type, donor heavy atom, donor atom, acceptor molecule, acceptor atom, score
      P1  H  7989  7998       L1     7  1.00

> <Gold.PLP.Chemscore.Internal.Correction>
0.9704

> <Gold.Rescore>
     Score         DG    S(hbond)    S(metal)    S(lipo)     H(rot)  DE(clash)    DE(int)     intcor
     17.98     -18.95       0.74        0.00      94.13       0.00       0.08       0.90       ----

> <Gold.Chemscore.Fitness>
17.9754

> <Gold.Chemscore.DG>
-18.9481

> <Gold.Chemscore.ZeroCoef>
-5.4800

> <Gold.Chemscore.Hbond>
0.7352

> <Gold.Chemscore.Metal>
0.0000

> <Gold.Chemscore.Lipo>
94.1251

> <Gold.Chemscore.Internal_Hbond>
0.0000

> <Gold.Chemscore.DEClash>
0.0777

> <Gold.Chemscore.DEInternal>
0.8950

> <Gold.Chemscore.Rot>
0.0000

> <Gold.Chemscore.Internal.Correction>
   9.000000E+99

> <Gold.Chemscore.Hbonds>
donor molecule, donor type, donor heavy atom, donor atom, acceptor molecule, acceptor atom, score
      P1  H  7989  7998       L1     7  0.24

> <Gold.Chemscore.Hbond.Weighted>
-2.4555

> <Gold.Chemscore.Metal.Weighted>
-0.0000

> <Gold.Chemscore.Lipo.Weighted>
-11.0126

> <Gold.Chemscore.Internal_Hbond.Weighted>
0.0000

> <Gold.Chemscore.DEClash.Weighted>
0.0777

> <Gold.Chemscore.DEInternal.Weighted>
0.8950

> <Gold.Chemscore.Rot.Weighted>
0.0000

> <Gold.Chemscore.Internal.Correction.Weighted>
   9.000000E+99

> <Gold.Protein.RotatedTorsions>
[ 6907 6896 6895 6894 ] final  125.33 input  -60.11 | X-H torsion
[ 7974 7965 7964 7962 ] final   84.30 input  175.53 | X-H torsion
[ 8008 7997 7996 7995 ] final   70.72 input   59.86 | X-H torsion
[ 10167 10162 10161 10158 ] final   48.11 input  -65.29 | X-H torsion
[ 10718 10713 10712 10709 ] final -114.25 input   66.30 | X-H torsion
[ 10763 10752 10751 10750 ] final  174.07 input  -60.55 | X-H torsion
[ 11005 11000 10999 10996 ] final   40.28 input  -57.11 | X-H torsion

> <Gold.Protein.ActiveResidues>
 VAL166  LYS551  ARG553  GLY616  TRP617  ASP618  TYR619  PRO620  LYS621  CYS622 
 ASP623  PHE694  ASN695  SER759  ASP760  ASP761  ALA762  ILE779  LEU786  VAL792 
 PHE793  MET794  SER795  GLU796  ALA797  LYS798  CYS799  TRP800  GLU811  SER814 

> <Gold.Protein.RotatedAtoms>
  152.4001  133.6805  159.6308 H   0  0  0  0  0  0  0  0  0  0  0  0  # atno 6907 bound_to 6896
  150.7893  133.8806  159.3293 H   0  0  0  0  0  0  0  0  0  0  0  0  # atno 6908 bound_to 6896
  151.6574  135.0995  160.0224 H   0  0  0  0  0  0  0  0  0  0  0  0  # atno 6909 bound_to 6896
  145.6006  139.2352  143.2248 H   0  0  0  0  0  0  0  0  0  0  0  0  # atno 7974 bound_to 7965
  155.7430  140.3490  155.5113 H   0  0  0  0  0  0  0  0  0  0  0  0  # atno 8008 bound_to 7997
  155.9076  140.1045  157.1325 H   0  0  0  0  0  0  0  0  0  0  0  0  # atno 8009 bound_to 7997
  154.4052  140.1274  156.4503 H   0  0  0  0  0  0  0  0  0  0  0  0  # atno 8010 bound_to 7997
  140.2967  144.2982  150.6228 H   0  0  0  0  0  0  0  0  0  0  0  0  # atno 10167 bound_to 10162
  156.0818  130.6016  150.8750 H   0  0  0  0  0  0  0  0  0  0  0  0  # atno 10718 bound_to 10713
  154.4489  135.2764  155.1795 H   0  0  0  0  0  0  0  0  0  0  0  0  # atno 10763 bound_to 10752
  154.3630  135.6125  153.5704 H   0  0  0  0  0  0  0  0  0  0  0  0  # atno 10764 bound_to 10752
  152.9845  135.5839  154.4830 H   0  0  0  0  0  0  0  0  0  0  0  0  # atno 10765 bound_to 10752
  140.1946  134.3945  155.8128 H   0  0  0  0  0  0  0  0  0  0  0  0  # atno 11005 bound_to 11000
  146.1579  140.6831  142.9291 LP  0  0  0  0  0  0  0  0  0  0  0  0  # atno 17320 bound_to 7965
  144.7311  140.4675  143.6937 LP  0  0  0  0  0  0  0  0  0  0  0  0  # atno 17321 bound_to 7965
  140.5686  143.2183  151.7639 LP  0  0  0  0  0  0  0  0  0  0  0  0  # atno 17342 bound_to 10162
  139.4925  144.4248  151.9937 LP  0  0  0  0  0  0  0  0  0  0  0  0  # atno 17343 bound_to 10162
  157.5937  131.0943  150.9076 LP  0  0  0  0  0  0  0  0  0  0  0  0  # atno 17370 bound_to 10713
  156.9247  130.5328  149.5279 LP  0  0  0  0  0  0  0  0  0  0  0  0  # atno 17371 bound_to 10713
  141.2227  133.7063  156.8153 LP  0  0  0  0  0  0  0  0  0  0  0  0  # atno 17394 bound_to 11000
  140.2122  134.8819  157.3286 LP  0  0  0  0  0  0  0  0  0  0  0  0  # atno 17395 bound_to 11000

$$$$
