AV-unprocessed.smi:2999|AV-procd|sdf|11418|dock3
  -GOLD-   2272016343D 1   1.00000     0.00000
 Structure written by MMmdl.
 37 39  0  0  0  0  0  0  0  0  1 V2000
  145.4108  137.7441  153.8180 O   0  0  0  0  0  0  0  0  0  0  0  0
  146.4133  137.3416  153.2268 C   0  0  0  0  0  0  0  0  0  0  0  0
  147.6208  137.9126  153.3426 N   0  0  0  0  0  0  0  0  0  0  0  0
  147.9378  139.0611  154.1864 C   0  0  0  0  0  0  0  0  0  0  0  0
  149.4482  139.3518  154.2290 C   0  0  1  0  0  0  0  0  0  0  0  0
  149.8632  140.2999  155.3755 C   0  0  0  0  0  0  0  0  0  0  0  0
  151.3083  140.4842  155.4352 N   0  0  0  0  0  0  0  0  0  0  0  0
  151.6772  141.3624  156.5353 C   0  0  0  0  0  0  0  0  0  0  0  0
  151.1375  141.0865  157.9149 C   0  0  0  0  0  0  0  0  0  0  0  0
  150.6418  142.2843  157.1256 C   0  0  0  0  0  0  0  0  0  0  0  0
  151.9431  139.1797  155.5708 C   0  0  0  0  0  0  0  0  0  0  0  0
  151.5398  138.2323  154.4294 C   0  0  0  0  0  0  0  0  0  0  0  0
  150.1217  138.1061  154.3976 O   0  0  0  0  0  0  0  0  0  0  0  0
  146.4523  136.2920  152.3876 N   0  0  0  0  0  0  0  0  0  0  0  0
  145.3979  135.4097  152.0343 C   0  0  0  0  0  0  0  0  0  0  0  0
  144.8261  134.5405  152.8759 N   0  0  0  0  0  0  0  0  0  0  0  0
  143.8208  133.7943  152.2556 C   0  0  0  0  0  0  0  0  0  0  0  0
  143.6392  134.1107  150.9321 C   0  0  0  0  0  0  0  0  0  0  0  0
  144.7283  135.3679  150.4099 S   0  0  0  0  0  0  0  0  0  0  0  0
  148.3848  137.5161  152.8149 H   0  0  0  0  0  0  0  0  0  0  0  0
  147.3865  139.9489  153.8723 H   0  0  0  0  0  0  0  0  0  0  0  0
  147.5875  138.8285  155.1923 H   0  0  0  0  0  0  0  0  0  0  0  0
  149.7522  139.7813  153.2726 H   0  0  0  0  0  0  0  0  0  0  0  0
  149.3830  141.2696  155.2424 H   0  0  0  0  0  0  0  0  0  0  0  0
  149.5004  139.9018  156.3247 H   0  0  0  0  0  0  0  0  0  0  0  0
  152.6991  141.7288  156.4495 H   0  0  0  0  0  0  0  0  0  0  0  0
  150.4545  140.2477  158.0361 H   0  0  0  0  0  0  0  0  0  0  0  0
  151.7964  141.2783  158.7592 H   0  0  0  0  0  0  0  0  0  0  0  0
  150.9726  143.2703  157.4450 H   0  0  0  0  0  0  0  0  0  0  0  0
  149.6309  142.2373  156.7249 H   0  0  0  0  0  0  0  0  0  0  0  0
  153.0276  139.2961  155.5805 H   0  0  0  0  0  0  0  0  0  0  0  0
  151.6690  138.7298  156.5263 H   0  0  0  0  0  0  0  0  0  0  0  0
  151.9012  138.6053  153.4699 H   0  0  0  0  0  0  0  0  0  0  0  0
  151.9824  137.2477  154.5788 H   0  0  0  0  0  0  0  0  0  0  0  0
  147.3464  136.0883  151.9658 H   0  0  0  0  0  0  0  0  0  0  0  0
  143.2838  133.0556  152.8320 H   0  0  0  0  0  0  0  0  0  0  0  0
  142.9334  133.6824  150.2358 H   0  0  0  0  0  0  0  0  0  0  0  0
  1  2  2  0  0  0  0
  2  3  1  0  0  0  0
  2 14  1  0  0  0  0
  3  4  1  0  0  0  0
  3 20  1  0  0  0  0
  4  5  1  0  0  0  0
  4 21  1  0  0  0  0
  4 22  1  0  0  0  0
  5 13  1  0  0  0  0
  5  6  1  0  0  0  0
  5 23  1  0  0  0  0
  6  7  1  0  0  0  0
  6 24  1  0  0  0  0
  6 25  1  0  0  0  0
  7  8  1  0  0  0  0
  7 11  1  0  0  0  0
  8 10  1  0  0  0  0
  8  9  1  0  0  0  0
  8 26  1  0  0  0  0
  9 10  1  0  0  0  0
  9 27  1  0  0  0  0
  9 28  1  0  0  0  0
 10 29  1  0  0  0  0
 10 30  1  0  0  0  0
 11 12  1  0  0  0  0
 11 31  1  0  0  0  0
 11 32  1  0  0  0  0
 12 13  1  0  0  0  0
 12 33  1  0  0  0  0
 12 34  1  0  0  0  0
 14 15  1  0  0  0  0
 14 35  1  0  0  0  0
 15 19  1  0  0  0  0
 15 16  2  0  0  0  0
 16 17  1  0  0  0  0
 17 18  2  0  0  0  0
 17 36  1  0  0  0  0
 18 19  1  0  0  0  0
 18 37  1  0  0  0  0
M  END
> <s_m_source_file>
AV-unprocessed.smi

> <i_m_source_file_index>
2999

> <i_lp_mmshare_version>
43012

> <i_f3d_flags>
0

> <s_epik_input>
czFbY0hdW2NIXW5jMVtOSF1DKD1PKVtOSF1bQ0gyXVtDQEBIXTJbQ0gyXU4oW0NIMl1bQ0gyXU8yKVtDSF0zW0NIMl1bQ0gyXTM=

> <s_epik_cmdline>
J2VwaWtfcHl0aG9uJywgJy1waCcsICc3LjAnLCAnLXRuJywgJzgnLCAnLW1hJywgJzIwMCcsICctbWV0YWxfYmluZGluZycsICctaW1hZScsICc8aW5maWxlLm1hZT4nLCAnLW9tYWUnLCAnPG91dGZpbGUubWFlPic=

> <r_lp_tautomer_probability>
0.999

> <r_epik_Ionization_Penalty>
0.0449352

> <r_epik_Ionization_Penalty_Charging>
0

> <r_epik_Ionization_Penalty_Neutral>
0.0449352

> <r_epik_State_Penalty>
0.0379856

> <r_epik_Charging_Adjusted_Penalty>
0.0379856

> <i_epik_Tot_Q>
0

> <i_epik_Tot_abs_Q>
0

> <r_epik_Metal_State_Penalty>
0.0775629

> <b_epik_Metal_Only>
0

> <s_lp_Force_Field>
OPLS_2005

> <r_lp_Energy>
30.84

> <b_lp_Chiralities_Consistent>
1

> <s_lp_Variant>
AV-unprocessed.smi:2999-2

> <Gold.Version>
5.8.1

> <Gold.Id.Protein>
6NUR|6NUR_protein|mol2

> <Gold.PLP.Fitness>
39.4230

> <Gold.PLP.PLP>
-26.4741

> <Gold.PLP.part.hbond>
-3.0000

> <Gold.PLP.part.metal>
0.0000

> <Gold.PLP.part.buried>
-2.2813

> <Gold.PLP.part.nonpolar>
-22.3156

> <Gold.PLP.part.repulsive>
0.5082

> <Gold.PLP.ligand.clash>
0.0000

> <Gold.PLP.ligand.torsion>
1.3825

> <Gold.PLP.Chemscore.Hbond>
2.8720

> <Gold.PLP.Chemscore.CHOScore>
2.0000

> <Gold.PLP.Chemscore.Metal>
0.0000

> <Gold.Chemscore.Hbonds>
donor molecule, donor type, donor heavy atom, donor atom, acceptor molecule, acceptor atom, score
      L1  H     3    20       P1  7948  0.98
      L1  H    14    35       P1  7948  1.00
      P1  H  7989  7998       L1     7  0.85
      L1  C    17    36       P1 10957  1.00
      L1  C    18    37       P1 10186  1.00

> <Gold.PLP.Chemscore.Internal.Correction>
1.0979

> <Gold.Rescore>
     Score         DG    S(hbond)    S(metal)    S(lipo)     H(rot)  DE(clash)    DE(int)     intcor
     14.35     -15.84       1.99        0.00      65.49       1.55       0.10       1.39       ----

> <Gold.Chemscore.Fitness>
14.3465

> <Gold.Chemscore.DG>
-15.8388

> <Gold.Chemscore.ZeroCoef>
-5.4800

> <Gold.Chemscore.Hbond>
1.9924

> <Gold.Chemscore.Metal>
0.0000

> <Gold.Chemscore.Lipo>
65.4932

> <Gold.Chemscore.Internal_Hbond>
0.0000

> <Gold.Chemscore.DEClash>
0.1035

> <Gold.Chemscore.DEInternal>
1.3888

> <Gold.Chemscore.Rot>
1.5463

> <Gold.Chemscore.Internal.Correction>
   9.000000E+99

> <Gold.Chemscore.Hbonds>
donor molecule, donor type, donor heavy atom, donor atom, acceptor molecule, acceptor atom, score
      L1  H     3    20       P1  7948  0.93
      L1  H    14    35       P1  7948  0.96
      P1  H  7989  7998       L1     7  0.05

> <Gold.Chemscore.Hbond.Weighted>
-6.6545

> <Gold.Chemscore.Metal.Weighted>
-0.0000

> <Gold.Chemscore.Lipo.Weighted>
-7.6627

> <Gold.Chemscore.Internal_Hbond.Weighted>
0.0000

> <Gold.Chemscore.DEClash.Weighted>
0.1035

> <Gold.Chemscore.DEInternal.Weighted>
1.3888

> <Gold.Chemscore.Rot.Weighted>
3.9584

> <Gold.Chemscore.Internal.Correction.Weighted>
   9.000000E+99

> <Gold.Protein.RotatedTorsions>
[ 6907 6896 6895 6894 ] final   32.27 input  -60.11 | X-H torsion
[ 7974 7965 7964 7962 ] final   71.09 input  175.53 | X-H torsion
[ 8008 7997 7996 7995 ] final   88.29 input   59.86 | X-H torsion
[ 10167 10162 10161 10158 ] final  -15.83 input  -65.29 | X-H torsion
[ 10718 10713 10712 10709 ] final  174.30 input   66.30 | X-H torsion
[ 10763 10752 10751 10750 ] final  -42.83 input  -60.55 | X-H torsion
[ 11005 11000 10999 10996 ] final   37.83 input  -57.11 | X-H torsion

> <Gold.Protein.ActiveResidues>
 VAL166  LYS551  ARG553  GLY616  TRP617  ASP618  TYR619  PRO620  LYS621  CYS622 
 ASP623  PHE694  ASN695  SER759  ASP760  ASP761  ALA762  ILE779  LEU786  VAL792 
 PHE793  MET794  SER795  GLU796  ALA797  LYS798  CYS799  TRP800  GLU811  SER814 

> <Gold.Protein.RotatedAtoms>
  152.0721  134.9526  160.0574 H   0  0  0  0  0  0  0  0  0  0  0  0  # atno 6907 bound_to 6896
  152.0848  133.4166  159.4525 H   0  0  0  0  0  0  0  0  0  0  0  0  # atno 6908 bound_to 6896
  150.6836  134.2860  159.4690 H   0  0  0  0  0  0  0  0  0  0  0  0  # atno 6909 bound_to 6896
  145.7701  139.2839  143.1326 H   0  0  0  0  0  0  0  0  0  0  0  0  # atno 7974 bound_to 7965
  155.9859  140.3373  155.6707 H   0  0  0  0  0  0  0  0  0  0  0  0  # atno 8008 bound_to 7997
  155.6485  140.0703  157.2613 H   0  0  0  0  0  0  0  0  0  0  0  0  # atno 8009 bound_to 7997
  154.4205  140.1730  156.1637 H   0  0  0  0  0  0  0  0  0  0  0  0  # atno 8010 bound_to 7997
  140.7224  143.5178  150.9671 H   0  0  0  0  0  0  0  0  0  0  0  0  # atno 10167 bound_to 10162
  156.9516  131.0033  151.2947 H   0  0  0  0  0  0  0  0  0  0  0  0  # atno 10718 bound_to 10713
  153.9854  135.6712  153.4752 H   0  0  0  0  0  0  0  0  0  0  0  0  # atno 10763 bound_to 10752
  153.0729  135.4964  154.8339 H   0  0  0  0  0  0  0  0  0  0  0  0  # atno 10764 bound_to 10752
  154.7140  135.3103  154.9115 H   0  0  0  0  0  0  0  0  0  0  0  0  # atno 10765 bound_to 10752
  140.2187  134.3667  155.8015 H   0  0  0  0  0  0  0  0  0  0  0  0  # atno 11005 bound_to 11000
  146.0179  140.8375  142.9938 LP  0  0  0  0  0  0  0  0  0  0  0  0  # atno 17320 bound_to 7965
  144.6814  140.2585  143.7322 LP  0  0  0  0  0  0  0  0  0  0  0  0  # atno 17321 bound_to 7965
  139.8894  143.6972  152.3147 LP  0  0  0  0  0  0  0  0  0  0  0  0  # atno 17342 bound_to 10162
  139.7282  144.7588  151.0844 LP  0  0  0  0  0  0  0  0  0  0  0  0  # atno 17343 bound_to 10162
  157.5718  130.8316  149.8402 LP  0  0  0  0  0  0  0  0  0  0  0  0  # atno 17370 bound_to 10713
  156.0360  130.3751  150.1559 LP  0  0  0  0  0  0  0  0  0  0  0  0  # atno 17371 bound_to 10713
  141.2224  133.7182  156.8539 LP  0  0  0  0  0  0  0  0  0  0  0  0  # atno 17394 bound_to 11000
  140.1873  134.8991  157.3019 LP  0  0  0  0  0  0  0  0  0  0  0  0  # atno 17395 bound_to 11000

$$$$
