AV-unprocessed.smi:3|AV-procd|sdf|30|dock3
  -GOLD-   2262015143D 1   1.00000     0.00000
 Structure written by MMmdl.
 34 36  0  0  0  0  0  0  0  0  2 V2000
  150.3064  141.7350  157.2165 C   0  0  0  0  0  0  0  0  0  0  0  0
  151.4583  140.9034  156.8968 N   0  0  0  0  0  0  0  0  0  0  0  0
  152.5685  140.8837  157.8522 C   0  0  0  0  0  0  0  0  0  0  0  0
  152.1754  141.4566  159.2136 C   0  0  1  0  0  0  0  0  0  0  0  0
  153.1202  141.3164  160.4173 C   0  0  0  0  0  0  0  0  0  0  0  0
  152.7370  142.7327  160.8566 C   0  0  2  0  0  0  0  0  0  0  0  0
  151.7915  142.8485  161.8978 O   0  0  0  0  0  0  0  0  0  0  0  0
  152.2335  142.9752  159.4303 C   0  0  0  0  0  0  0  0  0  0  0  0
  151.3691  139.9400  155.8611 C   0  0  0  0  0  0  0  0  0  0  0  0
  152.4484  139.1326  155.6606 N   0  0  0  0  0  0  0  0  0  0  0  0
  152.4898  138.1832  154.7172 C   0  0  0  0  0  0  0  0  0  0  0  0
  151.4719  137.9503  153.8863 N   0  3  0  0  0  0  0  0  0  0  0  0
  150.3731  138.7304  154.0365 C   0  0  0  0  0  0  0  0  0  0  0  0
  149.2013  138.6954  153.3109 N   0  0  0  0  0  0  0  0  0  0  0  0
  148.3287  139.6605  153.7773 C   0  0  0  0  0  0  0  0  0  0  0  0
  148.9230  140.3355  154.8132 C   0  0  0  0  0  0  0  0  0  0  0  0
  150.2351  139.7605  155.0065 C   0  0  0  0  0  0  0  0  0  0  0  0
  151.1802  141.1183  159.5094 H   0  0  0  0  0  0  0  0  0  0  0  0
  153.6079  143.3447  161.0941 H   0  0  0  0  0  0  0  0  0  0  0  0
  148.9814  138.0722  152.5466 H   0  0  0  0  0  0  0  0  0  0  0  0
  150.0923  142.4222  156.3981 H   0  0  0  0  0  0  0  0  0  0  0  0
  150.4937  142.3363  158.1068 H   0  0  0  0  0  0  0  0  0  0  0  0
  149.4273  141.1212  157.4147 H   0  0  0  0  0  0  0  0  0  0  0  0
  152.9913  139.8847  157.9581 H   0  0  0  0  0  0  0  0  0  0  0  0
  153.3775  141.4803  157.4293 H   0  0  0  0  0  0  0  0  0  0  0  0
  152.8401  140.5252  161.1136 H   0  0  0  0  0  0  0  0  0  0  0  0
  154.1712  141.2446  160.1343 H   0  0  0  0  0  0  0  0  0  0  0  0
  152.2705  142.8174  162.7119 H   0  0  0  0  0  0  0  0  0  0  0  0
  152.9781  143.4679  158.8028 H   0  0  0  0  0  0  0  0  0  0  0  0
  151.2655  143.4735  159.3639 H   0  0  0  0  0  0  0  0  0  0  0  0
  153.3687  137.5660  154.5996 H   0  0  0  0  0  0  0  0  0  0  0  0
  147.3521  139.7904  153.3329 H   0  0  0  0  0  0  0  0  0  0  0  0
  148.4799  141.1446  155.3728 H   0  0  0  0  0  0  0  0  0  0  0  0
  151.5120  137.2255  153.1699 H   0  0  0  0  0  0  0  0  0  0  0  0
  1  2  1  0  0  0  0
  1 21  1  0  0  0  0
  1 22  1  0  0  0  0
  1 23  1  0  0  0  0
  2  3  1  0  0  0  0
  2  9  1  0  0  0  0
  3  4  1  0  0  0  0
  3 24  1  0  0  0  0
  3 25  1  0  0  0  0
  4 18  1  0  0  0  0
  4  8  1  0  0  0  0
  4  5  1  0  0  0  0
  5  6  1  0  0  0  0
  5 26  1  0  0  0  0
  5 27  1  0  0  0  0
  6 19  1  0  0  0  0
  6  7  1  0  0  0  0
  6  8  1  0  0  0  0
  7 28  1  0  0  0  0
  8 29  1  0  0  0  0
  8 30  1  0  0  0  0
  9 17  1  0  0  0  0
  9 10  2  0  0  0  0
 10 11  1  0  0  0  0
 11 12  2  0  0  0  0
 11 31  1  0  0  0  0
 12 13  1  0  0  0  0
 12 34  1  0  0  0  0
 13 17  2  0  0  0  0
 13 14  1  0  0  0  0
 14 20  1  0  0  0  0
 14 15  1  0  0  0  0
 15 16  2  0  0  0  0
 15 32  1  0  0  0  0
 16 17  1  0  0  0  0
 16 33  1  0  0  0  0
M  CHG  1  12   1
M  END
> <s_m_source_file>
AV-unprocessed.smi

> <i_m_source_file_index>
3

> <i_lp_mmshare_version>
43012

> <i_f3d_flags>
0

> <s_epik_input>
W25IXTFbY0hdW2NIXWMoYzEyKWMobltjSF1uMilOKFtDSDNdKVtDSDJdW0NASF0zW0NIMl1bQ0BASF0oW09IXSlbQ0gyXTM=

> <s_epik_cmdline>
J2VwaWtfcHl0aG9uJywgJy1waCcsICc3LjAnLCAnLXRuJywgJzgnLCAnLW1hJywgJzIwMCcsICctbWV0YWxfYmluZGluZycsICctaW1hZScsICc8aW5maWxlLm1hZT4nLCAnLW9tYWUnLCAnPG91dGZpbGUubWFlPic=

> <r_lp_tautomer_probability>
1.75997e-05

> <r_epik_Ionization_Penalty>
2.28439

> <r_epik_Ionization_Penalty_Charging>
2.28438

> <r_epik_Ionization_Penalty_Neutral>
1.03791e-05

> <r_epik_State_Penalty>
2.43392

> <r_epik_Charging_Adjusted_Penalty>
4.7183

> <i_epik_Tot_Q>
1

> <i_epik_Tot_abs_Q>
1

> <r_epik_Metal_State_Penalty>
2.4464

> <b_epik_Metal_Only>
0

> <s_lp_Force_Field>
OPLS_2005

> <r_lp_Energy>
18.3307

> <b_lp_Chiralities_Consistent>
1

> <s_lp_Variant>
AV-unprocessed.smi:3-4

> <Gold.Version>
5.8.1

> <Gold.Id.Protein>
6NUR|6NUR_protein|mol2

> <Gold.PLP.Fitness>
50.1617

> <Gold.PLP.PLP>
-36.5314

> <Gold.PLP.part.hbond>
-5.0001

> <Gold.PLP.part.metal>
0.0000

> <Gold.PLP.part.buried>
-2.7497

> <Gold.PLP.part.nonpolar>
-27.9363

> <Gold.PLP.part.repulsive>
0.2131

> <Gold.PLP.ligand.clash>
0.0212

> <Gold.PLP.ligand.torsion>
0.4695

> <Gold.PLP.Chemscore.Hbond>
4.7993

> <Gold.PLP.Chemscore.CHOScore>
0.0000

> <Gold.PLP.Chemscore.Metal>
0.0000

> <Gold.Chemscore.Hbonds>
donor molecule, donor type, donor heavy atom, donor atom, acceptor molecule, acceptor atom, score
      L1  H    12    34       P1  7949  1.59
      L1  H    14    20       P1  7948  1.92
      P1  H  6933  6945       L1     7  0.69
      P1  H  7997  8010       L1    10  0.54

> <Gold.PLP.Chemscore.Internal.Correction>
0.1928

> <Gold.Rescore>
     Score         DG    S(hbond)    S(metal)    S(lipo)     H(rot)  DE(clash)    DE(int)     intcor
     17.49     -18.47       2.83        0.00      70.91       1.86       0.38       0.60       ----

> <Gold.Chemscore.Fitness>
17.4877

> <Gold.Chemscore.DG>
-18.4704

> <Gold.Chemscore.ZeroCoef>
-5.4800

> <Gold.Chemscore.Hbond>
2.8345

> <Gold.Chemscore.Metal>
0.0000

> <Gold.Chemscore.Lipo>
70.9090

> <Gold.Chemscore.Internal_Hbond>
0.0000

> <Gold.Chemscore.DEClash>
0.3808

> <Gold.Chemscore.DEInternal>
0.6019

> <Gold.Chemscore.Rot>
1.8645

> <Gold.Chemscore.Internal.Correction>
   9.000000E+99

> <Gold.Chemscore.Hbonds>
donor molecule, donor type, donor heavy atom, donor atom, acceptor molecule, acceptor atom, score
      L1  H    12    34       P1  7949  0.69
      L1  H    14    20       P1  7948  0.91
      P1  H  6933  6945       L1     7  0.37
      P1  H  7997  8010       L1    10  0.43

> <Gold.Chemscore.Hbond.Weighted>
-9.4671

> <Gold.Chemscore.Metal.Weighted>
-0.0000

> <Gold.Chemscore.Lipo.Weighted>
-8.2964

> <Gold.Chemscore.Internal_Hbond.Weighted>
0.0000

> <Gold.Chemscore.DEClash.Weighted>
0.3808

> <Gold.Chemscore.DEInternal.Weighted>
0.6019

> <Gold.Chemscore.Rot.Weighted>
4.7730

> <Gold.Chemscore.Internal.Correction.Weighted>
   9.000000E+99

> <Gold.Protein.RotatedTorsions>
[ 6907 6896 6895 6894 ] final -137.29 input  -60.11 | X-H torsion
[ 7974 7965 7964 7962 ] final  -54.07 input  175.53 | X-H torsion
[ 8008 7997 7996 7995 ] final   83.08 input   59.86 | X-H torsion
[ 10167 10162 10161 10158 ] final  -98.86 input  -65.29 | X-H torsion
[ 10718 10713 10712 10709 ] final   26.83 input   66.30 | X-H torsion
[ 10763 10752 10751 10750 ] final    0.91 input  -60.55 | X-H torsion
[ 11005 11000 10999 10996 ] final  151.85 input  -57.11 | X-H torsion

> <Gold.Protein.ActiveResidues>
 VAL166  LYS551  ARG553  GLY616  TRP617  ASP618  TYR619  PRO620  LYS621  CYS622 
 ASP623  PHE694  ASN695  SER759  ASP760  ASP761  ALA762  ILE779  LEU786  VAL792 
 PHE793  MET794  SER795  GLU796  ALA797  LYS798  CYS799  TRP800  GLU811  SER814 

> <Gold.Protein.RotatedAtoms>
  151.0206  133.5880  159.2671 H   0  0  0  0  0  0  0  0  0  0  0  0  # atno 6907 bound_to 6896
  151.2998  135.0764  159.9244 H   0  0  0  0  0  0  0  0  0  0  0  0  # atno 6908 bound_to 6896
  152.5322  133.9890  159.7896 H   0  0  0  0  0  0  0  0  0  0  0  0  # atno 6909 bound_to 6896
  145.8897  140.8080  142.9798 H   0  0  0  0  0  0  0  0  0  0  0  0  # atno 7974 bound_to 7965
  155.9191  140.3422  155.6159 H   0  0  0  0  0  0  0  0  0  0  0  0  # atno 8008 bound_to 7997
  155.7295  140.0793  157.2314 H   0  0  0  0  0  0  0  0  0  0  0  0  # atno 8009 bound_to 7997
  154.4067  140.1590  156.2480 H   0  0  0  0  0  0  0  0  0  0  0  0  # atno 8010 bound_to 7997
  140.2686  143.3359  152.0557 H   0  0  0  0  0  0  0  0  0  0  0  0  # atno 10167 bound_to 10162
  157.2121  130.6939  149.6233 H   0  0  0  0  0  0  0  0  0  0  0  0  # atno 10718 bound_to 10713
  153.3147  135.6965  153.7084 H   0  0  0  0  0  0  0  0  0  0  0  0  # atno 10763 bound_to 10752
  153.5948  135.3473  155.2924 H   0  0  0  0  0  0  0  0  0  0  0  0  # atno 10764 bound_to 10752
  154.8583  135.4326  154.2294 H   0  0  0  0  0  0  0  0  0  0  0  0  # atno 10765 bound_to 10752
  140.1255  134.8836  157.2132 H   0  0  0  0  0  0  0  0  0  0  0  0  # atno 11005 bound_to 11000
  144.6730  140.1511  143.7430 LP  0  0  0  0  0  0  0  0  0  0  0  0  # atno 17320 bound_to 7965
  145.8923  139.2383  143.1542 LP  0  0  0  0  0  0  0  0  0  0  0  0  # atno 17321 bound_to 7965
  139.4995  144.6672  151.6329 LP  0  0  0  0  0  0  0  0  0  0  0  0  # atno 17342 bound_to 10162
  140.5908  143.9782  150.6324 LP  0  0  0  0  0  0  0  0  0  0  0  0  # atno 17343 bound_to 10162
  155.9690  130.4548  150.5862 LP  0  0  0  0  0  0  0  0  0  0  0  0  # atno 17370 bound_to 10713
  157.3662  131.0758  151.1596 LP  0  0  0  0  0  0  0  0  0  0  0  0  # atno 17371 bound_to 10713
  140.2909  134.3241  155.7315 LP  0  0  0  0  0  0  0  0  0  0  0  0  # atno 17394 bound_to 11000
  141.2160  133.7534  156.9502 LP  0  0  0  0  0  0  0  0  0  0  0  0  # atno 17395 bound_to 11000

$$$$
