AV-unprocessed.smi:2801|AV-procd|sdf|10799|dock9
  -GOLD-   2272015233D 1   1.00000     0.00000
 Structure written by MMmdl.
 32 32  0  0  0  0  0  0  0  0  1 V2000
  152.7747  143.7331  162.4889 C   0  0  0  0  0  0  0  0  0  0  0  0
  152.8907  142.3393  161.8682 C   0  0  0  0  0  0  0  0  0  0  0  0
  151.9068  142.2118  160.8488 O   0  0  0  0  0  0  0  0  0  0  0  0
  152.3144  142.6330  159.5488 C   0  0  2  0  0  0  0  0  0  0  0  0
  152.3519  144.1731  159.5407 C   0  0  0  0  0  0  0  0  0  0  0  0
  152.4765  144.7572  158.1280 C   0  0  0  0  0  0  0  0  0  0  0  0
  151.3379  142.0959  158.4893 C   0  0  0  0  0  0  0  0  0  0  0  0
  150.1322  142.3086  158.6135 O   0  0  0  0  0  0  0  0  0  0  0  0
  151.8951  141.3831  157.4925 N   0  0  0  0  0  0  0  0  0  0  0  0
  151.2786  140.7610  156.3701 C   0  0  0  0  0  0  0  0  0  0  0  0
  150.0477  141.1803  155.8088 C   0  0  0  0  0  0  0  0  0  0  0  0
  149.5471  140.4946  154.6843 C   0  0  0  0  0  0  0  0  0  0  0  0
  150.1822  139.4566  154.1016 N   0  0  0  0  0  0  0  0  0  0  0  0
  151.3609  139.0665  154.6288 C   0  0  0  0  0  0  0  0  0  0  0  0
  151.9517  139.6817  155.7517 C   0  0  0  0  0  0  0  0  0  0  0  0
  153.1531  139.2288  156.2209 O   0  0  0  0  0  0  0  0  0  0  0  0
  153.5173  143.8726  163.2745 H   0  0  0  0  0  0  0  0  0  0  0  0
  151.7892  143.8841  162.9302 H   0  0  0  0  0  0  0  0  0  0  0  0
  152.9293  144.5094  161.7392 H   0  0  0  0  0  0  0  0  0  0  0  0
  153.8871  142.2051  161.4449 H   0  0  0  0  0  0  0  0  0  0  0  0
  152.7568  141.5839  162.6432 H   0  0  0  0  0  0  0  0  0  0  0  0
  153.3198  142.2602  159.3421 H   0  0  0  0  0  0  0  0  0  0  0  0
  151.4429  144.5659  159.9987 H   0  0  0  0  0  0  0  0  0  0  0  0
  153.1817  144.5303  160.1523 H   0  0  0  0  0  0  0  0  0  0  0  0
  152.4880  145.8468  158.1580 H   0  0  0  0  0  0  0  0  0  0  0  0
  151.6398  144.4511  157.4995 H   0  0  0  0  0  0  0  0  0  0  0  0
  153.3969  144.4291  157.6444 H   0  0  0  0  0  0  0  0  0  0  0  0
  152.8896  141.2261  157.5703 H   0  0  0  0  0  0  0  0  0  0  0  0
  149.4853  142.0123  156.2017 H   0  0  0  0  0  0  0  0  0  0  0  0
  148.6112  140.7935  154.2364 H   0  0  0  0  0  0  0  0  0  0  0  0
  151.8500  138.2385  154.1371 H   0  0  0  0  0  0  0  0  0  0  0  0
  153.4683  138.4694  155.7545 H   0  0  0  0  0  0  0  0  0  0  0  0
  1  2  1  0  0  0  0
  1 17  1  0  0  0  0
  1 18  1  0  0  0  0
  1 19  1  0  0  0  0
  2  3  1  0  0  0  0
  2 20  1  0  0  0  0
  2 21  1  0  0  0  0
  3  4  1  0  0  0  0
  4  5  1  0  0  0  0
  4  7  1  0  0  0  0
  4 22  1  0  0  0  0
  5  6  1  0  0  0  0
  5 23  1  0  0  0  0
  5 24  1  0  0  0  0
  6 25  1  0  0  0  0
  6 26  1  0  0  0  0
  6 27  1  0  0  0  0
  7  8  2  0  0  0  0
  7  9  1  0  0  0  0
  9 10  1  0  0  0  0
  9 28  1  0  0  0  0
 10 15  1  0  0  0  0
 10 11  2  0  0  0  0
 11 12  1  0  0  0  0
 11 29  1  0  0  0  0
 12 13  2  0  0  0  0
 12 30  1  0  0  0  0
 13 14  1  0  0  0  0
 14 15  2  0  0  0  0
 14 31  1  0  0  0  0
 15 16  1  0  0  0  0
 16 32  1  0  0  0  0
M  END
> <s_m_source_file>
AV-unprocessed.smi

> <i_m_source_file_index>
2801

> <i_lp_mmshare_version>
43012

> <i_f3d_flags>
0

> <s_epik_input>
W0NIM11bQ0gyXU9bQ0BIXShbQ0gyXVtDSDNdKUMoPU8pW05IXWMxW2NIXVtjSF1uW2NIXWMxW09IXQ==

> <s_epik_cmdline>
J2VwaWtfcHl0aG9uJywgJy1waCcsICc3LjAnLCAnLXRuJywgJzgnLCAnLW1hJywgJzIwMCcsICctbWV0YWxfYmluZGluZycsICctaW1hZScsICc8aW5maWxlLm1hZT4nLCAnLW9tYWUnLCAnPG91dGZpbGUubWFlPic=

> <r_lp_tautomer_probability>
0.43658

> <r_epik_Ionization_Penalty>
0.0250035

> <r_epik_Ionization_Penalty_Charging>
0

> <r_epik_Ionization_Penalty_Neutral>
0.0250035

> <r_epik_State_Penalty>
0.520524

> <r_epik_Charging_Adjusted_Penalty>
0.520524

> <i_epik_Tot_Q>
0

> <i_epik_Tot_abs_Q>
0

> <r_epik_Metal_State_Penalty>
0.772586

> <b_epik_Metal_Only>
0

> <s_lp_Force_Field>
OPLS_2005

> <r_lp_Energy>
11.8743

> <b_lp_Chiralities_Consistent>
1

> <s_lp_Variant>
AV-unprocessed.smi:2801-3

> <Gold.Version>
5.8.1

> <Gold.Id.Protein>
6NUR|6NUR_protein|mol2

> <Gold.PLP.Fitness>
42.2828

> <Gold.PLP.PLP>
-40.1974

> <Gold.PLP.part.hbond>
-2.9607

> <Gold.PLP.part.metal>
0.0000

> <Gold.PLP.part.buried>
-3.0599

> <Gold.PLP.part.nonpolar>
-33.8265

> <Gold.PLP.part.repulsive>
0.8698

> <Gold.PLP.ligand.clash>
0.0000

> <Gold.PLP.ligand.torsion>
0.5617

> <Gold.PLP.Chemscore.Hbond>
1.0655

> <Gold.PLP.Chemscore.CHOScore>
0.0000

> <Gold.PLP.Chemscore.Metal>
0.0000

> <Gold.Chemscore.Hbonds>
donor molecule, donor type, donor heavy atom, donor atom, acceptor molecule, acceptor atom, score
      P1  H  6933  6945       L1     3  0.06
      P1  H  7997  8008       L1    16  0.96

> <Gold.PLP.Chemscore.Internal.Correction>
0.0123

> <Gold.Rescore>
     Score         DG    S(hbond)    S(metal)    S(lipo)     H(rot)  DE(clash)    DE(int)     intcor
     12.51     -14.43       0.86        0.00      98.29       2.11       0.11       1.82       ----

> <Gold.Chemscore.Fitness>
12.5066

> <Gold.Chemscore.DG>
-14.4332

> <Gold.Chemscore.ZeroCoef>
-5.4800

> <Gold.Chemscore.Hbond>
0.8568

> <Gold.Chemscore.Metal>
0.0000

> <Gold.Chemscore.Lipo>
98.2948

> <Gold.Chemscore.Internal_Hbond>
0.0000

> <Gold.Chemscore.DEClash>
0.1072

> <Gold.Chemscore.DEInternal>
1.8194

> <Gold.Chemscore.Rot>
2.1129

> <Gold.Chemscore.Internal.Correction>
   9.000000E+99

> <Gold.Chemscore.Hbonds>
donor molecule, donor type, donor heavy atom, donor atom, acceptor molecule, acceptor atom, score
      P1  H  6933  6945       L1     3  0.02
      P1  H  7997  8008       L1    16  0.54

> <Gold.Chemscore.Hbond.Weighted>
-2.8616

> <Gold.Chemscore.Metal.Weighted>
-0.0000

> <Gold.Chemscore.Lipo.Weighted>
-11.5005

> <Gold.Chemscore.Internal_Hbond.Weighted>
0.0000

> <Gold.Chemscore.DEClash.Weighted>
0.1072

> <Gold.Chemscore.DEInternal.Weighted>
1.8194

> <Gold.Chemscore.Rot.Weighted>
5.4089

> <Gold.Chemscore.Internal.Correction.Weighted>
   9.000000E+99

> <Gold.Protein.RotatedTorsions>
[ 6907 6896 6895 6894 ] final   16.86 input  -60.11 | X-H torsion
[ 7974 7965 7964 7962 ] final  125.67 input  175.53 | X-H torsion
[ 8008 7997 7996 7995 ] final  -56.23 input   59.86 | X-H torsion
[ 10167 10162 10161 10158 ] final  -34.02 input  -65.29 | X-H torsion
[ 10718 10713 10712 10709 ] final   96.76 input   66.30 | X-H torsion
[ 10763 10752 10751 10750 ] final  133.04 input  -60.55 | X-H torsion
[ 11005 11000 10999 10996 ] final   83.38 input  -57.11 | X-H torsion

> <Gold.Protein.ActiveResidues>
 VAL166  LYS551  ARG553  GLY616  TRP617  ASP618  TYR619  PRO620  LYS621  CYS622 
 ASP623  PHE694  ASN695  SER759  ASP760  ASP761  ALA762  ILE779  LEU786  VAL792 
 PHE793  MET794  SER795  GLU796  ALA797  LYS798  CYS799  TRP800  GLU811  SER814 

> <Gold.Protein.RotatedAtoms>
  151.8405  135.0591  160.0447 H   0  0  0  0  0  0  0  0  0  0  0  0  # atno 6907 bound_to 6896
  152.2812  133.5468  159.5507 H   0  0  0  0  0  0  0  0  0  0  0  0  # atno 6908 bound_to 6896
  150.7190  134.0477  159.3830 H   0  0  0  0  0  0  0  0  0  0  0  0  # atno 6909 bound_to 6896
  145.0704  139.3735  143.4960 H   0  0  0  0  0  0  0  0  0  0  0  0  # atno 7974 bound_to 7965
  154.4223  140.1134  156.5605 H   0  0  0  0  0  0  0  0  0  0  0  0  # atno 8008 bound_to 7997
  155.6316  140.3495  155.4666 H   0  0  0  0  0  0  0  0  0  0  0  0  # atno 8009 bound_to 7997
  155.9943  140.1186  157.0598 H   0  0  0  0  0  0  0  0  0  0  0  0  # atno 8010 bound_to 7997
  140.7194  143.3578  151.2024 H   0  0  0  0  0  0  0  0  0  0  0  0  # atno 10167 bound_to 10162
  157.6922  131.0588  150.4541 H   0  0  0  0  0  0  0  0  0  0  0  0  # atno 10718 bound_to 10713
  153.8006  135.3142  155.3389 H   0  0  0  0  0  0  0  0  0  0  0  0  # atno 10763 bound_to 10752
  154.8090  135.4679  154.0471 H   0  0  0  0  0  0  0  0  0  0  0  0  # atno 10764 bound_to 10752
  153.1817  135.6894  153.8556 H   0  0  0  0  0  0  0  0  0  0  0  0  # atno 10765 bound_to 10752
  139.9033  134.8140  156.2302 H   0  0  0  0  0  0  0  0  0  0  0  0  # atno 11005 bound_to 11000
  146.3528  140.0446  142.8640 LP  0  0  0  0  0  0  0  0  0  0  0  0  # atno 17320 bound_to 7965
  145.1300  140.9512  143.4550 LP  0  0  0  0  0  0  0  0  0  0  0  0  # atno 17321 bound_to 7965
  139.7123  143.9356  152.2953 LP  0  0  0  0  0  0  0  0  0  0  0  0  # atno 17342 bound_to 10162
  139.9085  144.6870  150.8588 LP  0  0  0  0  0  0  0  0  0  0  0  0  # atno 17343 bound_to 10162
  156.4890  130.4091  149.6417 LP  0  0  0  0  0  0  0  0  0  0  0  0  # atno 17370 bound_to 10713
  156.3435  130.7394  151.2343 LP  0  0  0  0  0  0  0  0  0  0  0  0  # atno 17371 bound_to 10713
  141.0350  133.6968  156.1497 LP  0  0  0  0  0  0  0  0  0  0  0  0  # atno 17394 bound_to 11000
  140.7040  134.4533  157.5585 LP  0  0  0  0  0  0  0  0  0  0  0  0  # atno 17395 bound_to 11000

$$$$
