AV-unprocessed.smi:60|AV-procd|sdf|594|dock8
  -GOLD-   2262016493D 1   1.00000     0.00000
 Structure written by MMmdl.
 35 36  0  0  0  0  0  0  0  0  2 V2000
  152.6142  139.9371  156.1289 O   0  0  0  0  0  0  0  0  0  0  0  0
  151.4793  140.4044  156.0376 C   0  0  0  0  0  0  0  0  0  0  0  0
  150.8268  140.4953  154.8417 N   0  5  0  0  0  0  0  0  0  0  0  0
  149.5599  140.9928  154.7053 C   0  0  0  0  0  0  0  0  0  0  0  0
  148.9982  141.0707  153.6119 O   0  0  0  0  0  0  0  0  0  0  0  0
  148.9015  141.4125  155.8257 N   0  0  0  0  0  0  0  0  0  0  0  0
  147.5600  141.9766  155.7369 C   0  0  0  0  0  0  0  0  0  0  0  0
  146.7858  141.3141  154.7818 O   0  0  0  0  0  0  0  0  0  0  0  0
  146.2298  142.1407  153.7665 C   0  0  0  0  0  0  0  0  0  0  0  0
  145.2596  143.1371  154.4121 C   0  0  0  0  0  0  0  0  0  0  0  0
  144.7348  144.0113  153.4354 O   0  0  0  0  0  0  0  0  0  0  0  0
  149.5345  141.3647  157.0785 C   0  0  0  0  0  0  0  0  0  0  0  0
  150.7842  140.8823  157.2386 C   0  0  0  0  0  0  0  0  0  0  0  0
  151.4654  140.8483  158.5995 C   0  0  0  0  0  0  0  0  0  0  0  0
  151.6715  142.2271  159.1996 C   0  0  0  0  0  0  0  0  0  0  0  0
  151.3546  143.3829  158.4546 C   0  0  0  0  0  0  0  0  0  0  0  0
  151.5455  144.6608  159.0156 C   0  0  0  0  0  0  0  0  0  0  0  0
  152.0520  144.7880  160.3236 C   0  0  0  0  0  0  0  0  0  0  0  0
  152.3681  143.6365  161.0705 C   0  0  0  0  0  0  0  0  0  0  0  0
  152.1794  142.3587  160.5093 C   0  0  0  0  0  0  0  0  0  0  0  0
  147.0788  141.8821  156.7119 H   0  0  0  0  0  0  0  0  0  0  0  0
  147.6161  143.0406  155.5017 H   0  0  0  0  0  0  0  0  0  0  0  0
  147.0056  142.6579  153.1994 H   0  0  0  0  0  0  0  0  0  0  0  0
  145.6735  141.5200  153.0632 H   0  0  0  0  0  0  0  0  0  0  0  0
  144.4215  142.6000  154.8567 H   0  0  0  0  0  0  0  0  0  0  0  0
  145.7430  143.7003  155.2107 H   0  0  0  0  0  0  0  0  0  0  0  0
  143.9697  143.6098  153.0531 H   0  0  0  0  0  0  0  0  0  0  0  0
  148.9486  141.7482  157.9009 H   0  0  0  0  0  0  0  0  0  0  0  0
  150.9119  140.2270  159.3045 H   0  0  0  0  0  0  0  0  0  0  0  0
  152.4345  140.3611  158.4835 H   0  0  0  0  0  0  0  0  0  0  0  0
  150.9632  143.2935  157.4518 H   0  0  0  0  0  0  0  0  0  0  0  0
  151.3027  145.5433  158.4425 H   0  0  0  0  0  0  0  0  0  0  0  0
  152.1980  145.7681  160.7535 H   0  0  0  0  0  0  0  0  0  0  0  0
  152.7553  143.7327  162.0740 H   0  0  0  0  0  0  0  0  0  0  0  0
  152.4227  141.4785  161.0868 H   0  0  0  0  0  0  0  0  0  0  0  0
  1  2  2  0  0  0  0
  2 13  1  0  0  0  0
  2  3  1  0  0  0  0
  3  4  1  0  0  0  0
  4  5  2  0  0  0  0
  4  6  1  0  0  0  0
  6  7  1  0  0  0  0
  6 12  1  0  0  0  0
  7  8  1  0  0  0  0
  7 21  1  0  0  0  0
  7 22  1  0  0  0  0
  8  9  1  0  0  0  0
  9 10  1  0  0  0  0
  9 23  1  0  0  0  0
  9 24  1  0  0  0  0
 10 11  1  0  0  0  0
 10 25  1  0  0  0  0
 10 26  1  0  0  0  0
 11 27  1  0  0  0  0
 12 13  2  0  0  0  0
 12 28  1  0  0  0  0
 13 14  1  0  0  0  0
 14 15  1  0  0  0  0
 14 29  1  0  0  0  0
 14 30  1  0  0  0  0
 15 20  1  0  0  0  0
 15 16  2  0  0  0  0
 16 17  1  0  0  0  0
 16 31  1  0  0  0  0
 17 18  2  0  0  0  0
 17 32  1  0  0  0  0
 18 19  1  0  0  0  0
 18 33  1  0  0  0  0
 19 20  2  0  0  0  0
 19 34  1  0  0  0  0
 20 35  1  0  0  0  0
M  CHG  1   3  -1
M  END
> <s_m_source_file>
AV-unprocessed.smi

> <i_m_source_file_index>
60

> <i_lp_mmshare_version>
43012

> <i_f3d_flags>
0

> <s_epik_input>
W09IXVtDSDJdW0NIMl1PW0NIMl1uKGMoPU8pW25IXWMxPU8pW2NIXWMxW0NIMl1jMltjSF1bY0hdW2NIXVtjSF1bY0hdMg==

> <s_epik_cmdline>
J2VwaWtfcHl0aG9uJywgJy1waCcsICc3LjAnLCAnLXRuJywgJzgnLCAnLW1hJywgJzIwMCcsICctbWV0YWxfYmluZGluZycsICctaW1hZScsICc8aW5maWxlLm1hZT4nLCAnLW9tYWUnLCAnPG91dGZpbGUubWFlPic=

> <r_lp_tautomer_probability>
0.999537

> <r_epik_Ionization_Penalty>
3.13547

> <r_epik_Ionization_Penalty_Charging>
5.3765e-08

> <r_epik_Ionization_Penalty_Neutral>
3.13547

> <r_epik_State_Penalty>
3.13458

> <r_epik_Charging_Adjusted_Penalty>
3.13458

> <i_epik_Tot_Q>
-1

> <i_epik_Tot_abs_Q>
1

> <r_epik_Metal_State_Penalty>
0.106912

> <b_epik_Metal_Only>
1

> <s_epik_Chemistry_Notes>
This compound contains an acetal/aminal-like group ( X-CH(R)-Y where X, Y are N, S, or O) that may be acid/base labile, releasing an aldehyde.

> <s_lp_Force_Field>
OPLS_2005

> <r_lp_Energy>
15.9602

> <b_lp_Chiralities_Consistent>
1

> <s_lp_Variant>
AV-unprocessed.smi:60-2

> <Gold.Version>
5.8.1

> <Gold.Id.Protein>
6NUR|6NUR_protein|mol2

> <Gold.PLP.Fitness>
52.1978

> <Gold.PLP.PLP>
-41.6425

> <Gold.PLP.part.hbond>
-4.5288

> <Gold.PLP.part.metal>
0.0000

> <Gold.PLP.part.buried>
-3.6787

> <Gold.PLP.part.nonpolar>
-35.8597

> <Gold.PLP.part.repulsive>
2.7897

> <Gold.PLP.ligand.clash>
0.0000

> <Gold.PLP.ligand.torsion>
0.7478

> <Gold.PLP.Chemscore.Hbond>
3.9920

> <Gold.PLP.Chemscore.CHOScore>
0.0000

> <Gold.PLP.Chemscore.Metal>
0.0000

> <Gold.Chemscore.Hbonds>
donor molecule, donor type, donor heavy atom, donor atom, acceptor molecule, acceptor atom, score
      L1  H    11    27       P1 10174  1.00
      P1  H  7989  7998       L1     3  1.00
      P1  H  7997  8009       L1     1  1.00
      P1  H  8011  8017       L1     5  0.99

> <Gold.PLP.Chemscore.Internal.Correction>
0.0748

> <Gold.Rescore>
     Score         DG    S(hbond)    S(metal)    S(lipo)     H(rot)  DE(clash)    DE(int)     intcor
     12.88     -18.21       3.03        0.00      92.57       3.22       2.20       3.13       ----

> <Gold.Chemscore.Fitness>
12.8786

> <Gold.Chemscore.DG>
-18.2117

> <Gold.Chemscore.ZeroCoef>
-5.4800

> <Gold.Chemscore.Hbond>
3.0335

> <Gold.Chemscore.Metal>
0.0000

> <Gold.Chemscore.Lipo>
92.5678

> <Gold.Chemscore.Internal_Hbond>
0.0000

> <Gold.Chemscore.DEClash>
2.1999

> <Gold.Chemscore.DEInternal>
3.1331

> <Gold.Chemscore.Rot>
3.2151

> <Gold.Chemscore.Internal.Correction>
   9.000000E+99

> <Gold.Chemscore.Hbonds>
donor molecule, donor type, donor heavy atom, donor atom, acceptor molecule, acceptor atom, score
      L1  H    11    27       P1 10174  0.39
      P1  H  7989  7998       L1     3  0.57
      P1  H  7997  8009       L1     1  0.99
      P1  H  8011  8017       L1     5  0.81

> <Gold.Chemscore.Hbond.Weighted>
-10.1318

> <Gold.Chemscore.Metal.Weighted>
-0.0000

> <Gold.Chemscore.Lipo.Weighted>
-10.8304

> <Gold.Chemscore.Internal_Hbond.Weighted>
0.0000

> <Gold.Chemscore.DEClash.Weighted>
2.1999

> <Gold.Chemscore.DEInternal.Weighted>
3.1331

> <Gold.Chemscore.Rot.Weighted>
8.2306

> <Gold.Chemscore.Internal.Correction.Weighted>
   9.000000E+99

> <Gold.Protein.RotatedTorsions>
[ 6907 6896 6895 6894 ] final   11.55 input  -60.11 | X-H torsion
[ 7974 7965 7964 7962 ] final   94.91 input  175.53 | X-H torsion
[ 8008 7997 7996 7995 ] final -146.73 input   59.86 | X-H torsion
[ 10167 10162 10161 10158 ] final -170.68 input  -65.29 | X-H torsion
[ 10718 10713 10712 10709 ] final  129.62 input   66.30 | X-H torsion
[ 10763 10752 10751 10750 ] final  -14.04 input  -60.55 | X-H torsion
[ 11005 11000 10999 10996 ] final  129.67 input  -57.11 | X-H torsion

> <Gold.Protein.ActiveResidues>
 VAL166  LYS551  ARG553  GLY616  TRP617  ASP618  TYR619  PRO620  LYS621  CYS622 
 ASP623  PHE694  ASN695  SER759  ASP760  ASP761  ALA762  ILE779  LEU786  VAL792 
 PHE793  MET794  SER795  GLU796  ALA797  LYS798  CYS799  TRP800  GLU811  SER814 

> <Gold.Protein.RotatedAtoms>
  151.7561  135.0821  160.0338 H   0  0  0  0  0  0  0  0  0  0  0  0  # atno 6907 bound_to 6896
  152.3384  133.6034  159.5867 H   0  0  0  0  0  0  0  0  0  0  0  0  # atno 6908 bound_to 6896
  150.7464  133.9676  159.3577 H   0  0  0  0  0  0  0  0  0  0  0  0  # atno 6909 bound_to 6896
  145.4592  139.2288  143.2997 H   0  0  0  0  0  0  0  0  0  0  0  0  # atno 7974 bound_to 7965
  155.5640  140.0628  157.2822 H   0  0  0  0  0  0  0  0  0  0  0  0  # atno 8008 bound_to 7997
  154.4381  140.1880  156.0857 H   0  0  0  0  0  0  0  0  0  0  0  0  # atno 8009 bound_to 7997
  156.0425  140.3294  155.7264 H   0  0  0  0  0  0  0  0  0  0  0  0  # atno 8010 bound_to 7997
  139.5847  144.1344  152.1560 H   0  0  0  0  0  0  0  0  0  0  0  0  # atno 10167 bound_to 10162
  157.5137  131.1097  150.9255 H   0  0  0  0  0  0  0  0  0  0  0  0  # atno 10718 bound_to 10713
  153.5223  135.7015  153.5725 H   0  0  0  0  0  0  0  0  0  0  0  0  # atno 10763 bound_to 10752
  153.3768  135.3930  155.1828 H   0  0  0  0  0  0  0  0  0  0  0  0  # atno 10764 bound_to 10752
  154.8693  135.3825  154.4713 H   0  0  0  0  0  0  0  0  0  0  0  0  # atno 10765 bound_to 10752
  139.9628  134.9598  156.9182 H   0  0  0  0  0  0  0  0  0  0  0  0  # atno 11005 bound_to 11000
  146.2461  140.5359  142.8913 LP  0  0  0  0  0  0  0  0  0  0  0  0  # atno 17320 bound_to 7965
  144.8013  140.6218  143.6476 LP  0  0  0  0  0  0  0  0  0  0  0  0  # atno 17321 bound_to 7965
  140.0905  144.5624  150.7058 LP  0  0  0  0  0  0  0  0  0  0  0  0  # atno 17342 bound_to 10162
  140.7121  143.2513  151.4550 LP  0  0  0  0  0  0  0  0  0  0  0  0  # atno 17343 bound_to 10162
  156.9888  130.5555  149.5301 LP  0  0  0  0  0  0  0  0  0  0  0  0  # atno 17370 bound_to 10713
  156.0306  130.5397  150.8524 LP  0  0  0  0  0  0  0  0  0  0  0  0  # atno 17371 bound_to 10713
  140.5462  134.0672  155.7355 LP  0  0  0  0  0  0  0  0  0  0  0  0  # atno 17394 bound_to 11000
  141.1307  133.9308  157.2542 LP  0  0  0  0  0  0  0  0  0  0  0  0  # atno 17395 bound_to 11000

$$$$
