AV-unprocessed.smi:2288|AV-procd|sdf|9207|dock4
  -GOLD-   2272012423D 1   1.00000     0.00000
 Structure written by MMmdl.
 40 41  0  0  0  0  0  0  0  0  1 V2000
  154.1091  141.2106  160.3015 C   0  0  0  0  0  0  0  0  0  0  0  0
  153.0360  142.1332  159.7613 C   0  0  0  0  0  0  0  0  0  0  0  0
  153.0432  143.5049  160.0873 C   0  0  0  0  0  0  0  0  0  0  0  0
  152.0393  144.3577  159.5861 C   0  0  0  0  0  0  0  0  0  0  0  0
  152.0520  145.8295  159.9438 C   0  0  0  0  0  0  0  0  0  0  0  0
  151.0290  143.8362  158.7522 C   0  0  0  0  0  0  0  0  0  0  0  0
  151.0170  142.4658  158.4167 C   0  0  0  0  0  0  0  0  0  0  0  0
  149.9117  141.9166  157.5269 C   0  0  1  0  0  0  0  0  0  0  0  0
  148.8475  142.8387  157.3938 O   0  0  0  0  0  0  0  0  0  0  0  0
  150.4542  141.5795  156.1205 C   0  0  0  0  0  0  0  0  0  0  0  0
  149.4932  140.8014  155.3206 N   0  0  0  0  0  0  0  0  0  0  0  0
  148.8394  141.4928  154.2878 C   0  0  0  0  0  0  0  0  0  0  0  0
  147.9794  140.9096  153.5183 N   0  0  0  0  0  0  0  0  0  0  0  0
  147.6787  139.5576  153.7075 C   0  0  0  0  0  0  0  0  0  0  0  0
  146.6589  138.9718  152.7470 C   0  0  0  0  0  0  0  0  0  0  0  0
  148.2720  138.8328  154.6950 C   0  0  0  0  0  0  0  0  0  0  0  0
  147.9830  137.3585  154.9491 C   0  0  0  0  0  0  0  0  0  0  0  0
  149.2500  139.4842  155.5812 C   0  0  0  0  0  0  0  0  0  0  0  0
  149.8170  138.8914  156.5014 O   0  0  0  0  0  0  0  0  0  0  0  0
  152.0225  141.6167  158.9290 C   0  0  0  0  0  0  0  0  0  0  0  0
  154.8405  141.7562  160.8986 H   0  0  0  0  0  0  0  0  0  0  0  0
  154.6359  140.7228  159.4810 H   0  0  0  0  0  0  0  0  0  0  0  0
  153.6627  140.4399  160.9302 H   0  0  0  0  0  0  0  0  0  0  0  0
  153.8180  143.9059  160.7246 H   0  0  0  0  0  0  0  0  0  0  0  0
  151.1137  146.3128  159.6696 H   0  0  0  0  0  0  0  0  0  0  0  0
  152.8640  146.3366  159.4225 H   0  0  0  0  0  0  0  0  0  0  0  0
  152.1979  145.9595  161.0166 H   0  0  0  0  0  0  0  0  0  0  0  0
  150.2575  144.4891  158.3704 H   0  0  0  0  0  0  0  0  0  0  0  0
  149.5096  141.0209  158.0020 H   0  0  0  0  0  0  0  0  0  0  0  0
  148.9376  143.2803  156.5630 H   0  0  0  0  0  0  0  0  0  0  0  0
  150.7859  142.4862  155.6100 H   0  0  0  0  0  0  0  0  0  0  0  0
  151.3631  140.9830  156.2216 H   0  0  0  0  0  0  0  0  0  0  0  0
  149.1048  142.5465  154.1858 H   0  0  0  0  0  0  0  0  0  0  0  0
  147.0996  138.1568  152.1722 H   0  0  0  0  0  0  0  0  0  0  0  0
  146.3001  139.7225  152.0418 H   0  0  0  0  0  0  0  0  0  0  0  0
  145.7966  138.5882  153.2929 H   0  0  0  0  0  0  0  0  0  0  0  0
  147.5817  137.2222  155.9539 H   0  0  0  0  0  0  0  0  0  0  0  0
  148.9014  136.7759  154.8694 H   0  0  0  0  0  0  0  0  0  0  0  0
  147.2655  136.9343  154.2487 H   0  0  0  0  0  0  0  0  0  0  0  0
  152.0168  140.5638  158.6861 H   0  0  0  0  0  0  0  0  0  0  0  0
  1  2  1  0  0  0  0
  1 21  1  0  0  0  0
  1 22  1  0  0  0  0
  1 23  1  0  0  0  0
  2 20  1  0  0  0  0
  2  3  2  0  0  0  0
  3  4  1  0  0  0  0
  3 24  1  0  0  0  0
  4  5  1  0  0  0  0
  4  6  2  0  0  0  0
  5 25  1  0  0  0  0
  5 26  1  0  0  0  0
  5 27  1  0  0  0  0
  6  7  1  0  0  0  0
  6 28  1  0  0  0  0
  7  8  1  0  0  0  0
  7 20  2  0  0  0  0
  8  9  1  0  0  0  0
  8 10  1  0  0  0  0
  8 29  1  0  0  0  0
  9 30  1  0  0  0  0
 10 11  1  0  0  0  0
 10 31  1  0  0  0  0
 10 32  1  0  0  0  0
 11 18  1  0  0  0  0
 11 12  1  0  0  0  0
 12 13  2  0  0  0  0
 12 33  1  0  0  0  0
 13 14  1  0  0  0  0
 14 15  1  0  0  0  0
 14 16  2  0  0  0  0
 15 34  1  0  0  0  0
 15 35  1  0  0  0  0
 15 36  1  0  0  0  0
 16 17  1  0  0  0  0
 16 18  1  0  0  0  0
 17 37  1  0  0  0  0
 17 38  1  0  0  0  0
 17 39  1  0  0  0  0
 18 19  2  0  0  0  0
 20 40  1  0  0  0  0
M  END
> <s_m_source_file>
AV-unprocessed.smi

> <i_m_source_file_index>
2288

> <i_lp_mmshare_version>
43012

> <i_f3d_flags>
0

> <s_epik_input>
W0NIM11jMVtjSF1jKFtDSDNdKVtjSF1jKFtjSF0xKVtDQEhdKFtPSF0pW0NIMl1uMltjSF1uYyhbQ0gzXSljKFtDSDNdKWMyPU8=

> <s_epik_cmdline>
J2VwaWtfcHl0aG9uJywgJy1waCcsICc3LjAnLCAnLXRuJywgJzgnLCAnLW1hJywgJzIwMCcsICctbWV0YWxfYmluZGluZycsICctaW1hZScsICc8aW5maWxlLm1hZT4nLCAnLW9tYWUnLCAnPG91dGZpbGUubWFlPic=

> <r_lp_tautomer_probability>
1

> <r_epik_Ionization_Penalty>
5.07027e-05

> <r_epik_Ionization_Penalty_Charging>
7.56727e-08

> <r_epik_Ionization_Penalty_Neutral>
5.06271e-05

> <r_epik_State_Penalty>
-0

> <r_epik_Charging_Adjusted_Penalty>
7.56727e-08

> <i_epik_Tot_Q>
0

> <i_epik_Tot_abs_Q>
0

> <r_epik_Metal_State_Penalty>
-0

> <b_epik_Metal_Only>
0

> <s_lp_Force_Field>
OPLS_2005

> <r_lp_Energy>
19.2499

> <b_lp_Chiralities_Consistent>
1

> <s_lp_Variant>
AV-unprocessed.smi:2288-2

> <Gold.Version>
5.8.1

> <Gold.Id.Protein>
6NUR|6NUR_protein|mol2

> <Gold.PLP.Fitness>
46.8842

> <Gold.PLP.PLP>
-41.9137

> <Gold.PLP.part.hbond>
-1.0000

> <Gold.PLP.part.metal>
0.0000

> <Gold.PLP.part.buried>
-2.4277

> <Gold.PLP.part.nonpolar>
-39.0264

> <Gold.PLP.part.repulsive>
1.1679

> <Gold.PLP.ligand.clash>
0.0000

> <Gold.PLP.ligand.torsion>
0.5172

> <Gold.PLP.Chemscore.Hbond>
1.0000

> <Gold.PLP.Chemscore.CHOScore>
1.0000

> <Gold.PLP.Chemscore.Metal>
0.0000

> <Gold.Chemscore.Hbonds>
donor molecule, donor type, donor heavy atom, donor atom, acceptor molecule, acceptor atom, score
      L1  H     9    30       P1  8028  0.98
      L1  C    12    33       P1  8028  0.80

> <Gold.PLP.Chemscore.Internal.Correction>
0.0050

> <Gold.Rescore>
     Score         DG    S(hbond)    S(metal)    S(lipo)     H(rot)  DE(clash)    DE(int)     intcor
     16.63     -17.19       0.88        0.00     116.29       1.89       0.15       0.40       ----

> <Gold.Chemscore.Fitness>
16.6349

> <Gold.Chemscore.DG>
-17.1895

> <Gold.Chemscore.ZeroCoef>
-5.4800

> <Gold.Chemscore.Hbond>
0.8812

> <Gold.Chemscore.Metal>
0.0000

> <Gold.Chemscore.Lipo>
116.2945

> <Gold.Chemscore.Internal_Hbond>
0.0000

> <Gold.Chemscore.DEClash>
0.1524

> <Gold.Chemscore.DEInternal>
0.4023

> <Gold.Chemscore.Rot>
1.8907

> <Gold.Chemscore.Internal.Correction>
   9.000000E+99

> <Gold.Chemscore.Hbonds>
donor molecule, donor type, donor heavy atom, donor atom, acceptor molecule, acceptor atom, score
      L1  H     9    30       P1  8028  0.88

> <Gold.Chemscore.Hbond.Weighted>
-2.9431

> <Gold.Chemscore.Metal.Weighted>
-0.0000

> <Gold.Chemscore.Lipo.Weighted>
-13.6065

> <Gold.Chemscore.Internal_Hbond.Weighted>
0.0000

> <Gold.Chemscore.DEClash.Weighted>
0.1524

> <Gold.Chemscore.DEInternal.Weighted>
0.4023

> <Gold.Chemscore.Rot.Weighted>
4.8401

> <Gold.Chemscore.Internal.Correction.Weighted>
   9.000000E+99

> <Gold.Protein.RotatedTorsions>
[ 6907 6896 6895 6894 ] final   83.34 input  -60.11 | X-H torsion
[ 7974 7965 7964 7962 ] final   94.66 input  175.53 | X-H torsion
[ 8008 7997 7996 7995 ] final  -58.38 input   59.86 | X-H torsion
[ 10167 10162 10161 10158 ] final -176.47 input  -65.29 | X-H torsion
[ 10718 10713 10712 10709 ] final -135.84 input   66.30 | X-H torsion
[ 10763 10752 10751 10750 ] final    4.91 input  -60.55 | X-H torsion
[ 11005 11000 10999 10996 ] final  -97.49 input  -57.11 | X-H torsion

> <Gold.Protein.ActiveResidues>
 VAL166  LYS551  ARG553  GLY616  TRP617  ASP618  TYR619  PRO620  LYS621  CYS622 
 ASP623  PHE694  ASN695  SER759  ASP760  ASP761  ALA762  ILE779  LEU786  VAL792 
 PHE793  MET794  SER795  GLU796  ALA797  LYS798  CYS799  TRP800  GLU811  SER814 

> <Gold.Protein.RotatedAtoms>
  152.5324  134.2910  159.9042 H   0  0  0  0  0  0  0  0  0  0  0  0  # atno 6907 bound_to 6896
  151.2862  133.4180  159.2638 H   0  0  0  0  0  0  0  0  0  0  0  0  # atno 6908 bound_to 6896
  151.0240  134.9506  159.8132 H   0  0  0  0  0  0  0  0  0  0  0  0  # atno 6909 bound_to 6896
  145.4625  139.2286  143.2979 H   0  0  0  0  0  0  0  0  0  0  0  0  # atno 7974 bound_to 7965
  154.4306  140.1085  156.5948 H   0  0  0  0  0  0  0  0  0  0  0  0  # atno 8008 bound_to 7997
  155.5974  140.3493  155.4565 H   0  0  0  0  0  0  0  0  0  0  0  0  # atno 8009 bound_to 7997
  156.0200  140.1237  157.0357 H   0  0  0  0  0  0  0  0  0  0  0  0  # atno 8010 bound_to 7997
  139.5528  144.2066  152.1107 H   0  0  0  0  0  0  0  0  0  0  0  0  # atno 10167 bound_to 10162
  156.2705  130.7263  151.1228 H   0  0  0  0  0  0  0  0  0  0  0  0  # atno 10718 bound_to 10713
  153.2656  135.6927  153.7533 H   0  0  0  0  0  0  0  0  0  0  0  0  # atno 10763 bound_to 10752
  153.6576  135.3366  155.3119 H   0  0  0  0  0  0  0  0  0  0  0  0  # atno 10764 bound_to 10752
  154.8446  135.4469  154.1661 H   0  0  0  0  0  0  0  0  0  0  0  0  # atno 10765 bound_to 10752
  141.1377  133.8174  157.0713 H   0  0  0  0  0  0  0  0  0  0  0  0  # atno 11005 bound_to 11000
  146.2443  140.5396  142.8921 LP  0  0  0  0  0  0  0  0  0  0  0  0  # atno 17320 bound_to 7965
  144.7994  140.6184  143.6488 LP  0  0  0  0  0  0  0  0  0  0  0  0  # atno 17321 bound_to 7965
  140.1564  144.5066  150.6657 LP  0  0  0  0  0  0  0  0  0  0  0  0  # atno 17342 bound_to 10162
  140.6794  143.2320  151.5423 LP  0  0  0  0  0  0  0  0  0  0  0  0  # atno 17343 bound_to 10162
  157.7282  131.0633  150.5830 LP  0  0  0  0  0  0  0  0  0  0  0  0  # atno 17370 bound_to 10713
  156.5926  130.4333  149.5930 LP  0  0  0  0  0  0  0  0  0  0  0  0  # atno 17371 bound_to 10713
  140.0510  134.9806  157.1135 LP  0  0  0  0  0  0  0  0  0  0  0  0  # atno 17394 bound_to 11000
  140.3991  134.2102  155.7164 LP  0  0  0  0  0  0  0  0  0  0  0  0  # atno 17395 bound_to 11000

$$$$
