AV-unprocessed.smi:1904|AV-procd|sdf|7723|dock1
  -GOLD-   22720 9463D 1   1.00000     0.00000
 Structure written by MMmdl.
 50 51  0  0  0  0  0  0  0  0  2 V2000
  153.5258  137.6246  156.7911 C   0  0  0  0  0  0  0  0  0  0  0  0
  152.5992  138.7932  156.6133 C   0  0  0  0  0  0  0  0  0  0  0  0
  152.6722  139.8104  157.4549 N   0  0  0  0  0  0  0  0  0  0  0  0
  151.7228  140.6715  157.0375 N   0  0  0  0  0  0  0  0  0  0  0  0
  151.5313  141.9191  157.7514 C   0  0  0  0  0  0  0  0  0  0  0  0
  151.0424  140.1932  155.9346 C   0  0  0  0  0  0  0  0  0  0  0  0
  149.9307  140.9585  155.2918 C   0  0  0  0  0  0  0  0  0  0  0  0
  151.5875  138.9757  155.6245 C   0  0  0  0  0  0  0  0  0  0  0  0
  151.2121  138.0314  154.5107 C   0  0  0  0  0  0  0  0  0  0  0  0
  150.6326  136.7496  155.1079 C   0  0  0  0  0  0  0  0  0  0  0  0
  150.3336  136.7052  156.3012 O   0  0  0  0  0  0  0  0  0  0  0  0
  150.4992  135.7065  154.2745 N   0  0  0  0  0  0  0  0  0  0  0  0
  150.0305  134.3829  154.6642 C   0  0  0  0  0  0  0  0  0  0  0  0
  148.5068  134.3808  154.8929 C   0  0  0  0  0  0  0  0  0  0  0  0
  147.7374  134.3244  153.6243 N   0  3  2  0  0  0  0  0  0  0  0  0
  146.2925  134.5994  153.8361 C   0  0  0  0  0  0  0  0  0  0  0  0
  145.5377  134.6801  152.4987 C   0  0  0  0  0  0  0  0  0  0  0  0
  145.7208  133.3951  151.6745 C   0  0  1  0  0  0  0  0  0  0  0  0
  145.0003  133.4808  150.3215 C   0  0  0  0  0  0  0  0  0  0  0  0
  147.2231  133.1149  151.5033 C   0  0  0  0  0  0  0  0  0  0  0  0
  147.9420  133.0637  152.8620 C   0  0  0  0  0  0  0  0  0  0  0  0
  153.9477  137.3104  155.8366 H   0  0  0  0  0  0  0  0  0  0  0  0
  152.9966  136.7725  157.2178 H   0  0  0  0  0  0  0  0  0  0  0  0
  154.3570  137.8657  157.4546 H   0  0  0  0  0  0  0  0  0  0  0  0
  151.4895  142.7464  157.0426 H   0  0  0  0  0  0  0  0  0  0  0  0
  152.3536  142.0953  158.4461 H   0  0  0  0  0  0  0  0  0  0  0  0
  150.5963  141.8808  158.3106 H   0  0  0  0  0  0  0  0  0  0  0  0
  149.4023  140.3504  154.5581 H   0  0  0  0  0  0  0  0  0  0  0  0
  150.3150  141.8422  154.7827 H   0  0  0  0  0  0  0  0  0  0  0  0
  149.2027  141.2851  156.0348 H   0  0  0  0  0  0  0  0  0  0  0  0
  150.4725  138.4709  153.8411 H   0  0  0  0  0  0  0  0  0  0  0  0
  152.0739  137.7931  153.8859 H   0  0  0  0  0  0  0  0  0  0  0  0
  150.7667  135.8334  153.3089 H   0  0  0  0  0  0  0  0  0  0  0  0
  150.3072  133.6460  153.9080 H   0  0  0  0  0  0  0  0  0  0  0  0
  150.5625  134.1096  155.5745 H   0  0  0  0  0  0  0  0  0  0  0  0
  148.2137  133.5528  155.5406 H   0  0  0  0  0  0  0  0  0  0  0  0
  148.2406  135.2956  155.4250 H   0  0  0  0  0  0  0  0  0  0  0  0
  145.8613  133.8200  154.4665 H   0  0  0  0  0  0  0  0  0  0  0  0
  146.1701  135.5425  154.3700 H   0  0  0  0  0  0  0  0  0  0  0  0
  144.4777  134.8546  152.6864 H   0  0  0  0  0  0  0  0  0  0  0  0
  145.8953  135.5398  151.9302 H   0  0  0  0  0  0  0  0  0  0  0  0
  145.2814  132.5669  152.2327 H   0  0  0  0  0  0  0  0  0  0  0  0
  145.3952  134.2943  149.7121 H   0  0  0  0  0  0  0  0  0  0  0  0
  143.9322  133.6538  150.4559 H   0  0  0  0  0  0  0  0  0  0  0  0
  145.1152  132.5558  149.7561 H   0  0  0  0  0  0  0  0  0  0  0  0
  147.3690  132.1717  150.9757 H   0  0  0  0  0  0  0  0  0  0  0  0
  147.6759  133.8888  150.8817 H   0  0  0  0  0  0  0  0  0  0  0  0
  149.0027  132.8901  152.6870 H   0  0  0  0  0  0  0  0  0  0  0  0
  147.5769  132.2189  153.4483 H   0  0  0  0  0  0  0  0  0  0  0  0
  148.0840  135.0779  153.0475 H   0  0  0  0  0  0  0  0  0  0  0  0
  1  2  1  0  0  0  0
  1 22  1  0  0  0  0
  1 23  1  0  0  0  0
  1 24  1  0  0  0  0
  2  8  1  0  0  0  0
  2  3  2  0  0  0  0
  3  4  1  0  0  0  0
  4  5  1  0  0  0  0
  4  6  1  0  0  0  0
  5 25  1  0  0  0  0
  5 26  1  0  0  0  0
  5 27  1  0  0  0  0
  6  7  1  0  0  0  0
  6  8  2  0  0  0  0
  7 28  1  0  0  0  0
  7 29  1  0  0  0  0
  7 30  1  0  0  0  0
  8  9  1  0  0  0  0
  9 10  1  0  0  0  0
  9 31  1  0  0  0  0
  9 32  1  0  0  0  0
 10 11  2  0  0  0  0
 10 12  1  0  0  0  0
 12 13  1  0  0  0  0
 12 33  1  0  0  0  0
 13 14  1  0  0  0  0
 13 34  1  0  0  0  0
 13 35  1  0  0  0  0
 14 15  1  0  0  0  0
 14 36  1  0  0  0  0
 14 37  1  0  0  0  0
 15 21  1  0  0  0  0
 15 16  1  0  0  0  0
 15 50  1  0  0  0  0
 16 17  1  0  0  0  0
 16 38  1  0  0  0  0
 16 39  1  0  0  0  0
 17 18  1  0  0  0  0
 17 40  1  0  0  0  0
 17 41  1  0  0  0  0
 18 19  1  0  0  0  0
 18 20  1  0  0  0  0
 18 42  1  0  0  0  0
 19 43  1  0  0  0  0
 19 44  1  0  0  0  0
 19 45  1  0  0  0  0
 20 21  1  0  0  0  0
 20 46  1  0  0  0  0
 20 47  1  0  0  0  0
 21 48  1  0  0  0  0
 21 49  1  0  0  0  0
M  CHG  1  15   1
M  END
> <s_m_source_file>
AV-unprocessed.smi

> <i_m_source_file_index>
1904

> <i_lp_mmshare_version>
43012

> <i_f3d_flags>
0

> <s_epik_input>
W0NIM11jMW5uKFtDSDNdKWMoW0NIM10pYzFbQ0gyXUMoPU8pW05IXVtDSDJdW0NIMl1OMltDSDJdW0NIMl1bQ0hdKFtDSDNdKVtDSDJdW0NIMl0y

> <s_epik_cmdline>
J2VwaWtfcHl0aG9uJywgJy1waCcsICc3LjAnLCAnLXRuJywgJzgnLCAnLW1hJywgJzIwMCcsICctbWV0YWxfYmluZGluZycsICctaW1hZScsICc8aW5maWxlLm1hZT4nLCAnLW9tYWUnLCAnPG91dGZpbGUubWFlPic=

> <r_lp_tautomer_probability>
1

> <r_epik_Ionization_Penalty>
0.00374255

> <r_epik_Ionization_Penalty_Charging>
0.00158211

> <r_epik_Ionization_Penalty_Neutral>
0.00216044

> <r_epik_State_Penalty>
-0

> <r_epik_Charging_Adjusted_Penalty>
0.00158211

> <i_epik_Tot_Q>
1

> <i_epik_Tot_abs_Q>
1

> <r_epik_Metal_State_Penalty>
-0

> <b_epik_Metal_Only>
0

> <s_lp_Force_Field>
OPLS_2005

> <r_lp_Energy>
10.069

> <b_lp_Chiralities_Consistent>
1

> <s_lp_Variant>
AV-unprocessed.smi:1904-1

> <Gold.Version>
5.8.1

> <Gold.Id.Protein>
6NUR|6NUR_protein|mol2

> <Gold.PLP.Fitness>
43.2601

> <Gold.PLP.PLP>
-34.6103

> <Gold.PLP.part.hbond>
-4.0000

> <Gold.PLP.part.metal>
0.0000

> <Gold.PLP.part.buried>
-1.5562

> <Gold.PLP.part.nonpolar>
-27.7579

> <Gold.PLP.part.repulsive>
0.0985

> <Gold.PLP.ligand.clash>
0.0000

> <Gold.PLP.ligand.torsion>
0.3874

> <Gold.PLP.Chemscore.Hbond>
3.0952

> <Gold.PLP.Chemscore.CHOScore>
0.0000

> <Gold.PLP.Chemscore.Metal>
0.0000

> <Gold.Chemscore.Hbonds>
donor molecule, donor type, donor heavy atom, donor atom, acceptor molecule, acceptor atom, score
      L1  H    12    33       P1  7949  0.50
      L1  H    15    50       P1  7948  2.00
      P1  H  7997  8010       L1     3  0.47

> <Gold.PLP.Chemscore.Internal.Correction>
0.1391

> <Gold.Rescore>
     Score         DG    S(hbond)    S(metal)    S(lipo)     H(rot)  DE(clash)    DE(int)     intcor
     14.53     -15.05       1.02        0.00      87.98       1.61       0.14       0.38       ----

> <Gold.Chemscore.Fitness>
14.5342

> <Gold.Chemscore.DG>
-15.0489

> <Gold.Chemscore.ZeroCoef>
-5.4800

> <Gold.Chemscore.Hbond>
1.0201

> <Gold.Chemscore.Metal>
0.0000

> <Gold.Chemscore.Lipo>
87.9839

> <Gold.Chemscore.Internal_Hbond>
0.0000

> <Gold.Chemscore.DEClash>
0.1366

> <Gold.Chemscore.DEInternal>
0.3780

> <Gold.Chemscore.Rot>
1.6142

> <Gold.Chemscore.Internal.Correction>
   9.000000E+99

> <Gold.Chemscore.Hbonds>
donor molecule, donor type, donor heavy atom, donor atom, acceptor molecule, acceptor atom, score
      L1  H    12    33       P1  7949  0.02
      L1  H    15    50       P1  7948  0.97
      P1  H  7997  8010       L1     3  0.02

> <Gold.Chemscore.Hbond.Weighted>
-3.4072

> <Gold.Chemscore.Metal.Weighted>
-0.0000

> <Gold.Chemscore.Lipo.Weighted>
-10.2941

> <Gold.Chemscore.Internal_Hbond.Weighted>
0.0000

> <Gold.Chemscore.DEClash.Weighted>
0.1366

> <Gold.Chemscore.DEInternal.Weighted>
0.3780

> <Gold.Chemscore.Rot.Weighted>
4.1324

> <Gold.Chemscore.Internal.Correction.Weighted>
   9.000000E+99

> <Gold.Protein.RotatedTorsions>
[ 6907 6896 6895 6894 ] final -121.29 input  -60.11 | X-H torsion
[ 7974 7965 7964 7962 ] final  -86.85 input  175.53 | X-H torsion
[ 8008 7997 7996 7995 ] final   34.08 input   59.86 | X-H torsion
[ 10167 10162 10161 10158 ] final  126.96 input  -65.29 | X-H torsion
[ 10718 10713 10712 10709 ] final   -5.71 input   66.30 | X-H torsion
[ 10763 10752 10751 10750 ] final   -4.01 input  -60.55 | X-H torsion
[ 11005 11000 10999 10996 ] final  -87.54 input  -57.11 | X-H torsion

> <Gold.Protein.ActiveResidues>
 VAL166  LYS551  ARG553  GLY616  TRP617  ASP618  TYR619  PRO620  LYS621  CYS622 
 ASP623  PHE694  ASN695  SER759  ASP760  ASP761  ALA762  ILE779  LEU786  VAL792 
 PHE793  MET794  SER795  GLU796  ALA797  LYS798  CYS799  TRP800  GLU811  SER814 

> <Gold.Protein.RotatedAtoms>
  150.8470  133.7846  159.3039 H   0  0  0  0  0  0  0  0  0  0  0  0  # atno 6907 bound_to 6896
  151.5530  135.1065  159.9964 H   0  0  0  0  0  0  0  0  0  0  0  0  # atno 6908 bound_to 6896
  152.4521  133.7608  159.6801 H   0  0  0  0  0  0  0  0  0  0  0  0  # atno 6909 bound_to 6896
  145.4744  140.9559  143.1899 H   0  0  0  0  0  0  0  0  0  0  0  0  # atno 7974 bound_to 7965
  155.1490  140.3273  155.4435 H   0  0  0  0  0  0  0  0  0  0  0  0  # atno 8008 bound_to 7997
  156.2580  140.1980  156.6552 H   0  0  0  0  0  0  0  0  0  0  0  0  # atno 8009 bound_to 7997
  154.6487  140.0561  156.9917 H   0  0  0  0  0  0  0  0  0  0  0  0  # atno 8010 bound_to 7997
  139.5603  144.6877  151.4061 H   0  0  0  0  0  0  0  0  0  0  0  0  # atno 10167 bound_to 10162
  156.7426  130.5214  149.5821 H   0  0  0  0  0  0  0  0  0  0  0  0  # atno 10718 bound_to 10713
  153.3791  135.6997  153.6579 H   0  0  0  0  0  0  0  0  0  0  0  0  # atno 10763 bound_to 10752
  153.5197  135.3614  155.2627 H   0  0  0  0  0  0  0  0  0  0  0  0  # atno 10764 bound_to 10752
  154.8690  135.4155  154.3085 H   0  0  0  0  0  0  0  0  0  0  0  0  # atno 10765 bound_to 10752
  141.1615  133.7517  156.9321 H   0  0  0  0  0  0  0  0  0  0  0  0  # atno 11005 bound_to 11000
  144.7926  139.6298  143.7107 LP  0  0  0  0  0  0  0  0  0  0  0  0  # atno 17320 bound_to 7965
  146.2378  139.5940  142.9512 LP  0  0  0  0  0  0  0  0  0  0  0  0  # atno 17321 bound_to 7965
  140.6882  143.7923  150.7217 LP  0  0  0  0  0  0  0  0  0  0  0  0  # atno 17342 bound_to 10162
  140.1398  143.4452  152.2201 LP  0  0  0  0  0  0  0  0  0  0  0  0  # atno 17343 bound_to 10162
  156.1454  130.6274  151.0525 LP  0  0  0  0  0  0  0  0  0  0  0  0  # atno 17370 bound_to 10713
  157.6812  131.0837  150.7365 LP  0  0  0  0  0  0  0  0  0  0  0  0  # atno 17371 bound_to 10713
  140.1379  134.9313  157.2427 LP  0  0  0  0  0  0  0  0  0  0  0  0  # atno 17394 bound_to 11000
  140.2872  134.3282  155.7325 LP  0  0  0  0  0  0  0  0  0  0  0  0  # atno 17395 bound_to 11000

$$$$
