AV-unprocessed.smi:2185|AV-procd|sdf|8875|dock9
  -GOLD-   2272012 73D 1   1.00000     0.00000
 Structure written by MMmdl.
 38 39  0  0  0  0  0  0  0  0  1 V2000
  150.5579  137.5581  159.0679 C   0  0  0  0  0  0  0  0  0  0  0  0
  148.8828  136.8127  159.2125 S   0  0  0  0  0  0  0  0  0  0  0  0
  148.9821  135.3906  158.8500 O   0  0  0  0  0  0  0  0  0  0  0  0
  148.3210  137.1951  160.5170 O   0  0  0  0  0  0  0  0  0  0  0  0
  147.9545  137.6125  157.9766 N   0  0  0  0  0  0  0  0  0  0  0  0
  148.6416  138.3149  156.8744 C   0  0  0  0  0  0  0  0  0  0  0  0
  148.6437  137.4801  155.5820 C   0  0  0  0  0  0  0  0  0  0  0  0
  147.2221  137.0527  155.1893 C   0  0  0  0  0  0  0  0  0  0  0  0
  147.2694  136.2182  153.9923 N   0  0  0  0  0  0  0  0  0  0  0  0
  146.2782  135.4239  153.5632 C   0  0  0  0  0  0  0  0  0  0  0  0
  145.2025  135.3057  154.1489 O   0  0  0  0  0  0  0  0  0  0  0  0
  146.6169  134.8033  152.4199 N   0  0  0  0  0  0  0  0  0  0  0  0
  145.8543  133.8909  151.6406 C   0  0  0  0  0  0  0  0  0  0  0  0
  144.4391  133.8635  151.5920 C   0  0  0  0  0  0  0  0  0  0  0  0
  143.8051  132.8947  150.7902 C   0  0  0  0  0  0  0  0  0  0  0  0
  144.6062  131.9859  150.0720 C   0  0  0  0  0  0  0  0  0  0  0  0
  145.9549  131.9927  150.1176 N   0  0  0  0  0  0  0  0  0  0  0  0
  146.5554  132.9240  150.8886 C   0  0  0  0  0  0  0  0  0  0  0  0
  146.5781  136.2946  156.3622 C   0  0  0  0  0  0  0  0  0  0  0  0
  146.5950  137.1356  157.6514 C   0  0  0  0  0  0  0  0  0  0  0  0
  151.2111  137.1106  159.8165 H   0  0  0  0  0  0  0  0  0  0  0  0
  150.5035  138.6310  159.2426 H   0  0  0  0  0  0  0  0  0  0  0  0
  150.9673  137.3602  158.0788 H   0  0  0  0  0  0  0  0  0  0  0  0
  148.1275  139.2602  156.6963 H   0  0  0  0  0  0  0  0  0  0  0  0
  149.6608  138.5705  157.1623 H   0  0  0  0  0  0  0  0  0  0  0  0
  149.0921  138.0620  154.7759 H   0  0  0  0  0  0  0  0  0  0  0  0
  149.2749  136.6010  155.7096 H   0  0  0  0  0  0  0  0  0  0  0  0
  146.6386  137.9513  154.9790 H   0  0  0  0  0  0  0  0  0  0  0  0
  148.1180  136.2549  153.4468 H   0  0  0  0  0  0  0  0  0  0  0  0
  147.5126  135.0565  152.0294 H   0  0  0  0  0  0  0  0  0  0  0  0
  143.8284  134.5489  152.1582 H   0  0  0  0  0  0  0  0  0  0  0  0
  142.7278  132.8469  150.7308 H   0  0  0  0  0  0  0  0  0  0  0  0
  144.1516  131.2297  149.4493 H   0  0  0  0  0  0  0  0  0  0  0  0
  147.6355  132.8973  150.9026 H   0  0  0  0  0  0  0  0  0  0  0  0
  145.5482  136.0318  156.1183 H   0  0  0  0  0  0  0  0  0  0  0  0
  147.1004  135.3524  156.5256 H   0  0  0  0  0  0  0  0  0  0  0  0
  146.1846  136.5632  158.4826 H   0  0  0  0  0  0  0  0  0  0  0  0
  145.9472  138.0039  157.5268 H   0  0  0  0  0  0  0  0  0  0  0  0
  1  2  1  0  0  0  0
  1 21  1  0  0  0  0
  1 22  1  0  0  0  0
  1 23  1  0  0  0  0
  2  3  2  0  0  0  0
  2  4  2  0  0  0  0
  2  5  1  0  0  0  0
  5 20  1  0  0  0  0
  5  6  1  0  0  0  0
  6  7  1  0  0  0  0
  6 24  1  0  0  0  0
  6 25  1  0  0  0  0
  7  8  1  0  0  0  0
  7 26  1  0  0  0  0
  7 27  1  0  0  0  0
  8  9  1  0  0  0  0
  8 19  1  0  0  0  0
  8 28  1  0  0  0  0
  9 10  1  0  0  0  0
  9 29  1  0  0  0  0
 10 11  2  0  0  0  0
 10 12  1  0  0  0  0
 12 13  1  0  0  0  0
 12 30  1  0  0  0  0
 13 18  1  0  0  0  0
 13 14  2  0  0  0  0
 14 15  1  0  0  0  0
 14 31  1  0  0  0  0
 15 16  2  0  0  0  0
 15 32  1  0  0  0  0
 16 17  1  0  0  0  0
 16 33  1  0  0  0  0
 17 18  2  0  0  0  0
 18 34  1  0  0  0  0
 19 20  1  0  0  0  0
 19 35  1  0  0  0  0
 19 36  1  0  0  0  0
 20 37  1  0  0  0  0
 20 38  1  0  0  0  0
M  END
> <s_m_source_file>
AV-unprocessed.smi

> <i_m_source_file_index>
2185

> <i_lp_mmshare_version>
43012

> <i_f3d_flags>
0

> <s_epik_input>
W0NIM11TKD1PKSg9TylOMVtDSDJdW0NIMl1bQ0hdKFtDSDJdW0NIMl0xKVtOSF1DKD1PKVtOSF1jMltjSF1bY0hdW2NIXW5bY0hdMg==

> <s_epik_cmdline>
J2VwaWtfcHl0aG9uJywgJy1waCcsICc3LjAnLCAnLXRuJywgJzgnLCAnLW1hJywgJzIwMCcsICctbWV0YWxfYmluZGluZycsICctaW1hZScsICc8aW5maWxlLm1hZT4nLCAnLW9tYWUnLCAnPG91dGZpbGUubWFlPic=

> <r_epik_Ionization_Penalty>
0.00480481

> <r_epik_Ionization_Penalty_Charging>
0

> <r_epik_Ionization_Penalty_Neutral>
0.00480481

> <r_epik_State_Penalty>
0.00345682

> <r_epik_Charging_Adjusted_Penalty>
0.00345682

> <i_epik_Tot_Q>
0

> <i_epik_Tot_abs_Q>
0

> <r_epik_Metal_State_Penalty>
-0

> <b_epik_Metal_Only>
0

> <s_lp_Force_Field>
OPLS_2005

> <r_lp_Energy>
2.72974

> <b_lp_Chiralities_Consistent>
1

> <s_lp_Variant>
AV-unprocessed.smi:2185-1

> <Gold.Version>
5.8.1

> <Gold.Id.Protein>
6NUR|6NUR_protein|mol2

> <Gold.PLP.Fitness>
39.1287

> <Gold.PLP.PLP>
-25.1269

> <Gold.PLP.part.hbond>
-4.9582

> <Gold.PLP.part.metal>
0.0000

> <Gold.PLP.part.buried>
-4.0997

> <Gold.PLP.part.nonpolar>
-16.3497

> <Gold.PLP.part.repulsive>
0.2192

> <Gold.PLP.ligand.clash>
0.0000

> <Gold.PLP.ligand.torsion>
1.6211

> <Gold.PLP.Chemscore.Hbond>
4.1510

> <Gold.PLP.Chemscore.CHOScore>
0.9134

> <Gold.PLP.Chemscore.Metal>
0.0000

> <Gold.Chemscore.Hbonds>
donor molecule, donor type, donor heavy atom, donor atom, acceptor molecule, acceptor atom, score
      L1  H     9    29       P1  7948  1.00
      L1  H    12    30       P1  7948  1.00
      P1  H  6896  6909       L1     3  1.00
      P1  H  6931  6943       L1     4  0.75
      P1  H  6934  6947       L1     4  0.38
      L1  C    18    34       P1 10747  0.88

> <Gold.PLP.Chemscore.Internal.Correction>
2.0507

> <Gold.Rescore>
     Score         DG    S(hbond)    S(metal)    S(lipo)     H(rot)  DE(clash)    DE(int)     intcor
     18.37     -21.54       4.10        0.00      42.08       1.00       0.00       3.16       ----

> <Gold.Chemscore.Fitness>
18.3714

> <Gold.Chemscore.DG>
-21.5397

> <Gold.Chemscore.ZeroCoef>
-5.4800

> <Gold.Chemscore.Hbond>
4.1006

> <Gold.Chemscore.Metal>
0.0000

> <Gold.Chemscore.Lipo>
42.0824

> <Gold.Chemscore.Internal_Hbond>
0.0000

> <Gold.Chemscore.DEClash>
0.0038

> <Gold.Chemscore.DEInternal>
3.1645

> <Gold.Chemscore.Rot>
1.0000

> <Gold.Chemscore.Internal.Correction>
   9.000000E+99

> <Gold.Chemscore.Hbonds>
donor molecule, donor type, donor heavy atom, donor atom, acceptor molecule, acceptor atom, score
      L1  H     9    29       P1  7948  0.95
      L1  H    12    30       P1  7948  0.90
      P1  H  6896  6909       L1     3  0.82
      P1  H  6931  6943       L1     4  0.76
      P1  H  6934  6947       L1     4  0.39

> <Gold.Chemscore.Hbond.Weighted>
-13.6961

> <Gold.Chemscore.Metal.Weighted>
-0.0000

> <Gold.Chemscore.Lipo.Weighted>
-4.9236

> <Gold.Chemscore.Internal_Hbond.Weighted>
0.0000

> <Gold.Chemscore.DEClash.Weighted>
0.0038

> <Gold.Chemscore.DEInternal.Weighted>
3.1645

> <Gold.Chemscore.Rot.Weighted>
2.5600

> <Gold.Chemscore.Internal.Correction.Weighted>
   9.000000E+99

> <Gold.Protein.RotatedTorsions>
[ 6907 6896 6895 6894 ] final   44.91 input  -60.11 | X-H torsion
[ 7974 7965 7964 7962 ] final  111.63 input  175.53 | X-H torsion
[ 8008 7997 7996 7995 ] final -145.41 input   59.86 | X-H torsion
[ 10167 10162 10161 10158 ] final  129.05 input  -65.29 | X-H torsion
[ 10718 10713 10712 10709 ] final -138.89 input   66.30 | X-H torsion
[ 10763 10752 10751 10750 ] final -171.64 input  -60.55 | X-H torsion
[ 11005 11000 10999 10996 ] final  129.55 input  -57.11 | X-H torsion

> <Gold.Protein.ActiveResidues>
 VAL166  LYS551  ARG553  GLY616  TRP617  ASP618  TYR619  PRO620  LYS621  CYS622 
 ASP623  PHE694  ASN695  SER759  ASP760  ASP761  ALA762  ILE779  LEU786  VAL792 
 PHE793  MET794  SER795  GLU796  ALA797  LYS798  CYS799  TRP800  GLU811  SER814 

> <Gold.Protein.RotatedAtoms>
  152.2382  134.8255  160.0463 H   0  0  0  0  0  0  0  0  0  0  0  0  # atno 6907 bound_to 6896
  151.8979  133.3526  159.3829 H   0  0  0  0  0  0  0  0  0  0  0  0  # atno 6908 bound_to 6896
  150.7045  134.4783  159.5502 H   0  0  0  0  0  0  0  0  0  0  0  0  # atno 6909 bound_to 6896
  145.2398  139.2783  143.4124 H   0  0  0  0  0  0  0  0  0  0  0  0  # atno 7974 bound_to 7965
  155.5428  140.0609  157.2866 H   0  0  0  0  0  0  0  0  0  0  0  0  # atno 8008 bound_to 7997
  154.4446  140.1916  156.0652 H   0  0  0  0  0  0  0  0  0  0  0  0  # atno 8009 bound_to 7997
  156.0572  140.3277  155.7423 H   0  0  0  0  0  0  0  0  0  0  0  0  # atno 8010 bound_to 7997
  139.5497  144.6803  151.4363 H   0  0  0  0  0  0  0  0  0  0  0  0  # atno 10167 bound_to 10162
  156.3045  130.7447  151.1507 H   0  0  0  0  0  0  0  0  0  0  0  0  # atno 10718 bound_to 10713
  154.6282  135.2883  155.0247 H   0  0  0  0  0  0  0  0  0  0  0  0  # atno 10763 bound_to 10752
  154.1417  135.6517  153.4947 H   0  0  0  0  0  0  0  0  0  0  0  0  # atno 10764 bound_to 10752
  153.0267  135.5334  154.7099 H   0  0  0  0  0  0  0  0  0  0  0  0  # atno 10765 bound_to 10752
  139.9622  134.9599  156.9165 H   0  0  0  0  0  0  0  0  0  0  0  0  # atno 11005 bound_to 11000
  146.3331  140.2758  142.8608 LP  0  0  0  0  0  0  0  0  0  0  0  0  # atno 17320 bound_to 7965
  144.9599  140.8264  143.5520 LP  0  0  0  0  0  0  0  0  0  0  0  0  # atno 17321 bound_to 7965
  140.6755  143.8198  150.7053 LP  0  0  0  0  0  0  0  0  0  0  0  0  # atno 17342 bound_to 10162
  140.1636  143.4254  152.2050 LP  0  0  0  0  0  0  0  0  0  0  0  0  # atno 17343 bound_to 10162
  157.7376  131.0550  150.5345 LP  0  0  0  0  0  0  0  0  0  0  0  0  # atno 17370 bound_to 10713
  156.5477  130.4224  149.6123 LP  0  0  0  0  0  0  0  0  0  0  0  0  # atno 17371 bound_to 10713
  140.5475  134.0659  155.7359 LP  0  0  0  0  0  0  0  0  0  0  0  0  # atno 17394 bound_to 11000
  141.1300  133.9318  157.2556 LP  0  0  0  0  0  0  0  0  0  0  0  0  # atno 17395 bound_to 11000

$$$$
