AV-unprocessed.smi:2763|AV-procd|sdf|10639|dock5
  -GOLD-   2272015 93D 1   1.00000     0.00000
 Structure written by MMmdl.
 37 38  0  0  0  0  0  0  0  0  1 V2000
  149.3865  140.4024  156.5034 O   0  0  0  0  0  0  0  0  0  0  0  0
  149.2407  141.6015  156.2644 C   0  0  0  0  0  0  0  0  0  0  0  0
  148.3617  142.0794  155.3719 N   0  0  0  0  0  0  0  0  0  0  0  0
  147.4571  141.2731  154.5600 C   0  0  0  0  0  0  0  0  0  0  0  0
  146.8030  142.1333  153.4680 C   0  0  0  0  0  0  0  0  0  0  0  0
  146.0407  143.3433  154.0323 C   0  0  1  0  0  0  0  0  0  0  0  0
  145.3860  144.1825  152.9172 C   0  0  0  0  0  0  0  0  0  0  0  0
  144.5689  145.3338  153.5148 C   0  0  0  0  0  0  0  0  0  0  0  0
  143.5833  144.7854  154.5520 C   0  0  0  0  0  0  0  0  0  0  0  0
  144.3211  143.9146  155.5809 C   0  0  0  0  0  0  0  0  0  0  0  0
  145.0248  142.8706  154.9151 O   0  0  0  0  0  0  0  0  0  0  0  0
  149.9234  142.5992  156.8536 N   0  0  0  0  0  0  0  0  0  0  0  0
  150.9456  142.5054  157.8356 C   0  0  0  0  0  0  0  0  0  0  0  0
  150.9504  141.3040  158.5806 C   0  0  0  0  0  0  0  0  0  0  0  0
  151.9231  141.1125  159.5814 C   0  0  0  0  0  0  0  0  0  0  0  0
  152.8654  142.1304  159.8112 C   0  0  0  0  0  0  0  0  0  0  0  0
  153.8187  141.9919  160.7629 F   0  0  0  0  0  0  0  0  0  0  0  0
  152.7919  143.2962  159.0266 C   0  0  0  0  0  0  0  0  0  0  0  0
  151.8606  143.4805  158.0667 N   0  0  0  0  0  0  0  0  0  0  0  0
  148.3119  143.0796  155.2454 H   0  0  0  0  0  0  0  0  0  0  0  0
  147.9829  140.4347  154.1003 H   0  0  0  0  0  0  0  0  0  0  0  0
  146.6941  140.8481  155.2129 H   0  0  0  0  0  0  0  0  0  0  0  0
  147.5755  142.4874  152.7839 H   0  0  0  0  0  0  0  0  0  0  0  0
  146.1248  141.5188  152.8743 H   0  0  0  0  0  0  0  0  0  0  0  0
  146.7398  143.9681  154.5911 H   0  0  0  0  0  0  0  0  0  0  0  0
  146.1469  144.5787  152.2440 H   0  0  0  0  0  0  0  0  0  0  0  0
  144.7340  143.5490  152.3143 H   0  0  0  0  0  0  0  0  0  0  0  0
  145.2388  146.0525  153.9885 H   0  0  0  0  0  0  0  0  0  0  0  0
  144.0360  145.8710  152.7298 H   0  0  0  0  0  0  0  0  0  0  0  0
  143.0651  145.6045  155.0512 H   0  0  0  0  0  0  0  0  0  0  0  0
  142.8190  144.1884  154.0528 H   0  0  0  0  0  0  0  0  0  0  0  0
  145.0133  144.5140  156.1745 H   0  0  0  0  0  0  0  0  0  0  0  0
  143.6083  143.4710  156.2764 H   0  0  0  0  0  0  0  0  0  0  0  0
  149.6847  143.5363  156.5646 H   0  0  0  0  0  0  0  0  0  0  0  0
  150.2176  140.5332  158.3905 H   0  0  0  0  0  0  0  0  0  0  0  0
  151.9442  140.2017  160.1613 H   0  0  0  0  0  0  0  0  0  0  0  0
  153.4971  144.1011  159.1724 H   0  0  0  0  0  0  0  0  0  0  0  0
  1  2  2  0  0  0  0
  2  3  1  0  0  0  0
  2 12  1  0  0  0  0
  3  4  1  0  0  0  0
  3 20  1  0  0  0  0
  4  5  1  0  0  0  0
  4 21  1  0  0  0  0
  4 22  1  0  0  0  0
  5  6  1  0  0  0  0
  5 23  1  0  0  0  0
  5 24  1  0  0  0  0
  6 11  1  0  0  0  0
  6  7  1  0  0  0  0
  6 25  1  0  0  0  0
  7  8  1  0  0  0  0
  7 26  1  0  0  0  0
  7 27  1  0  0  0  0
  8  9  1  0  0  0  0
  8 28  1  0  0  0  0
  8 29  1  0  0  0  0
  9 10  1  0  0  0  0
  9 30  1  0  0  0  0
  9 31  1  0  0  0  0
 10 11  1  0  0  0  0
 10 32  1  0  0  0  0
 10 33  1  0  0  0  0
 12 13  1  0  0  0  0
 12 34  1  0  0  0  0
 13 19  1  0  0  0  0
 13 14  2  0  0  0  0
 14 15  1  0  0  0  0
 14 35  1  0  0  0  0
 15 16  2  0  0  0  0
 15 36  1  0  0  0  0
 16 17  1  0  0  0  0
 16 18  1  0  0  0  0
 18 19  2  0  0  0  0
 18 37  1  0  0  0  0
M  END
> <s_m_source_file>
AV-unprocessed.smi

> <i_m_source_file_index>
2763

> <i_lp_mmshare_version>
43012

> <i_f3d_flags>
0

> <s_epik_input>
bjFbY0hdYyhGKVtjSF1bY0hdYzFbTkhdQyg9TylbTkhdW0NIMl1bQ0gyXVtDQEBIXTJbQ0gyXVtDSDJdW0NIMl1bQ0gyXU8y

> <s_epik_cmdline>
J2VwaWtfcHl0aG9uJywgJy1waCcsICc3LjAnLCAnLXRuJywgJzgnLCAnLW1hJywgJzIwMCcsICctbWV0YWxfYmluZGluZycsICctaW1hZScsICc8aW5maWxlLm1hZT4nLCAnLW9tYWUnLCAnPG91dGZpbGUubWFlPic=

> <r_lp_tautomer_probability>
1

> <r_epik_Ionization_Penalty>
3.67849e-05

> <r_epik_Ionization_Penalty_Charging>
0

> <r_epik_Ionization_Penalty_Neutral>
3.67849e-05

> <r_epik_State_Penalty>
-0

> <r_epik_Charging_Adjusted_Penalty>
0

> <i_epik_Tot_Q>
0

> <i_epik_Tot_abs_Q>
0

> <r_epik_Metal_State_Penalty>
-0

> <b_epik_Metal_Only>
0

> <s_lp_Force_Field>
OPLS_2005

> <r_lp_Energy>
13.3257

> <b_lp_Chiralities_Consistent>
1

> <s_lp_Variant>
AV-unprocessed.smi:2763-2

> <Gold.Version>
5.8.1

> <Gold.Id.Protein>
6NUR|6NUR_protein|mol2

> <Gold.PLP.Fitness>
44.8161

> <Gold.PLP.PLP>
-39.1347

> <Gold.PLP.part.hbond>
-2.0000

> <Gold.PLP.part.metal>
0.0000

> <Gold.PLP.part.buried>
-6.7564

> <Gold.PLP.part.nonpolar>
-31.1224

> <Gold.PLP.part.repulsive>
0.4257

> <Gold.PLP.ligand.clash>
0.0000

> <Gold.PLP.ligand.torsion>
0.1640

> <Gold.PLP.Chemscore.Hbond>
2.0000

> <Gold.PLP.Chemscore.CHOScore>
0.0000

> <Gold.PLP.Chemscore.Metal>
0.0000

> <Gold.Chemscore.Hbonds>
donor molecule, donor type, donor heavy atom, donor atom, acceptor molecule, acceptor atom, score
      L1  H     3    20       P1  8028  1.00
      L1  H    12    34       P1  8028  1.00

> <Gold.PLP.Chemscore.Internal.Correction>
0.0093

> <Gold.Rescore>
     Score         DG    S(hbond)    S(metal)    S(lipo)     H(rot)  DE(clash)    DE(int)     intcor
     16.12     -17.87       1.94        0.00      84.06       1.54       0.15       1.60       ----

> <Gold.Chemscore.Fitness>
16.1179

> <Gold.Chemscore.DG>
-17.8659

> <Gold.Chemscore.ZeroCoef>
-5.4800

> <Gold.Chemscore.Hbond>
1.9429

> <Gold.Chemscore.Metal>
0.0000

> <Gold.Chemscore.Lipo>
84.0576

> <Gold.Chemscore.Internal_Hbond>
0.0000

> <Gold.Chemscore.DEClash>
0.1457

> <Gold.Chemscore.DEInternal>
1.6023

> <Gold.Chemscore.Rot>
1.5384

> <Gold.Chemscore.Internal.Correction>
   9.000000E+99

> <Gold.Chemscore.Hbonds>
donor molecule, donor type, donor heavy atom, donor atom, acceptor molecule, acceptor atom, score
      L1  H     3    20       P1  8028  0.94
      L1  H    12    34       P1  8028  0.99

> <Gold.Chemscore.Hbond.Weighted>
-6.4894

> <Gold.Chemscore.Metal.Weighted>
-0.0000

> <Gold.Chemscore.Lipo.Weighted>
-9.8347

> <Gold.Chemscore.Internal_Hbond.Weighted>
0.0000

> <Gold.Chemscore.DEClash.Weighted>
0.1457

> <Gold.Chemscore.DEInternal.Weighted>
1.6023

> <Gold.Chemscore.Rot.Weighted>
3.9382

> <Gold.Chemscore.Internal.Correction.Weighted>
   9.000000E+99

> <Gold.Protein.RotatedTorsions>
[ 6907 6896 6895 6894 ] final   99.63 input  -60.11 | X-H torsion
[ 7974 7965 7964 7962 ] final -138.91 input  175.53 | X-H torsion
[ 8008 7997 7996 7995 ] final   49.67 input   59.86 | X-H torsion
[ 10167 10162 10161 10158 ] final -142.64 input  -65.29 | X-H torsion
[ 10718 10713 10712 10709 ] final  -61.04 input   66.30 | X-H torsion
[ 10763 10752 10751 10750 ] final   61.81 input  -60.55 | X-H torsion
[ 11005 11000 10999 10996 ] final -115.41 input  -57.11 | X-H torsion

> <Gold.Protein.ActiveResidues>
 VAL166  LYS551  ARG553  GLY616  TRP617  ASP618  TYR619  PRO620  LYS621  CYS622 
 ASP623  PHE694  ASN695  SER759  ASP760  ASP761  ALA762  ILE779  LEU786  VAL792 
 PHE793  MET794  SER795  GLU796  ALA797  LYS798  CYS799  TRP800  GLU811  SER814 

> <Gold.Protein.RotatedAtoms>
  152.5388  134.0400  159.8062 H   0  0  0  0  0  0  0  0  0  0  0  0  # atno 6907 bound_to 6896
  151.0557  133.5578  159.2645 H   0  0  0  0  0  0  0  0  0  0  0  0  # atno 6908 bound_to 6896
  151.2496  135.0625  159.9110 H   0  0  0  0  0  0  0  0  0  0  0  0  # atno 6909 bound_to 6896
  144.8719  140.6380  143.5261 H   0  0  0  0  0  0  0  0  0  0  0  0  # atno 7974 bound_to 7965
  155.4061  140.3440  155.4260 H   0  0  0  0  0  0  0  0  0  0  0  0  # atno 8008 bound_to 7997
  156.1476  140.1561  156.8854 H   0  0  0  0  0  0  0  0  0  0  0  0  # atno 8009 bound_to 7997
  154.5024  140.0811  156.7805 H   0  0  0  0  0  0  0  0  0  0  0  0  # atno 8010 bound_to 7997
  139.8069  143.7756  152.2661 H   0  0  0  0  0  0  0  0  0  0  0  0  # atno 10167 bound_to 10162
  156.0949  130.4194  150.0938 H   0  0  0  0  0  0  0  0  0  0  0  0  # atno 10718 bound_to 10713
  152.9962  135.5487  154.6093 H   0  0  0  0  0  0  0  0  0  0  0  0  # atno 10763 bound_to 10752
  154.5417  135.2820  155.1091 H   0  0  0  0  0  0  0  0  0  0  0  0  # atno 10764 bound_to 10752
  154.2366  135.6424  153.5245 H   0  0  0  0  0  0  0  0  0  0  0  0  # atno 10765 bound_to 10752
  141.0489  133.9718  157.2870 H   0  0  0  0  0  0  0  0  0  0  0  0  # atno 11005 bound_to 11000
  145.4114  139.1579  143.4124 LP  0  0  0  0  0  0  0  0  0  0  0  0  # atno 17320 bound_to 7965
  146.2936  140.4218  142.8730 LP  0  0  0  0  0  0  0  0  0  0  0  0  # atno 17321 bound_to 7965
  139.7893  144.7416  150.9977 LP  0  0  0  0  0  0  0  0  0  0  0  0  # atno 17342 bound_to 10162
  140.7819  143.4459  151.0484 LP  0  0  0  0  0  0  0  0  0  0  0  0  # atno 17343 bound_to 10162
  156.8939  130.9598  151.3585 LP  0  0  0  0  0  0  0  0  0  0  0  0  # atno 17370 bound_to 10713
  157.6108  130.8581  149.8948 LP  0  0  0  0  0  0  0  0  0  0  0  0  # atno 17371 bound_to 10713
  139.9334  135.0198  156.8476 LP  0  0  0  0  0  0  0  0  0  0  0  0  # atno 17394 bound_to 11000
  140.6093  134.0097  155.7570 LP  0  0  0  0  0  0  0  0  0  0  0  0  # atno 17395 bound_to 11000

$$$$
