AV-unprocessed.smi:947|AV-procd|sdf|4238|dock2
  -GOLD-   22720 2153D 1   1.00000     0.00000
 Structure written by MMmdl.
 25 26  0  0  0  0  0  0  0  0  2 V2000
  154.2259  140.5229  160.8332 C   0  0  0  0  0  0  0  0  0  0  0  0
  153.3436  141.6574  160.4025 C   0  0  0  0  0  0  0  0  0  0  0  0
  153.1270  142.9028  161.0561 C   0  0  0  0  0  0  0  0  0  0  0  0
  152.2398  143.5582  160.2498 C   0  0  0  0  0  0  0  0  0  0  0  0
  151.6183  144.9082  160.3976 C   0  0  0  0  0  0  0  0  0  0  0  0
  151.9769  142.7198  159.1819 N   0  0  0  0  0  0  0  0  0  0  0  0
  151.0994  142.9545  158.0688 C   0  0  0  0  0  0  0  0  0  0  0  0
  149.5797  142.8044  158.1818 C   0  0  0  0  0  0  0  0  0  0  0  0
  149.5863  142.3363  156.8020 N   0  3  0  0  0  0  0  0  0  0  0  0
  150.9764  141.9227  156.9496 C   0  0  0  0  0  0  0  0  0  0  0  0
  152.6481  141.5528  159.2817 N   0  0  0  0  0  0  0  0  0  0  0  0
  154.7884  140.7804  161.7308 H   0  0  0  0  0  0  0  0  0  0  0  0
  154.9445  140.2659  160.0546 H   0  0  0  0  0  0  0  0  0  0  0  0
  153.6386  139.6315  161.0547 H   0  0  0  0  0  0  0  0  0  0  0  0
  153.5567  143.2597  161.9806 H   0  0  0  0  0  0  0  0  0  0  0  0
  151.9510  145.3904  161.3171 H   0  0  0  0  0  0  0  0  0  0  0  0
  150.5312  144.8350  160.4329 H   0  0  0  0  0  0  0  0  0  0  0  0
  151.8899  145.5558  159.5641 H   0  0  0  0  0  0  0  0  0  0  0  0
  151.3583  143.9377  157.6695 H   0  0  0  0  0  0  0  0  0  0  0  0
  149.2545  142.0214  158.8698 H   0  0  0  0  0  0  0  0  0  0  0  0
  149.0343  143.7365  158.3323 H   0  0  0  0  0  0  0  0  0  0  0  0
  148.9469  141.5750  156.6228 H   0  0  0  0  0  0  0  0  0  0  0  0
  151.5934  142.1174  156.0721 H   0  0  0  0  0  0  0  0  0  0  0  0
  151.0655  140.8913  157.2963 H   0  0  0  0  0  0  0  0  0  0  0  0
  149.4951  143.1036  156.1516 H   0  0  0  0  0  0  0  0  0  0  0  0
  1  2  1  0  0  0  0
  1 12  1  0  0  0  0
  1 13  1  0  0  0  0
  1 14  1  0  0  0  0
  2 11  2  0  0  0  0
  2  3  1  0  0  0  0
  3  4  2  0  0  0  0
  3 15  1  0  0  0  0
  4  5  1  0  0  0  0
  4  6  1  0  0  0  0
  5 16  1  0  0  0  0
  5 17  1  0  0  0  0
  5 18  1  0  0  0  0
  6  7  1  0  0  0  0
  6 11  1  0  0  0  0
  7 10  1  0  0  0  0
  7  8  1  0  0  0  0
  7 19  1  0  0  0  0
  8  9  1  0  0  0  0
  8 20  1  0  0  0  0
  8 21  1  0  0  0  0
  9 10  1  0  0  0  0
  9 22  1  0  0  0  0
  9 25  1  0  0  0  0
 10 23  1  0  0  0  0
 10 24  1  0  0  0  0
M  CHG  1   9   1
M  END
> <s_m_source_file>
AV-unprocessed.smi

> <i_m_source_file_index>
947

> <i_lp_mmshare_version>
43012

> <i_f3d_flags>
0

> <s_epik_input>
W0NIM11jMVtjSF1jKFtDSDNdKW4objEpW0NIXTJbQ0gyXVtOSF1bQ0gyXTI=

> <s_epik_cmdline>
J2VwaWtfcHl0aG9uJywgJy1waCcsICc3LjAnLCAnLXRuJywgJzgnLCAnLW1hJywgJzIwMCcsICctbWV0YWxfYmluZGluZycsICctaW1hZScsICc8aW5maWxlLm1hZT4nLCAnLW9tYWUnLCAnPG91dGZpbGUubWFlPic=

> <r_lp_tautomer_probability>
1

> <r_epik_Ionization_Penalty>
0.0172231

> <r_epik_Ionization_Penalty_Charging>
0.0170392

> <r_epik_Ionization_Penalty_Neutral>
0.000183908

> <r_epik_State_Penalty>
0.00361255

> <r_epik_Charging_Adjusted_Penalty>
0.0206517

> <i_epik_Tot_Q>
1

> <i_epik_Tot_abs_Q>
1

> <r_epik_Metal_State_Penalty>
-0

> <b_epik_Metal_Only>
0

> <s_lp_Force_Field>
OPLS_2005

> <r_lp_Energy>
12.8102

> <b_lp_Chiralities_Consistent>
1

> <s_lp_Variant>
AV-unprocessed.smi:947-1

> <Gold.Version>
5.8.1

> <Gold.Id.Protein>
6NUR|6NUR_protein|mol2

> <Gold.PLP.Fitness>
34.0876

> <Gold.PLP.PLP>
-28.3809

> <Gold.PLP.part.hbond>
-1.0000

> <Gold.PLP.part.metal>
0.0000

> <Gold.PLP.part.buried>
-3.6141

> <Gold.PLP.part.nonpolar>
-23.6081

> <Gold.PLP.part.repulsive>
0.0202

> <Gold.PLP.ligand.clash>
0.0000

> <Gold.PLP.ligand.torsion>
0.2695

> <Gold.PLP.Chemscore.Hbond>
2.0000

> <Gold.PLP.Chemscore.CHOScore>
0.0000

> <Gold.PLP.Chemscore.Metal>
0.0000

> <Gold.Chemscore.Hbonds>
donor molecule, donor type, donor heavy atom, donor atom, acceptor molecule, acceptor atom, score
      L1  H     9    25       P1  8028  2.00

> <Gold.PLP.Chemscore.Internal.Correction>
0.2457

> <Gold.Rescore>
     Score         DG    S(hbond)    S(metal)    S(lipo)     H(rot)  DE(clash)    DE(int)     intcor
     14.98     -15.12       1.00        0.00      75.75       1.00       0.00       0.14       ----

> <Gold.Chemscore.Fitness>
14.9778

> <Gold.Chemscore.DG>
-15.1201

> <Gold.Chemscore.ZeroCoef>
-5.4800

> <Gold.Chemscore.Hbond>
0.9991

> <Gold.Chemscore.Metal>
0.0000

> <Gold.Chemscore.Lipo>
75.7541

> <Gold.Chemscore.Internal_Hbond>
0.0000

> <Gold.Chemscore.DEClash>
0.0000

> <Gold.Chemscore.DEInternal>
0.1423

> <Gold.Chemscore.Rot>
1.0000

> <Gold.Chemscore.Internal.Correction>
   9.000000E+99

> <Gold.Chemscore.Hbonds>
donor molecule, donor type, donor heavy atom, donor atom, acceptor molecule, acceptor atom, score
      L1  H     9    25       P1  8028  0.97

> <Gold.Chemscore.Hbond.Weighted>
-3.3369

> <Gold.Chemscore.Metal.Weighted>
-0.0000

> <Gold.Chemscore.Lipo.Weighted>
-8.8632

> <Gold.Chemscore.Internal_Hbond.Weighted>
0.0000

> <Gold.Chemscore.DEClash.Weighted>
0.0000

> <Gold.Chemscore.DEInternal.Weighted>
0.1423

> <Gold.Chemscore.Rot.Weighted>
2.5600

> <Gold.Chemscore.Internal.Correction.Weighted>
   9.000000E+99

> <Gold.Protein.RotatedTorsions>
[ 6907 6896 6895 6894 ] final  -51.71 input  -60.11 | X-H torsion
[ 7974 7965 7964 7962 ] final  126.78 input  175.53 | X-H torsion
[ 8008 7997 7996 7995 ] final   83.81 input   59.86 | X-H torsion
[ 10167 10162 10161 10158 ] final   84.31 input  -65.29 | X-H torsion
[ 10718 10713 10712 10709 ] final   68.10 input   66.30 | X-H torsion
[ 10763 10752 10751 10750 ] final   43.57 input  -60.55 | X-H torsion
[ 11005 11000 10999 10996 ] final  -24.68 input  -57.11 | X-H torsion

> <Gold.Protein.ActiveResidues>
 VAL166  LYS551  ARG553  GLY616  TRP617  ASP618  TYR619  PRO620  LYS621  CYS622 
 ASP623  PHE694  ASN695  SER759  ASP760  ASP761  ALA762  ILE779  LEU786  VAL792 
 PHE793  MET794  SER795  GLU796  ALA797  LYS798  CYS799  TRP800  GLU811  SER814 

> <Gold.Protein.RotatedAtoms>
  150.8586  134.7931  159.7064 H   0  0  0  0  0  0  0  0  0  0  0  0  # atno 6907 bound_to 6896
  152.4630  134.5138  159.9771 H   0  0  0  0  0  0  0  0  0  0  0  0  # atno 6908 bound_to 6896
  151.5246  133.3422  159.2943 H   0  0  0  0  0  0  0  0  0  0  0  0  # atno 6909 bound_to 6896
  145.0579  139.3829  143.5020 H   0  0  0  0  0  0  0  0  0  0  0  0  # atno 7974 bound_to 7965
  155.9288  140.3416  155.6232 H   0  0  0  0  0  0  0  0  0  0  0  0  # atno 8008 bound_to 7997
  155.7183  140.0780  157.2360 H   0  0  0  0  0  0  0  0  0  0  0  0  # atno 8009 bound_to 7997
  154.4081  140.1610  156.2360 H   0  0  0  0  0  0  0  0  0  0  0  0  # atno 8010 bound_to 7997
  139.9093  144.6281  150.8554 H   0  0  0  0  0  0  0  0  0  0  0  0  # atno 10167 bound_to 10162
  157.6269  130.9355  150.0331 H   0  0  0  0  0  0  0  0  0  0  0  0  # atno 10718 bound_to 10713
  152.9858  135.6097  154.3132 H   0  0  0  0  0  0  0  0  0  0  0  0  # atno 10763 bound_to 10752
  154.2846  135.2776  155.2684 H   0  0  0  0  0  0  0  0  0  0  0  0  # atno 10764 bound_to 10752
  154.5007  135.5867  153.6585 H   0  0  0  0  0  0  0  0  0  0  0  0  # atno 10765 bound_to 10752
  140.8868  133.7616  156.0370 H   0  0  0  0  0  0  0  0  0  0  0  0  # atno 11005 bound_to 11000
  146.3522  140.0263  142.8654 LP  0  0  0  0  0  0  0  0  0  0  0  0  # atno 17320 bound_to 7965
  145.1445  140.9589  143.4469 LP  0  0  0  0  0  0  0  0  0  0  0  0  # atno 17321 bound_to 7965
  140.7689  143.3377  151.2273 LP  0  0  0  0  0  0  0  0  0  0  0  0  # atno 17342 bound_to 10162
  139.6956  143.9618  152.2881 LP  0  0  0  0  0  0  0  0  0  0  0  0  # atno 17343 bound_to 10162
  156.1447  130.3642  149.9528 LP  0  0  0  0  0  0  0  0  0  0  0  0  # atno 17370 bound_to 10713
  156.7561  130.9133  151.3639 LP  0  0  0  0  0  0  0  0  0  0  0  0  # atno 17371 bound_to 10713
  140.8395  134.3083  157.5319 LP  0  0  0  0  0  0  0  0  0  0  0  0  # atno 17394 bound_to 11000
  139.8725  134.9408  156.3780 LP  0  0  0  0  0  0  0  0  0  0  0  0  # atno 17395 bound_to 11000

$$$$
