AV-unprocessed.smi:1976|AV-procd|sdf|7984|dock6
  -GOLD-   2272010163D 1   1.00000     0.00000
 Structure written by MMmdl.
 45 47  0  0  0  0  0  0  0  0  2 V2000
  148.6666  141.3694  156.5285 O   0  0  0  0  0  0  0  0  0  0  0  0
  149.4391  140.7665  155.7826 C   0  0  0  0  0  0  0  0  0  0  0  0
  150.9552  140.9841  155.8827 C   0  0  0  0  0  0  0  0  0  0  0  0
  151.4006  141.2821  157.2540 N   0  0  0  0  0  0  0  0  0  0  0  0
  151.3590  142.6289  157.6656 C   0  0  0  0  0  0  0  0  0  0  0  0
  151.7411  143.0323  158.8927 C   0  0  0  0  0  0  0  0  0  0  0  0
  151.6215  144.4834  159.3322 C   0  0  0  0  0  0  0  0  0  0  0  0
  150.3570  144.9012  159.2676 F   0  0  0  0  0  0  0  0  0  0  0  0
  152.0364  144.6107  160.5918 F   0  0  0  0  0  0  0  0  0  0  0  0
  152.3663  145.2826  158.5673 F   0  0  0  0  0  0  0  0  0  0  0  0
  152.1810  141.9946  159.8047 C   0  0  0  0  0  0  0  0  0  0  0  0
  152.2135  140.7003  159.4315 C   0  0  0  0  0  0  0  0  0  0  0  0
  151.8077  140.2794  158.0887 C   0  0  0  0  0  0  0  0  0  0  0  0
  151.8295  139.0996  157.7358 O   0  0  0  0  0  0  0  0  0  0  0  0
  149.0235  139.9139  154.8341 N   0  0  0  0  0  0  0  0  0  0  0  0
  147.6269  139.5702  154.5780 C   0  0  1  0  0  0  0  0  0  0  0  0
  147.2150  139.6858  153.0951 C   0  0  0  0  0  0  0  0  0  0  0  0
  146.3516  138.4478  152.8320 C   0  0  0  0  0  0  0  0  0  0  0  0
  146.9433  137.4386  153.7184 N   0  3  2  0  0  0  0  0  0  0  0  0
  146.2150  136.1712  153.9304 C   0  0  0  0  0  0  0  0  0  0  0  0
  147.1134  135.2221  154.7532 C   0  0  0  0  0  0  0  0  0  0  0  0
  147.6345  135.8839  156.0498 C   0  0  0  0  0  0  0  0  0  0  0  0
  148.2737  137.2620  155.7727 C   0  0  0  0  0  0  0  0  0  0  0  0
  147.2736  138.1221  154.9807 C   0  0  1  0  0  0  0  0  0  0  0  0
  151.4806  140.1074  155.4987 H   0  0  0  0  0  0  0  0  0  0  0  0
  151.2264  141.7965  155.2074 H   0  0  0  0  0  0  0  0  0  0  0  0
  150.9815  143.3144  156.9206 H   0  0  0  0  0  0  0  0  0  0  0  0
  152.4930  142.2594  160.8042 H   0  0  0  0  0  0  0  0  0  0  0  0
  152.5484  139.9544  160.1374 H   0  0  0  0  0  0  0  0  0  0  0  0
  149.7223  139.4611  154.2628 H   0  0  0  0  0  0  0  0  0  0  0  0
  147.0027  140.2404  155.1727 H   0  0  0  0  0  0  0  0  0  0  0  0
  146.6879  140.6154  152.8781 H   0  0  0  0  0  0  0  0  0  0  0  0
  148.0969  139.6516  152.4534 H   0  0  0  0  0  0  0  0  0  0  0  0
  145.3161  138.6329  153.1224 H   0  0  0  0  0  0  0  0  0  0  0  0
  146.3693  138.1354  151.7875 H   0  0  0  0  0  0  0  0  0  0  0  0
  145.2729  136.3608  154.4470 H   0  0  0  0  0  0  0  0  0  0  0  0
  145.9720  135.7197  152.9678 H   0  0  0  0  0  0  0  0  0  0  0  0
  146.5703  134.3076  154.9925 H   0  0  0  0  0  0  0  0  0  0  0  0
  147.9657  134.9202  154.1429 H   0  0  0  0  0  0  0  0  0  0  0  0
  146.8048  136.0060  156.7475 H   0  0  0  0  0  0  0  0  0  0  0  0
  148.3541  135.2289  156.5417 H   0  0  0  0  0  0  0  0  0  0  0  0
  148.5353  137.7483  156.7131 H   0  0  0  0  0  0  0  0  0  0  0  0
  149.1995  137.1359  155.2096 H   0  0  0  0  0  0  0  0  0  0  0  0
  146.3532  138.1855  155.5657 H   0  0  0  0  0  0  0  0  0  0  0  0
  147.8264  137.1940  153.2934 H   0  0  0  0  0  0  0  0  0  0  0  0
  1  2  2  0  0  0  0
  2  3  1  0  0  0  0
  2 15  1  0  0  0  0
  3  4  1  0  0  0  0
  3 25  1  0  0  0  0
  3 26  1  0  0  0  0
  4 13  1  0  0  0  0
  4  5  1  0  0  0  0
  5  6  2  0  0  0  0
  5 27  1  0  0  0  0
  6  7  1  0  0  0  0
  6 11  1  0  0  0  0
  7  8  1  0  0  0  0
  7  9  1  0  0  0  0
  7 10  1  0  0  0  0
 11 12  2  0  0  0  0
 11 28  1  0  0  0  0
 12 13  1  0  0  0  0
 12 29  1  0  0  0  0
 13 14  2  0  0  0  0
 15 16  1  0  0  0  0
 15 30  1  0  0  0  0
 16 24  1  0  0  0  0
 16 17  1  0  0  0  0
 16 31  1  0  0  0  0
 17 18  1  0  0  0  0
 17 32  1  0  0  0  0
 17 33  1  0  0  0  0
 18 19  1  0  0  0  0
 18 34  1  0  0  0  0
 18 35  1  0  0  0  0
 19 24  1  0  0  0  0
 19 20  1  0  0  0  0
 19 45  1  0  0  0  0
 20 21  1  0  0  0  0
 20 36  1  0  0  0  0
 20 37  1  0  0  0  0
 21 22  1  0  0  0  0
 21 38  1  0  0  0  0
 21 39  1  0  0  0  0
 22 23  1  0  0  0  0
 22 40  1  0  0  0  0
 22 41  1  0  0  0  0
 23 24  1  0  0  0  0
 23 42  1  0  0  0  0
 23 43  1  0  0  0  0
 24 44  1  0  0  0  0
M  CHG  1  19   1
M  END
> <s_m_source_file>
AV-unprocessed.smi

> <i_m_source_file_index>
1976

> <i_lp_mmshare_version>
43012

> <i_f3d_flags>
0

> <s_epik_input>
W0NIMl0xW0NIMl1bQ0gyXVtDSDJdW0NASF0oTjEyKVtDQEBIXShbQ0gyXVtDSDJdMilbTkhdQyg9TylbQ0gyXW4zW2NIXWMoQyhGKShGKUYpW2NIXVtjSF1jMz1P

> <s_epik_cmdline>
J2VwaWtfcHl0aG9uJywgJy1waCcsICc3LjAnLCAnLXRuJywgJzgnLCAnLW1hJywgJzIwMCcsICctbWV0YWxfYmluZGluZycsICctaW1hZScsICc8aW5maWxlLm1hZT4nLCAnLW9tYWUnLCAnPG91dGZpbGUubWFlPic=

> <r_lp_tautomer_probability>
1

> <r_epik_Ionization_Penalty>
0.00171506

> <r_epik_Ionization_Penalty_Charging>
0.00171498

> <r_epik_Ionization_Penalty_Neutral>
7.81737e-08

> <r_epik_State_Penalty>
0.00115937

> <r_epik_Charging_Adjusted_Penalty>
0.00287436

> <i_epik_Tot_Q>
1

> <i_epik_Tot_abs_Q>
1

> <r_epik_Metal_State_Penalty>
-0

> <b_epik_Metal_Only>
0

> <s_lp_Force_Field>
OPLS_2005

> <r_lp_Energy>
52.9518

> <b_lp_Chiralities_Consistent>
1

> <s_lp_Variant>
AV-unprocessed.smi:1976-2

> <Gold.Version>
5.8.1

> <Gold.Id.Protein>
6NUR|6NUR_protein|mol2

> <Gold.PLP.Fitness>
44.9307

> <Gold.PLP.PLP>
-39.5533

> <Gold.PLP.part.hbond>
-1.0000

> <Gold.PLP.part.metal>
0.0000

> <Gold.PLP.part.buried>
-3.7887

> <Gold.PLP.part.nonpolar>
-34.4640

> <Gold.PLP.part.repulsive>
0.1868

> <Gold.PLP.ligand.clash>
0.5165

> <Gold.PLP.ligand.torsion>
0.8501

> <Gold.PLP.Chemscore.Hbond>
1.9840

> <Gold.PLP.Chemscore.CHOScore>
0.5248

> <Gold.PLP.Chemscore.Metal>
0.0000

> <Gold.Chemscore.Hbonds>
donor molecule, donor type, donor heavy atom, donor atom, acceptor molecule, acceptor atom, score
      L1  H    19    45       P1  7948  1.85
      L1  C     5    27       P1  8028  0.31

> <Gold.PLP.Chemscore.Internal.Correction>
0.0676

> <Gold.Rescore>
     Score         DG    S(hbond)    S(metal)    S(lipo)     H(rot)  DE(clash)    DE(int)     intcor
     12.68     -13.71       0.88        0.00      79.85       1.58       0.08       0.96       ----

> <Gold.Chemscore.Fitness>
12.6812

> <Gold.Chemscore.DG>
-13.7130

> <Gold.Chemscore.ZeroCoef>
-5.4800

> <Gold.Chemscore.Hbond>
0.8812

> <Gold.Chemscore.Metal>
0.0000

> <Gold.Chemscore.Lipo>
79.8477

> <Gold.Chemscore.Internal_Hbond>
0.0000

> <Gold.Chemscore.DEClash>
0.0750

> <Gold.Chemscore.DEInternal>
0.9567

> <Gold.Chemscore.Rot>
1.5830

> <Gold.Chemscore.Internal.Correction>
   9.000000E+99

> <Gold.Chemscore.Hbonds>
donor molecule, donor type, donor heavy atom, donor atom, acceptor molecule, acceptor atom, score
      L1  H    19    45       P1  7948  0.85

> <Gold.Chemscore.Hbond.Weighted>
-2.9431

> <Gold.Chemscore.Metal.Weighted>
-0.0000

> <Gold.Chemscore.Lipo.Weighted>
-9.3422

> <Gold.Chemscore.Internal_Hbond.Weighted>
0.0000

> <Gold.Chemscore.DEClash.Weighted>
0.0750

> <Gold.Chemscore.DEInternal.Weighted>
0.9567

> <Gold.Chemscore.Rot.Weighted>
4.0524

> <Gold.Chemscore.Internal.Correction.Weighted>
   9.000000E+99

> <Gold.Protein.RotatedTorsions>
[ 6907 6896 6895 6894 ] final  176.13 input  -60.11 | X-H torsion
[ 7974 7965 7964 7962 ] final  -83.35 input  175.53 | X-H torsion
[ 8008 7997 7996 7995 ] final  137.11 input   59.86 | X-H torsion
[ 10167 10162 10161 10158 ] final -118.34 input  -65.29 | X-H torsion
[ 10718 10713 10712 10709 ] final  139.49 input   66.30 | X-H torsion
[ 10763 10752 10751 10750 ] final   66.79 input  -60.55 | X-H torsion
[ 11005 11000 10999 10996 ] final -164.50 input  -57.11 | X-H torsion

> <Gold.Protein.ActiveResidues>
 VAL166  LYS551  ARG553  GLY616  TRP617  ASP618  TYR619  PRO620  LYS621  CYS622 
 ASP623  PHE694  ASN695  SER759  ASP760  ASP761  ALA762  ILE779  LEU786  VAL792 
 PHE793  MET794  SER795  GLU796  ALA797  LYS798  CYS799  TRP800  GLU811  SER814 

> <Gold.Protein.RotatedAtoms>
  151.7250  133.3315  159.3325 H   0  0  0  0  0  0  0  0  0  0  0  0  # atno 6907 bound_to 6896
  150.7636  134.6414  159.6248 H   0  0  0  0  0  0  0  0  0  0  0  0  # atno 6908 bound_to 6896
  152.3628  134.6850  160.0253 H   0  0  0  0  0  0  0  0  0  0  0  0  # atno 6909 bound_to 6896
  145.5211  140.9531  143.1654 H   0  0  0  0  0  0  0  0  0  0  0  0  # atno 7974 bound_to 7965
  156.3003  140.2428  156.3856 H   0  0  0  0  0  0  0  0  0  0  0  0  # atno 8008 bound_to 7997
  154.8661  140.0418  157.1715 H   0  0  0  0  0  0  0  0  0  0  0  0  # atno 8009 bound_to 7997
  154.8845  140.2954  155.5410 H   0  0  0  0  0  0  0  0  0  0  0  0  # atno 8010 bound_to 7997
  140.0585  143.4991  152.2044 H   0  0  0  0  0  0  0  0  0  0  0  0  # atno 10167 bound_to 10162
  157.4138  131.1031  151.0426 H   0  0  0  0  0  0  0  0  0  0  0  0  # atno 10718 bound_to 10713
  153.0156  135.5307  154.6879 H   0  0  0  0  0  0  0  0  0  0  0  0  # atno 10763 bound_to 10752
  154.6021  135.2869  155.0526 H   0  0  0  0  0  0  0  0  0  0  0  0  # atno 10764 bound_to 10752
  154.1579  135.6552  153.5031 H   0  0  0  0  0  0  0  0  0  0  0  0  # atno 10765 bound_to 10752
  140.5862  134.5091  157.5186 H   0  0  0  0  0  0  0  0  0  0  0  0  # atno 11005 bound_to 11000
  144.7675  139.6811  143.7208 LP  0  0  0  0  0  0  0  0  0  0  0  0  # atno 17320 bound_to 7965
  146.2105  139.5458  142.9684 LP  0  0  0  0  0  0  0  0  0  0  0  0  # atno 17321 bound_to 7965
  139.5908  144.7549  151.3405 LP  0  0  0  0  0  0  0  0  0  0  0  0  # atno 17342 bound_to 10162
  140.7183  143.7206  150.7699 LP  0  0  0  0  0  0  0  0  0  0  0  0  # atno 17343 bound_to 10162
  157.1380  130.6131  149.5547 LP  0  0  0  0  0  0  0  0  0  0  0  0  # atno 17370 bound_to 10713
  155.9859  130.4891  150.7053 LP  0  0  0  0  0  0  0  0  0  0  0  0  # atno 17371 bound_to 10713
  139.9294  134.7992  156.0973 LP  0  0  0  0  0  0  0  0  0  0  0  0  # atno 17394 bound_to 11000
  141.0964  133.6694  156.2655 LP  0  0  0  0  0  0  0  0  0  0  0  0  # atno 17395 bound_to 11000

$$$$
