AV-unprocessed.smi:239|AV-procd|sdf|1821|dock1
  -GOLD-   2262020413D 1   1.00000     0.00000
 Structure written by MMmdl.
 54 58  0  0  0  0  0  0  0  0  1 V2000
  154.4622  140.3903  161.5898 C   0  0  0  0  0  0  0  0  0  0  0  0
  154.0637  140.9280  160.2114 C   0  0  1  0  0  0  0  0  0  0  0  0
  153.1301  139.9605  159.4619 C   0  0  0  0  0  0  0  0  0  0  0  0
  152.6859  140.5590  158.2057 N   0  0  0  0  0  0  0  0  0  0  0  0
  152.0601  139.7597  157.3038 C   0  0  0  0  0  0  0  0  0  0  0  0
  152.2221  139.9836  155.9718 N   0  0  0  0  0  0  0  0  0  0  0  0
  151.6179  139.1989  155.0750 C   0  0  0  0  0  0  0  0  0  0  0  0
  150.8163  138.1540  155.2867 N   0  0  0  0  0  0  0  0  0  0  0  0
  150.6387  137.9295  156.6198 C   0  0  0  0  0  0  0  0  0  0  0  0
  151.2199  138.6746  157.6852 C   0  0  0  0  0  0  0  0  0  0  0  0
  150.8038  138.1536  158.9053 N   0  0  0  0  0  0  0  0  0  0  0  0
  150.0331  137.1522  158.5798 C   0  0  0  0  0  0  0  0  0  0  0  0
  149.8691  136.9527  157.2277 N   0  0  0  0  0  0  0  0  0  0  0  0
  149.0639  135.9222  156.5890 C   0  0  0  0  0  0  0  0  0  0  0  0
  149.5915  134.4817  156.8069 C   0  0  0  0  0  0  0  0  0  0  0  0
  149.5515  134.2108  158.1971 O   0  0  0  0  0  0  0  0  0  0  0  0
  148.6837  133.4635  156.0875 C   0  0  0  0  0  0  0  0  0  0  0  0
  149.2610  132.0374  156.1312 C   0  0  0  0  0  0  0  0  0  0  0  0
  150.5761  132.0292  155.5897 O   0  0  0  0  0  0  0  0  0  0  0  0
  151.4846  132.8245  156.3412 C   0  0  0  0  0  0  0  0  0  0  0  0
  151.0447  134.2992  156.3167 C   0  0  0  0  0  0  0  0  0  0  0  0
  152.0889  141.8788  158.3818 C   0  0  0  0  0  0  0  0  0  0  0  0
  153.0481  142.7990  159.1588 C   0  0  1  0  0  0  0  0  0  0  0  0
  152.4296  144.1645  159.4079 C   0  0  0  0  0  0  0  0  0  0  0  0
  151.0436  144.3037  160.0009 C   0  0  0  0  0  0  0  0  0  0  0  0
  151.2842  144.6752  158.5602 C   0  0  0  0  0  0  0  0  0  0  0  0
  153.3938  142.1720  160.3936 O   0  0  0  0  0  0  0  0  0  0  0  0
  154.9883  139.4395  161.5029 H   0  0  0  0  0  0  0  0  0  0  0  0
  153.5864  140.2318  162.2198 H   0  0  0  0  0  0  0  0  0  0  0  0
  155.1214  141.0894  162.1052 H   0  0  0  0  0  0  0  0  0  0  0  0
  154.9702  141.0919  159.6262 H   0  0  0  0  0  0  0  0  0  0  0  0
  153.6544  139.0241  159.2653 H   0  0  0  0  0  0  0  0  0  0  0  0
  152.2608  139.7257  160.0781 H   0  0  0  0  0  0  0  0  0  0  0  0
  151.8037  139.4432  154.0396 H   0  0  0  0  0  0  0  0  0  0  0  0
  149.5509  136.5332  159.3224 H   0  0  0  0  0  0  0  0  0  0  0  0
  148.0408  136.0097  156.9577 H   0  0  0  0  0  0  0  0  0  0  0  0
  149.0196  136.1456  155.5222 H   0  0  0  0  0  0  0  0  0  0  0  0
  148.6559  134.0385  158.4445 H   0  0  0  0  0  0  0  0  0  0  0  0
  147.6806  133.4742  156.5158 H   0  0  0  0  0  0  0  0  0  0  0  0
  148.5713  133.7561  155.0427 H   0  0  0  0  0  0  0  0  0  0  0  0
  149.2711  131.6456  157.1494 H   0  0  0  0  0  0  0  0  0  0  0  0
  148.6362  131.3655  155.5427 H   0  0  0  0  0  0  0  0  0  0  0  0
  151.5523  132.4514  157.3644 H   0  0  0  0  0  0  0  0  0  0  0  0
  152.4789  132.7262  155.9053 H   0  0  0  0  0  0  0  0  0  0  0  0
  151.1271  134.6682  155.2937 H   0  0  0  0  0  0  0  0  0  0  0  0
  151.7359  134.8940  156.9147 H   0  0  0  0  0  0  0  0  0  0  0  0
  151.8443  142.3369  157.4243 H   0  0  0  0  0  0  0  0  0  0  0  0
  151.1506  141.7702  158.9277 H   0  0  0  0  0  0  0  0  0  0  0  0
  153.9570  142.9556  158.5751 H   0  0  0  0  0  0  0  0  0  0  0  0
  153.1525  144.9145  159.7242 H   0  0  0  0  0  0  0  0  0  0  0  0
  150.4748  143.3968  160.1966 H   0  0  0  0  0  0  0  0  0  0  0  0
  150.8816  145.1141  160.7086 H   0  0  0  0  0  0  0  0  0  0  0  0
  151.2835  145.7332  158.3064 H   0  0  0  0  0  0  0  0  0  0  0  0
  150.8786  144.0148  157.7964 H   0  0  0  0  0  0  0  0  0  0  0  0
  1  2  1  0  0  0  0
  1 28  1  0  0  0  0
  1 29  1  0  0  0  0
  1 30  1  0  0  0  0
  2 27  1  0  0  0  0
  2  3  1  0  0  0  0
  2 31  1  0  0  0  0
  3  4  1  0  0  0  0
  3 32  1  0  0  0  0
  3 33  1  0  0  0  0
  4  5  1  0  0  0  0
  4 22  1  0  0  0  0
  5 10  1  0  0  0  0
  5  6  2  0  0  0  0
  6  7  1  0  0  0  0
  7  8  2  0  0  0  0
  7 34  1  0  0  0  0
  8  9  1  0  0  0  0
  9 13  1  0  0  0  0
  9 10  2  0  0  0  0
 10 11  1  0  0  0  0
 11 12  2  0  0  0  0
 12 13  1  0  0  0  0
 12 35  1  0  0  0  0
 13 14  1  0  0  0  0
 14 15  1  0  0  0  0
 14 36  1  0  0  0  0
 14 37  1  0  0  0  0
 15 21  1  0  0  0  0
 15 16  1  0  0  0  0
 15 17  1  0  0  0  0
 16 38  1  0  0  0  0
 17 18  1  0  0  0  0
 17 39  1  0  0  0  0
 17 40  1  0  0  0  0
 18 19  1  0  0  0  0
 18 41  1  0  0  0  0
 18 42  1  0  0  0  0
 19 20  1  0  0  0  0
 20 21  1  0  0  0  0
 20 43  1  0  0  0  0
 20 44  1  0  0  0  0
 21 45  1  0  0  0  0
 21 46  1  0  0  0  0
 22 23  1  0  0  0  0
 22 47  1  0  0  0  0
 22 48  1  0  0  0  0
 23 24  1  0  0  0  0
 23 27  1  0  0  0  0
 23 49  1  0  0  0  0
 24 26  1  0  0  0  0
 24 25  1  0  0  0  0
 24 50  1  0  0  0  0
 25 26  1  0  0  0  0
 25 51  1  0  0  0  0
 25 52  1  0  0  0  0
 26 53  1  0  0  0  0
 26 54  1  0  0  0  0
M  END
> <s_m_source_file>
AV-unprocessed.smi

> <i_m_source_file_index>
239

> <i_lp_mmshare_version>
43012

> <i_f3d_flags>
0

> <s_epik_input>
W0NIMl0xW0NIMl1bQ0hdMVtDQEBIXShPMilbQ0gyXU4oW0NIMl1bQ0BIXTJbQ0gzXSljKG5bY0hdbjMpYyhjMzQpbltjSF1uNFtDSDJdQzUoW09IXSlbQ0gyXVtDSDJdT1tDSDJdW0NIMl01

> <s_epik_cmdline>
J2VwaWtfcHl0aG9uJywgJy1waCcsICc3LjAnLCAnLXRuJywgJzgnLCAnLW1hJywgJzIwMCcsICctbWV0YWxfYmluZGluZycsICctaW1hZScsICc8aW5maWxlLm1hZT4nLCAnLW9tYWUnLCAnPG91dGZpbGUubWFlPic=

> <r_lp_tautomer_probability>
1

> <r_epik_Ionization_Penalty>
9.13091e-05

> <r_epik_Ionization_Penalty_Charging>
0

> <r_epik_Ionization_Penalty_Neutral>
9.13091e-05

> <r_epik_State_Penalty>
-0

> <r_epik_Charging_Adjusted_Penalty>
0

> <i_epik_Tot_Q>
0

> <i_epik_Tot_abs_Q>
0

> <r_epik_Metal_State_Penalty>
-0

> <b_epik_Metal_Only>
0

> <s_lp_Force_Field>
OPLS_2005

> <r_lp_Energy>
35.8814

> <b_lp_Chiralities_Consistent>
1

> <s_lp_Variant>
AV-unprocessed.smi:239-2

> <Gold.Version>
5.8.1

> <Gold.Id.Protein>
6NUR|6NUR_protein|mol2

> <Gold.PLP.Fitness>
46.4622

> <Gold.PLP.PLP>
-41.4236

> <Gold.PLP.part.hbond>
-2.9219

> <Gold.PLP.part.metal>
0.0000

> <Gold.PLP.part.buried>
-5.4249

> <Gold.PLP.part.nonpolar>
-31.6947

> <Gold.PLP.part.repulsive>
0.0754

> <Gold.PLP.ligand.clash>
0.0000

> <Gold.PLP.ligand.torsion>
1.2071

> <Gold.PLP.Chemscore.Hbond>
2.0000

> <Gold.PLP.Chemscore.CHOScore>
0.0000

> <Gold.PLP.Chemscore.Metal>
0.0000

> <Gold.Chemscore.Hbonds>
donor molecule, donor type, donor heavy atom, donor atom, acceptor molecule, acceptor atom, score
      P1  H  6896  6908       L1    16  1.00
      P1  H  7997  8009       L1     6  0.53

> <Gold.PLP.Chemscore.Internal.Correction>
1.4528

> <Gold.Rescore>
     Score         DG    S(hbond)    S(metal)    S(lipo)     H(rot)  DE(clash)    DE(int)     intcor
     15.33     -18.74       1.76        0.00     112.14       2.24       0.08       3.33       ----

> <Gold.Chemscore.Fitness>
15.3327

> <Gold.Chemscore.DG>
-18.7408

> <Gold.Chemscore.ZeroCoef>
-5.4800

> <Gold.Chemscore.Hbond>
1.7580

> <Gold.Chemscore.Metal>
0.0000

> <Gold.Chemscore.Lipo>
112.1369

> <Gold.Chemscore.Internal_Hbond>
0.0000

> <Gold.Chemscore.DEClash>
0.0823

> <Gold.Chemscore.DEInternal>
3.3258

> <Gold.Chemscore.Rot>
2.2387

> <Gold.Chemscore.Internal.Correction>
   9.000000E+99

> <Gold.Chemscore.Hbonds>
donor molecule, donor type, donor heavy atom, donor atom, acceptor molecule, acceptor atom, score
      P1  H  6896  6908       L1    16  0.93
      P1  H  7997  8009       L1     6  0.10

> <Gold.Chemscore.Hbond.Weighted>
-5.8719

> <Gold.Chemscore.Metal.Weighted>
-0.0000

> <Gold.Chemscore.Lipo.Weighted>
-13.1200

> <Gold.Chemscore.Internal_Hbond.Weighted>
0.0000

> <Gold.Chemscore.DEClash.Weighted>
0.0823

> <Gold.Chemscore.DEInternal.Weighted>
3.3258

> <Gold.Chemscore.Rot.Weighted>
5.7311

> <Gold.Chemscore.Internal.Correction.Weighted>
   9.000000E+99

> <Gold.Protein.RotatedTorsions>
[ 6907 6896 6895 6894 ] final  121.95 input  -60.11 | X-H torsion
[ 7974 7965 7964 7962 ] final   49.22 input  175.53 | X-H torsion
[ 8008 7997 7996 7995 ] final -139.44 input   59.86 | X-H torsion
[ 10167 10162 10161 10158 ] final  -75.98 input  -65.29 | X-H torsion
[ 10718 10713 10712 10709 ] final -151.63 input   66.30 | X-H torsion
[ 10763 10752 10751 10750 ] final -142.27 input  -60.55 | X-H torsion
[ 11005 11000 10999 10996 ] final  114.62 input  -57.11 | X-H torsion

> <Gold.Protein.ActiveResidues>
 VAL166  LYS551  ARG553  GLY616  TRP617  ASP618  TYR619  PRO620  LYS621  CYS622 
 ASP623  PHE694  ASN695  SER759  ASP760  ASP761  ALA762  ILE779  LEU786  VAL792 
 PHE793  MET794  SER795  GLU796  ALA797  LYS798  CYS799  TRP800  GLU811  SER814 

> <Gold.Protein.RotatedAtoms>
  152.4281  133.7231  159.6544 H   0  0  0  0  0  0  0  0  0  0  0  0  # atno 6907 bound_to 6896
  150.8159  133.8327  159.3167 H   0  0  0  0  0  0  0  0  0  0  0  0  # atno 6908 bound_to 6896
  151.6024  135.1048  160.0115 H   0  0  0  0  0  0  0  0  0  0  0  0  # atno 6909 bound_to 6896
  146.0130  139.4564  142.9944 H   0  0  0  0  0  0  0  0  0  0  0  0  # atno 7974 bound_to 7965
  155.4449  140.0534  157.3007 H   0  0  0  0  0  0  0  0  0  0  0  0  # atno 8008 bound_to 7997
  154.4802  140.2078  155.9738 H   0  0  0  0  0  0  0  0  0  0  0  0  # atno 8009 bound_to 7997
  156.1194  140.3191  155.8191 H   0  0  0  0  0  0  0  0  0  0  0  0  # atno 8010 bound_to 7997
  140.4896  143.2383  151.7927 H   0  0  0  0  0  0  0  0  0  0  0  0  # atno 10167 bound_to 10162
  156.4617  130.8216  151.2447 H   0  0  0  0  0  0  0  0  0  0  0  0  # atno 10718 bound_to 10713
  154.8515  135.3501  154.6001 H   0  0  0  0  0  0  0  0  0  0  0  0  # atno 10763 bound_to 10752
  153.6610  135.6989  153.5182 H   0  0  0  0  0  0  0  0  0  0  0  0  # atno 10764 bound_to 10752
  153.2818  135.4261  155.1043 H   0  0  0  0  0  0  0  0  0  0  0  0  # atno 10765 bound_to 10752
  139.8986  134.9571  156.6920 H   0  0  0  0  0  0  0  0  0  0  0  0  # atno 11005 bound_to 11000
  145.7313  141.0041  143.1350 LP  0  0  0  0  0  0  0  0  0  0  0  0  # atno 17320 bound_to 7965
  144.6960  139.8987  143.7457 LP  0  0  0  0  0  0  0  0  0  0  0  0  # atno 17321 bound_to 7965
  139.4849  144.4666  151.9476 LP  0  0  0  0  0  0  0  0  0  0  0  0  # atno 17342 bound_to 10162
  140.3752  144.2805  150.5915 LP  0  0  0  0  0  0  0  0  0  0  0  0  # atno 17343 bound_to 10162
  157.7497  131.0105  150.3308 LP  0  0  0  0  0  0  0  0  0  0  0  0  # atno 17370 bound_to 10713
  156.3709  130.3863  149.7176 LP  0  0  0  0  0  0  0  0  0  0  0  0  # atno 17371 bound_to 10713
  140.7218  133.9134  155.8152 LP  0  0  0  0  0  0  0  0  0  0  0  0  # atno 17394 bound_to 11000
  141.0222  134.0874  157.4108 LP  0  0  0  0  0  0  0  0  0  0  0  0  # atno 17395 bound_to 11000

$$$$
