AV-unprocessed.smi:1341|AV-procd|sdf|5505|dock6
  -GOLD-   22720 5 83D 1   1.00000     0.00000
 Structure written by MMmdl.
 34 35  0  0  0  0  0  0  0  0  1 V2000
  145.8755  143.4662  153.6906 C   0  0  0  0  0  0  0  0  0  0  0  0
  146.5853  142.6014  154.4306 C   0  0  0  0  0  0  0  0  0  0  0  0
  147.3187  141.3964  153.8748 C   0  0  0  0  0  0  0  0  0  0  0  0
  148.5228  141.1017  154.6413 N   0  0  0  0  0  0  0  0  0  0  0  0
  149.2488  139.9755  154.5437 C   0  0  0  0  0  0  0  0  0  0  0  0
  148.9742  139.0531  153.7757 O   0  0  0  0  0  0  0  0  0  0  0  0
  150.4658  139.9282  155.4244 C   0  0  0  0  0  0  0  0  0  0  0  0
  150.6463  140.9629  156.2799 N   0  0  0  0  0  0  0  0  0  0  0  0
  151.7002  140.9379  157.1054 C   0  0  0  0  0  0  0  0  0  0  0  0
  151.8672  142.0230  157.9756 N   0  0  0  0  0  0  0  0  0  0  0  0
  151.1120  143.2688  157.8182 C   0  0  0  0  0  0  0  0  0  0  0  0
  151.9389  144.4739  158.2970 C   0  0  0  0  0  0  0  0  0  0  0  0
  152.3656  144.2637  159.6373 O   0  0  0  0  0  0  0  0  0  0  0  0
  153.2022  143.1188  159.7455 C   0  0  0  0  0  0  0  0  0  0  0  0
  152.4235  141.8619  159.3215 C   0  0  0  0  0  0  0  0  0  0  0  0
  152.6054  139.9533  157.1575 N   0  0  0  0  0  0  0  0  0  0  0  0
  152.4463  138.9086  156.3188 C   0  0  0  0  0  0  0  0  0  0  0  0
  151.3722  138.8376  155.4112 C   0  0  0  0  0  0  0  0  0  0  0  0
  151.2333  137.4827  154.3440 Cl  0  0  0  0  0  0  0  0  0  0  0  0
  145.7805  143.3450  152.6215 H   0  0  0  0  0  0  0  0  0  0  0  0
  145.3788  144.3093  154.1477 H   0  0  0  0  0  0  0  0  0  0  0  0
  146.6598  142.7598  155.4968 H   0  0  0  0  0  0  0  0  0  0  0  0
  146.6686  140.5211  153.8943 H   0  0  0  0  0  0  0  0  0  0  0  0
  147.5705  141.5799  152.8292 H   0  0  0  0  0  0  0  0  0  0  0  0
  148.8316  141.8034  155.2988 H   0  0  0  0  0  0  0  0  0  0  0  0
  150.8195  143.4464  156.7838 H   0  0  0  0  0  0  0  0  0  0  0  0
  150.1915  143.1930  158.3978 H   0  0  0  0  0  0  0  0  0  0  0  0
  152.8015  144.6357  157.6485 H   0  0  0  0  0  0  0  0  0  0  0  0
  151.3363  145.3813  158.2561 H   0  0  0  0  0  0  0  0  0  0  0  0
  154.0965  143.2474  159.1332 H   0  0  0  0  0  0  0  0  0  0  0  0
  153.5366  143.0211  160.7784 H   0  0  0  0  0  0  0  0  0  0  0  0
  151.6047  141.6766  160.0177 H   0  0  0  0  0  0  0  0  0  0  0  0
  153.0950  141.0066  159.3894 H   0  0  0  0  0  0  0  0  0  0  0  0
  153.1863  138.1239  156.3711 H   0  0  0  0  0  0  0  0  0  0  0  0
  1  2  2  0  0  0  0
  1 20  1  0  0  0  0
  1 21  1  0  0  0  0
  2  3  1  0  0  0  0
  2 22  1  0  0  0  0
  3  4  1  0  0  0  0
  3 23  1  0  0  0  0
  3 24  1  0  0  0  0
  4  5  1  0  0  0  0
  4 25  1  0  0  0  0
  5  6  2  0  0  0  0
  5  7  1  0  0  0  0
  7 18  1  0  0  0  0
  7  8  2  0  0  0  0
  8  9  1  0  0  0  0
  9 10  1  0  0  0  0
  9 16  2  0  0  0  0
 10 15  1  0  0  0  0
 10 11  1  0  0  0  0
 11 12  1  0  0  0  0
 11 26  1  0  0  0  0
 11 27  1  0  0  0  0
 12 13  1  0  0  0  0
 12 28  1  0  0  0  0
 12 29  1  0  0  0  0
 13 14  1  0  0  0  0
 14 15  1  0  0  0  0
 14 30  1  0  0  0  0
 14 31  1  0  0  0  0
 15 32  1  0  0  0  0
 15 33  1  0  0  0  0
 16 17  1  0  0  0  0
 17 18  2  0  0  0  0
 17 34  1  0  0  0  0
 18 19  1  0  0  0  0
M  END
> <s_m_source_file>
AV-unprocessed.smi

> <i_m_source_file_index>
1341

> <i_lp_mmshare_version>
43012

> <i_f3d_flags>
0

> <s_epik_input>
W0NIMl09W0NIXVtDSDJdW05IXUMoPU8pYzFuYyhuW2NIXWMxQ2wpTjJbQ0gyXVtDSDJdT1tDSDJdW0NIMl0y

> <s_epik_cmdline>
J2VwaWtfcHl0aG9uJywgJy1waCcsICc3LjAnLCAnLXRuJywgJzgnLCAnLW1hJywgJzIwMCcsICctbWV0YWxfYmluZGluZycsICctaW1hZScsICc8aW5maWxlLm1hZT4nLCAnLW9tYWUnLCAnPG91dGZpbGUubWFlPic=

> <r_lp_tautomer_probability>
1

> <r_epik_Ionization_Penalty>
2.38615e-05

> <r_epik_Ionization_Penalty_Charging>
0

> <r_epik_Ionization_Penalty_Neutral>
2.38615e-05

> <r_epik_State_Penalty>
-0

> <r_epik_Charging_Adjusted_Penalty>
0

> <i_epik_Tot_Q>
0

> <i_epik_Tot_abs_Q>
0

> <r_epik_Metal_State_Penalty>
0.0225026

> <b_epik_Metal_Only>
0

> <s_lp_Force_Field>
OPLS_2005

> <r_lp_Energy>
14.7295

> <b_lp_Chiralities_Consistent>
1

> <s_lp_Variant>
AV-unprocessed.smi:1341-1

> <Gold.Version>
5.8.1

> <Gold.Id.Protein>
6NUR|6NUR_protein|mol2

> <Gold.PLP.Fitness>
42.0452

> <Gold.PLP.PLP>
-40.8731

> <Gold.PLP.part.hbond>
-1.0000

> <Gold.PLP.part.metal>
0.0000

> <Gold.PLP.part.buried>
-6.3760

> <Gold.PLP.part.nonpolar>
-35.4808

> <Gold.PLP.part.repulsive>
2.1938

> <Gold.PLP.ligand.clash>
0.0000

> <Gold.PLP.ligand.torsion>
0.5313

> <Gold.PLP.Chemscore.Hbond>
0.7080

> <Gold.PLP.Chemscore.CHOScore>
0.0000

> <Gold.PLP.Chemscore.Metal>
0.0000

> <Gold.Chemscore.Hbonds>
donor molecule, donor type, donor heavy atom, donor atom, acceptor molecule, acceptor atom, score
      P1  H  7997  8009       L1    16  0.71

> <Gold.PLP.Chemscore.Internal.Correction>
0.1108

> <Gold.Rescore>
     Score         DG    S(hbond)    S(metal)    S(lipo)     H(rot)  DE(clash)    DE(int)     intcor
     12.33     -14.19       0.38        0.00      88.99       1.16       0.11       1.74       ----

> <Gold.Chemscore.Fitness>
12.3342

> <Gold.Chemscore.DG>
-14.1858

> <Gold.Chemscore.ZeroCoef>
-5.4800

> <Gold.Chemscore.Hbond>
0.3813

> <Gold.Chemscore.Metal>
0.0000

> <Gold.Chemscore.Lipo>
88.9941

> <Gold.Chemscore.Internal_Hbond>
0.0000

> <Gold.Chemscore.DEClash>
0.1122

> <Gold.Chemscore.DEInternal>
1.7395

> <Gold.Chemscore.Rot>
1.1641

> <Gold.Chemscore.Internal.Correction>
   9.000000E+99

> <Gold.Chemscore.Hbonds>
donor molecule, donor type, donor heavy atom, donor atom, acceptor molecule, acceptor atom, score
      P1  H  7997  8009       L1    16  0.08

> <Gold.Chemscore.Hbond.Weighted>
-1.2737

> <Gold.Chemscore.Metal.Weighted>
-0.0000

> <Gold.Chemscore.Lipo.Weighted>
-10.4123

> <Gold.Chemscore.Internal_Hbond.Weighted>
0.0000

> <Gold.Chemscore.DEClash.Weighted>
0.1122

> <Gold.Chemscore.DEInternal.Weighted>
1.7395

> <Gold.Chemscore.Rot.Weighted>
2.9802

> <Gold.Chemscore.Internal.Correction.Weighted>
   9.000000E+99

> <Gold.Protein.RotatedTorsions>
[ 6907 6896 6895 6894 ] final   51.26 input  -60.11 | X-H torsion
[ 7974 7965 7964 7962 ] final   26.77 input  175.53 | X-H torsion
[ 8008 7997 7996 7995 ] final  161.83 input   59.86 | X-H torsion
[ 10167 10162 10161 10158 ] final  154.80 input  -65.29 | X-H torsion
[ 10718 10713 10712 10709 ] final  147.27 input   66.30 | X-H torsion
[ 10763 10752 10751 10750 ] final -166.15 input  -60.55 | X-H torsion
[ 11005 11000 10999 10996 ] final  117.40 input  -57.11 | X-H torsion

> <Gold.Protein.ActiveResidues>
 VAL166  LYS551  ARG553  GLY616  TRP617  ASP618  TYR619  PRO620  LYS621  CYS622 
 ASP623  PHE694  ASN695  SER759  ASP760  ASP761  ALA762  ILE779  LEU786  VAL792 
 PHE793  MET794  SER795  GLU796  ALA797  LYS798  CYS799  TRP800  GLU811  SER814 

> <Gold.Protein.RotatedAtoms>
  152.3107  134.7500  160.0336 H   0  0  0  0  0  0  0  0  0  0  0  0  # atno 6907 bound_to 6896
  151.7982  133.3361  159.3527 H   0  0  0  0  0  0  0  0  0  0  0  0  # atno 6908 bound_to 6896
  150.7319  134.5709  159.5934 H   0  0  0  0  0  0  0  0  0  0  0  0  # atno 6909 bound_to 6896
  146.1820  139.7283  142.8893 H   0  0  0  0  0  0  0  0  0  0  0  0  # atno 7974 bound_to 7965
  156.2075  140.1767  156.7767 H   0  0  0  0  0  0  0  0  0  0  0  0  # atno 8008 bound_to 7997
  154.5676  140.0688  156.8945 H   0  0  0  0  0  0  0  0  0  0  0  0  # atno 8009 bound_to 7997
  155.2733  140.3344  155.4266 H   0  0  0  0  0  0  0  0  0  0  0  0  # atno 8010 bound_to 7997
  139.4822  144.5154  151.7959 H   0  0  0  0  0  0  0  0  0  0  0  0  # atno 10167 bound_to 10162
  157.3230  131.0907  151.1225 H   0  0  0  0  0  0  0  0  0  0  0  0  # atno 10718 bound_to 10713
  154.6861  135.2963  154.9545 H   0  0  0  0  0  0  0  0  0  0  0  0  # atno 10763 bound_to 10752
  154.0524  135.6642  153.4806 H   0  0  0  0  0  0  0  0  0  0  0  0  # atno 10764 bound_to 10752
  153.0580  135.5133  154.7929 H   0  0  0  0  0  0  0  0  0  0  0  0  # atno 10765 bound_to 10752
  139.9073  134.9609  156.7345 H   0  0  0  0  0  0  0  0  0  0  0  0  # atno 11005 bound_to 11000
  145.4049  141.0389  143.3050 LP  0  0  0  0  0  0  0  0  0  0  0  0  # atno 17320 bound_to 7965
  144.8331  139.5595  143.6934 LP  0  0  0  0  0  0  0  0  0  0  0  0  # atno 17321 bound_to 7965
  140.4662  144.1651  150.5912 LP  0  0  0  0  0  0  0  0  0  0  0  0  # atno 17342 bound_to 10162
  140.4431  143.2518  151.9447 LP  0  0  0  0  0  0  0  0  0  0  0  0  # atno 17343 bound_to 10162
  157.2502  130.6610  149.5928 LP  0  0  0  0  0  0  0  0  0  0  0  0  # atno 17370 bound_to 10713
  155.9688  130.4541  150.5836 LP  0  0  0  0  0  0  0  0  0  0  0  0  # atno 17371 bound_to 10713
  140.6898  133.9400  155.7960 LP  0  0  0  0  0  0  0  0  0  0  0  0  # atno 17394 bound_to 11000
  141.0449  134.0568  157.3856 LP  0  0  0  0  0  0  0  0  0  0  0  0  # atno 17395 bound_to 11000

$$$$
