AV-unprocessed.smi:1005|AV-procd|sdf|4388|dock2
  -GOLD-   22720 2313D 1   1.00000     0.00000
 Structure written by MMmdl.
 55 57  0  0  0  0  0  0  0  0  1 V2000
  153.1745  142.5806  161.5454 C   0  0  0  0  0  0  0  0  0  0  0  0
  152.5624  142.3191  160.1805 C   0  0  0  0  0  0  0  0  0  0  0  0
  152.8987  141.1313  159.4929 C   0  0  0  0  0  0  0  0  0  0  0  0
  152.3531  140.8516  158.2208 C   0  0  0  0  0  0  0  0  0  0  0  0
  152.5429  139.7679  157.3805 N   0  0  0  0  0  0  0  0  0  0  0  0
  151.7683  140.0905  156.3487 C   0  0  0  0  0  0  0  0  0  0  0  0
  151.0961  141.2551  156.4219 N   0  0  0  0  0  0  0  0  0  0  0  0
  150.1991  141.8085  155.4223 C   0  0  0  0  0  0  0  0  0  0  0  0
  149.2749  140.7424  154.8033 C   0  0  2  0  0  0  0  0  0  0  0  0
  150.0214  139.9395  153.9090 O   0  0  0  0  0  0  0  0  0  0  0  0
  148.1062  141.3904  154.0325 C   0  0  0  0  0  0  0  0  0  0  0  0
  146.8948  141.6516  154.8125 N   0  0  0  0  0  0  0  0  0  0  0  0
  146.1218  142.7384  154.2226 C   0  0  0  0  0  0  0  0  0  0  0  0
  144.8443  143.0358  155.0238 C   0  0  0  0  0  0  0  0  0  0  0  0
  145.1924  143.3229  156.3739 O   0  0  0  0  0  0  0  0  0  0  0  0
  145.8843  142.2520  157.0128 C   0  0  2  0  0  0  0  0  0  0  0  0
  146.1605  142.6726  158.4716 C   0  0  0  0  0  0  0  0  0  0  0  0
  145.0214  142.5754  159.3861 N   0  0  0  0  0  0  0  0  0  0  0  0
  144.4538  141.2339  159.4369 C   0  0  0  0  0  0  0  0  0  0  0  0
  145.3946  143.0167  160.7227 C   0  0  0  0  0  0  0  0  0  0  0  0
  147.1756  141.9771  156.2099 C   0  0  0  0  0  0  0  0  0  0  0  0
  151.4533  141.7995  157.6511 C   0  0  0  0  0  0  0  0  0  0  0  0
  151.1109  142.9847  158.3259 C   0  0  0  0  0  0  0  0  0  0  0  0
  151.6655  143.2491  159.5957 C   0  0  0  0  0  0  0  0  0  0  0  0
  151.2911  144.5327  160.3150 C   0  0  0  0  0  0  0  0  0  0  0  0
  153.8638  141.7858  161.8313 H   0  0  0  0  0  0  0  0  0  0  0  0
  152.3971  142.6400  162.3073 H   0  0  0  0  0  0  0  0  0  0  0  0
  153.7298  143.5186  161.5425 H   0  0  0  0  0  0  0  0  0  0  0  0
  153.5821  140.4232  159.9378 H   0  0  0  0  0  0  0  0  0  0  0  0
  151.6841  139.4428  155.4884 H   0  0  0  0  0  0  0  0  0  0  0  0
  149.6040  142.5897  155.8972 H   0  0  0  0  0  0  0  0  0  0  0  0
  150.7938  142.2983  154.6502 H   0  0  0  0  0  0  0  0  0  0  0  0
  148.9037  140.1075  155.6069 H   0  0  0  0  0  0  0  0  0  0  0  0
  149.5848  139.9363  153.0709 H   0  0  0  0  0  0  0  0  0  0  0  0
  148.4493  142.3256  153.5870 H   0  0  0  0  0  0  0  0  0  0  0  0
  147.8567  140.7394  153.1931 H   0  0  0  0  0  0  0  0  0  0  0  0
  146.7321  143.6416  154.1727 H   0  0  0  0  0  0  0  0  0  0  0  0
  145.8524  142.4874  153.1962 H   0  0  0  0  0  0  0  0  0  0  0  0
  144.3213  143.8932  154.6003 H   0  0  0  0  0  0  0  0  0  0  0  0
  144.1561  142.1898  154.9872 H   0  0  0  0  0  0  0  0  0  0  0  0
  145.2347  141.3744  157.0004 H   0  0  0  0  0  0  0  0  0  0  0  0
  147.0150  142.1215  158.8678 H   0  0  0  0  0  0  0  0  0  0  0  0
  146.4767  143.7167  158.4518 H   0  0  0  0  0  0  0  0  0  0  0  0
  143.6370  141.1874  160.1580 H   0  0  0  0  0  0  0  0  0  0  0  0
  145.2047  140.4978  159.7275 H   0  0  0  0  0  0  0  0  0  0  0  0
  144.0407  140.9451  158.4709 H   0  0  0  0  0  0  0  0  0  0  0  0
  144.5341  142.9951  161.3923 H   0  0  0  0  0  0  0  0  0  0  0  0
  145.7689  144.0408  160.7032 H   0  0  0  0  0  0  0  0  0  0  0  0
  146.1711  142.3781  161.1462 H   0  0  0  0  0  0  0  0  0  0  0  0
  147.7179  141.1618  156.6825 H   0  0  0  0  0  0  0  0  0  0  0  0
  147.8275  142.8508  156.2595 H   0  0  0  0  0  0  0  0  0  0  0  0
  150.4290  143.6855  157.8678 H   0  0  0  0  0  0  0  0  0  0  0  0
  150.5770  145.1195  159.7365 H   0  0  0  0  0  0  0  0  0  0  0  0
  152.1755  145.1487  160.4792 H   0  0  0  0  0  0  0  0  0  0  0  0
  150.8375  144.3119  161.2815 H   0  0  0  0  0  0  0  0  0  0  0  0
  1  2  1  0  0  0  0
  1 26  1  0  0  0  0
  1 27  1  0  0  0  0
  1 28  1  0  0  0  0
  2 24  1  0  0  0  0
  2  3  2  0  0  0  0
  3  4  1  0  0  0  0
  3 29  1  0  0  0  0
  4 22  2  0  0  0  0
  4  5  1  0  0  0  0
  5  6  2  0  0  0  0
  6  7  1  0  0  0  0
  6 30  1  0  0  0  0
  7  8  1  0  0  0  0
  7 22  1  0  0  0  0
  8  9  1  0  0  0  0
  8 31  1  0  0  0  0
  8 32  1  0  0  0  0
  9 10  1  0  0  0  0
  9 11  1  0  0  0  0
  9 33  1  0  0  0  0
 10 34  1  0  0  0  0
 11 12  1  0  0  0  0
 11 35  1  0  0  0  0
 11 36  1  0  0  0  0
 12 21  1  0  0  0  0
 12 13  1  0  0  0  0
 13 14  1  0  0  0  0
 13 37  1  0  0  0  0
 13 38  1  0  0  0  0
 14 15  1  0  0  0  0
 14 39  1  0  0  0  0
 14 40  1  0  0  0  0
 15 16  1  0  0  0  0
 16 17  1  0  0  0  0
 16 21  1  0  0  0  0
 16 41  1  0  0  0  0
 17 18  1  0  0  0  0
 17 42  1  0  0  0  0
 17 43  1  0  0  0  0
 18 19  1  0  0  0  0
 18 20  1  0  0  0  0
 19 44  1  0  0  0  0
 19 45  1  0  0  0  0
 19 46  1  0  0  0  0
 20 47  1  0  0  0  0
 20 48  1  0  0  0  0
 20 49  1  0  0  0  0
 21 50  1  0  0  0  0
 21 51  1  0  0  0  0
 22 23  1  0  0  0  0
 23 24  2  0  0  0  0
 23 52  1  0  0  0  0
 24 25  1  0  0  0  0
 25 53  1  0  0  0  0
 25 54  1  0  0  0  0
 25 55  1  0  0  0  0
M  END
> <s_m_source_file>
AV-unprocessed.smi

> <i_m_source_file_index>
1005

> <i_lp_mmshare_version>
43012

> <i_f3d_flags>
0

> <s_epik_input>
W0NIM11jKFtjSF0xKWMoW0NIM10pW2NIXWMoYzEyKW4oW2NIXW4yKVtDSDJdW0NASF0oW09IXSlbQ0gyXU4zW0NIMl1bQ0gyXU9bQ0BIXShbQ0gyXTMpW0NIMl1OKFtDSDNdKVtDSDNd

> <s_epik_cmdline>
J2VwaWtfcHl0aG9uJywgJy1waCcsICc3LjAnLCAnLXRuJywgJzgnLCAnLW1hJywgJzIwMCcsICctbWV0YWxfYmluZGluZycsICctaW1hZScsICc8aW5maWxlLm1hZT4nLCAnLW9tYWUnLCAnPG91dGZpbGUubWFlPic=

> <r_epik_Ionization_Penalty>
2.78613

> <r_epik_Ionization_Penalty_Charging>
0

> <r_epik_Ionization_Penalty_Neutral>
2.78613

> <r_epik_State_Penalty>
2.57336

> <r_epik_Charging_Adjusted_Penalty>
2.57336

> <i_epik_Tot_Q>
0

> <i_epik_Tot_abs_Q>
0

> <r_epik_Metal_State_Penalty>
2.49087

> <b_epik_Metal_Only>
0

> <s_lp_Force_Field>
OPLS_2005

> <r_lp_Energy>
40.4742

> <b_lp_Chiralities_Consistent>
1

> <s_lp_Variant>
AV-unprocessed.smi:1005-27

> <Gold.Version>
5.8.1

> <Gold.Id.Protein>
6NUR|6NUR_protein|mol2

> <Gold.PLP.Fitness>
55.8606

> <Gold.PLP.PLP>
-49.1132

> <Gold.PLP.part.hbond>
-3.0000

> <Gold.PLP.part.metal>
0.0000

> <Gold.PLP.part.buried>
-7.0187

> <Gold.PLP.part.nonpolar>
-39.8396

> <Gold.PLP.part.repulsive>
0.2387

> <Gold.PLP.ligand.clash>
0.0000

> <Gold.PLP.ligand.torsion>
1.1819

> <Gold.PLP.Chemscore.Hbond>
2.8960

> <Gold.PLP.Chemscore.CHOScore>
0.0000

> <Gold.PLP.Chemscore.Metal>
0.0000

> <Gold.Chemscore.Hbonds>
donor molecule, donor type, donor heavy atom, donor atom, acceptor molecule, acceptor atom, score
      L1  H    10    34       P1  7957  1.00
      P1  H  7989  7998       L1    10  0.90
      P1  H  7997  8008       L1     5  1.00

> <Gold.PLP.Chemscore.Internal.Correction>
0.4231

> <Gold.Rescore>
     Score         DG    S(hbond)    S(metal)    S(lipo)     H(rot)  DE(clash)    DE(int)     intcor
     17.84     -20.16       2.00        0.00     118.61       2.29       0.13       2.19       ----

> <Gold.Chemscore.Fitness>
17.8426

> <Gold.Chemscore.DG>
-20.1624

> <Gold.Chemscore.ZeroCoef>
-5.4800

> <Gold.Chemscore.Hbond>
1.9959

> <Gold.Chemscore.Metal>
0.0000

> <Gold.Chemscore.Lipo>
118.6075

> <Gold.Chemscore.Internal_Hbond>
0.0000

> <Gold.Chemscore.DEClash>
0.1261

> <Gold.Chemscore.DEInternal>
2.1938

> <Gold.Chemscore.Rot>
2.2895

> <Gold.Chemscore.Internal.Correction>
   9.000000E+99

> <Gold.Chemscore.Hbonds>
donor molecule, donor type, donor heavy atom, donor atom, acceptor molecule, acceptor atom, score
      L1  H    10    34       P1  7957  0.95
      P1  H  7989  7998       L1    10  0.15
      P1  H  7997  8008       L1     5  0.13

> <Gold.Chemscore.Hbond.Weighted>
-6.6665

> <Gold.Chemscore.Metal.Weighted>
-0.0000

> <Gold.Chemscore.Lipo.Weighted>
-13.8771

> <Gold.Chemscore.Internal_Hbond.Weighted>
0.0000

> <Gold.Chemscore.DEClash.Weighted>
0.1261

> <Gold.Chemscore.DEInternal.Weighted>
2.1938

> <Gold.Chemscore.Rot.Weighted>
5.8612

> <Gold.Chemscore.Internal.Correction.Weighted>
   9.000000E+99

> <Gold.Protein.RotatedTorsions>
[ 6907 6896 6895 6894 ] final -121.82 input  -60.11 | X-H torsion
[ 7974 7965 7964 7962 ] final  -64.48 input  175.53 | X-H torsion
[ 8008 7997 7996 7995 ] final  -60.68 input   59.86 | X-H torsion
[ 10167 10162 10161 10158 ] final   75.10 input  -65.29 | X-H torsion
[ 10718 10713 10712 10709 ] final   37.25 input   66.30 | X-H torsion
[ 10763 10752 10751 10750 ] final  153.84 input  -60.55 | X-H torsion
[ 11005 11000 10999 10996 ] final  -97.55 input  -57.11 | X-H torsion

> <Gold.Protein.ActiveResidues>
 VAL166  LYS551  ARG553  GLY616  TRP617  ASP618  TYR619  PRO620  LYS621  CYS622 
 ASP623  PHE694  ASN695  SER759  ASP760  ASP761  ALA762  ILE779  LEU786  VAL792 
 PHE793  MET794  SER795  GLU796  ALA797  LYS798  CYS799  TRP800  GLU811  SER814 

> <Gold.Protein.RotatedAtoms>
  150.8518  133.7775  159.3022 H   0  0  0  0  0  0  0  0  0  0  0  0  # atno 6907 bound_to 6896
  151.5445  135.1066  159.9944 H   0  0  0  0  0  0  0  0  0  0  0  0  # atno 6908 bound_to 6896
  152.4559  133.7678  159.6838 H   0  0  0  0  0  0  0  0  0  0  0  0  # atno 6909 bound_to 6896
  145.7662  140.8836  143.0404 H   0  0  0  0  0  0  0  0  0  0  0  0  # atno 7974 bound_to 7965
  154.4410  140.1034  156.6312 H   0  0  0  0  0  0  0  0  0  0  0  0  # atno 8008 bound_to 7997
  155.5603  140.3487  155.4471 H   0  0  0  0  0  0  0  0  0  0  0  0  # atno 8009 bound_to 7997
  156.0465  140.1294  157.0087 H   0  0  0  0  0  0  0  0  0  0  0  0  # atno 8010 bound_to 7997
  140.0066  144.5646  150.7693 H   0  0  0  0  0  0  0  0  0  0  0  0  # atno 10167 bound_to 10162
  157.3447  130.7566  149.6936 H   0  0  0  0  0  0  0  0  0  0  0  0  # atno 10718 bound_to 10713
  154.1427  135.2820  155.3156 H   0  0  0  0  0  0  0  0  0  0  0  0  # atno 10763 bound_to 10752
  154.6275  135.5446  153.7646 H   0  0  0  0  0  0  0  0  0  0  0  0  # atno 10764 bound_to 10752
  153.0245  135.6454  154.1574 H   0  0  0  0  0  0  0  0  0  0  0  0  # atno 10765 bound_to 10752
  141.1375  133.8179  157.0721 H   0  0  0  0  0  0  0  0  0  0  0  0  # atno 11005 bound_to 11000
  144.6821  139.9791  143.7483 LP  0  0  0  0  0  0  0  0  0  0  0  0  # atno 17320 bound_to 7965
  146.0215  139.3255  143.0810 LP  0  0  0  0  0  0  0  0  0  0  0  0  # atno 17321 bound_to 7965
  140.7398  143.2796  151.3638 LP  0  0  0  0  0  0  0  0  0  0  0  0  # atno 17342 bound_to 10162
  139.6234  144.0861  152.2412 LP  0  0  0  0  0  0  0  0  0  0  0  0  # atno 17343 bound_to 10162
  155.9712  130.4157  150.4197 LP  0  0  0  0  0  0  0  0  0  0  0  0  # atno 17370 bound_to 10713
  157.2251  131.0491  151.2524 LP  0  0  0  0  0  0  0  0  0  0  0  0  # atno 17371 bound_to 10713
  140.0504  134.9808  157.1127 LP  0  0  0  0  0  0  0  0  0  0  0  0  # atno 17394 bound_to 11000
  140.3998  134.2095  155.7164 LP  0  0  0  0  0  0  0  0  0  0  0  0  # atno 17395 bound_to 11000

$$$$
