AV-unprocessed.smi:1240|AV-procd|sdf|5197|dock6
  -GOLD-   22720 4283D 1   1.00000     0.00000
 Structure written by MMmdl.
 47 49  0  0  0  0  0  0  0  0  1 V2000
  144.7389  135.9861  153.3172 O   0  0  0  0  0  0  0  0  0  0  0  0
  145.9231  135.9634  152.9824 C   0  0  0  0  0  0  0  0  0  0  0  0
  146.8504  136.7827  153.4985 N   0  0  0  0  0  0  0  0  0  0  0  0
  146.5939  137.8112  154.5034 C   0  0  0  0  0  0  0  0  0  0  0  0
  147.2267  139.1957  154.1551 C   0  0  2  0  0  0  0  0  0  0  0  0
  148.6677  139.2667  154.7680 C   0  0  1  0  0  0  0  0  0  0  0  0
  149.7018  138.2157  154.4018 C   0  0  0  0  0  0  0  0  0  0  0  0
  150.9763  138.8429  154.9525 C   0  0  0  0  0  0  0  0  0  0  0  0
  150.8259  140.2397  154.7236 O   0  0  0  0  0  0  0  0  0  0  0  0
  149.4579  140.5451  154.4613 C   0  0  0  0  0  0  0  0  0  0  0  0
  146.3823  140.3741  154.4787 N   0  0  0  0  0  0  0  0  0  0  0  0
  146.4079  140.6837  155.9146 C   0  0  0  0  0  0  0  0  0  0  0  0
  145.4556  141.8342  156.2792 C   0  0  0  0  0  0  0  0  0  0  0  0
  145.8200  142.9957  155.5434 O   0  0  0  0  0  0  0  0  0  0  0  0
  145.8003  142.7769  154.1380 C   0  0  0  0  0  0  0  0  0  0  0  0
  146.7380  141.6110  153.7758 C   0  0  0  0  0  0  0  0  0  0  0  0
  146.4571  135.1516  152.0536 N   0  0  0  0  0  0  0  0  0  0  0  0
  145.8131  134.1641  151.2595 C   0  0  0  0  0  0  0  0  0  0  0  0
  146.6173  133.1568  150.6873 C   0  0  0  0  0  0  0  0  0  0  0  0
  146.0022  132.1579  149.9066 C   0  0  0  0  0  0  0  0  0  0  0  0
  144.6727  132.1065  149.6818 N   0  0  0  0  0  0  0  0  0  0  0  0
  143.9024  133.0629  150.2420 C   0  0  0  0  0  0  0  0  0  0  0  0
  144.4158  134.1059  151.0385 C   0  0  0  0  0  0  0  0  0  0  0  0
  147.7999  136.6988  153.1660 H   0  0  0  0  0  0  0  0  0  0  0  0
  145.5111  137.8881  154.6094 H   0  0  0  0  0  0  0  0  0  0  0  0
  146.9687  137.4472  155.4602 H   0  0  0  0  0  0  0  0  0  0  0  0
  147.3531  139.1859  153.0716 H   0  0  0  0  0  0  0  0  0  0  0  0
  148.5638  139.2062  155.8524 H   0  0  0  0  0  0  0  0  0  0  0  0
  149.4939  137.2322  154.8241 H   0  0  0  0  0  0  0  0  0  0  0  0
  149.8146  138.1262  153.3215 H   0  0  0  0  0  0  0  0  0  0  0  0
  151.0564  138.6682  156.0261 H   0  0  0  0  0  0  0  0  0  0  0  0
  151.8763  138.4535  154.4760 H   0  0  0  0  0  0  0  0  0  0  0  0
  149.3592  140.8194  153.4101 H   0  0  0  0  0  0  0  0  0  0  0  0
  149.1323  141.3936  155.0635 H   0  0  0  0  0  0  0  0  0  0  0  0
  146.1634  139.8214  156.5262 H   0  0  0  0  0  0  0  0  0  0  0  0
  147.4212  140.9646  156.2066 H   0  0  0  0  0  0  0  0  0  0  0  0
  144.4205  141.5634  156.0661 H   0  0  0  0  0  0  0  0  0  0  0  0
  145.5180  142.0554  157.3448 H   0  0  0  0  0  0  0  0  0  0  0  0
  144.7807  142.5658  153.8118 H   0  0  0  0  0  0  0  0  0  0  0  0
  146.1157  143.6891  153.6316 H   0  0  0  0  0  0  0  0  0  0  0  0
  147.7683  141.8888  154.0037 H   0  0  0  0  0  0  0  0  0  0  0  0
  146.6743  141.4669  152.6975 H   0  0  0  0  0  0  0  0  0  0  0  0
  147.4320  135.3045  151.8423 H   0  0  0  0  0  0  0  0  0  0  0  0
  147.6872  133.1488  150.8356 H   0  0  0  0  0  0  0  0  0  0  0  0
  146.5951  131.3781  149.4518 H   0  0  0  0  0  0  0  0  0  0  0  0
  142.8410  132.9916  150.0556 H   0  0  0  0  0  0  0  0  0  0  0  0
  143.7326  134.8227  151.4671 H   0  0  0  0  0  0  0  0  0  0  0  0
  1  2  2  0  0  0  0
  2  3  1  0  0  0  0
  2 17  1  0  0  0  0
  3  4  1  0  0  0  0
  3 24  1  0  0  0  0
  4  5  1  0  0  0  0
  4 25  1  0  0  0  0
  4 26  1  0  0  0  0
  5  6  1  0  0  0  0
  5 11  1  0  0  0  0
  5 27  1  0  0  0  0
  6 10  1  0  0  0  0
  6  7  1  0  0  0  0
  6 28  1  0  0  0  0
  7  8  1  0  0  0  0
  7 29  1  0  0  0  0
  7 30  1  0  0  0  0
  8  9  1  0  0  0  0
  8 31  1  0  0  0  0
  8 32  1  0  0  0  0
  9 10  1  0  0  0  0
 10 33  1  0  0  0  0
 10 34  1  0  0  0  0
 11 16  1  0  0  0  0
 11 12  1  0  0  0  0
 12 13  1  0  0  0  0
 12 35  1  0  0  0  0
 12 36  1  0  0  0  0
 13 14  1  0  0  0  0
 13 37  1  0  0  0  0
 13 38  1  0  0  0  0
 14 15  1  0  0  0  0
 15 16  1  0  0  0  0
 15 39  1  0  0  0  0
 15 40  1  0  0  0  0
 16 41  1  0  0  0  0
 16 42  1  0  0  0  0
 17 18  1  0  0  0  0
 17 43  1  0  0  0  0
 18 23  1  0  0  0  0
 18 19  2  0  0  0  0
 19 20  1  0  0  0  0
 19 44  1  0  0  0  0
 20 21  2  0  0  0  0
 20 45  1  0  0  0  0
 21 22  1  0  0  0  0
 22 23  2  0  0  0  0
 22 46  1  0  0  0  0
 23 47  1  0  0  0  0
M  END
> <s_m_source_file>
AV-unprocessed.smi

> <i_m_source_file_index>
1240

> <i_lp_mmshare_version>
43012

> <i_f3d_flags>
0

> <s_epik_input>
W2NIXTFbY0hdbltjSF1bY0hdYzFbTkhdQyg9TylbTkhdW0NIMl1bQ0BIXShbQ0BASF0yW0NIMl1bQ0gyXU9bQ0gyXTIpTjNbQ0gyXVtDSDJdT1tDSDJdW0NIMl0z

> <s_epik_cmdline>
J2VwaWtfcHl0aG9uJywgJy1waCcsICc3LjAnLCAnLXRuJywgJzgnLCAnLW1hJywgJzIwMCcsICctbWV0YWxfYmluZGluZycsICctaW1hZScsICc8aW5maWxlLm1hZT4nLCAnLW9tYWUnLCAnPG91dGZpbGUubWFlPic=

> <r_epik_Ionization_Penalty>
0.238664

> <r_epik_Ionization_Penalty_Charging>
0

> <r_epik_Ionization_Penalty_Neutral>
0.238664

> <r_epik_State_Penalty>
0.217087

> <r_epik_Charging_Adjusted_Penalty>
0.217087

> <i_epik_Tot_Q>
0

> <i_epik_Tot_abs_Q>
0

> <r_epik_Metal_State_Penalty>
0.199194

> <b_epik_Metal_Only>
0

> <s_lp_Force_Field>
OPLS_2005

> <r_lp_Energy>
60.4564

> <b_lp_Chiralities_Consistent>
1

> <s_lp_Variant>
AV-unprocessed.smi:1240-3

> <Gold.Version>
5.8.1

> <Gold.Id.Protein>
6NUR|6NUR_protein|mol2

> <Gold.PLP.Fitness>
49.2899

> <Gold.PLP.PLP>
-36.2727

> <Gold.PLP.part.hbond>
-3.0000

> <Gold.PLP.part.metal>
0.0000

> <Gold.PLP.part.buried>
-5.4468

> <Gold.PLP.part.nonpolar>
-28.5230

> <Gold.PLP.part.repulsive>
0.7015

> <Gold.PLP.ligand.clash>
0.0000

> <Gold.PLP.ligand.torsion>
0.8841

> <Gold.PLP.Chemscore.Hbond>
2.9760

> <Gold.PLP.Chemscore.CHOScore>
1.8778

> <Gold.PLP.Chemscore.Metal>
0.0000

> <Gold.Chemscore.Hbonds>
donor molecule, donor type, donor heavy atom, donor atom, acceptor molecule, acceptor atom, score
      L1  H     3    24       P1  7948  0.99
      L1  H    17    43       P1  7948  1.00
      P1  H  7989  7998       L1     9  1.00
      L1  C    20    45       P1 10747  0.81
      L1  C    22    46       P1 10186  1.00

> <Gold.PLP.Chemscore.Internal.Correction>
0.2239

> <Gold.Rescore>
     Score         DG    S(hbond)    S(metal)    S(lipo)     H(rot)  DE(clash)    DE(int)     intcor
     17.39     -20.51       2.81        0.00      84.44       1.65       0.06       3.05       ----

> <Gold.Chemscore.Fitness>
17.3916

> <Gold.Chemscore.DG>
-20.5061

> <Gold.Chemscore.ZeroCoef>
-5.4800

> <Gold.Chemscore.Hbond>
2.8062

> <Gold.Chemscore.Metal>
0.0000

> <Gold.Chemscore.Lipo>
84.4415

> <Gold.Chemscore.Internal_Hbond>
0.0000

> <Gold.Chemscore.DEClash>
0.0643

> <Gold.Chemscore.DEInternal>
3.0503

> <Gold.Chemscore.Rot>
1.6508

> <Gold.Chemscore.Internal.Correction>
   9.000000E+99

> <Gold.Chemscore.Hbonds>
donor molecule, donor type, donor heavy atom, donor atom, acceptor molecule, acceptor atom, score
      L1  H     3    24       P1  7948  0.93
      L1  H    17    43       P1  7948  0.96
      P1  H  7989  7998       L1     9  0.46

> <Gold.Chemscore.Hbond.Weighted>
-9.3726

> <Gold.Chemscore.Metal.Weighted>
-0.0000

> <Gold.Chemscore.Lipo.Weighted>
-9.8797

> <Gold.Chemscore.Internal_Hbond.Weighted>
0.0000

> <Gold.Chemscore.DEClash.Weighted>
0.0643

> <Gold.Chemscore.DEInternal.Weighted>
3.0503

> <Gold.Chemscore.Rot.Weighted>
4.2262

> <Gold.Chemscore.Internal.Correction.Weighted>
   9.000000E+99

> <Gold.Protein.RotatedTorsions>
[ 6907 6896 6895 6894 ] final  -14.34 input  -60.11 | X-H torsion
[ 7974 7965 7964 7962 ] final -168.78 input  175.53 | X-H torsion
[ 8008 7997 7996 7995 ] final  155.03 input   59.86 | X-H torsion
[ 10167 10162 10161 10158 ] final  -22.20 input  -65.29 | X-H torsion
[ 10718 10713 10712 10709 ] final  -20.44 input   66.30 | X-H torsion
[ 10763 10752 10751 10750 ] final   56.51 input  -60.55 | X-H torsion
[ 11005 11000 10999 10996 ] final  169.88 input  -57.11 | X-H torsion

> <Gold.Protein.ActiveResidues>
 VAL166  LYS551  ARG553  GLY616  TRP617  ASP618  TYR619  PRO620  LYS621  CYS622 
 ASP623  PHE694  ASN695  SER759  ASP760  ASP761  ALA762  ILE779  LEU786  VAL792 
 PHE793  MET794  SER795  GLU796  ALA797  LYS798  CYS799  TRP800  GLU811  SER814 

> <Gold.Protein.RotatedAtoms>
  151.3409  135.0863  159.9370 H   0  0  0  0  0  0  0  0  0  0  0  0  # atno 6907 bound_to 6896
  152.5211  133.9448  159.7654 H   0  0  0  0  0  0  0  0  0  0  0  0  # atno 6908 bound_to 6896
  150.9805  133.6197  159.2753 H   0  0  0  0  0  0  0  0  0  0  0  0  # atno 6909 bound_to 6896
  144.7197  140.2320  143.6303 H   0  0  0  0  0  0  0  0  0  0  0  0  # atno 7974 bound_to 7965
  156.2500  140.1950  156.6738 H   0  0  0  0  0  0  0  0  0  0  0  0  # atno 8008 bound_to 7997
  154.6373  140.0588  156.9830 H   0  0  0  0  0  0  0  0  0  0  0  0  # atno 8009 bound_to 7997
  155.1617  140.3260  155.4413 H   0  0  0  0  0  0  0  0  0  0  0  0  # atno 8010 bound_to 7997
  140.7285  143.4557  151.0452 H   0  0  0  0  0  0  0  0  0  0  0  0  # atno 10167 bound_to 10162
  156.5318  130.4657  149.6543 H   0  0  0  0  0  0  0  0  0  0  0  0  # atno 10718 bound_to 10713
  152.9833  135.5674  154.5240 H   0  0  0  0  0  0  0  0  0  0  0  0  # atno 10763 bound_to 10752
  154.4723  135.2785  155.1635 H   0  0  0  0  0  0  0  0  0  0  0  0  # atno 10764 bound_to 10752
  154.3178  135.6275  153.5547 H   0  0  0  0  0  0  0  0  0  0  0  0  # atno 10765 bound_to 10752
  140.3024  134.7584  157.3926 H   0  0  0  0  0  0  0  0  0  0  0  0  # atno 11005 bound_to 11000
  145.8402  139.2126  143.1832 LP  0  0  0  0  0  0  0  0  0  0  0  0  # atno 17320 bound_to 7965
  146.0353  140.8218  142.9855 LP  0  0  0  0  0  0  0  0  0  0  0  0  # atno 17321 bound_to 7965
  139.8237  143.7785  152.3178 LP  0  0  0  0  0  0  0  0  0  0  0  0  # atno 17342 bound_to 10162
  139.7876  144.7422  151.0000 LP  0  0  0  0  0  0  0  0  0  0  0  0  # atno 17343 bound_to 10162
  156.3053  130.7199  151.2080 LP  0  0  0  0  0  0  0  0  0  0  0  0  # atno 17370 bound_to 10713
  157.7420  131.0495  150.5053 LP  0  0  0  0  0  0  0  0  0  0  0  0  # atno 17371 bound_to 10713
  140.1097  134.5362  155.8277 LP  0  0  0  0  0  0  0  0  0  0  0  0  # atno 17394 bound_to 11000
  141.2125  133.6720  156.6666 LP  0  0  0  0  0  0  0  0  0  0  0  0  # atno 17395 bound_to 11000

$$$$
