AV-unprocessed.smi:2934|AV-procd|sdf|11254|dock2
  -GOLD-   2272016143D 1   1.00000     0.00000
 Structure written by MMmdl.
 43 44  0  0  0  0  0  0  0  0  1 V2000
  152.5923  138.2564  154.7298 C   0  0  0  0  0  0  0  0  0  0  0  0
  151.1412  138.1187  154.5641 N   0  0  0  0  0  0  0  0  0  0  0  0
  150.5993  136.8734  154.6502 C   0  0  0  0  0  0  0  0  0  0  0  0
  151.2810  135.8479  154.7108 O   0  0  0  0  0  0  0  0  0  0  0  0
  149.2548  136.8355  154.7025 N   0  0  0  0  0  0  0  0  0  0  0  0
  148.4458  135.6297  154.8357 C   0  0  0  0  0  0  0  0  0  0  0  0
  146.9508  135.9248  154.6049 C   0  0  0  0  0  0  0  0  0  0  0  0
  146.2813  134.9284  153.6537 C   0  0  0  0  0  0  0  0  0  0  0  0
  145.3477  134.2229  154.0370 O   0  0  0  0  0  0  0  0  0  0  0  0
  146.7755  134.8806  152.4070 N   0  0  0  0  0  0  0  0  0  0  0  0
  146.3035  133.9935  151.3468 C   0  0  0  0  0  0  0  0  0  0  0  0
  144.8317  134.2794  150.9873 C   0  0  0  0  0  0  0  0  0  0  0  0
  144.0262  133.1149  151.5626 C   0  0  0  0  0  0  0  0  0  0  0  0
  144.9807  131.9282  151.4798 C   0  0  0  0  0  0  0  0  0  0  0  0
  146.3541  132.5215  151.8013 C   0  0  0  0  0  0  0  0  0  0  0  0
  150.3940  139.3065  154.2889 C   0  0  0  0  0  0  0  0  0  0  0  0
  150.9023  140.5252  154.8004 C   0  0  0  0  0  0  0  0  0  0  0  0
  150.2134  141.7257  154.5418 C   0  0  0  0  0  0  0  0  0  0  0  0
  149.0363  141.6798  153.7739 C   0  0  0  0  0  0  0  0  0  0  0  0
  148.6031  140.4290  153.2970 C   0  0  0  0  0  0  0  0  0  0  0  0
  149.2607  139.2762  153.5428 N   0  0  0  0  0  0  0  0  0  0  0  0
  152.9350  139.2711  154.5238 H   0  0  0  0  0  0  0  0  0  0  0  0
  153.1308  137.5977  154.0463 H   0  0  0  0  0  0  0  0  0  0  0  0
  152.8864  138.0063  155.7501 H   0  0  0  0  0  0  0  0  0  0  0  0
  148.7573  137.7125  154.6442 H   0  0  0  0  0  0  0  0  0  0  0  0
  148.8064  134.9099  154.0997 H   0  0  0  0  0  0  0  0  0  0  0  0
  148.6060  135.1790  155.8169 H   0  0  0  0  0  0  0  0  0  0  0  0
  146.4126  135.9141  155.5533 H   0  0  0  0  0  0  0  0  0  0  0  0
  146.8392  136.9291  154.1928 H   0  0  0  0  0  0  0  0  0  0  0  0
  147.5404  135.4982  152.1767 H   0  0  0  0  0  0  0  0  0  0  0  0
  146.9273  134.1212  150.4599 H   0  0  0  0  0  0  0  0  0  0  0  0
  144.4725  135.2436  151.3498 H   0  0  0  0  0  0  0  0  0  0  0  0
  144.7241  134.2876  149.9019 H   0  0  0  0  0  0  0  0  0  0  0  0
  143.7804  133.3171  152.6060 H   0  0  0  0  0  0  0  0  0  0  0  0
  143.0926  132.9432  151.0261 H   0  0  0  0  0  0  0  0  0  0  0  0
  144.7043  131.1181  152.1554 H   0  0  0  0  0  0  0  0  0  0  0  0
  144.9812  131.5294  150.4644 H   0  0  0  0  0  0  0  0  0  0  0  0
  147.1575  131.9686  151.3135 H   0  0  0  0  0  0  0  0  0  0  0  0
  146.5267  132.4545  152.8769 H   0  0  0  0  0  0  0  0  0  0  0  0
  151.8069  140.5433  155.3908 H   0  0  0  0  0  0  0  0  0  0  0  0
  150.5825  142.6650  154.9263 H   0  0  0  0  0  0  0  0  0  0  0  0
  148.4808  142.5796  153.5545 H   0  0  0  0  0  0  0  0  0  0  0  0
  147.7051  140.3510  152.7022 H   0  0  0  0  0  0  0  0  0  0  0  0
  1  2  1  0  0  0  0
  1 22  1  0  0  0  0
  1 23  1  0  0  0  0
  1 24  1  0  0  0  0
  2  3  1  0  0  0  0
  2 16  1  0  0  0  0
  3  4  2  0  0  0  0
  3  5  1  0  0  0  0
  5  6  1  0  0  0  0
  5 25  1  0  0  0  0
  6  7  1  0  0  0  0
  6 26  1  0  0  0  0
  6 27  1  0  0  0  0
  7  8  1  0  0  0  0
  7 28  1  0  0  0  0
  7 29  1  0  0  0  0
  8  9  2  0  0  0  0
  8 10  1  0  0  0  0
 10 11  1  0  0  0  0
 10 30  1  0  0  0  0
 11 15  1  0  0  0  0
 11 12  1  0  0  0  0
 11 31  1  0  0  0  0
 12 13  1  0  0  0  0
 12 32  1  0  0  0  0
 12 33  1  0  0  0  0
 13 14  1  0  0  0  0
 13 34  1  0  0  0  0
 13 35  1  0  0  0  0
 14 15  1  0  0  0  0
 14 36  1  0  0  0  0
 14 37  1  0  0  0  0
 15 38  1  0  0  0  0
 15 39  1  0  0  0  0
 16 21  1  0  0  0  0
 16 17  2  0  0  0  0
 17 18  1  0  0  0  0
 17 40  1  0  0  0  0
 18 19  2  0  0  0  0
 18 41  1  0  0  0  0
 19 20  1  0  0  0  0
 19 42  1  0  0  0  0
 20 21  2  0  0  0  0
 20 43  1  0  0  0  0
M  END
> <s_m_source_file>
AV-unprocessed.smi

> <i_m_source_file_index>
2934

> <i_lp_mmshare_version>
43012

> <i_f3d_flags>
0

> <s_epik_input>
bjFbY0hdW2NIXVtjSF1bY0hdYzFOKFtDSDNdKUMoPU8pW05IXVtDSDJdW0NIMl1DKD1PKVtOSF1bQ0hdMltDSDJdW0NIMl1bQ0gyXVtDSDJdMg==

> <s_epik_cmdline>
J2VwaWtfcHl0aG9uJywgJy1waCcsICc3LjAnLCAnLXRuJywgJzgnLCAnLW1hJywgJzIwMCcsICctbWV0YWxfYmluZGluZycsICctaW1hZScsICc8aW5maWxlLm1hZT4nLCAnLW9tYWUnLCAnPG91dGZpbGUubWFlPic=

> <r_epik_Ionization_Penalty>
0.404648

> <r_epik_Ionization_Penalty_Charging>
0

> <r_epik_Ionization_Penalty_Neutral>
0.404648

> <r_epik_State_Penalty>
0.40421

> <r_epik_Charging_Adjusted_Penalty>
0.40421

> <i_epik_Tot_Q>
0

> <i_epik_Tot_abs_Q>
0

> <r_epik_Metal_State_Penalty>
0.238116

> <b_epik_Metal_Only>
0

> <s_lp_Force_Field>
OPLS_2005

> <r_lp_Energy>
32.7735

> <b_lp_Chiralities_Consistent>
1

> <s_lp_Variant>
AV-unprocessed.smi:2934-1

> <Gold.Version>
5.8.1

> <Gold.Id.Protein>
6NUR|6NUR_protein|mol2

> <Gold.PLP.Fitness>
39.9304

> <Gold.PLP.PLP>
-35.3299

> <Gold.PLP.part.hbond>
-2.8546

> <Gold.PLP.part.metal>
0.0000

> <Gold.PLP.part.buried>
-1.9362

> <Gold.PLP.part.nonpolar>
-31.4589

> <Gold.PLP.part.repulsive>
0.7567

> <Gold.PLP.ligand.clash>
0.0000

> <Gold.PLP.ligand.torsion>
0.8083

> <Gold.PLP.Chemscore.Hbond>
2.0000

> <Gold.PLP.Chemscore.CHOScore>
0.0000

> <Gold.PLP.Chemscore.Metal>
0.0000

> <Gold.Chemscore.Hbonds>
donor molecule, donor type, donor heavy atom, donor atom, acceptor molecule, acceptor atom, score
      L1  H    10    30       P1  7948  1.00
      P1  H 10752 10763       L1     4  1.00

> <Gold.PLP.Chemscore.Internal.Correction>
0.2171

> <Gold.Rescore>
     Score         DG    S(hbond)    S(metal)    S(lipo)     H(rot)  DE(clash)    DE(int)     intcor
     11.22     -16.00       1.98        0.00      71.13       1.72       0.02       4.76       ----

> <Gold.Chemscore.Fitness>
11.2222

> <Gold.Chemscore.DG>
-15.9999

> <Gold.Chemscore.ZeroCoef>
-5.4800

> <Gold.Chemscore.Hbond>
1.9777

> <Gold.Chemscore.Metal>
0.0000

> <Gold.Chemscore.Lipo>
71.1341

> <Gold.Chemscore.Internal_Hbond>
0.0000

> <Gold.Chemscore.DEClash>
0.0156

> <Gold.Chemscore.DEInternal>
4.7621

> <Gold.Chemscore.Rot>
1.7220

> <Gold.Chemscore.Internal.Correction>
   9.000000E+99

> <Gold.Chemscore.Hbonds>
donor molecule, donor type, donor heavy atom, donor atom, acceptor molecule, acceptor atom, score
      L1  H    10    30       P1  7948  0.98
      P1  H 10752 10763       L1     4  1.00

> <Gold.Chemscore.Hbond.Weighted>
-6.6054

> <Gold.Chemscore.Metal.Weighted>
-0.0000

> <Gold.Chemscore.Lipo.Weighted>
-8.3227

> <Gold.Chemscore.Internal_Hbond.Weighted>
0.0000

> <Gold.Chemscore.DEClash.Weighted>
0.0156

> <Gold.Chemscore.DEInternal.Weighted>
4.7621

> <Gold.Chemscore.Rot.Weighted>
4.4083

> <Gold.Chemscore.Internal.Correction.Weighted>
   9.000000E+99

> <Gold.Protein.RotatedTorsions>
[ 6907 6896 6895 6894 ] final  -84.32 input  -60.11 | X-H torsion
[ 7974 7965 7964 7962 ] final  -53.19 input  175.53 | X-H torsion
[ 8008 7997 7996 7995 ] final   29.09 input   59.86 | X-H torsion
[ 10167 10162 10161 10158 ] final   44.08 input  -65.29 | X-H torsion
[ 10718 10713 10712 10709 ] final  114.22 input   66.30 | X-H torsion
[ 10763 10752 10751 10750 ] final   51.90 input  -60.55 | X-H torsion
[ 11005 11000 10999 10996 ] final -113.00 input  -57.11 | X-H torsion

> <Gold.Protein.ActiveResidues>
 VAL166  LYS551  ARG553  GLY616  TRP617  ASP618  TYR619  PRO620  LYS621  CYS622 
 ASP623  PHE694  ASN695  SER759  ASP760  ASP761  ALA762  ILE779  LEU786  VAL792 
 PHE793  MET794  SER795  GLU796  ALA797  LYS798  CYS799  TRP800  GLU811  SER814 

> <Gold.Protein.RotatedAtoms>
  150.6877  134.3376  159.4853 H   0  0  0  0  0  0  0  0  0  0  0  0  # atno 6907 bound_to 6896
  152.1233  134.9186  160.0571 H   0  0  0  0  0  0  0  0  0  0  0  0  # atno 6908 bound_to 6896
  152.0384  133.3932  159.4363 H   0  0  0  0  0  0  0  0  0  0  0  0  # atno 6909 bound_to 6896
  145.8996  140.8005  142.9750 H   0  0  0  0  0  0  0  0  0  0  0  0  # atno 7974 bound_to 7965
  155.0690  140.3198  155.4636 H   0  0  0  0  0  0  0  0  0  0  0  0  # atno 8008 bound_to 7997
  156.2795  140.2115  156.5763 H   0  0  0  0  0  0  0  0  0  0  0  0  # atno 8009 bound_to 7997
  154.7070  140.0501  157.0501 H   0  0  0  0  0  0  0  0  0  0  0  0  # atno 8010 bound_to 7997
  140.3379  144.2507  150.6159 H   0  0  0  0  0  0  0  0  0  0  0  0  # atno 10167 bound_to 10162
  157.6293  131.0995  150.7155 H   0  0  0  0  0  0  0  0  0  0  0  0  # atno 10718 bound_to 10713
  152.9786  135.5830  154.4491 H   0  0  0  0  0  0  0  0  0  0  0  0  # atno 10763 bound_to 10752
  154.4083  135.2769  155.2055 H   0  0  0  0  0  0  0  0  0  0  0  0  # atno 10764 bound_to 10752
  154.3856  135.6137  153.5869 H   0  0  0  0  0  0  0  0  0  0  0  0  # atno 10765 bound_to 10752
  141.0641  133.9487  157.2612 H   0  0  0  0  0  0  0  0  0  0  0  0  # atno 11005 bound_to 11000
  144.6735  140.1656  143.7419 LP  0  0  0  0  0  0  0  0  0  0  0  0  # atno 17320 bound_to 7965
  145.8808  139.2322  143.1606 LP  0  0  0  0  0  0  0  0  0  0  0  0  # atno 17321 bound_to 7965
  140.5336  143.2238  151.8199 LP  0  0  0  0  0  0  0  0  0  0  0  0  # atno 17342 bound_to 10162
  139.4845  144.4689  151.9449 LP  0  0  0  0  0  0  0  0  0  0  0  0  # atno 17343 bound_to 10162
  156.7497  130.4765  149.5459 LP  0  0  0  0  0  0  0  0  0  0  0  0  # atno 17370 bound_to 10713
  156.1486  130.6294  151.0565 LP  0  0  0  0  0  0  0  0  0  0  0  0  # atno 17371 bound_to 10713
  139.9460  135.0184  156.8852 LP  0  0  0  0  0  0  0  0  0  0  0  0  # atno 17394 bound_to 11000
  140.5809  134.0353  155.7464 LP  0  0  0  0  0  0  0  0  0  0  0  0  # atno 17395 bound_to 11000

$$$$
