AV-unprocessed.smi:1801|AV-procd|sdf|7268|dock2
  -GOLD-   22720 8523D 1   1.00000     0.00000
 Structure written by MMmdl.
 38 39  0  0  0  0  0  0  0  0  2 V2000
  147.6510  133.1226  152.6596 C   0  0  0  0  0  0  0  0  0  0  0  0
  148.9081  132.4374  153.2230 C   0  0  1  0  0  0  0  0  0  0  0  0
  149.5204  133.2505  154.3878 C   0  0  0  0  0  0  0  0  0  0  0  0
  149.6675  134.6654  154.0621 N   0  0  0  0  0  0  0  0  0  0  0  0
  150.4311  135.5294  154.7464 C   0  0  0  0  0  0  0  0  0  0  0  0
  151.0904  135.2097  155.7362 O   0  0  0  0  0  0  0  0  0  0  0  0
  150.3779  136.7591  154.2099 N   0  0  0  0  0  0  0  0  0  0  0  0
  151.0559  137.9274  154.6395 C   0  0  0  0  0  0  0  0  0  0  0  0
  150.5173  139.1140  154.3350 N   0  0  0  0  0  0  0  0  0  0  0  0
  151.2821  140.1710  154.8132 N   0  0  0  0  0  0  0  0  0  0  0  0
  152.3690  139.7395  155.4601 C   0  0  0  0  0  0  0  0  0  0  0  0
  152.5678  137.9983  155.5499 S   0  0  0  0  0  0  0  0  0  0  0  0
  148.5841  130.9894  153.6487 C   0  0  0  0  0  0  0  0  0  0  0  0
  148.0252  130.1787  152.5395 N   0  3  0  0  0  0  0  0  0  0  0  0
  148.3373  128.7387  152.6235 C   0  0  0  0  0  0  0  0  0  0  0  0
  147.2874  128.0627  151.7484 C   0  0  0  0  0  0  0  0  0  0  0  0
  146.0363  128.8974  152.0083 C   0  0  0  0  0  0  0  0  0  0  0  0
  146.5622  130.3033  152.3305 C   0  0  0  0  0  0  0  0  0  0  0  0
  146.8720  133.2068  153.4181 H   0  0  0  0  0  0  0  0  0  0  0  0
  147.2392  132.5590  151.8221 H   0  0  0  0  0  0  0  0  0  0  0  0
  147.8697  134.1263  152.2944 H   0  0  0  0  0  0  0  0  0  0  0  0
  149.6336  132.3953  152.4100 H   0  0  0  0  0  0  0  0  0  0  0  0
  148.8911  133.1666  155.2743 H   0  0  0  0  0  0  0  0  0  0  0  0
  150.4961  132.8531  154.6716 H   0  0  0  0  0  0  0  0  0  0  0  0
  149.1558  135.0074  153.2613 H   0  0  0  0  0  0  0  0  0  0  0  0
  149.7898  136.8742  153.3975 H   0  0  0  0  0  0  0  0  0  0  0  0
  153.0593  140.4521  155.8867 H   0  0  0  0  0  0  0  0  0  0  0  0
  149.4934  130.5100  154.0144 H   0  0  0  0  0  0  0  0  0  0  0  0
  147.8767  130.9855  154.4795 H   0  0  0  0  0  0  0  0  0  0  0  0
  149.3562  128.5267  152.2980 H   0  0  0  0  0  0  0  0  0  0  0  0
  148.2315  128.3969  153.6547 H   0  0  0  0  0  0  0  0  0  0  0  0
  147.5743  128.1395  150.6986 H   0  0  0  0  0  0  0  0  0  0  0  0
  147.1516  127.0071  151.9856 H   0  0  0  0  0  0  0  0  0  0  0  0
  145.3470  128.8899  151.1635 H   0  0  0  0  0  0  0  0  0  0  0  0
  145.5037  128.4990  152.8731 H   0  0  0  0  0  0  0  0  0  0  0  0
  146.0573  130.7003  153.2124 H   0  0  0  0  0  0  0  0  0  0  0  0
  146.3804  130.9939  151.5062 H   0  0  0  0  0  0  0  0  0  0  0  0
  148.4574  130.5030  151.6860 H   0  0  0  0  0  0  0  0  0  0  0  0
  1  2  1  0  0  0  0
  1 19  1  0  0  0  0
  1 20  1  0  0  0  0
  1 21  1  0  0  0  0
  2  3  1  0  0  0  0
  2 13  1  0  0  0  0
  2 22  1  0  0  0  0
  3  4  1  0  0  0  0
  3 23  1  0  0  0  0
  3 24  1  0  0  0  0
  4  5  1  0  0  0  0
  4 25  1  0  0  0  0
  5  6  2  0  0  0  0
  5  7  1  0  0  0  0
  7  8  1  0  0  0  0
  7 26  1  0  0  0  0
  8 12  1  0  0  0  0
  8  9  2  0  0  0  0
  9 10  1  0  0  0  0
 10 11  2  0  0  0  0
 11 12  1  0  0  0  0
 11 27  1  0  0  0  0
 13 14  1  0  0  0  0
 13 28  1  0  0  0  0
 13 29  1  0  0  0  0
 14 18  1  0  0  0  0
 14 15  1  0  0  0  0
 14 38  1  0  0  0  0
 15 16  1  0  0  0  0
 15 30  1  0  0  0  0
 15 31  1  0  0  0  0
 16 17  1  0  0  0  0
 16 32  1  0  0  0  0
 16 33  1  0  0  0  0
 17 18  1  0  0  0  0
 17 34  1  0  0  0  0
 17 35  1  0  0  0  0
 18 36  1  0  0  0  0
 18 37  1  0  0  0  0
M  CHG  1  14   1
M  END
> <s_m_source_file>
AV-unprocessed.smi

> <i_m_source_file_index>
1801

> <i_lp_mmshare_version>
43012

> <i_f3d_flags>
0

> <s_epik_input>
W0NIMl0xW0NIMl1bQ0gyXVtDSDJdTjFbQ0gyXVtDQEhdKFtDSDNdKVtDSDJdW05IXUMoPU8pW05IXWMybm5bY0hdczI=

> <s_epik_cmdline>
J2VwaWtfcHl0aG9uJywgJy1waCcsICc3LjAnLCAnLXRuJywgJzgnLCAnLW1hJywgJzIwMCcsICctbWV0YWxfYmluZGluZycsICctaW1hZScsICc8aW5maWxlLm1hZT4nLCAnLW9tYWUnLCAnPG91dGZpbGUubWFlPic=

> <r_lp_tautomer_probability>
1

> <r_epik_Ionization_Penalty>
0.00281598

> <r_epik_Ionization_Penalty_Charging>
0.000371708

> <r_epik_Ionization_Penalty_Neutral>
0.00244427

> <r_epik_State_Penalty>
-0

> <r_epik_Charging_Adjusted_Penalty>
0.000371708

> <i_epik_Tot_Q>
1

> <i_epik_Tot_abs_Q>
1

> <r_epik_Metal_State_Penalty>
0.350595

> <b_epik_Metal_Only>
0

> <s_lp_Force_Field>
OPLS_2005

> <r_lp_Energy>
27.8609

> <b_lp_Chiralities_Consistent>
1

> <s_lp_Variant>
AV-unprocessed.smi:1801-2

> <Gold.Version>
5.8.1

> <Gold.Id.Protein>
6NUR|6NUR_protein|mol2

> <Gold.PLP.Fitness>
47.2079

> <Gold.PLP.PLP>
-36.3718

> <Gold.PLP.part.hbond>
-5.0944

> <Gold.PLP.part.metal>
0.0000

> <Gold.PLP.part.buried>
-2.8368

> <Gold.PLP.part.nonpolar>
-28.3646

> <Gold.PLP.part.repulsive>
0.3868

> <Gold.PLP.ligand.clash>
0.0000

> <Gold.PLP.ligand.torsion>
0.6126

> <Gold.PLP.Chemscore.Hbond>
3.9760

> <Gold.PLP.Chemscore.CHOScore>
0.0000

> <Gold.PLP.Chemscore.Metal>
0.0000

> <Gold.Chemscore.Hbonds>
donor molecule, donor type, donor heavy atom, donor atom, acceptor molecule, acceptor atom, score
      L1  H     4    25       P1  7948  0.79
      L1  H     7    26       P1  7948  1.00
      L1  H    14    38       P1 10747  0.98
      P1  H  7989  7998       L1    10  0.99
      P1  H 10752 10765       L1     6  0.01

> <Gold.PLP.Chemscore.Internal.Correction>
0.1332

> <Gold.Rescore>
     Score         DG    S(hbond)    S(metal)    S(lipo)     H(rot)  DE(clash)    DE(int)     intcor
     16.02     -16.76       2.39        0.00      71.20       1.97       0.01       0.72       ----

> <Gold.Chemscore.Fitness>
16.0202

> <Gold.Chemscore.DG>
-16.7559

> <Gold.Chemscore.ZeroCoef>
-5.4800

> <Gold.Chemscore.Hbond>
2.3893

> <Gold.Chemscore.Metal>
0.0000

> <Gold.Chemscore.Lipo>
71.2000

> <Gold.Chemscore.Internal_Hbond>
0.0000

> <Gold.Chemscore.DEClash>
0.0135

> <Gold.Chemscore.DEInternal>
0.7222

> <Gold.Chemscore.Rot>
1.9667

> <Gold.Chemscore.Internal.Correction>
   9.000000E+99

> <Gold.Chemscore.Hbonds>
donor molecule, donor type, donor heavy atom, donor atom, acceptor molecule, acceptor atom, score
      L1  H     4    25       P1  7948  0.11
      L1  H     7    26       P1  7948  0.43
      L1  H    14    38       P1 10747  0.85
      P1  H  7989  7998       L1    10  0.23

> <Gold.Chemscore.Hbond.Weighted>
-7.9804

> <Gold.Chemscore.Metal.Weighted>
-0.0000

> <Gold.Chemscore.Lipo.Weighted>
-8.3304

> <Gold.Chemscore.Internal_Hbond.Weighted>
0.0000

> <Gold.Chemscore.DEClash.Weighted>
0.0135

> <Gold.Chemscore.DEInternal.Weighted>
0.7222

> <Gold.Chemscore.Rot.Weighted>
5.0348

> <Gold.Chemscore.Internal.Correction.Weighted>
   9.000000E+99

> <Gold.Protein.RotatedTorsions>
[ 6907 6896 6895 6894 ] final  -69.36 input  -60.11 | X-H torsion
[ 7974 7965 7964 7962 ] final  -78.66 input  175.53 | X-H torsion
[ 8008 7997 7996 7995 ] final  133.40 input   59.86 | X-H torsion
[ 10167 10162 10161 10158 ] final  -48.10 input  -65.29 | X-H torsion
[ 10718 10713 10712 10709 ] final  -36.71 input   66.30 | X-H torsion
[ 10763 10752 10751 10750 ] final  160.55 input  -60.55 | X-H torsion
[ 11005 11000 10999 10996 ] final   17.56 input  -57.11 | X-H torsion

> <Gold.Protein.ActiveResidues>
 VAL166  LYS551  ARG553  GLY616  TRP617  ASP618  TYR619  PRO620  LYS621  CYS622 
 ASP623  PHE694  ASN695  SER759  ASP760  ASP761  ALA762  ILE779  LEU786  VAL792 
 PHE793  MET794  SER795  GLU796  ALA797  LYS798  CYS799  TRP800  GLU811  SER814 

> <Gold.Protein.RotatedAtoms>
  150.7309  134.5608  159.5840 H   0  0  0  0  0  0  0  0  0  0  0  0  # atno 6907 bound_to 6896
  152.3072  134.7538  160.0354 H   0  0  0  0  0  0  0  0  0  0  0  0  # atno 6908 bound_to 6896
  151.8099  133.3345  159.3589 H   0  0  0  0  0  0  0  0  0  0  0  0  # atno 6909 bound_to 6896
  145.5836  140.9443  143.1331 H   0  0  0  0  0  0  0  0  0  0  0  0  # atno 7974 bound_to 7965
  156.2992  140.2522  156.3247 H   0  0  0  0  0  0  0  0  0  0  0  0  # atno 8008 bound_to 7997
  154.9201  140.0401  157.2012 H   0  0  0  0  0  0  0  0  0  0  0  0  # atno 8009 bound_to 7997
  154.8319  140.2877  155.5721 H   0  0  0  0  0  0  0  0  0  0  0  0  # atno 8010 bound_to 7997
  140.6746  143.2755  151.4021 H   0  0  0  0  0  0  0  0  0  0  0  0  # atno 10167 bound_to 10162
  156.3236  130.4269  149.7937 H   0  0  0  0  0  0  0  0  0  0  0  0  # atno 10718 bound_to 10713
  154.2492  135.2772  155.2823 H   0  0  0  0  0  0  0  0  0  0  0  0  # atno 10763 bound_to 10752
  154.5480  135.5683  153.6900 H   0  0  0  0  0  0  0  0  0  0  0  0  # atno 10764 bound_to 10752
  152.9984  135.6267  154.2638 H   0  0  0  0  0  0  0  0  0  0  0  0  # atno 10765 bound_to 10752
  140.4346  134.1384  155.7684 H   0  0  0  0  0  0  0  0  0  0  0  0  # atno 11005 bound_to 11000
  144.7383  139.7522  143.7321 LP  0  0  0  0  0  0  0  0  0  0  0  0  # atno 17320 bound_to 7965
  146.1698  139.4845  142.9934 LP  0  0  0  0  0  0  0  0  0  0  0  0  # atno 17321 bound_to 7965
  139.6032  144.1253  152.2220 LP  0  0  0  0  0  0  0  0  0  0  0  0  # atno 17342 bound_to 10162
  140.0643  144.5831  150.7239 LP  0  0  0  0  0  0  0  0  0  0  0  0  # atno 17343 bound_to 10162
  156.5236  130.8226  151.3212 LP  0  0  0  0  0  0  0  0  0  0  0  0  # atno 17370 bound_to 10713
  157.7417  130.9875  150.2462 LP  0  0  0  0  0  0  0  0  0  0  0  0  # atno 17371 bound_to 10713
  141.1731  133.8568  157.1507 LP  0  0  0  0  0  0  0  0  0  0  0  0  # atno 17394 bound_to 11000
  140.0111  134.9988  157.0396 LP  0  0  0  0  0  0  0  0  0  0  0  0  # atno 17395 bound_to 11000

$$$$
