AV-unprocessed.smi:160|AV-procd|sdf|1345|dock5
  -GOLD-   2262019 43D 1   1.00000     0.00000
 Structure written by MMmdl.
 29 30  0  0  0  0  0  0  0  0  1 V2000
  152.6252  140.8180  159.4923 N   0  0  0  0  0  0  0  0  0  0  0  0
  152.5200  140.1666  158.3294 C   0  0  0  0  0  0  0  0  0  0  0  0
  153.2037  139.1795  158.0635 O   0  0  0  0  0  0  0  0  0  0  0  0
  151.5139  140.7097  157.3527 C   0  0  0  0  0  0  0  0  0  0  0  0
  150.8554  141.8814  157.5959 N   0  0  0  0  0  0  0  0  0  0  0  0
  150.1066  141.9303  156.5018 C   0  0  0  0  0  0  0  0  0  0  0  0
  150.2927  140.9064  155.6624 N   0  0  0  0  0  0  0  0  0  0  0  0
  149.6136  140.6044  154.3616 C   0  0  2  0  0  0  0  0  0  0  0  0
  148.6706  141.6086  154.1316 O   0  0  0  0  0  0  0  0  0  0  0  0
  147.3710  141.1431  154.4831 C   0  0  1  0  0  0  0  0  0  0  0  0
  146.2733  141.9981  153.8255 C   0  0  0  0  0  0  0  0  0  0  0  0
  145.0442  141.8064  154.4935 O   0  0  0  0  0  0  0  0  0  0  0  0
  147.4261  139.6750  154.0410 C   0  0  1  0  0  0  0  0  0  0  0  0
  147.1801  139.5680  152.6475 O   0  0  0  0  0  0  0  0  0  0  0  0
  148.8505  139.2661  154.4195 C   0  0  1  0  0  0  0  0  0  0  0  0
  149.3791  138.2816  153.5498 O   0  0  0  0  0  0  0  0  0  0  0  0
  151.2172  140.0800  156.2144 N   0  0  0  0  0  0  0  0  0  0  0  0
  150.4062  140.6407  153.6130 H   0  0  0  0  0  0  0  0  0  0  0  0
  147.2564  141.1693  155.5680 H   0  0  0  0  0  0  0  0  0  0  0  0
  146.6846  139.0684  154.5621 H   0  0  0  0  0  0  0  0  0  0  0  0
  148.8605  138.8728  155.4366 H   0  0  0  0  0  0  0  0  0  0  0  0
  153.2869  140.5046  160.1870 H   0  0  0  0  0  0  0  0  0  0  0  0
  152.0431  141.6247  159.6651 H   0  0  0  0  0  0  0  0  0  0  0  0
  149.4062  142.7297  156.3084 H   0  0  0  0  0  0  0  0  0  0  0  0
  146.5394  143.0555  153.8210 H   0  0  0  0  0  0  0  0  0  0  0  0
  146.1308  141.6925  152.7887 H   0  0  0  0  0  0  0  0  0  0  0  0
  144.5281  141.1871  154.0005 H   0  0  0  0  0  0  0  0  0  0  0  0
  147.9579  139.8453  152.1871 H   0  0  0  0  0  0  0  0  0  0  0  0
  149.5011  138.6687  152.6963 H   0  0  0  0  0  0  0  0  0  0  0  0
  1  2  1  0  0  0  0
  1 22  1  0  0  0  0
  1 23  1  0  0  0  0
  2  3  2  0  0  0  0
  2  4  1  0  0  0  0
  4 17  2  0  0  0  0
  4  5  1  0  0  0  0
  5  6  2  0  0  0  0
  6  7  1  0  0  0  0
  6 24  1  0  0  0  0
  7  8  1  0  0  0  0
  7 17  1  0  0  0  0
  8 18  1  0  0  0  0
  8 15  1  0  0  0  0
  8  9  1  0  0  0  0
  9 10  1  0  0  0  0
 10 19  1  0  0  0  0
 10 11  1  0  0  0  0
 10 13  1  0  0  0  0
 11 12  1  0  0  0  0
 11 25  1  0  0  0  0
 11 26  1  0  0  0  0
 12 27  1  0  0  0  0
 13 20  1  0  0  0  0
 13 14  1  0  0  0  0
 13 15  1  0  0  0  0
 14 28  1  0  0  0  0
 15 21  1  0  0  0  0
 15 16  1  0  0  0  0
 16 29  1  0  0  0  0
M  END
> <s_m_source_file>
AV-unprocessed.smi

> <i_m_source_file_index>
160

> <i_lp_mmshare_version>
43012

> <i_f3d_flags>
0

> <s_epik_input>
W05IMl1DKD1PKWMxbltjSF1uKG4xKVtDQEBIXTJPW0NASF0oW0NIMl1bT0hdKVtDQEBIXShbT0hdKVtDQEhdMltPSF0=

> <s_epik_cmdline>
J2VwaWtfcHl0aG9uJywgJy1waCcsICc3LjAnLCAnLXRuJywgJzgnLCAnLW1hJywgJzIwMCcsICctbWV0YWxfYmluZGluZycsICctaW1hZScsICc8aW5maWxlLm1hZT4nLCAnLW9tYWUnLCAnPG91dGZpbGUubWFlPic=

> <r_lp_tautomer_probability>
1

> <r_epik_Ionization_Penalty>
1.06932e-05

> <r_epik_Ionization_Penalty_Charging>
0

> <r_epik_Ionization_Penalty_Neutral>
1.06932e-05

> <r_epik_State_Penalty>
-0

> <r_epik_Charging_Adjusted_Penalty>
0

> <i_epik_Tot_Q>
0

> <i_epik_Tot_abs_Q>
0

> <r_epik_Metal_State_Penalty>
0.0142097

> <b_epik_Metal_Only>
0

> <s_epik_Chemistry_Notes>
This compound contains an acetal/aminal-like group ( X-CH(R)-Y where X, Y are N, S, or O) that may be acid/base labile, releasing an aldehyde.

> <s_lp_Force_Field>
OPLS_2005

> <r_lp_Energy>
41.9483

> <b_lp_Chiralities_Consistent>
1

> <s_lp_Variant>
AV-unprocessed.smi:160-3

> <Gold.Version>
5.8.1

> <Gold.Id.Protein>
6NUR|6NUR_protein|mol2

> <Gold.PLP.Fitness>
43.9949

> <Gold.PLP.PLP>
-28.0162

> <Gold.PLP.part.hbond>
-5.9956

> <Gold.PLP.part.metal>
0.0000

> <Gold.PLP.part.buried>
-2.9745

> <Gold.PLP.part.nonpolar>
-18.8866

> <Gold.PLP.part.repulsive>
0.3568

> <Gold.PLP.ligand.clash>
0.0000

> <Gold.PLP.ligand.torsion>
0.2239

> <Gold.PLP.Chemscore.Hbond>
4.4686

> <Gold.PLP.Chemscore.CHOScore>
1.0000

> <Gold.PLP.Chemscore.Metal>
0.0000

> <Gold.Chemscore.Hbonds>
donor molecule, donor type, donor heavy atom, donor atom, acceptor molecule, acceptor atom, score
      L1  H    12    27       P1 10175  1.00
      L1  H    14    28       P1  7957  1.00
      L1  H    16    29       P1  7957  0.96
      P1  H  7997  8010       L1     3  0.80
      P1  H  8011  8017       L1     9  0.16
      L1  C     6    24       P1  8028  1.00

> <Gold.PLP.Chemscore.Internal.Correction>
0.0207

> <Gold.Rescore>
     Score         DG    S(hbond)    S(metal)    S(lipo)     H(rot)  DE(clash)    DE(int)     intcor
      9.07      -9.31       3.55        0.00      20.40       4.06       0.01       0.24       ----

> <Gold.Chemscore.Fitness>
9.0721

> <Gold.Chemscore.DG>
-9.3142

> <Gold.Chemscore.ZeroCoef>
-5.4800

> <Gold.Chemscore.Hbond>
3.5452

> <Gold.Chemscore.Metal>
0.0000

> <Gold.Chemscore.Lipo>
20.4010

> <Gold.Chemscore.Internal_Hbond>
0.0000

> <Gold.Chemscore.DEClash>
0.0060

> <Gold.Chemscore.DEInternal>
0.2360

> <Gold.Chemscore.Rot>
4.0600

> <Gold.Chemscore.Internal.Correction>
   9.000000E+99

> <Gold.Chemscore.Hbonds>
donor molecule, donor type, donor heavy atom, donor atom, acceptor molecule, acceptor atom, score
      L1  H    12    27       P1 10175  0.64
      L1  H    14    28       P1  7957  0.99
      L1  H    16    29       P1  7957  0.71
      P1  H  7997  8010       L1     3  0.30
      P1  H  8011  8017       L1     9  0.01

> <Gold.Chemscore.Hbond.Weighted>
-11.8409

> <Gold.Chemscore.Metal.Weighted>
-0.0000

> <Gold.Chemscore.Lipo.Weighted>
-2.3869

> <Gold.Chemscore.Internal_Hbond.Weighted>
0.0000

> <Gold.Chemscore.DEClash.Weighted>
0.0060

> <Gold.Chemscore.DEInternal.Weighted>
0.2360

> <Gold.Chemscore.Rot.Weighted>
10.3936

> <Gold.Chemscore.Internal.Correction.Weighted>
   9.000000E+99

> <Gold.Protein.RotatedTorsions>
[ 6907 6896 6895 6894 ] final   14.16 input  -60.11 | X-H torsion
[ 7974 7965 7964 7962 ] final  156.86 input  175.53 | X-H torsion
[ 8008 7997 7996 7995 ] final   10.31 input   59.86 | X-H torsion
[ 10167 10162 10161 10158 ] final  -71.23 input  -65.29 | X-H torsion
[ 10718 10713 10712 10709 ] final  -40.16 input   66.30 | X-H torsion
[ 10763 10752 10751 10750 ] final  -69.04 input  -60.55 | X-H torsion
[ 11005 11000 10999 10996 ] final   98.03 input  -57.11 | X-H torsion

> <Gold.Protein.ActiveResidues>
 VAL166  LYS551  ARG553  GLY616  TRP617  ASP618  TYR619  PRO620  LYS621  CYS622 
 ASP623  PHE694  ASN695  SER759  ASP760  ASP761  ALA762  ILE779  LEU786  VAL792 
 PHE793  MET794  SER795  GLU796  ALA797  LYS798  CYS799  TRP800  GLU811  SER814 

> <Gold.Protein.RotatedAtoms>
  151.7977  135.0717  160.0395 H   0  0  0  0  0  0  0  0  0  0  0  0  # atno 6907 bound_to 6896
  152.3111  133.5749  159.5690 H   0  0  0  0  0  0  0  0  0  0  0  0  # atno 6908 bound_to 6896
  150.7320  134.0067  159.3698 H   0  0  0  0  0  0  0  0  0  0  0  0  # atno 6909 bound_to 6896
  144.7938  139.7261  143.6210 H   0  0  0  0  0  0  0  0  0  0  0  0  # atno 7974 bound_to 7965
  154.7917  140.2837  155.5986 H   0  0  0  0  0  0  0  0  0  0  0  0  # atno 8008 bound_to 7997
  156.2965  140.2603  156.2695 H   0  0  0  0  0  0  0  0  0  0  0  0  # atno 8009 bound_to 7997
  154.9662  140.0377  157.2203 H   0  0  0  0  0  0  0  0  0  0  0  0  # atno 8010 bound_to 7997
  140.5290  143.2323  151.7296 H   0  0  0  0  0  0  0  0  0  0  0  0  # atno 10167 bound_to 10162
  156.2844  130.4221  149.8303 H   0  0  0  0  0  0  0  0  0  0  0  0  # atno 10718 bound_to 10713
  154.3977  135.6038  153.5879 H   0  0  0  0  0  0  0  0  0  0  0  0  # atno 10763 bound_to 10752
  152.9788  135.5899  154.4222 H   0  0  0  0  0  0  0  0  0  0  0  0  # atno 10764 bound_to 10752
  154.4016  135.2843  155.2071 H   0  0  0  0  0  0  0  0  0  0  0  0  # atno 10765 bound_to 10752
  139.8773  134.9030  156.4396 H   0  0  0  0  0  0  0  0  0  0  0  0  # atno 11005 bound_to 11000
  146.2199  139.5617  142.9625 LP  0  0  0  0  0  0  0  0  0  0  0  0  # atno 17320 bound_to 7965
  145.5726  141.0392  143.2165 LP  0  0  0  0  0  0  0  0  0  0  0  0  # atno 17321 bound_to 7965
  139.4948  144.4143  152.0047 LP  0  0  0  0  0  0  0  0  0  0  0  0  # atno 17342 bound_to 10162
  140.3244  144.3390  150.6002 LP  0  0  0  0  0  0  0  0  0  0  0  0  # atno 17343 bound_to 10162
  156.5739  130.8436  151.3364 LP  0  0  0  0  0  0  0  0  0  0  0  0  # atno 17370 bound_to 10713
  157.7324  130.9715  150.1927 LP  0  0  0  0  0  0  0  0  0  0  0  0  # atno 17371 bound_to 10713
  140.9009  133.7780  155.9679 LP  0  0  0  0  0  0  0  0  0  0  0  0  # atno 17394 bound_to 11000
  140.8652  134.2793  157.5216 LP  0  0  0  0  0  0  0  0  0  0  0  0  # atno 17395 bound_to 11000

$$$$
