AV-unprocessed.smi:1053|AV-procd|sdf|4618|dock7
  -GOLD-   22720 3123D 1   1.00000     0.00000
 Structure written by MMmdl.
 38 39  0  0  0  0  0  0  0  0  2 V2000
  144.0342  132.6605  149.3775 C   0  0  0  0  0  0  0  0  0  0  0  0
  144.1315  133.9005  150.2775 C   0  0  0  0  0  0  0  0  0  0  0  0
  145.4881  134.5097  150.2621 N   0  3  2  0  0  0  0  0  0  0  0  0
  146.5256  133.6593  150.8947 C   0  0  0  0  0  0  0  0  0  0  0  0
  146.4523  133.7422  152.4296 C   0  0  0  0  0  0  0  0  0  0  0  0
  146.5757  135.0997  152.8343 O   0  0  0  0  0  0  0  0  0  0  0  0
  145.5190  135.9173  152.3400 C   0  0  1  0  0  0  0  0  0  0  0  0
  145.7197  137.3375  152.8855 C   0  0  0  0  0  0  0  0  0  0  0  0
  147.0963  137.7839  152.7336 N   0  0  0  0  0  0  0  0  0  0  0  0
  147.5667  139.0044  153.1785 C   0  0  0  0  0  0  0  0  0  0  0  0
  146.8611  140.0686  152.7902 N   0  0  0  0  0  0  0  0  0  0  0  0
  147.2940  141.2778  153.2090 C   0  0  0  0  0  0  0  0  0  0  0  0
  148.4381  141.4172  154.0195 C   0  0  0  0  0  0  0  0  0  0  0  0
  149.1073  140.2231  154.3693 C   0  0  0  0  0  0  0  0  0  0  0  0
  150.3552  140.2182  155.2392 C   0  0  0  0  0  0  0  0  0  0  0  0
  150.7756  141.4565  155.5004 F   0  0  0  0  0  0  0  0  0  0  0  0
  150.0944  139.6077  156.3951 F   0  0  0  0  0  0  0  0  0  0  0  0
  151.3342  139.5614  154.6169 F   0  0  0  0  0  0  0  0  0  0  0  0
  148.6640  139.0175  153.9430 N   0  0  0  0  0  0  0  0  0  0  0  0
  145.5582  135.8946  150.7959 C   0  0  0  0  0  0  0  0  0  0  0  0
  143.0617  132.1808  149.4905 H   0  0  0  0  0  0  0  0  0  0  0  0
  144.7960  131.9247  149.6367 H   0  0  0  0  0  0  0  0  0  0  0  0
  144.1491  132.9081  148.3227 H   0  0  0  0  0  0  0  0  0  0  0  0
  143.3708  134.6312  150.0032 H   0  0  0  0  0  0  0  0  0  0  0  0
  143.8975  133.5857  151.2952 H   0  0  0  0  0  0  0  0  0  0  0  0
  146.4396  132.6261  150.5564 H   0  0  0  0  0  0  0  0  0  0  0  0
  147.5044  134.0086  150.5630 H   0  0  0  0  0  0  0  0  0  0  0  0
  145.5220  133.3164  152.8081 H   0  0  0  0  0  0  0  0  0  0  0  0
  147.2661  133.1688  152.8738 H   0  0  0  0  0  0  0  0  0  0  0  0
  144.5600  135.5365  152.6951 H   0  0  0  0  0  0  0  0  0  0  0  0
  145.0496  138.0354  152.3819 H   0  0  0  0  0  0  0  0  0  0  0  0
  145.4694  137.3615  153.9468 H   0  0  0  0  0  0  0  0  0  0  0  0
  147.7419  137.1963  152.2261 H   0  0  0  0  0  0  0  0  0  0  0  0
  146.7240  142.1398  152.8952 H   0  0  0  0  0  0  0  0  0  0  0  0
  148.7766  142.3878  154.3501 H   0  0  0  0  0  0  0  0  0  0  0  0
  146.4949  136.3377  150.4544 H   0  0  0  0  0  0  0  0  0  0  0  0
  144.7648  136.5147  150.3805 H   0  0  0  0  0  0  0  0  0  0  0  0
  145.7380  134.5661  149.2848 H   0  0  0  0  0  0  0  0  0  0  0  0
  1  2  1  0  0  0  0
  1 21  1  0  0  0  0
  1 22  1  0  0  0  0
  1 23  1  0  0  0  0
  2  3  1  0  0  0  0
  2 24  1  0  0  0  0
  2 25  1  0  0  0  0
  3 20  1  0  0  0  0
  3  4  1  0  0  0  0
  3 38  1  0  0  0  0
  4  5  1  0  0  0  0
  4 26  1  0  0  0  0
  4 27  1  0  0  0  0
  5  6  1  0  0  0  0
  5 28  1  0  0  0  0
  5 29  1  0  0  0  0
  6  7  1  0  0  0  0
  7  8  1  0  0  0  0
  7 20  1  0  0  0  0
  7 30  1  0  0  0  0
  8  9  1  0  0  0  0
  8 31  1  0  0  0  0
  8 32  1  0  0  0  0
  9 10  1  0  0  0  0
  9 33  1  0  0  0  0
 10 19  1  0  0  0  0
 10 11  2  0  0  0  0
 11 12  1  0  0  0  0
 12 13  2  0  0  0  0
 12 34  1  0  0  0  0
 13 14  1  0  0  0  0
 13 35  1  0  0  0  0
 14 15  1  0  0  0  0
 14 19  2  0  0  0  0
 15 16  1  0  0  0  0
 15 17  1  0  0  0  0
 15 18  1  0  0  0  0
 20 36  1  0  0  0  0
 20 37  1  0  0  0  0
M  CHG  1   3   1
M  END
> <s_m_source_file>
AV-unprocessed.smi

> <i_m_source_file_index>
1053

> <i_lp_mmshare_version>
43012

> <i_f3d_flags>
0

> <s_epik_input>
W0NIM11bQ0gyXU4xW0NIMl1bQ0gyXU9bQ0BIXShbQ0gyXTEpW0NIMl1bTkhdYzJuW2NIXVtjSF1jKG4yKUMoRikoRilG

> <s_epik_cmdline>
J2VwaWtfcHl0aG9uJywgJy1waCcsICc3LjAnLCAnLXRuJywgJzgnLCAnLW1hJywgJzIwMCcsICctbWV0YWxfYmluZGluZycsICctaW1hZScsICc8aW5maWxlLm1hZT4nLCAnLW9tYWUnLCAnPG91dGZpbGUubWFlPic=

> <r_lp_tautomer_probability>
1

> <r_epik_Ionization_Penalty>
0.178506

> <r_epik_Ionization_Penalty_Charging>
0.178504

> <r_epik_Ionization_Penalty_Neutral>
2.47619e-06

> <r_epik_State_Penalty>
0.167974

> <r_epik_Charging_Adjusted_Penalty>
0.346478

> <i_epik_Tot_Q>
1

> <i_epik_Tot_abs_Q>
1

> <r_epik_Metal_State_Penalty>
0.167974

> <b_epik_Metal_Only>
0

> <s_lp_Force_Field>
OPLS_2005

> <r_lp_Energy>
12.5681

> <b_lp_Chiralities_Consistent>
1

> <s_lp_Variant>
AV-unprocessed.smi:1053-2

> <Gold.Version>
5.8.1

> <Gold.Id.Protein>
6NUR|6NUR_protein|mol2

> <Gold.PLP.Fitness>
40.4268

> <Gold.PLP.PLP>
-35.8395

> <Gold.PLP.part.hbond>
-2.0000

> <Gold.PLP.part.metal>
0.0000

> <Gold.PLP.part.buried>
-6.0524

> <Gold.PLP.part.nonpolar>
-30.1148

> <Gold.PLP.part.repulsive>
2.1179

> <Gold.PLP.ligand.clash>
0.0000

> <Gold.PLP.ligand.torsion>
0.7230

> <Gold.PLP.Chemscore.Hbond>
2.0000

> <Gold.PLP.Chemscore.CHOScore>
0.0000

> <Gold.PLP.Chemscore.Metal>
0.0000

> <Gold.Chemscore.Hbonds>
donor molecule, donor type, donor heavy atom, donor atom, acceptor molecule, acceptor atom, score
      L1  H     3    38       P1  7921  1.00
      L1  H     9    33       P1  7948  1.00

> <Gold.PLP.Chemscore.Internal.Correction>
0.0333

> <Gold.Rescore>
     Score         DG    S(hbond)    S(metal)    S(lipo)     H(rot)  DE(clash)    DE(int)     intcor
     15.63     -16.49       1.92        0.00      73.36       1.55       0.16       0.70       ----

> <Gold.Chemscore.Fitness>
15.6309

> <Gold.Chemscore.DG>
-16.4910

> <Gold.Chemscore.ZeroCoef>
-5.4800

> <Gold.Chemscore.Hbond>
1.9188

> <Gold.Chemscore.Metal>
0.0000

> <Gold.Chemscore.Lipo>
73.3564

> <Gold.Chemscore.Internal_Hbond>
0.0000

> <Gold.Chemscore.DEClash>
0.1614

> <Gold.Chemscore.DEInternal>
0.6986

> <Gold.Chemscore.Rot>
1.5549

> <Gold.Chemscore.Internal.Correction>
   9.000000E+99

> <Gold.Chemscore.Hbonds>
donor molecule, donor type, donor heavy atom, donor atom, acceptor molecule, acceptor atom, score
      L1  H     3    38       P1  7921  0.88
      L1  H     9    33       P1  7948  0.97

> <Gold.Chemscore.Hbond.Weighted>
-6.4088

> <Gold.Chemscore.Metal.Weighted>
-0.0000

> <Gold.Chemscore.Lipo.Weighted>
-8.5827

> <Gold.Chemscore.Internal_Hbond.Weighted>
0.0000

> <Gold.Chemscore.DEClash.Weighted>
0.1614

> <Gold.Chemscore.DEInternal.Weighted>
0.6986

> <Gold.Chemscore.Rot.Weighted>
3.9806

> <Gold.Chemscore.Internal.Correction.Weighted>
   9.000000E+99

> <Gold.Protein.RotatedTorsions>
[ 6907 6896 6895 6894 ] final  145.30 input  -60.11 | X-H torsion
[ 7974 7965 7964 7962 ] final  -60.86 input  175.53 | X-H torsion
[ 8008 7997 7996 7995 ] final  141.68 input   59.86 | X-H torsion
[ 10167 10162 10161 10158 ] final  -21.08 input  -65.29 | X-H torsion
[ 10718 10713 10712 10709 ] final -131.78 input   66.30 | X-H torsion
[ 10763 10752 10751 10750 ] final -123.18 input  -60.55 | X-H torsion
[ 11005 11000 10999 10996 ] final  -96.05 input  -57.11 | X-H torsion

> <Gold.Protein.ActiveResidues>
 VAL166  LYS551  ARG553  GLY616  TRP617  ASP618  TYR619  PRO620  LYS621  CYS622 
 ASP623  PHE694  ASN695  SER759  ASP760  ASP761  ALA762  ILE779  LEU786  VAL792 
 PHE793  MET794  SER795  GLU796  ALA797  LYS798  CYS799  TRP800  GLU811  SER814 

> <Gold.Protein.RotatedAtoms>
  152.1826  133.4718  159.4965 H   0  0  0  0  0  0  0  0  0  0  0  0  # atno 6907 bound_to 6896
  150.6937  134.1814  159.4259 H   0  0  0  0  0  0  0  0  0  0  0  0  # atno 6908 bound_to 6896
  151.9725  135.0069  160.0604 H   0  0  0  0  0  0  0  0  0  0  0  0  # atno 6909 bound_to 6896
  145.8104  140.8602  143.0185 H   0  0  0  0  0  0  0  0  0  0  0  0  # atno 7974 bound_to 7965
  156.2962  140.2309  156.4605 H   0  0  0  0  0  0  0  0  0  0  0  0  # atno 8008 bound_to 7997
  154.8023  140.0448  157.1302 H   0  0  0  0  0  0  0  0  0  0  0  0  # atno 8009 bound_to 7997
  154.9519  140.3043  155.5074 H   0  0  0  0  0  0  0  0  0  0  0  0  # atno 8010 bound_to 7997
  140.7280  143.4662  151.0311 H   0  0  0  0  0  0  0  0  0  0  0  0  # atno 10167 bound_to 10162
  156.2279  130.7019  151.0827 H   0  0  0  0  0  0  0  0  0  0  0  0  # atno 10718 bound_to 10713
  154.8703  135.4107  154.2902 H   0  0  0  0  0  0  0  0  0  0  0  0  # atno 10763 bound_to 10752
  153.3779  135.7010  153.6593 H   0  0  0  0  0  0  0  0  0  0  0  0  # atno 10764 bound_to 10752
  153.5428  135.3644  155.2697 H   0  0  0  0  0  0  0  0  0  0  0  0  # atno 10765 bound_to 10752
  141.1423  133.8070  157.0519 H   0  0  0  0  0  0  0  0  0  0  0  0  # atno 11005 bound_to 11000
  144.6758  140.0387  143.7481 LP  0  0  0  0  0  0  0  0  0  0  0  0  # atno 17320 bound_to 7965
  145.9783  139.2922  143.1057 LP  0  0  0  0  0  0  0  0  0  0  0  0  # atno 17321 bound_to 7965
  139.8350  143.7640  152.3180 LP  0  0  0  0  0  0  0  0  0  0  0  0  # atno 17342 bound_to 10162
  139.7769  144.7458  151.0144 LP  0  0  0  0  0  0  0  0  0  0  0  0  # atno 17343 bound_to 10162
  157.7119  131.0730  150.6469 LP  0  0  0  0  0  0  0  0  0  0  0  0  # atno 17370 bound_to 10713
  156.6535  130.4492  149.5711 LP  0  0  0  0  0  0  0  0  0  0  0  0  # atno 17371 bound_to 10713
  140.0626  134.9746  157.1331 LP  0  0  0  0  0  0  0  0  0  0  0  0  # atno 17394 bound_to 11000
  140.3826  134.2271  155.7170 LP  0  0  0  0  0  0  0  0  0  0  0  0  # atno 17395 bound_to 11000

$$$$
