AV-unprocessed.smi:749|AV-procd|sdf|3585|dock6
  -GOLD-   22720 0583D 1   1.00000     0.00000
 Structure written by MMmdl.
 43 44  0  0  0  0  0  0  0  0  1 V2000
  150.2493  141.6220  155.6577 C   0  0  0  0  0  0  0  0  0  0  0  0
  149.2248  140.9210  154.8820 N   0  0  0  0  0  0  0  0  0  0  0  0
  149.3787  139.4587  154.8364 C   0  0  0  0  0  0  0  0  0  0  0  0
  148.1311  138.7080  154.3396 C   0  0  2  0  0  0  0  0  0  0  0  0
  148.4806  137.3268  154.0271 N   0  0  0  0  0  0  0  0  0  0  0  0
  148.8324  136.3849  154.9180 C   0  0  0  0  0  0  0  0  0  0  0  0
  148.9069  136.6049  156.1257 O   0  0  0  0  0  0  0  0  0  0  0  0
  149.1037  135.1624  154.4142 N   0  0  0  0  0  0  0  0  0  0  0  0
  149.4989  133.9551  155.0574 C   0  0  0  0  0  0  0  0  0  0  0  0
  149.3459  132.7087  154.3950 C   0  0  0  0  0  0  0  0  0  0  0  0
  149.8277  131.8042  155.3019 C   0  0  0  0  0  0  0  0  0  0  0  0
  149.9796  130.3089  155.2907 C   0  0  0  0  0  0  0  0  0  0  0  0
  149.2360  129.6745  156.4828 C   0  0  0  0  0  0  0  0  0  0  0  0
  151.4691  129.9295  155.3900 C   0  0  0  0  0  0  0  0  0  0  0  0
  149.3945  129.7295  153.9891 C   0  0  0  0  0  0  0  0  0  0  0  0
  150.2437  132.4527  156.4254 O   0  0  0  0  0  0  0  0  0  0  0  0
  150.0304  133.8256  156.2636 N   0  0  0  0  0  0  0  0  0  0  0  0
  147.5615  139.4140  153.1053 C   0  0  0  0  0  0  0  0  0  0  0  0
  147.1844  140.8611  153.4423 C   0  0  0  0  0  0  0  0  0  0  0  0
  148.2745  141.6197  154.2148 C   0  0  0  0  0  0  0  0  0  0  0  0
  148.2270  142.8500  154.2264 O   0  0  0  0  0  0  0  0  0  0  0  0
  149.7965  142.1478  156.4995 H   0  0  0  0  0  0  0  0  0  0  0  0
  150.7725  142.3530  155.0390 H   0  0  0  0  0  0  0  0  0  0  0  0
  151.0008  140.9401  156.0581 H   0  0  0  0  0  0  0  0  0  0  0  0
  150.2237  139.2443  154.1800 H   0  0  0  0  0  0  0  0  0  0  0  0
  149.6498  139.0827  155.8242 H   0  0  0  0  0  0  0  0  0  0  0  0
  147.3820  138.7216  155.1340 H   0  0  0  0  0  0  0  0  0  0  0  0
  148.4457  137.0596  153.0533 H   0  0  0  0  0  0  0  0  0  0  0  0
  149.0355  135.0981  153.4090 H   0  0  0  0  0  0  0  0  0  0  0  0
  148.9466  132.5096  153.4117 H   0  0  0  0  0  0  0  0  0  0  0  0
  149.3431  128.5892  156.4881 H   0  0  0  0  0  0  0  0  0  0  0  0
  148.1687  129.8964  156.4502 H   0  0  0  0  0  0  0  0  0  0  0  0
  149.6205  130.0445  157.4343 H   0  0  0  0  0  0  0  0  0  0  0  0
  151.9159  130.3190  156.3053 H   0  0  0  0  0  0  0  0  0  0  0  0
  152.0405  130.3287  154.5512 H   0  0  0  0  0  0  0  0  0  0  0  0
  151.6065  128.8476  155.3913 H   0  0  0  0  0  0  0  0  0  0  0  0
  149.4824  128.6426  153.9613 H   0  0  0  0  0  0  0  0  0  0  0  0
  149.9084  130.1200  153.1100 H   0  0  0  0  0  0  0  0  0  0  0  0
  148.3371  129.9764  153.8867 H   0  0  0  0  0  0  0  0  0  0  0  0
  148.2918  139.4014  152.2945 H   0  0  0  0  0  0  0  0  0  0  0  0
  146.6810  138.8858  152.7375 H   0  0  0  0  0  0  0  0  0  0  0  0
  146.9436  141.4034  152.5272 H   0  0  0  0  0  0  0  0  0  0  0  0
  146.2819  140.8681  154.0545 H   0  0  0  0  0  0  0  0  0  0  0  0
  1  2  1  0  0  0  0
  1 22  1  0  0  0  0
  1 23  1  0  0  0  0
  1 24  1  0  0  0  0
  2 20  1  0  0  0  0
  2  3  1  0  0  0  0
  3  4  1  0  0  0  0
  3 25  1  0  0  0  0
  3 26  1  0  0  0  0
  4  5  1  0  0  0  0
  4 18  1  0  0  0  0
  4 27  1  0  0  0  0
  5  6  1  0  0  0  0
  5 28  1  0  0  0  0
  6  7  2  0  0  0  0
  6  8  1  0  0  0  0
  8  9  1  0  0  0  0
  8 29  1  0  0  0  0
  9 17  2  0  0  0  0
  9 10  1  0  0  0  0
 10 11  2  0  0  0  0
 10 30  1  0  0  0  0
 11 12  1  0  0  0  0
 11 16  1  0  0  0  0
 12 13  1  0  0  0  0
 12 14  1  0  0  0  0
 12 15  1  0  0  0  0
 13 31  1  0  0  0  0
 13 32  1  0  0  0  0
 13 33  1  0  0  0  0
 14 34  1  0  0  0  0
 14 35  1  0  0  0  0
 14 36  1  0  0  0  0
 15 37  1  0  0  0  0
 15 38  1  0  0  0  0
 15 39  1  0  0  0  0
 16 17  1  0  0  0  0
 18 19  1  0  0  0  0
 18 40  1  0  0  0  0
 18 41  1  0  0  0  0
 19 20  1  0  0  0  0
 19 42  1  0  0  0  0
 19 43  1  0  0  0  0
 20 21  2  0  0  0  0
M  END
> <s_m_source_file>
AV-unprocessed.smi

> <i_m_source_file_index>
749

> <i_lp_mmshare_version>
43012

> <i_f3d_flags>
0

> <s_epik_input>
Tz1DMVtDSDJdW0NIMl1bQ0BASF0oW0NIMl1OMVtDSDNdKVtOSF1DKD1PKVtOSF1jMltjSF1jKG9uMilDKFtDSDNdKShbQ0gzXSlbQ0gzXQ==

> <s_epik_cmdline>
J2VwaWtfcHl0aG9uJywgJy1waCcsICc3LjAnLCAnLXRuJywgJzgnLCAnLW1hJywgJzIwMCcsICctbWV0YWxfYmluZGluZycsICctaW1hZScsICc8aW5maWxlLm1hZT4nLCAnLW9tYWUnLCAnPG91dGZpbGUubWFlPic=

> <r_lp_tautomer_probability>
1

> <r_epik_Ionization_Penalty>
2.91905e-05

> <r_epik_Ionization_Penalty_Charging>
0

> <r_epik_Ionization_Penalty_Neutral>
2.91905e-05

> <r_epik_State_Penalty>
-0

> <r_epik_Charging_Adjusted_Penalty>
0

> <i_epik_Tot_Q>
0

> <i_epik_Tot_abs_Q>
0

> <r_epik_Metal_State_Penalty>
0.0102923

> <b_epik_Metal_Only>
0

> <s_lp_Force_Field>
OPLS_2005

> <r_lp_Energy>
15.3042

> <b_lp_Chiralities_Consistent>
1

> <s_lp_Variant>
AV-unprocessed.smi:749-2

> <Gold.Version>
5.8.1

> <Gold.Id.Protein>
6NUR|6NUR_protein|mol2

> <Gold.PLP.Fitness>
36.7308

> <Gold.PLP.PLP>
-28.6568

> <Gold.PLP.part.hbond>
-3.7567

> <Gold.PLP.part.metal>
0.0000

> <Gold.PLP.part.buried>
0.0147

> <Gold.PLP.part.nonpolar>
-28.2130

> <Gold.PLP.part.repulsive>
4.4889

> <Gold.PLP.ligand.clash>
0.0000

> <Gold.PLP.ligand.torsion>
0.1876

> <Gold.PLP.Chemscore.Hbond>
2.8160

> <Gold.PLP.Chemscore.CHOScore>
0.0000

> <Gold.PLP.Chemscore.Metal>
0.0000

> <Gold.Chemscore.Hbonds>
donor molecule, donor type, donor heavy atom, donor atom, acceptor molecule, acceptor atom, score
      L1  H     5    28       P1  7948  1.00
      L1  H     8    29       P1  7948  0.83
      P1  H  8022  8030       L1    21  0.99

> <Gold.PLP.Chemscore.Internal.Correction>
0.0013

> <Gold.Rescore>
     Score         DG    S(hbond)    S(metal)    S(lipo)     H(rot)  DE(clash)    DE(int)     intcor
     12.96     -16.24       2.09        0.00      59.25       1.23       2.14       1.14       ----

> <Gold.Chemscore.Fitness>
12.9553

> <Gold.Chemscore.DG>
-16.2376

> <Gold.Chemscore.ZeroCoef>
-5.4800

> <Gold.Chemscore.Hbond>
2.0892

> <Gold.Chemscore.Metal>
0.0000

> <Gold.Chemscore.Lipo>
59.2529

> <Gold.Chemscore.Internal_Hbond>
0.0000

> <Gold.Chemscore.DEClash>
2.1375

> <Gold.Chemscore.DEInternal>
1.1448

> <Gold.Chemscore.Rot>
1.2317

> <Gold.Chemscore.Internal.Correction>
   9.000000E+99

> <Gold.Chemscore.Hbonds>
donor molecule, donor type, donor heavy atom, donor atom, acceptor molecule, acceptor atom, score
      L1  H     5    28       P1  7948  0.89
      L1  H     8    29       P1  7948  0.28
      P1  H  8022  8030       L1    21  0.89

> <Gold.Chemscore.Hbond.Weighted>
-6.9781

> <Gold.Chemscore.Metal.Weighted>
-0.0000

> <Gold.Chemscore.Lipo.Weighted>
-6.9326

> <Gold.Chemscore.Internal_Hbond.Weighted>
0.0000

> <Gold.Chemscore.DEClash.Weighted>
2.1375

> <Gold.Chemscore.DEInternal.Weighted>
1.1448

> <Gold.Chemscore.Rot.Weighted>
3.1531

> <Gold.Chemscore.Internal.Correction.Weighted>
   9.000000E+99

> <Gold.Protein.RotatedTorsions>
[ 6907 6896 6895 6894 ] final -163.90 input  -60.11 | X-H torsion
[ 7974 7965 7964 7962 ] final -102.20 input  175.53 | X-H torsion
[ 8008 7997 7996 7995 ] final    0.10 input   59.86 | X-H torsion
[ 10167 10162 10161 10158 ] final  -76.85 input  -65.29 | X-H torsion
[ 10718 10713 10712 10709 ] final -173.26 input   66.30 | X-H torsion
[ 10763 10752 10751 10750 ] final  140.42 input  -60.55 | X-H torsion
[ 11005 11000 10999 10996 ] final   44.02 input  -57.11 | X-H torsion

> <Gold.Protein.ActiveResidues>
 VAL166  LYS551  ARG553  GLY616  TRP617  ASP618  TYR619  PRO620  LYS621  CYS622 
 ASP623  PHE694  ASN695  SER759  ASP760  ASP761  ALA762  ILE779  LEU786  VAL792 
 PHE793  MET794  SER795  GLU796  ALA797  LYS798  CYS799  TRP800  GLU811  SER814 

> <Gold.Protein.RotatedAtoms>
  151.4033  133.3750  159.2734 H   0  0  0  0  0  0  0  0  0  0  0  0  # atno 6907 bound_to 6896
  150.9417  134.8827  159.7627 H   0  0  0  0  0  0  0  0  0  0  0  0  # atno 6908 bound_to 6896
  152.5074  134.3984  159.9460 H   0  0  0  0  0  0  0  0  0  0  0  0  # atno 6909 bound_to 6896
  145.2717  140.9300  143.2982 H   0  0  0  0  0  0  0  0  0  0  0  0  # atno 7974 bound_to 7965
  154.6642  140.2597  155.7076 H   0  0  0  0  0  0  0  0  0  0  0  0  # atno 8008 bound_to 7997
  156.2631  140.2842  156.1047 H   0  0  0  0  0  0  0  0  0  0  0  0  # atno 8009 bound_to 7997
  155.1264  140.0378  157.2753 H   0  0  0  0  0  0  0  0  0  0  0  0  # atno 8010 bound_to 7997
  140.4821  143.2400  151.8041 H   0  0  0  0  0  0  0  0  0  0  0  0  # atno 10167 bound_to 10162
  156.7678  130.9437  151.3119 H   0  0  0  0  0  0  0  0  0  0  0  0  # atno 10718 bound_to 10713
  153.9223  135.2999  155.3447 H   0  0  0  0  0  0  0  0  0  0  0  0  # atno 10763 bound_to 10752
  154.7569  135.4953  153.9394 H   0  0  0  0  0  0  0  0  0  0  0  0  # atno 10764 bound_to 10752
  153.1135  135.6765  153.9562 H   0  0  0  0  0  0  0  0  0  0  0  0  # atno 10765 bound_to 10752
  140.1590  134.4365  155.8330 H   0  0  0  0  0  0  0  0  0  0  0  0  # atno 11005 bound_to 11000
  144.9329  139.4277  143.6486 LP  0  0  0  0  0  0  0  0  0  0  0  0  # atno 17320 bound_to 7965
  146.3244  139.8249  142.8919 LP  0  0  0  0  0  0  0  0  0  0  0  0  # atno 17321 bound_to 7965
  139.4835  144.4759  151.9367 LP  0  0  0  0  0  0  0  0  0  0  0  0  # atno 17342 bound_to 10162
  140.3845  144.2695  150.5905 LP  0  0  0  0  0  0  0  0  0  0  0  0  # atno 17343 bound_to 10162
  157.6705  130.9047  150.0029 LP  0  0  0  0  0  0  0  0  0  0  0  0  # atno 17370 bound_to 10713
  156.1298  130.3643  149.9751 LP  0  0  0  0  0  0  0  0  0  0  0  0  # atno 17371 bound_to 10713
  141.2207  133.6905  156.7559 LP  0  0  0  0  0  0  0  0  0  0  0  0  # atno 17394 bound_to 11000
  140.2512  134.8539  157.3669 LP  0  0  0  0  0  0  0  0  0  0  0  0  # atno 17395 bound_to 11000

$$$$
