AV-unprocessed.smi:99|AV-procd|sdf|867|dock9
  -GOLD-   2262017323D 1   1.00000     0.00000
 Structure written by MMmdl.
 53 56  0  0  0  0  0  0  0  0  1 V2000
  149.3391  135.2904  158.3347 O   0  0  0  0  0  0  0  0  0  0  0  0
  148.6380  136.0123  159.0462 C   0  0  0  0  0  0  0  0  0  0  0  0
  148.4528  137.3280  158.8249 O   0  0  0  0  0  0  0  0  0  0  0  0
  149.2570  138.0274  157.8881 C   0  0  0  0  0  0  0  0  0  0  0  0
  148.6193  139.3963  157.6193 C   0  0  2  0  0  0  0  0  0  0  0  0
  147.4144  139.2438  156.8740 O   0  0  0  0  0  0  0  0  0  0  0  0
  147.2007  140.3667  156.0640 C   0  0  2  0  0  0  0  0  0  0  0  0
  147.0561  139.9195  154.6260 N   0  0  0  0  0  0  0  0  0  0  0  0
  147.0040  138.5746  154.2812 C   0  0  0  0  0  0  0  0  0  0  0  0
  146.8909  138.1441  153.0025 C   0  0  0  0  0  0  0  0  0  0  0  0
  146.8232  139.1002  151.9020 C   0  0  0  0  0  0  0  0  0  0  0  0
  146.7157  138.8065  150.7135 O   0  0  0  0  0  0  0  0  0  0  0  0
  146.8953  140.4402  152.2929 N   0  0  0  0  0  0  0  0  0  0  0  0
  147.0172  140.8959  153.6064 C   0  0  0  0  0  0  0  0  0  0  0  0
  147.0940  142.1023  153.8351 O   0  0  0  0  0  0  0  0  0  0  0  0
  148.4176  141.2954  156.2081 C   0  0  1  0  0  0  0  0  0  0  0  0
  148.1323  142.3416  157.1188 O   0  0  0  0  0  0  0  0  0  0  0  0
  149.4575  140.3265  156.7442 C   0  0  1  0  0  0  0  0  0  0  0  0
  150.5120  140.9969  157.4289 O   0  0  0  0  0  0  0  0  0  0  0  0
  151.5589  140.3136  157.9427 C   0  0  0  0  0  0  0  0  0  0  0  0
  151.9666  139.2411  157.4926 O   0  0  0  0  0  0  0  0  0  0  0  0
  152.1479  140.9747  159.1417 C   0  0  0  0  0  0  0  0  0  0  0  0
  151.7352  142.2842  159.4819 C   0  0  0  0  0  0  0  0  0  0  0  0
  152.2938  142.9461  160.5924 C   0  0  0  0  0  0  0  0  0  0  0  0
  153.2700  142.3055  161.3774 C   0  0  0  0  0  0  0  0  0  0  0  0
  153.6869  141.0020  161.0509 C   0  0  0  0  0  0  0  0  0  0  0  0
  153.1304  140.3386  159.9400 C   0  0  0  0  0  0  0  0  0  0  0  0
  147.9225  135.5282  160.2622 C   0  0  0  0  0  0  0  0  0  0  0  0
  147.4716  134.1889  160.3152 C   0  0  0  0  0  0  0  0  0  0  0  0
  146.8126  133.6987  161.4595 C   0  0  0  0  0  0  0  0  0  0  0  0
  146.5962  134.5418  162.5648 C   0  0  0  0  0  0  0  0  0  0  0  0
  147.0362  135.8775  162.5232 C   0  0  0  0  0  0  0  0  0  0  0  0
  147.6934  136.3698  161.3791 C   0  0  0  0  0  0  0  0  0  0  0  0
  146.8613  141.1369  151.5628 H   0  0  0  0  0  0  0  0  0  0  0  0
  150.2769  138.1585  158.2528 H   0  0  0  0  0  0  0  0  0  0  0  0
  149.3089  137.4453  156.9676 H   0  0  0  0  0  0  0  0  0  0  0  0
  148.3658  139.8888  158.5596 H   0  0  0  0  0  0  0  0  0  0  0  0
  146.2491  140.8256  156.3399 H   0  0  0  0  0  0  0  0  0  0  0  0
  147.0595  137.8211  155.0530 H   0  0  0  0  0  0  0  0  0  0  0  0
  146.8523  137.0851  152.7914 H   0  0  0  0  0  0  0  0  0  0  0  0
  148.7091  141.7288  155.2505 H   0  0  0  0  0  0  0  0  0  0  0  0
  148.6088  143.1114  156.8479 H   0  0  0  0  0  0  0  0  0  0  0  0
  149.8357  139.7552  155.8953 H   0  0  0  0  0  0  0  0  0  0  0  0
  150.9932  142.7996  158.8893 H   0  0  0  0  0  0  0  0  0  0  0  0
  151.9753  143.9481  160.8389 H   0  0  0  0  0  0  0  0  0  0  0  0
  153.6993  142.8139  162.2281 H   0  0  0  0  0  0  0  0  0  0  0  0
  154.4374  140.5102  161.6519 H   0  0  0  0  0  0  0  0  0  0  0  0
  153.4769  139.3408  159.7137 H   0  0  0  0  0  0  0  0  0  0  0  0
  147.6314  133.5210  159.4810 H   0  0  0  0  0  0  0  0  0  0  0  0
  146.4750  132.6730  161.4894 H   0  0  0  0  0  0  0  0  0  0  0  0
  146.0939  134.1644  163.4433 H   0  0  0  0  0  0  0  0  0  0  0  0
  146.8746  136.5254  163.3721 H   0  0  0  0  0  0  0  0  0  0  0  0
  148.0243  137.3981  161.3842 H   0  0  0  0  0  0  0  0  0  0  0  0
  1  2  2  0  0  0  0
  2  3  1  0  0  0  0
  2 28  1  0  0  0  0
  3  4  1  0  0  0  0
  4  5  1  0  0  0  0
  4 35  1  0  0  0  0
  4 36  1  0  0  0  0
  5 18  1  0  0  0  0
  5  6  1  0  0  0  0
  5 37  1  0  0  0  0
  6  7  1  0  0  0  0
  7  8  1  0  0  0  0
  7 16  1  0  0  0  0
  7 38  1  0  0  0  0
  8 14  1  0  0  0  0
  8  9  1  0  0  0  0
  9 10  2  0  0  0  0
  9 39  1  0  0  0  0
 10 11  1  0  0  0  0
 10 40  1  0  0  0  0
 11 12  2  0  0  0  0
 11 13  1  0  0  0  0
 13 34  1  0  0  0  0
 13 14  1  0  0  0  0
 14 15  2  0  0  0  0
 16 17  1  0  0  0  0
 16 18  1  0  0  0  0
 16 41  1  0  0  0  0
 17 42  1  0  0  0  0
 18 19  1  0  0  0  0
 18 43  1  0  0  0  0
 19 20  1  0  0  0  0
 20 21  2  0  0  0  0
 20 22  1  0  0  0  0
 22 27  1  0  0  0  0
 22 23  2  0  0  0  0
 23 24  1  0  0  0  0
 23 44  1  0  0  0  0
 24 25  2  0  0  0  0
 24 45  1  0  0  0  0
 25 26  1  0  0  0  0
 25 46  1  0  0  0  0
 26 27  2  0  0  0  0
 26 47  1  0  0  0  0
 27 48  1  0  0  0  0
 28 33  1  0  0  0  0
 28 29  2  0  0  0  0
 29 30  1  0  0  0  0
 29 49  1  0  0  0  0
 30 31  2  0  0  0  0
 30 50  1  0  0  0  0
 31 32  1  0  0  0  0
 31 51  1  0  0  0  0
 32 33  2  0  0  0  0
 32 52  1  0  0  0  0
 33 53  1  0  0  0  0
M  END
> <s_m_source_file>
AV-unprocessed.smi

> <i_m_source_file_index>
99

> <i_lp_mmshare_version>
43012

> <i_f3d_flags>
0

> <s_epik_input>
W2NIXTFbY0hdW2NIXVtjSF1bY0hdYzFDKD1PKU9bQ0gyXVtDQEBIXTJPW0NAQEhdKG4zW2NIXVtjSF1jKD1PKVtuSF1jMz1PKVtDQEBIXShbT0hdKVtDQEhdMk9DKD1PKWM0W2NIXVtjSF1bY0hdW2NIXVtjSF00

> <s_epik_cmdline>
J2VwaWtfcHl0aG9uJywgJy1waCcsICc3LjAnLCAnLXRuJywgJzgnLCAnLW1hJywgJzIwMCcsICctbWV0YWxfYmluZGluZycsICctaW1hZScsICc8aW5maWxlLm1hZT4nLCAnLW9tYWUnLCAnPG91dGZpbGUubWFlPic=

> <r_lp_tautomer_probability>
1

> <r_epik_Ionization_Penalty>
0.00454555

> <r_epik_Ionization_Penalty_Charging>
0.0045191

> <r_epik_Ionization_Penalty_Neutral>
2.64449e-05

> <r_epik_State_Penalty>
-0

> <r_epik_Charging_Adjusted_Penalty>
0.0045191

> <i_epik_Tot_Q>
0

> <i_epik_Tot_abs_Q>
0

> <r_epik_Metal_State_Penalty>
1.27877

> <b_epik_Metal_Only>
0

> <s_epik_Chemistry_Notes>
This compound has an ester and may undergo hydrolysis at high or low pH. This compound contains an acetal/aminal-like group ( X-CH(R)-Y where X, Y are N, S, or O) that may be acid/base labile, releasing an aldehyde.

> <s_lp_Force_Field>
OPLS_2005

> <r_lp_Energy>
37.3594

> <b_lp_Chiralities_Consistent>
1

> <s_lp_Variant>
AV-unprocessed.smi:99-3

> <Gold.Version>
5.8.1

> <Gold.Id.Protein>
6NUR|6NUR_protein|mol2

> <Gold.PLP.Fitness>
61.1966

> <Gold.PLP.PLP>
-54.4285

> <Gold.PLP.part.hbond>
-4.5373

> <Gold.PLP.part.metal>
0.0000

> <Gold.PLP.part.buried>
-5.1260

> <Gold.PLP.part.nonpolar>
-45.7231

> <Gold.PLP.part.repulsive>
1.5154

> <Gold.PLP.ligand.clash>
0.0000

> <Gold.PLP.ligand.torsion>
1.1090

> <Gold.PLP.Chemscore.Hbond>
2.9120

> <Gold.PLP.Chemscore.CHOScore>
0.0000

> <Gold.PLP.Chemscore.Metal>
0.0000

> <Gold.Chemscore.Hbonds>
donor molecule, donor type, donor heavy atom, donor atom, acceptor molecule, acceptor atom, score
      L1  H    17    42       P1  8028  1.00
      P1  H  6896  6907       L1     1  1.00
      P1  H  7954  7966       L1    12  0.78

> <Gold.PLP.Chemscore.Internal.Correction>
0.2501

> <Gold.Rescore>
     Score         DG    S(hbond)    S(metal)    S(lipo)     H(rot)  DE(clash)    DE(int)     intcor
     15.78     -20.41       2.70        0.00     120.44       3.19       1.67       2.97       ----

> <Gold.Chemscore.Fitness>
15.7800

> <Gold.Chemscore.DG>
-20.4119

> <Gold.Chemscore.ZeroCoef>
-5.4800

> <Gold.Chemscore.Hbond>
2.6969

> <Gold.Chemscore.Metal>
0.0000

> <Gold.Chemscore.Lipo>
120.4391

> <Gold.Chemscore.Internal_Hbond>
0.0000

> <Gold.Chemscore.DEClash>
1.6663

> <Gold.Chemscore.DEInternal>
2.9656

> <Gold.Chemscore.Rot>
3.1903

> <Gold.Chemscore.Internal.Correction>
   9.000000E+99

> <Gold.Chemscore.Hbonds>
donor molecule, donor type, donor heavy atom, donor atom, acceptor molecule, acceptor atom, score
      L1  H    17    42       P1  8028  0.60
      P1  H  6896  6907       L1     1  0.55
      P1  H  7954  7966       L1    12  0.74

> <Gold.Chemscore.Hbond.Weighted>
-9.0076

> <Gold.Chemscore.Metal.Weighted>
-0.0000

> <Gold.Chemscore.Lipo.Weighted>
-14.0914

> <Gold.Chemscore.Internal_Hbond.Weighted>
0.0000

> <Gold.Chemscore.DEClash.Weighted>
1.6663

> <Gold.Chemscore.DEInternal.Weighted>
2.9656

> <Gold.Chemscore.Rot.Weighted>
8.1671

> <Gold.Chemscore.Internal.Correction.Weighted>
   9.000000E+99

> <Gold.Protein.RotatedTorsions>
[ 6907 6896 6895 6894 ] final  -76.23 input  -60.11 | X-H torsion
[ 7974 7965 7964 7962 ] final -152.44 input  175.53 | X-H torsion
[ 8008 7997 7996 7995 ] final   85.51 input   59.86 | X-H torsion
[ 10167 10162 10161 10158 ] final    5.11 input  -65.29 | X-H torsion
[ 10718 10713 10712 10709 ] final -172.38 input   66.30 | X-H torsion
[ 10763 10752 10751 10750 ] final  129.95 input  -60.55 | X-H torsion
[ 11005 11000 10999 10996 ] final   21.52 input  -57.11 | X-H torsion

> <Gold.Protein.ActiveResidues>
 VAL166  LYS551  ARG553  GLY616  TRP617  ASP618  TYR619  PRO620  LYS621  CYS622 
 ASP623  PHE694  ASN695  SER759  ASP760  ASP761  ALA762  ILE779  LEU786  VAL792 
 PHE793  MET794  SER795  GLU796  ALA797  LYS798  CYS799  TRP800  GLU811  SER814 

> <Gold.Protein.RotatedAtoms>
  150.7034  134.4603  159.5377 H   0  0  0  0  0  0  0  0  0  0  0  0  # atno 6907 bound_to 6896
  152.2279  134.8347  160.0486 H   0  0  0  0  0  0  0  0  0  0  0  0  # atno 6908 bound_to 6896
  151.9174  133.3541  159.3921 H   0  0  0  0  0  0  0  0  0  0  0  0  # atno 6909 bound_to 6896
  144.7794  140.4661  143.5850 H   0  0  0  0  0  0  0  0  0  0  0  0  # atno 7974 bound_to 7965
  155.9510  140.3401  155.6407 H   0  0  0  0  0  0  0  0  0  0  0  0  # atno 8008 bound_to 7997
  155.6920  140.0750  157.2462 H   0  0  0  0  0  0  0  0  0  0  0  0  # atno 8009 bound_to 7997
  154.4122  140.1655  156.2084 H   0  0  0  0  0  0  0  0  0  0  0  0  # atno 8010 bound_to 7997
  140.6499  143.7570  150.7559 H   0  0  0  0  0  0  0  0  0  0  0  0  # atno 10167 bound_to 10162
  156.7547  130.9391  151.3116 H   0  0  0  0  0  0  0  0  0  0  0  0  # atno 10718 bound_to 10713
  153.7502  135.3211  155.3319 H   0  0  0  0  0  0  0  0  0  0  0  0  # atno 10763 bound_to 10752
  154.8266  135.4565  154.0940 H   0  0  0  0  0  0  0  0  0  0  0  0  # atno 10764 bound_to 10752
  153.2140  135.6939  153.8162 H   0  0  0  0  0  0  0  0  0  0  0  0  # atno 10765 bound_to 10752
  140.3907  134.1822  155.7662 H   0  0  0  0  0  0  0  0  0  0  0  0  # atno 11005 bound_to 11000
  145.6094  139.1511  143.3084 LP  0  0  0  0  0  0  0  0  0  0  0  0  # atno 17320 bound_to 7965
  146.1993  140.6210  142.9110 LP  0  0  0  0  0  0  0  0  0  0  0  0  # atno 17321 bound_to 7965
  140.1218  143.4605  152.2308 LP  0  0  0  0  0  0  0  0  0  0  0  0  # atno 17342 bound_to 10162
  139.5713  144.7464  151.3882 LP  0  0  0  0  0  0  0  0  0  0  0  0  # atno 17343 bound_to 10162
  157.6761  130.9096  150.0154 LP  0  0  0  0  0  0  0  0  0  0  0  0  # atno 17370 bound_to 10713
  156.1378  130.3642  149.9630 LP  0  0  0  0  0  0  0  0  0  0  0  0  # atno 17371 bound_to 10713
  141.1892  133.8244  157.0967 LP  0  0  0  0  0  0  0  0  0  0  0  0  # atno 17394 bound_to 11000
  140.0409  134.9855  157.0959 LP  0  0  0  0  0  0  0  0  0  0  0  0  # atno 17395 bound_to 11000

$$$$
