AV-unprocessed.smi:1413|AV-procd|sdf|5757|dock4
  -GOLD-   22720 5393D 1   1.00000     0.00000
 Structure written by MMmdl.
 53 55  0  0  0  0  0  0  0  0  1 V2000
  153.7289  141.6359  160.7276 C   0  0  0  0  0  0  0  0  0  0  0  0
  153.0216  141.9940  159.4164 C   0  0  1  0  0  0  0  0  0  0  0  0
  152.3855  140.7609  158.7499 C   0  0  0  0  0  0  0  0  0  0  0  0
  151.6357  141.1649  157.5694 N   0  0  0  0  0  0  0  0  0  0  0  0
  151.1621  140.0860  156.8114 C   0  0  0  0  0  0  0  0  0  0  0  0
  151.2719  140.0654  155.4023 C   0  0  0  0  0  0  0  0  0  0  0  0
  150.7610  138.9566  154.7018 C   0  0  0  0  0  0  0  0  0  0  0  0
  150.1500  137.9101  155.4209 C   0  0  0  0  0  0  0  0  0  0  0  0
  149.6493  136.7999  154.6886 N   0  0  0  0  0  0  0  0  0  0  0  0
  149.0354  135.6997  155.1569 C   0  0  0  0  0  0  0  0  0  0  0  0
  148.8014  135.4683  156.3428 O   0  0  0  0  0  0  0  0  0  0  0  0
  148.6861  134.8799  154.1549 N   0  0  0  0  0  0  0  0  0  0  0  0
  148.0072  133.5932  154.2973 C   0  0  1  0  0  0  0  0  0  0  0  0
  146.7404  133.7925  155.1445 C   0  0  0  0  0  0  0  0  0  0  0  0
  147.7013  133.0202  152.8997 C   0  0  2  0  0  0  0  0  0  0  0  0
  146.6965  133.8351  152.0825 C   0  0  0  0  0  0  0  0  0  0  0  0
  146.1412  132.7889  151.1445 C   0  0  0  0  0  0  0  0  0  0  0  0
  146.0629  131.5688  152.0555 C   0  0  0  0  0  0  0  0  0  0  0  0
  147.1086  131.7264  153.0107 O   0  0  0  0  0  0  0  0  0  0  0  0
  150.1079  138.0181  156.8325 C   0  0  0  0  0  0  0  0  0  0  0  0
  150.5974  139.0783  157.5105 N   0  0  0  0  0  0  0  0  0  0  0  0
  150.6150  142.1597  157.8702 C   0  0  0  0  0  0  0  0  0  0  0  0
  151.2365  143.3795  158.5797 C   0  0  2  0  0  0  0  0  0  0  0  0
  152.0461  144.2901  157.6394 C   0  0  0  0  0  0  0  0  0  0  0  0
  152.0046  142.9532  159.7091 O   0  0  0  0  0  0  0  0  0  0  0  0
  154.5231  140.9080  160.5592 H   0  0  0  0  0  0  0  0  0  0  0  0
  153.0312  141.2099  161.4491 H   0  0  0  0  0  0  0  0  0  0  0  0
  154.1790  142.5197  161.1807 H   0  0  0  0  0  0  0  0  0  0  0  0
  153.7590  142.4337  158.7444 H   0  0  0  0  0  0  0  0  0  0  0  0
  153.1587  140.0453  158.4671 H   0  0  0  0  0  0  0  0  0  0  0  0
  151.7207  140.2579  159.4537 H   0  0  0  0  0  0  0  0  0  0  0  0
  151.7340  140.8805  154.8652 H   0  0  0  0  0  0  0  0  0  0  0  0
  150.8317  138.9177  153.6246 H   0  0  0  0  0  0  0  0  0  0  0  0
  149.7027  136.8841  153.6842 H   0  0  0  0  0  0  0  0  0  0  0  0
  148.9209  135.1608  153.2144 H   0  0  0  0  0  0  0  0  0  0  0  0
  148.6498  132.8831  154.8209 H   0  0  0  0  0  0  0  0  0  0  0  0
  146.2252  132.8478  155.3186 H   0  0  0  0  0  0  0  0  0  0  0  0
  146.0380  134.4700  154.6577 H   0  0  0  0  0  0  0  0  0  0  0  0
  146.9851  134.2121  156.1208 H   0  0  0  0  0  0  0  0  0  0  0  0
  148.6226  132.9111  152.3245 H   0  0  0  0  0  0  0  0  0  0  0  0
  145.9005  134.2207  152.7217 H   0  0  0  0  0  0  0  0  0  0  0  0
  147.1537  134.6753  151.5592 H   0  0  0  0  0  0  0  0  0  0  0  0
  145.1779  133.0633  150.7142 H   0  0  0  0  0  0  0  0  0  0  0  0
  146.8426  132.6065  150.3292 H   0  0  0  0  0  0  0  0  0  0  0  0
  145.1107  131.5504  152.5869 H   0  0  0  0  0  0  0  0  0  0  0  0
  146.1628  130.6324  151.5061 H   0  0  0  0  0  0  0  0  0  0  0  0
  149.6933  137.2399  157.4540 H   0  0  0  0  0  0  0  0  0  0  0  0
  150.1107  142.4687  156.9534 H   0  0  0  0  0  0  0  0  0  0  0  0
  149.8575  141.7130  158.5156 H   0  0  0  0  0  0  0  0  0  0  0  0
  150.4203  143.9833  158.9770 H   0  0  0  0  0  0  0  0  0  0  0  0
  151.4081  144.6994  156.8559 H   0  0  0  0  0  0  0  0  0  0  0  0
  152.8601  143.7586  157.1471 H   0  0  0  0  0  0  0  0  0  0  0  0
  152.4762  145.1292  158.1863 H   0  0  0  0  0  0  0  0  0  0  0  0
  1  2  1  0  0  0  0
  1 26  1  0  0  0  0
  1 27  1  0  0  0  0
  1 28  1  0  0  0  0
  2 25  1  0  0  0  0
  2  3  1  0  0  0  0
  2 29  1  0  0  0  0
  3  4  1  0  0  0  0
  3 30  1  0  0  0  0
  3 31  1  0  0  0  0
  4  5  1  0  0  0  0
  4 22  1  0  0  0  0
  5 21  1  0  0  0  0
  5  6  2  0  0  0  0
  6  7  1  0  0  0  0
  6 32  1  0  0  0  0
  7  8  2  0  0  0  0
  7 33  1  0  0  0  0
  8  9  1  0  0  0  0
  8 20  1  0  0  0  0
  9 10  1  0  0  0  0
  9 34  1  0  0  0  0
 10 11  2  0  0  0  0
 10 12  1  0  0  0  0
 12 13  1  0  0  0  0
 12 35  1  0  0  0  0
 13 14  1  0  0  0  0
 13 15  1  0  0  0  0
 13 36  1  0  0  0  0
 14 37  1  0  0  0  0
 14 38  1  0  0  0  0
 14 39  1  0  0  0  0
 15 19  1  0  0  0  0
 15 16  1  0  0  0  0
 15 40  1  0  0  0  0
 16 17  1  0  0  0  0
 16 41  1  0  0  0  0
 16 42  1  0  0  0  0
 17 18  1  0  0  0  0
 17 43  1  0  0  0  0
 17 44  1  0  0  0  0
 18 19  1  0  0  0  0
 18 45  1  0  0  0  0
 18 46  1  0  0  0  0
 20 21  2  0  0  0  0
 20 47  1  0  0  0  0
 22 23  1  0  0  0  0
 22 48  1  0  0  0  0
 22 49  1  0  0  0  0
 23 24  1  0  0  0  0
 23 25  1  0  0  0  0
 23 50  1  0  0  0  0
 24 51  1  0  0  0  0
 24 52  1  0  0  0  0
 24 53  1  0  0  0  0
M  END
> <s_m_source_file>
AV-unprocessed.smi

> <i_m_source_file_index>
1413

> <i_lp_mmshare_version>
43012

> <i_f3d_flags>
0

> <s_epik_input>
W0NIM11bQ0BASF0xW0NIMl1OKFtDSDJdW0NASF0oTzEpW0NIM10pYzJbY0hdW2NIXWMoW2NIXW4yKVtOSF1DKD1PKVtOSF1bQ0BIXShbQ0gzXSlbQ0BASF0zW0NIMl1bQ0gyXVtDSDJdTzM=

> <s_epik_cmdline>
J2VwaWtfcHl0aG9uJywgJy1waCcsICc3LjAnLCAnLXRuJywgJzgnLCAnLW1hJywgJzIwMCcsICctbWV0YWxfYmluZGluZycsICctaW1hZScsICc8aW5maWxlLm1hZT4nLCAnLW9tYWUnLCAnPG91dGZpbGUubWFlPic=

> <r_lp_tautomer_probability>
1

> <r_epik_Ionization_Penalty>
0.00271172

> <r_epik_Ionization_Penalty_Charging>
0

> <r_epik_Ionization_Penalty_Neutral>
0.00271172

> <r_epik_State_Penalty>
0.00186503

> <r_epik_Charging_Adjusted_Penalty>
0.00186503

> <i_epik_Tot_Q>
0

> <i_epik_Tot_abs_Q>
0

> <r_epik_Metal_State_Penalty>
-0

> <b_epik_Metal_Only>
0

> <s_lp_Force_Field>
OPLS_2005

> <r_lp_Energy>
38.2473

> <b_lp_Chiralities_Consistent>
1

> <s_lp_Variant>
AV-unprocessed.smi:1413-10

> <Gold.Version>
5.8.1

> <Gold.Id.Protein>
6NUR|6NUR_protein|mol2

> <Gold.PLP.Fitness>
46.2854

> <Gold.PLP.PLP>
-41.4836

> <Gold.PLP.part.hbond>
-2.0000

> <Gold.PLP.part.metal>
0.0000

> <Gold.PLP.part.buried>
-4.8596

> <Gold.PLP.part.nonpolar>
-35.2725

> <Gold.PLP.part.repulsive>
0.1498

> <Gold.PLP.ligand.clash>
0.0000

> <Gold.PLP.ligand.torsion>
0.6003

> <Gold.PLP.Chemscore.Hbond>
1.9600

> <Gold.PLP.Chemscore.CHOScore>
0.0000

> <Gold.PLP.Chemscore.Metal>
0.0000

> <Gold.Chemscore.Hbonds>
donor molecule, donor type, donor heavy atom, donor atom, acceptor molecule, acceptor atom, score
      L1  H     9    34       P1  7948  0.92
      L1  H    12    35       P1  7948  1.00

> <Gold.PLP.Chemscore.Internal.Correction>
0.1224

> <Gold.Rescore>
     Score         DG    S(hbond)    S(metal)    S(lipo)     H(rot)  DE(clash)    DE(int)     intcor
     18.45     -20.79       1.76        0.00     110.01       1.35       0.35       1.99       ----

> <Gold.Chemscore.Fitness>
18.4491

> <Gold.Chemscore.DG>
-20.7907

> <Gold.Chemscore.ZeroCoef>
-5.4800

> <Gold.Chemscore.Hbond>
1.7628

> <Gold.Chemscore.Metal>
0.0000

> <Gold.Chemscore.Lipo>
110.0111

> <Gold.Chemscore.Internal_Hbond>
0.0000

> <Gold.Chemscore.DEClash>
0.3475

> <Gold.Chemscore.DEInternal>
1.9940

> <Gold.Chemscore.Rot>
1.3471

> <Gold.Chemscore.Internal.Correction>
   9.000000E+99

> <Gold.Chemscore.Hbonds>
donor molecule, donor type, donor heavy atom, donor atom, acceptor molecule, acceptor atom, score
      L1  H     9    34       P1  7948  0.54
      L1  H    12    35       P1  7948  0.39

> <Gold.Chemscore.Hbond.Weighted>
-5.8879

> <Gold.Chemscore.Metal.Weighted>
-0.0000

> <Gold.Chemscore.Lipo.Weighted>
-12.8713

> <Gold.Chemscore.Internal_Hbond.Weighted>
0.0000

> <Gold.Chemscore.DEClash.Weighted>
0.3475

> <Gold.Chemscore.DEInternal.Weighted>
1.9940

> <Gold.Chemscore.Rot.Weighted>
3.4485

> <Gold.Chemscore.Internal.Correction.Weighted>
   9.000000E+99

> <Gold.Protein.RotatedTorsions>
[ 6907 6896 6895 6894 ] final  -94.86 input  -60.11 | X-H torsion
[ 7974 7965 7964 7962 ] final  135.77 input  175.53 | X-H torsion
[ 8008 7997 7996 7995 ] final   12.83 input   59.86 | X-H torsion
[ 10167 10162 10161 10158 ] final  165.56 input  -65.29 | X-H torsion
[ 10718 10713 10712 10709 ] final  -66.31 input   66.30 | X-H torsion
[ 10763 10752 10751 10750 ] final  102.35 input  -60.55 | X-H torsion
[ 11005 11000 10999 10996 ] final   95.34 input  -57.11 | X-H torsion

> <Gold.Protein.ActiveResidues>
 VAL166  LYS551  ARG553  GLY616  TRP617  ASP618  TYR619  PRO620  LYS621  CYS622 
 ASP623  PHE694  ASN695  SER759  ASP760  ASP761  ALA762  ILE779  LEU786  VAL792 
 PHE793  MET794  SER795  GLU796  ALA797  LYS798  CYS799  TRP800  GLU811  SER814 

> <Gold.Protein.RotatedAtoms>
  150.6951  134.1747  159.4225 H   0  0  0  0  0  0  0  0  0  0  0  0  # atno 6907 bound_to 6896
  151.9723  135.0068  160.0562 H   0  0  0  0  0  0  0  0  0  0  0  0  # atno 6908 bound_to 6896
  152.1830  133.4685  159.5005 H   0  0  0  0  0  0  0  0  0  0  0  0  # atno 6909 bound_to 6896
  144.9631  139.4688  143.5470 H   0  0  0  0  0  0  0  0  0  0  0  0  # atno 7974 bound_to 7965
  154.8260  140.2891  155.5754 H   0  0  0  0  0  0  0  0  0  0  0  0  # atno 8008 bound_to 7997
  156.3001  140.2541  156.3107 H   0  0  0  0  0  0  0  0  0  0  0  0  # atno 8009 bound_to 7997
  154.9285  140.0384  157.2025 H   0  0  0  0  0  0  0  0  0  0  0  0  # atno 8010 bound_to 7997
  139.4908  144.4120  151.9289 H   0  0  0  0  0  0  0  0  0  0  0  0  # atno 10167 bound_to 10162
  156.0620  130.4260  150.1690 H   0  0  0  0  0  0  0  0  0  0  0  0  # atno 10718 bound_to 10713
  153.3384  135.4013  155.1552 H   0  0  0  0  0  0  0  0  0  0  0  0  # atno 10763 bound_to 10752
  154.8638  135.3627  154.5378 H   0  0  0  0  0  0  0  0  0  0  0  0  # atno 10764 bound_to 10752
  153.5821  135.7076  153.5518 H   0  0  0  0  0  0  0  0  0  0  0  0  # atno 10765 bound_to 10752
  139.8790  134.8894  156.3997 H   0  0  0  0  0  0  0  0  0  0  0  0  # atno 11005 bound_to 11000
  146.3359  139.8794  142.8827 LP  0  0  0  0  0  0  0  0  0  0  0  0  # atno 17320 bound_to 7965
  145.2670  141.0096  143.3793 LP  0  0  0  0  0  0  0  0  0  0  0  0  # atno 17321 bound_to 7965
  140.3561  144.3030  150.5941 LP  0  0  0  0  0  0  0  0  0  0  0  0  # atno 17342 bound_to 10162
  140.5443  143.2217  151.8033 LP  0  0  0  0  0  0  0  0  0  0  0  0  # atno 17343 bound_to 10162
  156.9756  130.9848  151.3449 LP  0  0  0  0  0  0  0  0  0  0  0  0  # atno 17370 bound_to 10713
  157.5635  130.8262  149.8297 LP  0  0  0  0  0  0  0  0  0  0  0  0  # atno 17371 bound_to 10713
  140.9275  133.7602  155.9983 LP  0  0  0  0  0  0  0  0  0  0  0  0  # atno 17394 bound_to 11000
  140.8369  134.3113  157.5328 LP  0  0  0  0  0  0  0  0  0  0  0  0  # atno 17395 bound_to 11000

$$$$
