AV-unprocessed.smi:2997|AV-procd|sdf|11414|dock3
  -GOLD-   2272016333D 1   1.00000     0.00000
 Structure written by MMmdl.
 39 41  0  0  0  0  0  0  0  0  2 V2000
  152.2108  144.9970  160.1821 C   0  0  0  0  0  0  0  0  0  0  0  0
  151.9831  143.7405  159.3588 C   0  0  0  0  0  0  0  0  0  0  0  0
  151.2016  143.8356  158.1851 C   0  0  0  0  0  0  0  0  0  0  0  0
  151.0089  142.6686  157.4551 C   0  0  0  0  0  0  0  0  0  0  0  0
  150.3014  142.4333  156.2742 N   0  3  0  0  0  0  0  0  0  0  0  0
  150.4013  141.1169  155.9393 C   0  0  0  0  0  0  0  0  0  0  0  0
  151.1611  140.5090  156.8903 N   0  0  0  0  0  0  0  0  0  0  0  0
  151.5819  139.1067  157.0078 C   0  0  0  0  0  0  0  0  0  0  0  0
  152.1826  138.5532  155.7016 C   0  0  2  0  0  0  0  0  0  0  0  0
  152.8156  139.6024  154.9928 O   0  0  0  0  0  0  0  0  0  0  0  0
  151.1134  137.8895  154.8135 C   0  0  0  0  0  0  0  0  0  0  0  0
  150.7731  136.5504  155.2613 N   0  0  0  0  0  0  0  0  0  0  0  0
  149.7218  135.7551  154.8564 C   0  0  0  0  0  0  0  0  0  0  0  0
  149.8033  134.5858  155.5566 C   0  0  0  0  0  0  0  0  0  0  0  0
  150.9544  134.7612  156.3744 C   0  0  0  0  0  0  0  0  0  0  0  0
  151.5320  135.9384  156.1961 N   0  0  0  0  0  0  0  0  0  0  0  0
  151.5638  141.4376  157.8550 C   0  0  0  0  0  0  0  0  0  0  0  0
  152.3390  141.3262  159.0064 C   0  0  0  0  0  0  0  0  0  0  0  0
  152.5452  142.5018  159.7636 C   0  0  0  0  0  0  0  0  0  0  0  0
  153.3833  142.4113  161.0276 C   0  0  0  0  0  0  0  0  0  0  0  0
  151.6973  145.8563  159.7498 H   0  0  0  0  0  0  0  0  0  0  0  0
  153.2737  145.2347  160.2320 H   0  0  0  0  0  0  0  0  0  0  0  0
  151.8371  144.8628  161.1973 H   0  0  0  0  0  0  0  0  0  0  0  0
  150.7721  144.7753  157.8701 H   0  0  0  0  0  0  0  0  0  0  0  0
  149.9627  140.6415  155.0738 H   0  0  0  0  0  0  0  0  0  0  0  0
  152.2918  139.0256  157.8319 H   0  0  0  0  0  0  0  0  0  0  0  0
  150.7054  138.5252  157.2971 H   0  0  0  0  0  0  0  0  0  0  0  0
  152.9459  137.8132  155.9453 H   0  0  0  0  0  0  0  0  0  0  0  0
  152.7544  139.4181  154.0674 H   0  0  0  0  0  0  0  0  0  0  0  0
  150.2009  138.4867  154.8175 H   0  0  0  0  0  0  0  0  0  0  0  0
  151.4505  137.8442  153.7763 H   0  0  0  0  0  0  0  0  0  0  0  0
  149.0107  136.0848  154.1135 H   0  0  0  0  0  0  0  0  0  0  0  0
  149.1422  133.7341  155.4941 H   0  0  0  0  0  0  0  0  0  0  0  0
  151.3841  134.0735  157.0878 H   0  0  0  0  0  0  0  0  0  0  0  0
  152.7662  140.3831  159.3132 H   0  0  0  0  0  0  0  0  0  0  0  0
  153.7643  141.4015  161.1825 H   0  0  0  0  0  0  0  0  0  0  0  0
  152.7880  142.6807  161.9001 H   0  0  0  0  0  0  0  0  0  0  0  0
  154.2391  143.0841  160.9697 H   0  0  0  0  0  0  0  0  0  0  0  0
  149.7893  143.1185  155.7334 H   0  0  0  0  0  0  0  0  0  0  0  0
  1  2  1  0  0  0  0
  1 21  1  0  0  0  0
  1 22  1  0  0  0  0
  1 23  1  0  0  0  0
  2 19  1  0  0  0  0
  2  3  2  0  0  0  0
  3  4  1  0  0  0  0
  3 24  1  0  0  0  0
  4 17  2  0  0  0  0
  4  5  1  0  0  0  0
  5  6  2  0  0  0  0
  5 39  1  0  0  0  0
  6  7  1  0  0  0  0
  6 25  1  0  0  0  0
  7  8  1  0  0  0  0
  7 17  1  0  0  0  0
  8  9  1  0  0  0  0
  8 26  1  0  0  0  0
  8 27  1  0  0  0  0
  9 10  1  0  0  0  0
  9 11  1  0  0  0  0
  9 28  1  0  0  0  0
 10 29  1  0  0  0  0
 11 12  1  0  0  0  0
 11 30  1  0  0  0  0
 11 31  1  0  0  0  0
 12 16  1  0  0  0  0
 12 13  1  0  0  0  0
 13 14  2  0  0  0  0
 13 32  1  0  0  0  0
 14 15  1  0  0  0  0
 14 33  1  0  0  0  0
 15 16  2  0  0  0  0
 15 34  1  0  0  0  0
 17 18  1  0  0  0  0
 18 19  2  0  0  0  0
 18 35  1  0  0  0  0
 19 20  1  0  0  0  0
 20 36  1  0  0  0  0
 20 37  1  0  0  0  0
 20 38  1  0  0  0  0
M  CHG  1   5   1
M  END
> <s_m_source_file>
AV-unprocessed.smi

> <i_m_source_file_index>
2997

> <i_lp_mmshare_version>
43012

> <i_f3d_flags>
0

> <s_epik_input>
W0NIM11jKFtjSF0xKWMoW0NIM10pW2NIXWMoYzEyKW4oW2NIXW4yKVtDSDJdW0NASF0oW09IXSlbQ0gyXW4zW2NIXVtjSF1bY0hdbjM=

> <s_epik_cmdline>
J2VwaWtfcHl0aG9uJywgJy1waCcsICc3LjAnLCAnLXRuJywgJzgnLCAnLW1hJywgJzIwMCcsICctbWV0YWxfYmluZGluZycsICctaW1hZScsICc8aW5maWxlLm1hZT4nLCAnLW9tYWUnLCAnPG91dGZpbGUubWFlPic=

> <r_lp_tautomer_probability>
1

> <r_epik_Ionization_Penalty>
1.09215

> <r_epik_Ionization_Penalty_Charging>
1.09214

> <r_epik_Ionization_Penalty_Neutral>
1.42327e-05

> <r_epik_State_Penalty>
1.14852

> <r_epik_Charging_Adjusted_Penalty>
2.24066

> <i_epik_Tot_Q>
1

> <i_epik_Tot_abs_Q>
1

> <r_epik_Metal_State_Penalty>
1.23686

> <b_epik_Metal_Only>
0

> <s_lp_Force_Field>
OPLS_2005

> <r_lp_Energy>
13.1956

> <b_lp_Chiralities_Consistent>
1

> <s_lp_Variant>
AV-unprocessed.smi:2997-3

> <Gold.Version>
5.8.1

> <Gold.Id.Protein>
6NUR|6NUR_protein|mol2

> <Gold.PLP.Fitness>
58.7932

> <Gold.PLP.PLP>
-45.4271

> <Gold.PLP.part.hbond>
-4.0000

> <Gold.PLP.part.metal>
0.0000

> <Gold.PLP.part.buried>
-5.7596

> <Gold.PLP.part.nonpolar>
-37.2357

> <Gold.PLP.part.repulsive>
0.1059

> <Gold.PLP.ligand.clash>
0.0000

> <Gold.PLP.ligand.torsion>
0.7986

> <Gold.PLP.Chemscore.Hbond>
3.9840

> <Gold.PLP.Chemscore.CHOScore>
1.0000

> <Gold.PLP.Chemscore.Metal>
0.0000

> <Gold.Chemscore.Hbonds>
donor molecule, donor type, donor heavy atom, donor atom, acceptor molecule, acceptor atom, score
      L1  H     5    39       P1  8028  1.98
      P1  H  7997  8010       L1    10  1.00
      P1  H 10752 10764       L1    16  0.91
      L1  C    13    32       P1  7948  1.00

> <Gold.PLP.Chemscore.Internal.Correction>
0.0112

> <Gold.Rescore>
     Score         DG    S(hbond)    S(metal)    S(lipo)     H(rot)  DE(clash)    DE(int)     intcor
     21.92     -22.71       2.94        0.00     111.68       2.21       0.19       0.61       ----

> <Gold.Chemscore.Fitness>
21.9161

> <Gold.Chemscore.DG>
-22.7120

> <Gold.Chemscore.ZeroCoef>
-5.4800

> <Gold.Chemscore.Hbond>
2.9433

> <Gold.Chemscore.Metal>
0.0000

> <Gold.Chemscore.Lipo>
111.6779

> <Gold.Chemscore.Internal_Hbond>
0.0000

> <Gold.Chemscore.DEClash>
0.1864

> <Gold.Chemscore.DEInternal>
0.6095

> <Gold.Chemscore.Rot>
2.2129

> <Gold.Chemscore.Internal.Correction>
   9.000000E+99

> <Gold.Chemscore.Hbonds>
donor molecule, donor type, donor heavy atom, donor atom, acceptor molecule, acceptor atom, score
      L1  H     5    39       P1  8028  0.94
      P1  H  7997  8010       L1    10  0.85
      P1  H 10752 10764       L1    16  0.12

> <Gold.Chemscore.Hbond.Weighted>
-9.8306

> <Gold.Chemscore.Metal.Weighted>
-0.0000

> <Gold.Chemscore.Lipo.Weighted>
-13.0663

> <Gold.Chemscore.Internal_Hbond.Weighted>
0.0000

> <Gold.Chemscore.DEClash.Weighted>
0.1864

> <Gold.Chemscore.DEInternal.Weighted>
0.6095

> <Gold.Chemscore.Rot.Weighted>
5.6649

> <Gold.Chemscore.Internal.Correction.Weighted>
   9.000000E+99

> <Gold.Protein.RotatedTorsions>
[ 6907 6896 6895 6894 ] final  148.04 input  -60.11 | X-H torsion
[ 7974 7965 7964 7962 ] final    8.65 input  175.53 | X-H torsion
[ 8008 7997 7996 7995 ] final  117.81 input   59.86 | X-H torsion
[ 10167 10162 10161 10158 ] final -166.93 input  -65.29 | X-H torsion
[ 10718 10713 10712 10709 ] final -177.79 input   66.30 | X-H torsion
[ 10763 10752 10751 10750 ] final  -19.62 input  -60.55 | X-H torsion
[ 11005 11000 10999 10996 ] final  -29.60 input  -57.11 | X-H torsion

> <Gold.Protein.ActiveResidues>
 VAL166  LYS551  ARG553  GLY616  TRP617  ASP618  TYR619  PRO620  LYS621  CYS622 
 ASP623  PHE694  ASN695  SER759  ASP760  ASP761  ALA762  ILE779  LEU786  VAL792 
 PHE793  MET794  SER795  GLU796  ALA797  LYS798  CYS799  TRP800  GLU811  SER814 

> <Gold.Protein.RotatedAtoms>
  152.1468  133.4497  159.4793 H   0  0  0  0  0  0  0  0  0  0  0  0  # atno 6907 bound_to 6896
  150.6891  134.2238  159.4416 H   0  0  0  0  0  0  0  0  0  0  0  0  # atno 6908 bound_to 6896
  152.0133  134.9864  160.0619 H   0  0  0  0  0  0  0  0  0  0  0  0  # atno 6909 bound_to 6896
  146.2413  139.9901  142.8426 H   0  0  0  0  0  0  0  0  0  0  0  0  # atno 7974 bound_to 7965
  156.2514  140.2888  156.0737 H   0  0  0  0  0  0  0  0  0  0  0  0  # atno 8008 bound_to 7997
  155.1643  140.0400  157.2866 H   0  0  0  0  0  0  0  0  0  0  0  0  # atno 8009 bound_to 7997
  154.6371  140.2513  155.7372 H   0  0  0  0  0  0  0  0  0  0  0  0  # atno 8010 bound_to 7997
  139.6082  144.0868  152.1815 H   0  0  0  0  0  0  0  0  0  0  0  0  # atno 10167 bound_to 10162
  156.8347  130.9665  151.3104 H   0  0  0  0  0  0  0  0  0  0  0  0  # atno 10718 bound_to 10713
  153.6076  135.6997  153.5359 H   0  0  0  0  0  0  0  0  0  0  0  0  # atno 10763 bound_to 10752
  153.3044  135.4119  155.1280 H   0  0  0  0  0  0  0  0  0  0  0  0  # atno 10764 bound_to 10752
  154.8570  135.3656  154.5613 H   0  0  0  0  0  0  0  0  0  0  0  0  # atno 10765 bound_to 10752
  140.9311  133.7338  156.0937 H   0  0  0  0  0  0  0  0  0  0  0  0  # atno 11005 bound_to 11000
  145.1511  140.9623  143.4432 LP  0  0  0  0  0  0  0  0  0  0  0  0  # atno 17320 bound_to 7965
  145.0204  139.3429  143.6075 LP  0  0  0  0  0  0  0  0  0  0  0  0  # atno 17321 bound_to 7965
  140.0481  144.5954  150.7358 LP  0  0  0  0  0  0  0  0  0  0  0  0  # atno 17342 bound_to 10162
  140.7300  143.2679  151.3985 LP  0  0  0  0  0  0  0  0  0  0  0  0  # atno 17343 bound_to 10162
  157.6388  130.8788  149.9409 LP  0  0  0  0  0  0  0  0  0  0  0  0  # atno 17370 bound_to 10713
  156.0914  130.3663  150.0388 LP  0  0  0  0  0  0  0  0  0  0  0  0  # atno 17371 bound_to 10713
  140.7862  134.3670  157.5476 LP  0  0  0  0  0  0  0  0  0  0  0  0  # atno 17394 bound_to 11000
  139.8796  134.9112  156.3031 LP  0  0  0  0  0  0  0  0  0  0  0  0  # atno 17395 bound_to 11000

$$$$
