AV-unprocessed.smi:1769|AV-procd|sdf|7154|dock5
  -GOLD-   22720 8393D 1   1.00000     0.00000
 Structure written by MMmdl.
 42 43  0  0  0  0  0  0  0  0  2 V2000
  154.8296  140.2553  160.1648 C   0  0  0  0  0  0  0  0  0  0  0  0
  154.1094  140.8996  161.3514 C   0  0  0  0  0  0  0  0  0  0  0  0
  154.6434  140.8330  162.4590 O   0  0  0  0  0  0  0  0  0  0  0  0
  152.9190  141.5140  161.1496 N   0  0  0  0  0  0  0  0  0  0  0  0
  152.1512  142.2397  162.1698 C   0  0  0  0  0  0  0  0  0  0  0  0
  152.2153  143.7462  161.8588 C   0  0  0  0  0  0  0  0  0  0  0  0
  151.7158  144.0386  160.4303 C   0  0  0  0  0  0  0  0  0  0  0  0
  152.4151  143.1377  159.3856 C   0  0  2  0  0  0  0  0  0  0  0  0
  151.8197  143.3273  157.9856 C   0  0  0  0  0  0  0  0  0  0  0  0
  151.3313  144.4102  157.6604 O   0  0  0  0  0  0  0  0  0  0  0  0
  151.8344  142.2534  157.1792 N   0  0  0  0  0  0  0  0  0  0  0  0
  151.2359  142.1827  155.8483 C   0  0  0  0  0  0  0  0  0  0  0  0
  151.3810  140.7838  155.2159 C   0  0  0  0  0  0  0  0  0  0  0  0
  150.3779  140.5084  154.1083 C   0  0  0  0  0  0  0  0  0  0  0  0
  149.4319  141.4880  153.7307 C   0  0  0  0  0  0  0  0  0  0  0  0
  148.5403  141.2174  152.6721 C   0  0  0  0  0  0  0  0  0  0  0  0
  148.6111  139.9708  152.0174 C   0  0  0  0  0  0  0  0  0  0  0  0
  149.5249  139.0562  152.4099 N   0  3  0  0  0  0  0  0  0  0  0  0
  150.3968  139.2773  153.4180 C   0  0  0  0  0  0  0  0  0  0  0  0
  152.3192  141.6574  159.8181 C   0  0  0  0  0  0  0  0  0  0  0  0
  154.2050  139.4922  159.6995 H   0  0  0  0  0  0  0  0  0  0  0  0
  155.7535  139.7752  160.4898 H   0  0  0  0  0  0  0  0  0  0  0  0
  155.0893  141.0058  159.4179 H   0  0  0  0  0  0  0  0  0  0  0  0
  151.1149  141.8992  162.1462 H   0  0  0  0  0  0  0  0  0  0  0  0
  152.4932  142.0558  163.1872 H   0  0  0  0  0  0  0  0  0  0  0  0
  151.6212  144.3045  162.5826 H   0  0  0  0  0  0  0  0  0  0  0  0
  153.2429  144.0960  161.9664 H   0  0  0  0  0  0  0  0  0  0  0  0
  150.6369  143.8773  160.3987 H   0  0  0  0  0  0  0  0  0  0  0  0
  151.8762  145.0907  160.1914 H   0  0  0  0  0  0  0  0  0  0  0  0
  153.4708  143.4150  159.3514 H   0  0  0  0  0  0  0  0  0  0  0  0
  152.2618  141.4078  157.5295 H   0  0  0  0  0  0  0  0  0  0  0  0
  150.1840  142.4704  155.8856 H   0  0  0  0  0  0  0  0  0  0  0  0
  151.7278  142.9215  155.2151 H   0  0  0  0  0  0  0  0  0  0  0  0
  152.3874  140.6688  154.8120 H   0  0  0  0  0  0  0  0  0  0  0  0
  151.2774  140.0206  155.9883 H   0  0  0  0  0  0  0  0  0  0  0  0
  149.3988  142.4434  154.2339 H   0  0  0  0  0  0  0  0  0  0  0  0
  147.8171  141.9583  152.3637 H   0  0  0  0  0  0  0  0  0  0  0  0
  147.9714  139.6804  151.1969 H   0  0  0  0  0  0  0  0  0  0  0  0
  151.0869  138.4740  153.6307 H   0  0  0  0  0  0  0  0  0  0  0  0
  152.7950  141.0141  159.0765 H   0  0  0  0  0  0  0  0  0  0  0  0
  151.2772  141.3348  159.8603 H   0  0  0  0  0  0  0  0  0  0  0  0
  149.5613  138.1614  151.9214 H   0  0  0  0  0  0  0  0  0  0  0  0
  1  2  1  0  0  0  0
  1 21  1  0  0  0  0
  1 22  1  0  0  0  0
  1 23  1  0  0  0  0
  2  3  2  0  0  0  0
  2  4  1  0  0  0  0
  4 20  1  0  0  0  0
  4  5  1  0  0  0  0
  5  6  1  0  0  0  0
  5 24  1  0  0  0  0
  5 25  1  0  0  0  0
  6  7  1  0  0  0  0
  6 26  1  0  0  0  0
  6 27  1  0  0  0  0
  7  8  1  0  0  0  0
  7 28  1  0  0  0  0
  7 29  1  0  0  0  0
  8  9  1  0  0  0  0
  8 20  1  0  0  0  0
  8 30  1  0  0  0  0
  9 10  2  0  0  0  0
  9 11  1  0  0  0  0
 11 12  1  0  0  0  0
 11 31  1  0  0  0  0
 12 13  1  0  0  0  0
 12 32  1  0  0  0  0
 12 33  1  0  0  0  0
 13 14  1  0  0  0  0
 13 34  1  0  0  0  0
 13 35  1  0  0  0  0
 14 19  1  0  0  0  0
 14 15  2  0  0  0  0
 15 16  1  0  0  0  0
 15 36  1  0  0  0  0
 16 17  2  0  0  0  0
 16 37  1  0  0  0  0
 17 18  1  0  0  0  0
 17 38  1  0  0  0  0
 18 19  2  0  0  0  0
 18 42  1  0  0  0  0
 19 39  1  0  0  0  0
 20 40  1  0  0  0  0
 20 41  1  0  0  0  0
M  CHG  1  18   1
M  END
> <s_m_source_file>
AV-unprocessed.smi

> <i_m_source_file_index>
1769

> <i_lp_mmshare_version>
43012

> <i_f3d_flags>
0

> <s_epik_input>
W0NIM11DKD1PKU4xW0NIMl1bQ0gyXVtDSDJdW0NASF0oW0NIMl0xKUMoPU8pW05IXVtDSDJdW0NIMl1jMltjSF1bY0hdW2NIXW5bY0hdMg==

> <s_epik_cmdline>
J2VwaWtfcHl0aG9uJywgJy1waCcsICc3LjAnLCAnLXRuJywgJzgnLCAnLW1hJywgJzIwMCcsICctbWV0YWxfYmluZGluZycsICctaW1hZScsICc8aW5maWxlLm1hZT4nLCAnLW9tYWUnLCAnPG91dGZpbGUubWFlPic=

> <r_epik_Ionization_Penalty>
2.25127

> <r_epik_Ionization_Penalty_Charging>
2.25127

> <r_epik_Ionization_Penalty_Neutral>
1.02261e-06

> <r_epik_State_Penalty>
2.39841

> <r_epik_Charging_Adjusted_Penalty>
4.64968

> <i_epik_Tot_Q>
1

> <i_epik_Tot_abs_Q>
1

> <r_epik_Metal_State_Penalty>
2.41159

> <b_epik_Metal_Only>
0

> <s_lp_Force_Field>
OPLS_2005

> <r_lp_Energy>
29.6354

> <b_lp_Chiralities_Consistent>
1

> <s_lp_Variant>
AV-unprocessed.smi:1769-4

> <Gold.Version>
5.8.1

> <Gold.Id.Protein>
6NUR|6NUR_protein|mol2

> <Gold.PLP.Fitness>
53.7017

> <Gold.PLP.PLP>
-49.4331

> <Gold.PLP.part.hbond>
-3.0000

> <Gold.PLP.part.metal>
0.0000

> <Gold.PLP.part.buried>
-1.9700

> <Gold.PLP.part.nonpolar>
-44.5990

> <Gold.PLP.part.repulsive>
0.7077

> <Gold.PLP.ligand.clash>
0.0548

> <Gold.PLP.ligand.torsion>
0.8523

> <Gold.PLP.Chemscore.Hbond>
2.0000

> <Gold.PLP.Chemscore.CHOScore>
0.0000

> <Gold.PLP.Chemscore.Metal>
0.0000

> <Gold.Chemscore.Hbonds>
donor molecule, donor type, donor heavy atom, donor atom, acceptor molecule, acceptor atom, score
      L1  H    18    42       P1  7948  1.85

> <Gold.PLP.Chemscore.Internal.Correction>
0.0280

> <Gold.Rescore>
     Score         DG    S(hbond)    S(metal)    S(lipo)     H(rot)  DE(clash)    DE(int)     intcor
     15.57     -17.57       0.95        0.00     111.39       1.61       1.10       0.89       ----

> <Gold.Chemscore.Fitness>
15.5694

> <Gold.Chemscore.DG>
-17.5656

> <Gold.Chemscore.ZeroCoef>
-5.4800

> <Gold.Chemscore.Hbond>
0.9505

> <Gold.Chemscore.Metal>
0.0000

> <Gold.Chemscore.Lipo>
111.3910

> <Gold.Chemscore.Internal_Hbond>
0.0000

> <Gold.Chemscore.DEClash>
1.1045

> <Gold.Chemscore.DEInternal>
0.8917

> <Gold.Chemscore.Rot>
1.6100

> <Gold.Chemscore.Internal.Correction>
   9.000000E+99

> <Gold.Chemscore.Hbonds>
donor molecule, donor type, donor heavy atom, donor atom, acceptor molecule, acceptor atom, score
      L1  H    18    42       P1  7948  0.20

> <Gold.Chemscore.Hbond.Weighted>
-3.1745

> <Gold.Chemscore.Metal.Weighted>
-0.0000

> <Gold.Chemscore.Lipo.Weighted>
-13.0327

> <Gold.Chemscore.Internal_Hbond.Weighted>
0.0000

> <Gold.Chemscore.DEClash.Weighted>
1.1045

> <Gold.Chemscore.DEInternal.Weighted>
0.8917

> <Gold.Chemscore.Rot.Weighted>
4.1216

> <Gold.Chemscore.Internal.Correction.Weighted>
   9.000000E+99

> <Gold.Protein.RotatedTorsions>
[ 6907 6896 6895 6894 ] final   -2.52 input  -60.11 | X-H torsion
[ 7974 7965 7964 7962 ] final   68.86 input  175.53 | X-H torsion
[ 8008 7997 7996 7995 ] final  143.03 input   59.86 | X-H torsion
[ 10167 10162 10161 10158 ] final  115.05 input  -65.29 | X-H torsion
[ 10718 10713 10712 10709 ] final   35.24 input   66.30 | X-H torsion
[ 10763 10752 10751 10750 ] final  110.34 input  -60.55 | X-H torsion
[ 11005 11000 10999 10996 ] final  -76.55 input  -57.11 | X-H torsion

> <Gold.Protein.ActiveResidues>
 VAL166  LYS551  ARG553  GLY616  TRP617  ASP618  TYR619  PRO620  LYS621  CYS622 
 ASP623  PHE694  ASN695  SER759  ASP760  ASP761  ALA762  ILE779  LEU786  VAL792 
 PHE793  MET794  SER795  GLU796  ALA797  LYS798  CYS799  TRP800  GLU811  SER814 

> <Gold.Protein.RotatedAtoms>
  151.5286  135.1068  159.9896 H   0  0  0  0  0  0  0  0  0  0  0  0  # atno 6907 bound_to 6896
  152.4588  133.7776  159.6843 H   0  0  0  0  0  0  0  0  0  0  0  0  # atno 6908 bound_to 6896
  150.8543  133.7675  159.3039 H   0  0  0  0  0  0  0  0  0  0  0  0  # atno 6909 bound_to 6896
  145.7974  139.2965  143.1174 H   0  0  0  0  0  0  0  0  0  0  0  0  # atno 7974 bound_to 7965
  156.2938  140.2273  156.4824 H   0  0  0  0  0  0  0  0  0  0  0  0  # atno 8008 bound_to 7997
  154.7842  140.0458  157.1172 H   0  0  0  0  0  0  0  0  0  0  0  0  # atno 8009 bound_to 7997
  154.9723  140.3068  155.4986 H   0  0  0  0  0  0  0  0  0  0  0  0  # atno 8010 bound_to 7997
  139.6345  144.7118  151.2363 H   0  0  0  0  0  0  0  0  0  0  0  0  # atno 10167 bound_to 10162
  157.3202  130.7444  149.6780 H   0  0  0  0  0  0  0  0  0  0  0  0  # atno 10718 bound_to 10713
  153.4476  135.3751  155.2265 H   0  0  0  0  0  0  0  0  0  0  0  0  # atno 10763 bound_to 10752
  154.8755  135.3878  154.4077 H   0  0  0  0  0  0  0  0  0  0  0  0  # atno 10764 bound_to 10752
  153.4631  135.7087  153.6102 H   0  0  0  0  0  0  0  0  0  0  0  0  # atno 10765 bound_to 10752
  141.1654  133.6988  156.7686 H   0  0  0  0  0  0  0  0  0  0  0  0  # atno 11005 bound_to 11000
  145.9913  140.8600  143.0065 LP  0  0  0  0  0  0  0  0  0  0  0  0  # atno 17320 bound_to 7965
  144.6773  140.2220  143.7365 LP  0  0  0  0  0  0  0  0  0  0  0  0  # atno 17321 bound_to 7965
  140.7457  143.6421  150.8325 LP  0  0  0  0  0  0  0  0  0  0  0  0  # atno 17342 bound_to 10162
  140.0050  143.5703  152.2861 LP  0  0  0  0  0  0  0  0  0  0  0  0  # atno 17343 bound_to 10162
  155.9685  130.4225  150.4520 LP  0  0  0  0  0  0  0  0  0  0  0  0  # atno 17370 bound_to 10713
  157.2535  131.0551  151.2365 LP  0  0  0  0  0  0  0  0  0  0  0  0  # atno 17371 bound_to 10713
  140.2481  134.8562  157.3640 LP  0  0  0  0  0  0  0  0  0  0  0  0  # atno 17394 bound_to 11000
  140.1730  134.4585  155.7820 LP  0  0  0  0  0  0  0  0  0  0  0  0  # atno 17395 bound_to 11000

$$$$
