AV-unprocessed.smi:2032|AV-procd|sdf|8249|dock8
  -GOLD-   2272010523D 1   1.00000     0.00000
 Structure written by MMmdl.
 41 42  0  0  0  0  0  0  0  0  2 V2000
  150.8413  142.5641  157.4132 C   0  0  0  0  0  0  0  0  0  0  0  0
  151.4047  141.6248  158.4849 C   0  0  1  0  0  0  0  0  0  0  0  0
  151.3451  140.1494  158.0502 C   0  0  0  0  0  0  0  0  0  0  0  0
  151.9550  139.2425  159.0270 N   0  0  0  0  0  0  0  0  0  0  0  0
  151.8718  137.8213  158.6142 C   0  0  2  0  0  0  0  0  0  0  0  0
  152.8752  137.4657  157.4871 C   0  0  0  0  0  0  0  0  0  0  0  0
  150.4415  137.3935  158.1703 C   0  0  0  0  0  0  0  0  0  0  0  0
  149.4165  137.6214  159.1867 N   0  0  0  0  0  0  0  0  0  0  0  0
  148.6415  136.6825  159.7481 C   0  0  0  0  0  0  0  0  0  0  0  0
  148.7717  135.5004  159.4213 O   0  0  0  0  0  0  0  0  0  0  0  0
  147.7603  137.1733  160.6491 N   0  5  0  0  0  0  0  0  0  0  0  0
  146.9419  136.3407  161.3127 C   0  0  0  0  0  0  0  0  0  0  0  0
  145.7182  136.6937  161.7230 N   0  0  0  0  0  0  0  0  0  0  0  0
  145.0369  135.6692  162.3826 C   0  0  0  0  0  0  0  0  0  0  0  0
  145.7549  134.5058  162.4683 C   0  0  0  0  0  0  0  0  0  0  0  0
  147.3185  134.6639  161.7202 S   0  0  0  0  0  0  0  0  0  0  0  0
  153.3346  139.6883  159.2533 C   0  0  0  0  0  0  0  0  0  0  0  0
  153.4441  141.1702  159.6637 C   0  0  2  0  0  0  0  0  0  0  0  0
  152.9872  141.4369  161.1086 C   0  0  0  0  0  0  0  0  0  0  0  0
  152.7570  141.9971  158.7274 O   0  0  0  0  0  0  0  0  0  0  0  0
  149.7985  142.3319  157.1955 H   0  0  0  0  0  0  0  0  0  0  0  0
  151.4038  142.4837  156.4825 H   0  0  0  0  0  0  0  0  0  0  0  0
  150.8882  143.6025  157.7418 H   0  0  0  0  0  0  0  0  0  0  0  0
  150.8212  141.7588  159.3960 H   0  0  0  0  0  0  0  0  0  0  0  0
  150.2946  139.9062  157.9042 H   0  0  0  0  0  0  0  0  0  0  0  0
  151.8349  140.0310  157.0823 H   0  0  0  0  0  0  0  0  0  0  0  0
  152.1372  137.2090  159.4773 H   0  0  0  0  0  0  0  0  0  0  0  0
  152.7729  136.4362  157.1460 H   0  0  0  0  0  0  0  0  0  0  0  0
  153.9108  137.5496  157.8133 H   0  0  0  0  0  0  0  0  0  0  0  0
  152.7388  138.1123  156.6198 H   0  0  0  0  0  0  0  0  0  0  0  0
  150.1138  137.9247  157.2780 H   0  0  0  0  0  0  0  0  0  0  0  0
  150.4341  136.3329  157.9180 H   0  0  0  0  0  0  0  0  0  0  0  0
  149.2778  138.5749  159.4869 H   0  0  0  0  0  0  0  0  0  0  0  0
  144.0414  135.8557  162.7573 H   0  0  0  0  0  0  0  0  0  0  0  0
  145.4615  133.5707  162.9211 H   0  0  0  0  0  0  0  0  0  0  0  0
  153.8111  139.1048  160.0380 H   0  0  0  0  0  0  0  0  0  0  0  0
  153.9193  139.5271  158.3461 H   0  0  0  0  0  0  0  0  0  0  0  0
  154.4948  141.4552  159.6070 H   0  0  0  0  0  0  0  0  0  0  0  0
  153.6063  140.8868  161.8177 H   0  0  0  0  0  0  0  0  0  0  0  0
  151.9546  141.1314  161.2764 H   0  0  0  0  0  0  0  0  0  0  0  0
  153.0667  142.4964  161.3528 H   0  0  0  0  0  0  0  0  0  0  0  0
  1  2  1  0  0  0  0
  1 21  1  0  0  0  0
  1 22  1  0  0  0  0
  1 23  1  0  0  0  0
  2 20  1  0  0  0  0
  2  3  1  0  0  0  0
  2 24  1  0  0  0  0
  3  4  1  0  0  0  0
  3 25  1  0  0  0  0
  3 26  1  0  0  0  0
  4  5  1  0  0  0  0
  4 17  1  0  0  0  0
  5  6  1  0  0  0  0
  5  7  1  0  0  0  0
  5 27  1  0  0  0  0
  6 28  1  0  0  0  0
  6 29  1  0  0  0  0
  6 30  1  0  0  0  0
  7  8  1  0  0  0  0
  7 31  1  0  0  0  0
  7 32  1  0  0  0  0
  8  9  1  0  0  0  0
  8 33  1  0  0  0  0
  9 10  2  0  0  0  0
  9 11  1  0  0  0  0
 11 12  1  0  0  0  0
 12 16  1  0  0  0  0
 12 13  2  0  0  0  0
 13 14  1  0  0  0  0
 14 15  2  0  0  0  0
 14 34  1  0  0  0  0
 15 16  1  0  0  0  0
 15 35  1  0  0  0  0
 17 18  1  0  0  0  0
 17 36  1  0  0  0  0
 17 37  1  0  0  0  0
 18 19  1  0  0  0  0
 18 20  1  0  0  0  0
 18 38  1  0  0  0  0
 19 39  1  0  0  0  0
 19 40  1  0  0  0  0
 19 41  1  0  0  0  0
M  CHG  1  11  -1
M  END
> <s_m_source_file>
AV-unprocessed.smi

> <i_m_source_file_index>
2032

> <i_lp_mmshare_version>
43012

> <i_f3d_flags>
0

> <s_epik_input>
W0NIM11bQ0BASF0xW0NIMl1OKFtDSDJdW0NASF0oTzEpW0NIM10pW0NASF0oW0NIM10pW0NIMl1bTkhdQyg9TylbTkhdYzJuW2NIXVtjSF1zMg==

> <s_epik_cmdline>
J2VwaWtfcHl0aG9uJywgJy1waCcsICc3LjAnLCAnLXRuJywgJzgnLCAnLW1hJywgJzIwMCcsICctbWV0YWxfYmluZGluZycsICctaW1hZScsICc8aW5maWxlLm1hZT4nLCAnLW9tYWUnLCAnPG91dGZpbGUubWFlPic=

> <r_lp_tautomer_probability>
0.999

> <r_epik_Ionization_Penalty>
7.22375

> <r_epik_Ionization_Penalty_Charging>
5.82415

> <r_epik_Ionization_Penalty_Neutral>
1.39959

> <r_epik_State_Penalty>
6.03347

> <r_epik_Charging_Adjusted_Penalty>
11.8576

> <i_epik_Tot_Q>
-1

> <i_epik_Tot_abs_Q>
1

> <r_epik_Metal_State_Penalty>
2.01024

> <b_epik_Metal_Only>
1

> <s_lp_Force_Field>
OPLS_2005

> <r_lp_Energy>
25.9518

> <b_lp_Chiralities_Consistent>
1

> <s_lp_Variant>
AV-unprocessed.smi:2032-19

> <Gold.Version>
5.8.1

> <Gold.Id.Protein>
6NUR|6NUR_protein|mol2

> <Gold.PLP.Fitness>
45.2406

> <Gold.PLP.PLP>
-32.6676

> <Gold.PLP.part.hbond>
-3.0000

> <Gold.PLP.part.metal>
0.0000

> <Gold.PLP.part.buried>
-5.0532

> <Gold.PLP.part.nonpolar>
-25.6107

> <Gold.PLP.part.repulsive>
0.2390

> <Gold.PLP.ligand.clash>
0.0000

> <Gold.PLP.ligand.torsion>
0.3378

> <Gold.PLP.Chemscore.Hbond>
4.3920

> <Gold.PLP.Chemscore.CHOScore>
0.0000

> <Gold.PLP.Chemscore.Metal>
0.0000

> <Gold.Chemscore.Hbonds>
donor molecule, donor type, donor heavy atom, donor atom, acceptor molecule, acceptor atom, score
      P1  H  6896  6907       L1    10  0.76
      P1  H  6931  6943       L1    11  1.38
      P1  H  6934  6947       L1    11  1.79

> <Gold.PLP.Chemscore.Internal.Correction>
0.0725

> <Gold.Rescore>
     Score         DG    S(hbond)    S(metal)    S(lipo)     H(rot)  DE(clash)    DE(int)     intcor
     16.25     -17.85       1.99        0.00      82.65       1.54       0.02       1.58       ----

> <Gold.Chemscore.Fitness>
16.2464

> <Gold.Chemscore.DG>
-17.8464

> <Gold.Chemscore.ZeroCoef>
-5.4800

> <Gold.Chemscore.Hbond>
1.9899

> <Gold.Chemscore.Metal>
0.0000

> <Gold.Chemscore.Lipo>
82.6528

> <Gold.Chemscore.Internal_Hbond>
0.0000

> <Gold.Chemscore.DEClash>
0.0247

> <Gold.Chemscore.DEInternal>
1.5753

> <Gold.Chemscore.Rot>
1.5431

> <Gold.Chemscore.Internal.Correction>
   9.000000E+99

> <Gold.Chemscore.Hbonds>
donor molecule, donor type, donor heavy atom, donor atom, acceptor molecule, acceptor atom, score
      P1  H  6896  6907       L1    10  0.75
      P1  H  6931  6943       L1    11  0.18
      P1  H  6934  6947       L1    11  0.65

> <Gold.Chemscore.Hbond.Weighted>
-6.6463

> <Gold.Chemscore.Metal.Weighted>
-0.0000

> <Gold.Chemscore.Lipo.Weighted>
-9.6704

> <Gold.Chemscore.Internal_Hbond.Weighted>
0.0000

> <Gold.Chemscore.DEClash.Weighted>
0.0247

> <Gold.Chemscore.DEInternal.Weighted>
1.5753

> <Gold.Chemscore.Rot.Weighted>
3.9503

> <Gold.Chemscore.Internal.Correction.Weighted>
   9.000000E+99

> <Gold.Protein.RotatedTorsions>
[ 6907 6896 6895 6894 ] final  -75.19 input  -60.11 | X-H torsion
[ 7974 7965 7964 7962 ] final -156.25 input  175.53 | X-H torsion
[ 8008 7997 7996 7995 ] final   88.40 input   59.86 | X-H torsion
[ 10167 10162 10161 10158 ] final   64.24 input  -65.29 | X-H torsion
[ 10718 10713 10712 10709 ] final -119.92 input   66.30 | X-H torsion
[ 10763 10752 10751 10750 ] final  -73.90 input  -60.55 | X-H torsion
[ 11005 11000 10999 10996 ] final  -96.82 input  -57.11 | X-H torsion

> <Gold.Protein.ActiveResidues>
 VAL166  LYS551  ARG553  GLY616  TRP617  ASP618  TYR619  PRO620  LYS621  CYS622 
 ASP623  PHE694  ASN695  SER759  ASP760  ASP761  ALA762  ILE779  LEU786  VAL792 
 PHE793  MET794  SER795  GLU796  ALA797  LYS798  CYS799  TRP800  GLU811  SER814 

> <Gold.Protein.RotatedAtoms>
  150.7067  134.4758  159.5446 H   0  0  0  0  0  0  0  0  0  0  0  0  # atno 6907 bound_to 6896
  152.2405  134.8230  160.0470 H   0  0  0  0  0  0  0  0  0  0  0  0  # atno 6908 bound_to 6896
  151.9014  133.3504  159.3869 H   0  0  0  0  0  0  0  0  0  0  0  0  # atno 6909 bound_to 6896
  144.7601  140.4135  143.5982 H   0  0  0  0  0  0  0  0  0  0  0  0  # atno 7974 bound_to 7965
  155.9872  140.3372  155.6719 H   0  0  0  0  0  0  0  0  0  0  0  0  # atno 8008 bound_to 7997
  155.6469  140.0701  157.2618 H   0  0  0  0  0  0  0  0  0  0  0  0  # atno 8009 bound_to 7997
  154.4209  140.1732  156.1620 H   0  0  0  0  0  0  0  0  0  0  0  0  # atno 8010 bound_to 7997
  140.1243  144.4702  150.6902 H   0  0  0  0  0  0  0  0  0  0  0  0  # atno 10167 bound_to 10162
  156.1218  130.6329  150.9476 H   0  0  0  0  0  0  0  0  0  0  0  0  # atno 10718 bound_to 10713
  154.4657  135.5882  153.6286 H   0  0  0  0  0  0  0  0  0  0  0  0  # atno 10763 bound_to 10752
  152.9828  135.6054  154.3430 H   0  0  0  0  0  0  0  0  0  0  0  0  # atno 10764 bound_to 10752
  154.3306  135.2842  155.2452 H   0  0  0  0  0  0  0  0  0  0  0  0  # atno 10765 bound_to 10752
  141.1399  133.8125  157.0623 H   0  0  0  0  0  0  0  0  0  0  0  0  # atno 11005 bound_to 11000
  145.6646  139.1587  143.2789 LP  0  0  0  0  0  0  0  0  0  0  0  0  # atno 17320 bound_to 7965
  146.1656  140.6723  142.9257 LP  0  0  0  0  0  0  0  0  0  0  0  0  # atno 17321 bound_to 7965
  140.6854  143.2347  151.5274 LP  0  0  0  0  0  0  0  0  0  0  0  0  # atno 17342 bound_to 10162
  139.5552  144.2293  152.1600 LP  0  0  0  0  0  0  0  0  0  0  0  0  # atno 17343 bound_to 10162
  157.6401  131.0911  150.8268 LP  0  0  0  0  0  0  0  0  0  0  0  0  # atno 17370 bound_to 10713
  156.8364  130.5033  149.5326 LP  0  0  0  0  0  0  0  0  0  0  0  0  # atno 17371 bound_to 10713
  140.0564  134.9778  157.1227 LP  0  0  0  0  0  0  0  0  0  0  0  0  # atno 17394 bound_to 11000
  140.3914  134.2181  155.7166 LP  0  0  0  0  0  0  0  0  0  0  0  0  # atno 17395 bound_to 11000

$$$$
