AV-unprocessed.smi:197|AV-procd|sdf|1547|dock1
  -GOLD-   2262019413D 1   1.00000     0.00000
 Structure written by MMmdl.
 54 57  0  0  0  0  0  0  0  0  1 V2000
  152.6289  143.6854  158.8282 C   0  0  0  0  0  0  0  0  0  0  0  0
  152.3331  143.7563  160.2116 O   0  0  0  0  0  0  0  0  0  0  0  0
  152.9906  142.7480  160.9612 C   0  0  0  0  0  0  0  0  0  0  0  0
  152.4818  141.3690  160.5142 C   0  0  0  0  0  0  0  0  0  0  0  0
  153.4108  140.6330  159.5113 C   0  0  1  0  0  0  0  0  0  0  0  0
  154.8369  140.4821  160.0949 C   0  0  0  0  0  0  0  0  0  0  0  0
  155.6727  139.7465  159.2097 O   0  0  0  0  0  0  0  0  0  0  0  0
  155.1877  138.4280  159.0031 C   0  0  0  0  0  0  0  0  0  0  0  0
  153.8085  138.5095  158.3389 C   0  0  0  0  0  0  0  0  0  0  0  0
  152.8927  139.3042  159.1516 N   0  0  0  0  0  0  0  0  0  0  0  0
  151.6454  139.2361  158.6263 C   0  0  0  0  0  0  0  0  0  0  0  0
  150.7822  138.2635  159.0245 N   0  0  0  0  0  0  0  0  0  0  0  0
  149.5456  138.2181  158.5198 C   0  0  0  0  0  0  0  0  0  0  0  0
  148.9754  139.0365  157.6326 N   0  0  0  0  0  0  0  0  0  0  0  0
  149.8356  140.0203  157.2415 C   0  0  0  0  0  0  0  0  0  0  0  0
  151.1765  140.1908  157.6851 C   0  0  0  0  0  0  0  0  0  0  0  0
  151.7461  141.2984  157.0708 N   0  0  0  0  0  0  0  0  0  0  0  0
  150.7928  141.7604  156.3080 C   0  0  0  0  0  0  0  0  0  0  0  0
  149.6088  141.0586  156.3551 N   0  0  0  0  0  0  0  0  0  0  0  0
  148.3885  141.3578  155.6221 C   0  0  0  0  0  0  0  0  0  0  0  0
  148.3057  140.6377  154.2552 C   0  0  2  0  0  0  0  0  0  0  0  0
  149.4209  141.0320  153.4706 O   0  0  0  0  0  0  0  0  0  0  0  0
  147.0353  140.9337  153.4719 C   0  0  0  0  0  0  0  0  0  0  0  0
  146.9283  139.7265  152.5486 C   0  0  0  0  0  0  0  0  0  0  0  0
  147.4018  138.6326  153.3239 O   0  0  0  0  0  0  0  0  0  0  0  0
  148.2412  139.0994  154.3798 C   0  0  1  0  0  0  0  0  0  0  0  0
  149.5846  138.3523  154.3860 C   0  0  0  0  0  0  0  0  0  0  0  0
  152.1036  144.4811  158.3001 H   0  0  0  0  0  0  0  0  0  0  0  0
  152.3084  142.7323  158.4054 H   0  0  0  0  0  0  0  0  0  0  0  0
  153.6973  143.8086  158.6461 H   0  0  0  0  0  0  0  0  0  0  0  0
  154.0720  142.8261  160.8478 H   0  0  0  0  0  0  0  0  0  0  0  0
  152.7743  142.8849  162.0219 H   0  0  0  0  0  0  0  0  0  0  0  0
  152.3311  140.7407  161.3928 H   0  0  0  0  0  0  0  0  0  0  0  0
  151.4904  141.5183  160.0875 H   0  0  0  0  0  0  0  0  0  0  0  0
  153.4828  141.2214  158.5954 H   0  0  0  0  0  0  0  0  0  0  0  0
  155.2988  141.4573  160.2436 H   0  0  0  0  0  0  0  0  0  0  0  0
  154.8111  139.9913  161.0694 H   0  0  0  0  0  0  0  0  0  0  0  0
  155.8835  137.8885  158.3604 H   0  0  0  0  0  0  0  0  0  0  0  0
  155.1374  137.8864  159.9492 H   0  0  0  0  0  0  0  0  0  0  0  0
  153.9007  138.9610  157.3497 H   0  0  0  0  0  0  0  0  0  0  0  0
  153.4142  137.5021  158.1964 H   0  0  0  0  0  0  0  0  0  0  0  0
  148.9230  137.4132  158.8814 H   0  0  0  0  0  0  0  0  0  0  0  0
  150.9253  142.6376  155.6912 H   0  0  0  0  0  0  0  0  0  0  0  0
  147.5357  141.0877  156.2466 H   0  0  0  0  0  0  0  0  0  0  0  0
  148.3343  142.4384  155.4838 H   0  0  0  0  0  0  0  0  0  0  0  0
  149.4963  140.4393  152.7387 H   0  0  0  0  0  0  0  0  0  0  0  0
  146.1750  140.9471  154.1422 H   0  0  0  0  0  0  0  0  0  0  0  0
  147.0579  141.8840  152.9365 H   0  0  0  0  0  0  0  0  0  0  0  0
  145.9115  139.5564  152.1944 H   0  0  0  0  0  0  0  0  0  0  0  0
  147.5752  139.8506  151.6791 H   0  0  0  0  0  0  0  0  0  0  0  0
  147.7105  138.8484  155.2991 H   0  0  0  0  0  0  0  0  0  0  0  0
  150.2297  138.7122  155.1879 H   0  0  0  0  0  0  0  0  0  0  0  0
  150.1174  138.4713  153.4423 H   0  0  0  0  0  0  0  0  0  0  0  0
  149.4298  137.2843  154.5397 H   0  0  0  0  0  0  0  0  0  0  0  0
  1  2  1  0  0  0  0
  1 28  1  0  0  0  0
  1 29  1  0  0  0  0
  1 30  1  0  0  0  0
  2  3  1  0  0  0  0
  3  4  1  0  0  0  0
  3 31  1  0  0  0  0
  3 32  1  0  0  0  0
  4  5  1  0  0  0  0
  4 33  1  0  0  0  0
  4 34  1  0  0  0  0
  5 10  1  0  0  0  0
  5  6  1  0  0  0  0
  5 35  1  0  0  0  0
  6  7  1  0  0  0  0
  6 36  1  0  0  0  0
  6 37  1  0  0  0  0
  7  8  1  0  0  0  0
  8  9  1  0  0  0  0
  8 38  1  0  0  0  0
  8 39  1  0  0  0  0
  9 10  1  0  0  0  0
  9 40  1  0  0  0  0
  9 41  1  0  0  0  0
 10 11  1  0  0  0  0
 11 16  1  0  0  0  0
 11 12  2  0  0  0  0
 12 13  1  0  0  0  0
 13 14  2  0  0  0  0
 13 42  1  0  0  0  0
 14 15  1  0  0  0  0
 15 19  1  0  0  0  0
 15 16  2  0  0  0  0
 16 17  1  0  0  0  0
 17 18  2  0  0  0  0
 18 19  1  0  0  0  0
 18 43  1  0  0  0  0
 19 20  1  0  0  0  0
 20 21  1  0  0  0  0
 20 44  1  0  0  0  0
 20 45  1  0  0  0  0
 21 26  1  0  0  0  0
 21 22  1  0  0  0  0
 21 23  1  0  0  0  0
 22 46  1  0  0  0  0
 23 24  1  0  0  0  0
 23 47  1  0  0  0  0
 23 48  1  0  0  0  0
 24 25  1  0  0  0  0
 24 49  1  0  0  0  0
 24 50  1  0  0  0  0
 25 26  1  0  0  0  0
 26 27  1  0  0  0  0
 26 51  1  0  0  0  0
 27 52  1  0  0  0  0
 27 53  1  0  0  0  0
 27 54  1  0  0  0  0
M  END
> <s_m_source_file>
AV-unprocessed.smi

> <i_m_source_file_index>
197

> <i_lp_mmshare_version>
43012

> <i_f3d_flags>
0

> <s_epik_input>
W0NIM11PW0NIMl1bQ0gyXVtDQEBIXTFbQ0gyXU9bQ0gyXVtDSDJdTjFjKG5bY0hdbjIpYyhjMjMpbltjSF1uM1tDSDJdW0NAQF00KFtPSF0pW0NIMl1bQ0gyXU9bQ0BIXTRbQ0gzXQ==

> <s_epik_cmdline>
J2VwaWtfcHl0aG9uJywgJy1waCcsICc3LjAnLCAnLXRuJywgJzgnLCAnLW1hJywgJzIwMCcsICctbWV0YWxfYmluZGluZycsICctaW1hZScsICc8aW5maWxlLm1hZT4nLCAnLW9tYWUnLCAnPG91dGZpbGUubWFlPic=

> <r_lp_tautomer_probability>
1

> <r_epik_Ionization_Penalty>
0.000106218

> <r_epik_Ionization_Penalty_Charging>
0

> <r_epik_Ionization_Penalty_Neutral>
0.000106218

> <r_epik_State_Penalty>
-0

> <r_epik_Charging_Adjusted_Penalty>
0

> <i_epik_Tot_Q>
0

> <i_epik_Tot_abs_Q>
0

> <r_epik_Metal_State_Penalty>
-0

> <b_epik_Metal_Only>
0

> <s_lp_Force_Field>
OPLS_2005

> <r_lp_Energy>
42.2665

> <b_lp_Chiralities_Consistent>
1

> <s_lp_Variant>
AV-unprocessed.smi:197-4

> <Gold.Version>
5.8.1

> <Gold.Id.Protein>
6NUR|6NUR_protein|mol2

> <Gold.PLP.Fitness>
48.0705

> <Gold.PLP.PLP>
-41.6988

> <Gold.PLP.part.hbond>
-3.8639

> <Gold.PLP.part.metal>
0.0000

> <Gold.PLP.part.buried>
-4.7006

> <Gold.PLP.part.nonpolar>
-33.8277

> <Gold.PLP.part.repulsive>
0.2429

> <Gold.PLP.ligand.clash>
0.0000

> <Gold.PLP.ligand.torsion>
1.2869

> <Gold.PLP.Chemscore.Hbond>
2.8059

> <Gold.PLP.Chemscore.CHOScore>
0.0000

> <Gold.PLP.Chemscore.Metal>
0.0000

> <Gold.Chemscore.Hbonds>
donor molecule, donor type, donor heavy atom, donor atom, acceptor molecule, acceptor atom, score
      L1  H    22    46       P1  7957  1.00
      P1  H  7989  7998       L1    22  0.02
      P1  H  7997  8008       L1     7  0.55
      P1  H  8011  8017       L1    22  0.40
      L1  C    18    43       P1  8028  0.05

> <Gold.PLP.Chemscore.Internal.Correction>
0.5279

> <Gold.Rescore>
     Score         DG    S(hbond)    S(metal)    S(lipo)     H(rot)  DE(clash)    DE(int)     intcor
     12.16     -13.48       1.10        0.00      99.08       2.84       0.22       1.10       ----

> <Gold.Chemscore.Fitness>
12.1586

> <Gold.Chemscore.DG>
-13.4829

> <Gold.Chemscore.ZeroCoef>
-5.4800

> <Gold.Chemscore.Hbond>
1.0989

> <Gold.Chemscore.Metal>
0.0000

> <Gold.Chemscore.Lipo>
99.0788

> <Gold.Chemscore.Internal_Hbond>
0.0000

> <Gold.Chemscore.DEClash>
0.2203

> <Gold.Chemscore.DEInternal>
1.1039

> <Gold.Chemscore.Rot>
2.8358

> <Gold.Chemscore.Internal.Correction>
   9.000000E+99

> <Gold.Chemscore.Hbonds>
donor molecule, donor type, donor heavy atom, donor atom, acceptor molecule, acceptor atom, score
      L1  H    22    46       P1  7957  0.97
      P1  H  7997  8008       L1     7  0.03
      P1  H  8011  8017       L1    22  0.01

> <Gold.Chemscore.Hbond.Weighted>
-3.6702

> <Gold.Chemscore.Metal.Weighted>
-0.0000

> <Gold.Chemscore.Lipo.Weighted>
-11.5922

> <Gold.Chemscore.Internal_Hbond.Weighted>
0.0000

> <Gold.Chemscore.DEClash.Weighted>
0.2203

> <Gold.Chemscore.DEInternal.Weighted>
1.1039

> <Gold.Chemscore.Rot.Weighted>
7.2596

> <Gold.Chemscore.Internal.Correction.Weighted>
   9.000000E+99

> <Gold.Protein.RotatedTorsions>
[ 6907 6896 6895 6894 ] final -147.73 input  -60.11 | X-H torsion
[ 7974 7965 7964 7962 ] final   38.70 input  175.53 | X-H torsion
[ 8008 7997 7996 7995 ] final -154.06 input   59.86 | X-H torsion
[ 10167 10162 10161 10158 ] final   75.28 input  -65.29 | X-H torsion
[ 10718 10713 10712 10709 ] final  129.15 input   66.30 | X-H torsion
[ 10763 10752 10751 10750 ] final   26.24 input  -60.55 | X-H torsion
[ 11005 11000 10999 10996 ] final -111.07 input  -57.11 | X-H torsion

> <Gold.Protein.ActiveResidues>
 VAL166  LYS551  ARG553  GLY616  TRP617  ASP618  TYR619  PRO620  LYS621  CYS622 
 ASP623  PHE694  ASN695  SER759  ASP760  ASP761  ALA762  ILE779  LEU786  VAL792 
 PHE793  MET794  SER795  GLU796  ALA797  LYS798  CYS799  TRP800  GLU811  SER814 

> <Gold.Protein.RotatedAtoms>
  151.1598  133.4852  159.2594 H   0  0  0  0  0  0  0  0  0  0  0  0  # atno 6907 bound_to 6896
  151.1466  135.0206  159.8659 H   0  0  0  0  0  0  0  0  0  0  0  0  # atno 6908 bound_to 6896
  152.5463  134.1486  159.8562 H   0  0  0  0  0  0  0  0  0  0  0  0  # atno 6909 bound_to 6896
  146.1041  139.5740  142.9395 H   0  0  0  0  0  0  0  0  0  0  0  0  # atno 7974 bound_to 7965
  155.6805  140.0744  157.2486 H   0  0  0  0  0  0  0  0  0  0  0  0  # atno 8008 bound_to 7997
  154.4106  140.1682  156.2029 H   0  0  0  0  0  0  0  0  0  0  0  0  # atno 8009 bound_to 7997
  155.9538  140.3375  155.6434 H   0  0  0  0  0  0  0  0  0  0  0  0  # atno 8010 bound_to 7997
  140.0046  144.5660  150.7709 H   0  0  0  0  0  0  0  0  0  0  0  0  # atno 10167 bound_to 10162
  157.5181  131.1098  150.9195 H   0  0  0  0  0  0  0  0  0  0  0  0  # atno 10718 bound_to 10713
  153.0636  135.6565  154.0406 H   0  0  0  0  0  0  0  0  0  0  0  0  # atno 10763 bound_to 10752
  154.0068  135.2932  155.3398 H   0  0  0  0  0  0  0  0  0  0  0  0  # atno 10764 bound_to 10752
  154.6984  135.5254  153.8560 H   0  0  0  0  0  0  0  0  0  0  0  0  # atno 10765 bound_to 10752
  141.0755  133.9308  157.2398 H   0  0  0  0  0  0  0  0  0  0  0  0  # atno 11005 bound_to 11000
  145.5795  141.0384  143.2130 LP  0  0  0  0  0  0  0  0  0  0  0  0  # atno 17320 bound_to 7965
  144.7457  139.7328  143.7293 LP  0  0  0  0  0  0  0  0  0  0  0  0  # atno 17321 bound_to 7965
  140.7405  143.2806  151.3611 LP  0  0  0  0  0  0  0  0  0  0  0  0  # atno 17342 bound_to 10162
  139.6247  144.0837  152.2424 LP  0  0  0  0  0  0  0  0  0  0  0  0  # atno 17343 bound_to 10162
  156.9814  130.5528  149.5296 LP  0  0  0  0  0  0  0  0  0  0  0  0  # atno 17370 bound_to 10713
  156.0334  130.5423  150.8592 LP  0  0  0  0  0  0  0  0  0  0  0  0  # atno 17371 bound_to 10713
  139.9567  135.0164  156.9149 LP  0  0  0  0  0  0  0  0  0  0  0  0  # atno 17394 bound_to 11000
  140.5582  134.0561  155.7390 LP  0  0  0  0  0  0  0  0  0  0  0  0  # atno 17395 bound_to 11000

$$$$
