AV-unprocessed.smi:100|AV-procd|sdf|906|dock9
  -GOLD-   2262017403D 1   1.00000     0.00000
 Structure written by MMmdl.
 31 33  0  0  0  0  0  0  0  0  1 V2000
  153.8089  142.3246  160.5004 N   0  0  0  0  0  0  0  0  0  0  0  0
  153.0986  142.7264  159.4372 C   0  0  0  0  0  0  0  0  0  0  0  0
  153.1711  144.0273  159.0701 N   0  0  0  0  0  0  0  0  0  0  0  0
  152.4722  144.4522  158.0125 C   0  0  0  0  0  0  0  0  0  0  0  0
  151.6636  143.7544  157.2107 N   0  0  0  0  0  0  0  0  0  0  0  0
  151.5913  142.4432  157.5821 C   0  0  0  0  0  0  0  0  0  0  0  0
  152.2768  141.8535  158.6802 C   0  0  0  0  0  0  0  0  0  0  0  0
  151.9686  140.5023  158.7598 N   0  0  0  0  0  0  0  0  0  0  0  0
  151.1456  140.3093  157.7643 C   0  0  0  0  0  0  0  0  0  0  0  0
  150.8657  141.4225  157.0017 N   0  0  0  0  0  0  0  0  0  0  0  0
  149.9683  141.5042  155.8097 C   0  0  1  0  0  0  0  0  0  0  0  0
  150.3249  140.4886  154.9221 O   0  0  0  0  0  0  0  0  0  0  0  0
  149.1579  139.9837  154.2709 C   0  0  1  0  0  0  0  0  0  0  0  0
  149.1025  138.4469  154.3882 C   0  0  0  0  0  0  0  0  0  0  0  0
  150.1287  137.8028  153.6615 O   0  0  0  0  0  0  0  0  0  0  0  0
  147.9641  140.7501  154.8614 C   0  0  2  0  0  0  0  0  0  0  0  0
  147.7004  141.7757  154.0460 F   0  0  0  0  0  0  0  0  0  0  0  0
  148.5109  141.2497  156.1910 C   0  0  2  0  0  0  0  0  0  0  0  0
  147.8207  142.4079  156.6177 O   0  0  0  0  0  0  0  0  0  0  0  0
  153.7717  141.3590  160.7937 H   0  0  0  0  0  0  0  0  0  0  0  0
  154.3794  142.9872  161.0050 H   0  0  0  0  0  0  0  0  0  0  0  0
  152.5749  145.5004  157.7735 H   0  0  0  0  0  0  0  0  0  0  0  0
  150.7181  139.3393  157.5552 H   0  0  0  0  0  0  0  0  0  0  0  0
  150.1466  142.4820  155.3579 H   0  0  0  0  0  0  0  0  0  0  0  0
  149.2594  140.2256  153.2117 H   0  0  0  0  0  0  0  0  0  0  0  0
  149.2222  138.1599  155.4330 H   0  0  0  0  0  0  0  0  0  0  0  0
  148.1307  138.0710  154.0671 H   0  0  0  0  0  0  0  0  0  0  0  0
  149.7357  137.3204  152.9501 H   0  0  0  0  0  0  0  0  0  0  0  0
  147.0501  140.1624  154.9524 H   0  0  0  0  0  0  0  0  0  0  0  0
  148.4543  140.4659  156.9471 H   0  0  0  0  0  0  0  0  0  0  0  0
  148.2885  143.1664  156.3033 H   0  0  0  0  0  0  0  0  0  0  0  0
  1  2  1  0  0  0  0
  1 20  1  0  0  0  0
  1 21  1  0  0  0  0
  2  7  1  0  0  0  0
  2  3  2  0  0  0  0
  3  4  1  0  0  0  0
  4  5  2  0  0  0  0
  4 22  1  0  0  0  0
  5  6  1  0  0  0  0
  6 10  1  0  0  0  0
  6  7  2  0  0  0  0
  7  8  1  0  0  0  0
  8  9  2  0  0  0  0
  9 10  1  0  0  0  0
  9 23  1  0  0  0  0
 10 11  1  0  0  0  0
 11 18  1  0  0  0  0
 11 12  1  0  0  0  0
 11 24  1  0  0  0  0
 12 13  1  0  0  0  0
 13 14  1  0  0  0  0
 13 16  1  0  0  0  0
 13 25  1  0  0  0  0
 14 15  1  0  0  0  0
 14 26  1  0  0  0  0
 14 27  1  0  0  0  0
 15 28  1  0  0  0  0
 16 17  1  0  0  0  0
 16 18  1  0  0  0  0
 16 29  1  0  0  0  0
 18 19  1  0  0  0  0
 18 30  1  0  0  0  0
 19 31  1  0  0  0  0
M  END
> <s_m_source_file>
AV-unprocessed.smi

> <i_m_source_file_index>
100

> <i_lp_mmshare_version>
43012

> <i_f3d_flags>
0

> <s_epik_input>
bjFbY0hdbmMoW05IMl0pYyhjMTIpbltjSF1uMltDQEBIXTNPW0NAQEhdKFtDSDJdW09IXSlbQ0BIXShGKVtDQEhdM1tPSF0=

> <s_epik_cmdline>
J2VwaWtfcHl0aG9uJywgJy1waCcsICc3LjAnLCAnLXRuJywgJzgnLCAnLW1hJywgJzIwMCcsICctbWV0YWxfYmluZGluZycsICctaW1hZScsICc8aW5maWxlLm1hZT4nLCAnLW9tYWUnLCAnPG91dGZpbGUubWFlPic=

> <r_lp_tautomer_probability>
1

> <r_epik_Ionization_Penalty>
0.000750324

> <r_epik_Ionization_Penalty_Charging>
0

> <r_epik_Ionization_Penalty_Neutral>
0.000750324

> <r_epik_State_Penalty>
-0

> <r_epik_Charging_Adjusted_Penalty>
0

> <i_epik_Tot_Q>
0

> <i_epik_Tot_abs_Q>
0

> <r_epik_Metal_State_Penalty>
-0

> <b_epik_Metal_Only>
0

> <s_epik_Chemistry_Notes>
This compound contains an acetal/aminal-like group ( X-CH(R)-Y where X, Y are N, S, or O) that may be acid/base labile, releasing an aldehyde.

> <s_lp_Force_Field>
OPLS_2005

> <r_lp_Energy>
36.265

> <b_lp_Chiralities_Consistent>
1

> <s_lp_Variant>
AV-unprocessed.smi:100-10

> <Gold.Version>
5.8.1

> <Gold.Id.Protein>
6NUR|6NUR_protein|mol2

> <Gold.PLP.Fitness>
44.1697

> <Gold.PLP.PLP>
-35.9439

> <Gold.PLP.part.hbond>
-3.9751

> <Gold.PLP.part.metal>
0.0000

> <Gold.PLP.part.buried>
-6.3244

> <Gold.PLP.part.nonpolar>
-26.9645

> <Gold.PLP.part.repulsive>
0.2490

> <Gold.PLP.ligand.clash>
0.0000

> <Gold.PLP.ligand.torsion>
0.1569

> <Gold.PLP.Chemscore.Hbond>
2.8424

> <Gold.PLP.Chemscore.CHOScore>
0.0000

> <Gold.PLP.Chemscore.Metal>
0.0000

> <Gold.Chemscore.Hbonds>
donor molecule, donor type, donor heavy atom, donor atom, acceptor molecule, acceptor atom, score
      L1  H    15    28       P1  7948  1.00
      L1  H    19    31       P1  8028  1.00
      P1  H  7989  7998       L1    12  0.99

> <Gold.PLP.Chemscore.Internal.Correction>
0.0124

> <Gold.Rescore>
     Score         DG    S(hbond)    S(metal)    S(lipo)     H(rot)  DE(clash)    DE(int)     intcor
      6.39      -6.81       1.79        0.00      29.97       3.19       0.11       0.31       ----

> <Gold.Chemscore.Fitness>
6.3949

> <Gold.Chemscore.DG>
-6.8136

> <Gold.Chemscore.ZeroCoef>
-5.4800

> <Gold.Chemscore.Hbond>
1.7947

> <Gold.Chemscore.Metal>
0.0000

> <Gold.Chemscore.Lipo>
29.9660

> <Gold.Chemscore.Internal_Hbond>
0.0000

> <Gold.Chemscore.DEClash>
0.1124

> <Gold.Chemscore.DEInternal>
0.3063

> <Gold.Chemscore.Rot>
3.1901

> <Gold.Chemscore.Internal.Correction>
   9.000000E+99

> <Gold.Chemscore.Hbonds>
donor molecule, donor type, donor heavy atom, donor atom, acceptor molecule, acceptor atom, score
      L1  H    15    28       P1  7948  0.45
      L1  H    19    31       P1  8028  0.65
      P1  H  7989  7998       L1    12  0.49

> <Gold.Chemscore.Hbond.Weighted>
-5.9942

> <Gold.Chemscore.Metal.Weighted>
-0.0000

> <Gold.Chemscore.Lipo.Weighted>
-3.5060

> <Gold.Chemscore.Internal_Hbond.Weighted>
0.0000

> <Gold.Chemscore.DEClash.Weighted>
0.1124

> <Gold.Chemscore.DEInternal.Weighted>
0.3063

> <Gold.Chemscore.Rot.Weighted>
8.1667

> <Gold.Chemscore.Internal.Correction.Weighted>
   9.000000E+99

> <Gold.Protein.RotatedTorsions>
[ 6907 6896 6895 6894 ] final   57.27 input  -60.11 | X-H torsion
[ 7974 7965 7964 7962 ] final  102.23 input  175.53 | X-H torsion
[ 8008 7997 7996 7995 ] final -170.62 input   59.86 | X-H torsion
[ 10167 10162 10161 10158 ] final  114.02 input  -65.29 | X-H torsion
[ 10718 10713 10712 10709 ] final  146.69 input   66.30 | X-H torsion
[ 10763 10752 10751 10750 ] final   -1.34 input  -60.55 | X-H torsion
[ 11005 11000 10999 10996 ] final  -55.39 input  -57.11 | X-H torsion

> <Gold.Protein.ActiveResidues>
 VAL166  LYS551  ARG553  GLY616  TRP617  ASP618  TYR619  PRO620  LYS621  CYS622 
 ASP623  PHE694  ASN695  SER759  ASP760  ASP761  ALA762  ILE779  LEU786  VAL792 
 PHE793  MET794  SER795  GLU796  ALA797  LYS798  CYS799  TRP800  GLU811  SER814 

> <Gold.Protein.RotatedAtoms>
  152.3716  134.6726  160.0173 H   0  0  0  0  0  0  0  0  0  0  0  0  # atno 6907 bound_to 6896
  151.7017  133.3306  159.3276 H   0  0  0  0  0  0  0  0  0  0  0  0  # atno 6908 bound_to 6896
  150.7678  134.6545  159.6350 H   0  0  0  0  0  0  0  0  0  0  0  0  # atno 6909 bound_to 6896
  145.3618  139.2416  143.3502 H   0  0  0  0  0  0  0  0  0  0  0  0  # atno 7974 bound_to 7965
  155.9207  140.1073  157.1209 H   0  0  0  0  0  0  0  0  0  0  0  0  # atno 8008 bound_to 7997
  154.4054  140.1256  156.4741 H   0  0  0  0  0  0  0  0  0  0  0  0  # atno 8009 bound_to 7997
  155.7199  140.3470  155.5014 H   0  0  0  0  0  0  0  0  0  0  0  0  # atno 8010 bound_to 7997
  139.6419  144.7124  151.2220 H   0  0  0  0  0  0  0  0  0  0  0  0  # atno 10167 bound_to 10162
  157.3301  131.0919  151.1169 H   0  0  0  0  0  0  0  0  0  0  0  0  # atno 10718 bound_to 10713
  153.3436  135.6982  153.6846 H   0  0  0  0  0  0  0  0  0  0  0  0  # atno 10763 bound_to 10752
  153.5601  135.3536  155.2796 H   0  0  0  0  0  0  0  0  0  0  0  0  # atno 10764 bound_to 10752
  154.8641  135.4247  154.2655 H   0  0  0  0  0  0  0  0  0  0  0  0  # atno 10765 bound_to 10752
  141.1071  133.6612  156.4462 H   0  0  0  0  0  0  0  0  0  0  0  0  # atno 11005 bound_to 11000
  146.2924  140.4253  142.8734 LP  0  0  0  0  0  0  0  0  0  0  0  0  # atno 17320 bound_to 7965
  144.8641  140.7180  143.6089 LP  0  0  0  0  0  0  0  0  0  0  0  0  # atno 17321 bound_to 7965
  140.7495  143.6297  150.8434 LP  0  0  0  0  0  0  0  0  0  0  0  0  # atno 17342 bound_to 10162
  139.9936  143.5820  152.2901 LP  0  0  0  0  0  0  0  0  0  0  0  0  # atno 17343 bound_to 10162
  157.2421  130.6574  149.5894 LP  0  0  0  0  0  0  0  0  0  0  0  0  # atno 17370 bound_to 10713
  155.9695  130.4565  150.5928 LP  0  0  0  0  0  0  0  0  0  0  0  0  # atno 17371 bound_to 10713
  140.4873  134.6609  157.5196 LP  0  0  0  0  0  0  0  0  0  0  0  0  # atno 17394 bound_to 11000
  139.9947  134.6930  155.9630 LP  0  0  0  0  0  0  0  0  0  0  0  0  # atno 17395 bound_to 11000

$$$$
