AV-unprocessed.smi:2774|AV-procd|sdf|10682|dock3
  -GOLD-   2272015123D 1   1.00000     0.00000
 Structure written by MMmdl.
 35 36  0  0  0  0  0  0  0  0  2 V2000
  149.2614  142.0454  154.5303 O   0  0  0  0  0  0  0  0  0  0  0  0
  149.4622  141.1538  155.6097 C   0  0  2  0  0  0  0  0  0  0  0  0
  149.8830  141.9636  156.8486 C   0  0  0  0  0  0  0  0  0  0  0  0
  150.9572  142.9276  156.5239 N   0  3  0  0  0  0  0  0  0  0  0  0
  151.7306  143.4321  157.6803 C   0  0  1  0  0  0  0  0  0  0  0  0
  150.9965  144.6008  158.3752 C   0  0  0  0  0  0  0  0  0  0  0  0
  151.7911  145.1886  159.5533 C   0  0  0  0  0  0  0  0  0  0  0  0
  152.0596  144.1572  160.6576 C   0  0  0  0  0  0  0  0  0  0  0  0
  153.0574  142.7797  160.0328 S   0  0  0  0  0  0  0  0  0  0  0  0
  151.9844  142.2735  158.6615 C   0  0  0  0  0  0  0  0  0  0  0  0
  150.4927  140.0875  155.2737 C   0  0  0  0  0  0  0  0  0  0  0  0
  150.2348  139.1055  154.2924 C   0  0  0  0  0  0  0  0  0  0  0  0
  151.2308  138.1463  154.0206 C   0  0  0  0  0  0  0  0  0  0  0  0
  152.4249  138.1195  154.6500 N   0  0  0  0  0  0  0  0  0  0  0  0
  152.6676  139.0618  155.5858 C   0  0  0  0  0  0  0  0  0  0  0  0
  151.7399  140.0646  155.9329 C   0  0  0  0  0  0  0  0  0  0  0  0
  149.2275  142.9265  154.8720 H   0  0  0  0  0  0  0  0  0  0  0  0
  148.5086  140.6621  155.8074 H   0  0  0  0  0  0  0  0  0  0  0  0
  149.0240  142.5177  157.2296 H   0  0  0  0  0  0  0  0  0  0  0  0
  150.2052  141.2897  157.6426 H   0  0  0  0  0  0  0  0  0  0  0  0
  151.5927  142.5020  155.8637 H   0  0  0  0  0  0  0  0  0  0  0  0
  152.6974  143.7802  157.3132 H   0  0  0  0  0  0  0  0  0  0  0  0
  150.8047  145.4035  157.6636 H   0  0  0  0  0  0  0  0  0  0  0  0
  150.0188  144.2670  158.7259 H   0  0  0  0  0  0  0  0  0  0  0  0
  152.7360  145.5976  159.1936 H   0  0  0  0  0  0  0  0  0  0  0  0
  151.2379  146.0283  159.9753 H   0  0  0  0  0  0  0  0  0  0  0  0
  152.5885  144.6227  161.4896 H   0  0  0  0  0  0  0  0  0  0  0  0
  151.1210  143.7675  161.0530 H   0  0  0  0  0  0  0  0  0  0  0  0
  151.0437  141.9002  159.0687 H   0  0  0  0  0  0  0  0  0  0  0  0
  152.4632  141.4384  158.1489 H   0  0  0  0  0  0  0  0  0  0  0  0
  149.2970  139.0836  153.7567 H   0  0  0  0  0  0  0  0  0  0  0  0
  151.0642  137.3813  153.2767 H   0  0  0  0  0  0  0  0  0  0  0  0
  153.6306  139.0169  156.0724 H   0  0  0  0  0  0  0  0  0  0  0  0
  151.9863  140.7958  156.6887 H   0  0  0  0  0  0  0  0  0  0  0  0
  150.5199  143.7211  156.0778 H   0  0  0  0  0  0  0  0  0  0  0  0
  1  2  1  0  0  0  0
  1 17  1  0  0  0  0
  2  3  1  0  0  0  0
  2 11  1  0  0  0  0
  2 18  1  0  0  0  0
  3  4  1  0  0  0  0
  3 19  1  0  0  0  0
  3 20  1  0  0  0  0
  4  5  1  0  0  0  0
  4 21  1  0  0  0  0
  4 35  1  0  0  0  0
  5 10  1  0  0  0  0
  5  6  1  0  0  0  0
  5 22  1  0  0  0  0
  6  7  1  0  0  0  0
  6 23  1  0  0  0  0
  6 24  1  0  0  0  0
  7  8  1  0  0  0  0
  7 25  1  0  0  0  0
  7 26  1  0  0  0  0
  8  9  1  0  0  0  0
  8 27  1  0  0  0  0
  8 28  1  0  0  0  0
  9 10  1  0  0  0  0
 10 29  1  0  0  0  0
 10 30  1  0  0  0  0
 11 16  1  0  0  0  0
 11 12  2  0  0  0  0
 12 13  1  0  0  0  0
 12 31  1  0  0  0  0
 13 14  2  0  0  0  0
 13 32  1  0  0  0  0
 14 15  1  0  0  0  0
 15 16  2  0  0  0  0
 15 33  1  0  0  0  0
 16 34  1  0  0  0  0
M  CHG  1   4   1
M  END
> <s_m_source_file>
AV-unprocessed.smi

> <i_m_source_file_index>
2774

> <i_lp_mmshare_version>
43012

> <i_f3d_flags>
0

> <s_epik_input>
W2NIXTFbY0hdbltjSF1bY0hdYzFbQ0BIXShbT0hdKVtDSDJdW05IXVtDQEBIXTJbQ0gyXVtDSDJdW0NIMl1TW0NIMl0y

> <s_epik_cmdline>
J2VwaWtfcHl0aG9uJywgJy1waCcsICc3LjAnLCAnLXRuJywgJzgnLCAnLW1hJywgJzIwMCcsICctbWV0YWxfYmluZGluZycsICctaW1hZScsICc8aW5maWxlLm1hZT4nLCAnLW9tYWUnLCAnPG91dGZpbGUubWFlPic=

> <r_epik_Ionization_Penalty>
0.0205977

> <r_epik_Ionization_Penalty_Charging>
0.0185619

> <r_epik_Ionization_Penalty_Neutral>
0.00203589

> <r_epik_State_Penalty>
0.0147768

> <r_epik_Charging_Adjusted_Penalty>
0.0333386

> <i_epik_Tot_Q>
1

> <i_epik_Tot_abs_Q>
1

> <r_epik_Metal_State_Penalty>
0.0152254

> <b_epik_Metal_Only>
0

> <s_lp_Force_Field>
OPLS_2005

> <r_lp_Energy>
10.4363

> <b_lp_Chiralities_Consistent>
1

> <s_lp_Variant>
AV-unprocessed.smi:2774-3

> <Gold.Version>
5.8.1

> <Gold.Id.Protein>
6NUR|6NUR_protein|mol2

> <Gold.PLP.Fitness>
53.6124

> <Gold.PLP.PLP>
-42.1321

> <Gold.PLP.part.hbond>
-3.1874

> <Gold.PLP.part.metal>
0.0000

> <Gold.PLP.part.buried>
-4.6824

> <Gold.PLP.part.nonpolar>
-34.5436

> <Gold.PLP.part.repulsive>
0.1426

> <Gold.PLP.ligand.clash>
0.0000

> <Gold.PLP.ligand.torsion>
0.5286

> <Gold.PLP.Chemscore.Hbond>
3.0464

> <Gold.PLP.Chemscore.CHOScore>
1.1095

> <Gold.PLP.Chemscore.Metal>
0.0000

> <Gold.Chemscore.Hbonds>
donor molecule, donor type, donor heavy atom, donor atom, acceptor molecule, acceptor atom, score
      L1  H     1    17       P1  8028  1.00
      L1  H     4    35       P1  8028  1.98
      P1  H  8011  8017       L1     1  0.12
      L1  C    13    32       P1  7948  0.04
      L1  C    13    32       P1  7949  1.00

> <Gold.PLP.Chemscore.Internal.Correction>
0.0698

> <Gold.Rescore>
     Score         DG    S(hbond)    S(metal)    S(lipo)     H(rot)  DE(clash)    DE(int)     intcor
     20.60     -20.97       2.00        0.00     118.34       1.97       0.04       0.33       ----

> <Gold.Chemscore.Fitness>
20.5952

> <Gold.Chemscore.DG>
-20.9710

> <Gold.Chemscore.ZeroCoef>
-5.4800

> <Gold.Chemscore.Hbond>
2.0015

> <Gold.Chemscore.Metal>
0.0000

> <Gold.Chemscore.Lipo>
118.3402

> <Gold.Chemscore.Internal_Hbond>
0.0000

> <Gold.Chemscore.DEClash>
0.0437

> <Gold.Chemscore.DEInternal>
0.3322

> <Gold.Chemscore.Rot>
1.9686

> <Gold.Chemscore.Internal.Correction>
   9.000000E+99

> <Gold.Chemscore.Hbonds>
donor molecule, donor type, donor heavy atom, donor atom, acceptor molecule, acceptor atom, score
      L1  H     1    17       P1  8028  0.98
      L1  H     4    35       P1  8028  0.93
      P1  H  8011  8017       L1     1  0.04

> <Gold.Chemscore.Hbond.Weighted>
-6.6849

> <Gold.Chemscore.Metal.Weighted>
-0.0000

> <Gold.Chemscore.Lipo.Weighted>
-13.8458

> <Gold.Chemscore.Internal_Hbond.Weighted>
0.0000

> <Gold.Chemscore.DEClash.Weighted>
0.0437

> <Gold.Chemscore.DEInternal.Weighted>
0.3322

> <Gold.Chemscore.Rot.Weighted>
5.0396

> <Gold.Chemscore.Internal.Correction.Weighted>
   9.000000E+99

> <Gold.Protein.RotatedTorsions>
[ 6907 6896 6895 6894 ] final  106.94 input  -60.11 | X-H torsion
[ 7974 7965 7964 7962 ] final  100.74 input  175.53 | X-H torsion
[ 8008 7997 7996 7995 ] final  -62.73 input   59.86 | X-H torsion
[ 10167 10162 10161 10158 ] final -136.53 input  -65.29 | X-H torsion
[ 10718 10713 10712 10709 ] final  122.16 input   66.30 | X-H torsion
[ 10763 10752 10751 10750 ] final   84.24 input  -60.55 | X-H torsion
[ 11005 11000 10999 10996 ] final   57.74 input  -57.11 | X-H torsion

> <Gold.Protein.ActiveResidues>
 VAL166  LYS551  ARG553  GLY616  TRP617  ASP618  TYR619  PRO620  LYS621  CYS622 
 ASP623  PHE694  ASN695  SER759  ASP760  ASP761  ALA762  ILE779  LEU786  VAL792 
 PHE793  MET794  SER795  GLU796  ALA797  LYS798  CYS799  TRP800  GLU811  SER814 

> <Gold.Protein.RotatedAtoms>
  152.5174  133.9307  159.7579 H   0  0  0  0  0  0  0  0  0  0  0  0  # atno 6907 bound_to 6896
  150.9658  133.6387  159.2753 H   0  0  0  0  0  0  0  0  0  0  0  0  # atno 6908 bound_to 6896
  151.3616  135.0910  159.9489 H   0  0  0  0  0  0  0  0  0  0  0  0  # atno 6909 bound_to 6896
  145.3816  139.2379  143.3400 H   0  0  0  0  0  0  0  0  0  0  0  0  # atno 7974 bound_to 7965
  154.4515  140.0990  156.6632 H   0  0  0  0  0  0  0  0  0  0  0  0  # atno 8008 bound_to 7997
  155.5270  140.3480  155.4400 H   0  0  0  0  0  0  0  0  0  0  0  0  # atno 8009 bound_to 7997
  156.0691  140.1345  156.9839 H   0  0  0  0  0  0  0  0  0  0  0  0  # atno 8010 bound_to 7997
  139.8669  143.7006  152.2644 H   0  0  0  0  0  0  0  0  0  0  0  0  # atno 10167 bound_to 10162
  157.5763  131.1079  150.8272 H   0  0  0  0  0  0  0  0  0  0  0  0  # atno 10718 bound_to 10713
  153.1363  135.4661  154.9428 H   0  0  0  0  0  0  0  0  0  0  0  0  # atno 10763 bound_to 10752
  154.7709  135.3158  154.8194 H   0  0  0  0  0  0  0  0  0  0  0  0  # atno 10764 bound_to 10752
  153.8725  135.6902  153.4827 H   0  0  0  0  0  0  0  0  0  0  0  0  # atno 10765 bound_to 10752
  140.0429  134.5847  155.9359 H   0  0  0  0  0  0  0  0  0  0  0  0  # atno 11005 bound_to 11000
  146.2839  140.4484  142.8765 LP  0  0  0  0  0  0  0  0  0  0  0  0  # atno 17320 bound_to 7965
  144.8504  140.6992  143.6172 LP  0  0  0  0  0  0  0  0  0  0  0  0  # atno 17321 bound_to 7965
  139.7321  144.7580  151.0786 LP  0  0  0  0  0  0  0  0  0  0  0  0  # atno 17342 bound_to 10162
  140.7767  143.5076  150.9693 LP  0  0  0  0  0  0  0  0  0  0  0  0  # atno 17343 bound_to 10162
  156.8730  130.5153  149.5295 LP  0  0  0  0  0  0  0  0  0  0  0  0  # atno 17370 bound_to 10713
  156.0808  130.5819  150.9559 LP  0  0  0  0  0  0  0  0  0  0  0  0  # atno 17371 bound_to 10713
  141.1892  133.6565  156.5359 LP  0  0  0  0  0  0  0  0  0  0  0  0  # atno 17394 bound_to 11000
  140.4040  134.7332  157.4796 LP  0  0  0  0  0  0  0  0  0  0  0  0  # atno 17395 bound_to 11000

$$$$
