AV-unprocessed.smi:1006|AV-procd|sdf|4393|dock10
  -GOLD-   22720 2323D 1   1.00000     0.00000
 Structure written by MMmdl.
 46 48  0  0  0  0  0  0  0  0  2 V2000
  146.7329  132.9550  161.6487 C   0  0  0  0  0  0  0  0  0  0  0  0
  147.1498  134.4039  161.5108 C   0  0  0  0  0  0  0  0  0  0  0  0
  146.8159  135.3698  162.4825 C   0  0  0  0  0  0  0  0  0  0  0  0
  147.2553  136.6841  162.2470 C   0  0  0  0  0  0  0  0  0  0  0  0
  146.9793  137.7075  163.1500 N   0  0  0  0  0  0  0  0  0  0  0  0
  147.9583  137.0022  161.1436 N   0  0  0  0  0  0  0  0  0  0  0  0
  148.2413  136.0374  160.2579 C   0  0  0  0  0  0  0  0  0  0  0  0
  149.1764  136.4375  158.7894 S   0  0  0  0  0  0  0  0  0  0  0  0
  150.0678  137.9353  159.3085 C   0  0  0  0  0  0  0  0  0  0  0  0
  151.5738  137.8862  158.9912 C   0  0  1  0  0  0  0  0  0  0  0  0
  152.1128  136.6700  159.4676 O   0  0  0  0  0  0  0  0  0  0  0  0
  151.8847  137.9815  157.4827 C   0  0  0  0  0  0  0  0  0  0  0  0
  151.4738  139.2478  156.9016 N   0  0  0  0  0  0  0  0  0  0  0  0
  150.8903  139.4362  155.7026 C   0  0  0  0  0  0  0  0  0  0  0  0
  150.6103  140.6882  155.3517 N   0  0  0  0  0  0  0  0  0  0  0  0
  151.0643  141.3952  156.4520 C   0  0  0  0  0  0  0  0  0  0  0  0
  151.0746  142.7834  156.7102 C   0  0  0  0  0  0  0  0  0  0  0  0
  151.6082  143.2933  157.9154 C   0  0  0  0  0  0  0  0  0  0  0  0
  151.6049  144.7938  158.1480 C   0  0  0  0  0  0  0  0  0  0  0  0
  152.1392  142.4083  158.8878 C   0  0  0  0  0  0  0  0  0  0  0  0
  152.7237  142.9323  160.1874 C   0  0  0  0  0  0  0  0  0  0  0  0
  152.1288  141.0182  158.6497 C   0  0  0  0  0  0  0  0  0  0  0  0
  151.6024  140.5234  157.4430 C   0  0  0  0  0  0  0  0  0  0  0  0
  147.8600  134.7613  160.4109 N   0  3  0  0  0  0  0  0  0  0  0  0
  146.6503  132.6750  162.6992 H   0  0  0  0  0  0  0  0  0  0  0  0
  147.4603  132.2920  161.1784 H   0  0  0  0  0  0  0  0  0  0  0  0
  145.7646  132.7953  161.1736 H   0  0  0  0  0  0  0  0  0  0  0  0
  146.2503  135.1104  163.3662 H   0  0  0  0  0  0  0  0  0  0  0  0
  146.4577  137.5410  163.9987 H   0  0  0  0  0  0  0  0  0  0  0  0
  147.3253  138.6453  163.0032 H   0  0  0  0  0  0  0  0  0  0  0  0
  149.6136  138.8046  158.8314 H   0  0  0  0  0  0  0  0  0  0  0  0
  149.9213  138.0382  160.3832 H   0  0  0  0  0  0  0  0  0  0  0  0
  152.0766  138.7026  159.5111 H   0  0  0  0  0  0  0  0  0  0  0  0
  152.6806  136.3119  158.8022 H   0  0  0  0  0  0  0  0  0  0  0  0
  152.9541  137.8546  157.3088 H   0  0  0  0  0  0  0  0  0  0  0  0
  151.3853  137.1779  156.9397 H   0  0  0  0  0  0  0  0  0  0  0  0
  150.6643  138.6075  155.0474 H   0  0  0  0  0  0  0  0  0  0  0  0
  150.6720  143.4573  155.9683 H   0  0  0  0  0  0  0  0  0  0  0  0
  151.0657  145.0387  159.0633 H   0  0  0  0  0  0  0  0  0  0  0  0
  151.1228  145.3236  157.3256 H   0  0  0  0  0  0  0  0  0  0  0  0
  152.6251  145.1682  158.2351 H   0  0  0  0  0  0  0  0  0  0  0  0
  153.1393  142.1246  160.7909 H   0  0  0  0  0  0  0  0  0  0  0  0
  151.9540  143.4306  160.7772 H   0  0  0  0  0  0  0  0  0  0  0  0
  153.5240  143.6454  159.9885 H   0  0  0  0  0  0  0  0  0  0  0  0
  152.5305  140.3334  159.3818 H   0  0  0  0  0  0  0  0  0  0  0  0
  148.0991  134.0593  159.7104 H   0  0  0  0  0  0  0  0  0  0  0  0
  1  2  1  0  0  0  0
  1 25  1  0  0  0  0
  1 26  1  0  0  0  0
  1 27  1  0  0  0  0
  2 24  1  0  0  0  0
  2  3  2  0  0  0  0
  3  4  1  0  0  0  0
  3 28  1  0  0  0  0
  4  5  1  0  0  0  0
  4  6  2  0  0  0  0
  5 29  1  0  0  0  0
  5 30  1  0  0  0  0
  6  7  1  0  0  0  0
  7  8  1  0  0  0  0
  7 24  2  0  0  0  0
  8  9  1  0  0  0  0
  9 10  1  0  0  0  0
  9 31  1  0  0  0  0
  9 32  1  0  0  0  0
 10 11  1  0  0  0  0
 10 12  1  0  0  0  0
 10 33  1  0  0  0  0
 11 34  1  0  0  0  0
 12 13  1  0  0  0  0
 12 35  1  0  0  0  0
 12 36  1  0  0  0  0
 13 23  1  0  0  0  0
 13 14  1  0  0  0  0
 14 15  2  0  0  0  0
 14 37  1  0  0  0  0
 15 16  1  0  0  0  0
 16 23  2  0  0  0  0
 16 17  1  0  0  0  0
 17 18  2  0  0  0  0
 17 38  1  0  0  0  0
 18 19  1  0  0  0  0
 18 20  1  0  0  0  0
 19 39  1  0  0  0  0
 19 40  1  0  0  0  0
 19 41  1  0  0  0  0
 20 21  1  0  0  0  0
 20 22  2  0  0  0  0
 21 42  1  0  0  0  0
 21 43  1  0  0  0  0
 21 44  1  0  0  0  0
 22 23  1  0  0  0  0
 22 45  1  0  0  0  0
 24 46  1  0  0  0  0
M  CHG  1  24   1
M  END
> <s_m_source_file>
AV-unprocessed.smi

> <i_m_source_file_index>
1006

> <i_lp_mmshare_version>
43012

> <i_f3d_flags>
0

> <s_epik_input>
W0NIM11jMVtjSF1jKFtOSDJdKW5jKG4xKVNbQ0gyXVtDQEhdKFtPSF0pW0NIMl1uKFtjSF1uMiljKGMyMylbY0hdYyhbQ0gzXSljKFtjSF0zKVtDSDNd

> <s_epik_cmdline>
J2VwaWtfcHl0aG9uJywgJy1waCcsICc3LjAnLCAnLXRuJywgJzgnLCAnLW1hJywgJzIwMCcsICctbWV0YWxfYmluZGluZycsICctaW1hZScsICc8aW5maWxlLm1hZT4nLCAnLW9tYWUnLCAnPG91dGZpbGUubWFlPic=

> <r_lp_tautomer_probability>
0.999762

> <r_epik_Ionization_Penalty>
0.549885

> <r_epik_Ionization_Penalty_Charging>
0.440405

> <r_epik_Ionization_Penalty_Neutral>
0.10948

> <r_epik_State_Penalty>
0.546419

> <r_epik_Charging_Adjusted_Penalty>
0.986823

> <i_epik_Tot_Q>
1

> <i_epik_Tot_abs_Q>
1

> <r_epik_Metal_State_Penalty>
0.699827

> <b_epik_Metal_Only>
0

> <s_lp_Force_Field>
OPLS_2005

> <r_lp_Energy>
7.78967

> <b_lp_Chiralities_Consistent>
1

> <s_lp_Variant>
AV-unprocessed.smi:1006-4

> <Gold.Version>
5.8.1

> <Gold.Id.Protein>
6NUR|6NUR_protein|mol2

> <Gold.PLP.Fitness>
52.5933

> <Gold.PLP.PLP>
-46.5913

> <Gold.PLP.part.hbond>
-3.7520

> <Gold.PLP.part.metal>
0.0000

> <Gold.PLP.part.buried>
-5.6283

> <Gold.PLP.part.nonpolar>
-38.2052

> <Gold.PLP.part.repulsive>
1.6973

> <Gold.PLP.ligand.clash>
0.0000

> <Gold.PLP.ligand.torsion>
1.0036

> <Gold.PLP.Chemscore.Hbond>
2.6535

> <Gold.PLP.Chemscore.CHOScore>
0.0000

> <Gold.PLP.Chemscore.Metal>
0.0000

> <Gold.Chemscore.Hbonds>
donor molecule, donor type, donor heavy atom, donor atom, acceptor molecule, acceptor atom, score
      P1  H  6896  6908       L1    11  0.60
      P1  H  6931  6943       L1     6  0.90
      P1  H  6934  6947       L1     6  0.42
      P1  H  7989  7998       L1    15  0.69

> <Gold.PLP.Chemscore.Internal.Correction>
0.0488

> <Gold.Rescore>
     Score         DG    S(hbond)    S(metal)    S(lipo)     H(rot)  DE(clash)    DE(int)     intcor
     14.89     -15.77       1.51        0.00     108.14       2.89       0.02       0.86       ----

> <Gold.Chemscore.Fitness>
14.8882

> <Gold.Chemscore.DG>
-15.7664

> <Gold.Chemscore.ZeroCoef>
-5.4800

> <Gold.Chemscore.Hbond>
1.5068

> <Gold.Chemscore.Metal>
0.0000

> <Gold.Chemscore.Lipo>
108.1397

> <Gold.Chemscore.Internal_Hbond>
0.0000

> <Gold.Chemscore.DEClash>
0.0207

> <Gold.Chemscore.DEInternal>
0.8575

> <Gold.Chemscore.Rot>
2.8901

> <Gold.Chemscore.Internal.Correction>
   9.000000E+99

> <Gold.Chemscore.Hbonds>
donor molecule, donor type, donor heavy atom, donor atom, acceptor molecule, acceptor atom, score
      P1  H  6896  6908       L1    11  0.04
      P1  H  6931  6943       L1     6  0.17
      P1  H  6934  6947       L1     6  0.07
      P1  H  7989  7998       L1    15  0.25

> <Gold.Chemscore.Hbond.Weighted>
-5.0326

> <Gold.Chemscore.Metal.Weighted>
-0.0000

> <Gold.Chemscore.Lipo.Weighted>
-12.6523

> <Gold.Chemscore.Internal_Hbond.Weighted>
0.0000

> <Gold.Chemscore.DEClash.Weighted>
0.0207

> <Gold.Chemscore.DEInternal.Weighted>
0.8575

> <Gold.Chemscore.Rot.Weighted>
7.3986

> <Gold.Chemscore.Internal.Correction.Weighted>
   9.000000E+99

> <Gold.Protein.RotatedTorsions>
[ 6907 6896 6895 6894 ] final -113.00 input  -60.11 | X-H torsion
[ 7974 7965 7964 7962 ] final  -53.16 input  175.53 | X-H torsion
[ 8008 7997 7996 7995 ] final -176.49 input   59.86 | X-H torsion
[ 10167 10162 10161 10158 ] final -112.28 input  -65.29 | X-H torsion
[ 10718 10713 10712 10709 ] final  -78.73 input   66.30 | X-H torsion
[ 10763 10752 10751 10750 ] final  113.04 input  -60.55 | X-H torsion
[ 11005 11000 10999 10996 ] final  109.57 input  -57.11 | X-H torsion

> <Gold.Protein.ActiveResidues>
 VAL166  LYS551  ARG553  GLY616  TRP617  ASP618  TYR619  PRO620  LYS621  CYS622 
 ASP623  PHE694  ASN695  SER759  ASP760  ASP761  ALA762  ILE779  LEU786  VAL792 
 PHE793  MET794  SER795  GLU796  ALA797  LYS798  CYS799  TRP800  GLU811  SER814 

> <Gold.Protein.RotatedAtoms>
  150.7798  133.9008  159.3340 H   0  0  0  0  0  0  0  0  0  0  0  0  # atno 6907 bound_to 6896
  151.6873  135.0950  160.0236 H   0  0  0  0  0  0  0  0  0  0  0  0  # atno 6908 bound_to 6896
  152.3846  133.6554  159.6224 H   0  0  0  0  0  0  0  0  0  0  0  0  # atno 6909 bound_to 6896
  145.8999  140.8003  142.9748 H   0  0  0  0  0  0  0  0  0  0  0  0  # atno 7974 bound_to 7965
  155.9954  140.1209  157.0598 H   0  0  0  0  0  0  0  0  0  0  0  0  # atno 8008 bound_to 7997
  154.4225  140.1117  156.5692 H   0  0  0  0  0  0  0  0  0  0  0  0  # atno 8009 bound_to 7997
  155.6285  140.3473  155.4677 H   0  0  0  0  0  0  0  0  0  0  0  0  # atno 8010 bound_to 7997
  140.1245  143.4414  152.1669 H   0  0  0  0  0  0  0  0  0  0  0  0  # atno 10167 bound_to 10162
  156.0110  130.4526  150.3540 H   0  0  0  0  0  0  0  0  0  0  0  0  # atno 10718 bound_to 10713
  153.4867  135.3667  155.2470 H   0  0  0  0  0  0  0  0  0  0  0  0  # atno 10763 bound_to 10752
  154.8753  135.3967  154.3637 H   0  0  0  0  0  0  0  0  0  0  0  0  # atno 10764 bound_to 10752
  153.4250  135.7081  153.6334 H   0  0  0  0  0  0  0  0  0  0  0  0  # atno 10765 bound_to 10752
  139.8864  134.9461  156.6146 H   0  0  0  0  0  0  0  0  0  0  0  0  # atno 11005 bound_to 11000
  144.6735  140.1661  143.7418 LP  0  0  0  0  0  0  0  0  0  0  0  0  # atno 17320 bound_to 7965
  145.8804  139.2320  143.1609 LP  0  0  0  0  0  0  0  0  0  0  0  0  # atno 17321 bound_to 7965
  139.5551  144.7367  151.4317 LP  0  0  0  0  0  0  0  0  0  0  0  0  # atno 17342 bound_to 10162
  140.6853  143.7988  150.7177 LP  0  0  0  0  0  0  0  0  0  0  0  0  # atno 17343 bound_to 10162
  157.1631  131.0350  151.2831 LP  0  0  0  0  0  0  0  0  0  0  0  0  # atno 17370 bound_to 10713
  157.4294  130.7482  149.6977 LP  0  0  0  0  0  0  0  0  0  0  0  0  # atno 17371 bound_to 10713
  140.7785  133.8679  155.8549 LP  0  0  0  0  0  0  0  0  0  0  0  0  # atno 17394 bound_to 11000
  140.9780  134.1443  157.4519 LP  0  0  0  0  0  0  0  0  0  0  0  0  # atno 17395 bound_to 11000

$$$$
