AV-unprocessed.smi:1288|AV-procd|sdf|5384|dock8
  -GOLD-   22720 4533D 1   1.00000     0.00000
 Structure written by MMmdl.
 43 45  0  0  0  0  0  0  0  0  2 V2000
  152.2368  137.6497  154.3654 C   0  0  0  0  0  0  0  0  0  0  0  0
  150.9833  138.4359  154.1756 C   0  0  0  0  0  0  0  0  0  0  0  0
  149.9547  138.1159  153.3409 N   0  3  0  0  0  0  0  0  0  0  0  0
  148.9554  139.0858  153.4299 C   0  0  0  0  0  0  0  0  0  0  0  0
  147.7307  139.1932  152.7780 C   0  0  0  0  0  0  0  0  0  0  0  0
  146.9413  140.3178  153.0955 C   0  0  0  0  0  0  0  0  0  0  0  0
  147.3781  141.2817  154.0273 C   0  0  0  0  0  0  0  0  0  0  0  0
  148.6214  141.1615  154.6823 C   0  0  0  0  0  0  0  0  0  0  0  0
  149.3957  140.0455  154.3649 C   0  0  0  0  0  0  0  0  0  0  0  0
  150.6510  139.6017  154.7998 N   0  0  0  0  0  0  0  0  0  0  0  0
  151.4001  140.3842  155.7966 C   0  0  0  0  0  0  0  0  0  0  0  0
  151.2379  139.8414  157.2306 C   0  0  1  0  0  0  0  0  0  0  0  0
  151.7926  138.5431  157.3050 O   0  0  0  0  0  0  0  0  0  0  0  0
  151.9474  140.7306  158.2633 C   0  0  0  0  0  0  0  0  0  0  0  0
  151.4308  142.0476  158.1671 O   0  0  0  0  0  0  0  0  0  0  0  0
  152.3698  143.0375  158.5517 C   0  0  0  0  0  0  0  0  0  0  0  0
  152.5892  143.0325  160.0517 C   0  0  0  0  0  0  0  0  0  0  0  0
  153.4149  142.0508  160.6391 C   0  0  0  0  0  0  0  0  0  0  0  0
  153.6277  142.0441  162.0315 C   0  0  0  0  0  0  0  0  0  0  0  0
  153.0155  143.0191  162.8420 C   0  0  0  0  0  0  0  0  0  0  0  0
  152.1926  144.0023  162.2594 C   0  0  0  0  0  0  0  0  0  0  0  0
  151.9801  144.0116  160.8668 C   0  0  0  0  0  0  0  0  0  0  0  0
  151.1910  144.9657  160.3167 F   0  0  0  0  0  0  0  0  0  0  0  0
  152.2507  136.7834  153.7036 H   0  0  0  0  0  0  0  0  0  0  0  0
  152.3087  137.3007  155.3956 H   0  0  0  0  0  0  0  0  0  0  0  0
  153.1067  138.2681  154.1446 H   0  0  0  0  0  0  0  0  0  0  0  0
  147.3949  138.4572  152.0622 H   0  0  0  0  0  0  0  0  0  0  0  0
  145.9826  140.4444  152.6134 H   0  0  0  0  0  0  0  0  0  0  0  0
  146.7477  142.1319  154.2433 H   0  0  0  0  0  0  0  0  0  0  0  0
  148.9484  141.9101  155.3884 H   0  0  0  0  0  0  0  0  0  0  0  0
  152.4498  140.4324  155.5064 H   0  0  0  0  0  0  0  0  0  0  0  0
  151.0271  141.4077  155.7438 H   0  0  0  0  0  0  0  0  0  0  0  0
  150.1751  139.7840  157.4691 H   0  0  0  0  0  0  0  0  0  0  0  0
  152.3918  138.4344  156.5817 H   0  0  0  0  0  0  0  0  0  0  0  0
  151.8373  140.3299  159.2726 H   0  0  0  0  0  0  0  0  0  0  0  0
  153.0159  140.7660  158.0445 H   0  0  0  0  0  0  0  0  0  0  0  0
  153.3222  142.8671  158.0471 H   0  0  0  0  0  0  0  0  0  0  0  0
  152.0197  144.0235  158.2421 H   0  0  0  0  0  0  0  0  0  0  0  0
  153.8890  141.3006  160.0232 H   0  0  0  0  0  0  0  0  0  0  0  0
  154.2614  141.2917  162.4773 H   0  0  0  0  0  0  0  0  0  0  0  0
  153.1780  143.0140  163.9097 H   0  0  0  0  0  0  0  0  0  0  0  0
  151.7248  144.7513  162.8811 H   0  0  0  0  0  0  0  0  0  0  0  0
  149.9400  137.2927  152.7528 H   0  0  0  0  0  0  0  0  0  0  0  0
  1  2  1  0  0  0  0
  1 24  1  0  0  0  0
  1 25  1  0  0  0  0
  1 26  1  0  0  0  0
  2 10  1  0  0  0  0
  2  3  2  0  0  0  0
  3  4  1  0  0  0  0
  3 43  1  0  0  0  0
  4  9  2  0  0  0  0
  4  5  1  0  0  0  0
  5  6  2  0  0  0  0
  5 27  1  0  0  0  0
  6  7  1  0  0  0  0
  6 28  1  0  0  0  0
  7  8  2  0  0  0  0
  7 29  1  0  0  0  0
  8  9  1  0  0  0  0
  8 30  1  0  0  0  0
  9 10  1  0  0  0  0
 10 11  1  0  0  0  0
 11 12  1  0  0  0  0
 11 31  1  0  0  0  0
 11 32  1  0  0  0  0
 12 13  1  0  0  0  0
 12 14  1  0  0  0  0
 12 33  1  0  0  0  0
 13 34  1  0  0  0  0
 14 15  1  0  0  0  0
 14 35  1  0  0  0  0
 14 36  1  0  0  0  0
 15 16  1  0  0  0  0
 16 17  1  0  0  0  0
 16 37  1  0  0  0  0
 16 38  1  0  0  0  0
 17 22  1  0  0  0  0
 17 18  2  0  0  0  0
 18 19  1  0  0  0  0
 18 39  1  0  0  0  0
 19 20  2  0  0  0  0
 19 40  1  0  0  0  0
 20 21  1  0  0  0  0
 20 41  1  0  0  0  0
 21 22  2  0  0  0  0
 21 42  1  0  0  0  0
 22 23  1  0  0  0  0
M  CHG  1   3   1
M  END
> <s_m_source_file>
AV-unprocessed.smi

> <i_m_source_file_index>
1288

> <i_lp_mmshare_version>
43012

> <i_f3d_flags>
0

> <s_epik_input>
W2NIXTFbY0hdW2NIXVtjSF1jKGMxMiluKGMobjIpW0NIM10pW0NIMl1bQ0BIXShbT0hdKVtDSDJdT1tDSDJdYzNbY0hdW2NIXVtjSF1bY0hdYzNG

> <s_epik_cmdline>
J2VwaWtfcHl0aG9uJywgJy1waCcsICc3LjAnLCAnLXRuJywgJzgnLCAnLW1hJywgJzIwMCcsICctbWV0YWxfYmluZGluZycsICctaW1hZScsICc8aW5maWxlLm1hZT4nLCAnLW9tYWUnLCAnPG91dGZpbGUubWFlPic=

> <r_epik_Ionization_Penalty>
0.952

> <r_epik_Ionization_Penalty_Charging>
0.951999

> <r_epik_Ionization_Penalty_Neutral>
1.07667e-06

> <r_epik_State_Penalty>
0.996343

> <r_epik_Charging_Adjusted_Penalty>
1.94834

> <i_epik_Tot_Q>
1

> <i_epik_Tot_abs_Q>
1

> <r_epik_Metal_State_Penalty>
4.96724

> <b_epik_Metal_Only>
0

> <s_lp_Force_Field>
OPLS_2005

> <r_lp_Energy>
19.2213

> <b_lp_Chiralities_Consistent>
1

> <s_lp_Variant>
AV-unprocessed.smi:1288-4

> <Gold.Version>
5.8.1

> <Gold.Id.Protein>
6NUR|6NUR_protein|mol2

> <Gold.PLP.Fitness>
63.6009

> <Gold.PLP.PLP>
-59.1208

> <Gold.PLP.part.hbond>
-2.0000

> <Gold.PLP.part.metal>
0.0000

> <Gold.PLP.part.buried>
1.9058

> <Gold.PLP.part.nonpolar>
-58.6023

> <Gold.PLP.part.repulsive>
0.1093

> <Gold.PLP.ligand.clash>
0.0000

> <Gold.PLP.ligand.torsion>
0.7739

> <Gold.PLP.Chemscore.Hbond>
2.0000

> <Gold.PLP.Chemscore.CHOScore>
0.0000

> <Gold.PLP.Chemscore.Metal>
0.0000

> <Gold.Chemscore.Hbonds>
donor molecule, donor type, donor heavy atom, donor atom, acceptor molecule, acceptor atom, score
      L1  H     3    43       P1  7948  1.42

> <Gold.PLP.Chemscore.Internal.Correction>
0.0280

> <Gold.Rescore>
     Score         DG    S(hbond)    S(metal)    S(lipo)     H(rot)  DE(clash)    DE(int)     intcor
     18.55     -19.83       0.99        0.00     146.61       2.38       0.35       0.92       ----

> <Gold.Chemscore.Fitness>
18.5540

> <Gold.Chemscore.DG>
-19.8287

> <Gold.Chemscore.ZeroCoef>
-5.4800

> <Gold.Chemscore.Hbond>
0.9852

> <Gold.Chemscore.Metal>
0.0000

> <Gold.Chemscore.Lipo>
146.6081

> <Gold.Chemscore.Internal_Hbond>
0.0000

> <Gold.Chemscore.DEClash>
0.3537

> <Gold.Chemscore.DEInternal>
0.9210

> <Gold.Chemscore.Rot>
2.3809

> <Gold.Chemscore.Internal.Correction>
   9.000000E+99

> <Gold.Chemscore.Hbonds>
donor molecule, donor type, donor heavy atom, donor atom, acceptor molecule, acceptor atom, score
      L1  H     3    43       P1  7948  0.08

> <Gold.Chemscore.Hbond.Weighted>
-3.2906

> <Gold.Chemscore.Metal.Weighted>
-0.0000

> <Gold.Chemscore.Lipo.Weighted>
-17.1531

> <Gold.Chemscore.Internal_Hbond.Weighted>
0.0000

> <Gold.Chemscore.DEClash.Weighted>
0.3537

> <Gold.Chemscore.DEInternal.Weighted>
0.9210

> <Gold.Chemscore.Rot.Weighted>
6.0951

> <Gold.Chemscore.Internal.Correction.Weighted>
   9.000000E+99

> <Gold.Protein.RotatedTorsions>
[ 6907 6896 6895 6894 ] final   41.43 input  -60.11 | X-H torsion
[ 7974 7965 7964 7962 ] final   36.43 input  175.53 | X-H torsion
[ 8008 7997 7996 7995 ] final  -26.63 input   59.86 | X-H torsion
[ 10167 10162 10161 10158 ] final  134.67 input  -65.29 | X-H torsion
[ 10718 10713 10712 10709 ] final   45.06 input   66.30 | X-H torsion
[ 10763 10752 10751 10750 ] final  -80.18 input  -60.55 | X-H torsion
[ 11005 11000 10999 10996 ] final  -61.94 input  -57.11 | X-H torsion

> <Gold.Protein.ActiveResidues>
 VAL166  LYS551  ARG553  GLY616  TRP617  ASP618  TYR619  PRO620  LYS621  CYS622 
 ASP623  PHE694  ASN695  SER759  ASP760  ASP761  ALA762  ILE779  LEU786  VAL792 
 PHE793  MET794  SER795  GLU796  ALA797  LYS798  CYS799  TRP800  GLU811  SER814 

> <Gold.Protein.RotatedAtoms>
  152.1951  134.8637  160.0513 H   0  0  0  0  0  0  0  0  0  0  0  0  # atno 6907 bound_to 6896
  151.9512  133.3661  159.4009 H   0  0  0  0  0  0  0  0  0  0  0  0  # atno 6908 bound_to 6896
  150.6943  134.4262  159.5271 H   0  0  0  0  0  0  0  0  0  0  0  0  # atno 6909 bound_to 6896
  146.1212  139.6018  142.9289 H   0  0  0  0  0  0  0  0  0  0  0  0  # atno 7974 bound_to 7965
  154.4416  140.1894  156.0805 H   0  0  0  0  0  0  0  0  0  0  0  0  # atno 8008 bound_to 7997
  156.0443  140.3316  155.7252 H   0  0  0  0  0  0  0  0  0  0  0  0  # atno 8009 bound_to 7997
  155.5653  140.0607  157.2810 H   0  0  0  0  0  0  0  0  0  0  0  0  # atno 8010 bound_to 7997
  139.5247  144.6556  151.5172 H   0  0  0  0  0  0  0  0  0  0  0  0  # atno 10167 bound_to 10162
  157.4335  130.8039  149.7626 H   0  0  0  0  0  0  0  0  0  0  0  0  # atno 10718 bound_to 10713
  154.5480  135.5670  153.6897 H   0  0  0  0  0  0  0  0  0  0  0  0  # atno 10763 bound_to 10752
  152.9981  135.6244  154.2412 H   0  0  0  0  0  0  0  0  0  0  0  0  # atno 10764 bound_to 10752
  154.2346  135.2864  155.2857 H   0  0  0  0  0  0  0  0  0  0  0  0  # atno 10765 bound_to 10752
  141.1342  133.6635  156.5451 H   0  0  0  0  0  0  0  0  0  0  0  0  # atno 11005 bound_to 11000
  145.5463  141.0417  143.2303 LP  0  0  0  0  0  0  0  0  0  0  0  0  # atno 17320 bound_to 7965
  144.7599  139.6983  143.7239 LP  0  0  0  0  0  0  0  0  0  0  0  0  # atno 17321 bound_to 7965
  140.6380  143.8946  150.6665 LP  0  0  0  0  0  0  0  0  0  0  0  0  # atno 17342 bound_to 10162
  140.2271  143.3764  152.1596 LP  0  0  0  0  0  0  0  0  0  0  0  0  # atno 17343 bound_to 10162
  155.9922  130.3932  150.2952 LP  0  0  0  0  0  0  0  0  0  0  0  0  # atno 17370 bound_to 10713
  157.1111  131.0221  151.3047 LP  0  0  0  0  0  0  0  0  0  0  0  0  # atno 17371 bound_to 10713
  140.4108  134.7273  157.4835 LP  0  0  0  0  0  0  0  0  0  0  0  0  # atno 17394 bound_to 11000
  140.0428  134.6242  155.8958 LP  0  0  0  0  0  0  0  0  0  0  0  0  # atno 17395 bound_to 11000

$$$$
