AV-unprocessed.smi:2066|AV-procd|sdf|8419|dock3
  -GOLD-   2272011113D 1   1.00000     0.00000
 Structure written by MMmdl.
 39 40  0  0  0  0  0  0  0  0  1 V2000
  146.8510  139.6867  153.0635 C   0  0  0  0  0  0  0  0  0  0  0  0
  147.0500  139.3380  154.5583 C   0  0  0  0  0  0  0  0  0  0  0  0
  146.1562  140.3081  155.3724 C   0  0  0  0  0  0  0  0  0  0  0  0
  146.4717  137.9078  154.7762 C   0  0  0  0  0  0  0  0  0  0  0  0
  146.7488  137.0033  153.6600 N   0  0  0  0  0  0  0  0  0  0  0  0
  145.9521  136.0109  153.2388 C   0  0  0  0  0  0  0  0  0  0  0  0
  144.8568  135.7569  153.7411 O   0  0  0  0  0  0  0  0  0  0  0  0
  146.5120  135.3409  152.2165 N   0  0  0  0  0  0  0  0  0  0  0  0
  145.9985  134.2169  151.5181 C   0  0  0  0  0  0  0  0  0  0  0  0
  146.7432  133.3735  150.7937 N   0  0  0  0  0  0  0  0  0  0  0  0
  145.9752  132.3601  150.2148 C   0  0  0  0  0  0  0  0  0  0  0  0
  144.6378  132.4483  150.5108 C   0  0  0  0  0  0  0  0  0  0  0  0
  144.2876  133.8148  151.5358 S   0  0  0  0  0  0  0  0  0  0  0  0
  148.4722  139.4280  154.9940 N   0  0  0  0  0  0  0  0  0  0  0  0
  148.9970  140.7930  155.1162 C   0  0  0  0  0  0  0  0  0  0  0  0
  150.4239  140.8140  155.6902 C   0  0  0  0  0  0  0  0  0  0  0  0
  151.2801  140.0202  154.8778 O   0  0  0  0  0  0  0  0  0  0  0  0
  150.8377  138.6721  154.7792 C   0  0  0  0  0  0  0  0  0  0  0  0
  149.4149  138.6349  154.1962 C   0  0  0  0  0  0  0  0  0  0  0  0
  145.7982  139.6231  152.7854 H   0  0  0  0  0  0  0  0  0  0  0  0
  147.3904  139.0053  152.4060 H   0  0  0  0  0  0  0  0  0  0  0  0
  147.1753  140.7004  152.8292 H   0  0  0  0  0  0  0  0  0  0  0  0
  145.0965  140.1159  155.2002 H   0  0  0  0  0  0  0  0  0  0  0  0
  146.3233  141.3504  155.1012 H   0  0  0  0  0  0  0  0  0  0  0  0
  146.3328  140.2159  156.4445 H   0  0  0  0  0  0  0  0  0  0  0  0
  146.8461  137.4855  155.7105 H   0  0  0  0  0  0  0  0  0  0  0  0
  145.3911  137.9421  154.9121 H   0  0  0  0  0  0  0  0  0  0  0  0
  147.6327  137.1309  153.1896 H   0  0  0  0  0  0  0  0  0  0  0  0
  147.4174  135.6647  151.9100 H   0  0  0  0  0  0  0  0  0  0  0  0
  146.4640  131.6147  149.6047 H   0  0  0  0  0  0  0  0  0  0  0  0
  143.8409  131.7946  150.1888 H   0  0  0  0  0  0  0  0  0  0  0  0
  149.0023  141.2835  154.1429 H   0  0  0  0  0  0  0  0  0  0  0  0
  148.3692  141.3945  155.7710 H   0  0  0  0  0  0  0  0  0  0  0  0
  150.8056  141.8346  155.7185 H   0  0  0  0  0  0  0  0  0  0  0  0
  150.4329  140.4398  156.7153 H   0  0  0  0  0  0  0  0  0  0  0  0
  151.5243  138.1181  154.1391 H   0  0  0  0  0  0  0  0  0  0  0  0
  150.8644  138.1992  155.7623 H   0  0  0  0  0  0  0  0  0  0  0  0
  149.1045  137.5929  154.1462 H   0  0  0  0  0  0  0  0  0  0  0  0
  149.4464  139.0056  153.1715 H   0  0  0  0  0  0  0  0  0  0  0  0
  1  2  1  0  0  0  0
  1 20  1  0  0  0  0
  1 21  1  0  0  0  0
  1 22  1  0  0  0  0
  2  3  1  0  0  0  0
  2  4  1  0  0  0  0
  2 14  1  0  0  0  0
  3 23  1  0  0  0  0
  3 24  1  0  0  0  0
  3 25  1  0  0  0  0
  4  5  1  0  0  0  0
  4 26  1  0  0  0  0
  4 27  1  0  0  0  0
  5  6  1  0  0  0  0
  5 28  1  0  0  0  0
  6  7  2  0  0  0  0
  6  8  1  0  0  0  0
  8  9  1  0  0  0  0
  8 29  1  0  0  0  0
  9 13  1  0  0  0  0
  9 10  2  0  0  0  0
 10 11  1  0  0  0  0
 11 12  2  0  0  0  0
 11 30  1  0  0  0  0
 12 13  1  0  0  0  0
 12 31  1  0  0  0  0
 14 19  1  0  0  0  0
 14 15  1  0  0  0  0
 15 16  1  0  0  0  0
 15 32  1  0  0  0  0
 15 33  1  0  0  0  0
 16 17  1  0  0  0  0
 16 34  1  0  0  0  0
 16 35  1  0  0  0  0
 17 18  1  0  0  0  0
 18 19  1  0  0  0  0
 18 36  1  0  0  0  0
 18 37  1  0  0  0  0
 19 38  1  0  0  0  0
 19 39  1  0  0  0  0
M  END
> <s_m_source_file>
AV-unprocessed.smi

> <i_m_source_file_index>
2066

> <i_lp_mmshare_version>
43012

> <i_f3d_flags>
0

> <s_epik_input>
W0NIMl0xW0NIMl1PW0NIMl1bQ0gyXU4xQyhbQ0gzXSkoW0NIM10pW0NIMl1bTkhdQyg9TylbTkhdYzJuW2NIXVtjSF1zMg==

> <s_epik_cmdline>
J2VwaWtfcHl0aG9uJywgJy1waCcsICc3LjAnLCAnLXRuJywgJzgnLCAnLW1hJywgJzIwMCcsICctbWV0YWxfYmluZGluZycsICctaW1hZScsICc8aW5maWxlLm1hZT4nLCAnLW9tYWUnLCAnPG91dGZpbGUubWFlPic=

> <r_lp_tautomer_probability>
0.999

> <r_epik_Ionization_Penalty>
0.219202

> <r_epik_Ionization_Penalty_Charging>
0

> <r_epik_Ionization_Penalty_Neutral>
0.219202

> <r_epik_State_Penalty>
0.209349

> <r_epik_Charging_Adjusted_Penalty>
0.209349

> <i_epik_Tot_Q>
0

> <i_epik_Tot_abs_Q>
0

> <r_epik_Metal_State_Penalty>
0.2479

> <b_epik_Metal_Only>
0

> <s_lp_Force_Field>
OPLS_2005

> <r_lp_Energy>
39.7757

> <b_lp_Chiralities_Consistent>
1

> <s_lp_Variant>
AV-unprocessed.smi:2066-1

> <Gold.Version>
5.8.1

> <Gold.Id.Protein>
6NUR|6NUR_protein|mol2

> <Gold.PLP.Fitness>
38.7024

> <Gold.PLP.PLP>
-29.0204

> <Gold.PLP.part.hbond>
-2.9888

> <Gold.PLP.part.metal>
0.0000

> <Gold.PLP.part.buried>
-1.9805

> <Gold.PLP.part.nonpolar>
-24.2156

> <Gold.PLP.part.repulsive>
0.5028

> <Gold.PLP.ligand.clash>
0.0000

> <Gold.PLP.ligand.torsion>
0.8321

> <Gold.PLP.Chemscore.Hbond>
2.8640

> <Gold.PLP.Chemscore.CHOScore>
0.8891

> <Gold.PLP.Chemscore.Metal>
0.0000

> <Gold.Chemscore.Hbonds>
donor molecule, donor type, donor heavy atom, donor atom, acceptor molecule, acceptor atom, score
      L1  H     5    28       P1  7948  0.77
      L1  H     8    29       P1  7948  1.00
      P1  H  7989  7998       L1    17  1.00
      L1  C    11    30       P1 10747  0.47

> <Gold.PLP.Chemscore.Internal.Correction>
0.0868

> <Gold.Rescore>
     Score         DG    S(hbond)    S(metal)    S(lipo)     H(rot)  DE(clash)    DE(int)     intcor
     17.09     -19.23       2.82        0.00      71.76       1.58       0.10       2.04       ----

> <Gold.Chemscore.Fitness>
17.0936

> <Gold.Chemscore.DG>
-19.2317

> <Gold.Chemscore.ZeroCoef>
-5.4800

> <Gold.Chemscore.Hbond>
2.8152

> <Gold.Chemscore.Metal>
0.0000

> <Gold.Chemscore.Lipo>
71.7584

> <Gold.Chemscore.Internal_Hbond>
0.0000

> <Gold.Chemscore.DEClash>
0.1008

> <Gold.Chemscore.DEInternal>
2.0373

> <Gold.Chemscore.Rot>
1.5807

> <Gold.Chemscore.Internal.Correction>
   9.000000E+99

> <Gold.Chemscore.Hbonds>
donor molecule, donor type, donor heavy atom, donor atom, acceptor molecule, acceptor atom, score
      L1  H     5    28       P1  7948  0.73
      L1  H     8    29       P1  7948  0.99
      P1  H  7989  7998       L1    17  0.68

> <Gold.Chemscore.Hbond.Weighted>
-9.4026

> <Gold.Chemscore.Metal.Weighted>
-0.0000

> <Gold.Chemscore.Lipo.Weighted>
-8.3957

> <Gold.Chemscore.Internal_Hbond.Weighted>
0.0000

> <Gold.Chemscore.DEClash.Weighted>
0.1008

> <Gold.Chemscore.DEInternal.Weighted>
2.0373

> <Gold.Chemscore.Rot.Weighted>
4.0466

> <Gold.Chemscore.Internal.Correction.Weighted>
   9.000000E+99

> <Gold.Protein.RotatedTorsions>
[ 6907 6896 6895 6894 ] final -159.84 input  -60.11 | X-H torsion
[ 7974 7965 7964 7962 ] final -119.19 input  175.53 | X-H torsion
[ 8008 7997 7996 7995 ] final  -90.58 input   59.86 | X-H torsion
[ 10167 10162 10161 10158 ] final -154.11 input  -65.29 | X-H torsion
[ 10718 10713 10712 10709 ] final  147.58 input   66.30 | X-H torsion
[ 10763 10752 10751 10750 ] final  152.73 input  -60.55 | X-H torsion
[ 11005 11000 10999 10996 ] final   36.56 input  -57.11 | X-H torsion

> <Gold.Protein.ActiveResidues>
 VAL166  LYS551  ARG553  GLY616  TRP617  ASP618  TYR619  PRO620  LYS621  CYS622 
 ASP623  PHE694  ASN695  SER759  ASP760  ASP761  ALA762  ILE779  LEU786  VAL792 
 PHE793  MET794  SER795  GLU796  ALA797  LYS798  CYS799  TRP800  GLU811  SER814 

> <Gold.Protein.RotatedAtoms>
  151.3398  133.3967  159.2669 H   0  0  0  0  0  0  0  0  0  0  0  0  # atno 6907 bound_to 6896
  150.9887  134.9228  159.7897 H   0  0  0  0  0  0  0  0  0  0  0  0  # atno 6908 bound_to 6896
  152.5240  134.3362  159.9253 H   0  0  0  0  0  0  0  0  0  0  0  0  # atno 6909 bound_to 6896
  145.0653  140.8320  143.4128 H   0  0  0  0  0  0  0  0  0  0  0  0  # atno 7974 bound_to 7965
  154.7003  140.0529  157.0451 H   0  0  0  0  0  0  0  0  0  0  0  0  # atno 8008 bound_to 7997
  155.0694  140.3198  155.4616 H   0  0  0  0  0  0  0  0  0  0  0  0  # atno 8009 bound_to 7997
  156.2758  140.2084  156.5821 H   0  0  0  0  0  0  0  0  0  0  0  0  # atno 8010 bound_to 7997
  139.7041  143.9215  152.2441 H   0  0  0  0  0  0  0  0  0  0  0  0  # atno 10167 bound_to 10162
  157.3192  131.0901  151.1254 H   0  0  0  0  0  0  0  0  0  0  0  0  # atno 10718 bound_to 10713
  154.1248  135.2830  155.3199 H   0  0  0  0  0  0  0  0  0  0  0  0  # atno 10763 bound_to 10752
  154.6397  135.5406  153.7779 H   0  0  0  0  0  0  0  0  0  0  0  0  # atno 10764 bound_to 10752
  153.0301  135.6483  154.1401 H   0  0  0  0  0  0  0  0  0  0  0  0  # atno 10765 bound_to 10752
  140.2313  134.3524  155.7963 H   0  0  0  0  0  0  0  0  0  0  0  0  # atno 11005 bound_to 11000
  145.1359  139.2603  143.5515 LP  0  0  0  0  0  0  0  0  0  0  0  0  # atno 17320 bound_to 7965
  146.3526  140.1022  142.8607 LP  0  0  0  0  0  0  0  0  0  0  0  0  # atno 17321 bound_to 7965
  139.9066  144.6881  150.8608 LP  0  0  0  0  0  0  0  0  0  0  0  0  # atno 17342 bound_to 10162
  140.7717  143.3474  151.2083 LP  0  0  0  0  0  0  0  0  0  0  0  0  # atno 17343 bound_to 10162
  157.2546  130.6630  149.5946 LP  0  0  0  0  0  0  0  0  0  0  0  0  # atno 17370 bound_to 10713
  155.9684  130.4528  150.5786 LP  0  0  0  0  0  0  0  0  0  0  0  0  # atno 17371 bound_to 10713
  141.2217  133.7247  156.8736 LP  0  0  0  0  0  0  0  0  0  0  0  0  # atno 17394 bound_to 11000
  140.1748  134.9075  157.2877 LP  0  0  0  0  0  0  0  0  0  0  0  0  # atno 17395 bound_to 11000

$$$$
