AV-unprocessed.smi:3259|AV-procd|sdf|12475|dock1
  -GOLD-   2272018373D 1   1.00000     0.00000
 Structure written by MMmdl.
 39 40  0  0  0  0  0  0  0  0  1 V2000
  150.9959  138.1457  154.4393 C   0  0  0  0  0  0  0  0  0  0  0  0
  150.9188  139.5644  154.3863 O   0  0  0  0  0  0  0  0  0  0  0  0
  150.0553  140.1886  155.3378 C   0  0  2  0  0  0  0  0  0  0  0  0
  148.6083  139.7202  155.1184 C   0  0  0  0  0  0  0  0  0  0  0  0
  150.3128  141.7023  155.4559 C   0  0  0  0  0  0  0  0  0  0  0  0
  150.2128  141.5122  156.9678 C   0  0  2  0  0  0  0  0  0  0  0  0
  151.1412  142.3630  157.7036 N   0  0  0  0  0  0  0  0  0  0  0  0
  150.8148  143.0797  158.7896 C   0  0  0  0  0  0  0  0  0  0  0  0
  149.6878  143.0846  159.2837 O   0  0  0  0  0  0  0  0  0  0  0  0
  151.9322  143.9114  159.4210 C   0  0  0  0  0  0  0  0  0  0  0  0
  152.5358  143.2174  160.5448 N   0  0  0  0  0  0  0  0  0  0  0  0
  152.5283  143.5743  161.8775 C   0  0  0  0  0  0  0  0  0  0  0  0
  153.2152  142.6118  162.5605 C   0  0  0  0  0  0  0  0  0  0  0  0
  153.6119  141.6959  161.5465 C   0  0  0  0  0  0  0  0  0  0  0  0
  153.2048  142.0611  160.3415 N   0  0  0  0  0  0  0  0  0  0  0  0
  150.6880  140.0510  156.7613 C   0  0  0  0  0  0  0  0  0  0  0  0
  150.0664  139.0089  157.6964 C   0  0  0  0  0  0  0  0  0  0  0  0
  152.2092  139.8019  156.8070 C   0  0  0  0  0  0  0  0  0  0  0  0
  151.6071  137.7921  153.6093 H   0  0  0  0  0  0  0  0  0  0  0  0
  150.0149  137.6793  154.3477 H   0  0  0  0  0  0  0  0  0  0  0  0
  151.4670  137.7971  155.3580 H   0  0  0  0  0  0  0  0  0  0  0  0
  147.9444  140.0675  155.9098 H   0  0  0  0  0  0  0  0  0  0  0  0
  148.5442  138.6322  155.0922 H   0  0  0  0  0  0  0  0  0  0  0  0
  148.1947  140.0995  154.1845 H   0  0  0  0  0  0  0  0  0  0  0  0
  151.3042  142.0076  155.1158 H   0  0  0  0  0  0  0  0  0  0  0  0
  149.5330  142.3334  155.0285 H   0  0  0  0  0  0  0  0  0  0  0  0
  149.1799  141.5815  157.3167 H   0  0  0  0  0  0  0  0  0  0  0  0
  152.0902  142.4129  157.3627 H   0  0  0  0  0  0  0  0  0  0  0  0
  152.7001  144.1339  158.6785 H   0  0  0  0  0  0  0  0  0  0  0  0
  151.5348  144.8668  159.7666 H   0  0  0  0  0  0  0  0  0  0  0  0
  152.0382  144.4718  162.2245 H   0  0  0  0  0  0  0  0  0  0  0  0
  153.4056  142.5683  163.6226 H   0  0  0  0  0  0  0  0  0  0  0  0
  154.1796  140.7830  161.6498 H   0  0  0  0  0  0  0  0  0  0  0  0
  150.5086  139.0502  158.6924 H   0  0  0  0  0  0  0  0  0  0  0  0
  150.2075  137.9971  157.3152 H   0  0  0  0  0  0  0  0  0  0  0  0
  148.9952  139.1614  157.8257 H   0  0  0  0  0  0  0  0  0  0  0  0
  152.6048  139.9070  157.8177 H   0  0  0  0  0  0  0  0  0  0  0  0
  152.7624  140.4960  156.1743 H   0  0  0  0  0  0  0  0  0  0  0  0
  152.4576  138.7955  156.4681 H   0  0  0  0  0  0  0  0  0  0  0  0
  1  2  1  0  0  0  0
  1 19  1  0  0  0  0
  1 20  1  0  0  0  0
  1 21  1  0  0  0  0
  2  3  1  0  0  0  0
  3 16  1  0  0  0  0
  3  4  1  0  0  0  0
  3  5  1  0  0  0  0
  4 22  1  0  0  0  0
  4 23  1  0  0  0  0
  4 24  1  0  0  0  0
  5  6  1  0  0  0  0
  5 25  1  0  0  0  0
  5 26  1  0  0  0  0
  6  7  1  0  0  0  0
  6 16  1  0  0  0  0
  6 27  1  0  0  0  0
  7  8  1  0  0  0  0
  7 28  1  0  0  0  0
  8  9  2  0  0  0  0
  8 10  1  0  0  0  0
 10 11  1  0  0  0  0
 10 29  1  0  0  0  0
 10 30  1  0  0  0  0
 11 15  1  0  0  0  0
 11 12  1  0  0  0  0
 12 13  2  0  0  0  0
 12 31  1  0  0  0  0
 13 14  1  0  0  0  0
 13 32  1  0  0  0  0
 14 15  2  0  0  0  0
 14 33  1  0  0  0  0
 16 17  1  0  0  0  0
 16 18  1  0  0  0  0
 17 34  1  0  0  0  0
 17 35  1  0  0  0  0
 17 36  1  0  0  0  0
 18 37  1  0  0  0  0
 18 38  1  0  0  0  0
 18 39  1  0  0  0  0
M  END
> <s_m_source_file>
AV-unprocessed.smi

> <i_m_source_file_index>
3259

> <i_lp_mmshare_version>
43012

> <i_f3d_flags>
0

> <s_epik_input>
W0NIM11PW0NAQF0xKFtDSDNdKVtDSDJdW0NASF0oQzEoW0NIM10pW0NIM10pW05IXUMoPU8pW0NIMl1uMltjSF1bY0hdW2NIXW4y

> <s_epik_cmdline>
J2VwaWtfcHl0aG9uJywgJy1waCcsICc3LjAnLCAnLXRuJywgJzgnLCAnLW1hJywgJzIwMCcsICctbWV0YWxfYmluZGluZycsICctaW1hZScsICc8aW5maWxlLm1hZT4nLCAnLW9tYWUnLCAnPG91dGZpbGUubWFlPic=

> <r_lp_tautomer_probability>
1

> <r_epik_Ionization_Penalty>
1.78399e-05

> <r_epik_Ionization_Penalty_Charging>
0

> <r_epik_Ionization_Penalty_Neutral>
1.78399e-05

> <r_epik_State_Penalty>
-0

> <r_epik_Charging_Adjusted_Penalty>
0

> <i_epik_Tot_Q>
0

> <i_epik_Tot_abs_Q>
0

> <r_epik_Metal_State_Penalty>
-0

> <b_epik_Metal_Only>
0

> <s_lp_Force_Field>
OPLS_2005

> <r_lp_Energy>
24.0627

> <b_lp_Chiralities_Consistent>
1

> <s_lp_Variant>
AV-unprocessed.smi:3259-4

> <Gold.Version>
5.8.1

> <Gold.Id.Protein>
6NUR|6NUR_protein|mol2

> <Gold.PLP.Fitness>
41.4217

> <Gold.PLP.PLP>
-39.1088

> <Gold.PLP.part.hbond>
-2.0000

> <Gold.PLP.part.metal>
0.0000

> <Gold.PLP.part.buried>
-4.7718

> <Gold.PLP.part.nonpolar>
-31.7449

> <Gold.PLP.part.repulsive>
0.2711

> <Gold.PLP.ligand.clash>
0.0000

> <Gold.PLP.ligand.torsion>
0.5326

> <Gold.PLP.Chemscore.Hbond>
1.0000

> <Gold.PLP.Chemscore.CHOScore>
0.0000

> <Gold.PLP.Chemscore.Metal>
0.0000

> <Gold.Chemscore.Hbonds>
donor molecule, donor type, donor heavy atom, donor atom, acceptor molecule, acceptor atom, score
      P1  H  7989  7998       L1     2  1.00

> <Gold.PLP.Chemscore.Internal.Correction>
0.3780

> <Gold.Rescore>
     Score         DG    S(hbond)    S(metal)    S(lipo)     H(rot)  DE(clash)    DE(int)     intcor
     15.00     -15.60       1.08        0.00      90.62       1.60       0.10       0.50       ----

> <Gold.Chemscore.Fitness>
14.9993

> <Gold.Chemscore.DG>
-15.5988

> <Gold.Chemscore.ZeroCoef>
-5.4800

> <Gold.Chemscore.Hbond>
1.0787

> <Gold.Chemscore.Metal>
0.0000

> <Gold.Chemscore.Lipo>
90.6162

> <Gold.Chemscore.Internal_Hbond>
0.0000

> <Gold.Chemscore.DEClash>
0.0974

> <Gold.Chemscore.DEInternal>
0.5022

> <Gold.Chemscore.Rot>
1.5962

> <Gold.Chemscore.Internal.Correction>
   9.000000E+99

> <Gold.Chemscore.Hbonds>
donor molecule, donor type, donor heavy atom, donor atom, acceptor molecule, acceptor atom, score
      P1  H  7989  7998       L1     2  0.55

> <Gold.Chemscore.Hbond.Weighted>
-3.6030

> <Gold.Chemscore.Metal.Weighted>
-0.0000

> <Gold.Chemscore.Lipo.Weighted>
-10.6021

> <Gold.Chemscore.Internal_Hbond.Weighted>
0.0000

> <Gold.Chemscore.DEClash.Weighted>
0.0974

> <Gold.Chemscore.DEInternal.Weighted>
0.5022

> <Gold.Chemscore.Rot.Weighted>
4.0862

> <Gold.Chemscore.Internal.Correction.Weighted>
   9.000000E+99

> <Gold.Protein.RotatedTorsions>
[ 6907 6896 6895 6894 ] final   21.73 input  -60.11 | X-H torsion
[ 7974 7965 7964 7962 ] final   84.59 input  175.53 | X-H torsion
[ 8008 7997 7996 7995 ] final  -60.04 input   59.86 | X-H torsion
[ 10167 10162 10161 10158 ] final  -85.89 input  -65.29 | X-H torsion
[ 10718 10713 10712 10709 ] final   37.78 input   66.30 | X-H torsion
[ 10763 10752 10751 10750 ] final   82.56 input  -60.55 | X-H torsion
[ 11005 11000 10999 10996 ] final -113.82 input  -57.11 | X-H torsion

> <Gold.Protein.ActiveResidues>
 VAL166  LYS551  ARG553  GLY616  TRP617  ASP618  TYR619  PRO620  LYS621  CYS622 
 ASP623  PHE694  ASN695  SER759  ASP760  ASP761  ALA762  ILE779  LEU786  VAL792 
 PHE793  MET794  SER795  GLU796  ALA797  LYS798  CYS799  TRP800  GLU811  SER814 

> <Gold.Protein.RotatedAtoms>
  151.9162  135.0318  160.0518 H   0  0  0  0  0  0  0  0  0  0  0  0  # atno 6907 bound_to 6896
  152.2237  133.4999  159.5185 H   0  0  0  0  0  0  0  0  0  0  0  0  # atno 6908 bound_to 6896
  150.7006  134.1224  159.4082 H   0  0  0  0  0  0  0  0  0  0  0  0  # atno 6909 bound_to 6896
  145.5967  139.2346  143.2269 H   0  0  0  0  0  0  0  0  0  0  0  0  # atno 7974 bound_to 7965
  154.4380  140.1048  156.6211 H   0  0  0  0  0  0  0  0  0  0  0  0  # atno 8008 bound_to 7997
  155.5706  140.3489  155.4495 H   0  0  0  0  0  0  0  0  0  0  0  0  # atno 8009 bound_to 7997
  156.0392  140.1278  157.0163 H   0  0  0  0  0  0  0  0  0  0  0  0  # atno 8010 bound_to 7997
  140.3994  143.2669  151.9162 H   0  0  0  0  0  0  0  0  0  0  0  0  # atno 10167 bound_to 10162
  157.3510  130.7598  149.6978 H   0  0  0  0  0  0  0  0  0  0  0  0  # atno 10718 bound_to 10713
  153.1213  135.4724  154.9200 H   0  0  0  0  0  0  0  0  0  0  0  0  # atno 10763 bound_to 10752
  154.7578  135.3123  154.8439 H   0  0  0  0  0  0  0  0  0  0  0  0  # atno 10764 bound_to 10752
  153.9002  135.6876  153.4809 H   0  0  0  0  0  0  0  0  0  0  0  0  # atno 10765 bound_to 10752
  141.0590  133.9566  157.2701 H   0  0  0  0  0  0  0  0  0  0  0  0  # atno 11005 bound_to 11000
  146.1607  140.6792  142.9279 LP  0  0  0  0  0  0  0  0  0  0  0  0  # atno 17320 bound_to 7965
  144.7327  140.4720  143.6926 LP  0  0  0  0  0  0  0  0  0  0  0  0  # atno 17321 bound_to 7965
  139.4785  144.5649  151.8181 LP  0  0  0  0  0  0  0  0  0  0  0  0  # atno 17342 bound_to 10162
  140.4756  144.1524  150.5924 LP  0  0  0  0  0  0  0  0  0  0  0  0  # atno 17343 bound_to 10162
  155.9721  130.4140  150.4113 LP  0  0  0  0  0  0  0  0  0  0  0  0  # atno 17370 bound_to 10713
  157.2176  131.0475  151.2564 LP  0  0  0  0  0  0  0  0  0  0  0  0  # atno 17371 bound_to 10713
  139.9416  135.0190  156.8724 LP  0  0  0  0  0  0  0  0  0  0  0  0  # atno 17394 bound_to 11000
  140.5906  134.0265  155.7498 LP  0  0  0  0  0  0  0  0  0  0  0  0  # atno 17395 bound_to 11000

$$$$
