AV-unprocessed.smi:3348|AV-procd|sdf|12928|dock7
  -GOLD-   2272019353D 1   1.00000     0.00000
 Structure written by MMmdl.
 46 47  0  0  0  0  0  0  0  0  1 V2000
  151.9875  138.5356  155.1109 C   0  0  0  0  0  0  0  0  0  0  0  0
  150.7033  139.3165  155.4616 C   0  0  1  0  0  0  0  0  0  0  0  0
  149.5066  138.8903  154.5862 C   0  0  0  0  0  0  0  0  0  0  0  0
  148.5983  139.9859  154.2965 N   0  0  0  0  0  0  0  0  0  0  0  0
  148.7830  141.3321  154.5310 C   0  0  0  0  0  0  0  0  0  0  0  0
  147.6613  141.9782  154.0964 C   0  0  0  0  0  0  0  0  0  0  0  0
  146.8339  140.9279  153.6096 C   0  0  0  0  0  0  0  0  0  0  0  0
  147.3960  139.7365  153.7331 N   0  0  0  0  0  0  0  0  0  0  0  0
  150.3388  139.1613  156.8734 N   0  0  0  0  0  0  0  0  0  0  0  0
  150.2384  140.4008  157.6431 C   0  0  0  0  0  0  0  0  0  0  0  0
  151.6003  140.7925  158.2242 C   0  0  0  0  0  0  0  0  0  0  0  0
  151.4983  142.0985  158.7716 O   0  0  0  0  0  0  0  0  0  0  0  0
  152.7429  142.7667  158.9480 C   0  0  2  0  0  0  0  0  0  0  0  0
  153.3446  142.4148  160.3250 C   0  0  0  0  0  0  0  0  0  0  0  0
  152.4700  142.9365  161.4770 C   0  0  0  0  0  0  0  0  0  0  0  0
  152.2287  144.4486  161.3526 C   0  0  0  0  0  0  0  0  0  0  0  0
  151.6282  144.8084  159.9841 C   0  0  0  0  0  0  0  0  0  0  0  0
  152.5054  144.2886  158.8273 C   0  0  2  0  0  0  0  0  0  0  0  0
  151.9324  144.6752  157.4549 C   0  0  0  0  0  0  0  0  0  0  0  0
  152.2437  138.6409  154.0569 H   0  0  0  0  0  0  0  0  0  0  0  0
  151.8717  137.4710  155.3168 H   0  0  0  0  0  0  0  0  0  0  0  0
  152.8509  138.8939  155.6700 H   0  0  0  0  0  0  0  0  0  0  0  0
  150.8927  140.3730  155.2674 H   0  0  0  0  0  0  0  0  0  0  0  0
  149.8566  138.4599  153.6462 H   0  0  0  0  0  0  0  0  0  0  0  0
  148.9340  138.1097  155.0893 H   0  0  0  0  0  0  0  0  0  0  0  0
  149.6882  141.7128  154.9805 H   0  0  0  0  0  0  0  0  0  0  0  0
  147.4619  143.0391  154.1227 H   0  0  0  0  0  0  0  0  0  0  0  0
  145.8479  140.9953  153.1741 H   0  0  0  0  0  0  0  0  0  0  0  0
  150.9967  138.5366  157.3295 H   0  0  0  0  0  0  0  0  0  0  0  0
  149.8669  141.2210  157.0300 H   0  0  0  0  0  0  0  0  0  0  0  0
  149.5260  140.2661  158.4577 H   0  0  0  0  0  0  0  0  0  0  0  0
  151.8739  140.0812  159.0032 H   0  0  0  0  0  0  0  0  0  0  0  0
  152.3758  140.7510  157.4573 H   0  0  0  0  0  0  0  0  0  0  0  0
  153.4380  142.4668  158.1617 H   0  0  0  0  0  0  0  0  0  0  0  0
  153.4856  141.3390  160.4243 H   0  0  0  0  0  0  0  0  0  0  0  0
  154.3392  142.8552  160.4037 H   0  0  0  0  0  0  0  0  0  0  0  0
  151.5134  142.4123  161.4770 H   0  0  0  0  0  0  0  0  0  0  0  0
  152.9432  142.7133  162.4334 H   0  0  0  0  0  0  0  0  0  0  0  0
  151.5654  144.7862  162.1496 H   0  0  0  0  0  0  0  0  0  0  0  0
  153.1708  144.9808  161.4890 H   0  0  0  0  0  0  0  0  0  0  0  0
  150.6237  144.3903  159.9054 H   0  0  0  0  0  0  0  0  0  0  0  0
  151.5163  145.8906  159.9094 H   0  0  0  0  0  0  0  0  0  0  0  0
  153.4775  144.7767  158.9120 H   0  0  0  0  0  0  0  0  0  0  0  0
  150.9463  144.2382  157.2956 H   0  0  0  0  0  0  0  0  0  0  0  0
  152.5817  144.3335  156.6484 H   0  0  0  0  0  0  0  0  0  0  0  0
  151.8341  145.7571  157.3624 H   0  0  0  0  0  0  0  0  0  0  0  0
  1  2  1  0  0  0  0
  1 20  1  0  0  0  0
  1 21  1  0  0  0  0
  1 22  1  0  0  0  0
  2  3  1  0  0  0  0
  2  9  1  0  0  0  0
  2 23  1  0  0  0  0
  3  4  1  0  0  0  0
  3 24  1  0  0  0  0
  3 25  1  0  0  0  0
  4  8  1  0  0  0  0
  4  5  1  0  0  0  0
  5  6  2  0  0  0  0
  5 26  1  0  0  0  0
  6  7  1  0  0  0  0
  6 27  1  0  0  0  0
  7  8  2  0  0  0  0
  7 28  1  0  0  0  0
  9 10  1  0  0  0  0
  9 29  1  0  0  0  0
 10 11  1  0  0  0  0
 10 30  1  0  0  0  0
 10 31  1  0  0  0  0
 11 12  1  0  0  0  0
 11 32  1  0  0  0  0
 11 33  1  0  0  0  0
 12 13  1  0  0  0  0
 13 18  1  0  0  0  0
 13 14  1  0  0  0  0
 13 34  1  0  0  0  0
 14 15  1  0  0  0  0
 14 35  1  0  0  0  0
 14 36  1  0  0  0  0
 15 16  1  0  0  0  0
 15 37  1  0  0  0  0
 15 38  1  0  0  0  0
 16 17  1  0  0  0  0
 16 39  1  0  0  0  0
 16 40  1  0  0  0  0
 17 18  1  0  0  0  0
 17 41  1  0  0  0  0
 17 42  1  0  0  0  0
 18 19  1  0  0  0  0
 18 43  1  0  0  0  0
 19 44  1  0  0  0  0
 19 45  1  0  0  0  0
 19 46  1  0  0  0  0
M  END
> <s_m_source_file>
AV-unprocessed.smi

> <i_m_source_file_index>
3348

> <i_lp_mmshare_version>
43012

> <i_f3d_flags>
0

> <s_epik_input>
bjFbY0hdW2NIXVtjSF1uMVtDSDJdW0NAQEhdKFtDSDNdKVtOSF1bQ0gyXVtDSDJdT1tDQEBIXTJbQ0gyXVtDSDJdW0NIMl1bQ0gyXVtDQEhdMltDSDNd

> <s_epik_cmdline>
J2VwaWtfcHl0aG9uJywgJy1waCcsICc3LjAnLCAnLXRuJywgJzgnLCAnLW1hJywgJzIwMCcsICctbWV0YWxfYmluZGluZycsICctaW1hZScsICc8aW5maWxlLm1hZT4nLCAnLW9tYWUnLCAnPG91dGZpbGUubWFlPic=

> <r_lp_tautomer_probability>
1

> <r_epik_Ionization_Penalty>
2.46945

> <r_epik_Ionization_Penalty_Charging>
0

> <r_epik_Ionization_Penalty_Neutral>
2.46945

> <r_epik_State_Penalty>
2.6322

> <r_epik_Charging_Adjusted_Penalty>
2.6322

> <i_epik_Tot_Q>
0

> <i_epik_Tot_abs_Q>
0

> <r_epik_Metal_State_Penalty>
2.63217

> <b_epik_Metal_Only>
0

> <s_lp_Force_Field>
OPLS_2005

> <r_lp_Energy>
17.7248

> <b_lp_Chiralities_Consistent>
1

> <s_lp_Variant>
AV-unprocessed.smi:3348-14

> <Gold.Version>
5.8.1

> <Gold.Id.Protein>
6NUR|6NUR_protein|mol2

> <Gold.PLP.Fitness>
52.2289

> <Gold.PLP.PLP>
-52.7452

> <Gold.PLP.part.hbond>
0.0000

> <Gold.PLP.part.metal>
0.0000

> <Gold.PLP.part.buried>
-4.5826

> <Gold.PLP.part.nonpolar>
-48.2434

> <Gold.PLP.part.repulsive>
0.7791

> <Gold.PLP.ligand.clash>
0.0000

> <Gold.PLP.ligand.torsion>
1.8608

> <Gold.PLP.Chemscore.Hbond>
0.0000

> <Gold.PLP.Chemscore.CHOScore>
0.9984

> <Gold.PLP.Chemscore.Metal>
0.0000

> <Gold.Chemscore.Hbonds>
donor molecule, donor type, donor heavy atom, donor atom, acceptor molecule, acceptor atom, score
      L1  C     7    28       P1 10175  1.00

> <Gold.PLP.Chemscore.Internal.Correction>
0.2100

> <Gold.Rescore>
     Score         DG    S(hbond)    S(metal)    S(lipo)     H(rot)  DE(clash)    DE(int)     intcor
     15.16     -17.55       0.00        0.00     140.87       1.72       0.02       2.38       ----

> <Gold.Chemscore.Fitness>
15.1562

> <Gold.Chemscore.DG>
-17.5491

> <Gold.Chemscore.ZeroCoef>
-5.4800

> <Gold.Chemscore.Hbond>
0.0000

> <Gold.Chemscore.Metal>
0.0000

> <Gold.Chemscore.Lipo>
140.8690

> <Gold.Chemscore.Internal_Hbond>
0.0000

> <Gold.Chemscore.DEClash>
0.0178

> <Gold.Chemscore.DEInternal>
2.3751

> <Gold.Chemscore.Rot>
1.7237

> <Gold.Chemscore.Internal.Correction>
   9.000000E+99

> <Gold.Chemscore.Hbond.Weighted>
-0.0000

> <Gold.Chemscore.Metal.Weighted>
-0.0000

> <Gold.Chemscore.Lipo.Weighted>
-16.4817

> <Gold.Chemscore.Internal_Hbond.Weighted>
0.0000

> <Gold.Chemscore.DEClash.Weighted>
0.0178

> <Gold.Chemscore.DEInternal.Weighted>
2.3751

> <Gold.Chemscore.Rot.Weighted>
4.4126

> <Gold.Chemscore.Internal.Correction.Weighted>
   9.000000E+99

> <Gold.Protein.RotatedTorsions>
[ 6907 6896 6895 6894 ] final  175.59 input  -60.11 | X-H torsion
[ 7974 7965 7964 7962 ] final  -18.13 input  175.53 | X-H torsion
[ 8008 7997 7996 7995 ] final  -97.22 input   59.86 | X-H torsion
[ 10167 10162 10161 10158 ] final   83.90 input  -65.29 | X-H torsion
[ 10718 10713 10712 10709 ] final   43.57 input   66.30 | X-H torsion
[ 10763 10752 10751 10750 ] final  -49.07 input  -60.55 | X-H torsion
[ 11005 11000 10999 10996 ] final  124.62 input  -57.11 | X-H torsion

> <Gold.Protein.ActiveResidues>
 VAL166  LYS551  ARG553  GLY616  TRP617  ASP618  TYR619  PRO620  LYS621  CYS622 
 ASP623  PHE694  ASN695  SER759  ASP760  ASP761  ALA762  ILE779  LEU786  VAL792 
 PHE793  MET794  SER795  GLU796  ALA797  LYS798  CYS799  TRP800  GLU811  SER814 

> <Gold.Protein.RotatedAtoms>
  151.7338  133.3319  159.3347 H   0  0  0  0  0  0  0  0  0  0  0  0  # atno 6907 bound_to 6896
  150.7601  134.6339  159.6210 H   0  0  0  0  0  0  0  0  0  0  0  0  # atno 6908 bound_to 6896
  152.3574  134.6922  160.0269 H   0  0  0  0  0  0  0  0  0  0  0  0  # atno 6909 bound_to 6896
  146.1907  140.3878  142.8459 H   0  0  0  0  0  0  0  0  0  0  0  0  # atno 7974 bound_to 7965
  154.7848  140.0465  157.1155 H   0  0  0  0  0  0  0  0  0  0  0  0  # atno 8008 bound_to 7997
  154.9661  140.3083  155.4989 H   0  0  0  0  0  0  0  0  0  0  0  0  # atno 8009 bound_to 7997
  156.2941  140.2262  156.4751 H   0  0  0  0  0  0  0  0  0  0  0  0  # atno 8010 bound_to 7997
  139.9136  144.6256  150.8512 H   0  0  0  0  0  0  0  0  0  0  0  0  # atno 10167 bound_to 10162
  157.4174  130.7949  149.7484 H   0  0  0  0  0  0  0  0  0  0  0  0  # atno 10718 bound_to 10713
  154.0881  135.6581  153.4848 H   0  0  0  0  0  0  0  0  0  0  0  0  # atno 10763 bound_to 10752
  153.0331  135.5196  154.7408 H   0  0  0  0  0  0  0  0  0  0  0  0  # atno 10764 bound_to 10752
  154.6523  135.3003  154.9940 H   0  0  0  0  0  0  0  0  0  0  0  0  # atno 10765 bound_to 10752
  139.9367  134.9639  156.8436 H   0  0  0  0  0  0  0  0  0  0  0  0  # atno 11005 bound_to 11000
  144.8481  140.6960  143.6186 LP  0  0  0  0  0  0  0  0  0  0  0  0  # atno 17320 bound_to 7965
  145.3801  139.1639  143.4285 LP  0  0  0  0  0  0  0  0  0  0  0  0  # atno 17321 bound_to 7965
  140.7679  143.3347  151.2333 LP  0  0  0  0  0  0  0  0  0  0  0  0  # atno 17342 bound_to 10162
  139.6921  143.9674  152.2864 LP  0  0  0  0  0  0  0  0  0  0  0  0  # atno 17343 bound_to 10162
  155.9869  130.3971  150.3188 LP  0  0  0  0  0  0  0  0  0  0  0  0  # atno 17370 bound_to 10713
  157.1333  131.0277  151.2960 LP  0  0  0  0  0  0  0  0  0  0  0  0  # atno 17371 bound_to 10713
  140.6057  134.0130  155.7556 LP  0  0  0  0  0  0  0  0  0  0  0  0  # atno 17394 bound_to 11000
  141.0984  133.9807  157.3121 LP  0  0  0  0  0  0  0  0  0  0  0  0  # atno 17395 bound_to 11000

$$$$
