AV-unprocessed.smi:2567|AV-procd|sdf|10087|dock1
  -GOLD-   2272014113D 1   1.00000     0.00000
 Structure written by MMmdl.
 32 33  0  0  0  0  0  0  0  0  2 V2000
  152.7832  144.6993  157.9764 C   0  0  0  0  0  0  0  0  0  0  0  0
  151.9984  144.1849  159.1950 C   0  0  0  0  0  0  0  0  0  0  0  0
  151.8763  145.2995  160.2537 C   0  0  0  0  0  0  0  0  0  0  0  0
  150.5680  143.7929  158.7733 C   0  0  0  0  0  0  0  0  0  0  0  0
  152.7150  142.9773  159.7904 C   0  0  0  0  0  0  0  0  0  0  0  0
  153.1441  142.8609  161.0624 N   0  5  0  0  0  0  0  0  0  0  0  0
  153.6066  141.6469  161.2777 N   0  0  0  0  0  0  0  0  0  0  0  0
  153.4307  140.9901  160.1219 C   0  0  0  0  0  0  0  0  0  0  0  0
  153.7713  139.5293  159.9039 C   0  0  1  0  0  0  0  0  0  0  0  0
  152.5145  138.7196  159.5244 C   0  0  0  0  0  0  0  0  0  0  0  0
  152.8519  137.3133  159.3028 N   0  0  0  0  0  0  0  0  0  0  0  0
  153.9155  137.1743  158.3106 C   0  0  0  0  0  0  0  0  0  0  0  0
  155.1385  138.0119  158.7203 C   0  0  0  0  0  0  0  0  0  0  0  0
  154.7497  139.3717  158.8779 O   0  0  0  0  0  0  0  0  0  0  0  0
  152.8525  141.7863  159.2112 N   0  0  0  0  0  0  0  0  0  0  0  0
  152.2994  145.5675  157.5283 H   0  0  0  0  0  0  0  0  0  0  0  0
  152.8637  143.9310  157.2067 H   0  0  0  0  0  0  0  0  0  0  0  0
  153.7960  144.9924  158.2549 H   0  0  0  0  0  0  0  0  0  0  0  0
  152.8559  145.6454  160.5847 H   0  0  0  0  0  0  0  0  0  0  0  0
  151.3360  144.9519  161.1351 H   0  0  0  0  0  0  0  0  0  0  0  0
  151.3435  146.1655  159.8601 H   0  0  0  0  0  0  0  0  0  0  0  0
  150.0252  144.6468  158.3671 H   0  0  0  0  0  0  0  0  0  0  0  0
  149.9961  143.4101  159.6193 H   0  0  0  0  0  0  0  0  0  0  0  0
  150.5754  143.0192  158.0048 H   0  0  0  0  0  0  0  0  0  0  0  0
  154.1825  139.1505  160.8418 H   0  0  0  0  0  0  0  0  0  0  0  0
  151.7644  138.8016  160.3114 H   0  0  0  0  0  0  0  0  0  0  0  0
  152.0676  139.1398  158.6222 H   0  0  0  0  0  0  0  0  0  0  0  0
  154.1960  136.1260  158.2064 H   0  0  0  0  0  0  0  0  0  0  0  0
  153.5580  137.5028  157.3339 H   0  0  0  0  0  0  0  0  0  0  0  0
  155.5819  137.6343  159.6431 H   0  0  0  0  0  0  0  0  0  0  0  0
  155.9074  137.9525  157.9501 H   0  0  0  0  0  0  0  0  0  0  0  0
  152.0265  136.8136  158.9890 H   0  0  0  0  0  0  0  0  0  0  0  0
  1  2  1  0  0  0  0
  1 16  1  0  0  0  0
  1 17  1  0  0  0  0
  1 18  1  0  0  0  0
  2  3  1  0  0  0  0
  2  4  1  0  0  0  0
  2  5  1  0  0  0  0
  3 19  1  0  0  0  0
  3 20  1  0  0  0  0
  3 21  1  0  0  0  0
  4 22  1  0  0  0  0
  4 23  1  0  0  0  0
  4 24  1  0  0  0  0
  5 15  2  0  0  0  0
  5  6  1  0  0  0  0
  6  7  1  0  0  0  0
  7  8  2  0  0  0  0
  8  9  1  0  0  0  0
  8 15  1  0  0  0  0
  9 14  1  0  0  0  0
  9 10  1  0  0  0  0
  9 25  1  0  0  0  0
 10 11  1  0  0  0  0
 10 26  1  0  0  0  0
 10 27  1  0  0  0  0
 11 12  1  0  0  0  0
 11 32  1  0  0  0  0
 12 13  1  0  0  0  0
 12 28  1  0  0  0  0
 12 29  1  0  0  0  0
 13 14  1  0  0  0  0
 13 30  1  0  0  0  0
 13 31  1  0  0  0  0
M  CHG  1   6  -1
M  END
> <s_m_source_file>
AV-unprocessed.smi

> <i_m_source_file_index>
2567

> <i_lp_mmshare_version>
43012

> <i_f3d_flags>
0

> <s_epik_input>
W0NIM11DKFtDSDNdKShbQ0gzXSljMW5bbkhdYyhuMSlbQ0BASF0yW0NIMl1bTkhdW0NIMl1bQ0gyXU8y

> <s_epik_cmdline>
J2VwaWtfcHl0aG9uJywgJy1waCcsICc3LjAnLCAnLXRuJywgJzgnLCAnLW1hJywgJzIwMCcsICctbWV0YWxfYmluZGluZycsICctaW1hZScsICc8aW5maWxlLm1hZT4nLCAnLW9tYWUnLCAnPG91dGZpbGUubWFlPic=

> <r_lp_tautomer_probability>
0.948284

> <r_epik_Ionization_Penalty>
17.5852

> <r_epik_Ionization_Penalty_Charging>
16.0119

> <r_epik_Ionization_Penalty_Neutral>
1.5733

> <r_epik_State_Penalty>
6.64574

> <r_epik_Charging_Adjusted_Penalty>
22.6576

> <i_epik_Tot_Q>
-1

> <i_epik_Tot_abs_Q>
1

> <r_epik_Metal_State_Penalty>
2.89273

> <b_epik_Metal_Only>
1

> <s_lp_Force_Field>
OPLS_2005

> <r_lp_Energy>
12.7072

> <b_lp_Chiralities_Consistent>
1

> <s_lp_Variant>
AV-unprocessed.smi:2567-12

> <Gold.Version>
5.8.1

> <Gold.Id.Protein>
6NUR|6NUR_protein|mol2

> <Gold.PLP.Fitness>
34.1653

> <Gold.PLP.PLP>
-31.1927

> <Gold.PLP.part.hbond>
-1.0000

> <Gold.PLP.part.metal>
0.0000

> <Gold.PLP.part.buried>
-5.8308

> <Gold.PLP.part.nonpolar>
-23.6128

> <Gold.PLP.part.repulsive>
0.0244

> <Gold.PLP.ligand.clash>
0.0000

> <Gold.PLP.ligand.torsion>
0.1070

> <Gold.PLP.Chemscore.Hbond>
1.0000

> <Gold.PLP.Chemscore.CHOScore>
0.0000

> <Gold.PLP.Chemscore.Metal>
0.0000

> <Gold.Chemscore.Hbonds>
donor molecule, donor type, donor heavy atom, donor atom, acceptor molecule, acceptor atom, score
      P1  H  7997  8009       L1    14  1.00

> <Gold.PLP.Chemscore.Internal.Correction>
0.1865

> <Gold.Rescore>
     Score         DG    S(hbond)    S(metal)    S(lipo)     H(rot)  DE(clash)    DE(int)     intcor
     12.71     -12.95       0.88        0.00      65.56       1.23       0.13       0.11       ----

> <Gold.Chemscore.Fitness>
12.7086

> <Gold.Chemscore.DG>
-12.9495

> <Gold.Chemscore.ZeroCoef>
-5.4800

> <Gold.Chemscore.Hbond>
0.8811

> <Gold.Chemscore.Metal>
0.0000

> <Gold.Chemscore.Lipo>
65.5630

> <Gold.Chemscore.Internal_Hbond>
0.0000

> <Gold.Chemscore.DEClash>
0.1334

> <Gold.Chemscore.DEInternal>
0.1075

> <Gold.Chemscore.Rot>
1.2283

> <Gold.Chemscore.Internal.Correction>
   9.000000E+99

> <Gold.Chemscore.Hbonds>
donor molecule, donor type, donor heavy atom, donor atom, acceptor molecule, acceptor atom, score
      P1  H  7997  8009       L1    14  0.30

> <Gold.Chemscore.Hbond.Weighted>
-2.9430

> <Gold.Chemscore.Metal.Weighted>
-0.0000

> <Gold.Chemscore.Lipo.Weighted>
-7.6709

> <Gold.Chemscore.Internal_Hbond.Weighted>
0.0000

> <Gold.Chemscore.DEClash.Weighted>
0.1334

> <Gold.Chemscore.DEInternal.Weighted>
0.1075

> <Gold.Chemscore.Rot.Weighted>
3.1444

> <Gold.Chemscore.Internal.Correction.Weighted>
   9.000000E+99

> <Gold.Protein.RotatedTorsions>
[ 6907 6896 6895 6894 ] final  146.89 input  -60.11 | X-H torsion
[ 7974 7965 7964 7962 ] final  -98.13 input  175.53 | X-H torsion
[ 8008 7997 7996 7995 ] final  116.18 input   59.86 | X-H torsion
[ 10167 10162 10161 10158 ] final  -34.99 input  -65.29 | X-H torsion
[ 10718 10713 10712 10709 ] final  -85.80 input   66.30 | X-H torsion
[ 10763 10752 10751 10750 ] final   47.11 input  -60.55 | X-H torsion
[ 11005 11000 10999 10996 ] final   18.25 input  -57.11 | X-H torsion

> <Gold.Protein.ActiveResidues>
 VAL166  LYS551  ARG553  GLY616  TRP617  ASP618  TYR619  PRO620  LYS621  CYS622 
 ASP623  PHE694  ASN695  SER759  ASP760  ASP761  ALA762  ILE779  LEU786  VAL792 
 PHE793  MET794  SER795  GLU796  ALA797  LYS798  CYS799  TRP800  GLU811  SER814 

> <Gold.Protein.RotatedAtoms>
  152.1620  133.4588  159.4865 H   0  0  0  0  0  0  0  0  0  0  0  0  # atno 6907 bound_to 6896
  150.6908  134.2060  159.4349 H   0  0  0  0  0  0  0  0  0  0  0  0  # atno 6908 bound_to 6896
  151.9962  134.9952  160.0614 H   0  0  0  0  0  0  0  0  0  0  0  0  # atno 6909 bound_to 6896
  145.3246  140.9429  143.2696 H   0  0  0  0  0  0  0  0  0  0  0  0  # atno 7974 bound_to 7965
  156.2425  140.2923  156.0484 H   0  0  0  0  0  0  0  0  0  0  0  0  # atno 8008 bound_to 7997
  155.1909  140.0407  157.2917 H   0  0  0  0  0  0  0  0  0  0  0  0  # atno 8009 bound_to 7997
  154.6195  140.2472  155.7574 H   0  0  0  0  0  0  0  0  0  0  0  0  # atno 8010 bound_to 7997
  140.7174  143.3508  151.2159 H   0  0  0  0  0  0  0  0  0  0  0  0  # atno 10167 bound_to 10162
  155.9994  130.4743  150.4617 H   0  0  0  0  0  0  0  0  0  0  0  0  # atno 10718 bound_to 10713
  152.9803  135.5986  154.3710 H   0  0  0  0  0  0  0  0  0  0  0  0  # atno 10763 bound_to 10752
  154.3383  135.2768  155.2438 H   0  0  0  0  0  0  0  0  0  0  0  0  # atno 10764 bound_to 10752
  154.4530  135.5985  153.6260 H   0  0  0  0  0  0  0  0  0  0  0  0  # atno 10765 bound_to 10752
  140.4269  134.1461  155.7677 H   0  0  0  0  0  0  0  0  0  0  0  0  # atno 11005 bound_to 11000
  144.8912  139.4772  143.6677 LP  0  0  0  0  0  0  0  0  0  0  0  0  # atno 17320 bound_to 7965
  146.3069  139.7611  142.9049 LP  0  0  0  0  0  0  0  0  0  0  0  0  # atno 17321 bound_to 7965
  139.7039  143.9488  152.2918 LP  0  0  0  0  0  0  0  0  0  0  0  0  # atno 17342 bound_to 10162
  139.9190  144.6811  150.8482 LP  0  0  0  0  0  0  0  0  0  0  0  0  # atno 17343 bound_to 10162
  157.2641  131.0573  151.2302 LP  0  0  0  0  0  0  0  0  0  0  0  0  # atno 17370 bound_to 10713
  157.3406  130.7031  149.6379 LP  0  0  0  0  0  0  0  0  0  0  0  0  # atno 17371 bound_to 10713
  141.1761  133.8510  157.1414 LP  0  0  0  0  0  0  0  0  0  0  0  0  # atno 17394 bound_to 11000
  140.0161  134.9966  157.0497 LP  0  0  0  0  0  0  0  0  0  0  0  0  # atno 17395 bound_to 11000

$$$$
