AV-unprocessed.smi:527|AV-procd|sdf|2825|dock1
  -GOLD-   2262023313D 1   1.00000     0.00000
 Structure written by MMmdl.
 43 44  0  0  0  0  0  0  0  0  2 V2000
  153.6186  142.1355  161.8227 C   0  0  0  0  0  0  0  0  0  0  0  0
  153.2943  142.4581  160.3522 C   0  0  2  0  0  0  0  0  0  0  0  0
  152.5573  143.8100  160.2729 C   0  0  0  0  0  0  0  0  0  0  0  0
  152.2393  144.2023  158.8262 C   0  0  0  0  0  0  0  0  0  0  0  0
  151.4044  143.1148  158.1445 C   0  0  0  0  0  0  0  0  0  0  0  0
  152.1141  141.7479  158.1919 C   0  0  2  0  0  0  0  0  0  0  0  0
  151.2537  140.7391  157.5752 N   0  0  0  0  0  0  0  0  0  0  0  0
  151.5277  140.0627  156.4498 C   0  0  0  0  0  0  0  0  0  0  0  0
  152.6647  139.9449  155.9880 O   0  0  0  0  0  0  0  0  0  0  0  0
  150.4051  139.5449  155.9149 N   0  0  0  0  0  0  0  0  0  0  0  0
  150.2924  138.8087  154.7908 C   0  0  0  0  0  0  0  0  0  0  0  0
  151.2318  138.4898  154.0574 O   0  0  0  0  0  0  0  0  0  0  0  0
  148.8623  138.3661  154.4549 C   0  0  0  0  0  0  0  0  0  0  0  0
  147.9635  139.4902  154.1629 N   0  0  0  0  0  0  0  0  0  0  0  0
  148.2398  140.8286  154.2828 C   0  0  0  0  0  0  0  0  0  0  0  0
  147.1039  141.4976  153.9057 C   0  0  0  0  0  0  0  0  0  0  0  0
  146.1826  140.5409  153.5733 N   0  3  0  0  0  0  0  0  0  0  0  0
  146.7065  139.3208  153.7309 C   0  0  0  0  0  0  0  0  0  0  0  0
  152.4831  141.3358  159.6434 C   0  0  1  0  0  0  0  0  0  0  0  0
  153.2294  139.9834  159.6617 C   0  0  0  0  0  0  0  0  0  0  0  0
  152.7131  141.9214  162.3911 H   0  0  0  0  0  0  0  0  0  0  0  0
  154.1200  142.9752  162.3051 H   0  0  0  0  0  0  0  0  0  0  0  0
  154.2861  141.2795  161.9151 H   0  0  0  0  0  0  0  0  0  0  0  0
  154.2437  142.5711  159.8266 H   0  0  0  0  0  0  0  0  0  0  0  0
  151.6314  143.7611  160.8478 H   0  0  0  0  0  0  0  0  0  0  0  0
  153.1622  144.5930  160.7316 H   0  0  0  0  0  0  0  0  0  0  0  0
  151.7011  145.1504  158.8073 H   0  0  0  0  0  0  0  0  0  0  0  0
  153.1660  144.3591  158.2726 H   0  0  0  0  0  0  0  0  0  0  0  0
  150.4322  143.0456  158.6346 H   0  0  0  0  0  0  0  0  0  0  0  0
  151.2093  143.4028  157.1106 H   0  0  0  0  0  0  0  0  0  0  0  0
  153.0423  141.8218  157.6214 H   0  0  0  0  0  0  0  0  0  0  0  0
  150.3863  140.5387  158.0506 H   0  0  0  0  0  0  0  0  0  0  0  0
  149.5483  139.7292  156.4155 H   0  0  0  0  0  0  0  0  0  0  0  0
  148.8766  137.7112  153.5828 H   0  0  0  0  0  0  0  0  0  0  0  0
  148.4434  137.7968  155.2862 H   0  0  0  0  0  0  0  0  0  0  0  0
  149.1978  141.1958  154.6213 H   0  0  0  0  0  0  0  0  0  0  0  0
  146.8876  142.5546  153.8524 H   0  0  0  0  0  0  0  0  0  0  0  0
  146.2103  138.3842  153.5477 H   0  0  0  0  0  0  0  0  0  0  0  0
  151.5521  141.2023  160.1971 H   0  0  0  0  0  0  0  0  0  0  0  0
  154.1984  140.0613  159.1680 H   0  0  0  0  0  0  0  0  0  0  0  0
  152.6654  139.1994  159.1568 H   0  0  0  0  0  0  0  0  0  0  0  0
  153.3988  139.6271  160.6768 H   0  0  0  0  0  0  0  0  0  0  0  0
  145.2396  140.7273  153.2554 H   0  0  0  0  0  0  0  0  0  0  0  0
  1  2  1  0  0  0  0
  1 21  1  0  0  0  0
  1 22  1  0  0  0  0
  1 23  1  0  0  0  0
  2 19  1  0  0  0  0
  2  3  1  0  0  0  0
  2 24  1  0  0  0  0
  3  4  1  0  0  0  0
  3 25  1  0  0  0  0
  3 26  1  0  0  0  0
  4  5  1  0  0  0  0
  4 27  1  0  0  0  0
  4 28  1  0  0  0  0
  5  6  1  0  0  0  0
  5 29  1  0  0  0  0
  5 30  1  0  0  0  0
  6  7  1  0  0  0  0
  6 19  1  0  0  0  0
  6 31  1  0  0  0  0
  7  8  1  0  0  0  0
  7 32  1  0  0  0  0
  8  9  2  0  0  0  0
  8 10  1  0  0  0  0
 10 11  1  0  0  0  0
 10 33  1  0  0  0  0
 11 12  2  0  0  0  0
 11 13  1  0  0  0  0
 13 14  1  0  0  0  0
 13 34  1  0  0  0  0
 13 35  1  0  0  0  0
 14 18  1  0  0  0  0
 14 15  1  0  0  0  0
 15 16  2  0  0  0  0
 15 36  1  0  0  0  0
 16 17  1  0  0  0  0
 16 37  1  0  0  0  0
 17 18  2  0  0  0  0
 17 43  1  0  0  0  0
 18 38  1  0  0  0  0
 19 20  1  0  0  0  0
 19 39  1  0  0  0  0
 20 40  1  0  0  0  0
 20 41  1  0  0  0  0
 20 42  1  0  0  0  0
M  CHG  1  17   1
M  END
> <s_m_source_file>
AV-unprocessed.smi

> <i_m_source_file_index>
527

> <i_lp_mmshare_version>
43012

> <i_f3d_flags>
0

> <s_epik_input>
W0NIM11bQ0BASF0xW0NIMl1bQ0gyXVtDSDJdW0NASF0oW0NASF0xW0NIM10pW05IXUMoPU8pW05IXUMoPU8pW0NIMl1uMltjSF1bY0hdbltjSF0y

> <s_epik_cmdline>
J2VwaWtfcHl0aG9uJywgJy1waCcsICc3LjAnLCAnLXRuJywgJzgnLCAnLW1hJywgJzIwMCcsICctbWV0YWxfYmluZGluZycsICctaW1hZScsICc8aW5maWxlLm1hZT4nLCAnLW9tYWUnLCAnPG91dGZpbGUubWFlPic=

> <r_lp_tautomer_probability>
1

> <r_epik_Ionization_Penalty>
0.816441

> <r_epik_Ionization_Penalty_Charging>
0

> <r_epik_Ionization_Penalty_Neutral>
0.816441

> <r_epik_State_Penalty>
0.849034

> <r_epik_Charging_Adjusted_Penalty>
0.849034

> <i_epik_Tot_Q>
1

> <i_epik_Tot_abs_Q>
1

> <r_epik_Metal_State_Penalty>
0.984327

> <b_epik_Metal_Only>
0

> <s_lp_Force_Field>
OPLS_2005

> <r_lp_Energy>
16.8338

> <b_lp_Chiralities_Consistent>
1

> <s_lp_Variant>
AV-unprocessed.smi:527-11

> <Gold.Version>
5.8.1

> <Gold.Id.Protein>
6NUR|6NUR_protein|mol2

> <Gold.PLP.Fitness>
50.5790

> <Gold.PLP.PLP>
-41.8530

> <Gold.PLP.part.hbond>
-2.0000

> <Gold.PLP.part.metal>
0.0000

> <Gold.PLP.part.buried>
-4.3576

> <Gold.PLP.part.nonpolar>
-35.0071

> <Gold.PLP.part.repulsive>
0.3224

> <Gold.PLP.ligand.clash>
0.0008

> <Gold.PLP.ligand.torsion>
0.1539

> <Gold.PLP.Chemscore.Hbond>
3.0000

> <Gold.PLP.Chemscore.CHOScore>
0.0000

> <Gold.PLP.Chemscore.Metal>
0.0000

> <Gold.Chemscore.Hbonds>
donor molecule, donor type, donor heavy atom, donor atom, acceptor molecule, acceptor atom, score
      L1  H    17    43       P1 10175  2.00
      P1  H  7997  8008       L1     9  1.00

> <Gold.PLP.Chemscore.Internal.Correction>
0.0345

> <Gold.Rescore>
     Score         DG    S(hbond)    S(metal)    S(lipo)     H(rot)  DE(clash)    DE(int)     intcor
     17.71     -19.89       2.00        0.00     103.40       1.71       0.05       2.13       ----

> <Gold.Chemscore.Fitness>
17.7113

> <Gold.Chemscore.DG>
-19.8894

> <Gold.Chemscore.ZeroCoef>
-5.4800

> <Gold.Chemscore.Hbond>
1.9990

> <Gold.Chemscore.Metal>
0.0000

> <Gold.Chemscore.Lipo>
103.4016

> <Gold.Chemscore.Internal_Hbond>
0.0000

> <Gold.Chemscore.DEClash>
0.0527

> <Gold.Chemscore.DEInternal>
2.1254

> <Gold.Chemscore.Rot>
1.7052

> <Gold.Chemscore.Internal.Correction>
   9.000000E+99

> <Gold.Chemscore.Hbonds>
donor molecule, donor type, donor heavy atom, donor atom, acceptor molecule, acceptor atom, score
      L1  H    17    43       P1 10175  0.82
      P1  H  7997  8008       L1     9  1.00

> <Gold.Chemscore.Hbond.Weighted>
-6.6767

> <Gold.Chemscore.Metal.Weighted>
-0.0000

> <Gold.Chemscore.Lipo.Weighted>
-12.0980

> <Gold.Chemscore.Internal_Hbond.Weighted>
0.0000

> <Gold.Chemscore.DEClash.Weighted>
0.0527

> <Gold.Chemscore.DEInternal.Weighted>
2.1254

> <Gold.Chemscore.Rot.Weighted>
4.3653

> <Gold.Chemscore.Internal.Correction.Weighted>
   9.000000E+99

> <Gold.Protein.RotatedTorsions>
[ 6907 6896 6895 6894 ] final   37.14 input  -60.11 | X-H torsion
[ 7974 7965 7964 7962 ] final -123.21 input  175.53 | X-H torsion
[ 8008 7997 7996 7995 ] final  -41.26 input   59.86 | X-H torsion
[ 10167 10162 10161 10158 ] final -101.75 input  -65.29 | X-H torsion
[ 10718 10713 10712 10709 ] final  164.15 input   66.30 | X-H torsion
[ 10763 10752 10751 10750 ] final  -42.05 input  -60.55 | X-H torsion
[ 11005 11000 10999 10996 ] final   92.06 input  -57.11 | X-H torsion

> <Gold.Protein.ActiveResidues>
 VAL166  LYS551  ARG553  GLY616  TRP617  ASP618  TYR619  PRO620  LYS621  CYS622 
 ASP623  PHE694  ASN695  SER759  ASP760  ASP761  ALA762  ILE779  LEU786  VAL792 
 PHE793  MET794  SER795  GLU796  ALA797  LYS798  CYS799  TRP800  GLU811  SER814 

> <Gold.Protein.RotatedAtoms>
  152.1392  134.9075  160.0554 H   0  0  0  0  0  0  0  0  0  0  0  0  # atno 6907 bound_to 6896
  152.0150  133.3871  159.4243 H   0  0  0  0  0  0  0  0  0  0  0  0  # atno 6908 bound_to 6896
  150.6863  134.3610  159.4994 H   0  0  0  0  0  0  0  0  0  0  0  0  # atno 6909 bound_to 6896
  145.0211  140.7989  143.4380 H   0  0  0  0  0  0  0  0  0  0  0  0  # atno 7974 bound_to 7965
  154.4005  140.1504  156.3162 H   0  0  0  0  0  0  0  0  0  0  0  0  # atno 8008 bound_to 7997
  155.8571  140.3455  155.5710 H   0  0  0  0  0  0  0  0  0  0  0  0  # atno 8009 bound_to 7997
  155.7921  140.0858  157.1994 H   0  0  0  0  0  0  0  0  0  0  0  0  # atno 8010 bound_to 7997
  140.2380  143.3559  152.0827 H   0  0  0  0  0  0  0  0  0  0  0  0  # atno 10167 bound_to 10162
  157.0984  131.0436  151.2508 H   0  0  0  0  0  0  0  0  0  0  0  0  # atno 10718 bound_to 10713
  153.9726  135.6726  153.4747 H   0  0  0  0  0  0  0  0  0  0  0  0  # atno 10763 bound_to 10752
  153.0785  135.4935  154.8451 H   0  0  0  0  0  0  0  0  0  0  0  0  # atno 10764 bound_to 10752
  154.7210  135.3117  154.9008 H   0  0  0  0  0  0  0  0  0  0  0  0  # atno 10765 bound_to 10752
  139.8829  134.8711  156.3518 H   0  0  0  0  0  0  0  0  0  0  0  0  # atno 11005 bound_to 11000
  145.1894  139.2309  143.5250 LP  0  0  0  0  0  0  0  0  0  0  0  0  # atno 17320 bound_to 7965
  146.3485  140.1687  142.8590 LP  0  0  0  0  0  0  0  0  0  0  0  0  # atno 17321 bound_to 7965
  139.5087  144.6854  151.5901 LP  0  0  0  0  0  0  0  0  0  0  0  0  # atno 17342 bound_to 10162
  140.6135  143.9392  150.6471 LP  0  0  0  0  0  0  0  0  0  0  0  0  # atno 17343 bound_to 10162
  157.4662  130.7682  149.7281 LP  0  0  0  0  0  0  0  0  0  0  0  0  # atno 17370 bound_to 10713
  155.9880  130.3962  150.3139 LP  0  0  0  0  0  0  0  0  0  0  0  0  # atno 17371 bound_to 10713
  140.9589  133.7401  156.0374 LP  0  0  0  0  0  0  0  0  0  0  0  0  # atno 17394 bound_to 11000
  140.8014  134.3505  157.5438 LP  0  0  0  0  0  0  0  0  0  0  0  0  # atno 17395 bound_to 11000

$$$$
