AV-unprocessed.smi:500|AV-procd|sdf|2741|dock4
  -GOLD-   2262023203D 1   1.00000     0.00000
 Structure written by MMmdl.
 45 47  0  0  0  0  0  0  0  0  3 V2000
  153.8926  137.1673  162.0716 C   0  0  0  0  0  0  0  0  0  0  0  0
  154.8021  138.2467  161.4690 C   0  0  0  0  0  0  0  0  0  0  0  0
  154.9623  138.0864  160.0665 O   0  0  0  0  0  0  0  0  0  0  0  0
  154.1034  138.9021  159.2817 C   0  0  0  0  0  0  0  0  0  0  0  0
  152.6648  138.7949  159.8080 C   0  0  0  0  0  0  0  0  0  0  0  0
  151.7403  139.7033  159.0972 N   0  0  0  0  0  0  0  0  0  0  0  0
  150.5624  139.4627  158.4352 C   0  0  0  0  0  0  0  0  0  0  0  0
  149.8485  138.1503  158.2300 C   0  0  1  0  0  0  0  0  0  0  0  0
  150.7575  137.1597  157.4896 C   0  0  0  0  0  0  0  0  0  0  0  0
  149.4274  137.5582  159.5009 N   0  5  0  0  0  0  0  0  0  0  0  0
  148.8788  136.3152  159.6205 C   0  0  0  0  0  0  0  0  0  0  0  0
  148.8758  135.3742  158.8194 O   0  0  0  0  0  0  0  0  0  0  0  0
  148.1627  136.1438  160.9054 C   0  0  0  0  0  0  0  0  0  0  0  0
  147.7174  135.0274  161.5673 C   0  0  0  0  0  0  0  0  0  0  0  0
  147.0784  135.4804  162.7545 C   0  0  0  0  0  0  0  0  0  0  0  0
  147.1703  136.8419  162.7326 C   0  0  0  0  0  0  0  0  0  0  0  0
  147.8218  137.2606  161.6141 O   0  0  0  0  0  0  0  0  0  0  0  0
  150.1248  140.6622  157.9553 N   0  3  0  0  0  0  0  0  0  0  0  0
  151.0247  141.6714  158.2891 C   0  0  0  0  0  0  0  0  0  0  0  0
  151.0061  143.0340  158.0088 C   0  0  0  0  0  0  0  0  0  0  0  0
  152.0931  143.7931  158.4881 C   0  0  0  0  0  0  0  0  0  0  0  0
  153.1431  143.1931  159.2125 C   0  0  0  0  0  0  0  0  0  0  0  0
  153.1490  141.8105  159.4909 C   0  0  0  0  0  0  0  0  0  0  0  0
  152.0679  141.0651  159.0175 C   0  0  0  0  0  0  0  0  0  0  0  0
  153.7059  137.3670  163.1270 H   0  0  0  0  0  0  0  0  0  0  0  0
  154.3400  136.1761  162.0027 H   0  0  0  0  0  0  0  0  0  0  0  0
  152.9287  137.1395  161.5627 H   0  0  0  0  0  0  0  0  0  0  0  0
  154.3476  139.2235  161.6352 H   0  0  0  0  0  0  0  0  0  0  0  0
  155.7705  138.2691  161.9710 H   0  0  0  0  0  0  0  0  0  0  0  0
  154.4295  139.9417  159.3235 H   0  0  0  0  0  0  0  0  0  0  0  0
  154.1344  138.5953  158.2366 H   0  0  0  0  0  0  0  0  0  0  0  0
  152.2970  137.7751  159.6929 H   0  0  0  0  0  0  0  0  0  0  0  0
  152.6273  139.0011  160.8770 H   0  0  0  0  0  0  0  0  0  0  0  0
  148.9870  138.3382  157.5884 H   0  0  0  0  0  0  0  0  0  0  0  0
  151.0657  137.5619  156.5239 H   0  0  0  0  0  0  0  0  0  0  0  0
  150.2423  136.2170  157.3019 H   0  0  0  0  0  0  0  0  0  0  0  0
  151.6603  136.9377  158.0602 H   0  0  0  0  0  0  0  0  0  0  0  0
  147.8379  134.0062  161.2369 H   0  0  0  0  0  0  0  0  0  0  0  0
  146.6095  134.8856  163.5242 H   0  0  0  0  0  0  0  0  0  0  0  0
  146.8415  137.6276  163.3965 H   0  0  0  0  0  0  0  0  0  0  0  0
  150.2043  143.4920  157.4484 H   0  0  0  0  0  0  0  0  0  0  0  0
  152.1237  144.8552  158.2927 H   0  0  0  0  0  0  0  0  0  0  0  0
  153.9630  143.8047  159.5598 H   0  0  0  0  0  0  0  0  0  0  0  0
  153.9651  141.3637  160.0386 H   0  0  0  0  0  0  0  0  0  0  0  0
  149.2757  140.7626  157.4143 H   0  0  0  0  0  0  0  0  0  0  0  0
  1  2  1  0  0  0  0
  1 25  1  0  0  0  0
  1 26  1  0  0  0  0
  1 27  1  0  0  0  0
  2  3  1  0  0  0  0
  2 28  1  0  0  0  0
  2 29  1  0  0  0  0
  3  4  1  0  0  0  0
  4  5  1  0  0  0  0
  4 30  1  0  0  0  0
  4 31  1  0  0  0  0
  5  6  1  0  0  0  0
  5 32  1  0  0  0  0
  5 33  1  0  0  0  0
  6 24  1  0  0  0  0
  6  7  1  0  0  0  0
  7  8  1  0  0  0  0
  7 18  2  0  0  0  0
  8  9  1  0  0  0  0
  8 10  1  0  0  0  0
  8 34  1  0  0  0  0
  9 35  1  0  0  0  0
  9 36  1  0  0  0  0
  9 37  1  0  0  0  0
 10 11  1  0  0  0  0
 11 12  2  0  0  0  0
 11 13  1  0  0  0  0
 13 17  1  0  0  0  0
 13 14  2  0  0  0  0
 14 15  1  0  0  0  0
 14 38  1  0  0  0  0
 15 16  2  0  0  0  0
 15 39  1  0  0  0  0
 16 17  1  0  0  0  0
 16 40  1  0  0  0  0
 18 19  1  0  0  0  0
 18 45  1  0  0  0  0
 19 24  2  0  0  0  0
 19 20  1  0  0  0  0
 20 21  2  0  0  0  0
 20 41  1  0  0  0  0
 21 22  1  0  0  0  0
 21 42  1  0  0  0  0
 22 23  2  0  0  0  0
 22 43  1  0  0  0  0
 23 24  1  0  0  0  0
 23 44  1  0  0  0  0
M  CHG  1  10  -1
M  CHG  1  18   1
M  END
> <s_m_source_file>
AV-unprocessed.smi

> <i_m_source_file_index>
500

> <i_lp_mmshare_version>
43012

> <i_f3d_flags>
0

> <s_epik_input>
W0NIM11bQ0gyXU9bQ0gyXVtDSDJdbihjKGMxMilbY0hdW2NIXVtjSF1bY0hdMiljKG4xKVtDQEhdKFtDSDNdKVtOSF1DKD1PKWMzW2NIXVtjSF1bY0hdbzM=

> <s_epik_cmdline>
J2VwaWtfcHl0aG9uJywgJy1waCcsICc3LjAnLCAnLXRuJywgJzgnLCAnLW1hJywgJzIwMCcsICctbWV0YWxfYmluZGluZycsICctaW1hZScsICc8aW5maWxlLm1hZT4nLCAnLW9tYWUnLCAnPG91dGZpbGUubWFlPic=

> <r_epik_Ionization_Penalty>
6.22753

> <r_epik_Ionization_Penalty_Charging>
6.22753

> <r_epik_Ionization_Penalty_Neutral>
2.56065e-12

> <r_epik_State_Penalty>
7.17947

> <r_epik_Charging_Adjusted_Penalty>
13.407

> <i_epik_Tot_Q>
0

> <i_epik_Tot_abs_Q>
2

> <r_epik_Metal_State_Penalty>
3.2092

> <b_epik_Metal_Only>
1

> <s_lp_Force_Field>
OPLS_2005

> <r_lp_Energy>
10.9404

> <b_lp_Chiralities_Consistent>
1

> <s_lp_Variant>
AV-unprocessed.smi:500-8

> <Gold.Version>
5.8.1

> <Gold.Id.Protein>
6NUR|6NUR_protein|mol2

> <Gold.PLP.Fitness>
53.9160

> <Gold.PLP.PLP>
-46.7813

> <Gold.PLP.part.hbond>
-4.0000

> <Gold.PLP.part.metal>
0.0000

> <Gold.PLP.part.buried>
-5.8427

> <Gold.PLP.part.nonpolar>
-38.3785

> <Gold.PLP.part.repulsive>
0.1251

> <Gold.PLP.ligand.clash>
0.0000

> <Gold.PLP.ligand.torsion>
0.6015

> <Gold.PLP.Chemscore.Hbond>
2.7200

> <Gold.PLP.Chemscore.CHOScore>
0.0000

> <Gold.PLP.Chemscore.Metal>
0.0000

> <Gold.Chemscore.Hbonds>
donor molecule, donor type, donor heavy atom, donor atom, acceptor molecule, acceptor atom, score
      P1  H  6896  6909       L1    12  0.73
      P1  H  6931  6943       L1    17  1.00
      P1  H  6934  6947       L1    17  0.67

> <Gold.PLP.Chemscore.Internal.Correction>
0.1777

> <Gold.Rescore>
     Score         DG    S(hbond)    S(metal)    S(lipo)     H(rot)  DE(clash)    DE(int)     intcor
     20.23     -22.25       2.15        0.00     123.59       1.90       0.28       1.74       ----

> <Gold.Chemscore.Fitness>
20.2297

> <Gold.Chemscore.DG>
-22.2499

> <Gold.Chemscore.ZeroCoef>
-5.4800

> <Gold.Chemscore.Hbond>
2.1473

> <Gold.Chemscore.Metal>
0.0000

> <Gold.Chemscore.Lipo>
123.5893

> <Gold.Chemscore.Internal_Hbond>
0.0000

> <Gold.Chemscore.DEClash>
0.2775

> <Gold.Chemscore.DEInternal>
1.7427

> <Gold.Chemscore.Rot>
1.8993

> <Gold.Chemscore.Internal.Correction>
   9.000000E+99

> <Gold.Chemscore.Hbonds>
donor molecule, donor type, donor heavy atom, donor atom, acceptor molecule, acceptor atom, score
      P1  H  6896  6909       L1    12  0.19
      P1  H  6931  6943       L1    17  0.75
      P1  H  6934  6947       L1    17  0.56

> <Gold.Chemscore.Hbond.Weighted>
-7.1721

> <Gold.Chemscore.Metal.Weighted>
-0.0000

> <Gold.Chemscore.Lipo.Weighted>
-14.4599

> <Gold.Chemscore.Internal_Hbond.Weighted>
0.0000

> <Gold.Chemscore.DEClash.Weighted>
0.2775

> <Gold.Chemscore.DEInternal.Weighted>
1.7427

> <Gold.Chemscore.Rot.Weighted>
4.8622

> <Gold.Chemscore.Internal.Correction.Weighted>
   9.000000E+99

> <Gold.Protein.RotatedTorsions>
[ 6907 6896 6895 6894 ] final   32.72 input  -60.11 | X-H torsion
[ 7974 7965 7964 7962 ] final -142.61 input  175.53 | X-H torsion
[ 8008 7997 7996 7995 ] final   74.35 input   59.86 | X-H torsion
[ 10167 10162 10161 10158 ] final  153.94 input  -65.29 | X-H torsion
[ 10718 10713 10712 10709 ] final   76.53 input   66.30 | X-H torsion
[ 10763 10752 10751 10750 ] final    7.94 input  -60.55 | X-H torsion
[ 11005 11000 10999 10996 ] final   14.21 input  -57.11 | X-H torsion

> <Gold.Protein.ActiveResidues>
 VAL166  LYS551  ARG553  GLY616  TRP617  ASP618  TYR619  PRO620  LYS621  CYS622 
 ASP623  PHE694  ASN695  SER759  ASP760  ASP761  ALA762  ILE779  LEU786  VAL792 
 PHE793  MET794  SER795  GLU796  ALA797  LYS798  CYS799  TRP800  GLU811  SER814 

> <Gold.Protein.RotatedAtoms>
  152.0784  134.9487  160.0573 H   0  0  0  0  0  0  0  0  0  0  0  0  # atno 6907 bound_to 6896
  152.0785  133.4136  159.4499 H   0  0  0  0  0  0  0  0  0  0  0  0  # atno 6908 bound_to 6896
  150.6836  134.2929  159.4717 H   0  0  0  0  0  0  0  0  0  0  0  0  # atno 6909 bound_to 6896
  144.8431  140.5937  143.5439 H   0  0  0  0  0  0  0  0  0  0  0  0  # atno 7974 bound_to 7965
  155.7970  140.3477  155.5381 H   0  0  0  0  0  0  0  0  0  0  0  0  # atno 8008 bound_to 7997
  155.8576  140.0966  157.1655 H   0  0  0  0  0  0  0  0  0  0  0  0  # atno 8009 bound_to 7997
  154.4010  140.1364  156.3908 H   0  0  0  0  0  0  0  0  0  0  0  0  # atno 8010 bound_to 7997
  139.4825  144.5229  151.7847 H   0  0  0  0  0  0  0  0  0  0  0  0  # atno 10167 bound_to 10162
  157.6677  130.9778  150.1509 H   0  0  0  0  0  0  0  0  0  0  0  0  # atno 10718 bound_to 10713
  153.2307  135.6892  153.7894 H   0  0  0  0  0  0  0  0  0  0  0  0  # atno 10763 bound_to 10752
  153.7059  135.3290  155.3236 H   0  0  0  0  0  0  0  0  0  0  0  0  # atno 10764 bound_to 10752
  154.8312  135.4579  154.1191 H   0  0  0  0  0  0  0  0  0  0  0  0  # atno 10765 bound_to 10752
  140.4721  134.1020  155.7734 H   0  0  0  0  0  0  0  0  0  0  0  0  # atno 11005 bound_to 11000
  145.4653  139.1508  143.3844 LP  0  0  0  0  0  0  0  0  0  0  0  0  # atno 17320 bound_to 7965
  146.2720  140.4785  142.8810 LP  0  0  0  0  0  0  0  0  0  0  0  0  # atno 17321 bound_to 7965
  140.4746  144.1538  150.5923 LP  0  0  0  0  0  0  0  0  0  0  0  0  # atno 17342 bound_to 10162
  140.4345  143.2553  151.9553 LP  0  0  0  0  0  0  0  0  0  0  0  0  # atno 17343 bound_to 10162
  156.2309  130.3682  149.8446 LP  0  0  0  0  0  0  0  0  0  0  0  0  # atno 17370 bound_to 10713
  156.6273  130.8651  151.3488 LP  0  0  0  0  0  0  0  0  0  0  0  0  # atno 17371 bound_to 10713
  141.1572  133.8861  157.1946 LP  0  0  0  0  0  0  0  0  0  0  0  0  # atno 17394 bound_to 11000
  139.9879  135.0075  156.9905 LP  0  0  0  0  0  0  0  0  0  0  0  0  # atno 17395 bound_to 11000

$$$$
