AV-unprocessed.smi:26|AV-procd|sdf|183|dock9
  -GOLD-   2262015443D 1   1.00000     0.00000
 Structure written by MMmdl.
 58 61  0  0  0  0  0  0  0  0  1 V2000
  147.1424  140.1497  153.2613 C   0  0  0  0  0  0  0  0  0  0  0  0
  148.0843  139.1529  153.8578 C   0  0  0  0  0  0  0  0  0  0  0  0
  149.4251  139.2706  154.0688 C   0  0  0  0  0  0  0  0  0  0  0  0
  149.8975  138.0713  154.6654 C   0  0  0  0  0  0  0  0  0  0  0  0
  151.2887  137.7334  155.0640 C   0  0  0  0  0  0  0  0  0  0  0  0
  151.6840  136.5784  155.2298 O   0  0  0  0  0  0  0  0  0  0  0  0
  152.2381  138.9316  155.2535 C   0  0  0  0  0  0  0  0  0  0  0  0
  152.1997  139.4883  156.6007 N   0  0  0  0  0  0  0  0  0  0  0  0
  152.8028  138.7400  157.6423 C   0  0  0  0  0  0  0  0  0  0  0  0
  153.3504  137.6550  157.4383 O   0  0  0  0  0  0  0  0  0  0  0  0
  152.7324  139.3675  158.9566 C   0  0  0  0  0  0  0  0  0  0  0  0
  153.2790  138.7510  160.0181 F   0  0  0  0  0  0  0  0  0  0  0  0
  152.1286  140.5633  159.1267 C   0  0  0  0  0  0  0  0  0  0  0  0
  151.5362  141.2693  158.0952 N   0  0  0  0  0  0  0  0  0  0  0  0
  150.9379  142.6279  158.3902 C   0  0  2  0  0  0  0  0  0  0  0  0
  151.6281  143.7851  157.6523 C   0  0  0  0  0  0  0  0  0  0  0  0
  151.5250  144.8910  158.6804 C   0  0  0  0  0  0  0  0  0  0  0  0
  151.6768  144.1230  159.9891 C   0  0  0  0  0  0  0  0  0  0  0  0
  151.0219  142.8774  159.7637 O   0  0  0  0  0  0  0  0  0  0  0  0
  151.5867  140.7529  156.7785 C   0  0  0  0  0  0  0  0  0  0  0  0
  151.1274  141.3837  155.8251 O   0  0  0  0  0  0  0  0  0  0  0  0
  148.8149  137.2349  154.8210 C   0  0  0  0  0  0  0  0  0  0  0  0
  148.7534  135.8534  155.4136 C   0  0  0  0  0  0  0  0  0  0  0  0
  147.6905  137.8909  154.2979 N   0  0  0  0  0  0  0  0  0  0  0  0
  146.3114  137.3832  154.2245 C   0  0  2  0  0  0  0  0  0  0  0  0
  145.7839  136.9897  155.6189 C   0  0  0  0  0  0  0  0  0  0  0  0
  146.1299  136.3474  153.1107 C   0  0  0  0  0  0  0  0  0  0  0  0
  146.5818  135.0257  153.3265 C   0  0  0  0  0  0  0  0  0  0  0  0
  146.4423  134.0461  152.3248 C   0  0  0  0  0  0  0  0  0  0  0  0
  145.8534  134.3800  151.0914 C   0  0  0  0  0  0  0  0  0  0  0  0
  145.4061  135.6945  150.8620 C   0  0  0  0  0  0  0  0  0  0  0  0
  145.5457  136.6747  151.8639 C   0  0  0  0  0  0  0  0  0  0  0  0
  147.6498  141.0952  153.0689 H   0  0  0  0  0  0  0  0  0  0  0  0
  146.3087  140.3535  153.9332 H   0  0  0  0  0  0  0  0  0  0  0  0
  146.7434  139.7899  152.3128 H   0  0  0  0  0  0  0  0  0  0  0  0
  150.0103  140.1418  153.8137 H   0  0  0  0  0  0  0  0  0  0  0  0
  153.2691  138.6495  155.0345 H   0  0  0  0  0  0  0  0  0  0  0  0
  152.0034  139.7319  154.5502 H   0  0  0  0  0  0  0  0  0  0  0  0
  152.1115  140.9810  160.1228 H   0  0  0  0  0  0  0  0  0  0  0  0
  149.8819  142.5560  158.1268 H   0  0  0  0  0  0  0  0  0  0  0  0
  152.6713  143.5603  157.4350 H   0  0  0  0  0  0  0  0  0  0  0  0
  151.1176  144.0115  156.7163 H   0  0  0  0  0  0  0  0  0  0  0  0
  152.2783  145.6685  158.5513 H   0  0  0  0  0  0  0  0  0  0  0  0
  150.5398  145.3563  158.6318 H   0  0  0  0  0  0  0  0  0  0  0  0
  152.7297  143.9450  160.2086 H   0  0  0  0  0  0  0  0  0  0  0  0
  151.2421  144.6520  160.8373 H   0  0  0  0  0  0  0  0  0  0  0  0
  149.2122  135.1285  154.7414 H   0  0  0  0  0  0  0  0  0  0  0  0
  147.7437  135.5154  155.6221 H   0  0  0  0  0  0  0  0  0  0  0  0
  149.2862  135.8157  156.3634 H   0  0  0  0  0  0  0  0  0  0  0  0
  145.6696  138.1998  153.8990 H   0  0  0  0  0  0  0  0  0  0  0  0
  144.7201  136.7538  155.5839 H   0  0  0  0  0  0  0  0  0  0  0  0
  145.9052  137.8151  156.3211 H   0  0  0  0  0  0  0  0  0  0  0  0
  146.3023  136.1298  156.0404 H   0  0  0  0  0  0  0  0  0  0  0  0
  147.0382  134.7584  154.2685 H   0  0  0  0  0  0  0  0  0  0  0  0
  146.7886  133.0387  152.5034 H   0  0  0  0  0  0  0  0  0  0  0  0
  145.7461  133.6296  150.3221 H   0  0  0  0  0  0  0  0  0  0  0  0
  144.9557  135.9528  149.9149 H   0  0  0  0  0  0  0  0  0  0  0  0
  145.1926  137.6735  151.6578 H   0  0  0  0  0  0  0  0  0  0  0  0
  1  2  1  0  0  0  0
  1 33  1  0  0  0  0
  1 34  1  0  0  0  0
  1 35  1  0  0  0  0
  2 24  1  0  0  0  0
  2  3  2  0  0  0  0
  3  4  1  0  0  0  0
  3 36  1  0  0  0  0
  4  5  1  0  0  0  0
  4 22  2  0  0  0  0
  5  6  2  0  0  0  0
  5  7  1  0  0  0  0
  7  8  1  0  0  0  0
  7 37  1  0  0  0  0
  7 38  1  0  0  0  0
  8 20  1  0  0  0  0
  8  9  1  0  0  0  0
  9 10  2  0  0  0  0
  9 11  1  0  0  0  0
 11 12  1  0  0  0  0
 11 13  2  0  0  0  0
 13 14  1  0  0  0  0
 13 39  1  0  0  0  0
 14 15  1  0  0  0  0
 14 20  1  0  0  0  0
 15 19  1  0  0  0  0
 15 16  1  0  0  0  0
 15 40  1  0  0  0  0
 16 17  1  0  0  0  0
 16 41  1  0  0  0  0
 16 42  1  0  0  0  0
 17 18  1  0  0  0  0
 17 43  1  0  0  0  0
 17 44  1  0  0  0  0
 18 19  1  0  0  0  0
 18 45  1  0  0  0  0
 18 46  1  0  0  0  0
 20 21  2  0  0  0  0
 22 23  1  0  0  0  0
 22 24  1  0  0  0  0
 23 47  1  0  0  0  0
 23 48  1  0  0  0  0
 23 49  1  0  0  0  0
 24 25  1  0  0  0  0
 25 26  1  0  0  0  0
 25 27  1  0  0  0  0
 25 50  1  0  0  0  0
 26 51  1  0  0  0  0
 26 52  1  0  0  0  0
 26 53  1  0  0  0  0
 27 32  1  0  0  0  0
 27 28  2  0  0  0  0
 28 29  1  0  0  0  0
 28 54  1  0  0  0  0
 29 30  2  0  0  0  0
 29 55  1  0  0  0  0
 30 31  1  0  0  0  0
 30 56  1  0  0  0  0
 31 32  2  0  0  0  0
 31 57  1  0  0  0  0
 32 58  1  0  0  0  0
M  END
> <s_m_source_file>
AV-unprocessed.smi

> <i_m_source_file_index>
26

> <i_lp_mmshare_version>
43012

> <i_f3d_flags>
0

> <s_epik_input>
W2NIXTFbY0hdW2NIXVtjSF1bY0hdYzFbQ0BASF0oW0NIM10pbjJjKFtDSDNdKWMoW2NIXWMyW0NIM10pQyg9TylbQ0gyXW4zYyg9TyljKEYpW2NIXW4oYzM9TylbQ0BASF00W0NIMl1bQ0gyXVtDSDJdTzQ=

> <s_epik_cmdline>
J2VwaWtfcHl0aG9uJywgJy1waCcsICc3LjAnLCAnLXRuJywgJzgnLCAnLW1hJywgJzIwMCcsICctbWV0YWxfYmluZGluZycsICctaW1hZScsICc8aW5maWxlLm1hZT4nLCAnLW9tYWUnLCAnPG91dGZpbGUubWFlPic=

> <r_lp_tautomer_probability>
1

> <r_epik_Ionization_Penalty>
5.02402e-09

> <r_epik_Ionization_Penalty_Charging>
5.01743e-09

> <r_epik_Ionization_Penalty_Neutral>
6.58831e-12

> <r_epik_State_Penalty>
-0

> <r_epik_Charging_Adjusted_Penalty>
5.01743e-09

> <i_epik_Tot_Q>
0

> <i_epik_Tot_abs_Q>
0

> <r_epik_Metal_State_Penalty>
-0

> <b_epik_Metal_Only>
0

> <s_epik_Chemistry_Notes>
This compound contains an acetal/aminal-like group ( X-CH(R)-Y where X, Y are N, S, or O) that may be acid/base labile, releasing an aldehyde.

> <s_lp_Force_Field>
OPLS_2005

> <r_lp_Energy>
45.9461

> <b_lp_Chiralities_Consistent>
1

> <s_lp_Variant>
AV-unprocessed.smi:26-1

> <Gold.Version>
5.8.1

> <Gold.Id.Protein>
6NUR|6NUR_protein|mol2

> <Gold.PLP.Fitness>
52.7742

> <Gold.PLP.PLP>
-51.7386

> <Gold.PLP.part.hbond>
-2.5123

> <Gold.PLP.part.metal>
0.0000

> <Gold.PLP.part.buried>
-2.0447

> <Gold.PLP.part.nonpolar>
-46.0692

> <Gold.PLP.part.repulsive>
0.1551

> <Gold.PLP.ligand.clash>
0.0000

> <Gold.PLP.ligand.torsion>
1.2183

> <Gold.PLP.Chemscore.Hbond>
1.0468

> <Gold.PLP.Chemscore.CHOScore>
0.0000

> <Gold.PLP.Chemscore.Metal>
0.0000

> <Gold.Chemscore.Hbonds>
donor molecule, donor type, donor heavy atom, donor atom, acceptor molecule, acceptor atom, score
      P1  H  7989  7998       L1    21  0.02
      P1  H 10752 10763       L1     6  1.00

> <Gold.PLP.Chemscore.Internal.Correction>
0.3319

> <Gold.Rescore>
     Score         DG    S(hbond)    S(metal)    S(lipo)     H(rot)  DE(clash)    DE(int)     intcor
     14.84     -17.92       1.21        0.00     111.90       1.84       0.10       2.98       ----

> <Gold.Chemscore.Fitness>
14.8395

> <Gold.Chemscore.DG>
-17.9169

> <Gold.Chemscore.ZeroCoef>
-5.4800

> <Gold.Chemscore.Hbond>
1.2111

> <Gold.Chemscore.Metal>
0.0000

> <Gold.Chemscore.Lipo>
111.8951

> <Gold.Chemscore.Internal_Hbond>
0.0000

> <Gold.Chemscore.DEClash>
0.0968

> <Gold.Chemscore.DEInternal>
2.9806

> <Gold.Chemscore.Rot>
1.8359

> <Gold.Chemscore.Internal.Correction>
   9.000000E+99

> <Gold.Chemscore.Hbonds>
donor molecule, donor type, donor heavy atom, donor atom, acceptor molecule, acceptor atom, score
      P1  H  7989  7998       L1    21  0.04
      P1  H 10752 10763       L1     6  1.00

> <Gold.Chemscore.Hbond.Weighted>
-4.0452

> <Gold.Chemscore.Metal.Weighted>
-0.0000

> <Gold.Chemscore.Lipo.Weighted>
-13.0917

> <Gold.Chemscore.Internal_Hbond.Weighted>
0.0000

> <Gold.Chemscore.DEClash.Weighted>
0.0968

> <Gold.Chemscore.DEInternal.Weighted>
2.9806

> <Gold.Chemscore.Rot.Weighted>
4.7000

> <Gold.Chemscore.Internal.Correction.Weighted>
   9.000000E+99

> <Gold.Protein.RotatedTorsions>
[ 6907 6896 6895 6894 ] final   27.93 input  -60.11 | X-H torsion
[ 7974 7965 7964 7962 ] final  -67.55 input  175.53 | X-H torsion
[ 8008 7997 7996 7995 ] final   45.25 input   59.86 | X-H torsion
[ 10167 10162 10161 10158 ] final   14.96 input  -65.29 | X-H torsion
[ 10718 10713 10712 10709 ] final   24.21 input   66.30 | X-H torsion
[ 10763 10752 10751 10750 ] final   55.16 input  -60.55 | X-H torsion
[ 11005 11000 10999 10996 ] final  -42.35 input  -57.11 | X-H torsion

> <Gold.Protein.ActiveResidues>
 VAL166  LYS551  ARG553  GLY616  TRP617  ASP618  TYR619  PRO620  LYS621  CYS622 
 ASP623  PHE694  ASN695  SER759  ASP760  ASP761  ALA762  ILE779  LEU786  VAL792 
 PHE793  MET794  SER795  GLU796  ALA797  LYS798  CYS799  TRP800  GLU811  SER814 

> <Gold.Protein.RotatedAtoms>
  152.0095  134.9884  160.0567 H   0  0  0  0  0  0  0  0  0  0  0  0  # atno 6907 bound_to 6896
  152.1443  133.4478  159.4790 H   0  0  0  0  0  0  0  0  0  0  0  0  # atno 6908 bound_to 6896
  150.6868  134.2186  159.4430 H   0  0  0  0  0  0  0  0  0  0  0  0  # atno 6909 bound_to 6896
  145.7277  140.9010  143.0596 H   0  0  0  0  0  0  0  0  0  0  0  0  # atno 7974 bound_to 7965
  155.3328  140.3403  155.4239 H   0  0  0  0  0  0  0  0  0  0  0  0  # atno 8008 bound_to 7997
  156.1853  140.1678  156.8233 H   0  0  0  0  0  0  0  0  0  0  0  0  # atno 8009 bound_to 7997
  154.5379  140.0731  156.8443 H   0  0  0  0  0  0  0  0  0  0  0  0  # atno 8010 bound_to 7997
  140.5900  143.8814  150.6865 H   0  0  0  0  0  0  0  0  0  0  0  0  # atno 10167 bound_to 10162
  157.1766  130.6784  149.6097 H   0  0  0  0  0  0  0  0  0  0  0  0  # atno 10718 bound_to 10713
  152.9813  135.5720  154.5021 H   0  0  0  0  0  0  0  0  0  0  0  0  # atno 10763 bound_to 10752
  154.4539  135.2779  155.1763 H   0  0  0  0  0  0  0  0  0  0  0  0  # atno 10764 bound_to 10752
  154.3380  135.6235  153.5636 H   0  0  0  0  0  0  0  0  0  0  0  0  # atno 10765 bound_to 10752
  141.0310  133.6820  156.2583 H   0  0  0  0  0  0  0  0  0  0  0  0  # atno 11005 bound_to 11000
  144.6900  139.9289  143.7471 LP  0  0  0  0  0  0  0  0  0  0  0  0  # atno 17320 bound_to 7965
  146.0566  139.3563  143.0607 LP  0  0  0  0  0  0  0  0  0  0  0  0  # atno 17321 bound_to 7965
  140.2335  143.3718  152.1546 LP  0  0  0  0  0  0  0  0  0  0  0  0  # atno 17342 bound_to 10162
  139.5221  144.7055  151.5367 LP  0  0  0  0  0  0  0  0  0  0  0  0  # atno 17343 bound_to 10162
  155.9730  130.4661  150.6276 LP  0  0  0  0  0  0  0  0  0  0  0  0  # atno 17370 bound_to 10713
  157.3992  131.0807  151.1323 LP  0  0  0  0  0  0  0  0  0  0  0  0  # atno 17371 bound_to 10713
  140.6407  134.5169  157.5569 LP  0  0  0  0  0  0  0  0  0  0  0  0  # atno 17394 bound_to 11000
  139.9208  134.8153  156.1219 LP  0  0  0  0  0  0  0  0  0  0  0  0  # atno 17395 bound_to 11000

$$$$
