AV-unprocessed.smi:1745|AV-procd|sdf|7029|dock3
  -GOLD-   22720 8243D 1   1.00000     0.00000
 Structure written by MMmdl.
 47 49  0  0  0  0  0  0  0  0  1 V2000
  144.2851  137.1940  152.6997 C   0  0  0  0  0  0  0  0  0  0  0  0
  145.3260  136.0645  152.7479 C   0  0  2  0  0  0  0  0  0  0  0  0
  146.6413  136.6504  152.9975 N   0  0  0  0  0  0  0  0  0  0  0  0
  146.9485  137.5001  153.9881 C   0  0  0  0  0  0  0  0  0  0  0  0
  146.1353  137.9063  154.8179 O   0  0  0  0  0  0  0  0  0  0  0  0
  148.2438  137.8544  153.9330 N   0  0  0  0  0  0  0  0  0  0  0  0
  148.9605  138.7264  154.7964 C   0  0  0  0  0  0  0  0  0  0  0  0
  148.5878  139.0098  156.1319 C   0  0  0  0  0  0  0  0  0  0  0  0
  149.3893  139.8834  156.8912 C   0  0  0  0  0  0  0  0  0  0  0  0
  150.5416  140.4389  156.2984 C   0  0  0  0  0  0  0  0  0  0  0  0
  151.3384  141.3140  157.0504 N   0  0  0  0  0  0  0  0  0  0  0  0
  151.8889  140.7056  158.2551 C   0  0  0  0  0  0  0  0  0  0  0  0
  152.8500  141.6872  158.9477 C   0  0  0  0  0  0  0  0  0  0  0  0
  152.1695  142.9089  159.2212 O   0  0  0  0  0  0  0  0  0  0  0  0
  151.6956  143.5353  158.0323 C   0  0  0  0  0  0  0  0  0  0  0  0
  150.7063  142.6006  157.3147 C   0  0  0  0  0  0  0  0  0  0  0  0
  150.9137  140.1593  155.0268 N   0  0  0  0  0  0  0  0  0  0  0  0
  150.1407  139.3211  154.3044 C   0  0  0  0  0  0  0  0  0  0  0  0
  145.3710  135.2453  151.4429 C   0  0  2  0  0  0  0  0  0  0  0  0
  144.0744  134.5050  151.1087 C   0  0  0  0  0  0  0  0  0  0  0  0
  144.5784  133.3851  150.2287 C   0  0  0  0  0  0  0  0  0  0  0  0
  145.8896  133.0193  150.9162 C   0  0  0  0  0  0  0  0  0  0  0  0
  146.3570  134.2170  151.5317 O   0  0  0  0  0  0  0  0  0  0  0  0
  143.2764  136.8006  152.5736 H   0  0  0  0  0  0  0  0  0  0  0  0
  144.4810  137.8802  151.8751 H   0  0  0  0  0  0  0  0  0  0  0  0
  144.2929  137.7730  153.6240 H   0  0  0  0  0  0  0  0  0  0  0  0
  145.0508  135.3920  153.5623 H   0  0  0  0  0  0  0  0  0  0  0  0
  147.3808  136.3763  152.3675 H   0  0  0  0  0  0  0  0  0  0  0  0
  148.7657  137.5032  153.1436 H   0  0  0  0  0  0  0  0  0  0  0  0
  147.7170  138.5694  156.5917 H   0  0  0  0  0  0  0  0  0  0  0  0
  149.1234  140.1183  157.9115 H   0  0  0  0  0  0  0  0  0  0  0  0
  151.0798  140.4383  158.9362 H   0  0  0  0  0  0  0  0  0  0  0  0
  152.4133  139.7845  157.9981 H   0  0  0  0  0  0  0  0  0  0  0  0
  153.2099  141.2628  159.8850 H   0  0  0  0  0  0  0  0  0  0  0  0
  153.7263  141.8781  158.3260 H   0  0  0  0  0  0  0  0  0  0  0  0
  151.2041  144.4719  158.2959 H   0  0  0  0  0  0  0  0  0  0  0  0
  152.5354  143.7870  157.3824 H   0  0  0  0  0  0  0  0  0  0  0  0
  150.3778  143.0502  156.3768 H   0  0  0  0  0  0  0  0  0  0  0  0
  149.8193  142.4572  157.9332 H   0  0  0  0  0  0  0  0  0  0  0  0
  150.4742  139.1241  153.2959 H   0  0  0  0  0  0  0  0  0  0  0  0
  145.6401  135.8879  150.6028 H   0  0  0  0  0  0  0  0  0  0  0  0
  143.6202  134.0932  152.0112 H   0  0  0  0  0  0  0  0  0  0  0  0
  143.3379  135.1372  150.6119 H   0  0  0  0  0  0  0  0  0  0  0  0
  143.8847  132.5470  150.1569 H   0  0  0  0  0  0  0  0  0  0  0  0
  144.7718  133.7577  149.2219 H   0  0  0  0  0  0  0  0  0  0  0  0
  145.7160  132.2763  151.6954 H   0  0  0  0  0  0  0  0  0  0  0  0
  146.6253  132.6156  150.2201 H   0  0  0  0  0  0  0  0  0  0  0  0
  1  2  1  0  0  0  0
  1 24  1  0  0  0  0
  1 25  1  0  0  0  0
  1 26  1  0  0  0  0
  2  3  1  0  0  0  0
  2 19  1  0  0  0  0
  2 27  1  0  0  0  0
  3  4  1  0  0  0  0
  3 28  1  0  0  0  0
  4  5  2  0  0  0  0
  4  6  1  0  0  0  0
  6  7  1  0  0  0  0
  6 29  1  0  0  0  0
  7 18  1  0  0  0  0
  7  8  2  0  0  0  0
  8  9  1  0  0  0  0
  8 30  1  0  0  0  0
  9 10  2  0  0  0  0
  9 31  1  0  0  0  0
 10 11  1  0  0  0  0
 10 17  1  0  0  0  0
 11 16  1  0  0  0  0
 11 12  1  0  0  0  0
 12 13  1  0  0  0  0
 12 32  1  0  0  0  0
 12 33  1  0  0  0  0
 13 14  1  0  0  0  0
 13 34  1  0  0  0  0
 13 35  1  0  0  0  0
 14 15  1  0  0  0  0
 15 16  1  0  0  0  0
 15 36  1  0  0  0  0
 15 37  1  0  0  0  0
 16 38  1  0  0  0  0
 16 39  1  0  0  0  0
 17 18  2  0  0  0  0
 18 40  1  0  0  0  0
 19 23  1  0  0  0  0
 19 20  1  0  0  0  0
 19 41  1  0  0  0  0
 20 21  1  0  0  0  0
 20 42  1  0  0  0  0
 20 43  1  0  0  0  0
 21 22  1  0  0  0  0
 21 44  1  0  0  0  0
 21 45  1  0  0  0  0
 22 23  1  0  0  0  0
 22 46  1  0  0  0  0
 22 47  1  0  0  0  0
M  END
> <s_m_source_file>
AV-unprocessed.smi

> <i_m_source_file_index>
1745

> <i_lp_mmshare_version>
43012

> <i_f3d_flags>
0

> <s_epik_input>
TzFbQ0gyXVtDSDJdW0NIMl1bQ0BIXTFbQ0BIXShbQ0gzXSlbTkhdQyg9TylbTkhdYzJbY0hdW2NIXWMobltjSF0yKU4zW0NIMl1bQ0gyXU9bQ0gyXVtDSDJdMw==

> <s_epik_cmdline>
J2VwaWtfcHl0aG9uJywgJy1waCcsICc3LjAnLCAnLXRuJywgJzgnLCAnLW1hJywgJzIwMCcsICctbWV0YWxfYmluZGluZycsICctaW1hZScsICc8aW5maWxlLm1hZT4nLCAnLW9tYWUnLCAnPG91dGZpbGUubWFlPic=

> <r_lp_tautomer_probability>
1

> <r_epik_Ionization_Penalty>
0.00206005

> <r_epik_Ionization_Penalty_Charging>
0

> <r_epik_Ionization_Penalty_Neutral>
0.00206005

> <r_epik_State_Penalty>
0.00138459

> <r_epik_Charging_Adjusted_Penalty>
0.00138459

> <i_epik_Tot_Q>
0

> <i_epik_Tot_abs_Q>
0

> <r_epik_Metal_State_Penalty>
-0

> <b_epik_Metal_Only>
0

> <s_lp_Force_Field>
OPLS_2005

> <r_lp_Energy>
36.624

> <b_lp_Chiralities_Consistent>
1

> <s_lp_Variant>
AV-unprocessed.smi:1745-1

> <Gold.Version>
5.8.1

> <Gold.Id.Protein>
6NUR|6NUR_protein|mol2

> <Gold.PLP.Fitness>
43.5536

> <Gold.PLP.PLP>
-33.2190

> <Gold.PLP.part.hbond>
-3.0000

> <Gold.PLP.part.metal>
0.0000

> <Gold.PLP.part.buried>
-5.2790

> <Gold.PLP.part.nonpolar>
-25.5486

> <Gold.PLP.part.repulsive>
0.3353

> <Gold.PLP.ligand.clash>
0.0000

> <Gold.PLP.ligand.torsion>
0.2544

> <Gold.PLP.Chemscore.Hbond>
2.6000

> <Gold.PLP.Chemscore.CHOScore>
0.9747

> <Gold.PLP.Chemscore.Metal>
0.0000

> <Gold.Chemscore.Hbonds>
donor molecule, donor type, donor heavy atom, donor atom, acceptor molecule, acceptor atom, score
      L1  H     3    28       P1  7948  1.00
      L1  H     6    29       P1  7948  0.99
      P1  H  7989  7998       L1    17  0.55
      L1  C    18    40       P1  7957  1.00

> <Gold.PLP.Chemscore.Internal.Correction>
0.1192

> <Gold.Rescore>
     Score         DG    S(hbond)    S(metal)    S(lipo)     H(rot)  DE(clash)    DE(int)     intcor
     16.59     -19.25       2.37        0.00      80.50       1.40       0.24       2.42       ----

> <Gold.Chemscore.Fitness>
16.5898

> <Gold.Chemscore.DG>
-19.2499

> <Gold.Chemscore.ZeroCoef>
-5.4800

> <Gold.Chemscore.Hbond>
2.3720

> <Gold.Chemscore.Metal>
0.0000

> <Gold.Chemscore.Lipo>
80.5007

> <Gold.Chemscore.Internal_Hbond>
0.0000

> <Gold.Chemscore.DEClash>
0.2441

> <Gold.Chemscore.DEInternal>
2.4159

> <Gold.Chemscore.Rot>
1.3950

> <Gold.Chemscore.Internal.Correction>
   9.000000E+99

> <Gold.Chemscore.Hbonds>
donor molecule, donor type, donor heavy atom, donor atom, acceptor molecule, acceptor atom, score
      L1  H     3    28       P1  7948  0.99
      L1  H     6    29       P1  7948  0.94
      P1  H  7989  7998       L1    17  0.03

> <Gold.Chemscore.Hbond.Weighted>
-7.9225

> <Gold.Chemscore.Metal.Weighted>
-0.0000

> <Gold.Chemscore.Lipo.Weighted>
-9.4186

> <Gold.Chemscore.Internal_Hbond.Weighted>
0.0000

> <Gold.Chemscore.DEClash.Weighted>
0.2441

> <Gold.Chemscore.DEInternal.Weighted>
2.4159

> <Gold.Chemscore.Rot.Weighted>
3.5712

> <Gold.Chemscore.Internal.Correction.Weighted>
   9.000000E+99

> <Gold.Protein.RotatedTorsions>
[ 6907 6896 6895 6894 ] final -169.69 input  -60.11 | X-H torsion
[ 7974 7965 7964 7962 ] final   85.83 input  175.53 | X-H torsion
[ 8008 7997 7996 7995 ] final  -59.80 input   59.86 | X-H torsion
[ 10167 10162 10161 10158 ] final  149.89 input  -65.29 | X-H torsion
[ 10718 10713 10712 10709 ] final -140.35 input   66.30 | X-H torsion
[ 10763 10752 10751 10750 ] final  120.91 input  -60.55 | X-H torsion
[ 11005 11000 10999 10996 ] final   -5.42 input  -57.11 | X-H torsion

> <Gold.Protein.ActiveResidues>
 VAL166  LYS551  ARG553  GLY616  TRP617  ASP618  TYR619  PRO620  LYS621  CYS622 
 ASP623  PHE694  ASN695  SER759  ASP760  ASP761  ALA762  ILE779  LEU786  VAL792 
 PHE793  MET794  SER795  GLU796  ALA797  LYS798  CYS799  TRP800  GLU811  SER814 

> <Gold.Protein.RotatedAtoms>
  151.4956  133.3515  159.2860 H   0  0  0  0  0  0  0  0  0  0  0  0  # atno 6907 bound_to 6896
  150.8806  134.8198  159.7233 H   0  0  0  0  0  0  0  0  0  0  0  0  # atno 6908 bound_to 6896
  152.4760  134.4853  159.9730 H   0  0  0  0  0  0  0  0  0  0  0  0  # atno 6909 bound_to 6896
  145.5803  139.2324  143.2356 H   0  0  0  0  0  0  0  0  0  0  0  0  # atno 7974 bound_to 7965
  154.4369  140.1053  156.6173 H   0  0  0  0  0  0  0  0  0  0  0  0  # atno 8008 bound_to 7997
  155.5745  140.3490  155.4505 H   0  0  0  0  0  0  0  0  0  0  0  0  # atno 8009 bound_to 7997
  156.0365  140.1272  157.0192 H   0  0  0  0  0  0  0  0  0  0  0  0  # atno 8010 bound_to 7997
  139.4856  144.5566  151.7307 H   0  0  0  0  0  0  0  0  0  0  0  0  # atno 10167 bound_to 10162
  156.3213  130.7536  151.1634 H   0  0  0  0  0  0  0  0  0  0  0  0  # atno 10718 bound_to 10713
  153.6059  135.3439  155.2962 H   0  0  0  0  0  0  0  0  0  0  0  0  # atno 10763 bound_to 10752
  154.8627  135.4238  154.2362 H   0  0  0  0  0  0  0  0  0  0  0  0  # atno 10764 bound_to 10752
  153.3201  135.7037  153.7110 H   0  0  0  0  0  0  0  0  0  0  0  0  # atno 10765 bound_to 10752
  140.6910  133.9071  155.8618 H   0  0  0  0  0  0  0  0  0  0  0  0  # atno 11005 bound_to 11000
  146.1721  140.6629  142.9228 LP  0  0  0  0  0  0  0  0  0  0  0  0  # atno 17320 bound_to 7965
  144.7397  140.4908  143.6878 LP  0  0  0  0  0  0  0  0  0  0  0  0  # atno 17321 bound_to 7965
  140.5128  144.0998  150.6000 LP  0  0  0  0  0  0  0  0  0  0  0  0  # atno 17342 bound_to 10162
  140.3930  143.2743  152.0038 LP  0  0  0  0  0  0  0  0  0  0  0  0  # atno 17343 bound_to 10162
  157.7412  131.0507  150.5111 LP  0  0  0  0  0  0  0  0  0  0  0  0  # atno 17370 bound_to 10713
  156.5264  130.4174  149.6224 LP  0  0  0  0  0  0  0  0  0  0  0  0  # atno 17371 bound_to 10713
  141.0241  134.0847  157.4087 LP  0  0  0  0  0  0  0  0  0  0  0  0  # atno 17394 bound_to 11000
  139.8923  135.0124  156.6841 LP  0  0  0  0  0  0  0  0  0  0  0  0  # atno 17395 bound_to 11000

$$$$
