AV-unprocessed.smi:1686|AV-procd|sdf|6762|dock7
  -GOLD-   22720 7523D 1   1.00000     0.00000
 Structure written by MMmdl.
 41 43  0  0  0  0  0  0  0  0  1 V2000
  148.5594  138.9845  157.4613 C   0  0  0  0  0  0  0  0  0  0  0  0
  147.4866  139.8935  156.9336 C   0  0  0  0  0  0  0  0  0  0  0  0
  146.3322  139.9808  157.5811 N   0  0  0  0  0  0  0  0  0  0  0  0
  145.5490  140.8964  156.8690 O   0  0  0  0  0  0  0  0  0  0  0  0
  146.2873  141.3141  155.8155 C   0  0  0  0  0  0  0  0  0  0  0  0
  145.7025  142.4662  154.6818 Cl  0  0  0  0  0  0  0  0  0  0  0  0
  147.5213  140.7307  155.7799 C   0  0  0  0  0  0  0  0  0  0  0  0
  148.6479  140.9286  154.7941 C   0  0  0  0  0  0  0  0  0  0  0  0
  149.9931  140.7569  155.5020 C   0  0  0  0  0  0  0  0  0  0  0  0
  150.8581  140.0307  155.0141 O   0  0  0  0  0  0  0  0  0  0  0  0
  150.1568  141.4482  156.6409 N   0  0  0  0  0  0  0  0  0  0  0  0
  151.3926  141.5625  157.4100 C   0  0  2  0  0  0  0  0  0  0  0  0
  151.7566  140.1759  157.9668 C   0  0  0  0  0  0  0  0  0  0  0  0
  151.1970  142.6300  158.5150 C   0  0  2  0  0  0  0  0  0  0  0  0
  150.6031  143.9642  157.9925 C   0  0  0  0  0  0  0  0  0  0  0  0
  151.5984  145.0197  158.5035 C   0  0  1  0  0  0  0  0  0  0  0  0
  151.4894  145.1322  160.0347 C   0  0  0  0  0  0  0  0  0  0  0  0
  152.1430  143.8237  160.5165 C   0  0  0  0  0  0  0  0  0  0  0  0
  152.5019  143.1153  159.1957 C   0  0  2  0  0  0  0  0  0  0  0  0
  152.9263  144.2957  158.3280 C   0  0  0  0  0  0  0  0  0  0  0  0
  149.5515  139.3958  157.2751 H   0  0  0  0  0  0  0  0  0  0  0  0
  148.5097  138.0060  156.9837 H   0  0  0  0  0  0  0  0  0  0  0  0
  148.4644  138.8351  158.5375 H   0  0  0  0  0  0  0  0  0  0  0  0
  148.5925  140.2156  153.9712 H   0  0  0  0  0  0  0  0  0  0  0  0
  148.6041  141.9196  154.3403 H   0  0  0  0  0  0  0  0  0  0  0  0
  149.3788  142.0066  156.9606 H   0  0  0  0  0  0  0  0  0  0  0  0
  152.2022  141.8894  156.7554 H   0  0  0  0  0  0  0  0  0  0  0  0
  152.7136  140.1868  158.4868 H   0  0  0  0  0  0  0  0  0  0  0  0
  151.8394  139.4426  157.1638 H   0  0  0  0  0  0  0  0  0  0  0  0
  151.0009  139.8172  158.6660 H   0  0  0  0  0  0  0  0  0  0  0  0
  150.5297  142.2101  159.2696 H   0  0  0  0  0  0  0  0  0  0  0  0
  150.5705  143.9920  156.9024 H   0  0  0  0  0  0  0  0  0  0  0  0
  149.5887  144.1371  158.3539 H   0  0  0  0  0  0  0  0  0  0  0  0
  151.5238  145.9770  157.9869 H   0  0  0  0  0  0  0  0  0  0  0  0
  152.0432  145.9965  160.4037 H   0  0  0  0  0  0  0  0  0  0  0  0
  150.4551  145.2287  160.3675 H   0  0  0  0  0  0  0  0  0  0  0  0
  153.0417  144.0376  161.0963 H   0  0  0  0  0  0  0  0  0  0  0  0
  151.4770  143.2299  161.1436 H   0  0  0  0  0  0  0  0  0  0  0  0
  153.2641  142.3480  159.3238 H   0  0  0  0  0  0  0  0  0  0  0  0
  153.1390  144.0236  157.2929 H   0  0  0  0  0  0  0  0  0  0  0  0
  153.7768  144.8467  158.7336 H   0  0  0  0  0  0  0  0  0  0  0  0
  1  2  1  0  0  0  0
  1 21  1  0  0  0  0
  1 22  1  0  0  0  0
  1 23  1  0  0  0  0
  2  7  1  0  0  0  0
  2  3  2  0  0  0  0
  3  4  1  0  0  0  0
  4  5  1  0  0  0  0
  5  6  1  0  0  0  0
  5  7  2  0  0  0  0
  7  8  1  0  0  0  0
  8  9  1  0  0  0  0
  8 24  1  0  0  0  0
  8 25  1  0  0  0  0
  9 10  2  0  0  0  0
  9 11  1  0  0  0  0
 11 12  1  0  0  0  0
 11 26  1  0  0  0  0
 12 13  1  0  0  0  0
 12 14  1  0  0  0  0
 12 27  1  0  0  0  0
 13 28  1  0  0  0  0
 13 29  1  0  0  0  0
 13 30  1  0  0  0  0
 14 19  1  0  0  0  0
 14 15  1  0  0  0  0
 14 31  1  0  0  0  0
 15 16  1  0  0  0  0
 15 32  1  0  0  0  0
 15 33  1  0  0  0  0
 16 20  1  0  0  0  0
 16 17  1  0  0  0  0
 16 34  1  0  0  0  0
 17 18  1  0  0  0  0
 17 35  1  0  0  0  0
 17 36  1  0  0  0  0
 18 19  1  0  0  0  0
 18 37  1  0  0  0  0
 18 38  1  0  0  0  0
 19 20  1  0  0  0  0
 19 39  1  0  0  0  0
 20 40  1  0  0  0  0
 20 41  1  0  0  0  0
M  END
> <s_m_source_file>
AV-unprocessed.smi

> <i_m_source_file_index>
1686

> <i_lp_mmshare_version>
43012

> <i_f3d_flags>
0

> <s_epik_input>
W0NIM11jMW5vYyhDbCljMVtDSDJdQyg9TylbTkhdW0NASF0oW0NIM10pW0NASF0oW0NIMl1bQ0BIXTIzKVtDQEhdKFtDSDJdMylbQ0gyXVtDSDJdMg==

> <s_epik_cmdline>
J2VwaWtfcHl0aG9uJywgJy1waCcsICc3LjAnLCAnLXRuJywgJzgnLCAnLW1hJywgJzIwMCcsICctbWV0YWxfYmluZGluZycsICctaW1hZScsICc8aW5maWxlLm1hZT4nLCAnLW9tYWUnLCAnPG91dGZpbGUubWFlPic=

> <r_lp_tautomer_probability>
1

> <r_epik_Ionization_Penalty>
2.01576e-08

> <r_epik_Ionization_Penalty_Charging>
0

> <r_epik_Ionization_Penalty_Neutral>
2.01576e-08

> <r_epik_State_Penalty>
-0

> <r_epik_Charging_Adjusted_Penalty>
0

> <i_epik_Tot_Q>
0

> <i_epik_Tot_abs_Q>
0

> <r_epik_Metal_State_Penalty>
-0

> <b_epik_Metal_Only>
0

> <s_lp_Force_Field>
OPLS_2005

> <r_lp_Energy>
45.7389

> <b_lp_Chiralities_Consistent>
1

> <s_lp_Variant>
AV-unprocessed.smi:1686-5

> <Gold.Version>
5.8.1

> <Gold.Id.Protein>
6NUR|6NUR_protein|mol2

> <Gold.PLP.Fitness>
44.6698

> <Gold.PLP.PLP>
-42.9908

> <Gold.PLP.part.hbond>
-1.0000

> <Gold.PLP.part.metal>
0.0000

> <Gold.PLP.part.buried>
-5.1404

> <Gold.PLP.part.nonpolar>
-37.1181

> <Gold.PLP.part.repulsive>
0.1696

> <Gold.PLP.ligand.clash>
0.0000

> <Gold.PLP.ligand.torsion>
0.6749

> <Gold.PLP.Chemscore.Hbond>
1.0000

> <Gold.PLP.Chemscore.CHOScore>
0.0000

> <Gold.PLP.Chemscore.Metal>
0.0000

> <Gold.Chemscore.Hbonds>
donor molecule, donor type, donor heavy atom, donor atom, acceptor molecule, acceptor atom, score
      P1  H  7989  7998       L1    10  1.00

> <Gold.PLP.Chemscore.Internal.Correction>
0.0288

> <Gold.Rescore>
     Score         DG    S(hbond)    S(metal)    S(lipo)     H(rot)  DE(clash)    DE(int)     intcor
     17.80     -18.47       0.97        0.00     115.34       1.46       0.00       0.67       ----

> <Gold.Chemscore.Fitness>
17.8007

> <Gold.Chemscore.DG>
-18.4706

> <Gold.Chemscore.ZeroCoef>
-5.4800

> <Gold.Chemscore.Hbond>
0.9719

> <Gold.Chemscore.Metal>
0.0000

> <Gold.Chemscore.Lipo>
115.3357

> <Gold.Chemscore.Internal_Hbond>
0.0000

> <Gold.Chemscore.DEClash>
0.0029

> <Gold.Chemscore.DEInternal>
0.6669

> <Gold.Chemscore.Rot>
1.4648

> <Gold.Chemscore.Internal.Correction>
   9.000000E+99

> <Gold.Chemscore.Hbonds>
donor molecule, donor type, donor heavy atom, donor atom, acceptor molecule, acceptor atom, score
      P1  H  7989  7998       L1    10  0.74

> <Gold.Chemscore.Hbond.Weighted>
-3.2463

> <Gold.Chemscore.Metal.Weighted>
-0.0000

> <Gold.Chemscore.Lipo.Weighted>
-13.4943

> <Gold.Chemscore.Internal_Hbond.Weighted>
0.0000

> <Gold.Chemscore.DEClash.Weighted>
0.0029

> <Gold.Chemscore.DEInternal.Weighted>
0.6669

> <Gold.Chemscore.Rot.Weighted>
3.7500

> <Gold.Chemscore.Internal.Correction.Weighted>
   9.000000E+99

> <Gold.Protein.RotatedTorsions>
[ 6907 6896 6895 6894 ] final   85.16 input  -60.11 | X-H torsion
[ 7974 7965 7964 7962 ] final   -5.24 input  175.53 | X-H torsion
[ 8008 7997 7996 7995 ] final   78.10 input   59.86 | X-H torsion
[ 10167 10162 10161 10158 ] final  -13.82 input  -65.29 | X-H torsion
[ 10718 10713 10712 10709 ] final    9.16 input   66.30 | X-H torsion
[ 10763 10752 10751 10750 ] final   17.69 input  -60.55 | X-H torsion
[ 11005 11000 10999 10996 ] final  -25.62 input  -57.11 | X-H torsion

> <Gold.Protein.ActiveResidues>
 VAL166  LYS551  ARG553  GLY616  TRP617  ASP618  TYR619  PRO620  LYS621  CYS622 
 ASP623  PHE694  ASN695  SER759  ASP760  ASP761  ALA762  ILE779  LEU786  VAL792 
 PHE793  MET794  SER795  GLU796  ALA797  LYS798  CYS799  TRP800  GLU811  SER814 

> <Gold.Protein.RotatedAtoms>
  152.5369  134.2629  159.8941 H   0  0  0  0  0  0  0  0  0  0  0  0  # atno 6907 bound_to 6896
  151.2588  133.4306  159.2622 H   0  0  0  0  0  0  0  0  0  0  0  0  # atno 6908 bound_to 6896
  151.0471  134.9662  159.8249 H   0  0  0  0  0  0  0  0  0  0  0  0  # atno 6909 bound_to 6896
  146.2357  140.1991  142.8333 H   0  0  0  0  0  0  0  0  0  0  0  0  # atno 7974 bound_to 7965
  155.8509  140.3458  155.5693 H   0  0  0  0  0  0  0  0  0  0  0  0  # atno 8008 bound_to 7997
  155.8038  140.0889  157.1961 H   0  0  0  0  0  0  0  0  0  0  0  0  # atno 8009 bound_to 7997
  154.4007  140.1460  156.3294 H   0  0  0  0  0  0  0  0  0  0  0  0  # atno 8010 bound_to 7997
  140.7189  143.5386  150.9435 H   0  0  0  0  0  0  0  0  0  0  0  0  # atno 10167 bound_to 10162
  156.9623  130.5937  149.5663 H   0  0  0  0  0  0  0  0  0  0  0  0  # atno 10718 bound_to 10713
  153.1316  135.6741  153.9169 H   0  0  0  0  0  0  0  0  0  0  0  0  # atno 10763 bound_to 10752
  153.8653  135.3076  155.3441 H   0  0  0  0  0  0  0  0  0  0  0  0  # atno 10764 bound_to 10752
  154.7712  135.4938  153.9735 H   0  0  0  0  0  0  0  0  0  0  0  0  # atno 10765 bound_to 10752
  140.8955  133.7559  156.0475 H   0  0  0  0  0  0  0  0  0  0  0  0  # atno 11005 bound_to 11000
  144.9796  140.8447  143.5405 LP  0  0  0  0  0  0  0  0  0  0  0  0  # atno 17320 bound_to 7965
  145.1982  139.2265  143.5206 LP  0  0  0  0  0  0  0  0  0  0  0  0  # atno 17321 bound_to 7965
  139.9108  143.6722  152.3115 LP  0  0  0  0  0  0  0  0  0  0  0  0  # atno 17342 bound_to 10162
  139.7105  144.7621  151.1121 LP  0  0  0  0  0  0  0  0  0  0  0  0  # atno 17343 bound_to 10162
  156.0317  130.5408  150.8551 LP  0  0  0  0  0  0  0  0  0  0  0  0  # atno 17370 bound_to 10713
  157.5650  131.0946  150.9504 LP  0  0  0  0  0  0  0  0  0  0  0  0  # atno 17371 bound_to 10713
  140.8295  134.3195  157.5354 LP  0  0  0  0  0  0  0  0  0  0  0  0  # atno 17394 bound_to 11000
  139.8735  134.9355  156.3635 LP  0  0  0  0  0  0  0  0  0  0  0  0  # atno 17395 bound_to 11000

$$$$
