AV-unprocessed.smi:2220|AV-procd|sdf|8979|dock10
  -GOLD-   2272012193D 1   1.00000     0.00000
 Structure written by MMmdl.
 38 39  0  0  0  0  0  0  0  0  1 V2000
  150.7211  136.1582  154.6527 C   0  0  0  0  0  0  0  0  0  0  0  0
  150.9571  137.5834  154.7732 N   0  0  0  0  0  0  0  0  0  0  0  0
  150.4145  138.5516  154.0222 C   0  0  0  0  0  0  0  0  0  0  0  0
  150.8013  139.7792  154.3422 N   0  0  0  0  0  0  0  0  0  0  0  0
  151.6796  139.5827  155.4042 C   0  0  0  0  0  0  0  0  0  0  0  0
  151.7863  138.2375  155.6815 C   0  0  0  0  0  0  0  0  0  0  0  0
  152.5952  137.5413  156.7289 C   0  0  0  0  0  0  0  0  0  0  0  0
  151.8888  137.4801  158.0929 C   0  0  0  0  0  0  0  0  0  0  0  0
  151.6381  138.8136  158.6264 N   0  0  0  0  0  0  0  0  0  0  0  0
  152.5788  139.7443  158.8509 C   0  0  0  0  0  0  0  0  0  0  0  0
  153.7748  139.5632  158.6202 O   0  0  0  0  0  0  0  0  0  0  0  0
  152.0951  141.0823  159.4263 C   0  0  0  0  0  0  0  0  0  0  0  0
  151.2504  141.8550  158.3917 C   0  0  0  0  0  0  0  0  0  0  0  0
  150.7600  143.1944  158.9649 C   0  0  0  0  0  0  0  0  0  0  0  0
  151.9325  144.0519  159.4709 C   0  0  0  0  0  0  0  0  0  0  0  0
  152.6833  144.4298  158.4350 F   0  0  0  0  0  0  0  0  0  0  0  0
  151.4509  145.1481  160.0566 F   0  0  0  0  0  0  0  0  0  0  0  0
  152.8042  143.2839  160.4794 C   0  0  0  0  0  0  0  0  0  0  0  0
  153.2847  141.9436  159.8998 C   0  0  0  0  0  0  0  0  0  0  0  0
  150.0965  135.9512  153.7831 H   0  0  0  0  0  0  0  0  0  0  0  0
  150.2152  135.7913  155.5456 H   0  0  0  0  0  0  0  0  0  0  0  0
  151.6698  135.6340  154.5358 H   0  0  0  0  0  0  0  0  0  0  0  0
  149.7180  138.3531  153.2207 H   0  0  0  0  0  0  0  0  0  0  0  0
  152.1640  140.4189  155.8866 H   0  0  0  0  0  0  0  0  0  0  0  0
  152.8380  136.5323  156.3946 H   0  0  0  0  0  0  0  0  0  0  0  0
  153.5510  138.0557  156.8354 H   0  0  0  0  0  0  0  0  0  0  0  0
  150.9528  136.9242  158.0137 H   0  0  0  0  0  0  0  0  0  0  0  0
  152.5071  136.9427  158.8116 H   0  0  0  0  0  0  0  0  0  0  0  0
  150.6796  139.0457  158.8426 H   0  0  0  0  0  0  0  0  0  0  0  0
  151.4632  140.8733  160.2915 H   0  0  0  0  0  0  0  0  0  0  0  0
  151.8364  142.0429  157.4907 H   0  0  0  0  0  0  0  0  0  0  0  0
  150.3930  141.2559  158.0819 H   0  0  0  0  0  0  0  0  0  0  0  0
  150.1951  143.7396  158.2082 H   0  0  0  0  0  0  0  0  0  0  0  0
  150.0686  143.0017  159.7863 H   0  0  0  0  0  0  0  0  0  0  0  0
  153.6604  143.8912  160.7744 H   0  0  0  0  0  0  0  0  0  0  0  0
  152.2310  143.0972  161.3885 H   0  0  0  0  0  0  0  0  0  0  0  0
  153.8624  141.4072  160.6538 H   0  0  0  0  0  0  0  0  0  0  0  0
  153.9658  142.1359  159.0694 H   0  0  0  0  0  0  0  0  0  0  0  0
  1  2  1  0  0  0  0
  1 20  1  0  0  0  0
  1 21  1  0  0  0  0
  1 22  1  0  0  0  0
  2  6  1  0  0  0  0
  2  3  1  0  0  0  0
  3  4  2  0  0  0  0
  3 23  1  0  0  0  0
  4  5  1  0  0  0  0
  5  6  2  0  0  0  0
  5 24  1  0  0  0  0
  6  7  1  0  0  0  0
  7  8  1  0  0  0  0
  7 25  1  0  0  0  0
  7 26  1  0  0  0  0
  8  9  1  0  0  0  0
  8 27  1  0  0  0  0
  8 28  1  0  0  0  0
  9 10  1  0  0  0  0
  9 29  1  0  0  0  0
 10 11  2  0  0  0  0
 10 12  1  0  0  0  0
 12 19  1  0  0  0  0
 12 13  1  0  0  0  0
 12 30  1  0  0  0  0
 13 14  1  0  0  0  0
 13 31  1  0  0  0  0
 13 32  1  0  0  0  0
 14 15  1  0  0  0  0
 14 33  1  0  0  0  0
 14 34  1  0  0  0  0
 15 16  1  0  0  0  0
 15 17  1  0  0  0  0
 15 18  1  0  0  0  0
 18 19  1  0  0  0  0
 18 35  1  0  0  0  0
 18 36  1  0  0  0  0
 19 37  1  0  0  0  0
 19 38  1  0  0  0  0
M  END
> <s_m_source_file>
AV-unprocessed.smi

> <i_m_source_file_index>
2220

> <i_lp_mmshare_version>
43012

> <i_f3d_flags>
0

> <s_epik_input>
W0NIM11uMVtjSF1uW2NIXWMxW0NIMl1bQ0gyXVtOSF1DKD1PKVtDSF0oW0NIMl1bQ0gyXTIpW0NIMl1bQ0gyXUMyKEYpRg==

> <s_epik_cmdline>
J2VwaWtfcHl0aG9uJywgJy1waCcsICc3LjAnLCAnLXRuJywgJzgnLCAnLW1hJywgJzIwMCcsICctbWV0YWxfYmluZGluZycsICctaW1hZScsICc8aW5maWxlLm1hZT4nLCAnLW9tYWUnLCAnPG91dGZpbGUubWFlPic=

> <r_lp_tautomer_probability>
1

> <r_epik_Ionization_Penalty>
0.872556

> <r_epik_Ionization_Penalty_Charging>
0.872556

> <r_epik_Ionization_Penalty_Neutral>
1.72153e-08

> <r_epik_State_Penalty>
0.910028

> <r_epik_Charging_Adjusted_Penalty>
1.78258

> <i_epik_Tot_Q>
0

> <i_epik_Tot_abs_Q>
0

> <r_epik_Metal_State_Penalty>
0.360885

> <b_epik_Metal_Only>
0

> <s_lp_Force_Field>
OPLS_2005

> <r_lp_Energy>
9.62652

> <b_lp_Chiralities_Consistent>
1

> <s_lp_Variant>
AV-unprocessed.smi:2220-2

> <Gold.Version>
5.8.1

> <Gold.Id.Protein>
6NUR|6NUR_protein|mol2

> <Gold.PLP.Fitness>
53.7830

> <Gold.PLP.PLP>
-44.3955

> <Gold.PLP.part.hbond>
-2.0000

> <Gold.PLP.part.metal>
0.0000

> <Gold.PLP.part.buried>
-4.3027

> <Gold.PLP.part.nonpolar>
-38.0685

> <Gold.PLP.part.repulsive>
0.2270

> <Gold.PLP.ligand.clash>
0.0000

> <Gold.PLP.ligand.torsion>
0.5397

> <Gold.PLP.Chemscore.Hbond>
2.0000

> <Gold.PLP.Chemscore.CHOScore>
1.4810

> <Gold.PLP.Chemscore.Metal>
0.0000

> <Gold.Chemscore.Hbonds>
donor molecule, donor type, donor heavy atom, donor atom, acceptor molecule, acceptor atom, score
      P1  H  7989  7998       L1     4  1.00
      P1  H  7997  8008       L1    11  1.00
      L1  C     3    23       P1  7948  0.85
      L1  C     3    23       P1  7957  0.55

> <Gold.PLP.Chemscore.Internal.Correction>
0.0238

> <Gold.Rescore>
     Score         DG    S(hbond)    S(metal)    S(lipo)     H(rot)  DE(clash)    DE(int)     intcor
     17.05     -17.54       1.94        0.00      87.17       1.80       0.00       0.49       ----

> <Gold.Chemscore.Fitness>
17.0495

> <Gold.Chemscore.DG>
-17.5382

> <Gold.Chemscore.ZeroCoef>
-5.4800

> <Gold.Chemscore.Hbond>
1.9385

> <Gold.Chemscore.Metal>
0.0000

> <Gold.Chemscore.Lipo>
87.1719

> <Gold.Chemscore.Internal_Hbond>
0.0000

> <Gold.Chemscore.DEClash>
0.0000

> <Gold.Chemscore.DEInternal>
0.4887

> <Gold.Chemscore.Rot>
1.8029

> <Gold.Chemscore.Internal.Correction>
   9.000000E+99

> <Gold.Chemscore.Hbonds>
donor molecule, donor type, donor heavy atom, donor atom, acceptor molecule, acceptor atom, score
      P1  H  7989  7998       L1     4  0.25
      P1  H  7997  8008       L1    11  0.99

> <Gold.Chemscore.Hbond.Weighted>
-6.4747

> <Gold.Chemscore.Metal.Weighted>
-0.0000

> <Gold.Chemscore.Lipo.Weighted>
-10.1991

> <Gold.Chemscore.Internal_Hbond.Weighted>
0.0000

> <Gold.Chemscore.DEClash.Weighted>
0.0000

> <Gold.Chemscore.DEInternal.Weighted>
0.4887

> <Gold.Chemscore.Rot.Weighted>
4.6155

> <Gold.Chemscore.Internal.Correction.Weighted>
   9.000000E+99

> <Gold.Protein.RotatedTorsions>
[ 6907 6896 6895 6894 ] final  149.19 input  -60.11 | X-H torsion
[ 7974 7965 7964 7962 ] final -148.66 input  175.53 | X-H torsion
[ 8008 7997 7996 7995 ] final -112.61 input   59.86 | X-H torsion
[ 10167 10162 10161 10158 ] final   59.48 input  -65.29 | X-H torsion
[ 10718 10713 10712 10709 ] final  -98.21 input   66.30 | X-H torsion
[ 10763 10752 10751 10750 ] final   41.72 input  -60.55 | X-H torsion
[ 11005 11000 10999 10996 ] final  -51.62 input  -57.11 | X-H torsion

> <Gold.Protein.ActiveResidues>
 VAL166  LYS551  ARG553  GLY616  TRP617  ASP618  TYR619  PRO620  LYS621  CYS622 
 ASP623  PHE694  ASN695  SER759  ASP760  ASP761  ALA762  ILE779  LEU786  VAL792 
 PHE793  MET794  SER795  GLU796  ALA797  LYS798  CYS799  TRP800  GLU811  SER814 

> <Gold.Protein.RotatedAtoms>
  152.1314  133.4410  159.4722 H   0  0  0  0  0  0  0  0  0  0  0  0  # atno 6907 bound_to 6896
  150.6878  134.2416  159.4484 H   0  0  0  0  0  0  0  0  0  0  0  0  # atno 6908 bound_to 6896
  152.0300  134.9772  160.0623 H   0  0  0  0  0  0  0  0  0  0  0  0  # atno 6909 bound_to 6896
  144.8015  140.5167  143.5704 H   0  0  0  0  0  0  0  0  0  0  0  0  # atno 7974 bound_to 7965
  155.0079  140.0394  157.2387 H   0  0  0  0  0  0  0  0  0  0  0  0  # atno 8008 bound_to 7997
  154.7486  140.2762  155.6288 H   0  0  0  0  0  0  0  0  0  0  0  0  # atno 8009 bound_to 7997
  156.2880  140.2651  156.2234 H   0  0  0  0  0  0  0  0  0  0  0  0  # atno 8010 bound_to 7997
  140.1759  144.4230  150.6638 H   0  0  0  0  0  0  0  0  0  0  0  0  # atno 10167 bound_to 10162
  156.0102  130.5228  150.6488 H   0  0  0  0  0  0  0  0  0  0  0  0  # atno 10718 bound_to 10713
  152.9901  135.6153  154.2833 H   0  0  0  0  0  0  0  0  0  0  0  0  # atno 10763 bound_to 10752
  154.2561  135.2784  155.2798 H   0  0  0  0  0  0  0  0  0  0  0  0  # atno 10764 bound_to 10752
  154.5246  135.5805  153.6766 H   0  0  0  0  0  0  0  0  0  0  0  0  # atno 10765 bound_to 10752
  141.0881  133.6638  156.3904 H   0  0  0  0  0  0  0  0  0  0  0  0  # atno 11005 bound_to 11000
  145.5541  139.1477  143.3378 LP  0  0  0  0  0  0  0  0  0  0  0  0  # atno 17320 bound_to 7965
  146.2298  140.5678  142.8980 LP  0  0  0  0  0  0  0  0  0  0  0  0  # atno 17321 bound_to 7965
  140.6551  143.2235  151.5986 LP  0  0  0  0  0  0  0  0  0  0  0  0  # atno 17342 bound_to 10162
  139.5317  144.2896  152.1163 LP  0  0  0  0  0  0  0  0  0  0  0  0  # atno 17343 bound_to 10162
  157.4254  131.0842  151.1091 LP  0  0  0  0  0  0  0  0  0  0  0  0  # atno 17370 bound_to 10713
  157.1680  130.6255  149.5631 LP  0  0  0  0  0  0  0  0  0  0  0  0  # atno 17371 bound_to 10713
  140.5317  134.6206  157.5352 LP  0  0  0  0  0  0  0  0  0  0  0  0  # atno 17394 bound_to 11000
  139.9702  134.7306  156.0057 LP  0  0  0  0  0  0  0  0  0  0  0  0  # atno 17395 bound_to 11000

$$$$
