AV-unprocessed.smi:1554|AV-procd|sdf|6261|dock1
  -GOLD-   22720 6443D 1   1.00000     0.00000
 Structure written by MMmdl.
 49 51  0  0  0  0  0  0  0  0  3 V2000
  152.7640  142.9981  161.4790 C   0  0  0  0  0  0  0  0  0  0  0  0
  152.4806  142.3461  160.1365 C   0  0  0  0  0  0  0  0  0  0  0  0
  151.6351  143.0186  159.2253 C   0  0  0  0  0  0  0  0  0  0  0  0
  151.3936  142.3963  158.0063 C   0  0  0  0  0  0  0  0  0  0  0  0
  150.6200  142.7917  156.9128 N   0  3  0  0  0  0  0  0  0  0  0  0
  150.6905  141.8426  155.9384 C   0  0  0  0  0  0  0  0  0  0  0  0
  151.4933  140.8438  156.3971 N   0  0  0  0  0  0  0  0  0  0  0  0
  151.9037  139.5878  155.7552 C   0  0  0  0  0  0  0  0  0  0  0  0
  150.7232  138.8251  155.1219 C   0  0  1  0  0  0  0  0  0  0  0  0
  150.2259  139.5703  154.0274 O   0  0  0  0  0  0  0  0  0  0  0  0
  151.1476  137.4287  154.6252 C   0  0  0  0  0  0  0  0  0  0  0  0
  150.0263  136.4501  154.6338 N   0  3  1  0  0  0  0  0  0  0  0  0
  150.4728  135.0357  154.6284 C   0  0  0  0  0  0  0  0  0  0  0  0
  150.9356  134.5937  156.0282 C   0  0  0  0  0  0  0  0  0  0  0  0
  149.8788  134.7927  156.9590 O   0  0  0  0  0  0  0  0  0  0  0  0
  149.4989  136.1599  157.0704 C   0  0  2  0  0  0  0  0  0  0  0  0
  148.4059  136.2642  158.1397 C   0  0  0  0  0  0  0  0  0  0  0  0
  149.0103  136.6687  155.6963 C   0  0  0  0  0  0  0  0  0  0  0  0
  151.9600  141.1491  157.6800 C   0  0  0  0  0  0  0  0  0  0  0  0
  152.7977  140.4740  158.5641 C   0  0  0  0  0  0  0  0  0  0  0  0
  153.0557  141.0904  159.8094 C   0  0  0  0  0  0  0  0  0  0  0  0
  153.9654  140.3781  160.7957 C   0  0  0  0  0  0  0  0  0  0  0  0
  152.2244  143.9394  161.5874 H   0  0  0  0  0  0  0  0  0  0  0  0
  153.8285  143.2097  161.5837 H   0  0  0  0  0  0  0  0  0  0  0  0
  152.4580  142.3443  162.2961 H   0  0  0  0  0  0  0  0  0  0  0  0
  151.1955  143.9754  159.4669 H   0  0  0  0  0  0  0  0  0  0  0  0
  150.1963  141.8762  154.9777 H   0  0  0  0  0  0  0  0  0  0  0  0
  152.6484  139.8348  154.9971 H   0  0  0  0  0  0  0  0  0  0  0  0
  152.4124  138.9734  156.4992 H   0  0  0  0  0  0  0  0  0  0  0  0
  149.9271  138.7391  155.8599 H   0  0  0  0  0  0  0  0  0  0  0  0
  149.9292  138.9671  153.3629 H   0  0  0  0  0  0  0  0  0  0  0  0
  151.5352  137.5303  153.6102 H   0  0  0  0  0  0  0  0  0  0  0  0
  151.9761  137.0517  155.2245 H   0  0  0  0  0  0  0  0  0  0  0  0
  149.6348  134.4125  154.3136 H   0  0  0  0  0  0  0  0  0  0  0  0
  151.2608  134.8810  153.8906 H   0  0  0  0  0  0  0  0  0  0  0  0
  151.1992  133.5361  156.0182 H   0  0  0  0  0  0  0  0  0  0  0  0
  151.8265  135.1393  156.3428 H   0  0  0  0  0  0  0  0  0  0  0  0
  150.3579  136.7422  157.4062 H   0  0  0  0  0  0  0  0  0  0  0  0
  148.0871  137.2980  158.2757 H   0  0  0  0  0  0  0  0  0  0  0  0
  148.7653  135.8984  159.1019 H   0  0  0  0  0  0  0  0  0  0  0  0
  147.5287  135.6768  157.8669 H   0  0  0  0  0  0  0  0  0  0  0  0
  148.7207  137.7167  155.7565 H   0  0  0  0  0  0  0  0  0  0  0  0
  148.1091  136.1238  155.4113 H   0  0  0  0  0  0  0  0  0  0  0  0
  153.2352  139.5187  158.3147 H   0  0  0  0  0  0  0  0  0  0  0  0
  154.3523  139.4466  160.3815 H   0  0  0  0  0  0  0  0  0  0  0  0
  153.4232  140.1363  161.7101 H   0  0  0  0  0  0  0  0  0  0  0  0
  154.8183  141.0063  161.0535 H   0  0  0  0  0  0  0  0  0  0  0  0
  149.5563  136.5919  153.7505 H   0  0  0  0  0  0  0  0  0  0  0  0
  150.0839  143.6466  156.8337 H   0  0  0  0  0  0  0  0  0  0  0  0
  1  2  1  0  0  0  0
  1 23  1  0  0  0  0
  1 24  1  0  0  0  0
  1 25  1  0  0  0  0
  2 21  1  0  0  0  0
  2  3  2  0  0  0  0
  3  4  1  0  0  0  0
  3 26  1  0  0  0  0
  4 19  2  0  0  0  0
  4  5  1  0  0  0  0
  5  6  2  0  0  0  0
  5 49  1  0  0  0  0
  6  7  1  0  0  0  0
  6 27  1  0  0  0  0
  7  8  1  0  0  0  0
  7 19  1  0  0  0  0
  8  9  1  0  0  0  0
  8 28  1  0  0  0  0
  8 29  1  0  0  0  0
  9 10  1  0  0  0  0
  9 11  1  0  0  0  0
  9 30  1  0  0  0  0
 10 31  1  0  0  0  0
 11 12  1  0  0  0  0
 11 32  1  0  0  0  0
 11 33  1  0  0  0  0
 12 18  1  0  0  0  0
 12 13  1  0  0  0  0
 12 48  1  0  0  0  0
 13 14  1  0  0  0  0
 13 34  1  0  0  0  0
 13 35  1  0  0  0  0
 14 15  1  0  0  0  0
 14 36  1  0  0  0  0
 14 37  1  0  0  0  0
 15 16  1  0  0  0  0
 16 17  1  0  0  0  0
 16 18  1  0  0  0  0
 16 38  1  0  0  0  0
 17 39  1  0  0  0  0
 17 40  1  0  0  0  0
 17 41  1  0  0  0  0
 18 42  1  0  0  0  0
 18 43  1  0  0  0  0
 19 20  1  0  0  0  0
 20 21  2  0  0  0  0
 20 44  1  0  0  0  0
 21 22  1  0  0  0  0
 22 45  1  0  0  0  0
 22 46  1  0  0  0  0
 22 47  1  0  0  0  0
M  CHG  1   5   1
M  CHG  1  12   1
M  END
> <s_m_source_file>
AV-unprocessed.smi

> <i_m_source_file_index>
1554

> <i_lp_mmshare_version>
43012

> <i_f3d_flags>
0

> <s_epik_input>
W0NIM11jKFtjSF0xKWMoW0NIM10pW2NIXWMoYzEyKW4oW2NIXW4yKVtDSDJdW0NASF0oW09IXSlbQ0gyXU4zW0NIMl1bQ0gyXU9bQ0BASF0oW0NIM10pW0NIMl0z

> <s_epik_cmdline>
J2VwaWtfcHl0aG9uJywgJy1waCcsICc3LjAnLCAnLXRuJywgJzgnLCAnLW1hJywgJzIwMCcsICctbWV0YWxfYmluZGluZycsICctaW1hZScsICc8aW5maWxlLm1hZT4nLCAnLW9tYWUnLCAnPG91dGZpbGUubWFlPic=

> <r_epik_Ionization_Penalty>
1.8848

> <r_epik_Ionization_Penalty_Charging>
1.88479

> <r_epik_Ionization_Penalty_Neutral>
1.42224e-05

> <r_epik_State_Penalty>
1.94551

> <r_epik_Charging_Adjusted_Penalty>
3.8303

> <i_epik_Tot_Q>
2

> <i_epik_Tot_abs_Q>
2

> <r_epik_Metal_State_Penalty>
5.95849

> <b_epik_Metal_Only>
0

> <s_lp_Force_Field>
OPLS_2005

> <r_lp_Energy>
31.3767

> <b_lp_Chiralities_Consistent>
1

> <s_lp_Variant>
AV-unprocessed.smi:1554-22

> <Gold.Version>
5.8.1

> <Gold.Id.Protein>
6NUR|6NUR_protein|mol2

> <Gold.PLP.Fitness>
56.6270

> <Gold.PLP.PLP>
-43.4324

> <Gold.PLP.part.hbond>
-4.0000

> <Gold.PLP.part.metal>
0.0000

> <Gold.PLP.part.buried>
-6.7216

> <Gold.PLP.part.nonpolar>
-32.0747

> <Gold.PLP.part.repulsive>
0.0812

> <Gold.PLP.ligand.clash>
0.0000

> <Gold.PLP.ligand.torsion>
0.7780

> <Gold.PLP.Chemscore.Hbond>
4.8880

> <Gold.PLP.Chemscore.CHOScore>
0.0000

> <Gold.PLP.Chemscore.Metal>
0.0000

> <Gold.Chemscore.Hbonds>
donor molecule, donor type, donor heavy atom, donor atom, acceptor molecule, acceptor atom, score
      L1  H     5    49       P1  8028  1.86
      L1  H    12    48       P1  7948  2.00
      P1  H  7989  7998       L1    10  1.00

> <Gold.PLP.Chemscore.Internal.Correction>
0.0867

> <Gold.Rescore>
     Score         DG    S(hbond)    S(metal)    S(lipo)     H(rot)  DE(clash)    DE(int)     intcor
     19.13     -20.94       2.38        0.00     110.47       2.11       0.08       1.72       ----

> <Gold.Chemscore.Fitness>
19.1328

> <Gold.Chemscore.DG>
-20.9366

> <Gold.Chemscore.ZeroCoef>
-5.4800

> <Gold.Chemscore.Hbond>
2.3770

> <Gold.Chemscore.Metal>
0.0000

> <Gold.Chemscore.Lipo>
110.4668

> <Gold.Chemscore.Internal_Hbond>
0.0000

> <Gold.Chemscore.DEClash>
0.0827

> <Gold.Chemscore.DEInternal>
1.7211

> <Gold.Chemscore.Rot>
2.1122

> <Gold.Chemscore.Internal.Correction>
   9.000000E+99

> <Gold.Chemscore.Hbonds>
donor molecule, donor type, donor heavy atom, donor atom, acceptor molecule, acceptor atom, score
      L1  H     5    49       P1  8028  0.87
      L1  H    10    31       P1  7957  0.01
      L1  H    12    48       P1  7948  0.72
      P1  H  7989  7998       L1    10  0.58

> <Gold.Chemscore.Hbond.Weighted>
-7.9393

> <Gold.Chemscore.Metal.Weighted>
-0.0000

> <Gold.Chemscore.Lipo.Weighted>
-12.9246

> <Gold.Chemscore.Internal_Hbond.Weighted>
0.0000

> <Gold.Chemscore.DEClash.Weighted>
0.0827

> <Gold.Chemscore.DEInternal.Weighted>
1.7211

> <Gold.Chemscore.Rot.Weighted>
5.4073

> <Gold.Chemscore.Internal.Correction.Weighted>
   9.000000E+99

> <Gold.Protein.RotatedTorsions>
[ 6907 6896 6895 6894 ] final -145.74 input  -60.11 | X-H torsion
[ 7974 7965 7964 7962 ] final    2.63 input  175.53 | X-H torsion
[ 8008 7997 7996 7995 ] final -174.52 input   59.86 | X-H torsion
[ 10167 10162 10161 10158 ] final  -38.47 input  -65.29 | X-H torsion
[ 10718 10713 10712 10709 ] final -164.19 input   66.30 | X-H torsion
[ 10763 10752 10751 10750 ] final   86.34 input  -60.55 | X-H torsion
[ 11005 11000 10999 10996 ] final   67.94 input  -57.11 | X-H torsion

> <Gold.Protein.ActiveResidues>
 VAL166  LYS551  ARG553  GLY616  TRP617  ASP618  TYR619  PRO620  LYS621  CYS622 
 ASP623  PHE694  ASN695  SER759  ASP760  ASP761  ALA762  ILE779  LEU786  VAL792 
 PHE793  MET794  SER795  GLU796  ALA797  LYS798  CYS799  TRP800  GLU811  SER814 

> <Gold.Protein.RotatedAtoms>
  151.1320  133.5030  159.2598 H   0  0  0  0  0  0  0  0  0  0  0  0  # atno 6907 bound_to 6896
  151.1747  135.0333  159.8777 H   0  0  0  0  0  0  0  0  0  0  0  0  # atno 6908 bound_to 6896
  152.5460  134.1179  159.8439 H   0  0  0  0  0  0  0  0  0  0  0  0  # atno 6909 bound_to 6896
  146.2444  140.0808  142.8357 H   0  0  0  0  0  0  0  0  0  0  0  0  # atno 7974 bound_to 7965
  155.9711  140.1163  157.0812 H   0  0  0  0  0  0  0  0  0  0  0  0  # atno 8008 bound_to 7997
  154.4156  140.1163  156.5375 H   0  0  0  0  0  0  0  0  0  0  0  0  # atno 8009 bound_to 7997
  155.6596  140.3473  155.4780 H   0  0  0  0  0  0  0  0  0  0  0  0  # atno 8010 bound_to 7997
  140.7091  143.3275  151.2645 H   0  0  0  0  0  0  0  0  0  0  0  0  # atno 10167 bound_to 10162
  156.6355  130.8947  151.2986 H   0  0  0  0  0  0  0  0  0  0  0  0  # atno 10718 bound_to 10713
  153.1561  135.4584  154.9706 H   0  0  0  0  0  0  0  0  0  0  0  0  # atno 10763 bound_to 10752
  154.7862  135.3205  154.7882 H   0  0  0  0  0  0  0  0  0  0  0  0  # atno 10764 bound_to 10752
  153.8379  135.6932  153.4861 H   0  0  0  0  0  0  0  0  0  0  0  0  # atno 10765 bound_to 10752
  139.9741  134.6852  156.0389 H   0  0  0  0  0  0  0  0  0  0  0  0  # atno 11005 bound_to 11000
  145.0735  140.9172  143.4868 LP  0  0  0  0  0  0  0  0  0  0  0  0  # atno 17320 bound_to 7965
  145.0946  139.2865  143.5717 LP  0  0  0  0  0  0  0  0  0  0  0  0  # atno 17321 bound_to 7965
  139.6748  143.9957  152.2774 LP  0  0  0  0  0  0  0  0  0  0  0  0  # atno 17342 bound_to 10162
  139.9568  144.6584  150.8118 LP  0  0  0  0  0  0  0  0  0  0  0  0  # atno 17343 bound_to 10162
  157.7187  130.9530  150.1354 LP  0  0  0  0  0  0  0  0  0  0  0  0  # atno 17370 bound_to 10713
  156.2201  130.3673  149.8566 LP  0  0  0  0  0  0  0  0  0  0  0  0  # atno 17371 bound_to 10713
  141.1419  133.6563  156.3754 LP  0  0  0  0  0  0  0  0  0  0  0  0  # atno 17394 bound_to 11000
  140.5232  134.6284  157.5325 LP  0  0  0  0  0  0  0  0  0  0  0  0  # atno 17395 bound_to 11000

$$$$
