AV-unprocessed.smi:557|AV-procd|sdf|2915|dock3
  -GOLD-   2262023403D 1   1.00000     0.00000
 Structure written by MMmdl.
 47 49  0  0  0  0  0  0  0  0  2 V2000
  151.6770  138.3617  154.8042 C   0  0  0  0  0  0  0  0  0  0  0  0
  150.4718  139.1216  154.5513 N   0  0  0  0  0  0  0  0  0  0  0  0
  149.2385  138.6673  154.1359 C   0  0  0  0  0  0  0  0  0  0  0  0
  148.4144  139.7528  154.0365 C   0  0  0  0  0  0  0  0  0  0  0  0
  146.9705  139.8049  153.6221 C   0  0  0  0  0  0  0  0  0  0  0  0
  146.7876  139.3592  152.1653 C   0  0  0  0  0  0  0  0  0  0  0  0
  146.8723  137.9052  152.0583 N   0  0  0  0  0  0  0  0  0  0  0  0
  145.8599  137.0243  152.1269 C   0  0  0  0  0  0  0  0  0  0  0  0
  144.6965  137.3815  152.3011 O   0  0  0  0  0  0  0  0  0  0  0  0
  146.2282  135.7387  151.9955 N   0  0  0  0  0  0  0  0  0  0  0  0
  145.3220  134.5950  152.0345 C   0  0  1  0  0  0  0  0  0  0  0  0
  144.3912  134.5283  150.8109 C   0  0  0  0  0  0  0  0  0  0  0  0
  144.2656  133.0297  150.4734 C   0  0  0  0  0  0  0  0  0  0  0  0
  145.0126  132.3261  151.5331 N   0  3  1  0  0  0  0  0  0  0  0  0
  145.5329  130.9797  151.2103 C   0  0  0  0  0  0  0  0  0  0  0  0
  146.2008  130.3792  152.4636 C   0  0  0  0  0  0  0  0  0  0  0  0
  147.2651  131.3269  153.0536 C   0  0  0  0  0  0  0  0  0  0  0  0
  146.6906  132.7388  153.2790 C   0  0  0  0  0  0  0  0  0  0  0  0
  146.0634  133.2566  151.9733 C   0  0  2  0  0  0  0  0  0  0  0  0
  149.2514  140.8392  154.4202 C   0  0  0  0  0  0  0  0  0  0  0  0
  150.4810  140.4588  154.7258 N   0  0  0  0  0  0  0  0  0  0  0  0
  151.5024  137.3045  154.6029 H   0  0  0  0  0  0  0  0  0  0  0  0
  151.9748  138.4796  155.8465 H   0  0  0  0  0  0  0  0  0  0  0  0
  152.4808  138.7178  154.1591 H   0  0  0  0  0  0  0  0  0  0  0  0
  149.0508  137.6207  153.9466 H   0  0  0  0  0  0  0  0  0  0  0  0
  146.3641  139.1730  154.2723 H   0  0  0  0  0  0  0  0  0  0  0  0
  146.5789  140.8157  153.7423 H   0  0  0  0  0  0  0  0  0  0  0  0
  145.8176  139.6939  151.7934 H   0  0  0  0  0  0  0  0  0  0  0  0
  147.5545  139.8177  151.5386 H   0  0  0  0  0  0  0  0  0  0  0  0
  147.7984  137.5243  151.9256 H   0  0  0  0  0  0  0  0  0  0  0  0
  147.2083  135.5412  151.8537 H   0  0  0  0  0  0  0  0  0  0  0  0
  144.7036  134.6278  152.9342 H   0  0  0  0  0  0  0  0  0  0  0  0
  143.4219  134.9775  151.0303 H   0  0  0  0  0  0  0  0  0  0  0  0
  144.8133  135.0624  149.9584 H   0  0  0  0  0  0  0  0  0  0  0  0
  143.2284  132.6945  150.4445 H   0  0  0  0  0  0  0  0  0  0  0  0
  144.7150  132.8271  149.4999 H   0  0  0  0  0  0  0  0  0  0  0  0
  144.7146  130.3407  150.8763 H   0  0  0  0  0  0  0  0  0  0  0  0
  146.2485  131.0444  150.3891 H   0  0  0  0  0  0  0  0  0  0  0  0
  145.4383  130.1823  153.2186 H   0  0  0  0  0  0  0  0  0  0  0  0
  146.6505  129.4154  152.2229 H   0  0  0  0  0  0  0  0  0  0  0  0
  147.6490  130.9235  153.9909 H   0  0  0  0  0  0  0  0  0  0  0  0
  148.1144  131.3861  152.3715 H   0  0  0  0  0  0  0  0  0  0  0  0
  145.9421  132.7144  154.0720 H   0  0  0  0  0  0  0  0  0  0  0  0
  147.4816  133.4098  153.6145 H   0  0  0  0  0  0  0  0  0  0  0  0
  146.8304  133.3073  151.1969 H   0  0  0  0  0  0  0  0  0  0  0  0
  149.0021  141.8881  154.4833 H   0  0  0  0  0  0  0  0  0  0  0  0
  144.3784  132.2250  152.3129 H   0  0  0  0  0  0  0  0  0  0  0  0
  1  2  1  0  0  0  0
  1 22  1  0  0  0  0
  1 23  1  0  0  0  0
  1 24  1  0  0  0  0
  2 21  1  0  0  0  0
  2  3  1  0  0  0  0
  3  4  2  0  0  0  0
  3 25  1  0  0  0  0
  4  5  1  0  0  0  0
  4 20  1  0  0  0  0
  5  6  1  0  0  0  0
  5 26  1  0  0  0  0
  5 27  1  0  0  0  0
  6  7  1  0  0  0  0
  6 28  1  0  0  0  0
  6 29  1  0  0  0  0
  7  8  1  0  0  0  0
  7 30  1  0  0  0  0
  8  9  2  0  0  0  0
  8 10  1  0  0  0  0
 10 11  1  0  0  0  0
 10 31  1  0  0  0  0
 11 19  1  0  0  0  0
 11 12  1  0  0  0  0
 11 32  1  0  0  0  0
 12 13  1  0  0  0  0
 12 33  1  0  0  0  0
 12 34  1  0  0  0  0
 13 14  1  0  0  0  0
 13 35  1  0  0  0  0
 13 36  1  0  0  0  0
 14 19  1  0  0  0  0
 14 15  1  0  0  0  0
 14 47  1  0  0  0  0
 15 16  1  0  0  0  0
 15 37  1  0  0  0  0
 15 38  1  0  0  0  0
 16 17  1  0  0  0  0
 16 39  1  0  0  0  0
 16 40  1  0  0  0  0
 17 18  1  0  0  0  0
 17 41  1  0  0  0  0
 17 42  1  0  0  0  0
 18 19  1  0  0  0  0
 18 43  1  0  0  0  0
 18 44  1  0  0  0  0
 19 45  1  0  0  0  0
 20 21  2  0  0  0  0
 20 46  1  0  0  0  0
M  CHG  1  14   1
M  END
> <s_m_source_file>
AV-unprocessed.smi

> <i_m_source_file_index>
557

> <i_lp_mmshare_version>
43012

> <i_f3d_flags>
0

> <s_epik_input>
W0NIM11uMVtjSF1jKFtjSF1uMSlbQ0gyXVtDSDJdW05IXUMoPU8pW05IXVtDQEhdKFtDSDJdW0NIMl0yKVtDQEhdKE4yMylbQ0gyXVtDSDJdW0NIMl1bQ0gyXTM=

> <s_epik_cmdline>
J2VwaWtfcHl0aG9uJywgJy1waCcsICc3LjAnLCAnLXRuJywgJzgnLCAnLW1hJywgJzIwMCcsICctbWV0YWxfYmluZGluZycsICctaW1hZScsICc8aW5maWxlLm1hZT4nLCAnLW9tYWUnLCAnPG91dGZpbGUubWFlPic=

> <r_lp_tautomer_probability>
1

> <r_epik_Ionization_Penalty>
0.000956547

> <r_epik_Ionization_Penalty_Charging>
0.000435796

> <r_epik_Ionization_Penalty_Neutral>
0.000520752

> <r_epik_State_Penalty>
-0

> <r_epik_Charging_Adjusted_Penalty>
0.000435796

> <i_epik_Tot_Q>
1

> <i_epik_Tot_abs_Q>
1

> <r_epik_Metal_State_Penalty>
-0

> <b_epik_Metal_Only>
0

> <s_lp_Force_Field>
OPLS_2005

> <r_lp_Energy>
39.7592

> <b_lp_Chiralities_Consistent>
1

> <s_lp_Variant>
AV-unprocessed.smi:557-2

> <Gold.Version>
5.8.1

> <Gold.Id.Protein>
6NUR|6NUR_protein|mol2

> <Gold.PLP.Fitness>
50.2776

> <Gold.PLP.PLP>
-39.0703

> <Gold.PLP.part.hbond>
-3.0000

> <Gold.PLP.part.metal>
0.0000

> <Gold.PLP.part.buried>
-3.0588

> <Gold.PLP.part.nonpolar>
-34.6661

> <Gold.PLP.part.repulsive>
1.9898

> <Gold.PLP.ligand.clash>
0.0000

> <Gold.PLP.ligand.torsion>
0.3184

> <Gold.PLP.Chemscore.Hbond>
2.9440

> <Gold.PLP.Chemscore.CHOScore>
1.0000

> <Gold.PLP.Chemscore.Metal>
0.0000

> <Gold.Chemscore.Hbonds>
donor molecule, donor type, donor heavy atom, donor atom, acceptor molecule, acceptor atom, score
      L1  H     7    30       P1  7948  1.00
      L1  H    10    31       P1  7948  0.94
      P1  H  7989  7998       L1    21  0.95
      L1  C     3    25       P1  7948  1.00

> <Gold.PLP.Chemscore.Internal.Correction>
0.0121

> <Gold.Rescore>
     Score         DG    S(hbond)    S(metal)    S(lipo)     H(rot)  DE(clash)    DE(int)     intcor
     20.20     -21.36       2.64        0.00      95.57       1.60       0.73       0.43       ----

> <Gold.Chemscore.Fitness>
20.2045

> <Gold.Chemscore.DG>
-21.3628

> <Gold.Chemscore.ZeroCoef>
-5.4800

> <Gold.Chemscore.Hbond>
2.6352

> <Gold.Chemscore.Metal>
0.0000

> <Gold.Chemscore.Lipo>
95.5726

> <Gold.Chemscore.Internal_Hbond>
0.0000

> <Gold.Chemscore.DEClash>
0.7266

> <Gold.Chemscore.DEInternal>
0.4317

> <Gold.Chemscore.Rot>
1.6018

> <Gold.Chemscore.Internal.Correction>
   9.000000E+99

> <Gold.Chemscore.Hbonds>
donor molecule, donor type, donor heavy atom, donor atom, acceptor molecule, acceptor atom, score
      L1  H     7    30       P1  7948  0.98
      L1  H    10    31       P1  7948  0.91
      P1  H  7989  7998       L1    21  0.17

> <Gold.Chemscore.Hbond.Weighted>
-8.8014

> <Gold.Chemscore.Metal.Weighted>
-0.0000

> <Gold.Chemscore.Lipo.Weighted>
-11.1820

> <Gold.Chemscore.Internal_Hbond.Weighted>
0.0000

> <Gold.Chemscore.DEClash.Weighted>
0.7266

> <Gold.Chemscore.DEInternal.Weighted>
0.4317

> <Gold.Chemscore.Rot.Weighted>
4.1006

> <Gold.Chemscore.Internal.Correction.Weighted>
   9.000000E+99

> <Gold.Protein.RotatedTorsions>
[ 6907 6896 6895 6894 ] final  -70.96 input  -60.11 | X-H torsion
[ 7974 7965 7964 7962 ] final   76.00 input  175.53 | X-H torsion
[ 8008 7997 7996 7995 ] final  -23.45 input   59.86 | X-H torsion
[ 10167 10162 10161 10158 ] final  160.08 input  -65.29 | X-H torsion
[ 10718 10713 10712 10709 ] final   62.13 input   66.30 | X-H torsion
[ 10763 10752 10751 10750 ] final   81.56 input  -60.55 | X-H torsion
[ 11005 11000 10999 10996 ] final  -12.19 input  -57.11 | X-H torsion

> <Gold.Protein.ActiveResidues>
 VAL166  LYS551  ARG553  GLY616  TRP617  ASP618  TYR619  PRO620  LYS621  CYS622 
 ASP623  PHE694  ASN695  SER759  ASP760  ASP761  ALA762  ILE779  LEU786  VAL792 
 PHE793  MET794  SER795  GLU796  ALA797  LYS798  CYS799  TRP800  GLU811  SER814 

> <Gold.Protein.RotatedAtoms>
  150.7234  134.5377  159.5731 H   0  0  0  0  0  0  0  0  0  0  0  0  # atno 6907 bound_to 6896
  152.2895  134.7734  160.0389 H   0  0  0  0  0  0  0  0  0  0  0  0  # atno 6908 bound_to 6896
  151.8353  133.3379  159.3663 H   0  0  0  0  0  0  0  0  0  0  0  0  # atno 6909 bound_to 6896
  145.7084  139.2606  143.1665 H   0  0  0  0  0  0  0  0  0  0  0  0  # atno 7974 bound_to 7965
  154.4585  140.1980  156.0312 H   0  0  0  0  0  0  0  0  0  0  0  0  # atno 8008 bound_to 7997
  156.0793  140.3274  155.7645 H   0  0  0  0  0  0  0  0  0  0  0  0  # atno 8009 bound_to 7997
  155.5138  140.0564  157.2909 H   0  0  0  0  0  0  0  0  0  0  0  0  # atno 8010 bound_to 7997
  139.4837  144.4668  151.8631 H   0  0  0  0  0  0  0  0  0  0  0  0  # atno 10167 bound_to 10162
  157.5878  130.9033  149.9548 H   0  0  0  0  0  0  0  0  0  0  0  0  # atno 10718 bound_to 10713
  153.1127  135.4761  154.9062 H   0  0  0  0  0  0  0  0  0  0  0  0  # atno 10763 bound_to 10752
  154.7497  135.3103  154.8583 H   0  0  0  0  0  0  0  0  0  0  0  0  # atno 10764 bound_to 10752
  153.9167  135.6859  153.4802 H   0  0  0  0  0  0  0  0  0  0  0  0  # atno 10765 bound_to 10752
  140.7632  133.8498  155.9142 H   0  0  0  0  0  0  0  0  0  0  0  0  # atno 11005 bound_to 11000
  146.0735  140.7843  142.9676 LP  0  0  0  0  0  0  0  0  0  0  0  0  # atno 17320 bound_to 7965
  144.6949  140.3378  143.7204 LP  0  0  0  0  0  0  0  0  0  0  0  0  # atno 17321 bound_to 7965
  140.4134  144.2339  150.5888 LP  0  0  0  0  0  0  0  0  0  0  0  0  # atno 17342 bound_to 10162
  140.4944  143.2337  151.8771 LP  0  0  0  0  0  0  0  0  0  0  0  0  # atno 17343 bound_to 10162
  156.0929  130.3662  150.0360 LP  0  0  0  0  0  0  0  0  0  0  0  0  # atno 17370 bound_to 10713
  156.8489  130.9452  151.3627 LP  0  0  0  0  0  0  0  0  0  0  0  0  # atno 17371 bound_to 10713
  140.9644  134.1613  157.4628 LP  0  0  0  0  0  0  0  0  0  0  0  0  # atno 17394 bound_to 11000
  139.8767  134.9956  156.5753 LP  0  0  0  0  0  0  0  0  0  0  0  0  # atno 17395 bound_to 11000

$$$$
