AV-unprocessed.smi:1032|AV-procd|sdf|4485|dock8
  -GOLD-   22720 2463D 1   1.00000     0.00000
 Structure written by MMmdl.
 46 47  0  0  0  0  0  0  0  0  2 V2000
  145.8248  131.7382  149.0516 C   0  0  0  0  0  0  0  0  0  0  0  0
  144.9753  132.0395  150.2987 C   0  0  2  0  0  0  0  0  0  0  0  0
  143.8873  133.0975  150.0388 C   0  0  0  0  0  0  0  0  0  0  0  0
  144.4685  134.5187  149.9305 C   0  0  0  0  0  0  0  0  0  0  0  0
  145.2627  134.8683  151.1380 N   0  3  2  0  0  0  0  0  0  0  0  0
  145.7367  136.2764  151.1422 C   0  0  0  0  0  0  0  0  0  0  0  0
  145.0886  137.1155  152.2625 C   0  0  1  0  0  0  0  0  0  0  0  0
  145.0079  136.2850  153.4044 O   0  0  0  0  0  0  0  0  0  0  0  0
  145.9475  138.3475  152.6147 C   0  0  0  0  0  0  0  0  0  0  0  0
  147.3398  137.9900  152.8666 N   0  0  0  0  0  0  0  0  0  0  0  0
  148.1413  138.5939  153.7556 C   0  0  0  0  0  0  0  0  0  0  0  0
  147.7848  139.5468  154.4482 O   0  0  0  0  0  0  0  0  0  0  0  0
  149.3658  138.0393  153.7626 N   0  0  0  0  0  0  0  0  0  0  0  0
  150.4822  138.3604  154.5821 C   0  0  0  0  0  0  0  0  0  0  0  0
  150.4000  139.5213  155.3786 C   0  0  0  0  0  0  0  0  0  0  0  0
  151.5021  139.8725  156.1835 C   0  0  0  0  0  0  0  0  0  0  0  0
  152.6460  139.1575  156.2276 N   0  0  0  0  0  0  0  0  0  0  0  0
  152.7283  138.0541  155.4544 C   0  0  0  0  0  0  0  0  0  0  0  0
  151.6851  137.6143  154.6151 C   0  0  0  0  0  0  0  0  0  0  0  0
  146.3655  133.9000  151.3665 C   0  0  0  0  0  0  0  0  0  0  0  0
  145.8257  132.4655  151.5091 C   0  0  0  0  0  0  0  0  0  0  0  0
  146.3750  132.6128  148.7055 H   0  0  0  0  0  0  0  0  0  0  0  0
  145.1988  131.3955  148.2274 H   0  0  0  0  0  0  0  0  0  0  0  0
  146.5517  130.9518  149.2565 H   0  0  0  0  0  0  0  0  0  0  0  0
  144.4727  131.1073  150.5607 H   0  0  0  0  0  0  0  0  0  0  0  0
  143.3287  132.8509  149.1350 H   0  0  0  0  0  0  0  0  0  0  0  0
  143.1646  133.0743  150.8556 H   0  0  0  0  0  0  0  0  0  0  0  0
  145.0944  134.6068  149.0416 H   0  0  0  0  0  0  0  0  0  0  0  0
  143.6478  135.2236  149.8019 H   0  0  0  0  0  0  0  0  0  0  0  0
  146.8197  136.3040  151.2755 H   0  0  0  0  0  0  0  0  0  0  0  0
  145.5431  136.7210  150.1649 H   0  0  0  0  0  0  0  0  0  0  0  0
  144.0877  137.4359  151.9729 H   0  0  0  0  0  0  0  0  0  0  0  0
  144.1711  136.4280  153.8219 H   0  0  0  0  0  0  0  0  0  0  0  0
  145.8640  139.1293  151.8572 H   0  0  0  0  0  0  0  0  0  0  0  0
  145.5831  138.7905  153.5420 H   0  0  0  0  0  0  0  0  0  0  0  0
  147.7155  137.2182  152.3351 H   0  0  0  0  0  0  0  0  0  0  0  0
  149.5322  137.3227  153.0715 H   0  0  0  0  0  0  0  0  0  0  0  0
  149.5096  140.1332  155.3800 H   0  0  0  0  0  0  0  0  0  0  0  0
  151.4642  140.7533  156.8073 H   0  0  0  0  0  0  0  0  0  0  0  0
  153.6582  137.5068  155.5001 H   0  0  0  0  0  0  0  0  0  0  0  0
  151.8344  136.7324  154.0117 H   0  0  0  0  0  0  0  0  0  0  0  0
  147.0849  133.9624  150.5489 H   0  0  0  0  0  0  0  0  0  0  0  0
  146.9029  134.1651  152.2778 H   0  0  0  0  0  0  0  0  0  0  0  0
  145.2158  132.4070  152.4118 H   0  0  0  0  0  0  0  0  0  0  0  0
  146.6502  131.7671  151.6569 H   0  0  0  0  0  0  0  0  0  0  0  0
  144.6463  134.7804  151.9340 H   0  0  0  0  0  0  0  0  0  0  0  0
  1  2  1  0  0  0  0
  1 22  1  0  0  0  0
  1 23  1  0  0  0  0
  1 24  1  0  0  0  0
  2 21  1  0  0  0  0
  2  3  1  0  0  0  0
  2 25  1  0  0  0  0
  3  4  1  0  0  0  0
  3 26  1  0  0  0  0
  3 27  1  0  0  0  0
  4  5  1  0  0  0  0
  4 28  1  0  0  0  0
  4 29  1  0  0  0  0
  5  6  1  0  0  0  0
  5 20  1  0  0  0  0
  5 46  1  0  0  0  0
  6  7  1  0  0  0  0
  6 30  1  0  0  0  0
  6 31  1  0  0  0  0
  7  8  1  0  0  0  0
  7  9  1  0  0  0  0
  7 32  1  0  0  0  0
  8 33  1  0  0  0  0
  9 10  1  0  0  0  0
  9 34  1  0  0  0  0
  9 35  1  0  0  0  0
 10 11  1  0  0  0  0
 10 36  1  0  0  0  0
 11 12  2  0  0  0  0
 11 13  1  0  0  0  0
 13 14  1  0  0  0  0
 13 37  1  0  0  0  0
 14 19  1  0  0  0  0
 14 15  2  0  0  0  0
 15 16  1  0  0  0  0
 15 38  1  0  0  0  0
 16 17  2  0  0  0  0
 16 39  1  0  0  0  0
 17 18  1  0  0  0  0
 18 19  2  0  0  0  0
 18 40  1  0  0  0  0
 19 41  1  0  0  0  0
 20 21  1  0  0  0  0
 20 42  1  0  0  0  0
 20 43  1  0  0  0  0
 21 44  1  0  0  0  0
 21 45  1  0  0  0  0
M  CHG  1   5   1
M  END
> <s_m_source_file>
AV-unprocessed.smi

> <i_m_source_file_index>
1032

> <i_lp_mmshare_version>
43012

> <i_f3d_flags>
0

> <s_epik_input>
W0NIM11bQ0hdMVtDSDJdW0NIMl1OKFtDSDJdW0NIMl0xKVtDSDJdW0NASF0oW09IXSlbQ0gyXVtOSF1DKD1PKVtOSF1jMltjSF1bY0hdbltjSF1bY0hdMg==

> <s_epik_cmdline>
J2VwaWtfcHl0aG9uJywgJy1waCcsICc3LjAnLCAnLXRuJywgJzgnLCAnLW1hJywgJzIwMCcsICctbWV0YWxfYmluZGluZycsICctaW1hZScsICc8aW5maWxlLm1hZT4nLCAnLW9tYWUnLCAnPG91dGZpbGUubWFlPic=

> <r_epik_Ionization_Penalty>
0.11743

> <r_epik_Ionization_Penalty_Charging>
0.00147689

> <r_epik_Ionization_Penalty_Neutral>
0.115954

> <r_epik_State_Penalty>
0.105552

> <r_epik_Charging_Adjusted_Penalty>
0.107029

> <i_epik_Tot_Q>
1

> <i_epik_Tot_abs_Q>
1

> <r_epik_Metal_State_Penalty>
0.0881315

> <b_epik_Metal_Only>
0

> <s_lp_Force_Field>
OPLS_2005

> <r_lp_Energy>
26.5428

> <b_lp_Chiralities_Consistent>
1

> <s_lp_Variant>
AV-unprocessed.smi:1032-4

> <Gold.Version>
5.8.1

> <Gold.Id.Protein>
6NUR|6NUR_protein|mol2

> <Gold.PLP.Fitness>
48.8532

> <Gold.PLP.PLP>
-42.1659

> <Gold.PLP.part.hbond>
-4.0000

> <Gold.PLP.part.metal>
0.0000

> <Gold.PLP.part.buried>
-4.5673

> <Gold.PLP.part.nonpolar>
-34.7375

> <Gold.PLP.part.repulsive>
0.2116

> <Gold.PLP.ligand.clash>
0.0000

> <Gold.PLP.ligand.torsion>
1.1826

> <Gold.PLP.Chemscore.Hbond>
3.0000

> <Gold.PLP.Chemscore.CHOScore>
0.0000

> <Gold.PLP.Chemscore.Metal>
0.0000

> <Gold.Chemscore.Hbonds>
donor molecule, donor type, donor heavy atom, donor atom, acceptor molecule, acceptor atom, score
      L1  H    10    36       P1  7948  1.00
      L1  H    13    37       P1  7948  1.00
      P1  H  7997  8008       L1    17  1.00

> <Gold.PLP.Chemscore.Internal.Correction>
0.0525

> <Gold.Rescore>
     Score         DG    S(hbond)    S(metal)    S(lipo)     H(rot)  DE(clash)    DE(int)     intcor
     17.96     -20.49       2.63        0.00     103.18       2.29       0.04       2.49       ----

> <Gold.Chemscore.Fitness>
17.9593

> <Gold.Chemscore.DG>
-20.4932

> <Gold.Chemscore.ZeroCoef>
-5.4800

> <Gold.Chemscore.Hbond>
2.6333

> <Gold.Chemscore.Metal>
0.0000

> <Gold.Chemscore.Lipo>
103.1767

> <Gold.Chemscore.Internal_Hbond>
0.0000

> <Gold.Chemscore.DEClash>
0.0411

> <Gold.Chemscore.DEInternal>
2.4927

> <Gold.Chemscore.Rot>
2.2865

> <Gold.Chemscore.Internal.Correction>
   9.000000E+99

> <Gold.Chemscore.Hbonds>
donor molecule, donor type, donor heavy atom, donor atom, acceptor molecule, acceptor atom, score
      L1  H    10    36       P1  7948  0.96
      L1  H    13    37       P1  7948  0.75
      P1  H  7997  8008       L1    17  0.79

> <Gold.Chemscore.Hbond.Weighted>
-8.7951

> <Gold.Chemscore.Metal.Weighted>
-0.0000

> <Gold.Chemscore.Lipo.Weighted>
-12.0717

> <Gold.Chemscore.Internal_Hbond.Weighted>
0.0000

> <Gold.Chemscore.DEClash.Weighted>
0.0411

> <Gold.Chemscore.DEInternal.Weighted>
2.4927

> <Gold.Chemscore.Rot.Weighted>
5.8536

> <Gold.Chemscore.Internal.Correction.Weighted>
   9.000000E+99

> <Gold.Protein.RotatedTorsions>
[ 6907 6896 6895 6894 ] final  -13.98 input  -60.11 | X-H torsion
[ 7974 7965 7964 7962 ] final  -61.85 input  175.53 | X-H torsion
[ 8008 7997 7996 7995 ] final  -42.12 input   59.86 | X-H torsion
[ 10167 10162 10161 10158 ] final  119.86 input  -65.29 | X-H torsion
[ 10718 10713 10712 10709 ] final   85.95 input   66.30 | X-H torsion
[ 10763 10752 10751 10750 ] final -118.02 input  -60.55 | X-H torsion
[ 11005 11000 10999 10996 ] final  -32.42 input  -57.11 | X-H torsion

> <Gold.Protein.ActiveResidues>
 VAL166  LYS551  ARG553  GLY616  TRP617  ASP618  TYR619  PRO620  LYS621  CYS622 
 ASP623  PHE694  ASN695  SER759  ASP760  ASP761  ALA762  ILE779  LEU786  VAL792 
 PHE793  MET794  SER795  GLU796  ALA797  LYS798  CYS799  TRP800  GLU811  SER814 

> <Gold.Protein.RotatedAtoms>
  151.3466  135.0875  159.9388 H   0  0  0  0  0  0  0  0  0  0  0  0  # atno 6907 bound_to 6896
  152.5198  133.9394  159.7629 H   0  0  0  0  0  0  0  0  0  0  0  0  # atno 6908 bound_to 6896
  150.9762  133.6239  159.2759 H   0  0  0  0  0  0  0  0  0  0  0  0  # atno 6909 bound_to 6896
  145.7984  140.8669  143.0244 H   0  0  0  0  0  0  0  0  0  0  0  0  # atno 7974 bound_to 7965
  154.4000  140.1482  156.3303 H   0  0  0  0  0  0  0  0  0  0  0  0  # atno 8008 bound_to 7997
  155.8449  140.3460  155.5635 H   0  0  0  0  0  0  0  0  0  0  0  0  # atno 8009 bound_to 7997
  155.8046  140.0875  157.1928 H   0  0  0  0  0  0  0  0  0  0  0  0  # atno 8010 bound_to 7997
  139.6019  144.7059  151.3043 H   0  0  0  0  0  0  0  0  0  0  0  0  # atno 10167 bound_to 10162
  157.6922  131.0196  150.2900 H   0  0  0  0  0  0  0  0  0  0  0  0  # atno 10718 bound_to 10713
  154.8574  135.4289  154.2073 H   0  0  0  0  0  0  0  0  0  0  0  0  # atno 10763 bound_to 10752
  153.3106  135.6975  153.7125 H   0  0  0  0  0  0  0  0  0  0  0  0  # atno 10764 bound_to 10752
  153.6219  135.3500  155.2987 H   0  0  0  0  0  0  0  0  0  0  0  0  # atno 10765 bound_to 10752
  140.9551  133.7197  156.1280 H   0  0  0  0  0  0  0  0  0  0  0  0  # atno 11005 bound_to 11000
  144.6772  140.0224  143.7483 LP  0  0  0  0  0  0  0  0  0  0  0  0  # atno 17320 bound_to 7965
  145.9903  139.3010  143.0989 LP  0  0  0  0  0  0  0  0  0  0  0  0  # atno 17321 bound_to 7965
  140.7256  143.7013  150.7842 LP  0  0  0  0  0  0  0  0  0  0  0  0  # atno 17342 bound_to 10162
  140.0591  143.5172  152.2636 LP  0  0  0  0  0  0  0  0  0  0  0  0  # atno 17343 bound_to 10162
  156.3432  130.3819  149.7391 LP  0  0  0  0  0  0  0  0  0  0  0  0  # atno 17370 bound_to 10713
  156.4893  130.8077  151.3088 LP  0  0  0  0  0  0  0  0  0  0  0  0  # atno 17371 bound_to 10713
  140.7548  134.4005  157.5535 LP  0  0  0  0  0  0  0  0  0  0  0  0  # atno 17394 bound_to 11000
  139.8859  134.8923  156.2613 LP  0  0  0  0  0  0  0  0  0  0  0  0  # atno 17395 bound_to 11000

$$$$
