AV-unprocessed.smi:3292|AV-procd|sdf|12628|dock8
  -GOLD-   2272018563D 1   1.00000     0.00000
 Structure written by MMmdl.
 38 39  0  0  0  0  0  0  0  0  1 V2000
  143.8158  136.7767  152.6210 C   0  0  0  0  0  0  0  0  0  0  0  0
  144.8990  135.7456  152.2639 C   0  0  1  0  0  0  0  0  0  0  0  0
  144.9365  135.3985  150.7597 C   0  0  0  0  0  0  0  0  0  0  0  0
  145.0827  133.9763  150.5158 N   0  0  0  0  0  0  0  0  0  0  0  0
  146.2328  133.2152  150.6775 C   0  0  0  0  0  0  0  0  0  0  0  0
  145.9035  131.9257  150.3255 C   0  0  0  0  0  0  0  0  0  0  0  0
  144.5652  131.8718  149.9425 N   0  0  0  0  0  0  0  0  0  0  0  0
  144.1462  133.1233  150.0782 C   0  0  0  0  0  0  0  0  0  0  0  0
  146.2012  136.2479  152.6934 N   0  0  0  0  0  0  0  0  0  0  0  0
  146.4988  136.6576  153.9347 C   0  0  0  0  0  0  0  0  0  0  0  0
  145.6947  136.6730  154.8669 O   0  0  0  0  0  0  0  0  0  0  0  0
  147.7804  137.0363  154.0401 N   0  0  0  0  0  0  0  0  0  0  0  0
  148.4227  137.5130  155.2612 C   0  0  0  0  0  0  0  0  0  0  0  0
  149.2122  138.8148  155.0258 C   0  0  1  0  0  0  0  0  0  0  0  0
  149.7153  139.4637  156.2989 C   0  0  0  0  0  0  0  0  0  0  0  0
  150.7921  140.4064  155.7700 C   0  0  0  0  0  0  0  0  0  0  0  0
  151.3201  139.7808  154.6039 O   0  0  0  0  0  0  0  0  0  0  0  0
  150.5217  138.6559  154.2499 C   0  0  0  0  0  0  0  0  0  0  0  0
  142.8167  136.4000  152.4002 H   0  0  0  0  0  0  0  0  0  0  0  0
  143.9527  137.7046  152.0650 H   0  0  0  0  0  0  0  0  0  0  0  0
  143.8406  137.0184  153.6841 H   0  0  0  0  0  0  0  0  0  0  0  0
  144.6767  134.8357  152.8247 H   0  0  0  0  0  0  0  0  0  0  0  0
  144.0259  135.7439  150.2675 H   0  0  0  0  0  0  0  0  0  0  0  0
  145.7671  135.9088  150.2703 H   0  0  0  0  0  0  0  0  0  0  0  0
  147.1634  133.6425  151.0215 H   0  0  0  0  0  0  0  0  0  0  0  0
  146.5221  131.0406  150.3167 H   0  0  0  0  0  0  0  0  0  0  0  0
  143.1329  133.4255  149.8580 H   0  0  0  0  0  0  0  0  0  0  0  0
  146.9305  136.2741  151.9958 H   0  0  0  0  0  0  0  0  0  0  0  0
  148.3593  136.9851  153.2147 H   0  0  0  0  0  0  0  0  0  0  0  0
  147.6384  137.6936  155.9967 H   0  0  0  0  0  0  0  0  0  0  0  0
  149.0668  136.7418  155.6875 H   0  0  0  0  0  0  0  0  0  0  0  0
  148.5791  139.5328  154.5016 H   0  0  0  0  0  0  0  0  0  0  0  0
  148.9339  139.9824  156.8550 H   0  0  0  0  0  0  0  0  0  0  0  0
  150.1639  138.7167  156.9558 H   0  0  0  0  0  0  0  0  0  0  0  0
  150.3523  141.3615  155.4803 H   0  0  0  0  0  0  0  0  0  0  0  0
  151.5720  140.6018  156.5062 H   0  0  0  0  0  0  0  0  0  0  0  0
  151.0481  137.7523  154.5605 H   0  0  0  0  0  0  0  0  0  0  0  0
  150.3671  138.6031  153.1719 H   0  0  0  0  0  0  0  0  0  0  0  0
  1  2  1  0  0  0  0
  1 19  1  0  0  0  0
  1 20  1  0  0  0  0
  1 21  1  0  0  0  0
  2  3  1  0  0  0  0
  2  9  1  0  0  0  0
  2 22  1  0  0  0  0
  3  4  1  0  0  0  0
  3 23  1  0  0  0  0
  3 24  1  0  0  0  0
  4  8  1  0  0  0  0
  4  5  1  0  0  0  0
  5  6  2  0  0  0  0
  5 25  1  0  0  0  0
  6  7  1  0  0  0  0
  6 26  1  0  0  0  0
  7  8  2  0  0  0  0
  8 27  1  0  0  0  0
  9 10  1  0  0  0  0
  9 28  1  0  0  0  0
 10 11  2  0  0  0  0
 10 12  1  0  0  0  0
 12 13  1  0  0  0  0
 12 29  1  0  0  0  0
 13 14  1  0  0  0  0
 13 30  1  0  0  0  0
 13 31  1  0  0  0  0
 14 18  1  0  0  0  0
 14 15  1  0  0  0  0
 14 32  1  0  0  0  0
 15 16  1  0  0  0  0
 15 33  1  0  0  0  0
 15 34  1  0  0  0  0
 16 17  1  0  0  0  0
 16 35  1  0  0  0  0
 16 36  1  0  0  0  0
 17 18  1  0  0  0  0
 18 37  1  0  0  0  0
 18 38  1  0  0  0  0
M  END
> <s_m_source_file>
AV-unprocessed.smi

> <i_m_source_file_index>
3292

> <i_lp_mmshare_version>
43012

> <i_f3d_flags>
0

> <s_epik_input>
W2NIXTFuW2NIXVtjSF1uMVtDSDJdW0NAQEhdKFtDSDNdKVtOSF1DKD1PKVtOSF1bQ0gyXVtDQEBIXTJbQ0gyXVtDSDJdT1tDSDJdMg==

> <s_epik_cmdline>
J2VwaWtfcHl0aG9uJywgJy1waCcsICc3LjAnLCAnLXRuJywgJzgnLCAnLW1hJywgJzIwMCcsICctbWV0YWxfYmluZGluZycsICctaW1hZScsICc8aW5maWxlLm1hZT4nLCAnLW9tYWUnLCAnPG91dGZpbGUubWFlPic=

> <r_lp_tautomer_probability>
1

> <r_epik_Ionization_Penalty>
0.621291

> <r_epik_Ionization_Penalty_Charging>
0.621234

> <r_epik_Ionization_Penalty_Neutral>
5.72199e-05

> <r_epik_State_Penalty>
0.637278

> <r_epik_Charging_Adjusted_Penalty>
1.25851

> <i_epik_Tot_Q>
0

> <i_epik_Tot_abs_Q>
0

> <r_epik_Metal_State_Penalty>
0.306757

> <b_epik_Metal_Only>
0

> <s_lp_Force_Field>
OPLS_2005

> <r_lp_Energy>
18.205

> <b_lp_Chiralities_Consistent>
1

> <s_lp_Variant>
AV-unprocessed.smi:3292-8

> <Gold.Version>
5.8.1

> <Gold.Id.Protein>
6NUR|6NUR_protein|mol2

> <Gold.PLP.Fitness>
43.0783

> <Gold.PLP.PLP>
-30.3318

> <Gold.PLP.part.hbond>
-3.4047

> <Gold.PLP.part.metal>
0.0000

> <Gold.PLP.part.buried>
-4.6856

> <Gold.PLP.part.nonpolar>
-22.6621

> <Gold.PLP.part.repulsive>
0.2710

> <Gold.PLP.ligand.clash>
0.0000

> <Gold.PLP.ligand.torsion>
0.9043

> <Gold.PLP.Chemscore.Hbond>
2.8320

> <Gold.PLP.Chemscore.CHOScore>
1.9983

> <Gold.PLP.Chemscore.Metal>
0.0000

> <Gold.Chemscore.Hbonds>
donor molecule, donor type, donor heavy atom, donor atom, acceptor molecule, acceptor atom, score
      L1  H     9    28       P1  7948  0.83
      L1  H    12    29       P1  7948  1.00
      P1  H  7989  7998       L1    17  1.00
      L1  C     6    26       P1 10747  0.99
      L1  C     8    27       P1 10186  1.00

> <Gold.PLP.Chemscore.Internal.Correction>
0.0640

> <Gold.Rescore>
     Score         DG    S(hbond)    S(metal)    S(lipo)     H(rot)  DE(clash)    DE(int)     intcor
     15.18     -17.44       3.28        0.00      55.71       2.16       0.06       2.20       ----

> <Gold.Chemscore.Fitness>
15.1777

> <Gold.Chemscore.DG>
-17.4396

> <Gold.Chemscore.ZeroCoef>
-5.4800

> <Gold.Chemscore.Hbond>
3.2831

> <Gold.Chemscore.Metal>
0.0000

> <Gold.Chemscore.Lipo>
55.7073

> <Gold.Chemscore.Internal_Hbond>
0.0000

> <Gold.Chemscore.DEClash>
0.0614

> <Gold.Chemscore.DEInternal>
2.2005

> <Gold.Chemscore.Rot>
2.1577

> <Gold.Chemscore.Internal.Correction>
   9.000000E+99

> <Gold.Chemscore.Hbonds>
donor molecule, donor type, donor heavy atom, donor atom, acceptor molecule, acceptor atom, score
      L1  H     9    28       P1  7948  0.78
      L1  H    12    29       P1  7948  0.97
      P1  H  7989  7998       L1    17  0.74
      P1  H 10785 10796       L1     7  0.01

> <Gold.Chemscore.Hbond.Weighted>
-10.9655

> <Gold.Chemscore.Metal.Weighted>
-0.0000

> <Gold.Chemscore.Lipo.Weighted>
-6.5178

> <Gold.Chemscore.Internal_Hbond.Weighted>
0.0000

> <Gold.Chemscore.DEClash.Weighted>
0.0614

> <Gold.Chemscore.DEInternal.Weighted>
2.2005

> <Gold.Chemscore.Rot.Weighted>
5.5237

> <Gold.Chemscore.Internal.Correction.Weighted>
   9.000000E+99

> <Gold.Protein.RotatedTorsions>
[ 6907 6896 6895 6894 ] final   29.95 input  -60.11 | X-H torsion
[ 7974 7965 7964 7962 ] final    9.32 input  175.53 | X-H torsion
[ 8008 7997 7996 7995 ] final  -12.64 input   59.86 | X-H torsion
[ 10167 10162 10161 10158 ] final  122.01 input  -65.29 | X-H torsion
[ 10718 10713 10712 10709 ] final  -25.18 input   66.30 | X-H torsion
[ 10763 10752 10751 10750 ] final -162.49 input  -60.55 | X-H torsion
[ 11005 11000 10999 10996 ] final  -39.92 input  -57.11 | X-H torsion

> <Gold.Protein.ActiveResidues>
 VAL166  LYS551  ARG553  GLY616  TRP617  ASP618  TYR619  PRO620  LYS621  CYS622 
 ASP623  PHE694  ASN695  SER759  ASP760  ASP761  ALA762  ILE779  LEU786  VAL792 
 PHE793  MET794  SER795  GLU796  ALA797  LYS798  CYS799  TRP800  GLU811  SER814 

> <Gold.Protein.RotatedAtoms>
  152.0389  134.9723  160.0573 H   0  0  0  0  0  0  0  0  0  0  0  0  # atno 6907 bound_to 6896
  152.1170  133.4327  159.4666 H   0  0  0  0  0  0  0  0  0  0  0  0  # atno 6908 bound_to 6896
  150.6846  134.2499  159.4550 H   0  0  0  0  0  0  0  0  0  0  0  0  # atno 6909 bound_to 6896
  146.2405  139.9801  142.8437 H   0  0  0  0  0  0  0  0  0  0  0  0  # atno 7974 bound_to 7965
  154.5360  140.2270  155.8723 H   0  0  0  0  0  0  0  0  0  0  0  0  # atno 8008 bound_to 7997
  156.1811  140.3100  155.9114 H   0  0  0  0  0  0  0  0  0  0  0  0  # atno 8009 bound_to 7997
  155.3355  140.0447  157.3034 H   0  0  0  0  0  0  0  0  0  0  0  0  # atno 8010 bound_to 7997
  139.5885  144.7016  151.3349 H   0  0  0  0  0  0  0  0  0  0  0  0  # atno 10167 bound_to 10162
  156.4677  130.4517  149.6888 H   0  0  0  0  0  0  0  0  0  0  0  0  # atno 10718 bound_to 10713
  154.7209  135.3025  154.9048 H   0  0  0  0  0  0  0  0  0  0  0  0  # atno 10763 bound_to 10752
  153.9920  135.6717  153.4758 H   0  0  0  0  0  0  0  0  0  0  0  0  # atno 10764 bound_to 10752
  153.0833  135.4997  154.8464 H   0  0  0  0  0  0  0  0  0  0  0  0  # atno 10765 bound_to 10752
  141.0137  133.6895  156.2251 H   0  0  0  0  0  0  0  0  0  0  0  0  # atno 11005 bound_to 11000
  145.1599  140.9667  143.4383 LP  0  0  0  0  0  0  0  0  0  0  0  0  # atno 17320 bound_to 7965
  145.0125  139.3496  143.6112 LP  0  0  0  0  0  0  0  0  0  0  0  0  # atno 17321 bound_to 7965
  140.7152  143.7284  150.7642 LP  0  0  0  0  0  0  0  0  0  0  0  0  # atno 17342 bound_to 10162
  140.0835  143.4946  152.2517 LP  0  0  0  0  0  0  0  0  0  0  0  0  # atno 17343 bound_to 10162
  156.3650  130.7501  151.2478 LP  0  0  0  0  0  0  0  0  0  0  0  0  # atno 17370 bound_to 10713
  157.7493  131.0339  150.4294 LP  0  0  0  0  0  0  0  0  0  0  0  0  # atno 17371 bound_to 10713
  140.6691  134.4887  157.5586 LP  0  0  0  0  0  0  0  0  0  0  0  0  # atno 17394 bound_to 11000
  139.9104  134.8356  156.1548 LP  0  0  0  0  0  0  0  0  0  0  0  0  # atno 17395 bound_to 11000

$$$$
