AV-unprocessed.smi:148|AV-procd|sdf|1211|dock2
  -GOLD-   2262018383D 1   1.00000     0.00000
 Structure written by MMmdl.
 63 67  0  0  0  0  0  0  0  0  1 V2000
  157.4660  134.1428  160.0559 O   0  0  0  0  0  0  0  0  0  0  0  0
  156.4424  134.1328  161.0289 C   0  0  0  0  0  0  0  0  0  0  0  0
  155.6152  135.4385  160.9643 C   0  0  1  0  0  0  0  0  0  0  0  0
  155.0409  135.6448  159.5406 C   0  0  0  0  0  0  0  0  0  0  0  0
  154.6354  137.0137  159.2754 N   0  0  0  0  0  0  0  0  0  0  0  0
  155.4602  138.0864  159.0214 C   0  0  0  0  0  0  0  0  0  0  0  0
  154.8485  139.2199  158.8117 N   0  0  0  0  0  0  0  0  0  0  0  0
  153.5007  138.9057  158.9390 C   0  0  0  0  0  0  0  0  0  0  0  0
  152.2906  139.6490  158.8414 C   0  0  0  0  0  0  0  0  0  0  0  0
  152.2178  140.9717  158.5719 N   0  0  0  0  0  0  0  0  0  0  0  0
  152.8404  141.7365  159.6520 C   0  0  0  0  0  0  0  0  0  0  0  0
  153.0085  143.2113  159.2673 C   0  0  0  0  0  0  0  0  0  0  0  0
  151.6603  143.8068  158.8512 C   0  0  0  0  0  0  0  0  0  0  0  0
  151.0521  142.9795  157.7108 C   0  0  0  0  0  0  0  0  0  0  0  0
  150.9191  141.4793  158.0896 C   0  0  1  0  0  0  0  0  0  0  0  0
  150.3098  140.6001  156.9443 C   0  0  2  0  0  0  0  0  0  0  0  0
  150.8706  140.9242  155.5396 C   0  0  0  0  0  0  0  0  0  0  0  0
  149.6724  141.2572  154.6390 C   0  0  0  0  0  0  0  0  0  0  0  0
  148.5216  141.5804  155.5902 C   0  0  0  0  0  0  0  0  0  0  0  0
  148.7751  140.6495  156.7742 C   0  0  2  0  0  0  0  0  0  0  0  0
  148.0488  141.0082  157.9325 O   0  0  0  0  0  0  0  0  0  0  0  0
  151.1204  138.9889  159.0214 N   0  0  0  0  0  0  0  0  0  0  0  0
  151.1276  137.6809  159.2953 C   0  0  0  0  0  0  0  0  0  0  0  0
  152.1727  136.8601  159.4245 N   0  0  0  0  0  0  0  0  0  0  0  0
  153.3499  137.5221  159.2331 C   0  0  0  0  0  0  0  0  0  0  0  0
  154.5252  135.5368  162.0682 C   0  0  2  0  0  0  0  0  0  0  0  0
  153.9548  136.9363  162.3068 C   0  0  0  0  0  0  0  0  0  0  0  0
  154.1302  137.1603  163.8078 C   0  0  0  0  0  0  0  0  0  0  0  0
  154.1543  135.8477  164.3435 O   0  0  0  0  0  0  0  0  0  0  0  0
  154.9524  135.0695  163.4672 C   0  0  0  0  0  0  0  0  0  0  0  0
  157.8441  133.2782  160.0067 H   0  0  0  0  0  0  0  0  0  0  0  0
  155.8142  133.2575  160.8652 H   0  0  0  0  0  0  0  0  0  0  0  0
  156.9171  134.0045  162.0005 H   0  0  0  0  0  0  0  0  0  0  0  0
  156.3058  136.2614  161.1564 H   0  0  0  0  0  0  0  0  0  0  0  0
  155.7785  135.3679  158.7865 H   0  0  0  0  0  0  0  0  0  0  0  0
  154.1806  134.9934  159.3821 H   0  0  0  0  0  0  0  0  0  0  0  0
  156.5367  138.0005  158.9890 H   0  0  0  0  0  0  0  0  0  0  0  0
  152.2277  141.6586  160.5515 H   0  0  0  0  0  0  0  0  0  0  0  0
  153.8162  141.3124  159.8948 H   0  0  0  0  0  0  0  0  0  0  0  0
  153.4254  143.7715  160.1044 H   0  0  0  0  0  0  0  0  0  0  0  0
  153.7207  143.2984  158.4458 H   0  0  0  0  0  0  0  0  0  0  0  0
  150.9805  143.8168  159.7040 H   0  0  0  0  0  0  0  0  0  0  0  0
  151.7865  144.8435  158.5383 H   0  0  0  0  0  0  0  0  0  0  0  0
  150.0818  143.4050  157.4618 H   0  0  0  0  0  0  0  0  0  0  0  0
  151.6733  143.0989  156.8237 H   0  0  0  0  0  0  0  0  0  0  0  0
  150.2350  141.4307  158.9369 H   0  0  0  0  0  0  0  0  0  0  0  0
  150.5358  139.5570  157.1669 H   0  0  0  0  0  0  0  0  0  0  0  0
  151.5644  141.7637  155.5662 H   0  0  0  0  0  0  0  0  0  0  0  0
  151.4313  140.0795  155.1374 H   0  0  0  0  0  0  0  0  0  0  0  0
  149.8833  142.0757  153.9503 H   0  0  0  0  0  0  0  0  0  0  0  0
  149.4139  140.3829  154.0402 H   0  0  0  0  0  0  0  0  0  0  0  0
  148.5776  142.6249  155.8963 H   0  0  0  0  0  0  0  0  0  0  0  0
  147.5445  141.4210  155.1332 H   0  0  0  0  0  0  0  0  0  0  0  0
  148.4352  139.6530  156.4863 H   0  0  0  0  0  0  0  0  0  0  0  0
  147.7854  140.2180  158.3786 H   0  0  0  0  0  0  0  0  0  0  0  0
  150.1570  137.2266  159.4295 H   0  0  0  0  0  0  0  0  0  0  0  0
  153.6725  134.9253  161.7712 H   0  0  0  0  0  0  0  0  0  0  0  0
  154.4320  137.7202  161.7193 H   0  0  0  0  0  0  0  0  0  0  0  0
  152.8944  136.9481  162.0510 H   0  0  0  0  0  0  0  0  0  0  0  0
  155.0805  137.6548  164.0160 H   0  0  0  0  0  0  0  0  0  0  0  0
  153.3295  137.7596  164.2416 H   0  0  0  0  0  0  0  0  0  0  0  0
  154.7861  134.0031  163.6205 H   0  0  0  0  0  0  0  0  0  0  0  0
  156.0017  135.2795  163.6735 H   0  0  0  0  0  0  0  0  0  0  0  0
  1  2  1  0  0  0  0
  1 31  1  0  0  0  0
  2  3  1  0  0  0  0
  2 32  1  0  0  0  0
  2 33  1  0  0  0  0
  3  4  1  0  0  0  0
  3 26  1  0  0  0  0
  3 34  1  0  0  0  0
  4  5  1  0  0  0  0
  4 35  1  0  0  0  0
  4 36  1  0  0  0  0
  5 25  1  0  0  0  0
  5  6  1  0  0  0  0
  6  7  2  0  0  0  0
  6 37  1  0  0  0  0
  7  8  1  0  0  0  0
  8 25  2  0  0  0  0
  8  9  1  0  0  0  0
  9 10  1  0  0  0  0
  9 22  2  0  0  0  0
 10 15  1  0  0  0  0
 10 11  1  0  0  0  0
 11 12  1  0  0  0  0
 11 38  1  0  0  0  0
 11 39  1  0  0  0  0
 12 13  1  0  0  0  0
 12 40  1  0  0  0  0
 12 41  1  0  0  0  0
 13 14  1  0  0  0  0
 13 42  1  0  0  0  0
 13 43  1  0  0  0  0
 14 15  1  0  0  0  0
 14 44  1  0  0  0  0
 14 45  1  0  0  0  0
 15 16  1  0  0  0  0
 15 46  1  0  0  0  0
 16 20  1  0  0  0  0
 16 17  1  0  0  0  0
 16 47  1  0  0  0  0
 17 18  1  0  0  0  0
 17 48  1  0  0  0  0
 17 49  1  0  0  0  0
 18 19  1  0  0  0  0
 18 50  1  0  0  0  0
 18 51  1  0  0  0  0
 19 20  1  0  0  0  0
 19 52  1  0  0  0  0
 19 53  1  0  0  0  0
 20 21  1  0  0  0  0
 20 54  1  0  0  0  0
 21 55  1  0  0  0  0
 22 23  1  0  0  0  0
 23 24  2  0  0  0  0
 23 56  1  0  0  0  0
 24 25  1  0  0  0  0
 26 30  1  0  0  0  0
 26 27  1  0  0  0  0
 26 57  1  0  0  0  0
 27 28  1  0  0  0  0
 27 58  1  0  0  0  0
 27 59  1  0  0  0  0
 28 29  1  0  0  0  0
 28 60  1  0  0  0  0
 28 61  1  0  0  0  0
 29 30  1  0  0  0  0
 30 62  1  0  0  0  0
 30 63  1  0  0  0  0
M  END
> <s_m_source_file>
AV-unprocessed.smi

> <i_m_source_file_index>
148

> <i_lp_mmshare_version>
43012

> <i_f3d_flags>
0

> <s_epik_input>
W0NIMl0xT1tDSDJdW0NIMl1bQ0BIXTFbQ0BIXShbQ0gyXVtPSF0pW0NIMl1uKFtjSF1uMiljKGMyMyluW2NIXW5jM040W0NIMl1bQ0gyXVtDSDJdW0NIMl1bQ0BIXTRbQ0BASF01W0NIMl1bQ0gyXVtDSDJdW0NASF01W09IXQ==

> <s_epik_cmdline>
J2VwaWtfcHl0aG9uJywgJy1waCcsICc3LjAnLCAnLXRuJywgJzgnLCAnLW1hJywgJzIwMCcsICctbWV0YWxfYmluZGluZycsICctaW1hZScsICc8aW5maWxlLm1hZT4nLCAnLW9tYWUnLCAnPG91dGZpbGUubWFlPic=

> <r_lp_tautomer_probability>
1

> <r_epik_Ionization_Penalty>
0.00556303

> <r_epik_Ionization_Penalty_Charging>
0

> <r_epik_Ionization_Penalty_Neutral>
0.00556303

> <r_epik_State_Penalty>
0.00401767

> <r_epik_Charging_Adjusted_Penalty>
0.00401767

> <i_epik_Tot_Q>
0

> <i_epik_Tot_abs_Q>
0

> <r_epik_Metal_State_Penalty>
-0

> <b_epik_Metal_Only>
0

> <s_lp_Force_Field>
OPLS_2005

> <r_lp_Energy>
71.509

> <b_lp_Chiralities_Consistent>
1

> <s_lp_Variant>
AV-unprocessed.smi:148-10

> <Gold.Version>
5.8.1

> <Gold.Id.Protein>
6NUR|6NUR_protein|mol2

> <Gold.PLP.Fitness>
50.5682

> <Gold.PLP.PLP>
-46.4829

> <Gold.PLP.part.hbond>
-2.8763

> <Gold.PLP.part.metal>
0.0000

> <Gold.PLP.part.buried>
-4.5189

> <Gold.PLP.part.nonpolar>
-38.2718

> <Gold.PLP.part.repulsive>
0.0871

> <Gold.PLP.ligand.clash>
0.0000

> <Gold.PLP.ligand.torsion>
1.2200

> <Gold.PLP.Chemscore.Hbond>
2.0000

> <Gold.PLP.Chemscore.CHOScore>
0.0000

> <Gold.PLP.Chemscore.Metal>
0.0000

> <Gold.Chemscore.Hbonds>
donor molecule, donor type, donor heavy atom, donor atom, acceptor molecule, acceptor atom, score
      P1  H  6896  6908       L1    24  1.00
      P1  H  7997  8009       L1     7  1.00

> <Gold.PLP.Chemscore.Internal.Correction>
0.5252

> <Gold.Rescore>
     Score         DG    S(hbond)    S(metal)    S(lipo)     H(rot)  DE(clash)    DE(int)     intcor
     14.44     -17.18       1.94        0.00     117.42       3.32       0.16       2.58       ----

> <Gold.Chemscore.Fitness>
14.4397

> <Gold.Chemscore.DG>
-17.1821

> <Gold.Chemscore.ZeroCoef>
-5.4800

> <Gold.Chemscore.Hbond>
1.9354

> <Gold.Chemscore.Metal>
0.0000

> <Gold.Chemscore.Lipo>
117.4182

> <Gold.Chemscore.Internal_Hbond>
0.0000

> <Gold.Chemscore.DEClash>
0.1597

> <Gold.Chemscore.DEInternal>
2.5827

> <Gold.Chemscore.Rot>
3.3203

> <Gold.Chemscore.Internal.Correction>
   9.000000E+99

> <Gold.Chemscore.Hbonds>
donor molecule, donor type, donor heavy atom, donor atom, acceptor molecule, acceptor atom, score
      P1  H  6896  6908       L1    24  0.84
      P1  H  7997  8009       L1     7  0.82

> <Gold.Chemscore.Hbond.Weighted>
-6.4642

> <Gold.Chemscore.Metal.Weighted>
-0.0000

> <Gold.Chemscore.Lipo.Weighted>
-13.7379

> <Gold.Chemscore.Internal_Hbond.Weighted>
0.0000

> <Gold.Chemscore.DEClash.Weighted>
0.1597

> <Gold.Chemscore.DEInternal.Weighted>
2.5827

> <Gold.Chemscore.Rot.Weighted>
8.5000

> <Gold.Chemscore.Internal.Correction.Weighted>
   9.000000E+99

> <Gold.Protein.RotatedTorsions>
[ 6907 6896 6895 6894 ] final -113.97 input  -60.11 | X-H torsion
[ 7974 7965 7964 7962 ] final   73.59 input  175.53 | X-H torsion
[ 8008 7997 7996 7995 ] final  103.29 input   59.86 | X-H torsion
[ 10167 10162 10161 10158 ] final   58.61 input  -65.29 | X-H torsion
[ 10718 10713 10712 10709 ] final  177.12 input   66.30 | X-H torsion
[ 10763 10752 10751 10750 ] final    8.75 input  -60.55 | X-H torsion
[ 11005 11000 10999 10996 ] final  100.09 input  -57.11 | X-H torsion

> <Gold.Protein.ActiveResidues>
 VAL166  LYS551  ARG553  GLY616  TRP617  ASP618  TYR619  PRO620  LYS621  CYS622 
 ASP623  PHE694  ASN695  SER759  ASP760  ASP761  ALA762  ILE779  LEU786  VAL792 
 PHE793  MET794  SER795  GLU796  ALA797  LYS798  CYS799  TRP800  GLU811  SER814 

> <Gold.Protein.RotatedAtoms>
  150.7868  133.8868  159.3301 H   0  0  0  0  0  0  0  0  0  0  0  0  # atno 6907 bound_to 6896
  151.6717  135.0973  160.0208 H   0  0  0  0  0  0  0  0  0  0  0  0  # atno 6908 bound_to 6896
  152.3933  133.6672  159.6291 H   0  0  0  0  0  0  0  0  0  0  0  0  # atno 6909 bound_to 6896
  145.7389  139.2713  143.1498 H   0  0  0  0  0  0  0  0  0  0  0  0  # atno 7974 bound_to 7965
  156.1470  140.3167  155.8587 H   0  0  0  0  0  0  0  0  0  0  0  0  # atno 8008 bound_to 7997
  155.4044  140.0502  157.3052 H   0  0  0  0  0  0  0  0  0  0  0  0  # atno 8009 bound_to 7997
  154.5025  140.2134  155.9329 H   0  0  0  0  0  0  0  0  0  0  0  0  # atno 8010 bound_to 7997
  140.1854  144.4140  150.6595 H   0  0  0  0  0  0  0  0  0  0  0  0  # atno 10167 bound_to 10162
  156.9101  130.9907  151.3022 H   0  0  0  0  0  0  0  0  0  0  0  0  # atno 10718 bound_to 10713
  153.2215  135.6882  153.7994 H   0  0  0  0  0  0  0  0  0  0  0  0  # atno 10763 bound_to 10752
  153.7191  135.3270  155.3264 H   0  0  0  0  0  0  0  0  0  0  0  0  # atno 10764 bound_to 10752
  154.8272  135.4609  154.1065 H   0  0  0  0  0  0  0  0  0  0  0  0  # atno 10765 bound_to 10752
  139.8771  134.9125  156.4704 H   0  0  0  0  0  0  0  0  0  0  0  0  # atno 11005 bound_to 11000
  146.0467  140.8111  142.9802 LP  0  0  0  0  0  0  0  0  0  0  0  0  # atno 17320 bound_to 7965
  144.6875  140.2991  143.7266 LP  0  0  0  0  0  0  0  0  0  0  0  0  # atno 17321 bound_to 7965
  140.6492  143.2220  151.6117 LP  0  0  0  0  0  0  0  0  0  0  0  0  # atno 17342 bound_to 10162
  139.5278  144.3006  152.1077 LP  0  0  0  0  0  0  0  0  0  0  0  0  # atno 17343 bound_to 10162
  157.5973  130.8486  149.8748 LP  0  0  0  0  0  0  0  0  0  0  0  0  # atno 17370 bound_to 10713
  156.0540  130.3712  150.1134 LP  0  0  0  0  0  0  0  0  0  0  0  0  # atno 17371 bound_to 10713
  140.8800  133.7925  155.9456 LP  0  0  0  0  0  0  0  0  0  0  0  0  # atno 17394 bound_to 11000
  140.8864  134.2549  157.5117 LP  0  0  0  0  0  0  0  0  0  0  0  0  # atno 17395 bound_to 11000

$$$$
