AV-unprocessed.smi:342|AV-procd|sdf|2384|dock9
  -GOLD-   2262022313D 1   1.00000     0.00000
 Structure written by MMmdl.
 41 43  0  0  0  0  0  0  0  0  1 V2000
  154.4444  139.0838  158.6220 O   0  0  0  0  0  0  0  0  0  0  0  0
  153.4980  139.1088  159.6700 C   0  0  2  0  0  0  0  0  0  0  0  0
  153.6736  137.8301  160.5181 C   0  0  0  0  0  0  0  0  0  0  0  0
  153.8800  138.0490  161.9502 N   0  0  0  0  0  0  0  0  0  0  0  0
  153.9240  136.8004  162.7108 C   0  0  0  0  0  0  0  0  0  0  0  0
  154.1807  137.0479  164.2078 C   0  0  0  0  0  0  0  0  0  0  0  0
  155.3866  137.7862  164.3730 O   0  0  0  0  0  0  0  0  0  0  0  0
  155.3645  139.0321  163.6850 C   0  0  0  0  0  0  0  0  0  0  0  0
  155.1170  138.7863  162.1870 C   0  0  0  0  0  0  0  0  0  0  0  0
  152.0983  139.2412  159.0351 C   0  0  0  0  0  0  0  0  0  0  0  0
  151.8208  140.5891  158.5532 N   0  0  0  0  0  0  0  0  0  0  0  0
  151.3305  140.9761  157.3454 C   0  0  0  0  0  0  0  0  0  0  0  0
  150.9948  139.9944  156.2563 C   0  0  0  0  0  0  0  0  0  0  0  0
  152.0941  139.3874  155.8064 F   0  0  0  0  0  0  0  0  0  0  0  0
  150.1682  139.0530  156.7118 F   0  0  0  0  0  0  0  0  0  0  0  0
  150.4209  140.6085  155.2221 F   0  0  0  0  0  0  0  0  0  0  0  0
  151.1750  142.2923  157.1841 N   0  0  0  0  0  0  0  0  0  0  0  0
  151.6134  142.8053  158.3877 C   0  0  0  0  0  0  0  0  0  0  0  0
  151.6988  144.1420  158.8385 C   0  0  0  0  0  0  0  0  0  0  0  0
  152.1932  144.4303  160.1273 C   0  0  0  0  0  0  0  0  0  0  0  0
  152.6124  143.3886  160.9798 C   0  0  0  0  0  0  0  0  0  0  0  0
  152.5355  142.0502  160.5494 C   0  0  0  0  0  0  0  0  0  0  0  0
  152.0343  141.7667  159.2643 C   0  0  0  0  0  0  0  0  0  0  0  0
  154.4110  138.2322  158.2128 H   0  0  0  0  0  0  0  0  0  0  0  0
  153.6886  139.9976  160.2678 H   0  0  0  0  0  0  0  0  0  0  0  0
  152.8068  137.1807  160.3909 H   0  0  0  0  0  0  0  0  0  0  0  0
  154.5191  137.2728  160.1119 H   0  0  0  0  0  0  0  0  0  0  0  0
  152.9869  136.2553  162.6095 H   0  0  0  0  0  0  0  0  0  0  0  0
  154.7068  136.1519  162.3138 H   0  0  0  0  0  0  0  0  0  0  0  0
  153.3486  137.5923  164.6569 H   0  0  0  0  0  0  0  0  0  0  0  0
  154.2677  136.1003  164.7393 H   0  0  0  0  0  0  0  0  0  0  0  0
  154.5897  139.6754  164.1049 H   0  0  0  0  0  0  0  0  0  0  0  0
  156.3179  139.5390  163.8339 H   0  0  0  0  0  0  0  0  0  0  0  0
  155.9619  138.2366  161.7689 H   0  0  0  0  0  0  0  0  0  0  0  0
  155.0818  139.7449  161.6680 H   0  0  0  0  0  0  0  0  0  0  0  0
  152.0071  138.5588  158.1890 H   0  0  0  0  0  0  0  0  0  0  0  0
  151.3339  138.9394  159.7495 H   0  0  0  0  0  0  0  0  0  0  0  0
  151.3843  144.9471  158.1910 H   0  0  0  0  0  0  0  0  0  0  0  0
  152.2538  145.4555  160.4622 H   0  0  0  0  0  0  0  0  0  0  0  0
  152.9934  143.6179  161.9643 H   0  0  0  0  0  0  0  0  0  0  0  0
  152.8595  141.2526  161.2010 H   0  0  0  0  0  0  0  0  0  0  0  0
  1  2  1  0  0  0  0
  1 24  1  0  0  0  0
  2  3  1  0  0  0  0
  2 10  1  0  0  0  0
  2 25  1  0  0  0  0
  3  4  1  0  0  0  0
  3 26  1  0  0  0  0
  3 27  1  0  0  0  0
  4  9  1  0  0  0  0
  4  5  1  0  0  0  0
  5  6  1  0  0  0  0
  5 28  1  0  0  0  0
  5 29  1  0  0  0  0
  6  7  1  0  0  0  0
  6 30  1  0  0  0  0
  6 31  1  0  0  0  0
  7  8  1  0  0  0  0
  8  9  1  0  0  0  0
  8 32  1  0  0  0  0
  8 33  1  0  0  0  0
  9 34  1  0  0  0  0
  9 35  1  0  0  0  0
 10 11  1  0  0  0  0
 10 36  1  0  0  0  0
 10 37  1  0  0  0  0
 11 23  1  0  0  0  0
 11 12  1  0  0  0  0
 12 13  1  0  0  0  0
 12 17  2  0  0  0  0
 13 14  1  0  0  0  0
 13 15  1  0  0  0  0
 13 16  1  0  0  0  0
 17 18  1  0  0  0  0
 18 23  2  0  0  0  0
 18 19  1  0  0  0  0
 19 20  2  0  0  0  0
 19 38  1  0  0  0  0
 20 21  1  0  0  0  0
 20 39  1  0  0  0  0
 21 22  2  0  0  0  0
 21 40  1  0  0  0  0
 22 23  1  0  0  0  0
 22 41  1  0  0  0  0
M  END
> <s_m_source_file>
AV-unprocessed.smi

> <i_m_source_file_index>
342

> <i_lp_mmshare_version>
43012

> <i_f3d_flags>
0

> <s_epik_input>
W2NIXTFbY0hdW2NIXVtjSF1jKGMxMiluKGMobjIpQyhGKShGKUYpW0NIMl1bQ0BIXShbT0hdKVtDSDJdTjNbQ0gyXVtDSDJdT1tDSDJdW0NIMl0z

> <s_epik_cmdline>
J2VwaWtfcHl0aG9uJywgJy1waCcsICc3LjAnLCAnLXRuJywgJzgnLCAnLW1hJywgJzIwMCcsICctbWV0YWxfYmluZGluZycsICctaW1hZScsICc8aW5maWxlLm1hZT4nLCAnLW9tYWUnLCAnPG91dGZpbGUubWFlPic=

> <r_epik_Ionization_Penalty>
0.263195

> <r_epik_Ionization_Penalty_Charging>
0

> <r_epik_Ionization_Penalty_Neutral>
0.263195

> <r_epik_State_Penalty>
0.254683

> <r_epik_Charging_Adjusted_Penalty>
0.254683

> <i_epik_Tot_Q>
0

> <i_epik_Tot_abs_Q>
0

> <r_epik_Metal_State_Penalty>
0.254691

> <b_epik_Metal_Only>
0

> <s_lp_Force_Field>
OPLS_2005

> <r_lp_Energy>
34.5918

> <b_lp_Chiralities_Consistent>
1

> <s_lp_Variant>
AV-unprocessed.smi:342-1

> <Gold.Version>
5.8.1

> <Gold.Id.Protein>
6NUR|6NUR_protein|mol2

> <Gold.PLP.Fitness>
47.6785

> <Gold.PLP.PLP>
-46.8195

> <Gold.PLP.part.hbond>
-1.0000

> <Gold.PLP.part.metal>
0.0000

> <Gold.PLP.part.buried>
-5.2072

> <Gold.PLP.part.nonpolar>
-40.5870

> <Gold.PLP.part.repulsive>
0.1131

> <Gold.PLP.ligand.clash>
0.0000

> <Gold.PLP.ligand.torsion>
1.1098

> <Gold.PLP.Chemscore.Hbond>
1.0000

> <Gold.PLP.Chemscore.CHOScore>
0.0000

> <Gold.PLP.Chemscore.Metal>
0.0000

> <Gold.Chemscore.Hbonds>
donor molecule, donor type, donor heavy atom, donor atom, acceptor molecule, acceptor atom, score
      P1  H  7997  8008       L1     1  0.95

> <Gold.PLP.Chemscore.Internal.Correction>
0.0786

> <Gold.Rescore>
     Score         DG    S(hbond)    S(metal)    S(lipo)     H(rot)  DE(clash)    DE(int)     intcor
     15.60     -16.62       0.98        0.00     116.26       2.24       0.03       0.99       ----

> <Gold.Chemscore.Fitness>
15.6023

> <Gold.Chemscore.DG>
-16.6171

> <Gold.Chemscore.ZeroCoef>
-5.4800

> <Gold.Chemscore.Hbond>
0.9805

> <Gold.Chemscore.Metal>
0.0000

> <Gold.Chemscore.Lipo>
116.2581

> <Gold.Chemscore.Internal_Hbond>
0.0000

> <Gold.Chemscore.DEClash>
0.0256

> <Gold.Chemscore.DEInternal>
0.9892

> <Gold.Chemscore.Rot>
2.2421

> <Gold.Chemscore.Internal.Correction>
   9.000000E+99

> <Gold.Chemscore.Hbonds>
donor molecule, donor type, donor heavy atom, donor atom, acceptor molecule, acceptor atom, score
      P1  H  7997  8008       L1     1  0.22

> <Gold.Chemscore.Hbond.Weighted>
-3.2748

> <Gold.Chemscore.Metal.Weighted>
-0.0000

> <Gold.Chemscore.Lipo.Weighted>
-13.6022

> <Gold.Chemscore.Internal_Hbond.Weighted>
0.0000

> <Gold.Chemscore.DEClash.Weighted>
0.0256

> <Gold.Chemscore.DEInternal.Weighted>
0.9892

> <Gold.Chemscore.Rot.Weighted>
5.7399

> <Gold.Chemscore.Internal.Correction.Weighted>
   9.000000E+99

> <Gold.Protein.RotatedTorsions>
[ 6907 6896 6895 6894 ] final  113.66 input  -60.11 | X-H torsion
[ 7974 7965 7964 7962 ] final  148.00 input  175.53 | X-H torsion
[ 8008 7997 7996 7995 ] final -110.61 input   59.86 | X-H torsion
[ 10167 10162 10161 10158 ] final   25.57 input  -65.29 | X-H torsion
[ 10718 10713 10712 10709 ] final -126.29 input   66.30 | X-H torsion
[ 10763 10752 10751 10750 ] final -151.14 input  -60.55 | X-H torsion
[ 11005 11000 10999 10996 ] final -173.03 input  -57.11 | X-H torsion

> <Gold.Protein.ActiveResidues>
 VAL166  LYS551  ARG553  GLY616  TRP617  ASP618  TYR619  PRO620  LYS621  CYS622 
 ASP623  PHE694  ASN695  SER759  ASP760  ASP761  ALA762  ILE779  LEU786  VAL792 
 PHE793  MET794  SER795  GLU796  ALA797  LYS798  CYS799  TRP800  GLU811  SER814 

> <Gold.Protein.RotatedAtoms>
  152.4848  133.8344  159.7119 H   0  0  0  0  0  0  0  0  0  0  0  0  # atno 6907 bound_to 6896
  150.8925  133.7215  159.2907 H   0  0  0  0  0  0  0  0  0  0  0  0  # atno 6908 bound_to 6896
  151.4683  135.1047  159.9796 H   0  0  0  0  0  0  0  0  0  0  0  0  # atno 6909 bound_to 6896
  144.8548  139.6099  143.5957 H   0  0  0  0  0  0  0  0  0  0  0  0  # atno 7974 bound_to 7965
  154.9771  140.0397  157.2261 H   0  0  0  0  0  0  0  0  0  0  0  0  # atno 8008 bound_to 7997
  154.7748  140.2808  155.6087 H   0  0  0  0  0  0  0  0  0  0  0  0  # atno 8009 bound_to 7997
  156.2927  140.2603  156.2559 H   0  0  0  0  0  0  0  0  0  0  0  0  # atno 8010 bound_to 7997
  140.5095  144.0184  150.6366 H   0  0  0  0  0  0  0  0  0  0  0  0  # atno 10167 bound_to 10162
  156.1752  130.6694  151.0232 H   0  0  0  0  0  0  0  0  0  0  0  0  # atno 10718 bound_to 10713
  154.8076  135.3267  154.7389 H   0  0  0  0  0  0  0  0  0  0  0  0  # atno 10763 bound_to 10752
  153.8045  135.6901  153.4855 H   0  0  0  0  0  0  0  0  0  0  0  0  # atno 10764 bound_to 10752
  153.1832  135.4578  155.0001 H   0  0  0  0  0  0  0  0  0  0  0  0  # atno 10765 bound_to 10752
  140.4904  134.5990  157.4952 H   0  0  0  0  0  0  0  0  0  0  0  0  # atno 11005 bound_to 11000
  146.2814  139.6887  142.9226 LP  0  0  0  0  0  0  0  0  0  0  0  0  # atno 17320 bound_to 7965
  145.4429  141.0423  143.2847 LP  0  0  0  0  0  0  0  0  0  0  0  0  # atno 17321 bound_to 7965
  140.3503  143.2967  152.0494 LP  0  0  0  0  0  0  0  0  0  0  0  0  # atno 17342 bound_to 10162
  139.4892  144.6379  151.6938 LP  0  0  0  0  0  0  0  0  0  0  0  0  # atno 17343 bound_to 10162
  157.6830  131.0833  150.7318 LP  0  0  0  0  0  0  0  0  0  0  0  0  # atno 17370 bound_to 10713
  156.7376  130.4729  149.5485 LP  0  0  0  0  0  0  0  0  0  0  0  0  # atno 17371 bound_to 10713
  139.9773  134.7195  155.9926 LP  0  0  0  0  0  0  0  0  0  0  0  0  # atno 17394 bound_to 11000
  141.1487  133.6552  156.3946 LP  0  0  0  0  0  0  0  0  0  0  0  0  # atno 17395 bound_to 11000

$$$$
