AV-unprocessed.smi:466|AV-procd|sdf|2642|dock4
  -GOLD-   2262023 53D 1   1.00000     0.00000
 Structure written by MMmdl.
 44 46  0  0  0  0  0  0  0  0  2 V2000
  153.9054  141.2533  161.4397 C   0  0  0  0  0  0  0  0  0  0  0  0
  152.9699  141.1796  160.3743 O   0  0  0  0  0  0  0  0  0  0  0  0
  152.4194  142.3546  159.9035 C   0  0  0  0  0  0  0  0  0  0  0  0
  152.6992  143.6309  160.4538 C   0  0  0  0  0  0  0  0  0  0  0  0
  152.1018  144.7857  159.9167 C   0  0  0  0  0  0  0  0  0  0  0  0
  151.2192  144.6797  158.8280 C   0  0  0  0  0  0  0  0  0  0  0  0
  150.9333  143.4183  158.2748 C   0  0  0  0  0  0  0  0  0  0  0  0
  151.5323  142.2498  158.8077 C   0  0  0  0  0  0  0  0  0  0  0  0
  151.3030  140.9821  158.3208 O   0  0  0  0  0  0  0  0  0  0  0  0
  150.3063  140.7921  157.3274 C   0  0  0  0  0  0  0  0  0  0  0  0
  150.9927  140.7304  155.9546 C   0  0  0  0  0  0  0  0  0  0  0  0
  150.2003  139.9684  154.9749 N   0  0  0  0  0  0  0  0  0  0  0  0
  150.4219  138.7392  154.4214 C   0  0  0  0  0  0  0  0  0  0  0  0
  151.5698  137.8175  154.7036 C   0  0  0  0  0  0  0  0  0  0  0  0
  151.1404  136.5531  155.4635 C   0  0  0  0  0  0  0  0  0  0  0  0
  152.2589  135.9835  156.1086 O   0  0  0  0  0  0  0  0  0  0  0  0
  149.3595  138.4702  153.6086 N   0  3  0  0  0  0  0  0  0  0  0  0
  148.4604  139.5361  153.6305 C   0  0  0  0  0  0  0  0  0  0  0  0
  147.2469  139.7168  152.9739 C   0  0  0  0  0  0  0  0  0  0  0  0
  146.5625  140.9232  153.2297 C   0  0  0  0  0  0  0  0  0  0  0  0
  147.0895  141.8938  154.1056 C   0  0  0  0  0  0  0  0  0  0  0  0
  148.3237  141.7011  154.7603 C   0  0  0  0  0  0  0  0  0  0  0  0
  148.9935  140.5039  154.5050 C   0  0  0  0  0  0  0  0  0  0  0  0
  154.2395  140.2471  161.6927 H   0  0  0  0  0  0  0  0  0  0  0  0
  153.4573  141.6867  162.3347 H   0  0  0  0  0  0  0  0  0  0  0  0
  154.7861  141.8321  161.1583 H   0  0  0  0  0  0  0  0  0  0  0  0
  153.3710  143.7511  161.2898 H   0  0  0  0  0  0  0  0  0  0  0  0
  152.3211  145.7540  160.3417 H   0  0  0  0  0  0  0  0  0  0  0  0
  150.7600  145.5670  158.4169 H   0  0  0  0  0  0  0  0  0  0  0  0
  150.2483  143.3723  157.4420 H   0  0  0  0  0  0  0  0  0  0  0  0
  149.7621  139.8649  157.5113 H   0  0  0  0  0  0  0  0  0  0  0  0
  149.5903  141.6158  157.3408 H   0  0  0  0  0  0  0  0  0  0  0  0
  151.1760  141.7323  155.5658 H   0  0  0  0  0  0  0  0  0  0  0  0
  151.9711  140.2595  156.0427 H   0  0  0  0  0  0  0  0  0  0  0  0
  152.0434  137.5295  153.7656 H   0  0  0  0  0  0  0  0  0  0  0  0
  152.3194  138.3646  155.2764 H   0  0  0  0  0  0  0  0  0  0  0  0
  150.3826  136.7835  156.2130 H   0  0  0  0  0  0  0  0  0  0  0  0
  150.7147  135.8186  154.7791 H   0  0  0  0  0  0  0  0  0  0  0  0
  152.2804  136.2877  157.0034 H   0  0  0  0  0  0  0  0  0  0  0  0
  146.8394  138.9723  152.3057 H   0  0  0  0  0  0  0  0  0  0  0  0
  145.6133  141.1061  152.7471 H   0  0  0  0  0  0  0  0  0  0  0  0
  146.5354  142.8041  154.2823 H   0  0  0  0  0  0  0  0  0  0  0  0
  148.7112  142.4481  155.4369 H   0  0  0  0  0  0  0  0  0  0  0  0
  149.2550  137.6118  153.0833 H   0  0  0  0  0  0  0  0  0  0  0  0
  1  2  1  0  0  0  0
  1 24  1  0  0  0  0
  1 25  1  0  0  0  0
  1 26  1  0  0  0  0
  2  3  1  0  0  0  0
  3  8  1  0  0  0  0
  3  4  2  0  0  0  0
  4  5  1  0  0  0  0
  4 27  1  0  0  0  0
  5  6  2  0  0  0  0
  5 28  1  0  0  0  0
  6  7  1  0  0  0  0
  6 29  1  0  0  0  0
  7  8  2  0  0  0  0
  7 30  1  0  0  0  0
  8  9  1  0  0  0  0
  9 10  1  0  0  0  0
 10 11  1  0  0  0  0
 10 31  1  0  0  0  0
 10 32  1  0  0  0  0
 11 12  1  0  0  0  0
 11 33  1  0  0  0  0
 11 34  1  0  0  0  0
 12 23  1  0  0  0  0
 12 13  1  0  0  0  0
 13 14  1  0  0  0  0
 13 17  2  0  0  0  0
 14 15  1  0  0  0  0
 14 35  1  0  0  0  0
 14 36  1  0  0  0  0
 15 16  1  0  0  0  0
 15 37  1  0  0  0  0
 15 38  1  0  0  0  0
 16 39  1  0  0  0  0
 17 18  1  0  0  0  0
 17 44  1  0  0  0  0
 18 23  2  0  0  0  0
 18 19  1  0  0  0  0
 19 20  2  0  0  0  0
 19 40  1  0  0  0  0
 20 21  1  0  0  0  0
 20 41  1  0  0  0  0
 21 22  2  0  0  0  0
 21 42  1  0  0  0  0
 22 23  1  0  0  0  0
 22 43  1  0  0  0  0
M  CHG  1  17   1
M  END
> <s_m_source_file>
AV-unprocessed.smi

> <i_m_source_file_index>
466

> <i_lp_mmshare_version>
43012

> <i_f3d_flags>
0

> <s_epik_input>
W0NIM11PYzFbY0hdW2NIXVtjSF1bY0hdYzFPW0NIMl1bQ0gyXW4oYyhuMilbQ0gyXVtDSDJdW09IXSljKGMyMylbY0hdW2NIXVtjSF1bY0hdMw==

> <s_epik_cmdline>
J2VwaWtfcHl0aG9uJywgJy1waCcsICc3LjAnLCAnLXRuJywgJzgnLCAnLW1hJywgJzIwMCcsICctbWV0YWxfYmluZGluZycsICctaW1hZScsICc8aW5maWxlLm1hZT4nLCAnLW9tYWUnLCAnPG91dGZpbGUubWFlPic=

> <r_lp_tautomer_probability>
1

> <r_epik_Ionization_Penalty>
0.720978

> <r_epik_Ionization_Penalty_Charging>
0.720978

> <r_epik_Ionization_Penalty_Neutral>
5.89567e-08

> <r_epik_State_Penalty>
0.7454

> <r_epik_Charging_Adjusted_Penalty>
1.46638

> <i_epik_Tot_Q>
1

> <i_epik_Tot_abs_Q>
1

> <r_epik_Metal_State_Penalty>
4.64029

> <b_epik_Metal_Only>
0

> <s_lp_Force_Field>
OPLS_2005

> <r_lp_Energy>
24.0837

> <b_lp_Chiralities_Consistent>
1

> <s_lp_Variant>
AV-unprocessed.smi:466-2

> <Gold.Version>
5.8.1

> <Gold.Id.Protein>
6NUR|6NUR_protein|mol2

> <Gold.PLP.Fitness>
59.9206

> <Gold.PLP.PLP>
-52.1246

> <Gold.PLP.part.hbond>
-3.0000

> <Gold.PLP.part.metal>
0.0000

> <Gold.PLP.part.buried>
0.4317

> <Gold.PLP.part.nonpolar>
-49.7703

> <Gold.PLP.part.repulsive>
0.0630

> <Gold.PLP.ligand.clash>
0.0000

> <Gold.PLP.ligand.torsion>
0.7237

> <Gold.PLP.Chemscore.Hbond>
3.0000

> <Gold.PLP.Chemscore.CHOScore>
0.0000

> <Gold.PLP.Chemscore.Metal>
0.0000

> <Gold.Chemscore.Hbonds>
donor molecule, donor type, donor heavy atom, donor atom, acceptor molecule, acceptor atom, score
      L1  H    17    44       P1  7948  2.00
      P1  H 10752 10764       L1    16  0.94

> <Gold.PLP.Chemscore.Internal.Correction>
0.2434

> <Gold.Rescore>
     Score         DG    S(hbond)    S(metal)    S(lipo)     H(rot)  DE(clash)    DE(int)     intcor
     19.16     -22.11       1.96        0.00     144.87       2.68       2.24       0.72       ----

> <Gold.Chemscore.Fitness>
19.1574

> <Gold.Chemscore.DG>
-22.1095

> <Gold.Chemscore.ZeroCoef>
-5.4800

> <Gold.Chemscore.Hbond>
1.9614

> <Gold.Chemscore.Metal>
0.0000

> <Gold.Chemscore.Lipo>
144.8675

> <Gold.Chemscore.Internal_Hbond>
0.0000

> <Gold.Chemscore.DEClash>
2.2350

> <Gold.Chemscore.DEInternal>
0.7171

> <Gold.Chemscore.Rot>
2.6840

> <Gold.Chemscore.Internal.Correction>
   9.000000E+99

> <Gold.Chemscore.Hbonds>
donor molecule, donor type, donor heavy atom, donor atom, acceptor molecule, acceptor atom, score
      L1  H    17    44       P1  7948  0.98
      P1  H 10752 10764       L1    16  0.85

> <Gold.Chemscore.Hbond.Weighted>
-6.5510

> <Gold.Chemscore.Metal.Weighted>
-0.0000

> <Gold.Chemscore.Lipo.Weighted>
-16.9495

> <Gold.Chemscore.Internal_Hbond.Weighted>
0.0000

> <Gold.Chemscore.DEClash.Weighted>
2.2350

> <Gold.Chemscore.DEInternal.Weighted>
0.7171

> <Gold.Chemscore.Rot.Weighted>
6.8710

> <Gold.Chemscore.Internal.Correction.Weighted>
   9.000000E+99

> <Gold.Protein.RotatedTorsions>
[ 6907 6896 6895 6894 ] final   25.72 input  -60.11 | X-H torsion
[ 7974 7965 7964 7962 ] final   41.16 input  175.53 | X-H torsion
[ 8008 7997 7996 7995 ] final  -41.55 input   59.86 | X-H torsion
[ 10167 10162 10161 10158 ] final  -97.99 input  -65.29 | X-H torsion
[ 10718 10713 10712 10709 ] final   58.18 input   66.30 | X-H torsion
[ 10763 10752 10751 10750 ] final  -12.27 input  -60.55 | X-H torsion
[ 11005 11000 10999 10996 ] final  -45.15 input  -57.11 | X-H torsion

> <Gold.Protein.ActiveResidues>
 VAL166  LYS551  ARG553  GLY616  TRP617  ASP618  TYR619  PRO620  LYS621  CYS622 
 ASP623  PHE694  ASN695  SER759  ASP760  ASP761  ALA762  ILE779  LEU786  VAL792 
 PHE793  MET794  SER795  GLU796  ALA797  LYS798  CYS799  TRP800  GLU811  SER814 

> <Gold.Protein.RotatedAtoms>
  151.9768  135.0049  160.0555 H   0  0  0  0  0  0  0  0  0  0  0  0  # atno 6907 bound_to 6896
  152.1733  133.4653  159.4928 H   0  0  0  0  0  0  0  0  0  0  0  0  # atno 6908 bound_to 6896
  150.6905  134.1843  159.4303 H   0  0  0  0  0  0  0  0  0  0  0  0  # atno 6909 bound_to 6896
  146.0846  139.5448  142.9515 H   0  0  0  0  0  0  0  0  0  0  0  0  # atno 7974 bound_to 7965
  154.4003  140.1496  156.3209 H   0  0  0  0  0  0  0  0  0  0  0  0  # atno 8008 bound_to 7997
  155.8530  140.3457  155.5684 H   0  0  0  0  0  0  0  0  0  0  0  0  # atno 8009 bound_to 7997
  155.7963  140.0864  157.1972 H   0  0  0  0  0  0  0  0  0  0  0  0  # atno 8010 bound_to 7997
  140.2776  143.3303  152.0473 H   0  0  0  0  0  0  0  0  0  0  0  0  # atno 10167 bound_to 10162
  157.5575  130.8811  149.9059 H   0  0  0  0  0  0  0  0  0  0  0  0  # atno 10718 bound_to 10713
  153.4960  135.7017  153.5858 H   0  0  0  0  0  0  0  0  0  0  0  0  # atno 10763 bound_to 10752
  153.4010  135.3872  155.1987 H   0  0  0  0  0  0  0  0  0  0  0  0  # atno 10764 bound_to 10752
  154.8714  135.3881  154.4425 H   0  0  0  0  0  0  0  0  0  0  0  0  # atno 10765 bound_to 10752
  141.0497  133.6747  156.2973 H   0  0  0  0  0  0  0  0  0  0  0  0  # atno 11005 bound_to 11000
  145.6153  141.0332  143.1944 LP  0  0  0  0  0  0  0  0  0  0  0  0  # atno 17320 bound_to 7965
  144.7317  139.7706  143.7344 LP  0  0  0  0  0  0  0  0  0  0  0  0  # atno 17321 bound_to 7965
  139.4971  144.6614  151.6457 LP  0  0  0  0  0  0  0  0  0  0  0  0  # atno 17342 bound_to 10162
  140.5838  143.9899  150.6284 LP  0  0  0  0  0  0  0  0  0  0  0  0  # atno 17343 bound_to 10162
  156.0632  130.3696  150.0935 LP  0  0  0  0  0  0  0  0  0  0  0  0  # atno 17370 bound_to 10713
  156.9103  130.9649  151.3564 LP  0  0  0  0  0  0  0  0  0  0  0  0  # atno 17371 bound_to 10713
  140.6079  134.5488  157.5528 LP  0  0  0  0  0  0  0  0  0  0  0  0  # atno 17394 bound_to 11000
  139.9340  134.7910  156.0852 LP  0  0  0  0  0  0  0  0  0  0  0  0  # atno 17395 bound_to 11000

$$$$
