AV-unprocessed.smi:2563|AV-procd|sdf|10057|dock7
  -GOLD-   2272014 93D 1   1.00000     0.00000
 Structure written by MMmdl.
 35 36  0  0  0  0  0  0  0  0  2 V2000
  149.6791  142.1462  157.8795 C   0  0  0  0  0  0  0  0  0  0  0  0
  150.7654  142.0083  156.8049 C   0  0  0  0  0  0  0  0  0  0  0  0
  151.6758  140.8956  157.0789 N   0  0  0  0  0  0  0  0  0  0  0  0
  151.7017  139.7701  156.1466 C   0  0  0  0  0  0  0  0  0  0  0  0
  150.5335  139.8119  155.1457 C   0  0  1  0  0  0  0  0  0  0  0  0
  150.5144  138.5628  154.2429 C   0  0  0  0  0  0  0  0  0  0  0  0
  149.3364  138.5929  153.3537 N   0  3  0  0  0  0  0  0  0  0  0  0
  148.0826  138.7431  154.1174 C   0  0  0  0  0  0  0  0  0  0  0  0
  148.1697  139.9737  155.0352 C   0  0  0  0  0  0  0  0  0  0  0  0
  149.3106  139.8547  155.8779 O   0  0  0  0  0  0  0  0  0  0  0  0
  152.4194  140.8560  158.2840 C   0  0  0  0  0  0  0  0  0  0  0  0
  152.3666  141.9081  159.2315 C   0  0  0  0  0  0  0  0  0  0  0  0
  153.1372  141.7884  160.4006 C   0  0  0  0  0  0  0  0  0  0  0  0
  153.9106  140.6251  160.5491 C   0  0  0  0  0  0  0  0  0  0  0  0
  153.9287  139.6447  159.6213 N   0  0  0  0  0  0  0  0  0  0  0  0
  153.1941  139.7629  158.5105 N   0  0  0  0  0  0  0  0  0  0  0  0
  149.0047  142.9690  157.6421 H   0  0  0  0  0  0  0  0  0  0  0  0
  150.1131  142.3471  158.8592 H   0  0  0  0  0  0  0  0  0  0  0  0
  149.0804  141.2385  157.9580 H   0  0  0  0  0  0  0  0  0  0  0  0
  150.2883  141.8375  155.8396 H   0  0  0  0  0  0  0  0  0  0  0  0
  151.3134  142.9445  156.6949 H   0  0  0  0  0  0  0  0  0  0  0  0
  152.6576  139.7447  155.6235 H   0  0  0  0  0  0  0  0  0  0  0  0
  151.6614  138.8368  156.7098 H   0  0  0  0  0  0  0  0  0  0  0  0
  150.6174  140.7047  154.5233 H   0  0  0  0  0  0  0  0  0  0  0  0
  151.4182  138.5138  153.6351 H   0  0  0  0  0  0  0  0  0  0  0  0
  150.4833  137.6552  154.8473 H   0  0  0  0  0  0  0  0  0  0  0  0
  149.4265  139.3781  152.7247 H   0  0  0  0  0  0  0  0  0  0  0  0
  147.2455  138.8371  153.4257 H   0  0  0  0  0  0  0  0  0  0  0  0
  147.9130  137.8428  154.7093 H   0  0  0  0  0  0  0  0  0  0  0  0
  148.2272  140.8945  154.4524 H   0  0  0  0  0  0  0  0  0  0  0  0
  147.2764  140.0449  155.6558 H   0  0  0  0  0  0  0  0  0  0  0  0
  151.7565  142.7870  159.0931 H   0  0  0  0  0  0  0  0  0  0  0  0
  153.1350  142.5591  161.1569 H   0  0  0  0  0  0  0  0  0  0  0  0
  154.5232  140.4762  161.4259 H   0  0  0  0  0  0  0  0  0  0  0  0
  149.3004  137.7401  152.8133 H   0  0  0  0  0  0  0  0  0  0  0  0
  1  2  1  0  0  0  0
  1 17  1  0  0  0  0
  1 18  1  0  0  0  0
  1 19  1  0  0  0  0
  2  3  1  0  0  0  0
  2 20  1  0  0  0  0
  2 21  1  0  0  0  0
  3  4  1  0  0  0  0
  3 11  1  0  0  0  0
  4  5  1  0  0  0  0
  4 22  1  0  0  0  0
  4 23  1  0  0  0  0
  5 10  1  0  0  0  0
  5  6  1  0  0  0  0
  5 24  1  0  0  0  0
  6  7  1  0  0  0  0
  6 25  1  0  0  0  0
  6 26  1  0  0  0  0
  7  8  1  0  0  0  0
  7 27  1  0  0  0  0
  7 35  1  0  0  0  0
  8  9  1  0  0  0  0
  8 28  1  0  0  0  0
  8 29  1  0  0  0  0
  9 10  1  0  0  0  0
  9 30  1  0  0  0  0
  9 31  1  0  0  0  0
 11 16  1  0  0  0  0
 11 12  2  0  0  0  0
 12 13  1  0  0  0  0
 12 32  1  0  0  0  0
 13 14  2  0  0  0  0
 13 33  1  0  0  0  0
 14 15  1  0  0  0  0
 14 34  1  0  0  0  0
 15 16  2  0  0  0  0
M  CHG  1   7   1
M  END
> <s_m_source_file>
AV-unprocessed.smi

> <i_m_source_file_index>
2563

> <i_lp_mmshare_version>
43012

> <i_f3d_flags>
0

> <s_epik_input>
bjFuW2NIXVtjSF1bY0hdYzFOKFtDSDJdW0NIM10pW0NIMl1bQ0BASF0yW0NIMl1bTkhdW0NIMl1bQ0gyXU8y

> <s_epik_cmdline>
J2VwaWtfcHl0aG9uJywgJy1waCcsICc3LjAnLCAnLXRuJywgJzgnLCAnLW1hJywgJzIwMCcsICctbWV0YWxfYmluZGluZycsICctaW1hZScsICc8aW5maWxlLm1hZT4nLCAnLW9tYWUnLCAnPG91dGZpbGUubWFlPic=

> <r_lp_tautomer_probability>
1

> <r_epik_Ionization_Penalty>
0.0472862

> <r_epik_Ionization_Penalty_Charging>
0.0127794

> <r_epik_Ionization_Penalty_Neutral>
0.0345068

> <r_epik_State_Penalty>
0.0614045

> <r_epik_Charging_Adjusted_Penalty>
0.0741839

> <i_epik_Tot_Q>
1

> <i_epik_Tot_abs_Q>
1

> <r_epik_Metal_State_Penalty>
0.0547208

> <b_epik_Metal_Only>
0

> <s_lp_Force_Field>
OPLS_2005

> <r_lp_Energy>
26.038

> <b_lp_Chiralities_Consistent>
1

> <s_lp_Variant>
AV-unprocessed.smi:2563-2

> <Gold.Version>
5.8.1

> <Gold.Id.Protein>
6NUR|6NUR_protein|mol2

> <Gold.PLP.Fitness>
41.7608

> <Gold.PLP.PLP>
-30.2241

> <Gold.PLP.part.hbond>
-3.1499

> <Gold.PLP.part.metal>
0.0000

> <Gold.PLP.part.buried>
-3.7342

> <Gold.PLP.part.nonpolar>
-22.8164

> <Gold.PLP.part.repulsive>
0.1028

> <Gold.PLP.ligand.clash>
0.0000

> <Gold.PLP.ligand.torsion>
0.2014

> <Gold.PLP.Chemscore.Hbond>
3.9600

> <Gold.PLP.Chemscore.CHOScore>
0.0000

> <Gold.PLP.Chemscore.Metal>
0.0000

> <Gold.Chemscore.Hbonds>
donor molecule, donor type, donor heavy atom, donor atom, acceptor molecule, acceptor atom, score
      L1  H     7    27       P1  7957  1.00
      L1  H     7    35       P1  7948  2.00
      P1  H  7997  8010       L1    16  0.68

> <Gold.PLP.Chemscore.Internal.Correction>
0.0595

> <Gold.Rescore>
     Score         DG    S(hbond)    S(metal)    S(lipo)     H(rot)  DE(clash)    DE(int)     intcor
     15.22     -16.85       1.95        0.00      72.15       1.40       0.02       1.61       ----

> <Gold.Chemscore.Fitness>
15.2238

> <Gold.Chemscore.DG>
-16.8531

> <Gold.Chemscore.ZeroCoef>
-5.4800

> <Gold.Chemscore.Hbond>
1.9533

> <Gold.Chemscore.Metal>
0.0000

> <Gold.Chemscore.Lipo>
72.1498

> <Gold.Chemscore.Internal_Hbond>
0.0000

> <Gold.Chemscore.DEClash>
0.0176

> <Gold.Chemscore.DEInternal>
1.6116

> <Gold.Chemscore.Rot>
1.4033

> <Gold.Chemscore.Internal.Correction>
   9.000000E+99

> <Gold.Chemscore.Hbonds>
donor molecule, donor type, donor heavy atom, donor atom, acceptor molecule, acceptor atom, score
      L1  H     7    27       P1  7957  0.95
      L1  H     7    35       P1  7948  0.94
      P1  H  7997  8010       L1    16  0.06

> <Gold.Chemscore.Hbond.Weighted>
-6.5240

> <Gold.Chemscore.Metal.Weighted>
-0.0000

> <Gold.Chemscore.Lipo.Weighted>
-8.4415

> <Gold.Chemscore.Internal_Hbond.Weighted>
0.0000

> <Gold.Chemscore.DEClash.Weighted>
0.0176

> <Gold.Chemscore.DEInternal.Weighted>
1.6116

> <Gold.Chemscore.Rot.Weighted>
3.5924

> <Gold.Chemscore.Internal.Correction.Weighted>
   9.000000E+99

> <Gold.Protein.RotatedTorsions>
[ 6907 6896 6895 6894 ] final  -24.64 input  -60.11 | X-H torsion
[ 7974 7965 7964 7962 ] final  102.12 input  175.53 | X-H torsion
[ 8008 7997 7996 7995 ] final   45.53 input   59.86 | X-H torsion
[ 10167 10162 10161 10158 ] final  165.47 input  -65.29 | X-H torsion
[ 10718 10713 10712 10709 ] final  -59.49 input   66.30 | X-H torsion
[ 10763 10752 10751 10750 ] final  -83.07 input  -60.55 | X-H torsion
[ 11005 11000 10999 10996 ] final   16.20 input  -57.11 | X-H torsion

> <Gold.Protein.ActiveResidues>
 VAL166  LYS551  ARG553  GLY616  TRP617  ASP618  TYR619  PRO620  LYS621  CYS622 
 ASP623  PHE694  ASN695  SER759  ASP760  ASP761  ALA762  ILE779  LEU786  VAL792 
 PHE793  MET794  SER795  GLU796  ALA797  LYS798  CYS799  TRP800  GLU811  SER814 

> <Gold.Protein.RotatedAtoms>
  151.1865  135.0384  159.8814 H   0  0  0  0  0  0  0  0  0  0  0  0  # atno 6907 bound_to 6896
  152.5442  134.1003  159.8325 H   0  0  0  0  0  0  0  0  0  0  0  0  # atno 6908 bound_to 6896
  151.1127  133.5114  159.2637 H   0  0  0  0  0  0  0  0  0  0  0  0  # atno 6909 bound_to 6896
  145.3633  139.2413  143.3495 H   0  0  0  0  0  0  0  0  0  0  0  0  # atno 7974 bound_to 7965
  155.3373  140.3406  155.4239 H   0  0  0  0  0  0  0  0  0  0  0  0  # atno 8008 bound_to 7997
  156.1831  140.1671  156.8273 H   0  0  0  0  0  0  0  0  0  0  0  0  # atno 8009 bound_to 7997
  154.5355  140.0736  156.8404 H   0  0  0  0  0  0  0  0  0  0  0  0  # atno 8010 bound_to 7997
  139.4906  144.4128  151.9279 H   0  0  0  0  0  0  0  0  0  0  0  0  # atno 10167 bound_to 10162
  156.1058  130.4180  150.0723 H   0  0  0  0  0  0  0  0  0  0  0  0  # atno 10718 bound_to 10713
  154.5833  135.5569  153.7206 H   0  0  0  0  0  0  0  0  0  0  0  0  # atno 10763 bound_to 10752
  153.0089  135.6325  154.1952 H   0  0  0  0  0  0  0  0  0  0  0  0  # atno 10764 bound_to 10752
  154.1893  135.2883  155.3007 H   0  0  0  0  0  0  0  0  0  0  0  0  # atno 10765 bound_to 10752
  140.4497  134.1236  155.7701 H   0  0  0  0  0  0  0  0  0  0  0  0  # atno 11005 bound_to 11000
  146.2918  140.4271  142.8737 LP  0  0  0  0  0  0  0  0  0  0  0  0  # atno 17320 bound_to 7965
  144.8630  140.7167  143.6095 LP  0  0  0  0  0  0  0  0  0  0  0  0  # atno 17321 bound_to 7965
  140.3570  144.3019  150.5939 LP  0  0  0  0  0  0  0  0  0  0  0  0  # atno 17342 bound_to 10162
  140.5436  143.2219  151.8045 LP  0  0  0  0  0  0  0  0  0  0  0  0  # atno 17343 bound_to 10162
  156.8699  130.9520  151.3610 LP  0  0  0  0  0  0  0  0  0  0  0  0  # atno 17370 bound_to 10713
  157.6234  130.8673  149.9147 LP  0  0  0  0  0  0  0  0  0  0  0  0  # atno 17371 bound_to 10713
  141.1669  133.8685  157.1687 LP  0  0  0  0  0  0  0  0  0  0  0  0  # atno 17394 bound_to 11000
  140.0015  135.0026  157.0199 LP  0  0  0  0  0  0  0  0  0  0  0  0  # atno 17395 bound_to 11000

$$$$
