AV-unprocessed.smi:2801|AV-procd|sdf|10797|dock6
  -GOLD-   2272015233D 1   1.00000     0.00000
 Structure written by MMmdl.
 32 32  0  0  0  0  0  0  0  0  3 V2000
  153.1207  141.1088  160.2769 C   0  0  0  0  0  0  0  0  0  0  0  0
  152.1814  142.2953  160.5034 C   0  0  0  0  0  0  0  0  0  0  0  0
  151.1833  142.2819  159.4900 O   0  0  0  0  0  0  0  0  0  0  0  0
  151.6594  142.4686  158.1590 C   0  0  2  0  0  0  0  0  0  0  0  0
  151.6009  143.9750  157.8429 C   0  0  0  0  0  0  0  0  0  0  0  0
  152.3015  144.8328  158.9039 C   0  0  0  0  0  0  0  0  0  0  0  0
  150.8001  141.6602  157.1731 C   0  0  0  0  0  0  0  0  0  0  0  0
  149.5946  141.8931  157.0861 O   0  0  0  0  0  0  0  0  0  0  0  0
  151.4522  140.7084  156.4806 N   0  0  0  0  0  0  0  0  0  0  0  0
  150.9606  139.7935  155.5066 C   0  0  0  0  0  0  0  0  0  0  0  0
  149.7604  139.9908  154.7761 C   0  0  0  0  0  0  0  0  0  0  0  0
  149.3653  139.0342  153.8195 C   0  0  0  0  0  0  0  0  0  0  0  0
  150.1309  137.9456  153.5972 N   0  3  0  0  0  0  0  0  0  0  0  0
  151.2860  137.7201  154.2565 C   0  0  0  0  0  0  0  0  0  0  0  0
  151.7347  138.6389  155.2268 C   0  0  0  0  0  0  0  0  0  0  0  0
  152.9104  138.3936  155.8797 O   0  5  0  0  0  0  0  0  0  0  0  0
  153.9031  141.0806  161.0352 H   0  0  0  0  0  0  0  0  0  0  0  0
  153.6022  141.1728  159.3007 H   0  0  0  0  0  0  0  0  0  0  0  0
  152.5765  140.1651  160.3214 H   0  0  0  0  0  0  0  0  0  0  0  0
  151.7175  142.2168  161.4876 H   0  0  0  0  0  0  0  0  0  0  0  0
  152.7545  143.2227  160.4813 H   0  0  0  0  0  0  0  0  0  0  0  0
  152.6990  142.1401  158.0927 H   0  0  0  0  0  0  0  0  0  0  0  0
  152.0703  144.1670  156.8769 H   0  0  0  0  0  0  0  0  0  0  0  0
  150.5629  144.2973  157.7484 H   0  0  0  0  0  0  0  0  0  0  0  0
  152.2545  145.8897  158.6413 H   0  0  0  0  0  0  0  0  0  0  0  0
  153.3529  144.5603  158.9987 H   0  0  0  0  0  0  0  0  0  0  0  0
  151.8342  144.7127  159.8816 H   0  0  0  0  0  0  0  0  0  0  0  0
  152.4259  140.5817  156.7186 H   0  0  0  0  0  0  0  0  0  0  0  0
  149.1387  140.8603  154.9175 H   0  0  0  0  0  0  0  0  0  0  0  0
  148.4674  139.1111  153.2244 H   0  0  0  0  0  0  0  0  0  0  0  0
  151.8156  136.8174  153.9881 H   0  0  0  0  0  0  0  0  0  0  0  0
  149.8274  137.2670  152.8990 H   0  0  0  0  0  0  0  0  0  0  0  0
  1  2  1  0  0  0  0
  1 17  1  0  0  0  0
  1 18  1  0  0  0  0
  1 19  1  0  0  0  0
  2  3  1  0  0  0  0
  2 20  1  0  0  0  0
  2 21  1  0  0  0  0
  3  4  1  0  0  0  0
  4  5  1  0  0  0  0
  4  7  1  0  0  0  0
  4 22  1  0  0  0  0
  5  6  1  0  0  0  0
  5 23  1  0  0  0  0
  5 24  1  0  0  0  0
  6 25  1  0  0  0  0
  6 26  1  0  0  0  0
  6 27  1  0  0  0  0
  7  8  2  0  0  0  0
  7  9  1  0  0  0  0
  9 28  1  0  0  0  0
  9 10  1  0  0  0  0
 10 11  2  0  0  0  0
 10 15  1  0  0  0  0
 11 12  1  0  0  0  0
 11 29  1  0  0  0  0
 12 13  2  0  0  0  0
 12 30  1  0  0  0  0
 13 14  1  0  0  0  0
 13 32  1  0  0  0  0
 14 15  2  0  0  0  0
 14 31  1  0  0  0  0
 15 16  1  0  0  0  0
M  CHG  1  13   1
M  CHG  1  16  -1
M  END
> <s_m_source_file>
AV-unprocessed.smi

> <i_m_source_file_index>
2801

> <i_lp_mmshare_version>
43012

> <i_f3d_flags>
0

> <s_epik_input>
W0NIM11bQ0gyXU9bQ0BIXShbQ0gyXVtDSDNdKUMoPU8pW05IXWMxW2NIXVtjSF1uW2NIXWMxW09IXQ==

> <s_epik_cmdline>
J2VwaWtfcHl0aG9uJywgJy1waCcsICc3LjAnLCAnLXRuJywgJzgnLCAnLW1hJywgJzIwMCcsICctbWV0YWxfYmluZGluZycsICctaW1hZScsICc8aW5maWxlLm1hZT4nLCAnLW9tYWUnLCAnPG91dGZpbGUubWFlPic=

> <r_lp_tautomer_probability>
0.56342

> <r_epik_Ionization_Penalty>
0.0170685

> <r_epik_Ionization_Penalty_Charging>
0.0170685

> <r_epik_Ionization_Penalty_Neutral>
1.5328e-09

> <r_epik_State_Penalty>
0.331557

> <r_epik_Charging_Adjusted_Penalty>
0.348625

> <i_epik_Tot_Q>
0

> <i_epik_Tot_abs_Q>
2

> <r_epik_Metal_State_Penalty>
0.590147

> <b_epik_Metal_Only>
0

> <s_lp_Force_Field>
OPLS_2005

> <r_lp_Energy>
9.87866

> <b_lp_Chiralities_Consistent>
1

> <s_lp_Variant>
AV-unprocessed.smi:2801-1

> <Gold.Version>
5.8.1

> <Gold.Id.Protein>
6NUR|6NUR_protein|mol2

> <Gold.PLP.Fitness>
50.1396

> <Gold.PLP.PLP>
-39.1697

> <Gold.PLP.part.hbond>
-2.6155

> <Gold.PLP.part.metal>
0.0000

> <Gold.PLP.part.buried>
-3.7726

> <Gold.PLP.part.nonpolar>
-32.8135

> <Gold.PLP.part.repulsive>
0.3233

> <Gold.PLP.ligand.clash>
0.0000

> <Gold.PLP.ligand.torsion>
0.5536

> <Gold.PLP.Chemscore.Hbond>
4.0000

> <Gold.PLP.Chemscore.CHOScore>
0.0000

> <Gold.PLP.Chemscore.Metal>
0.0000

> <Gold.Chemscore.Hbonds>
donor molecule, donor type, donor heavy atom, donor atom, acceptor molecule, acceptor atom, score
      L1  H    13    32       P1  7948  2.00
      P1  H  7997  8010       L1    16  0.78

> <Gold.PLP.Chemscore.Internal.Correction>
0.0770

> <Gold.Rescore>
     Score         DG    S(hbond)    S(metal)    S(lipo)     H(rot)  DE(clash)    DE(int)     intcor
     16.32     -18.41       1.91        0.00      90.89       1.59       0.13       1.96       ----

> <Gold.Chemscore.Fitness>
16.3162

> <Gold.Chemscore.DG>
-18.4106

> <Gold.Chemscore.ZeroCoef>
-5.4800

> <Gold.Chemscore.Hbond>
1.9087

> <Gold.Chemscore.Metal>
0.0000

> <Gold.Chemscore.Lipo>
90.8938

> <Gold.Chemscore.Internal_Hbond>
0.0000

> <Gold.Chemscore.DEClash>
0.1323

> <Gold.Chemscore.DEInternal>
1.9621

> <Gold.Chemscore.Rot>
1.5933

> <Gold.Chemscore.Internal.Correction>
   9.000000E+99

> <Gold.Chemscore.Hbonds>
donor molecule, donor type, donor heavy atom, donor atom, acceptor molecule, acceptor atom, score
      L1  H    13    32       P1  7948  0.26
      P1  H  7997  8010       L1    16  0.37

> <Gold.Chemscore.Hbond.Weighted>
-6.3749

> <Gold.Chemscore.Metal.Weighted>
-0.0000

> <Gold.Chemscore.Lipo.Weighted>
-10.6346

> <Gold.Chemscore.Internal_Hbond.Weighted>
0.0000

> <Gold.Chemscore.DEClash.Weighted>
0.1323

> <Gold.Chemscore.DEInternal.Weighted>
1.9621

> <Gold.Chemscore.Rot.Weighted>
4.0789

> <Gold.Chemscore.Internal.Correction.Weighted>
   9.000000E+99

> <Gold.Protein.RotatedTorsions>
[ 6907 6896 6895 6894 ] final -102.12 input  -60.11 | X-H torsion
[ 7974 7965 7964 7962 ] final -178.97 input  175.53 | X-H torsion
[ 8008 7997 7996 7995 ] final   82.54 input   59.86 | X-H torsion
[ 10167 10162 10161 10158 ] final  -72.01 input  -65.29 | X-H torsion
[ 10718 10713 10712 10709 ] final  163.07 input   66.30 | X-H torsion
[ 10763 10752 10751 10750 ] final  -76.96 input  -60.55 | X-H torsion
[ 11005 11000 10999 10996 ] final   55.73 input  -57.11 | X-H torsion

> <Gold.Protein.ActiveResidues>
 VAL166  LYS551  ARG553  GLY616  TRP617  ASP618  TYR619  PRO620  LYS621  CYS622 
 ASP623  PHE694  ASN695  SER759  ASP760  ASP761  ALA762  ILE779  LEU786  VAL792 
 PHE793  MET794  SER795  GLU796  ALA797  LYS798  CYS799  TRP800  GLU811  SER814 

> <Gold.Protein.RotatedAtoms>
  150.7183  134.0630  159.3837 H   0  0  0  0  0  0  0  0  0  0  0  0  # atno 6907 bound_to 6896
  151.8610  135.0522  160.0478 H   0  0  0  0  0  0  0  0  0  0  0  0  # atno 6908 bound_to 6896
  152.2717  133.5353  159.5480 H   0  0  0  0  0  0  0  0  0  0  0  0  # atno 6909 bound_to 6896
  144.7134  140.0788  143.6426 H   0  0  0  0  0  0  0  0  0  0  0  0  # atno 7974 bound_to 7965
  155.9120  140.3427  155.6106 H   0  0  0  0  0  0  0  0  0  0  0  0  # atno 8008 bound_to 7997
  155.7376  140.0803  157.2279 H   0  0  0  0  0  0  0  0  0  0  0  0  # atno 8009 bound_to 7997
  154.4057  140.1576  156.2567 H   0  0  0  0  0  0  0  0  0  0  0  0  # atno 8010 bound_to 7997
  140.5226  143.2330  151.7402 H   0  0  0  0  0  0  0  0  0  0  0  0  # atno 10167 bound_to 10162
  157.1137  131.0474  151.2446 H   0  0  0  0  0  0  0  0  0  0  0  0  # atno 10718 bound_to 10713
  154.5067  135.5780  153.6573 H   0  0  0  0  0  0  0  0  0  0  0  0  # atno 10763 bound_to 10752
  152.9889  135.6149  154.2932 H   0  0  0  0  0  0  0  0  0  0  0  0  # atno 10764 bound_to 10752
  154.2843  135.2850  155.2662 H   0  0  0  0  0  0  0  0  0  0  0  0  # atno 10765 bound_to 10752
  140.0584  134.5637  155.9180 H   0  0  0  0  0  0  0  0  0  0  0  0  # atno 11005 bound_to 11000
  145.9720  139.2877  143.1093 LP  0  0  0  0  0  0  0  0  0  0  0  0  # atno 17320 bound_to 7965
  145.9106  140.9182  143.0456 LP  0  0  0  0  0  0  0  0  0  0  0  0  # atno 17321 bound_to 7965
  139.4928  144.4232  151.9955 LP  0  0  0  0  0  0  0  0  0  0  0  0  # atno 17342 bound_to 10162
  140.3329  144.3295  150.5983 LP  0  0  0  0  0  0  0  0  0  0  0  0  # atno 17343 bound_to 10162
  157.4537  130.7613  149.7174 LP  0  0  0  0  0  0  0  0  0  0  0  0  # atno 17370 bound_to 10713
  155.9844  130.3991  150.3311 LP  0  0  0  0  0  0  0  0  0  0  0  0  # atno 17371 bound_to 10713
  141.1962  133.6590  156.5681 LP  0  0  0  0  0  0  0  0  0  0  0  0  # atno 17394 bound_to 11000
  140.3808  134.7525  157.4660 LP  0  0  0  0  0  0  0  0  0  0  0  0  # atno 17395 bound_to 11000

$$$$
