AV-unprocessed.smi:2226|AV-procd|sdf|9018|dock4
  -GOLD-   2272012223D 1   1.00000     0.00000
 Structure written by MMmdl.
 39 41  0  0  0  0  0  0  0  0  3 V2000
  145.8282  143.1192  153.9513 C   0  0  0  0  0  0  0  0  0  0  0  0
  146.0057  141.6495  154.0270 N   0  3  2  0  0  0  0  0  0  0  0  0
  145.8227  141.0694  155.3795 C   0  0  1  0  0  0  0  0  0  0  0  0
  145.6022  139.5444  155.2447 C   0  0  0  0  0  0  0  0  0  0  0  0
  146.7025  138.8265  154.4370 C   0  0  0  0  0  0  0  0  0  0  0  0
  147.1196  139.6182  153.1808 C   0  0  0  0  0  0  0  0  0  0  0  0
  147.2592  141.1403  153.4188 C   0  0  2  0  0  0  0  0  0  0  0  0
  148.4969  141.5554  154.2517 C   0  0  0  0  0  0  0  0  0  0  0  0
  148.3985  141.2298  155.7597 C   0  0  1  0  0  0  0  0  0  0  0  0
  149.3763  142.0400  156.4827 N   0  0  0  0  0  0  0  0  0  0  0  0
  150.4648  141.5862  157.1221 C   0  0  0  0  0  0  0  0  0  0  0  0
  150.7024  140.3768  157.1332 O   0  0  0  0  0  0  0  0  0  0  0  0
  151.1913  142.5736  157.7009 N   0  5  0  0  0  0  0  0  0  0  0  0
  151.9482  142.4163  158.8080 C   0  0  0  0  0  0  0  0  0  0  0  0
  152.5035  141.3047  159.3075 N   0  0  0  0  0  0  0  0  0  0  0  0
  153.1787  141.6843  160.4561 C   0  0  0  0  0  0  0  0  0  0  0  0
  153.0053  143.0307  160.6137 C   0  0  0  0  0  0  0  0  0  0  0  0
  152.2352  143.4992  159.5857 O   0  0  0  0  0  0  0  0  0  0  0  0
  146.9780  141.4759  156.3269 C   0  0  0  0  0  0  0  0  0  0  0  0
  146.5795  143.6581  154.5279 H   0  0  0  0  0  0  0  0  0  0  0  0
  144.8456  143.4019  154.3303 H   0  0  0  0  0  0  0  0  0  0  0  0
  145.8913  143.4562  152.9163 H   0  0  0  0  0  0  0  0  0  0  0  0
  144.9015  141.4786  155.7968 H   0  0  0  0  0  0  0  0  0  0  0  0
  145.4999  139.0852  156.2284 H   0  0  0  0  0  0  0  0  0  0  0  0
  144.6489  139.3812  154.7399 H   0  0  0  0  0  0  0  0  0  0  0  0
  147.5663  138.6300  155.0661 H   0  0  0  0  0  0  0  0  0  0  0  0
  146.3498  137.8376  154.1425 H   0  0  0  0  0  0  0  0  0  0  0  0
  148.0436  139.2098  152.7703 H   0  0  0  0  0  0  0  0  0  0  0  0
  146.3599  139.4622  152.4139 H   0  0  0  0  0  0  0  0  0  0  0  0
  147.3620  141.5987  152.4343 H   0  0  0  0  0  0  0  0  0  0  0  0
  149.3965  141.1014  153.8345 H   0  0  0  0  0  0  0  0  0  0  0  0
  148.6384  142.6304  154.1312 H   0  0  0  0  0  0  0  0  0  0  0  0
  148.6735  140.1880  155.9063 H   0  0  0  0  0  0  0  0  0  0  0  0
  149.2219  143.0377  156.4949 H   0  0  0  0  0  0  0  0  0  0  0  0
  153.7222  140.9746  161.0619 H   0  0  0  0  0  0  0  0  0  0  0  0
  153.3367  143.7527  161.3448 H   0  0  0  0  0  0  0  0  0  0  0  0
  146.8704  142.5370  156.5552 H   0  0  0  0  0  0  0  0  0  0  0  0
  146.8669  140.9661  157.2845 H   0  0  0  0  0  0  0  0  0  0  0  0
  145.2567  141.2716  153.4647 H   0  0  0  0  0  0  0  0  0  0  0  0
  1  2  1  0  0  0  0
  1 20  1  0  0  0  0
  1 21  1  0  0  0  0
  1 22  1  0  0  0  0
  2  7  1  0  0  0  0
  2  3  1  0  0  0  0
  2 39  1  0  0  0  0
  3 19  1  0  0  0  0
  3  4  1  0  0  0  0
  3 23  1  0  0  0  0
  4  5  1  0  0  0  0
  4 24  1  0  0  0  0
  4 25  1  0  0  0  0
  5  6  1  0  0  0  0
  5 26  1  0  0  0  0
  5 27  1  0  0  0  0
  6  7  1  0  0  0  0
  6 28  1  0  0  0  0
  6 29  1  0  0  0  0
  7  8  1  0  0  0  0
  7 30  1  0  0  0  0
  8  9  1  0  0  0  0
  8 31  1  0  0  0  0
  8 32  1  0  0  0  0
  9 10  1  0  0  0  0
  9 19  1  0  0  0  0
  9 33  1  0  0  0  0
 10 34  1  0  0  0  0
 10 11  1  0  0  0  0
 11 13  1  0  0  0  0
 11 12  2  0  0  0  0
 13 14  1  0  0  0  0
 14 18  1  0  0  0  0
 14 15  2  0  0  0  0
 15 16  1  0  0  0  0
 16 35  1  0  0  0  0
 16 17  2  0  0  0  0
 17 36  1  0  0  0  0
 17 18  1  0  0  0  0
 19 37  1  0  0  0  0
 19 38  1  0  0  0  0
M  CHG  1   2   1
M  CHG  1  13  -1
M  END
> <s_m_source_file>
AV-unprocessed.smi

> <i_m_source_file_index>
2226

> <i_lp_mmshare_version>
43012

> <i_f3d_flags>
0

> <s_epik_input>
W0NIMl0xW0NIMl1bQ0gyXVtDQEhdKE4oW0NIM10pW0NIXTEyKVtDSDJdW0NASF0oW0NIMl0yKVtOSF1DKD1PKVtOSF1jM25bY0hdW2NIXW8z

> <s_epik_cmdline>
J2VwaWtfcHl0aG9uJywgJy1waCcsICc3LjAnLCAnLXRuJywgJzgnLCAnLW1hJywgJzIwMCcsICctbWV0YWxfYmluZGluZycsICctaW1hZScsICc8aW5maWxlLm1hZT4nLCAnLW9tYWUnLCAnPG91dGZpbGUubWFlPic=

> <r_lp_tautomer_probability>
0.107061

> <r_epik_Ionization_Penalty>
10.5612

> <r_epik_Ionization_Penalty_Charging>
7.48913

> <r_epik_Ionization_Penalty_Neutral>
3.07202

> <r_epik_State_Penalty>
5.6431

> <r_epik_Charging_Adjusted_Penalty>
13.1322

> <i_epik_Tot_Q>
0

> <i_epik_Tot_abs_Q>
2

> <r_epik_Metal_State_Penalty>
1.58163

> <b_epik_Metal_Only>
1

> <s_lp_Force_Field>
OPLS_2005

> <r_lp_Energy>
28.9751

> <b_lp_Chiralities_Consistent>
1

> <s_lp_Variant>
AV-unprocessed.smi:2226-18

> <Gold.Version>
5.8.1

> <Gold.Id.Protein>
6NUR|6NUR_protein|mol2

> <Gold.PLP.Fitness>
40.6650

> <Gold.PLP.PLP>
-32.3197

> <Gold.PLP.part.hbond>
-1.9744

> <Gold.PLP.part.metal>
0.0000

> <Gold.PLP.part.buried>
-6.4808

> <Gold.PLP.part.nonpolar>
-24.4080

> <Gold.PLP.part.repulsive>
0.1469

> <Gold.PLP.ligand.clash>
0.0000

> <Gold.PLP.ligand.torsion>
0.3329

> <Gold.PLP.Chemscore.Hbond>
3.0000

> <Gold.PLP.Chemscore.CHOScore>
0.0000

> <Gold.PLP.Chemscore.Metal>
0.0000

> <Gold.Chemscore.Hbonds>
donor molecule, donor type, donor heavy atom, donor atom, acceptor molecule, acceptor atom, score
      L1  H     2    39       P1 10175  2.00
      L1  H    10    34       P1  8028  1.00

> <Gold.PLP.Chemscore.Internal.Correction>
0.0112

> <Gold.Rescore>
     Score         DG    S(hbond)    S(metal)    S(lipo)     H(rot)  DE(clash)    DE(int)     intcor
     15.51     -16.90       1.93        0.00      64.35       1.00       0.00       1.39       ----

> <Gold.Chemscore.Fitness>
15.5057

> <Gold.Chemscore.DG>
-16.9015

> <Gold.Chemscore.ZeroCoef>
-5.4800

> <Gold.Chemscore.Hbond>
1.9320

> <Gold.Chemscore.Metal>
0.0000

> <Gold.Chemscore.Lipo>
64.3463

> <Gold.Chemscore.Internal_Hbond>
0.0000

> <Gold.Chemscore.DEClash>
0.0045

> <Gold.Chemscore.DEInternal>
1.3913

> <Gold.Chemscore.Rot>
1.0000

> <Gold.Chemscore.Internal.Correction>
   9.000000E+99

> <Gold.Chemscore.Hbonds>
donor molecule, donor type, donor heavy atom, donor atom, acceptor molecule, acceptor atom, score
      L1  H     2    39       P1 10175  0.29
      L1  H    10    34       P1  8028  0.97

> <Gold.Chemscore.Hbond.Weighted>
-6.4530

> <Gold.Chemscore.Metal.Weighted>
-0.0000

> <Gold.Chemscore.Lipo.Weighted>
-7.5285

> <Gold.Chemscore.Internal_Hbond.Weighted>
0.0000

> <Gold.Chemscore.DEClash.Weighted>
0.0045

> <Gold.Chemscore.DEInternal.Weighted>
1.3913

> <Gold.Chemscore.Rot.Weighted>
2.5600

> <Gold.Chemscore.Internal.Correction.Weighted>
   9.000000E+99

> <Gold.Protein.RotatedTorsions>
[ 6907 6896 6895 6894 ] final  -48.04 input  -60.11 | X-H torsion
[ 7974 7965 7964 7962 ] final   84.40 input  175.53 | X-H torsion
[ 8008 7997 7996 7995 ] final   45.63 input   59.86 | X-H torsion
[ 10167 10162 10161 10158 ] final  173.77 input  -65.29 | X-H torsion
[ 10718 10713 10712 10709 ] final    5.24 input   66.30 | X-H torsion
[ 10763 10752 10751 10750 ] final  -10.58 input  -60.55 | X-H torsion
[ 11005 11000 10999 10996 ] final  132.49 input  -57.11 | X-H torsion

> <Gold.Protein.ActiveResidues>
 VAL166  LYS551  ARG553  GLY616  TRP617  ASP618  TYR619  PRO620  LYS621  CYS622 
 ASP623  PHE694  ASN695  SER759  ASP760  ASP761  ALA762  ILE779  LEU786  VAL792 
 PHE793  MET794  SER795  GLU796  ALA797  LYS798  CYS799  TRP800  GLU811  SER814 

> <Gold.Protein.RotatedAtoms>
  150.8946  134.8354  159.7317 H   0  0  0  0  0  0  0  0  0  0  0  0  # atno 6907 bound_to 6896
  152.4857  134.4595  159.9610 H   0  0  0  0  0  0  0  0  0  0  0  0  # atno 6908 bound_to 6896
  151.4653  133.3543  159.2850 H   0  0  0  0  0  0  0  0  0  0  0  0  # atno 6909 bound_to 6896
  145.5992  139.2350  143.2255 H   0  0  0  0  0  0  0  0  0  0  0  0  # atno 7974 bound_to 7965
  155.3390  140.3407  155.4239 H   0  0  0  0  0  0  0  0  0  0  0  0  # atno 8008 bound_to 7997
  156.1823  140.1668  156.8287 H   0  0  0  0  0  0  0  0  0  0  0  0  # atno 8009 bound_to 7997
  154.5347  140.0737  156.8390 H   0  0  0  0  0  0  0  0  0  0  0  0  # atno 8010 bound_to 7997
  139.5119  144.3223  152.0191 H   0  0  0  0  0  0  0  0  0  0  0  0  # atno 10167 bound_to 10162
  156.9045  130.5734  149.5647 H   0  0  0  0  0  0  0  0  0  0  0  0  # atno 10718 bound_to 10713
  153.4713  135.7017  153.5992 H   0  0  0  0  0  0  0  0  0  0  0  0  # atno 10763 bound_to 10752
  153.4244  135.3817  155.2132 H   0  0  0  0  0  0  0  0  0  0  0  0  # atno 10764 bound_to 10752
  154.8725  135.3935  154.4151 H   0  0  0  0  0  0  0  0  0  0  0  0  # atno 10765 bound_to 10752
  139.9793  134.9553  156.9589 H   0  0  0  0  0  0  0  0  0  0  0  0  # atno 11005 bound_to 11000
  146.1589  140.6817  142.9287 LP  0  0  0  0  0  0  0  0  0  0  0  0  # atno 17320 bound_to 7965
  144.7317  140.4691  143.6933 LP  0  0  0  0  0  0  0  0  0  0  0  0  # atno 17321 bound_to 7965
  140.2664  144.4011  150.6167 LP  0  0  0  0  0  0  0  0  0  0  0  0  # atno 17342 bound_to 10162
  140.6120  143.2170  151.6867 LP  0  0  0  0  0  0  0  0  0  0  0  0  # atno 17343 bound_to 10162
  156.0566  130.5626  150.9104 LP  0  0  0  0  0  0  0  0  0  0  0  0  # atno 17370 bound_to 10713
  157.6006  131.0941  150.8967 LP  0  0  0  0  0  0  0  0  0  0  0  0  # atno 17371 bound_to 10713
  140.5129  134.0984  155.7274 LP  0  0  0  0  0  0  0  0  0  0  0  0  # atno 17394 bound_to 11000
  141.1467  133.9042  157.2198 LP  0  0  0  0  0  0  0  0  0  0  0  0  # atno 17395 bound_to 11000

$$$$
