AV-unprocessed.smi:2651|AV-procd|sdf|10292|dock1
  -GOLD-   2272014303D 1   1.00000     0.00000
 Structure written by MMmdl.
 43 44  0  0  0  0  0  0  0  0  1 V2000
  150.5199  141.7431  156.1431 C   0  0  0  0  0  0  0  0  0  0  0  0
  150.2085  140.5064  155.3723 C   0  0  0  0  0  0  0  0  0  0  0  0
  149.0418  139.8488  155.1009 C   0  0  0  0  0  0  0  0  0  0  0  0
  149.4726  138.7422  154.3219 C   0  0  0  0  0  0  0  0  0  0  0  0
  148.5415  137.7906  153.8344 N   0  0  0  0  0  0  0  0  0  0  0  0
  147.2723  137.6050  154.2339 C   0  0  0  0  0  0  0  0  0  0  0  0
  146.7117  138.2453  155.1233 O   0  0  0  0  0  0  0  0  0  0  0  0
  146.6877  136.6246  153.5252 N   0  0  0  0  0  0  0  0  0  0  0  0
  145.3121  136.1106  153.6123 C   0  0  1  0  0  0  0  0  0  0  0  0
  144.9730  135.7627  155.0843 C   0  0  0  0  0  0  0  0  0  0  0  0
  144.3222  137.2089  153.1239 C   0  0  0  0  0  0  0  0  0  0  0  0
  144.3713  138.3715  153.9268 O   0  0  0  0  0  0  0  0  0  0  0  0
  145.2395  134.8242  152.7138 C   0  0  0  0  0  0  0  0  0  0  0  0
  146.4259  133.8461  152.9347 C   0  0  0  0  0  0  0  0  0  0  0  0
  146.3050  132.5770  152.0757 C   0  0  0  0  0  0  0  0  0  0  0  0
  146.1883  132.9215  150.5861 C   0  0  0  0  0  0  0  0  0  0  0  0
  145.0050  133.8657  150.3419 C   0  0  0  0  0  0  0  0  0  0  0  0
  145.1194  135.1377  151.1970 C   0  0  0  0  0  0  0  0  0  0  0  0
  150.7826  138.7289  154.1295 N   0  0  0  0  0  0  0  0  0  0  0  0
  151.2610  139.8595  154.8020 O   0  0  0  0  0  0  0  0  0  0  0  0
  149.6602  142.0612  156.7332 H   0  0  0  0  0  0  0  0  0  0  0  0
  150.7903  142.5583  155.4720 H   0  0  0  0  0  0  0  0  0  0  0  0
  151.3534  141.5748  156.8256 H   0  0  0  0  0  0  0  0  0  0  0  0
  148.0438  140.1163  155.4141 H   0  0  0  0  0  0  0  0  0  0  0  0
  148.8729  137.1971  153.0885 H   0  0  0  0  0  0  0  0  0  0  0  0
  147.2616  136.1771  152.8256 H   0  0  0  0  0  0  0  0  0  0  0  0
  144.0416  135.1999  155.1523 H   0  0  0  0  0  0  0  0  0  0  0  0
  144.8458  136.6569  155.6949 H   0  0  0  0  0  0  0  0  0  0  0  0
  145.7544  135.1697  155.5588 H   0  0  0  0  0  0  0  0  0  0  0  0
  144.5433  137.5113  152.1001 H   0  0  0  0  0  0  0  0  0  0  0  0
  143.2964  136.8404  153.1097 H   0  0  0  0  0  0  0  0  0  0  0  0
  144.0443  139.0995  153.4206 H   0  0  0  0  0  0  0  0  0  0  0  0
  144.3386  134.2775  152.9961 H   0  0  0  0  0  0  0  0  0  0  0  0
  147.3717  134.3387  152.7072 H   0  0  0  0  0  0  0  0  0  0  0  0
  146.4835  133.5376  153.9775 H   0  0  0  0  0  0  0  0  0  0  0  0
  147.1700  131.9339  152.2404 H   0  0  0  0  0  0  0  0  0  0  0  0
  145.4311  132.0046  152.3894 H   0  0  0  0  0  0  0  0  0  0  0  0
  147.1113  133.3915  150.2437 H   0  0  0  0  0  0  0  0  0  0  0  0
  146.0666  132.0102  150.0000 H   0  0  0  0  0  0  0  0  0  0  0  0
  144.9562  134.1325  149.2859 H   0  0  0  0  0  0  0  0  0  0  0  0
  144.0714  133.3516  150.5738 H   0  0  0  0  0  0  0  0  0  0  0  0
  144.2428  135.7522  150.9976 H   0  0  0  0  0  0  0  0  0  0  0  0
  145.9818  135.7143  150.8611 H   0  0  0  0  0  0  0  0  0  0  0  0
  1  2  1  0  0  0  0
  1 21  1  0  0  0  0
  1 22  1  0  0  0  0
  1 23  1  0  0  0  0
  2 20  1  0  0  0  0
  2  3  2  0  0  0  0
  3  4  1  0  0  0  0
  3 24  1  0  0  0  0
  4  5  1  0  0  0  0
  4 19  2  0  0  0  0
  5  6  1  0  0  0  0
  5 25  1  0  0  0  0
  6  7  2  0  0  0  0
  6  8  1  0  0  0  0
  8  9  1  0  0  0  0
  8 26  1  0  0  0  0
  9 10  1  0  0  0  0
  9 11  1  0  0  0  0
  9 13  1  0  0  0  0
 10 27  1  0  0  0  0
 10 28  1  0  0  0  0
 10 29  1  0  0  0  0
 11 12  1  0  0  0  0
 11 30  1  0  0  0  0
 11 31  1  0  0  0  0
 12 32  1  0  0  0  0
 13 18  1  0  0  0  0
 13 14  1  0  0  0  0
 13 33  1  0  0  0  0
 14 15  1  0  0  0  0
 14 34  1  0  0  0  0
 14 35  1  0  0  0  0
 15 16  1  0  0  0  0
 15 36  1  0  0  0  0
 15 37  1  0  0  0  0
 16 17  1  0  0  0  0
 16 38  1  0  0  0  0
 16 39  1  0  0  0  0
 17 18  1  0  0  0  0
 17 40  1  0  0  0  0
 17 41  1  0  0  0  0
 18 42  1  0  0  0  0
 18 43  1  0  0  0  0
 19 20  1  0  0  0  0
M  END
> <s_m_source_file>
AV-unprocessed.smi

> <i_m_source_file_index>
2651

> <i_lp_mmshare_version>
43012

> <i_f3d_flags>
0

> <s_epik_input>
W0NIM11jMVtjSF1jKG5vMSlbTkhdQyg9TylbTkhdW0NAQF0oW0NIM10pKFtDSDJdW09IXSlbQ0hdMltDSDJdW0NIMl1bQ0gyXVtDSDJdW0NIMl0y

> <s_epik_cmdline>
J2VwaWtfcHl0aG9uJywgJy1waCcsICc3LjAnLCAnLXRuJywgJzgnLCAnLW1hJywgJzIwMCcsICctbWV0YWxfYmluZGluZycsICctaW1hZScsICc8aW5maWxlLm1hZT4nLCAnLW9tYWUnLCAnPG91dGZpbGUubWFlPic=

> <r_lp_tautomer_probability>
1

> <r_epik_Ionization_Penalty>
2.26451e-05

> <r_epik_Ionization_Penalty_Charging>
0

> <r_epik_Ionization_Penalty_Neutral>
2.26451e-05

> <r_epik_State_Penalty>
-0

> <r_epik_Charging_Adjusted_Penalty>
0

> <i_epik_Tot_Q>
0

> <i_epik_Tot_abs_Q>
0

> <r_epik_Metal_State_Penalty>
-0

> <b_epik_Metal_Only>
0

> <s_lp_Force_Field>
OPLS_2005

> <r_lp_Energy>
17.1045

> <b_lp_Chiralities_Consistent>
1

> <s_lp_Variant>
AV-unprocessed.smi:2651-1

> <Gold.Version>
5.8.1

> <Gold.Id.Protein>
6NUR|6NUR_protein|mol2

> <Gold.PLP.Fitness>
37.8783

> <Gold.PLP.PLP>
-27.1173

> <Gold.PLP.part.hbond>
-4.1141

> <Gold.PLP.part.metal>
0.0000

> <Gold.PLP.part.buried>
-3.3498

> <Gold.PLP.part.nonpolar>
-20.3098

> <Gold.PLP.part.repulsive>
0.3404

> <Gold.PLP.ligand.clash>
0.0000

> <Gold.PLP.ligand.torsion>
0.5387

> <Gold.PLP.Chemscore.Hbond>
3.9280

> <Gold.PLP.Chemscore.CHOScore>
0.0000

> <Gold.PLP.Chemscore.Metal>
0.0000

> <Gold.Chemscore.Hbonds>
donor molecule, donor type, donor heavy atom, donor atom, acceptor molecule, acceptor atom, score
      L1  H     5    25       P1  7948  1.00
      L1  H     8    26       P1  7948  0.93
      L1  H    12    32       P1 10175  1.00
      P1  H  7989  7998       L1    20  1.00

> <Gold.PLP.Chemscore.Internal.Correction>
0.0545

> <Gold.Rescore>
     Score         DG    S(hbond)    S(metal)    S(lipo)     H(rot)  DE(clash)    DE(int)     intcor
     14.57     -17.29       3.06        0.00      59.32       2.09       0.21       2.52       ----

> <Gold.Chemscore.Fitness>
14.5664

> <Gold.Chemscore.DG>
-17.2907

> <Gold.Chemscore.ZeroCoef>
-5.4800

> <Gold.Chemscore.Hbond>
3.0627

> <Gold.Chemscore.Metal>
0.0000

> <Gold.Chemscore.Lipo>
59.3220

> <Gold.Chemscore.Internal_Hbond>
0.0000

> <Gold.Chemscore.DEClash>
0.2060

> <Gold.Chemscore.DEInternal>
2.5183

> <Gold.Chemscore.Rot>
2.0935

> <Gold.Chemscore.Internal.Correction>
   9.000000E+99

> <Gold.Chemscore.Hbonds>
donor molecule, donor type, donor heavy atom, donor atom, acceptor molecule, acceptor atom, score
      L1  H     5    25       P1  7948  0.95
      L1  H     8    26       P1  7948  0.89
      L1  H    12    32       P1 10175  1.00
      P1  H  7989  7998       L1    20  0.12

> <Gold.Chemscore.Hbond.Weighted>
-10.2294

> <Gold.Chemscore.Metal.Weighted>
-0.0000

> <Gold.Chemscore.Lipo.Weighted>
-6.9407

> <Gold.Chemscore.Internal_Hbond.Weighted>
0.0000

> <Gold.Chemscore.DEClash.Weighted>
0.2060

> <Gold.Chemscore.DEInternal.Weighted>
2.5183

> <Gold.Chemscore.Rot.Weighted>
5.3594

> <Gold.Chemscore.Internal.Correction.Weighted>
   9.000000E+99

> <Gold.Protein.RotatedTorsions>
[ 6907 6896 6895 6894 ] final  -97.28 input  -60.11 | X-H torsion
[ 7974 7965 7964 7962 ] final -113.40 input  175.53 | X-H torsion
[ 8008 7997 7996 7995 ] final   -4.04 input   59.86 | X-H torsion
[ 10167 10162 10161 10158 ] final    7.90 input  -65.29 | X-H torsion
[ 10718 10713 10712 10709 ] final   56.33 input   66.30 | X-H torsion
[ 10763 10752 10751 10750 ] final -133.21 input  -60.55 | X-H torsion
[ 11005 11000 10999 10996 ] final  -32.35 input  -57.11 | X-H torsion

> <Gold.Protein.ActiveResidues>
 VAL166  LYS551  ARG553  GLY616  TRP617  ASP618  TYR619  PRO620  LYS621  CYS622 
 ASP623  PHE694  ASN695  SER759  ASP760  ASP761  ALA762  ILE779  LEU786  VAL792 
 PHE793  MET794  SER795  GLU796  ALA797  LYS798  CYS799  TRP800  GLU811  SER814 

> <Gold.Protein.RotatedAtoms>
  150.7012  134.1373  159.4091 H   0  0  0  0  0  0  0  0  0  0  0  0  # atno 6907 bound_to 6896
  151.9358  135.0234  160.0541 H   0  0  0  0  0  0  0  0  0  0  0  0  # atno 6908 bound_to 6896
  152.2137  133.4895  159.5161 H   0  0  0  0  0  0  0  0  0  0  0  0  # atno 6909 bound_to 6896
  145.1325  140.8732  143.3749 H   0  0  0  0  0  0  0  0  0  0  0  0  # atno 7974 bound_to 7965
  154.6185  140.2494  155.7578 H   0  0  0  0  0  0  0  0  0  0  0  0  # atno 8008 bound_to 7997
  156.2413  140.2931  156.0401 H   0  0  0  0  0  0  0  0  0  0  0  0  # atno 8009 bound_to 7997
  155.1935  140.0392  157.2895 H   0  0  0  0  0  0  0  0  0  0  0  0  # atno 8010 bound_to 7997
  140.6345  143.7917  150.7341 H   0  0  0  0  0  0  0  0  0  0  0  0  # atno 10167 bound_to 10162
  157.5421  130.8705  149.8838 H   0  0  0  0  0  0  0  0  0  0  0  0  # atno 10718 bound_to 10713
  154.8735  135.3773  154.4536 H   0  0  0  0  0  0  0  0  0  0  0  0  # atno 10763 bound_to 10752
  153.5210  135.7029  153.5736 H   0  0  0  0  0  0  0  0  0  0  0  0  # atno 10764 bound_to 10752
  153.3983  135.3954  155.1936 H   0  0  0  0  0  0  0  0  0  0  0  0  # atno 10765 bound_to 10752
  140.9545  133.7201  156.1271 H   0  0  0  0  0  0  0  0  0  0  0  0  # atno 11005 bound_to 11000
  145.0620  139.3098  143.5875 LP  0  0  0  0  0  0  0  0  0  0  0  0  # atno 17320 bound_to 7965
  146.3512  140.0065  142.8671 LP  0  0  0  0  0  0  0  0  0  0  0  0  # atno 17321 bound_to 7965
  140.1536  143.4336  152.2115 LP  0  0  0  0  0  0  0  0  0  0  0  0  # atno 17342 bound_to 10162
  139.5556  144.7370  151.4303 LP  0  0  0  0  0  0  0  0  0  0  0  0  # atno 17343 bound_to 10162
  156.0505  130.3718  150.1212 LP  0  0  0  0  0  0  0  0  0  0  0  0  # atno 17370 bound_to 10713
  156.9391  130.9738  151.3519 LP  0  0  0  0  0  0  0  0  0  0  0  0  # atno 17371 bound_to 10713
  140.7556  134.3996  157.5534 LP  0  0  0  0  0  0  0  0  0  0  0  0  # atno 17394 bound_to 11000
  139.8858  134.8928  156.2624 LP  0  0  0  0  0  0  0  0  0  0  0  0  # atno 17395 bound_to 11000

$$$$
