AV-unprocessed.smi:2221|AV-procd|sdf|8984|dock3
  -GOLD-   2272012193D 1   1.00000     0.00000
 Structure written by MMmdl.
 53 54  0  0  0  0  0  0  0  0  2 V2000
  152.1755  145.4339  160.8802 C   0  0  0  0  0  0  0  0  0  0  0  0
  152.1085  144.1268  160.1187 C   0  0  0  0  0  0  0  0  0  0  0  0
  152.8211  142.9971  160.5637 C   0  0  0  0  0  0  0  0  0  0  0  0
  152.7165  141.8080  159.8159 C   0  0  0  0  0  0  0  0  0  0  0  0
  153.4564  140.5565  160.2388 C   0  0  0  0  0  0  0  0  0  0  0  0
  151.9626  141.7031  158.7006 N   0  0  0  0  0  0  0  0  0  0  0  0
  151.2721  142.7848  158.2626 C   0  0  0  0  0  0  0  0  0  0  0  0
  150.4528  142.7782  157.1025 N   0  0  0  0  0  0  0  0  0  0  0  0
  150.0420  141.7184  156.3843 C   0  0  0  0  0  0  0  0  0  0  0  0
  150.3352  140.5446  156.6114 O   0  0  0  0  0  0  0  0  0  0  0  0
  149.2406  142.0941  155.3769 N   0  0  0  0  0  0  0  0  0  0  0  0
  148.6070  141.1858  154.4231 C   0  0  0  0  0  0  0  0  0  0  0  0
  147.1737  141.6106  154.0317 C   0  0  0  0  0  0  0  0  0  0  0  0
  146.5249  142.4859  155.0413 N   0  3  2  0  0  0  0  0  0  0  0  0
  146.2113  141.7660  156.3006 C   0  0  0  0  0  0  0  0  0  0  0  0
  145.6667  142.7294  157.3705 C   0  0  0  0  0  0  0  0  0  0  0  0
  144.4115  143.4932  156.8820 C   0  0  2  0  0  0  0  0  0  0  0  0
  143.2197  142.6283  156.7724 N   0  0  0  0  0  0  0  0  0  0  0  0
  142.8897  141.9943  158.0476 C   0  0  0  0  0  0  0  0  0  0  0  0
  142.0303  143.3703  156.3600 C   0  0  0  0  0  0  0  0  0  0  0  0
  144.7876  144.1987  155.5559 C   0  0  0  0  0  0  0  0  0  0  0  0
  145.3434  143.2138  154.5128 C   0  0  0  0  0  0  0  0  0  0  0  0
  151.3247  144.0169  158.9523 C   0  0  0  0  0  0  0  0  0  0  0  0
  153.0638  145.4750  161.5111 H   0  0  0  0  0  0  0  0  0  0  0  0
  151.2969  145.5433  161.5163 H   0  0  0  0  0  0  0  0  0  0  0  0
  152.2100  146.2786  160.1916 H   0  0  0  0  0  0  0  0  0  0  0  0
  153.4311  143.0405  161.4543 H   0  0  0  0  0  0  0  0  0  0  0  0
  154.2540  140.7916  160.9442 H   0  0  0  0  0  0  0  0  0  0  0  0
  153.9038  140.0629  159.3754 H   0  0  0  0  0  0  0  0  0  0  0  0
  152.7704  139.8574  160.7176 H   0  0  0  0  0  0  0  0  0  0  0  0
  150.1296  143.6838  156.7959 H   0  0  0  0  0  0  0  0  0  0  0  0
  149.0610  143.0805  155.2550 H   0  0  0  0  0  0  0  0  0  0  0  0
  149.2384  141.1495  153.5354 H   0  0  0  0  0  0  0  0  0  0  0  0
  148.6006  140.1724  154.8275 H   0  0  0  0  0  0  0  0  0  0  0  0
  147.1711  142.0961  153.0548 H   0  0  0  0  0  0  0  0  0  0  0  0
  146.5752  140.7060  153.9178 H   0  0  0  0  0  0  0  0  0  0  0  0
  145.4904  140.9714  156.1014 H   0  0  0  0  0  0  0  0  0  0  0  0
  147.1141  141.2869  156.6815 H   0  0  0  0  0  0  0  0  0  0  0  0
  145.5006  142.2037  158.3088 H   0  0  0  0  0  0  0  0  0  0  0  0
  146.4447  143.4588  157.6006 H   0  0  0  0  0  0  0  0  0  0  0  0
  144.1783  144.2667  157.6157 H   0  0  0  0  0  0  0  0  0  0  0  0
  141.9587  141.4311  157.9711 H   0  0  0  0  0  0  0  0  0  0  0  0
  142.7706  142.7347  158.8400 H   0  0  0  0  0  0  0  0  0  0  0  0
  143.6492  141.2772  158.3536 H   0  0  0  0  0  0  0  0  0  0  0  0
  141.1459  142.7324  156.3875 H   0  0  0  0  0  0  0  0  0  0  0  0
  142.1135  143.7231  155.3333 H   0  0  0  0  0  0  0  0  0  0  0  0
  141.8495  144.2265  157.0114 H   0  0  0  0  0  0  0  0  0  0  0  0
  143.9644  144.7769  155.1396 H   0  0  0  0  0  0  0  0  0  0  0  0
  145.5591  144.9400  155.7686 H   0  0  0  0  0  0  0  0  0  0  0  0
  145.6189  143.7698  153.6169 H   0  0  0  0  0  0  0  0  0  0  0  0
  144.5728  142.5002  154.2169 H   0  0  0  0  0  0  0  0  0  0  0  0
  150.7687  144.8714  158.5942 H   0  0  0  0  0  0  0  0  0  0  0  0
  147.2125  143.1838  155.2867 H   0  0  0  0  0  0  0  0  0  0  0  0
  1  2  1  0  0  0  0
  1 24  1  0  0  0  0
  1 25  1  0  0  0  0
  1 26  1  0  0  0  0
  2 23  1  0  0  0  0
  2  3  2  0  0  0  0
  3  4  1  0  0  0  0
  3 27  1  0  0  0  0
  4  5  1  0  0  0  0
  4  6  2  0  0  0  0
  5 28  1  0  0  0  0
  5 29  1  0  0  0  0
  5 30  1  0  0  0  0
  6  7  1  0  0  0  0
  7  8  1  0  0  0  0
  7 23  2  0  0  0  0
  8  9  1  0  0  0  0
  8 31  1  0  0  0  0
  9 10  2  0  0  0  0
  9 11  1  0  0  0  0
 11 12  1  0  0  0  0
 11 32  1  0  0  0  0
 12 13  1  0  0  0  0
 12 33  1  0  0  0  0
 12 34  1  0  0  0  0
 13 14  1  0  0  0  0
 13 35  1  0  0  0  0
 13 36  1  0  0  0  0
 14 22  1  0  0  0  0
 14 15  1  0  0  0  0
 14 53  1  0  0  0  0
 15 16  1  0  0  0  0
 15 37  1  0  0  0  0
 15 38  1  0  0  0  0
 16 17  1  0  0  0  0
 16 39  1  0  0  0  0
 16 40  1  0  0  0  0
 17 18  1  0  0  0  0
 17 21  1  0  0  0  0
 17 41  1  0  0  0  0
 18 19  1  0  0  0  0
 18 20  1  0  0  0  0
 19 42  1  0  0  0  0
 19 43  1  0  0  0  0
 19 44  1  0  0  0  0
 20 45  1  0  0  0  0
 20 46  1  0  0  0  0
 20 47  1  0  0  0  0
 21 22  1  0  0  0  0
 21 48  1  0  0  0  0
 21 49  1  0  0  0  0
 22 50  1  0  0  0  0
 22 51  1  0  0  0  0
 23 52  1  0  0  0  0
M  CHG  1  14   1
M  END
> <s_m_source_file>
AV-unprocessed.smi

> <i_m_source_file_index>
2221

> <i_lp_mmshare_version>
43012

> <i_f3d_flags>
0

> <s_epik_input>
W0NIM11jMVtjSF1jKFtDSDNdKW5jKFtjSF0xKVtOSF1DKD1PKVtOSF1bQ0gyXVtDSDJdTjJbQ0gyXVtDSDJdW0NIXShOKFtDSDNdKVtDSDNdKVtDSDJdW0NIMl0y

> <s_epik_cmdline>
J2VwaWtfcHl0aG9uJywgJy1waCcsICc3LjAnLCAnLXRuJywgJzgnLCAnLW1hJywgJzIwMCcsICctbWV0YWxfYmluZGluZycsICctaW1hZScsICc8aW5maWxlLm1hZT4nLCAnLW9tYWUnLCAnPG91dGZpbGUubWFlPic=

> <r_epik_Ionization_Penalty>
1.32168

> <r_epik_Ionization_Penalty_Charging>
0.00219175

> <r_epik_Ionization_Penalty_Neutral>
1.31949

> <r_epik_State_Penalty>
1.51166

> <r_epik_Charging_Adjusted_Penalty>
1.51385

> <i_epik_Tot_Q>
1

> <i_epik_Tot_abs_Q>
1

> <r_epik_Metal_State_Penalty>
1.51167

> <b_epik_Metal_Only>
0

> <s_lp_Force_Field>
OPLS_2005

> <r_lp_Energy>
32.286

> <b_lp_Chiralities_Consistent>
1

> <s_lp_Variant>
AV-unprocessed.smi:2221-5

> <Gold.Version>
5.8.1

> <Gold.Id.Protein>
6NUR|6NUR_protein|mol2

> <Gold.PLP.Fitness>
52.7833

> <Gold.PLP.PLP>
-43.7300

> <Gold.PLP.part.hbond>
-2.6292

> <Gold.PLP.part.metal>
0.0000

> <Gold.PLP.part.buried>
-5.2754

> <Gold.PLP.part.nonpolar>
-35.2205

> <Gold.PLP.part.repulsive>
0.4653

> <Gold.PLP.ligand.clash>
0.0000

> <Gold.PLP.ligand.torsion>
0.5392

> <Gold.PLP.Chemscore.Hbond>
3.3670

> <Gold.PLP.Chemscore.CHOScore>
0.0000

> <Gold.PLP.Chemscore.Metal>
0.0000

> <Gold.Chemscore.Hbonds>
donor molecule, donor type, donor heavy atom, donor atom, acceptor molecule, acceptor atom, score
      L1  H     8    31       P1  8028  0.98
      L1  H    11    32       P1  8028  1.00
      L1  H    14    53       P1  8028  0.61

> <Gold.PLP.Chemscore.Internal.Correction>
0.0306

> <Gold.Rescore>
     Score         DG    S(hbond)    S(metal)    S(lipo)     H(rot)  DE(clash)    DE(int)     intcor
     17.59     -19.60       2.00        0.00      98.92       1.61       0.12       1.89       ----

> <Gold.Chemscore.Fitness>
17.5944

> <Gold.Chemscore.DG>
-19.5994

> <Gold.Chemscore.ZeroCoef>
-5.4800

> <Gold.Chemscore.Hbond>
1.9976

> <Gold.Chemscore.Metal>
0.0000

> <Gold.Chemscore.Lipo>
98.9198

> <Gold.Chemscore.Internal_Hbond>
0.0000

> <Gold.Chemscore.DEClash>
0.1156

> <Gold.Chemscore.DEInternal>
1.8894

> <Gold.Chemscore.Rot>
1.6119

> <Gold.Chemscore.Internal.Correction>
   9.000000E+99

> <Gold.Chemscore.Hbonds>
donor molecule, donor type, donor heavy atom, donor atom, acceptor molecule, acceptor atom, score
      L1  H     8    31       P1  8028  0.92
      L1  H    11    32       P1  8028  1.00
      L1  H    14    53       P1  8028  0.03

> <Gold.Chemscore.Hbond.Weighted>
-6.6721

> <Gold.Chemscore.Metal.Weighted>
-0.0000

> <Gold.Chemscore.Lipo.Weighted>
-11.5736

> <Gold.Chemscore.Internal_Hbond.Weighted>
0.0000

> <Gold.Chemscore.DEClash.Weighted>
0.1156

> <Gold.Chemscore.DEInternal.Weighted>
1.8894

> <Gold.Chemscore.Rot.Weighted>
4.1264

> <Gold.Chemscore.Internal.Correction.Weighted>
   9.000000E+99

> <Gold.Protein.RotatedTorsions>
[ 6907 6896 6895 6894 ] final  153.53 input  -60.11 | X-H torsion
[ 7974 7965 7964 7962 ] final  101.04 input  175.53 | X-H torsion
[ 8008 7997 7996 7995 ] final   45.05 input   59.86 | X-H torsion
[ 10167 10162 10161 10158 ] final   93.42 input  -65.29 | X-H torsion
[ 10718 10713 10712 10709 ] final   29.31 input   66.30 | X-H torsion
[ 10763 10752 10751 10750 ] final   24.29 input  -60.55 | X-H torsion
[ 11005 11000 10999 10996 ] final  -39.21 input  -57.11 | X-H torsion

> <Gold.Protein.ActiveResidues>
 VAL166  LYS551  ARG553  GLY616  TRP617  ASP618  TYR619  PRO620  LYS621  CYS622 
 ASP623  PHE694  ASN695  SER759  ASP760  ASP761  ALA762  ILE779  LEU786  VAL792 
 PHE793  MET794  SER795  GLU796  ALA797  LYS798  CYS799  TRP800  GLU811  SER814 

> <Gold.Protein.RotatedAtoms>
  152.0714  133.4108  159.4460 H   0  0  0  0  0  0  0  0  0  0  0  0  # atno 6907 bound_to 6896
  150.6863  134.3087  159.4746 H   0  0  0  0  0  0  0  0  0  0  0  0  # atno 6908 bound_to 6896
  152.0919  134.9401  160.0622 H   0  0  0  0  0  0  0  0  0  0  0  0  # atno 6909 bound_to 6896
  145.3776  139.2386  143.3421 H   0  0  0  0  0  0  0  0  0  0  0  0  # atno 7974 bound_to 7965
  155.3295  140.3401  155.4240 H   0  0  0  0  0  0  0  0  0  0  0  0  # atno 8008 bound_to 7997
  156.1869  140.1683  156.8205 H   0  0  0  0  0  0  0  0  0  0  0  0  # atno 8009 bound_to 7997
  154.5396  140.0727  156.8470 H   0  0  0  0  0  0  0  0  0  0  0  0  # atno 8010 bound_to 7997
  139.8182  144.6743  150.9553 H   0  0  0  0  0  0  0  0  0  0  0  0  # atno 10167 bound_to 10162
  157.2449  130.7087  149.6376 H   0  0  0  0  0  0  0  0  0  0  0  0  # atno 10718 bound_to 10713
  153.0775  135.6608  154.0116 H   0  0  0  0  0  0  0  0  0  0  0  0  # atno 10763 bound_to 10752
  153.9746  135.2961  155.3426 H   0  0  0  0  0  0  0  0  0  0  0  0  # atno 10764 bound_to 10752
  154.7166  135.5182  153.8818 H   0  0  0  0  0  0  0  0  0  0  0  0  # atno 10765 bound_to 10752
  141.0085  133.6920  156.2156 H   0  0  0  0  0  0  0  0  0  0  0  0  # atno 11005 bound_to 11000
  146.2857  140.4438  142.8759 LP  0  0  0  0  0  0  0  0  0  0  0  0  # atno 17320 bound_to 7965
  144.8530  140.7030  143.6156 LP  0  0  0  0  0  0  0  0  0  0  0  0  # atno 17321 bound_to 7965
  140.7814  143.4118  151.0981 LP  0  0  0  0  0  0  0  0  0  0  0  0  # atno 17342 bound_to 10162
  139.7780  143.8397  152.3132 LP  0  0  0  0  0  0  0  0  0  0  0  0  # atno 17343 bound_to 10162
  155.9668  130.4446  150.5468 LP  0  0  0  0  0  0  0  0  0  0  0  0  # atno 17370 bound_to 10713
  157.3340  131.0704  151.1839 LP  0  0  0  0  0  0  0  0  0  0  0  0  # atno 17371 bound_to 10713
  140.6773  134.4804  157.5588 LP  0  0  0  0  0  0  0  0  0  0  0  0  # atno 17394 bound_to 11000
  139.9076  134.8414  156.1646 LP  0  0  0  0  0  0  0  0  0  0  0  0  # atno 17395 bound_to 11000

$$$$
