AV-unprocessed.smi:1508|AV-procd|sdf|6089|dock7
  -GOLD-   22720 6213D 1   1.00000     0.00000
 Structure written by MMmdl.
 37 38  0  0  0  0  0  0  0  0  3 V2000
  146.6738  142.6804  154.1358 C   0  0  0  0  0  0  0  0  0  0  0  0
  146.7915  141.3987  154.9761 C   0  0  0  0  0  0  0  0  0  0  0  0
  147.2352  141.6235  156.4475 C   0  0  1  0  0  0  0  0  0  0  0  0
  147.0718  140.3545  157.3252 C   0  0  0  0  0  0  0  0  0  0  0  0
  145.8528  140.3948  158.1291 N   0  0  0  0  0  0  0  0  0  0  0  0
  145.4714  141.3789  158.9558 C   0  0  0  0  0  0  0  0  0  0  0  0
  146.1612  142.3940  159.0713 O   0  0  0  0  0  0  0  0  0  0  0  0
  144.3144  141.1200  159.6045 N   0  5  0  0  0  0  0  0  0  0  0  0
  144.0461  141.7352  160.7682 C   0  0  0  0  0  0  0  0  0  0  0  0
  142.8616  141.6107  161.3881 N   0  0  0  0  0  0  0  0  0  0  0  0
  142.7888  142.3268  162.5752 N   0  0  0  0  0  0  0  0  0  0  0  0
  143.9237  142.9823  162.8174 C   0  0  0  0  0  0  0  0  0  0  0  0
  145.1825  142.7881  161.6157 S   0  0  0  0  0  0  0  0  0  0  0  0
  148.6240  142.1675  156.5104 N   0  3  0  0  0  0  0  0  0  0  0  0
  149.1820  142.3272  157.8776 C   0  0  0  0  0  0  0  0  0  0  0  0
  150.6800  141.9999  157.8003 C   0  0  0  0  0  0  0  0  0  0  0  0
  150.9793  141.8781  156.3105 C   0  0  0  0  0  0  0  0  0  0  0  0
  149.6428  141.4394  155.7238 C   0  0  0  0  0  0  0  0  0  0  0  0
  146.3652  142.4425  153.1177 H   0  0  0  0  0  0  0  0  0  0  0  0
  147.6222  143.2114  154.0706 H   0  0  0  0  0  0  0  0  0  0  0  0
  145.9348  143.3661  154.5499 H   0  0  0  0  0  0  0  0  0  0  0  0
  145.8347  140.8776  154.9494 H   0  0  0  0  0  0  0  0  0  0  0  0
  147.4844  140.7181  154.4809 H   0  0  0  0  0  0  0  0  0  0  0  0
  146.5780  142.3859  156.8693 H   0  0  0  0  0  0  0  0  0  0  0  0
  147.1217  139.4553  156.7097 H   0  0  0  0  0  0  0  0  0  0  0  0
  147.8922  140.2736  158.0377 H   0  0  0  0  0  0  0  0  0  0  0  0
  145.2453  139.5903  158.0706 H   0  0  0  0  0  0  0  0  0  0  0  0
  144.0185  143.5871  163.7067 H   0  0  0  0  0  0  0  0  0  0  0  0
  149.0139  143.3488  158.2201 H   0  0  0  0  0  0  0  0  0  0  0  0
  148.6999  141.6545  158.5886 H   0  0  0  0  0  0  0  0  0  0  0  0
  151.2992  142.7541  158.2870 H   0  0  0  0  0  0  0  0  0  0  0  0
  150.8725  141.0461  158.2935 H   0  0  0  0  0  0  0  0  0  0  0  0
  151.2584  142.8526  155.9070 H   0  0  0  0  0  0  0  0  0  0  0  0
  151.7883  141.1794  156.0947 H   0  0  0  0  0  0  0  0  0  0  0  0
  149.5153  140.3639  155.8599 H   0  0  0  0  0  0  0  0  0  0  0  0
  149.5743  141.6621  154.6586 H   0  0  0  0  0  0  0  0  0  0  0  0
  148.5890  143.0963  156.1151 H   0  0  0  0  0  0  0  0  0  0  0  0
  1  2  1  0  0  0  0
  1 19  1  0  0  0  0
  1 20  1  0  0  0  0
  1 21  1  0  0  0  0
  2  3  1  0  0  0  0
  2 22  1  0  0  0  0
  2 23  1  0  0  0  0
  3  4  1  0  0  0  0
  3 14  1  0  0  0  0
  3 24  1  0  0  0  0
  4  5  1  0  0  0  0
  4 25  1  0  0  0  0
  4 26  1  0  0  0  0
  5  6  1  0  0  0  0
  5 27  1  0  0  0  0
  6  7  2  0  0  0  0
  6  8  1  0  0  0  0
  8  9  1  0  0  0  0
  9 13  1  0  0  0  0
  9 10  2  0  0  0  0
 10 11  1  0  0  0  0
 11 12  2  0  0  0  0
 12 13  1  0  0  0  0
 12 28  1  0  0  0  0
 14 18  1  0  0  0  0
 14 15  1  0  0  0  0
 14 37  1  0  0  0  0
 15 16  1  0  0  0  0
 15 29  1  0  0  0  0
 15 30  1  0  0  0  0
 16 17  1  0  0  0  0
 16 31  1  0  0  0  0
 16 32  1  0  0  0  0
 17 18  1  0  0  0  0
 17 33  1  0  0  0  0
 17 34  1  0  0  0  0
 18 35  1  0  0  0  0
 18 36  1  0  0  0  0
M  CHG  1   8  -1
M  CHG  1  14   1
M  END
> <s_m_source_file>
AV-unprocessed.smi

> <i_m_source_file_index>
1508

> <i_lp_mmshare_version>
43012

> <i_f3d_flags>
0

> <s_epik_input>
W0NIMl0xW0NIMl1bQ0gyXVtDSDJdTjFbQ0BIXShbQ0gyXVtDSDNdKVtDSDJdW05IXUMoPU8pW05IXWMybm5bY0hdczI=

> <s_epik_cmdline>
J2VwaWtfcHl0aG9uJywgJy1waCcsICc3LjAnLCAnLXRuJywgJzgnLCAnLW1hJywgJzIwMCcsICctbWV0YWxfYmluZGluZycsICctaW1hZScsICc8aW5maWxlLm1hZT4nLCAnLW9tYWUnLCAnPG91dGZpbGUubWFlPic=

> <r_lp_tautomer_probability>
1

> <r_epik_Ionization_Penalty>
3.98086

> <r_epik_Ionization_Penalty_Charging>
3.94833

> <r_epik_Ionization_Penalty_Neutral>
0.032525

> <r_epik_State_Penalty>
3.94643

> <r_epik_Charging_Adjusted_Penalty>
7.89477

> <i_epik_Tot_Q>
0

> <i_epik_Tot_abs_Q>
2

> <r_epik_Metal_State_Penalty>
0.605555

> <b_epik_Metal_Only>
1

> <s_lp_Force_Field>
OPLS_2005

> <r_lp_Energy>
25.5937

> <b_lp_Chiralities_Consistent>
1

> <s_lp_Variant>
AV-unprocessed.smi:1508-4

> <Gold.Version>
5.8.1

> <Gold.Id.Protein>
6NUR|6NUR_protein|mol2

> <Gold.PLP.Fitness>
32.3642

> <Gold.PLP.PLP>
-28.0380

> <Gold.PLP.part.hbond>
-3.6550

> <Gold.PLP.part.metal>
0.0000

> <Gold.PLP.part.buried>
-5.0019

> <Gold.PLP.part.nonpolar>
-20.1023

> <Gold.PLP.part.repulsive>
0.1846

> <Gold.PLP.ligand.clash>
0.0000

> <Gold.PLP.ligand.torsion>
0.9142

> <Gold.PLP.Chemscore.Hbond>
2.0000

> <Gold.PLP.Chemscore.CHOScore>
0.0000

> <Gold.PLP.Chemscore.Metal>
0.0000

> <Gold.Chemscore.Hbonds>
donor molecule, donor type, donor heavy atom, donor atom, acceptor molecule, acceptor atom, score
      L1  H    14    37       P1  8028  2.00

> <Gold.PLP.Chemscore.Internal.Correction>
0.1546

> <Gold.Rescore>
     Score         DG    S(hbond)    S(metal)    S(lipo)     H(rot)  DE(clash)    DE(int)     intcor
      6.54     -10.50       0.99        0.00      55.25       1.86       0.04       3.93       ----

> <Gold.Chemscore.Fitness>
6.5371

> <Gold.Chemscore.DG>
-10.4992

> <Gold.Chemscore.ZeroCoef>
-5.4800

> <Gold.Chemscore.Hbond>
0.9910

> <Gold.Chemscore.Metal>
0.0000

> <Gold.Chemscore.Lipo>
55.2509

> <Gold.Chemscore.Internal_Hbond>
0.0000

> <Gold.Chemscore.DEClash>
0.0361

> <Gold.Chemscore.DEInternal>
3.9260

> <Gold.Chemscore.Rot>
1.8575

> <Gold.Chemscore.Internal.Correction>
   9.000000E+99

> <Gold.Chemscore.Hbonds>
donor molecule, donor type, donor heavy atom, donor atom, acceptor molecule, acceptor atom, score
      L1  H    14    37       P1  8028  0.97

> <Gold.Chemscore.Hbond.Weighted>
-3.3099

> <Gold.Chemscore.Metal.Weighted>
-0.0000

> <Gold.Chemscore.Lipo.Weighted>
-6.4644

> <Gold.Chemscore.Internal_Hbond.Weighted>
0.0000

> <Gold.Chemscore.DEClash.Weighted>
0.0361

> <Gold.Chemscore.DEInternal.Weighted>
3.9260

> <Gold.Chemscore.Rot.Weighted>
4.7551

> <Gold.Chemscore.Internal.Correction.Weighted>
   9.000000E+99

> <Gold.Protein.RotatedTorsions>
[ 6907 6896 6895 6894 ] final -128.95 input  -60.11 | X-H torsion
[ 7974 7965 7964 7962 ] final  142.93 input  175.53 | X-H torsion
[ 8008 7997 7996 7995 ] final  163.57 input   59.86 | X-H torsion
[ 10167 10162 10161 10158 ] final   27.16 input  -65.29 | X-H torsion
[ 10718 10713 10712 10709 ] final  -22.93 input   66.30 | X-H torsion
[ 10763 10752 10751 10750 ] final -162.25 input  -60.55 | X-H torsion
[ 11005 11000 10999 10996 ] final  161.15 input  -57.11 | X-H torsion

> <Gold.Protein.ActiveResidues>
 VAL166  LYS551  ARG553  GLY616  TRP617  ASP618  TYR619  PRO620  LYS621  CYS622 
 ASP623  PHE694  ASN695  SER759  ASP760  ASP761  ALA762  ILE779  LEU786  VAL792 
 PHE793  MET794  SER795  GLU796  ALA797  LYS798  CYS799  TRP800  GLU811  SER814 

> <Gold.Protein.RotatedAtoms>
  150.9234  133.6853  159.2826 H   0  0  0  0  0  0  0  0  0  0  0  0  # atno 6907 bound_to 6896
  151.4300  135.1007  159.9649 H   0  0  0  0  0  0  0  0  0  0  0  0  # atno 6908 bound_to 6896
  152.4990  133.8666  159.7332 H   0  0  0  0  0  0  0  0  0  0  0  0  # atno 6909 bound_to 6896
  144.8964  139.5484  143.5774 H   0  0  0  0  0  0  0  0  0  0  0  0  # atno 7974 bound_to 7965
  156.1947  140.1720  156.8023 H   0  0  0  0  0  0  0  0  0  0  0  0  # atno 8008 bound_to 7997
  154.5514  140.0717  156.8705 H   0  0  0  0  0  0  0  0  0  0  0  0  # atno 8009 bound_to 7997
  155.3021  140.3362  155.4249 H   0  0  0  0  0  0  0  0  0  0  0  0  # atno 8010 bound_to 7997
  140.4962  144.0388  150.6315 H   0  0  0  0  0  0  0  0  0  0  0  0  # atno 10167 bound_to 10162
  156.4979  130.4581  149.6718 H   0  0  0  0  0  0  0  0  0  0  0  0  # atno 10718 bound_to 10713
  154.7231  135.3030  154.9015 H   0  0  0  0  0  0  0  0  0  0  0  0  # atno 10763 bound_to 10752
  153.9881  135.6722  153.4757 H   0  0  0  0  0  0  0  0  0  0  0  0  # atno 10764 bound_to 10752
  153.0851  135.4988  154.8499 H   0  0  0  0  0  0  0  0  0  0  0  0  # atno 10765 bound_to 10752
  140.2129  134.8254  157.3140 H   0  0  0  0  0  0  0  0  0  0  0  0  # atno 11005 bound_to 11000
  146.3084  139.7659  142.9039 LP  0  0  0  0  0  0  0  0  0  0  0  0  # atno 17320 bound_to 7965
  145.3692  141.0340  143.3241 LP  0  0  0  0  0  0  0  0  0  0  0  0  # atno 17321 bound_to 7965
  140.3671  143.2875  152.0319 LP  0  0  0  0  0  0  0  0  0  0  0  0  # atno 17342 bound_to 10162
  139.4862  144.6258  151.7167 LP  0  0  0  0  0  0  0  0  0  0  0  0  # atno 17343 bound_to 10162
  156.3361  130.7357  151.2295 LP  0  0  0  0  0  0  0  0  0  0  0  0  # atno 17370 bound_to 10713
  157.7466  131.0416  150.4655 LP  0  0  0  0  0  0  0  0  0  0  0  0  # atno 17371 bound_to 10713
  140.1931  134.4347  155.7704 LP  0  0  0  0  0  0  0  0  0  0  0  0  # atno 17394 bound_to 11000
  141.2225  133.7036  156.8061 LP  0  0  0  0  0  0  0  0  0  0  0  0  # atno 17395 bound_to 11000

$$$$
