AV-unprocessed.smi:2893|AV-procd|sdf|11123|dock6
  -GOLD-   2272015593D 1   1.00000     0.00000
 Structure written by MMmdl.
 37 39  0  0  0  0  0  0  0  0  1 V2000
  150.5973  134.1574  155.5146 C   0  0  0  0  0  0  0  0  0  0  0  0
  149.3525  134.9641  155.1220 C   0  0  0  0  0  0  0  0  0  0  0  0
  149.4772  136.3642  155.5090 N   0  0  0  0  0  0  0  0  0  0  0  0
  150.5078  137.1680  155.1947 C   0  0  0  0  0  0  0  0  0  0  0  0
  151.4840  136.7911  154.5451 O   0  0  0  0  0  0  0  0  0  0  0  0
  150.4294  138.5741  155.7264 C   0  0  0  0  0  0  0  0  0  0  0  0
  151.4235  139.5171  155.3865 C   0  0  0  0  0  0  0  0  0  0  0  0
  151.2953  140.8196  155.8983 C   0  0  0  0  0  0  0  0  0  0  0  0
  150.1796  141.0975  156.7103 C   0  0  0  0  0  0  0  0  0  0  0  0
  150.0277  142.3890  157.2339 N   0  0  0  0  0  0  0  0  0  0  0  0
  150.1699  142.6361  158.6656 C   0  0  1  0  0  0  0  0  0  0  0  0
  151.5203  142.1793  159.2228 C   0  0  0  0  0  0  0  0  0  0  0  0
  152.0203  143.4516  159.9222 C   0  0  1  0  0  0  0  0  0  0  0  0
  152.5090  144.4954  158.9098 C   0  0  0  0  0  0  0  0  0  0  0  0
  151.1932  144.9781  158.3029 C   0  0  0  0  0  0  0  0  0  0  0  0
  150.1602  144.1265  159.0615 C   0  0  2  0  0  0  0  0  0  0  0  0
  150.7946  144.0392  160.3263 O   0  0  0  0  0  0  0  0  0  0  0  0
  149.2548  140.1501  157.0005 N   0  0  0  0  0  0  0  0  0  0  0  0
  149.3759  138.9108  156.5133 N   0  0  0  0  0  0  0  0  0  0  0  0
  150.5049  133.1211  155.1891 H   0  0  0  0  0  0  0  0  0  0  0  0
  150.7433  134.1523  156.5952 H   0  0  0  0  0  0  0  0  0  0  0  0
  151.4959  134.5711  155.0562 H   0  0  0  0  0  0  0  0  0  0  0  0
  149.2130  134.9211  154.0417 H   0  0  0  0  0  0  0  0  0  0  0  0
  148.4587  134.5253  155.5684 H   0  0  0  0  0  0  0  0  0  0  0  0
  148.7248  136.7580  156.0561 H   0  0  0  0  0  0  0  0  0  0  0  0
  152.2612  139.2575  154.7556 H   0  0  0  0  0  0  0  0  0  0  0  0
  152.0291  141.5787  155.6701 H   0  0  0  0  0  0  0  0  0  0  0  0
  149.5556  143.0863  156.6768 H   0  0  0  0  0  0  0  0  0  0  0  0
  149.3794  142.1108  159.2037 H   0  0  0  0  0  0  0  0  0  0  0  0
  151.3780  141.3705  159.9402 H   0  0  0  0  0  0  0  0  0  0  0  0
  152.2184  141.8330  158.4590 H   0  0  0  0  0  0  0  0  0  0  0  0
  152.7204  143.2638  160.7366 H   0  0  0  0  0  0  0  0  0  0  0  0
  153.0217  145.3161  159.4128 H   0  0  0  0  0  0  0  0  0  0  0  0
  153.1874  144.0707  158.1691 H   0  0  0  0  0  0  0  0  0  0  0  0
  151.0456  146.0374  158.5153 H   0  0  0  0  0  0  0  0  0  0  0  0
  151.1482  144.8445  157.2219 H   0  0  0  0  0  0  0  0  0  0  0  0
  149.1647  144.5699  159.0950 H   0  0  0  0  0  0  0  0  0  0  0  0
  1  2  1  0  0  0  0
  1 20  1  0  0  0  0
  1 21  1  0  0  0  0
  1 22  1  0  0  0  0
  2  3  1  0  0  0  0
  2 23  1  0  0  0  0
  2 24  1  0  0  0  0
  3  4  1  0  0  0  0
  3 25  1  0  0  0  0
  4  5  2  0  0  0  0
  4  6  1  0  0  0  0
  6 19  1  0  0  0  0
  6  7  2  0  0  0  0
  7  8  1  0  0  0  0
  7 26  1  0  0  0  0
  8  9  2  0  0  0  0
  8 27  1  0  0  0  0
  9 10  1  0  0  0  0
  9 18  1  0  0  0  0
 10 11  1  0  0  0  0
 10 28  1  0  0  0  0
 11 16  1  0  0  0  0
 11 12  1  0  0  0  0
 11 29  1  0  0  0  0
 12 13  1  0  0  0  0
 12 30  1  0  0  0  0
 12 31  1  0  0  0  0
 13 17  1  0  0  0  0
 13 14  1  0  0  0  0
 13 32  1  0  0  0  0
 14 15  1  0  0  0  0
 14 33  1  0  0  0  0
 14 34  1  0  0  0  0
 15 16  1  0  0  0  0
 15 35  1  0  0  0  0
 15 36  1  0  0  0  0
 16 17  1  0  0  0  0
 16 37  1  0  0  0  0
 18 19  2  0  0  0  0
M  END
> <s_m_source_file>
AV-unprocessed.smi

> <i_m_source_file_index>
2893

> <i_lp_mmshare_version>
43012

> <i_f3d_flags>
0

> <s_epik_input>
W0NIM11bQ0gyXVtOSF1DKD1PKWMxW2NIXVtjSF1jKG5uMSlbTkhdW0NASF0oW0NIMl1bQ0BASF0yMylbQ0BASF0oTzMpW0NIMl1bQ0gyXTI=

> <s_epik_cmdline>
J2VwaWtfcHl0aG9uJywgJy1waCcsICc3LjAnLCAnLXRuJywgJzgnLCAnLW1hJywgJzIwMCcsICctbWV0YWxfYmluZGluZycsICctaW1hZScsICc8aW5maWxlLm1hZT4nLCAnLW9tYWUnLCAnPG91dGZpbGUubWFlPic=

> <r_lp_tautomer_probability>
1

> <r_epik_Ionization_Penalty>
0.00432031

> <r_epik_Ionization_Penalty_Charging>
0

> <r_epik_Ionization_Penalty_Neutral>
0.00432031

> <r_epik_State_Penalty>
-0

> <r_epik_Charging_Adjusted_Penalty>
0

> <i_epik_Tot_Q>
0

> <i_epik_Tot_abs_Q>
0

> <r_epik_Metal_State_Penalty>
-0

> <b_epik_Metal_Only>
0

> <s_lp_Force_Field>
OPLS_2005

> <r_lp_Energy>
51.8171

> <b_lp_Chiralities_Consistent>
1

> <s_lp_Variant>
AV-unprocessed.smi:2893-2

> <Gold.Version>
5.8.1

> <Gold.Id.Protein>
6NUR|6NUR_protein|mol2

> <Gold.PLP.Fitness>
37.8748

> <Gold.PLP.PLP>
-33.2936

> <Gold.PLP.part.hbond>
-1.9848

> <Gold.PLP.part.metal>
0.0000

> <Gold.PLP.part.buried>
-4.5799

> <Gold.PLP.part.nonpolar>
-26.8161

> <Gold.PLP.part.repulsive>
0.8515

> <Gold.PLP.ligand.clash>
0.0000

> <Gold.PLP.ligand.torsion>
0.7181

> <Gold.PLP.Chemscore.Hbond>
2.0000

> <Gold.PLP.Chemscore.CHOScore>
0.0000

> <Gold.PLP.Chemscore.Metal>
0.0000

> <Gold.Chemscore.Hbonds>
donor molecule, donor type, donor heavy atom, donor atom, acceptor molecule, acceptor atom, score
      L1  H    10    28       P1  8028  0.99
      P1  H 10752 10763       L1     5  1.00

> <Gold.PLP.Chemscore.Internal.Correction>
0.0174

> <Gold.Rescore>
     Score         DG    S(hbond)    S(metal)    S(lipo)     H(rot)  DE(clash)    DE(int)     intcor
     18.57     -19.36       1.98        0.00      88.48       1.21       0.09       0.70       ----

> <Gold.Chemscore.Fitness>
18.5706

> <Gold.Chemscore.DG>
-19.3568

> <Gold.Chemscore.ZeroCoef>
-5.4800

> <Gold.Chemscore.Hbond>
1.9796

> <Gold.Chemscore.Metal>
0.0000

> <Gold.Chemscore.Lipo>
88.4843

> <Gold.Chemscore.Internal_Hbond>
0.0000

> <Gold.Chemscore.DEClash>
0.0884

> <Gold.Chemscore.DEInternal>
0.6979

> <Gold.Chemscore.Rot>
1.2061

> <Gold.Chemscore.Internal.Correction>
   9.000000E+99

> <Gold.Chemscore.Hbonds>
donor molecule, donor type, donor heavy atom, donor atom, acceptor molecule, acceptor atom, score
      L1  H    10    28       P1  8028  0.92
      P1  H 10752 10763       L1     5  0.98

> <Gold.Chemscore.Hbond.Weighted>
-6.6118

> <Gold.Chemscore.Metal.Weighted>
-0.0000

> <Gold.Chemscore.Lipo.Weighted>
-10.3527

> <Gold.Chemscore.Internal_Hbond.Weighted>
0.0000

> <Gold.Chemscore.DEClash.Weighted>
0.0884

> <Gold.Chemscore.DEInternal.Weighted>
0.6979

> <Gold.Chemscore.Rot.Weighted>
3.0876

> <Gold.Chemscore.Internal.Correction.Weighted>
   9.000000E+99

> <Gold.Protein.RotatedTorsions>
[ 6907 6896 6895 6894 ] final  -98.62 input  -60.11 | X-H torsion
[ 7974 7965 7964 7962 ] final   69.91 input  175.53 | X-H torsion
[ 8008 7997 7996 7995 ] final  -95.55 input   59.86 | X-H torsion
[ 10167 10162 10161 10158 ] final  -32.95 input  -65.29 | X-H torsion
[ 10718 10713 10712 10709 ] final -163.34 input   66.30 | X-H torsion
[ 10763 10752 10751 10750 ] final   32.68 input  -60.55 | X-H torsion
[ 11005 11000 10999 10996 ] final   39.24 input  -57.11 | X-H torsion

> <Gold.Protein.ActiveResidues>
 VAL166  LYS551  ARG553  GLY616  TRP617  ASP618  TYR619  PRO620  LYS621  CYS622 
 ASP623  PHE694  ASN695  SER759  ASP760  ASP761  ALA762  ILE779  LEU786  VAL792 
 PHE793  MET794  SER795  GLU796  ALA797  LYS798  CYS799  TRP800  GLU811  SER814 

> <Gold.Protein.RotatedAtoms>
  150.7052  134.1167  159.4019 H   0  0  0  0  0  0  0  0  0  0  0  0  # atno 6907 bound_to 6896
  151.9153  135.0319  160.0527 H   0  0  0  0  0  0  0  0  0  0  0  0  # atno 6908 bound_to 6896
  152.2301  133.5016  159.5248 H   0  0  0  0  0  0  0  0  0  0  0  0  # atno 6909 bound_to 6896
  145.7846  139.2904  143.1246 H   0  0  0  0  0  0  0  0  0  0  0  0  # atno 7974 bound_to 7965
  154.7629  140.0479  157.0988 H   0  0  0  0  0  0  0  0  0  0  0  0  # atno 8008 bound_to 7997
  154.9916  140.3114  155.4884 H   0  0  0  0  0  0  0  0  0  0  0  0  # atno 8009 bound_to 7997
  156.2907  140.2217  156.5021 H   0  0  0  0  0  0  0  0  0  0  0  0  # atno 8010 bound_to 7997
  140.7213  143.3657  151.1876 H   0  0  0  0  0  0  0  0  0  0  0  0  # atno 10167 bound_to 10162
  156.6233  130.8899  151.2962 H   0  0  0  0  0  0  0  0  0  0  0  0  # atno 10718 bound_to 10713
  153.0250  135.6407  154.1392 H   0  0  0  0  0  0  0  0  0  0  0  0  # atno 10763 bound_to 10752
  154.1122  135.2852  155.3229 H   0  0  0  0  0  0  0  0  0  0  0  0  # atno 10764 bound_to 10752
  154.6323  135.5488  153.7757 H   0  0  0  0  0  0  0  0  0  0  0  0  # atno 10765 bound_to 10752
  140.2047  134.3828  155.8078 H   0  0  0  0  0  0  0  0  0  0  0  0  # atno 11005 bound_to 11000
  146.0039  140.8496  143.0005 LP  0  0  0  0  0  0  0  0  0  0  0  0  # atno 17320 bound_to 7965
  144.6791  140.2392  143.7346 LP  0  0  0  0  0  0  0  0  0  0  0  0  # atno 17321 bound_to 7965
  139.7218  143.9212  152.2988 LP  0  0  0  0  0  0  0  0  0  0  0  0  # atno 17342 bound_to 10162
  139.8971  144.6933  150.8706 LP  0  0  0  0  0  0  0  0  0  0  0  0  # atno 17343 bound_to 10162
  157.7221  130.9573  150.1482 LP  0  0  0  0  0  0  0  0  0  0  0  0  # atno 17370 bound_to 10713
  156.2294  130.3681  149.8463 LP  0  0  0  0  0  0  0  0  0  0  0  0  # atno 17371 bound_to 10713
  141.2227  133.7112  156.8317 LP  0  0  0  0  0  0  0  0  0  0  0  0  # atno 17394 bound_to 11000
  140.2016  134.8893  157.3175 LP  0  0  0  0  0  0  0  0  0  0  0  0  # atno 17395 bound_to 11000

$$$$
