AV-unprocessed.smi:109|AV-procd|sdf|1056|dock4
  -GOLD-   2262018123D 1   1.00000     0.00000
 Structure written by MMmdl.
 58 61  0  0  0  0  0  0  0  0  1 V2000
  142.2620  134.8881  158.3930 O   0  0  0  0  0  0  0  0  0  0  0  0
  143.0496  134.3971  159.4562 C   0  0  0  0  0  0  0  0  0  0  0  0
  144.1401  133.4619  158.9095 C   0  0  0  0  0  0  0  0  0  0  0  0
  145.5444  134.1058  158.9153 C   0  0  1  0  0  0  0  0  0  0  0  0
  145.6859  134.9977  157.7646 N   0  0  0  0  0  0  0  0  0  0  0  0
  145.6725  134.5260  156.4982 C   0  0  0  0  0  0  0  0  0  0  0  0
  146.4741  133.4969  156.1178 N   0  0  0  0  0  0  0  0  0  0  0  0
  146.4367  133.0492  154.8590 C   0  0  0  0  0  0  0  0  0  0  0  0
  145.6865  133.4792  153.8417 N   0  0  0  0  0  0  0  0  0  0  0  0
  144.8795  134.5124  154.2209 C   0  0  0  0  0  0  0  0  0  0  0  0
  144.8140  135.0887  155.5194 C   0  0  0  0  0  0  0  0  0  0  0  0
  143.8835  136.1195  155.5300 N   0  0  0  0  0  0  0  0  0  0  0  0
  143.4268  136.1441  154.3064 C   0  0  0  0  0  0  0  0  0  0  0  0
  143.9686  135.2052  153.4536 N   0  0  0  0  0  0  0  0  0  0  0  0
  143.6750  134.9561  152.0054 C   0  0  2  0  0  0  0  0  0  0  0  0
  143.7938  133.5815  151.7829 O   0  0  0  0  0  0  0  0  0  0  0  0
  144.8394  133.3037  150.8528 C   0  0  2  0  0  0  0  0  0  0  0  0
  145.5345  131.9725  151.1891 C   0  0  0  0  0  0  0  0  0  0  0  0
  146.3948  131.5886  150.1377 O   0  0  0  0  0  0  0  0  0  0  0  0
  145.7176  134.5645  150.8156 C   0  0  2  0  0  0  0  0  0  0  0  0
  146.7453  134.5240  151.7913 O   0  0  0  0  0  0  0  0  0  0  0  0
  144.6900  135.6567  151.0824 C   0  0  2  0  0  0  0  0  0  0  0  0
  145.2561  136.8542  151.5867 O   0  0  0  0  0  0  0  0  0  0  0  0
  145.8942  134.8502  160.2337 C   0  0  0  0  0  0  0  0  0  0  0  0
  147.3206  135.4412  160.2284 C   0  0  0  0  0  0  0  0  0  0  0  0
  147.5948  136.2572  161.5024 C   0  0  0  0  0  0  0  0  0  0  0  0
  147.3619  135.4130  162.7651 C   0  0  0  0  0  0  0  0  0  0  0  0
  145.9455  134.8171  162.7804 C   0  0  0  0  0  0  0  0  0  0  0  0
  145.6697  134.0020  161.5065 C   0  0  0  0  0  0  0  0  0  0  0  0
  142.6477  135.2955  151.8683 H   0  0  0  0  0  0  0  0  0  0  0  0
  144.3511  133.2074  149.8813 H   0  0  0  0  0  0  0  0  0  0  0  0
  146.1903  134.6913  149.8410 H   0  0  0  0  0  0  0  0  0  0  0  0
  144.1705  135.8845  150.1507 H   0  0  0  0  0  0  0  0  0  0  0  0
  142.0824  135.8026  158.5498 H   0  0  0  0  0  0  0  0  0  0  0  0
  143.4952  135.2397  159.9857 H   0  0  0  0  0  0  0  0  0  0  0  0
  142.4019  133.8740  160.1602 H   0  0  0  0  0  0  0  0  0  0  0  0
  144.1479  132.5373  159.4881 H   0  0  0  0  0  0  0  0  0  0  0  0
  143.8640  133.1826  157.8936 H   0  0  0  0  0  0  0  0  0  0  0  0
  146.2567  133.2876  158.8029 H   0  0  0  0  0  0  0  0  0  0  0  0
  145.9131  135.9571  157.9837 H   0  0  0  0  0  0  0  0  0  0  0  0
  147.1018  132.2284  154.6349 H   0  0  0  0  0  0  0  0  0  0  0  0
  142.6757  136.8542  153.9948 H   0  0  0  0  0  0  0  0  0  0  0  0
  146.0958  132.0340  152.1215 H   0  0  0  0  0  0  0  0  0  0  0  0
  144.7881  131.1890  151.3220 H   0  0  0  0  0  0  0  0  0  0  0  0
  147.2249  131.3305  150.5087 H   0  0  0  0  0  0  0  0  0  0  0  0
  147.4579  135.0712  151.4978 H   0  0  0  0  0  0  0  0  0  0  0  0
  144.8275  137.5865  151.1716 H   0  0  0  0  0  0  0  0  0  0  0  0
  145.2207  135.7057  160.3034 H   0  0  0  0  0  0  0  0  0  0  0  0
  148.0644  134.6486  160.1526 H   0  0  0  0  0  0  0  0  0  0  0  0
  147.4565  136.0779  159.3535 H   0  0  0  0  0  0  0  0  0  0  0  0
  148.6183  136.6324  161.4899 H   0  0  0  0  0  0  0  0  0  0  0  0
  146.9449  137.1329  161.5228 H   0  0  0  0  0  0  0  0  0  0  0  0
  148.0972  134.6085  162.8073 H   0  0  0  0  0  0  0  0  0  0  0  0
  147.5190  136.0229  163.6552 H   0  0  0  0  0  0  0  0  0  0  0  0
  145.8179  134.1851  163.6598 H   0  0  0  0  0  0  0  0  0  0  0  0
  145.2116  135.6192  162.8671 H   0  0  0  0  0  0  0  0  0  0  0  0
  144.6470  133.6248  161.5343 H   0  0  0  0  0  0  0  0  0  0  0  0
  146.3221  133.1286  161.4978 H   0  0  0  0  0  0  0  0  0  0  0  0
  1  2  1  0  0  0  0
  1 34  1  0  0  0  0
  2  3  1  0  0  0  0
  2 35  1  0  0  0  0
  2 36  1  0  0  0  0
  3  4  1  0  0  0  0
  3 37  1  0  0  0  0
  3 38  1  0  0  0  0
  4  5  1  0  0  0  0
  4 24  1  0  0  0  0
  4 39  1  0  0  0  0
  5  6  1  0  0  0  0
  5 40  1  0  0  0  0
  6 11  1  0  0  0  0
  6  7  2  0  0  0  0
  7  8  1  0  0  0  0
  8  9  2  0  0  0  0
  8 41  1  0  0  0  0
  9 10  1  0  0  0  0
 10 14  1  0  0  0  0
 10 11  2  0  0  0  0
 11 12  1  0  0  0  0
 12 13  2  0  0  0  0
 13 14  1  0  0  0  0
 13 42  1  0  0  0  0
 14 15  1  0  0  0  0
 15 30  1  0  0  0  0
 15 22  1  0  0  0  0
 15 16  1  0  0  0  0
 16 17  1  0  0  0  0
 17 31  1  0  0  0  0
 17 18  1  0  0  0  0
 17 20  1  0  0  0  0
 18 19  1  0  0  0  0
 18 43  1  0  0  0  0
 18 44  1  0  0  0  0
 19 45  1  0  0  0  0
 20 32  1  0  0  0  0
 20 21  1  0  0  0  0
 20 22  1  0  0  0  0
 21 46  1  0  0  0  0
 22 33  1  0  0  0  0
 22 23  1  0  0  0  0
 23 47  1  0  0  0  0
 24 29  1  0  0  0  0
 24 25  1  0  0  0  0
 24 48  1  0  0  0  0
 25 26  1  0  0  0  0
 25 49  1  0  0  0  0
 25 50  1  0  0  0  0
 26 27  1  0  0  0  0
 26 51  1  0  0  0  0
 26 52  1  0  0  0  0
 27 28  1  0  0  0  0
 27 53  1  0  0  0  0
 27 54  1  0  0  0  0
 28 29  1  0  0  0  0
 28 55  1  0  0  0  0
 28 56  1  0  0  0  0
 29 57  1  0  0  0  0
 29 58  1  0  0  0  0
M  END
> <s_m_source_file>
AV-unprocessed.smi

> <i_m_source_file_index>
109

> <i_lp_mmshare_version>
43012

> <i_f3d_flags>
0

> <s_epik_input>
W0NIMl0xW0NIMl1bQ0gyXVtDSDJdW0NIMl1bQ0hdMVtDQEhdKFtDSDJdW0NIMl1bT0hdKVtOSF1jKG5bY0hdbjIpYyhjMjMpbltjSF1uM1tDQEBIXTRPW0NASF0oW0NIMl1bT0hdKVtDQEBIXShbT0hdKVtDQEhdNFtPSF0=

> <s_epik_cmdline>
J2VwaWtfcHl0aG9uJywgJy1waCcsICc3LjAnLCAnLXRuJywgJzgnLCAnLW1hJywgJzIwMCcsICctbWV0YWxfYmluZGluZycsICctaW1hZScsICc8aW5maWxlLm1hZT4nLCAnLW9tYWUnLCAnPG91dGZpbGUubWFlPic=

> <r_lp_tautomer_probability>
1

> <r_epik_Ionization_Penalty>
0.000793976

> <r_epik_Ionization_Penalty_Charging>
0

> <r_epik_Ionization_Penalty_Neutral>
0.000793976

> <r_epik_State_Penalty>
-0

> <r_epik_Charging_Adjusted_Penalty>
0

> <i_epik_Tot_Q>
0

> <i_epik_Tot_abs_Q>
0

> <r_epik_Metal_State_Penalty>
-0

> <b_epik_Metal_Only>
0

> <s_epik_Chemistry_Notes>
This compound contains an acetal/aminal-like group ( X-CH(R)-Y where X, Y are N, S, or O) that may be acid/base labile, releasing an aldehyde.

> <s_lp_Force_Field>
OPLS_2005

> <r_lp_Energy>
58.3807

> <b_lp_Chiralities_Consistent>
1

> <s_lp_Variant>
AV-unprocessed.smi:109-26

> <Gold.Version>
5.8.1

> <Gold.Id.Protein>
6NUR|6NUR_protein|mol2

> <Gold.PLP.Fitness>
44.8385

> <Gold.PLP.PLP>
-35.5194

> <Gold.PLP.part.hbond>
-4.0000

> <Gold.PLP.part.metal>
0.0000

> <Gold.PLP.part.buried>
-6.9682

> <Gold.PLP.part.nonpolar>
-24.2801

> <Gold.PLP.part.repulsive>
0.2885

> <Gold.PLP.ligand.clash>
0.0000

> <Gold.PLP.ligand.torsion>
1.7631

> <Gold.PLP.Chemscore.Hbond>
3.9920

> <Gold.PLP.Chemscore.CHOScore>
0.0000

> <Gold.PLP.Chemscore.Metal>
0.0000

> <Gold.Chemscore.Hbonds>
donor molecule, donor type, donor heavy atom, donor atom, acceptor molecule, acceptor atom, score
      L1  H    19    45       P1 10747  0.98
      L1  H    21    46       P1  7948  1.00
      L1  H    23    47       P1 10171  1.00
      P1  H 11000 11005       L1     1  0.99

> <Gold.PLP.Chemscore.Internal.Correction>
0.8693

> <Gold.Rescore>
     Score         DG    S(hbond)    S(metal)    S(lipo)     H(rot)  DE(clash)    DE(int)     intcor
      8.29     -12.52       3.76        0.00      72.45       5.47       0.01       4.22       ----

> <Gold.Chemscore.Fitness>
8.2868

> <Gold.Chemscore.DG>
-12.5157

> <Gold.Chemscore.ZeroCoef>
-5.4800

> <Gold.Chemscore.Hbond>
3.7583

> <Gold.Chemscore.Metal>
0.0000

> <Gold.Chemscore.Lipo>
72.4477

> <Gold.Chemscore.Internal_Hbond>
0.0000

> <Gold.Chemscore.DEClash>
0.0127

> <Gold.Chemscore.DEInternal>
4.2162

> <Gold.Chemscore.Rot>
5.4662

> <Gold.Chemscore.Internal.Correction>
   9.000000E+99

> <Gold.Chemscore.Hbonds>
donor molecule, donor type, donor heavy atom, donor atom, acceptor molecule, acceptor atom, score
      L1  H    19    45       P1 10747  0.93
      L1  H    21    46       P1  7948  0.63
      L1  H    23    47       P1 10171  0.99
      P1  H 11000 11005       L1     1  0.33

> <Gold.Chemscore.Hbond.Weighted>
-12.5528

> <Gold.Chemscore.Metal.Weighted>
-0.0000

> <Gold.Chemscore.Lipo.Weighted>
-8.4764

> <Gold.Chemscore.Internal_Hbond.Weighted>
0.0000

> <Gold.Chemscore.DEClash.Weighted>
0.0127

> <Gold.Chemscore.DEInternal.Weighted>
4.2162

> <Gold.Chemscore.Rot.Weighted>
13.9935

> <Gold.Chemscore.Internal.Correction.Weighted>
   9.000000E+99

> <Gold.Protein.RotatedTorsions>
[ 6907 6896 6895 6894 ] final  -92.63 input  -60.11 | X-H torsion
[ 7974 7965 7964 7962 ] final  -58.69 input  175.53 | X-H torsion
[ 8008 7997 7996 7995 ] final  112.52 input   59.86 | X-H torsion
[ 10167 10162 10161 10158 ] final   41.72 input  -65.29 | X-H torsion
[ 10718 10713 10712 10709 ] final   83.59 input   66.30 | X-H torsion
[ 10763 10752 10751 10750 ] final   65.88 input  -60.55 | X-H torsion
[ 11005 11000 10999 10996 ] final -149.45 input  -57.11 | X-H torsion

> <Gold.Protein.ActiveResidues>
 VAL166  LYS551  ARG553  GLY616  TRP617  ASP618  TYR619  PRO620  LYS621  CYS622 
 ASP623  PHE694  ASN695  SER759  ASP760  ASP761  ALA762  ILE779  LEU786  VAL792 
 PHE793  MET794  SER795  GLU796  ALA797  LYS798  CYS799  TRP800  GLU811  SER814 

> <Gold.Protein.RotatedAtoms>
  150.6909  134.2092  159.4352 H   0  0  0  0  0  0  0  0  0  0  0  0  # atno 6907 bound_to 6896
  152.0054  134.9903  160.0576 H   0  0  0  0  0  0  0  0  0  0  0  0  # atno 6908 bound_to 6896
  152.1539  133.4504  159.4864 H   0  0  0  0  0  0  0  0  0  0  0  0  # atno 6909 bound_to 6896
  145.8364  140.8446  143.0057 H   0  0  0  0  0  0  0  0  0  0  0  0  # atno 7974 bound_to 7965
  156.2198  140.2998  155.9925 H   0  0  0  0  0  0  0  0  0  0  0  0  # atno 8008 bound_to 7997
  155.2512  140.0426  157.3004 H   0  0  0  0  0  0  0  0  0  0  0  0  # atno 8009 bound_to 7997
  154.5823  140.2378  155.8045 H   0  0  0  0  0  0  0  0  0  0  0  0  # atno 8010 bound_to 7997
  140.3615  144.2222  150.6138 H   0  0  0  0  0  0  0  0  0  0  0  0  # atno 10167 bound_to 10162
  157.6882  131.0097  150.2546 H   0  0  0  0  0  0  0  0  0  0  0  0  # atno 10718 bound_to 10713
  153.0115  135.5341  154.6736 H   0  0  0  0  0  0  0  0  0  0  0  0  # atno 10763 bound_to 10752
  154.5914  135.2859  155.0633 H   0  0  0  0  0  0  0  0  0  0  0  0  # atno 10764 bound_to 10752
  154.1725  135.6529  153.5065 H   0  0  0  0  0  0  0  0  0  0  0  0  # atno 10765 bound_to 10752
  140.7506  134.3411  157.5127 H   0  0  0  0  0  0  0  0  0  0  0  0  # atno 11005 bound_to 11000
  144.6736  140.0747  143.7471 LP  0  0  0  0  0  0  0  0  0  0  0  0  # atno 17320 bound_to 7965
  145.9514  139.2736  143.1210 LP  0  0  0  0  0  0  0  0  0  0  0  0  # atno 17321 bound_to 7965
  140.5122  143.2287  151.8518 LP  0  0  0  0  0  0  0  0  0  0  0  0  # atno 17342 bound_to 10162
  139.4813  144.4936  151.9153 LP  0  0  0  0  0  0  0  0  0  0  0  0  # atno 17343 bound_to 10162
  156.3137  130.3775  149.7638 LP  0  0  0  0  0  0  0  0  0  0  0  0  # atno 17370 bound_to 10713
  156.5231  130.8224  151.3210 LP  0  0  0  0  0  0  0  0  0  0  0  0  # atno 17371 bound_to 10713
  139.8788  134.9139  156.3095 LP  0  0  0  0  0  0  0  0  0  0  0  0  # atno 17394 bound_to 11000
  140.9754  133.7301  156.0595 LP  0  0  0  0  0  0  0  0  0  0  0  0  # atno 17395 bound_to 11000

$$$$
