AV-unprocessed.smi:203|AV-procd|sdf|1588|dock4
  -GOLD-   2262019483D 1   1.00000     0.00000
 Structure written by MMmdl.
 57 61  0  0  0  0  0  0  0  0  1 V2000
  145.8228  134.3515  163.0591 O   0  0  0  0  0  0  0  0  0  0  0  0
  146.1848  133.8814  161.9832 C   0  0  0  0  0  0  0  0  0  0  0  0
  147.5301  134.1845  161.3463 C   0  0  0  0  0  0  0  0  0  0  0  0
  147.6044  133.1986  160.1638 C   0  0  1  0  0  0  0  0  0  0  0  0
  148.6843  132.0831  160.3335 C   0  0  1  0  0  0  0  0  0  0  0  0
  148.4281  131.1835  161.5720 C   0  0  0  0  0  0  0  0  0  0  0  0
  149.4967  130.0921  161.7152 C   0  0  0  0  0  0  0  0  0  0  0  0
  149.5737  129.2669  160.4266 C   0  0  0  0  0  0  0  0  0  0  0  0
  149.8424  130.1816  159.2246 C   0  0  0  0  0  0  0  0  0  0  0  0
  148.8422  131.2449  159.1308 N   0  0  0  0  0  0  0  0  0  0  0  0
  148.9651  131.9029  157.9565 C   0  0  0  0  0  0  0  0  0  0  0  0
  150.1532  132.5060  157.7066 N   0  0  0  0  0  0  0  0  0  0  0  0
  150.3393  133.1610  156.5565 C   0  0  0  0  0  0  0  0  0  0  0  0
  149.4859  133.3307  155.5440 N   0  0  0  0  0  0  0  0  0  0  0  0
  148.2872  132.7314  155.7992 C   0  0  0  0  0  0  0  0  0  0  0  0
  147.9423  132.0033  156.9717 C   0  0  0  0  0  0  0  0  0  0  0  0
  146.6350  131.5413  156.8769 N   0  0  0  0  0  0  0  0  0  0  0  0
  146.2289  131.9739  155.7144 C   0  0  0  0  0  0  0  0  0  0  0  0
  147.1579  132.6965  155.0008 N   0  0  0  0  0  0  0  0  0  0  0  0
  146.9716  133.2934  153.6904 C   0  0  0  0  0  0  0  0  0  0  0  0
  145.5928  132.9555  153.0836 C   0  0  1  0  0  0  0  0  0  0  0  0
  144.5864  133.7750  153.6442 O   0  0  0  0  0  0  0  0  0  0  0  0
  145.5267  133.0756  151.5469 C   0  0  2  0  0  0  0  0  0  0  0  0
  144.1232  132.8967  150.9589 C   0  0  0  0  0  0  0  0  0  0  0  0
  144.3699  132.3094  149.5756 C   0  0  0  0  0  0  0  0  0  0  0  0
  145.8764  132.0491  149.5392 C   0  0  0  0  0  0  0  0  0  0  0  0
  146.2685  132.0502  150.9027 O   0  0  0  0  0  0  0  0  0  0  0  0
  146.1650  132.6585  160.0046 C   0  0  0  0  0  0  0  0  0  0  0  0
  145.4759  133.0554  161.2169 N   0  0  0  0  0  0  0  0  0  0  0  0
  147.5298  135.2176  160.9964 H   0  0  0  0  0  0  0  0  0  0  0  0
  148.3481  134.0724  162.0580 H   0  0  0  0  0  0  0  0  0  0  0  0
  147.8459  133.7932  159.2822 H   0  0  0  0  0  0  0  0  0  0  0  0
  149.6400  132.5819  160.4984 H   0  0  0  0  0  0  0  0  0  0  0  0
  148.4097  131.7760  162.4859 H   0  0  0  0  0  0  0  0  0  0  0  0
  147.4502  130.7076  161.4992 H   0  0  0  0  0  0  0  0  0  0  0  0
  150.4658  130.5478  161.9226 H   0  0  0  0  0  0  0  0  0  0  0  0
  149.2648  129.4467  162.5629 H   0  0  0  0  0  0  0  0  0  0  0  0
  150.3585  128.5147  160.5075 H   0  0  0  0  0  0  0  0  0  0  0  0
  148.6372  128.7280  160.2768 H   0  0  0  0  0  0  0  0  0  0  0  0
  150.8361  130.6231  159.3149 H   0  0  0  0  0  0  0  0  0  0  0  0
  149.8411  129.5874  158.3094 H   0  0  0  0  0  0  0  0  0  0  0  0
  151.3113  133.6140  156.4290 H   0  0  0  0  0  0  0  0  0  0  0  0
  145.2333  131.7784  155.3429 H   0  0  0  0  0  0  0  0  0  0  0  0
  147.1009  134.3727  153.7817 H   0  0  0  0  0  0  0  0  0  0  0  0
  147.7733  132.9401  153.0419 H   0  0  0  0  0  0  0  0  0  0  0  0
  145.3290  131.9326  153.3551 H   0  0  0  0  0  0  0  0  0  0  0  0
  143.9295  133.2170  154.0323 H   0  0  0  0  0  0  0  0  0  0  0  0
  145.9131  134.0455  151.2259 H   0  0  0  0  0  0  0  0  0  0  0  0
  143.5346  132.1957  151.5510 H   0  0  0  0  0  0  0  0  0  0  0  0
  143.5753  133.8385  150.9218 H   0  0  0  0  0  0  0  0  0  0  0  0
  143.8112  131.3806  149.4552 H   0  0  0  0  0  0  0  0  0  0  0  0
  144.0668  132.9890  148.7785 H   0  0  0  0  0  0  0  0  0  0  0  0
  146.1302  131.1080  149.0506 H   0  0  0  0  0  0  0  0  0  0  0  0
  146.3934  132.8555  149.0166 H   0  0  0  0  0  0  0  0  0  0  0  0
  145.6707  133.1196  159.1486 H   0  0  0  0  0  0  0  0  0  0  0  0
  146.1219  131.5782  159.8661 H   0  0  0  0  0  0  0  0  0  0  0  0
  144.5508  132.7237  161.4491 H   0  0  0  0  0  0  0  0  0  0  0  0
  1  2  2  0  0  0  0
  2 29  1  0  0  0  0
  2  3  1  0  0  0  0
  3  4  1  0  0  0  0
  3 30  1  0  0  0  0
  3 31  1  0  0  0  0
  4  5  1  0  0  0  0
  4 28  1  0  0  0  0
  4 32  1  0  0  0  0
  5 10  1  0  0  0  0
  5  6  1  0  0  0  0
  5 33  1  0  0  0  0
  6  7  1  0  0  0  0
  6 34  1  0  0  0  0
  6 35  1  0  0  0  0
  7  8  1  0  0  0  0
  7 36  1  0  0  0  0
  7 37  1  0  0  0  0
  8  9  1  0  0  0  0
  8 38  1  0  0  0  0
  8 39  1  0  0  0  0
  9 10  1  0  0  0  0
  9 40  1  0  0  0  0
  9 41  1  0  0  0  0
 10 11  1  0  0  0  0
 11 16  1  0  0  0  0
 11 12  2  0  0  0  0
 12 13  1  0  0  0  0
 13 14  2  0  0  0  0
 13 42  1  0  0  0  0
 14 15  1  0  0  0  0
 15 19  1  0  0  0  0
 15 16  2  0  0  0  0
 16 17  1  0  0  0  0
 17 18  2  0  0  0  0
 18 19  1  0  0  0  0
 18 43  1  0  0  0  0
 19 20  1  0  0  0  0
 20 21  1  0  0  0  0
 20 44  1  0  0  0  0
 20 45  1  0  0  0  0
 21 22  1  0  0  0  0
 21 23  1  0  0  0  0
 21 46  1  0  0  0  0
 22 47  1  0  0  0  0
 23 27  1  0  0  0  0
 23 24  1  0  0  0  0
 23 48  1  0  0  0  0
 24 25  1  0  0  0  0
 24 49  1  0  0  0  0
 24 50  1  0  0  0  0
 25 26  1  0  0  0  0
 25 51  1  0  0  0  0
 25 52  1  0  0  0  0
 26 27  1  0  0  0  0
 26 53  1  0  0  0  0
 26 54  1  0  0  0  0
 28 29  1  0  0  0  0
 28 55  1  0  0  0  0
 28 56  1  0  0  0  0
 29 57  1  0  0  0  0
M  END
> <s_m_source_file>
AV-unprocessed.smi

> <i_m_source_file_index>
203

> <i_lp_mmshare_version>
43012

> <i_f3d_flags>
0

> <s_epik_input>
Tz1DMVtDSDJdW0NASF0oW0NIMl1bTkhdMSlbQ0BASF0yW0NIMl1bQ0gyXVtDSDJdW0NIMl1OMmMobltjSF1uMyljKGMzNCluW2NIXW40W0NIMl1bQ0BIXShbT0hdKVtDQEBIXTVbQ0gyXVtDSDJdW0NIMl1PNQ==

> <s_epik_cmdline>
J2VwaWtfcHl0aG9uJywgJy1waCcsICc3LjAnLCAnLXRuJywgJzgnLCAnLW1hJywgJzIwMCcsICctbWV0YWxfYmluZGluZycsICctaW1hZScsICc8aW5maWxlLm1hZT4nLCAnLW9tYWUnLCAnPG91dGZpbGUubWFlPic=

> <r_lp_tautomer_probability>
1

> <r_epik_Ionization_Penalty>
0.00175146

> <r_epik_Ionization_Penalty_Charging>
0

> <r_epik_Ionization_Penalty_Neutral>
0.00175146

> <r_epik_State_Penalty>
0.00109045

> <r_epik_Charging_Adjusted_Penalty>
0.00109045

> <i_epik_Tot_Q>
0

> <i_epik_Tot_abs_Q>
0

> <r_epik_Metal_State_Penalty>
-0

> <b_epik_Metal_Only>
0

> <s_lp_Force_Field>
OPLS_2005

> <r_lp_Energy>
57.1274

> <b_lp_Chiralities_Consistent>
1

> <s_lp_Variant>
AV-unprocessed.smi:203-7

> <Gold.Version>
5.8.1

> <Gold.Id.Protein>
6NUR|6NUR_protein|mol2

> <Gold.PLP.Fitness>
41.7187

> <Gold.PLP.PLP>
-33.4919

> <Gold.PLP.part.hbond>
-3.0000

> <Gold.PLP.part.metal>
0.0000

> <Gold.PLP.part.buried>
-6.8908

> <Gold.PLP.part.nonpolar>
-23.6472

> <Gold.PLP.part.repulsive>
0.3662

> <Gold.PLP.ligand.clash>
0.0000

> <Gold.PLP.ligand.torsion>
0.5331

> <Gold.PLP.Chemscore.Hbond>
2.0000

> <Gold.PLP.Chemscore.CHOScore>
1.0000

> <Gold.PLP.Chemscore.Metal>
0.0000

> <Gold.Chemscore.Hbonds>
donor molecule, donor type, donor heavy atom, donor atom, acceptor molecule, acceptor atom, score
      L1  H    22    47       P1 10957  0.91
      P1  H  6896  6908       L1    12  1.00
      L1  C    18    43       P1 10957  0.83

> <Gold.PLP.Chemscore.Internal.Correction>
0.2930

> <Gold.Rescore>
     Score         DG    S(hbond)    S(metal)    S(lipo)     H(rot)  DE(clash)    DE(int)     intcor
     13.25     -14.36       1.91        0.00      80.79       2.72       0.20       0.91       ----

> <Gold.Chemscore.Fitness>
13.2497

> <Gold.Chemscore.DG>
-14.3639

> <Gold.Chemscore.ZeroCoef>
-5.4800

> <Gold.Chemscore.Hbond>
1.9124

> <Gold.Chemscore.Metal>
0.0000

> <Gold.Chemscore.Lipo>
80.7895

> <Gold.Chemscore.Internal_Hbond>
0.0000

> <Gold.Chemscore.DEClash>
0.2044

> <Gold.Chemscore.DEInternal>
0.9098

> <Gold.Chemscore.Rot>
2.7171

> <Gold.Chemscore.Internal.Correction>
   9.000000E+99

> <Gold.Chemscore.Hbonds>
donor molecule, donor type, donor heavy atom, donor atom, acceptor molecule, acceptor atom, score
      L1  H    22    47       P1 10957  0.87
      P1  H  6896  6908       L1    12  0.68

> <Gold.Chemscore.Hbond.Weighted>
-6.3873

> <Gold.Chemscore.Metal.Weighted>
-0.0000

> <Gold.Chemscore.Lipo.Weighted>
-9.4524

> <Gold.Chemscore.Internal_Hbond.Weighted>
0.0000

> <Gold.Chemscore.DEClash.Weighted>
0.2044

> <Gold.Chemscore.DEInternal.Weighted>
0.9098

> <Gold.Chemscore.Rot.Weighted>
6.9557

> <Gold.Chemscore.Internal.Correction.Weighted>
   9.000000E+99

> <Gold.Protein.RotatedTorsions>
[ 6907 6896 6895 6894 ] final   90.53 input  -60.11 | X-H torsion
[ 7974 7965 7964 7962 ] final -166.21 input  175.53 | X-H torsion
[ 8008 7997 7996 7995 ] final  -61.53 input   59.86 | X-H torsion
[ 10167 10162 10161 10158 ] final  137.91 input  -65.29 | X-H torsion
[ 10718 10713 10712 10709 ] final  108.58 input   66.30 | X-H torsion
[ 10763 10752 10751 10750 ] final    2.96 input  -60.55 | X-H torsion
[ 11005 11000 10999 10996 ] final  -35.16 input  -57.11 | X-H torsion

> <Gold.Protein.ActiveResidues>
 VAL166  LYS551  ARG553  GLY616  TRP617  ASP618  TYR619  PRO620  LYS621  CYS622 
 ASP623  PHE694  ASN695  SER759  ASP760  ASP761  ALA762  ILE779  LEU786  VAL792 
 PHE793  MET794  SER795  GLU796  ALA797  LYS798  CYS799  TRP800  GLU811  SER814 

> <Gold.Protein.RotatedAtoms>
  152.5445  134.1798  159.8630 H   0  0  0  0  0  0  0  0  0  0  0  0  # atno 6907 bound_to 6896
  151.1801  133.4723  159.2601 H   0  0  0  0  0  0  0  0  0  0  0  0  # atno 6908 bound_to 6896
  151.1187  135.0079  159.8583 H   0  0  0  0  0  0  0  0  0  0  0  0  # atno 6909 bound_to 6896
  144.7251  140.2701  143.6252 H   0  0  0  0  0  0  0  0  0  0  0  0  # atno 7974 bound_to 7965
  154.4453  140.1015  156.6446 H   0  0  0  0  0  0  0  0  0  0  0  0  # atno 8008 bound_to 7997
  155.5464  140.3484  155.4440 H   0  0  0  0  0  0  0  0  0  0  0  0  # atno 8009 bound_to 7997
  156.0560  140.1315  156.9985 H   0  0  0  0  0  0  0  0  0  0  0  0  # atno 8010 bound_to 7997
  139.5128  144.6383  151.5637 H   0  0  0  0  0  0  0  0  0  0  0  0  # atno 10167 bound_to 10162
  157.6580  131.0896  150.6326 H   0  0  0  0  0  0  0  0  0  0  0  0  # atno 10718 bound_to 10713
  153.2891  135.6947  153.7310 H   0  0  0  0  0  0  0  0  0  0  0  0  # atno 10763 bound_to 10752
  153.6268  135.3417  155.3030 H   0  0  0  0  0  0  0  0  0  0  0  0  # atno 10764 bound_to 10752
  154.8518  135.4399  154.1968 H   0  0  0  0  0  0  0  0  0  0  0  0  # atno 10765 bound_to 10752
  140.9774  133.7075  156.1625 H   0  0  0  0  0  0  0  0  0  0  0  0  # atno 11005 bound_to 11000
  145.8052  139.1980  143.2025 LP  0  0  0  0  0  0  0  0  0  0  0  0  # atno 17320 bound_to 7965
  146.0643  140.7937  142.9719 LP  0  0  0  0  0  0  0  0  0  0  0  0  # atno 17321 bound_to 7965
  140.6141  143.9382  150.6475 LP  0  0  0  0  0  0  0  0  0  0  0  0  # atno 17342 bound_to 10162
  140.2634  143.3507  152.1302 LP  0  0  0  0  0  0  0  0  0  0  0  0  # atno 17343 bound_to 10162
  156.6631  130.4518  149.5681 LP  0  0  0  0  0  0  0  0  0  0  0  0  # atno 17370 bound_to 10713
  156.2052  130.6645  151.1211 LP  0  0  0  0  0  0  0  0  0  0  0  0  # atno 17371 bound_to 10713
  140.7238  134.4329  157.5572 LP  0  0  0  0  0  0  0  0  0  0  0  0  # atno 17394 bound_to 11000
  139.8936  134.8727  156.2216 LP  0  0  0  0  0  0  0  0  0  0  0  0  # atno 17395 bound_to 11000

$$$$
