AV-unprocessed.smi:1947|AV-procd|sdf|7868|dock1
  -GOLD-   2272010 23D 1   1.00000     0.00000
 Structure written by MMmdl.
 39 40  0  0  0  0  0  0  0  0  1 V2000
  151.2076  140.4078  157.6171 C   0  0  0  0  0  0  0  0  0  0  0  0
  152.1348  141.4181  158.3119 C   0  0  1  0  0  0  0  0  0  0  0  0
  151.3175  142.5696  158.9310 C   0  0  0  0  0  0  0  0  0  0  0  0
  152.2194  143.5944  159.6348 C   0  0  0  0  0  0  0  0  0  0  0  0
  153.0919  142.9185  160.7013 C   0  0  0  0  0  0  0  0  0  0  0  0
  153.9180  141.7748  160.0948 C   0  0  0  0  0  0  0  0  0  0  0  0
  153.0214  140.7401  159.3812 C   0  0  2  0  0  0  0  0  0  0  0  0
  153.8396  139.7819  158.7226 O   0  0  0  0  0  0  0  0  0  0  0  0
  154.6503  139.0027  159.5900 C   0  0  0  0  0  0  0  0  0  0  0  0
  154.8641  137.6208  158.9562 C   0  0  0  0  0  0  0  0  0  0  0  0
  155.8374  137.6745  157.8709 N   0  0  0  0  0  0  0  0  0  0  0  0
  155.5884  137.3467  156.5955 C   0  0  0  0  0  0  0  0  0  0  0  0
  154.4816  136.9925  156.1902 O   0  0  0  0  0  0  0  0  0  0  0  0
  156.6956  137.4504  155.8431 N   0  0  0  0  0  0  0  0  0  0  0  0
  156.8386  137.1742  154.4606 C   0  0  0  0  0  0  0  0  0  0  0  0
  156.0843  136.2030  153.9325 N   0  0  0  0  0  0  0  0  0  0  0  0
  156.3240  136.0383  152.5738 N   0  0  0  0  0  0  0  0  0  0  0  0
  157.2510  136.8926  152.1301 C   0  0  0  0  0  0  0  0  0  0  0  0
  157.9249  137.9840  153.3275 S   0  0  0  0  0  0  0  0  0  0  0  0
  150.5395  139.9265  158.3318 H   0  0  0  0  0  0  0  0  0  0  0  0
  151.7771  139.6249  157.1158 H   0  0  0  0  0  0  0  0  0  0  0  0
  150.5912  140.8961  156.8621 H   0  0  0  0  0  0  0  0  0  0  0  0
  152.7892  141.8454  157.5505 H   0  0  0  0  0  0  0  0  0  0  0  0
  150.7340  143.0703  158.1576 H   0  0  0  0  0  0  0  0  0  0  0  0
  150.5990  142.1682  159.6470 H   0  0  0  0  0  0  0  0  0  0  0  0
  152.8551  144.0897  158.8998 H   0  0  0  0  0  0  0  0  0  0  0  0
  151.6096  144.3740  160.0922 H   0  0  0  0  0  0  0  0  0  0  0  0
  153.7543  143.6532  161.1600 H   0  0  0  0  0  0  0  0  0  0  0  0
  152.4593  142.5298  161.5004 H   0  0  0  0  0  0  0  0  0  0  0  0
  154.6368  142.1848  159.3842 H   0  0  0  0  0  0  0  0  0  0  0  0
  154.5027  141.3003  160.8824 H   0  0  0  0  0  0  0  0  0  0  0  0
  152.3734  140.2480  160.1095 H   0  0  0  0  0  0  0  0  0  0  0  0
  155.6102  139.4844  159.7768 H   0  0  0  0  0  0  0  0  0  0  0  0
  154.1523  138.8931  160.5542 H   0  0  0  0  0  0  0  0  0  0  0  0
  155.1891  136.9041  159.7119 H   0  0  0  0  0  0  0  0  0  0  0  0
  153.9215  137.2456  158.5568 H   0  0  0  0  0  0  0  0  0  0  0  0
  156.7759  137.9523  158.1180 H   0  0  0  0  0  0  0  0  0  0  0  0
  157.5358  137.7514  156.3147 H   0  0  0  0  0  0  0  0  0  0  0  0
  157.5407  136.8794  151.0900 H   0  0  0  0  0  0  0  0  0  0  0  0
  1  2  1  0  0  0  0
  1 20  1  0  0  0  0
  1 21  1  0  0  0  0
  1 22  1  0  0  0  0
  2  7  1  0  0  0  0
  2  3  1  0  0  0  0
  2 23  1  0  0  0  0
  3  4  1  0  0  0  0
  3 24  1  0  0  0  0
  3 25  1  0  0  0  0
  4  5  1  0  0  0  0
  4 26  1  0  0  0  0
  4 27  1  0  0  0  0
  5  6  1  0  0  0  0
  5 28  1  0  0  0  0
  5 29  1  0  0  0  0
  6  7  1  0  0  0  0
  6 30  1  0  0  0  0
  6 31  1  0  0  0  0
  7  8  1  0  0  0  0
  7 32  1  0  0  0  0
  8  9  1  0  0  0  0
  9 10  1  0  0  0  0
  9 33  1  0  0  0  0
  9 34  1  0  0  0  0
 10 11  1  0  0  0  0
 10 35  1  0  0  0  0
 10 36  1  0  0  0  0
 11 12  1  0  0  0  0
 11 37  1  0  0  0  0
 12 13  2  0  0  0  0
 12 14  1  0  0  0  0
 14 15  1  0  0  0  0
 14 38  1  0  0  0  0
 15 19  1  0  0  0  0
 15 16  2  0  0  0  0
 16 17  1  0  0  0  0
 17 18  2  0  0  0  0
 18 19  1  0  0  0  0
 18 39  1  0  0  0  0
M  END
> <s_m_source_file>
AV-unprocessed.smi

> <i_m_source_file_index>
1947

> <i_lp_mmshare_version>
43012

> <i_f3d_flags>
0

> <s_epik_input>
W0NIM11bQ0BASF0xW0NIMl1bQ0gyXVtDSDJdW0NIMl1bQ0BIXTFPW0NIMl1bQ0gyXVtOSF1DKD1PKVtOSF1jMm5uW2NIXXMy

> <s_epik_cmdline>
J2VwaWtfcHl0aG9uJywgJy1waCcsICc3LjAnLCAnLXRuJywgJzgnLCAnLW1hJywgJzIwMCcsICctbWV0YWxfYmluZGluZycsICctaW1hZScsICc8aW5maWxlLm1hZT4nLCAnLW9tYWUnLCAnPG91dGZpbGUubWFlPic=

> <r_lp_tautomer_probability>
1

> <r_epik_Ionization_Penalty>
0.00220897

> <r_epik_Ionization_Penalty_Charging>
0

> <r_epik_Ionization_Penalty_Neutral>
0.00220897

> <r_epik_State_Penalty>
-0

> <r_epik_Charging_Adjusted_Penalty>
0

> <i_epik_Tot_Q>
0

> <i_epik_Tot_abs_Q>
0

> <r_epik_Metal_State_Penalty>
0.345002

> <b_epik_Metal_Only>
0

> <s_lp_Force_Field>
OPLS_2005

> <r_lp_Energy>
7.32574

> <b_lp_Chiralities_Consistent>
1

> <s_lp_Variant>
AV-unprocessed.smi:1947-4

> <Gold.Version>
5.8.1

> <Gold.Id.Protein>
6NUR|6NUR_protein|mol2

> <Gold.PLP.Fitness>
41.0384

> <Gold.PLP.PLP>
-31.9554

> <Gold.PLP.part.hbond>
-3.1472

> <Gold.PLP.part.metal>
0.0000

> <Gold.PLP.part.buried>
-2.5050

> <Gold.PLP.part.nonpolar>
-25.5176

> <Gold.PLP.part.repulsive>
0.3146

> <Gold.PLP.ligand.clash>
0.0000

> <Gold.PLP.ligand.torsion>
0.4754

> <Gold.PLP.Chemscore.Hbond>
2.3200

> <Gold.PLP.Chemscore.CHOScore>
0.9988

> <Gold.PLP.Chemscore.Metal>
0.0000

> <Gold.Chemscore.Hbonds>
donor molecule, donor type, donor heavy atom, donor atom, acceptor molecule, acceptor atom, score
      P1  H  7997  8009       L1     8  1.00
      P1  H 10752 10763       L1    16  0.68
      P1  H 10752 10765       L1    13  0.37
      L1  C    18    39       P1 10674  1.00

> <Gold.PLP.Chemscore.Internal.Correction>
0.0773

> <Gold.Rescore>
     Score         DG    S(hbond)    S(metal)    S(lipo)     H(rot)  DE(clash)    DE(int)     intcor
     15.81     -17.64       2.10        0.00      86.47       1.94       0.01       1.83       ----

> <Gold.Chemscore.Fitness>
15.8090

> <Gold.Chemscore.DG>
-17.6398

> <Gold.Chemscore.ZeroCoef>
-5.4800

> <Gold.Chemscore.Hbond>
2.0974

> <Gold.Chemscore.Metal>
0.0000

> <Gold.Chemscore.Lipo>
86.4700

> <Gold.Chemscore.Internal_Hbond>
0.0000

> <Gold.Chemscore.DEClash>
0.0057

> <Gold.Chemscore.DEInternal>
1.8251

> <Gold.Chemscore.Rot>
1.9385

> <Gold.Chemscore.Internal.Correction>
   9.000000E+99

> <Gold.Chemscore.Hbonds>
donor molecule, donor type, donor heavy atom, donor atom, acceptor molecule, acceptor atom, score
      P1  H  7997  8009       L1     8  0.73
      P1  H 10752 10763       L1    16  0.26
      P1  H 10752 10765       L1    13  0.37

> <Gold.Chemscore.Hbond.Weighted>
-7.0053

> <Gold.Chemscore.Metal.Weighted>
-0.0000

> <Gold.Chemscore.Lipo.Weighted>
-10.1170

> <Gold.Chemscore.Internal_Hbond.Weighted>
0.0000

> <Gold.Chemscore.DEClash.Weighted>
0.0057

> <Gold.Chemscore.DEInternal.Weighted>
1.8251

> <Gold.Chemscore.Rot.Weighted>
4.9625

> <Gold.Chemscore.Internal.Correction.Weighted>
   9.000000E+99

> <Gold.Protein.RotatedTorsions>
[ 6907 6896 6895 6894 ] final -101.50 input  -60.11 | X-H torsion
[ 7974 7965 7964 7962 ] final -126.18 input  175.53 | X-H torsion
[ 8008 7997 7996 7995 ] final  146.62 input   59.86 | X-H torsion
[ 10167 10162 10161 10158 ] final  -32.48 input  -65.29 | X-H torsion
[ 10718 10713 10712 10709 ] final  -60.01 input   66.30 | X-H torsion
[ 10763 10752 10751 10750 ] final -113.74 input  -60.55 | X-H torsion
[ 11005 11000 10999 10996 ] final  -54.57 input  -57.11 | X-H torsion

> <Gold.Protein.ActiveResidues>
 VAL166  LYS551  ARG553  GLY616  TRP617  ASP618  TYR619  PRO620  LYS621  CYS622 
 ASP623  PHE694  ASN695  SER759  ASP760  ASP761  ALA762  ILE779  LEU786  VAL792 
 PHE793  MET794  SER795  GLU796  ALA797  LYS798  CYS799  TRP800  GLU811  SER814 

> <Gold.Protein.RotatedAtoms>
  150.7157  134.0724  159.3868 H   0  0  0  0  0  0  0  0  0  0  0  0  # atno 6907 bound_to 6896
  151.8706  135.0488  160.0488 H   0  0  0  0  0  0  0  0  0  0  0  0  # atno 6908 bound_to 6896
  152.2646  133.5292  159.5438 H   0  0  0  0  0  0  0  0  0  0  0  0  # atno 6909 bound_to 6896
  144.9899  140.7722  143.4560 H   0  0  0  0  0  0  0  0  0  0  0  0  # atno 7974 bound_to 7965
  156.2850  140.2177  156.5406 H   0  0  0  0  0  0  0  0  0  0  0  0  # atno 8008 bound_to 7997
  154.7373  140.0490  157.0802 H   0  0  0  0  0  0  0  0  0  0  0  0  # atno 8009 bound_to 7997
  155.0276  140.3131  155.4773 H   0  0  0  0  0  0  0  0  0  0  0  0  # atno 8010 bound_to 7997
  140.7220  143.3692  151.1812 H   0  0  0  0  0  0  0  0  0  0  0  0  # atno 10167 bound_to 10162
  156.1021  130.4185  150.0794 H   0  0  0  0  0  0  0  0  0  0  0  0  # atno 10718 bound_to 10713
  154.8410  135.4443  154.1397 H   0  0  0  0  0  0  0  0  0  0  0  0  # atno 10763 bound_to 10752
  153.2585  135.6934  153.7609 H   0  0  0  0  0  0  0  0  0  0  0  0  # atno 10764 bound_to 10752
  153.6894  135.3390  155.3174 H   0  0  0  0  0  0  0  0  0  0  0  0  # atno 10765 bound_to 10752
  141.1032  133.6616  156.4341 H   0  0  0  0  0  0  0  0  0  0  0  0  # atno 11005 bound_to 11000
  145.2300  139.2119  143.5048 LP  0  0  0  0  0  0  0  0  0  0  0  0  # atno 17320 bound_to 7965
  146.3429  140.2175  142.8591 LP  0  0  0  0  0  0  0  0  0  0  0  0  # atno 17321 bound_to 7965
  139.7259  143.9148  152.3002 LP  0  0  0  0  0  0  0  0  0  0  0  0  # atno 17342 bound_to 10162
  139.8921  144.6959  150.8758 LP  0  0  0  0  0  0  0  0  0  0  0  0  # atno 17343 bound_to 10162
  156.8779  130.9546  151.3602 LP  0  0  0  0  0  0  0  0  0  0  0  0  # atno 17370 bound_to 10713
  157.6192  130.8642  149.9081 LP  0  0  0  0  0  0  0  0  0  0  0  0  # atno 17371 bound_to 10713
  140.4968  134.6523  157.5233 LP  0  0  0  0  0  0  0  0  0  0  0  0  # atno 17394 bound_to 11000
  139.9892  134.7013  155.9720 LP  0  0  0  0  0  0  0  0  0  0  0  0  # atno 17395 bound_to 11000

$$$$
