AV-unprocessed.smi:3209|AV-procd|sdf|12270|dock1
  -GOLD-   2272018103D 1   1.00000     0.00000
 Structure written by MMmdl.
 37 39  0  0  0  0  0  0  0  0  2 V2000
  152.7459  144.4282  161.8272 C   0  0  0  0  0  0  0  0  0  0  0  0
  152.1504  144.2142  160.4776 C   0  0  0  0  0  0  0  0  0  0  0  0
  151.9584  143.0081  159.9362 N   0  0  0  0  0  0  0  0  0  0  0  0
  151.3895  143.0749  158.6604 C   0  0  0  0  0  0  0  0  0  0  0  0
  151.1041  141.8136  157.9033 C   0  0  0  0  0  0  0  0  0  0  0  0
  150.5727  142.0924  156.4910 C   0  0  0  0  0  0  0  0  0  0  0  0
  149.1059  142.2665  156.5016 N   0  3  0  0  0  0  0  0  0  0  0  0
  148.3416  141.1355  155.9296 C   0  0  2  0  0  0  0  0  0  0  0  0
  148.8356  140.7844  154.5082 C   0  0  0  0  0  0  0  0  0  0  0  0
  147.5598  140.9108  153.6560 C   0  0  1  0  0  0  0  0  0  0  0  0
  146.5876  139.7704  154.0094 C   0  0  0  0  0  0  0  0  0  0  0  0
  146.0801  140.1787  155.4055 C   0  0  0  0  0  0  0  0  0  0  0  0
  146.8539  141.4817  155.6822 C   0  0  2  0  0  0  0  0  0  0  0  0
  146.8811  142.1158  154.2945 C   0  0  0  0  0  0  0  0  0  0  0  0
  151.1461  144.3598  158.2432 C   0  0  0  0  0  0  0  0  0  0  0  0
  151.6265  145.5330  159.4380 S   0  0  0  0  0  0  0  0  0  0  0  0
  153.1551  143.4967  162.2196 H   0  0  0  0  0  0  0  0  0  0  0  0
  151.9845  144.7946  162.5159 H   0  0  0  0  0  0  0  0  0  0  0  0
  153.5485  145.1638  161.7685 H   0  0  0  0  0  0  0  0  0  0  0  0
  152.0095  141.2086  157.8378 H   0  0  0  0  0  0  0  0  0  0  0  0
  150.3802  141.2097  158.4523 H   0  0  0  0  0  0  0  0  0  0  0  0
  151.0364  142.9947  156.0898 H   0  0  0  0  0  0  0  0  0  0  0  0
  150.8423  141.2699  155.8283 H   0  0  0  0  0  0  0  0  0  0  0  0
  148.7945  142.4217  157.4497 H   0  0  0  0  0  0  0  0  0  0  0  0
  148.4436  140.2715  156.5884 H   0  0  0  0  0  0  0  0  0  0  0  0
  149.5941  141.4872  154.1595 H   0  0  0  0  0  0  0  0  0  0  0  0
  149.2673  139.7841  154.4561 H   0  0  0  0  0  0  0  0  0  0  0  0
  147.7553  141.0041  152.5873 H   0  0  0  0  0  0  0  0  0  0  0  0
  145.7614  139.7280  153.2985 H   0  0  0  0  0  0  0  0  0  0  0  0
  147.0773  138.7957  154.0122 H   0  0  0  0  0  0  0  0  0  0  0  0
  145.0055  140.3652  155.3814 H   0  0  0  0  0  0  0  0  0  0  0  0
  146.2677  139.4128  156.1589 H   0  0  0  0  0  0  0  0  0  0  0  0
  146.3921  142.0934  156.4575 H   0  0  0  0  0  0  0  0  0  0  0  0
  147.4782  143.0279  154.2430 H   0  0  0  0  0  0  0  0  0  0  0  0
  145.8872  142.3168  153.8902 H   0  0  0  0  0  0  0  0  0  0  0  0
  150.7152  144.6881  157.3089 H   0  0  0  0  0  0  0  0  0  0  0  0
  148.8952  143.0899  155.9558 H   0  0  0  0  0  0  0  0  0  0  0  0
  1  2  1  0  0  0  0
  1 17  1  0  0  0  0
  1 18  1  0  0  0  0
  1 19  1  0  0  0  0
  2 16  1  0  0  0  0
  2  3  2  0  0  0  0
  3  4  1  0  0  0  0
  4  5  1  0  0  0  0
  4 15  2  0  0  0  0
  5  6  1  0  0  0  0
  5 20  1  0  0  0  0
  5 21  1  0  0  0  0
  6  7  1  0  0  0  0
  6 22  1  0  0  0  0
  6 23  1  0  0  0  0
  7  8  1  0  0  0  0
  7 24  1  0  0  0  0
  7 37  1  0  0  0  0
  8 13  1  0  0  0  0
  8  9  1  0  0  0  0
  8 25  1  0  0  0  0
  9 10  1  0  0  0  0
  9 26  1  0  0  0  0
  9 27  1  0  0  0  0
 10 14  1  0  0  0  0
 10 11  1  0  0  0  0
 10 28  1  0  0  0  0
 11 12  1  0  0  0  0
 11 29  1  0  0  0  0
 11 30  1  0  0  0  0
 12 13  1  0  0  0  0
 12 31  1  0  0  0  0
 12 32  1  0  0  0  0
 13 14  1  0  0  0  0
 13 33  1  0  0  0  0
 14 34  1  0  0  0  0
 14 35  1  0  0  0  0
 15 16  1  0  0  0  0
 15 36  1  0  0  0  0
M  CHG  1   7   1
M  END
> <s_m_source_file>
AV-unprocessed.smi

> <i_m_source_file_index>
3209

> <i_lp_mmshare_version>
43012

> <i_f3d_flags>
0

> <s_epik_input>
W0NIM11jMW5jKFtjSF1zMSlbQ0gyXVtDSDJdW05IXVtDQEhdKFtDSDJdW0NASF0yMylbQ0BIXShbQ0gyXTMpW0NIMl1bQ0gyXTI=

> <s_epik_cmdline>
J2VwaWtfcHl0aG9uJywgJy1waCcsICc3LjAnLCAnLXRuJywgJzgnLCAnLW1hJywgJzIwMCcsICctbWV0YWxfYmluZGluZycsICctaW1hZScsICc8aW5maWxlLm1hZT4nLCAnLW9tYWUnLCAnPG91dGZpbGUubWFlPic=

> <r_lp_tautomer_probability>
1

> <r_epik_Ionization_Penalty>
0.000342479

> <r_epik_Ionization_Penalty_Charging>
0.000317129

> <r_epik_Ionization_Penalty_Neutral>
2.535e-05

> <r_epik_State_Penalty>
-0

> <r_epik_Charging_Adjusted_Penalty>
0.000317129

> <i_epik_Tot_Q>
1

> <i_epik_Tot_abs_Q>
1

> <r_epik_Metal_State_Penalty>
-0

> <b_epik_Metal_Only>
0

> <s_lp_Force_Field>
OPLS_2005

> <r_lp_Energy>
48.4774

> <b_lp_Chiralities_Consistent>
1

> <s_lp_Variant>
AV-unprocessed.smi:3209-3

> <Gold.Version>
5.8.1

> <Gold.Id.Protein>
6NUR|6NUR_protein|mol2

> <Gold.PLP.Fitness>
44.1736

> <Gold.PLP.PLP>
-36.2354

> <Gold.PLP.part.hbond>
-1.0000

> <Gold.PLP.part.metal>
0.0000

> <Gold.PLP.part.buried>
-4.6924

> <Gold.PLP.part.nonpolar>
-31.3442

> <Gold.PLP.part.repulsive>
0.0543

> <Gold.PLP.ligand.clash>
0.0000

> <Gold.PLP.ligand.torsion>
0.5528

> <Gold.PLP.Chemscore.Hbond>
2.0000

> <Gold.PLP.Chemscore.CHOScore>
0.9955

> <Gold.PLP.Chemscore.Metal>
0.0000

> <Gold.Chemscore.Hbonds>
donor molecule, donor type, donor heavy atom, donor atom, acceptor molecule, acceptor atom, score
      L1  H     7    37       P1  8028  2.00
      L1  C    15    36       P1  8028  1.00

> <Gold.PLP.Chemscore.Internal.Correction>
0.0573

> <Gold.Rescore>
     Score         DG    S(hbond)    S(metal)    S(lipo)     H(rot)  DE(clash)    DE(int)     intcor
     17.70     -18.65       1.00        0.00     112.75       1.31       0.35       0.60       ----

> <Gold.Chemscore.Fitness>
17.6997

> <Gold.Chemscore.DG>
-18.6527

> <Gold.Chemscore.ZeroCoef>
-5.4800

> <Gold.Chemscore.Hbond>
0.9991

> <Gold.Chemscore.Metal>
0.0000

> <Gold.Chemscore.Lipo>
112.7481

> <Gold.Chemscore.Internal_Hbond>
0.0000

> <Gold.Chemscore.DEClash>
0.3543

> <Gold.Chemscore.DEInternal>
0.5987

> <Gold.Chemscore.Rot>
1.3108

> <Gold.Chemscore.Internal.Correction>
   9.000000E+99

> <Gold.Chemscore.Hbonds>
donor molecule, donor type, donor heavy atom, donor atom, acceptor molecule, acceptor atom, score
      L1  H     7    37       P1  8028  0.98

> <Gold.Chemscore.Hbond.Weighted>
-3.3369

> <Gold.Chemscore.Metal.Weighted>
-0.0000

> <Gold.Chemscore.Lipo.Weighted>
-13.1915

> <Gold.Chemscore.Internal_Hbond.Weighted>
0.0000

> <Gold.Chemscore.DEClash.Weighted>
0.3543

> <Gold.Chemscore.DEInternal.Weighted>
0.5987

> <Gold.Chemscore.Rot.Weighted>
3.3558

> <Gold.Chemscore.Internal.Correction.Weighted>
   9.000000E+99

> <Gold.Protein.RotatedTorsions>
[ 6907 6896 6895 6894 ] final  -18.41 input  -60.11 | X-H torsion
[ 7974 7965 7964 7962 ] final  101.29 input  175.53 | X-H torsion
[ 8008 7997 7996 7995 ] final   83.58 input   59.86 | X-H torsion
[ 10167 10162 10161 10158 ] final   73.34 input  -65.29 | X-H torsion
[ 10718 10713 10712 10709 ] final -158.33 input   66.30 | X-H torsion
[ 10763 10752 10751 10750 ] final  115.57 input  -60.55 | X-H torsion
[ 11005 11000 10999 10996 ] final -157.20 input  -57.11 | X-H torsion

> <Gold.Protein.ActiveResidues>
 VAL166  LYS551  ARG553  GLY616  TRP617  ASP618  TYR619  PRO620  LYS621  CYS622 
 ASP623  PHE694  ASN695  SER759  ASP760  ASP761  ALA762  ILE779  LEU786  VAL792 
 PHE793  MET794  SER795  GLU796  ALA797  LYS798  CYS799  TRP800  GLU811  SER814 

> <Gold.Protein.RotatedAtoms>
  151.2786  135.0707  159.9160 H   0  0  0  0  0  0  0  0  0  0  0  0  # atno 6907 bound_to 6896
  152.5338  134.0055  159.7924 H   0  0  0  0  0  0  0  0  0  0  0  0  # atno 6908 bound_to 6896
  151.0305  133.5744  159.2692 H   0  0  0  0  0  0  0  0  0  0  0  0  # atno 6909 bound_to 6896
  145.3743  139.2392  143.3438 H   0  0  0  0  0  0  0  0  0  0  0  0  # atno 7974 bound_to 7965
  155.9258  140.3418  155.6209 H   0  0  0  0  0  0  0  0  0  0  0  0  # atno 8008 bound_to 7997
  155.7218  140.0784  157.2346 H   0  0  0  0  0  0  0  0  0  0  0  0  # atno 8009 bound_to 7997
  154.4077  140.1604  156.2398 H   0  0  0  0  0  0  0  0  0  0  0  0  # atno 8010 bound_to 7997
  140.0255  144.5507  150.7548 H   0  0  0  0  0  0  0  0  0  0  0  0  # atno 10167 bound_to 10162
  156.5526  130.8612  151.2784 H   0  0  0  0  0  0  0  0  0  0  0  0  # atno 10718 bound_to 10713
  153.5242  135.3591  155.2646 H   0  0  0  0  0  0  0  0  0  0  0  0  # atno 10763 bound_to 10752
  154.8732  135.4053  154.3225 H   0  0  0  0  0  0  0  0  0  0  0  0  # atno 10764 bound_to 10752
  153.3901  135.7071  153.6568 H   0  0  0  0  0  0  0  0  0  0  0  0  # atno 10765 bound_to 10752
  140.6672  134.4286  157.5233 H   0  0  0  0  0  0  0  0  0  0  0  0  # atno 11005 bound_to 11000
  146.2871  140.4400  142.8754 LP  0  0  0  0  0  0  0  0  0  0  0  0  # atno 17320 bound_to 7965
  144.8553  140.7061  143.6142 LP  0  0  0  0  0  0  0  0  0  0  0  0  # atno 17321 bound_to 7965
  140.7324  143.2705  151.3903 LP  0  0  0  0  0  0  0  0  0  0  0  0  # atno 17342 bound_to 10162
  139.6111  144.1097  152.2299 LP  0  0  0  0  0  0  0  0  0  0  0  0  # atno 17343 bound_to 10162
  157.7384  130.9813  150.2253 LP  0  0  0  0  0  0  0  0  0  0  0  0  # atno 17370 bound_to 10713
  156.2871  130.3741  149.7878 LP  0  0  0  0  0  0  0  0  0  0  0  0  # atno 17371 bound_to 10713
  139.8993  134.8593  156.1964 LP  0  0  0  0  0  0  0  0  0  0  0  0  # atno 17394 bound_to 11000
  141.0420  133.6933  156.1615 LP  0  0  0  0  0  0  0  0  0  0  0  0  # atno 17395 bound_to 11000

$$$$
