AV-unprocessed.smi:295|AV-procd|sdf|2257|dock2
  -GOLD-   2262022143D 1   1.00000     0.00000
 Structure written by MMmdl.
 35 36  0  0  0  0  0  0  0  0  1 V2000
  151.1041  140.1948  158.0803 C   0  0  0  0  0  0  0  0  0  0  0  0
  151.2043  141.6794  158.4771 C   0  0  1  0  0  0  0  0  0  0  0  0
  152.3102  141.8889  159.5311 C   0  0  0  0  0  0  0  0  0  0  0  0
  152.4230  143.3612  159.9556 C   0  0  0  0  0  0  0  0  0  0  0  0
  152.6650  144.2681  158.7411 C   0  0  0  0  0  0  0  0  0  0  0  0
  151.5638  144.0809  157.6875 C   0  0  0  0  0  0  0  0  0  0  0  0
  151.4342  142.6055  157.2569 C   0  0  2  0  0  0  0  0  0  0  0  0
  150.3351  142.4653  156.3063 N   0  0  0  0  0  0  0  0  0  0  0  0
  150.1725  141.4547  155.4377 C   0  0  0  0  0  0  0  0  0  0  0  0
  150.9844  140.5402  155.3009 O   0  0  0  0  0  0  0  0  0  0  0  0
  148.9001  141.4797  154.5863 C   0  0  0  0  0  0  0  0  0  0  0  0
  148.1228  140.2622  154.7438 N   0  0  0  0  0  0  0  0  0  0  0  0
  147.7939  139.3213  153.8524 C   0  0  0  0  0  0  0  0  0  0  0  0
  147.0441  138.3456  154.3492 N   0  0  0  0  0  0  0  0  0  0  0  0
  146.9520  138.7850  155.6379 C   0  0  0  0  0  0  0  0  0  0  0  0
  146.2031  138.0460  156.6401 C   0  0  0  0  0  0  0  0  0  0  0  0
  145.6067  137.4574  157.4383 N   0  0  0  0  0  0  0  0  0  0  0  0
  147.5756  139.9227  155.9366 N   0  0  0  0  0  0  0  0  0  0  0  0
  152.0130  139.8572  157.5813 H   0  0  0  0  0  0  0  0  0  0  0  0
  150.2672  140.0116  157.4058 H   0  0  0  0  0  0  0  0  0  0  0  0
  150.9538  139.5651  158.9573 H   0  0  0  0  0  0  0  0  0  0  0  0
  150.2553  141.9571  158.9390 H   0  0  0  0  0  0  0  0  0  0  0  0
  152.1108  141.2732  160.4088 H   0  0  0  0  0  0  0  0  0  0  0  0
  153.2681  141.5530  159.1311 H   0  0  0  0  0  0  0  0  0  0  0  0
  151.5080  143.6670  160.4646 H   0  0  0  0  0  0  0  0  0  0  0  0
  153.2325  143.4798  160.6764 H   0  0  0  0  0  0  0  0  0  0  0  0
  152.7050  145.3113  159.0561 H   0  0  0  0  0  0  0  0  0  0  0  0
  153.6363  144.0403  158.3002 H   0  0  0  0  0  0  0  0  0  0  0  0
  150.6137  144.4317  158.0930 H   0  0  0  0  0  0  0  0  0  0  0  0
  151.7786  144.7071  156.8207 H   0  0  0  0  0  0  0  0  0  0  0  0
  152.3667  142.3020  156.7765 H   0  0  0  0  0  0  0  0  0  0  0  0
  149.6179  143.1747  156.3412 H   0  0  0  0  0  0  0  0  0  0  0  0
  148.2856  142.3331  154.8757 H   0  0  0  0  0  0  0  0  0  0  0  0
  149.1526  141.6056  153.5324 H   0  0  0  0  0  0  0  0  0  0  0  0
  148.1032  139.3558  152.8181 H   0  0  0  0  0  0  0  0  0  0  0  0
  1  2  1  0  0  0  0
  1 19  1  0  0  0  0
  1 20  1  0  0  0  0
  1 21  1  0  0  0  0
  2  7  1  0  0  0  0
  2  3  1  0  0  0  0
  2 22  1  0  0  0  0
  3  4  1  0  0  0  0
  3 23  1  0  0  0  0
  3 24  1  0  0  0  0
  4  5  1  0  0  0  0
  4 25  1  0  0  0  0
  4 26  1  0  0  0  0
  5  6  1  0  0  0  0
  5 27  1  0  0  0  0
  5 28  1  0  0  0  0
  6  7  1  0  0  0  0
  6 29  1  0  0  0  0
  6 30  1  0  0  0  0
  7  8  1  0  0  0  0
  7 31  1  0  0  0  0
  8  9  1  0  0  0  0
  8 32  1  0  0  0  0
  9 10  2  0  0  0  0
  9 11  1  0  0  0  0
 11 12  1  0  0  0  0
 11 33  1  0  0  0  0
 11 34  1  0  0  0  0
 12 18  1  0  0  0  0
 12 13  1  0  0  0  0
 13 14  2  0  0  0  0
 13 35  1  0  0  0  0
 14 15  1  0  0  0  0
 15 16  1  0  0  0  0
 15 18  2  0  0  0  0
 16 17  3  0  0  0  0
M  END
> <s_m_source_file>
AV-unprocessed.smi

> <i_m_source_file_index>
295

> <i_lp_mmshare_version>
43012

> <i_f3d_flags>
0

> <s_epik_input>
W0NIM11bQ0BASF0xW0NIMl1bQ0gyXVtDSDJdW0NIMl1bQ0BIXTFbTkhdQyg9TylbQ0gyXW4yW2NIXW5jKG4yKUMjTg==

> <s_epik_cmdline>
J2VwaWtfcHl0aG9uJywgJy1waCcsICc3LjAnLCAnLXRuJywgJzgnLCAnLW1hJywgJzIwMCcsICctbWV0YWxfYmluZGluZycsICctaW1hZScsICc8aW5maWxlLm1hZT4nLCAnLW9tYWUnLCAnPG91dGZpbGUubWFlPic=

> <r_lp_tautomer_probability>
1

> <r_epik_Ionization_Penalty>
5.31112e-08

> <r_epik_Ionization_Penalty_Charging>
0

> <r_epik_Ionization_Penalty_Neutral>
5.31112e-08

> <r_epik_State_Penalty>
-0

> <r_epik_Charging_Adjusted_Penalty>
0

> <i_epik_Tot_Q>
0

> <i_epik_Tot_abs_Q>
0

> <r_epik_Metal_State_Penalty>
-0

> <b_epik_Metal_Only>
0

> <s_lp_Force_Field>
OPLS_2005

> <r_lp_Energy>
13.6203

> <b_lp_Chiralities_Consistent>
1

> <s_lp_Variant>
AV-unprocessed.smi:295-4

> <Gold.Version>
5.8.1

> <Gold.Id.Protein>
6NUR|6NUR_protein|mol2

> <Gold.PLP.Fitness>
39.8977

> <Gold.PLP.PLP>
-31.6434

> <Gold.PLP.part.hbond>
-2.0000

> <Gold.PLP.part.metal>
0.0000

> <Gold.PLP.part.buried>
-3.4695

> <Gold.PLP.part.nonpolar>
-26.0860

> <Gold.PLP.part.repulsive>
0.2643

> <Gold.PLP.ligand.clash>
0.0000

> <Gold.PLP.ligand.torsion>
0.2929

> <Gold.PLP.Chemscore.Hbond>
1.9440

> <Gold.PLP.Chemscore.CHOScore>
1.0000

> <Gold.PLP.Chemscore.Metal>
0.0000

> <Gold.Chemscore.Hbonds>
donor molecule, donor type, donor heavy atom, donor atom, acceptor molecule, acceptor atom, score
      L1  H     8    32       P1  8028  0.99
      P1  H  7989  7998       L1    10  0.94
      L1  C    13    35       P1  7957  1.00

> <Gold.PLP.Chemscore.Internal.Correction>
0.0081

> <Gold.Rescore>
     Score         DG    S(hbond)    S(metal)    S(lipo)     H(rot)  DE(clash)    DE(int)     intcor
     13.03     -14.90       1.59        0.00      77.84       1.95       0.28       1.59       ----

> <Gold.Chemscore.Fitness>
13.0256

> <Gold.Chemscore.DG>
-14.8957

> <Gold.Chemscore.ZeroCoef>
-5.4800

> <Gold.Chemscore.Hbond>
1.5851

> <Gold.Chemscore.Metal>
0.0000

> <Gold.Chemscore.Lipo>
77.8351

> <Gold.Chemscore.Internal_Hbond>
0.0000

> <Gold.Chemscore.DEClash>
0.2842

> <Gold.Chemscore.DEInternal>
1.5859

> <Gold.Chemscore.Rot>
1.9474

> <Gold.Chemscore.Internal.Correction>
   9.000000E+99

> <Gold.Chemscore.Hbonds>
donor molecule, donor type, donor heavy atom, donor atom, acceptor molecule, acceptor atom, score
      L1  H     8    32       P1  8028  0.93
      P1  H  7989  7998       L1    10  0.27

> <Gold.Chemscore.Hbond.Weighted>
-5.2942

> <Gold.Chemscore.Metal.Weighted>
-0.0000

> <Gold.Chemscore.Lipo.Weighted>
-9.1067

> <Gold.Chemscore.Internal_Hbond.Weighted>
0.0000

> <Gold.Chemscore.DEClash.Weighted>
0.2842

> <Gold.Chemscore.DEInternal.Weighted>
1.5859

> <Gold.Chemscore.Rot.Weighted>
4.9852

> <Gold.Chemscore.Internal.Correction.Weighted>
   9.000000E+99

> <Gold.Protein.RotatedTorsions>
[ 6907 6896 6895 6894 ] final  -40.73 input  -60.11 | X-H torsion
[ 7974 7965 7964 7962 ] final   98.71 input  175.53 | X-H torsion
[ 8008 7997 7996 7995 ] final  109.00 input   59.86 | X-H torsion
[ 10167 10162 10161 10158 ] final    3.18 input  -65.29 | X-H torsion
[ 10718 10713 10712 10709 ] final  141.10 input   66.30 | X-H torsion
[ 10763 10752 10751 10750 ] final  -96.73 input  -60.55 | X-H torsion
[ 11005 11000 10999 10996 ] final  -73.47 input  -57.11 | X-H torsion

> <Gold.Protein.ActiveResidues>
 VAL166  LYS551  ARG553  GLY616  TRP617  ASP618  TYR619  PRO620  LYS621  CYS622 
 ASP623  PHE694  ASN695  SER759  ASP760  ASP761  ALA762  ILE779  LEU786  VAL792 
 PHE793  MET794  SER795  GLU796  ALA797  LYS798  CYS799  TRP800  GLU811  SER814 

> <Gold.Protein.RotatedAtoms>
  150.9750  134.9116  159.7810 H   0  0  0  0  0  0  0  0  0  0  0  0  # atno 6907 bound_to 6896
  152.5203  134.3488  159.9253 H   0  0  0  0  0  0  0  0  0  0  0  0  # atno 6908 bound_to 6896
  151.3496  133.3889  159.2713 H   0  0  0  0  0  0  0  0  0  0  0  0  # atno 6909 bound_to 6896
  145.4086  139.2337  143.3260 H   0  0  0  0  0  0  0  0  0  0  0  0  # atno 7974 bound_to 7965
  156.1946  140.3066  155.9401 H   0  0  0  0  0  0  0  0  0  0  0  0  # atno 8008 bound_to 7997
  155.3096  140.0450  157.3051 H   0  0  0  0  0  0  0  0  0  0  0  0  # atno 8009 bound_to 7997
  154.5493  140.2286  155.8520 H   0  0  0  0  0  0  0  0  0  0  0  0  # atno 8010 bound_to 7997
  140.6599  143.7332  150.7719 H   0  0  0  0  0  0  0  0  0  0  0  0  # atno 10167 bound_to 10162
  157.3958  131.1010  151.0601 H   0  0  0  0  0  0  0  0  0  0  0  0  # atno 10718 bound_to 10713
  154.7266  135.5072  153.8896 H   0  0  0  0  0  0  0  0  0  0  0  0  # atno 10763 bound_to 10752
  153.0910  135.6659  153.9862 H   0  0  0  0  0  0  0  0  0  0  0  0  # atno 10764 bound_to 10752
  153.9673  135.3042  155.3409 H   0  0  0  0  0  0  0  0  0  0  0  0  # atno 10765 bound_to 10752
  141.1623  133.6879  156.7217 H   0  0  0  0  0  0  0  0  0  0  0  0  # atno 11005 bound_to 11000
  146.2716  140.4794  142.8812 LP  0  0  0  0  0  0  0  0  0  0  0  0  # atno 17320 bound_to 7965
  144.8324  140.6729  143.6282 LP  0  0  0  0  0  0  0  0  0  0  0  0  # atno 17321 bound_to 7965
  140.0999  143.4798  152.2431 LP  0  0  0  0  0  0  0  0  0  0  0  0  # atno 17342 bound_to 10162
  139.5830  144.7519  151.3592 LP  0  0  0  0  0  0  0  0  0  0  0  0  # atno 17343 bound_to 10162
  157.1618  130.6229  149.5613 LP  0  0  0  0  0  0  0  0  0  0  0  0  # atno 17370 bound_to 10713
  155.9810  130.4814  150.6804 LP  0  0  0  0  0  0  0  0  0  0  0  0  # atno 17371 bound_to 10713
  140.2811  134.8316  157.3934 LP  0  0  0  0  0  0  0  0  0  0  0  0  # atno 17394 bound_to 11000
  140.1432  134.4944  155.8015 LP  0  0  0  0  0  0  0  0  0  0  0  0  # atno 17395 bound_to 11000

$$$$
