AV-unprocessed.smi:634|AV-procd|sdf|3134|dock8
  -GOLD-   22720 0 63D 1   1.00000     0.00000
 Structure written by MMmdl.
 33 34  0  0  0  0  0  0  0  0  1 V2000
  153.7224  141.8936  160.6794 C   0  0  0  0  0  0  0  0  0  0  0  0
  152.9092  142.4703  159.5716 C   0  0  0  0  0  0  0  0  0  0  0  0
  151.9092  141.9639  158.7895 C   0  0  0  0  0  0  0  0  0  0  0  0
  151.5864  143.0537  157.9375 C   0  0  0  0  0  0  0  0  0  0  0  0
  150.5694  142.9346  156.9558 N   0  0  0  0  0  0  0  0  0  0  0  0
  149.8853  141.8292  156.6145 C   0  0  0  0  0  0  0  0  0  0  0  0
  150.0322  140.7212  157.1304 O   0  0  0  0  0  0  0  0  0  0  0  0
  149.0100  142.0884  155.6284 N   0  0  0  0  0  0  0  0  0  0  0  0
  148.0795  141.1606  154.9696 C   0  0  2  0  0  0  0  0  0  0  0  0
  148.8483  139.9727  154.3520 C   0  0  0  0  0  0  0  0  0  0  0  0
  147.3572  141.9538  153.8536 C   0  0  0  0  0  0  0  0  0  0  0  0
  146.2910  142.8645  154.4737 C   0  0  0  0  0  0  0  0  0  0  0  0
  145.6576  141.9575  155.9298 S   0  0  0  0  0  0  0  0  0  0  0  0
  145.7854  142.8150  157.1178 O   0  0  0  0  0  0  0  0  0  0  0  0
  144.3779  141.3164  155.5917 O   0  0  0  0  0  0  0  0  0  0  0  0
  146.9776  140.6840  155.9466 C   0  0  0  0  0  0  0  0  0  0  0  0
  152.3227  144.1278  158.1777 N   0  0  0  0  0  0  0  0  0  0  0  0
  153.1744  143.7591  159.2256 O   0  0  0  0  0  0  0  0  0  0  0  0
  153.2643  140.9831  161.0661 H   0  0  0  0  0  0  0  0  0  0  0  0
  153.8131  142.6014  161.5034 H   0  0  0  0  0  0  0  0  0  0  0  0
  154.7259  141.6469  160.3329 H   0  0  0  0  0  0  0  0  0  0  0  0
  151.4805  140.9734  158.8246 H   0  0  0  0  0  0  0  0  0  0  0  0
  150.3443  143.7810  156.4546 H   0  0  0  0  0  0  0  0  0  0  0  0
  148.9812  143.0391  155.2901 H   0  0  0  0  0  0  0  0  0  0  0  0
  148.1849  139.3314  153.7708 H   0  0  0  0  0  0  0  0  0  0  0  0
  149.3089  139.3429  155.1131 H   0  0  0  0  0  0  0  0  0  0  0  0
  149.6380  140.3167  153.6833 H   0  0  0  0  0  0  0  0  0  0  0  0
  148.0527  142.5203  153.2329 H   0  0  0  0  0  0  0  0  0  0  0  0
  146.8524  141.2528  153.1874 H   0  0  0  0  0  0  0  0  0  0  0  0
  146.7310  143.7987  154.8228 H   0  0  0  0  0  0  0  0  0  0  0  0
  145.4757  143.0968  153.7887 H   0  0  0  0  0  0  0  0  0  0  0  0
  146.5293  139.7551  155.5928 H   0  0  0  0  0  0  0  0  0  0  0  0
  147.3172  140.5140  156.9679 H   0  0  0  0  0  0  0  0  0  0  0  0
  1  2  1  0  0  0  0
  1 19  1  0  0  0  0
  1 20  1  0  0  0  0
  1 21  1  0  0  0  0
  2 18  1  0  0  0  0
  2  3  2  0  0  0  0
  3  4  1  0  0  0  0
  3 22  1  0  0  0  0
  4  5  1  0  0  0  0
  4 17  2  0  0  0  0
  5  6  1  0  0  0  0
  5 23  1  0  0  0  0
  6  7  2  0  0  0  0
  6  8  1  0  0  0  0
  8  9  1  0  0  0  0
  8 24  1  0  0  0  0
  9 16  1  0  0  0  0
  9 10  1  0  0  0  0
  9 11  1  0  0  0  0
 10 25  1  0  0  0  0
 10 26  1  0  0  0  0
 10 27  1  0  0  0  0
 11 12  1  0  0  0  0
 11 28  1  0  0  0  0
 11 29  1  0  0  0  0
 12 13  1  0  0  0  0
 12 30  1  0  0  0  0
 12 31  1  0  0  0  0
 13 14  2  0  0  0  0
 13 15  2  0  0  0  0
 13 16  1  0  0  0  0
 16 32  1  0  0  0  0
 16 33  1  0  0  0  0
 17 18  1  0  0  0  0
M  END
> <s_m_source_file>
AV-unprocessed.smi

> <i_m_source_file_index>
634

> <i_lp_mmshare_version>
43012

> <i_f3d_flags>
0

> <s_epik_input>
W0NIM11jMVtjSF1jKG5vMSlbTkhdQyg9TylbTkhdW0NAQF0yKFtDSDNdKVtDSDJdW0NIMl1TKD1PKSg9TylbQ0gyXTI=

> <s_epik_cmdline>
J2VwaWtfcHl0aG9uJywgJy1waCcsICc3LjAnLCAnLXRuJywgJzgnLCAnLW1hJywgJzIwMCcsICctbWV0YWxfYmluZGluZycsICctaW1hZScsICc8aW5maWxlLm1hZT4nLCAnLW9tYWUnLCAnPG91dGZpbGUubWFlPic=

> <r_lp_tautomer_probability>
1

> <r_epik_Ionization_Penalty>
3.87281e-05

> <r_epik_Ionization_Penalty_Charging>
0

> <r_epik_Ionization_Penalty_Neutral>
3.87281e-05

> <r_epik_State_Penalty>
-0

> <r_epik_Charging_Adjusted_Penalty>
0

> <i_epik_Tot_Q>
0

> <i_epik_Tot_abs_Q>
0

> <r_epik_Metal_State_Penalty>
0.0249287

> <b_epik_Metal_Only>
0

> <s_lp_Force_Field>
OPLS_2005

> <r_lp_Energy>
3.31823

> <b_lp_Chiralities_Consistent>
1

> <s_lp_Variant>
AV-unprocessed.smi:634-2

> <Gold.Version>
5.8.1

> <Gold.Id.Protein>
6NUR|6NUR_protein|mol2

> <Gold.PLP.Fitness>
36.3637

> <Gold.PLP.PLP>
-30.9606

> <Gold.PLP.part.hbond>
-2.0000

> <Gold.PLP.part.metal>
0.0000

> <Gold.PLP.part.buried>
-6.8028

> <Gold.PLP.part.nonpolar>
-23.3283

> <Gold.PLP.part.repulsive>
0.5035

> <Gold.PLP.ligand.clash>
0.0000

> <Gold.PLP.ligand.torsion>
0.0414

> <Gold.PLP.Chemscore.Hbond>
1.8240

> <Gold.PLP.Chemscore.CHOScore>
0.0000

> <Gold.PLP.Chemscore.Metal>
0.0000

> <Gold.Chemscore.Hbonds>
donor molecule, donor type, donor heavy atom, donor atom, acceptor molecule, acceptor atom, score
      L1  H     5    23       P1  8028  0.86
      L1  H     8    24       P1  8028  0.98

> <Gold.PLP.Chemscore.Internal.Correction>
0.0139

> <Gold.Rescore>
     Score         DG    S(hbond)    S(metal)    S(lipo)     H(rot)  DE(clash)    DE(int)     intcor
     14.35     -15.83       1.91        0.00      55.73       1.00       0.07       1.41       ----

> <Gold.Chemscore.Fitness>
14.3529

> <Gold.Chemscore.DG>
-15.8314

> <Gold.Chemscore.ZeroCoef>
-5.4800

> <Gold.Chemscore.Hbond>
1.9133

> <Gold.Chemscore.Metal>
0.0000

> <Gold.Chemscore.Lipo>
55.7350

> <Gold.Chemscore.Internal_Hbond>
0.0000

> <Gold.Chemscore.DEClash>
0.0732

> <Gold.Chemscore.DEInternal>
1.4054

> <Gold.Chemscore.Rot>
1.0000

> <Gold.Chemscore.Internal.Correction>
   9.000000E+99

> <Gold.Chemscore.Hbonds>
donor molecule, donor type, donor heavy atom, donor atom, acceptor molecule, acceptor atom, score
      L1  H     5    23       P1  8028  0.85
      L1  H     8    24       P1  8028  0.93

> <Gold.Chemscore.Hbond.Weighted>
-6.3904

> <Gold.Chemscore.Metal.Weighted>
-0.0000

> <Gold.Chemscore.Lipo.Weighted>
-6.5210

> <Gold.Chemscore.Internal_Hbond.Weighted>
0.0000

> <Gold.Chemscore.DEClash.Weighted>
0.0732

> <Gold.Chemscore.DEInternal.Weighted>
1.4054

> <Gold.Chemscore.Rot.Weighted>
2.5600

> <Gold.Chemscore.Internal.Correction.Weighted>
   9.000000E+99

> <Gold.Protein.RotatedTorsions>
[ 6907 6896 6895 6894 ] final   92.46 input  -60.11 | X-H torsion
[ 7974 7965 7964 7962 ] final  -99.06 input  175.53 | X-H torsion
[ 8008 7997 7996 7995 ] final   24.08 input   59.86 | X-H torsion
[ 10167 10162 10161 10158 ] final   17.81 input  -65.29 | X-H torsion
[ 10718 10713 10712 10709 ] final -153.30 input   66.30 | X-H torsion
[ 10763 10752 10751 10750 ] final   61.68 input  -60.55 | X-H torsion
[ 11005 11000 10999 10996 ] final  -66.17 input  -57.11 | X-H torsion

> <Gold.Protein.ActiveResidues>
 VAL166  LYS551  ARG553  GLY616  TRP617  ASP618  TYR619  PRO620  LYS621  CYS622 
 ASP623  PHE694  ASN695  SER759  ASP760  ASP761  ALA762  ILE779  LEU786  VAL792 
 PHE793  MET794  SER795  GLU796  ALA797  LYS798  CYS799  TRP800  GLU811  SER814 

> <Gold.Protein.RotatedAtoms>
  152.5452  134.1498  159.8513 H   0  0  0  0  0  0  0  0  0  0  0  0  # atno 6907 bound_to 6896
  151.1526  133.4890  159.2602 H   0  0  0  0  0  0  0  0  0  0  0  0  # atno 6908 bound_to 6896
  151.1456  135.0212  159.8700 H   0  0  0  0  0  0  0  0  0  0  0  0  # atno 6909 bound_to 6896
  145.3124  140.9403  143.2762 H   0  0  0  0  0  0  0  0  0  0  0  0  # atno 7974 bound_to 7965
  154.9907  140.3113  155.4907 H   0  0  0  0  0  0  0  0  0  0  0  0  # atno 8008 bound_to 7997
  156.2940  140.2249  156.4952 H   0  0  0  0  0  0  0  0  0  0  0  0  # atno 8009 bound_to 7997
  154.7706  140.0452  157.1036 H   0  0  0  0  0  0  0  0  0  0  0  0  # atno 8010 bound_to 7997
  140.5699  143.9181  150.6705 H   0  0  0  0  0  0  0  0  0  0  0  0  # atno 10167 bound_to 10162
  156.4839  130.8316  151.2542 H   0  0  0  0  0  0  0  0  0  0  0  0  # atno 10718 bound_to 10713
  152.9958  135.5492  154.6072 H   0  0  0  0  0  0  0  0  0  0  0  0  # atno 10763 bound_to 10752
  154.5401  135.2819  155.1106 H   0  0  0  0  0  0  0  0  0  0  0  0  # atno 10764 bound_to 10752
  154.2386  135.6420  153.5252 H   0  0  0  0  0  0  0  0  0  0  0  0  # atno 10765 bound_to 10752
  141.1475  133.6694  156.6099 H   0  0  0  0  0  0  0  0  0  0  0  0  # atno 11005 bound_to 11000
  144.9005  139.4656  143.6635 LP  0  0  0  0  0  0  0  0  0  0  0  0  # atno 17320 bound_to 7965
  146.3113  139.7756  142.9018 LP  0  0  0  0  0  0  0  0  0  0  0  0  # atno 17321 bound_to 7965
  140.2654  143.3494  152.1286 LP  0  0  0  0  0  0  0  0  0  0  0  0  # atno 17342 bound_to 10162
  139.5112  144.6896  151.5794 LP  0  0  0  0  0  0  0  0  0  0  0  0  # atno 17343 bound_to 10162
  157.7480  131.0036  150.3043 LP  0  0  0  0  0  0  0  0  0  0  0  0  # atno 17370 bound_to 10713
  156.3494  130.3828  149.7342 LP  0  0  0  0  0  0  0  0  0  0  0  0  # atno 17371 bound_to 10713
  140.3623  134.7677  157.4542 LP  0  0  0  0  0  0  0  0  0  0  0  0  # atno 17394 bound_to 11000
  140.0776  134.5776  155.8575 LP  0  0  0  0  0  0  0  0  0  0  0  0  # atno 17395 bound_to 11000

$$$$
