AV-unprocessed.smi:2696|AV-procd|sdf|10414|dock3
  -GOLD-   2272014453D 1   1.00000     0.00000
 Structure written by MMmdl.
 43 44  0  0  0  0  0  0  0  0  1 V2000
  152.5420  142.1356  160.0671 C   0  0  0  0  0  0  0  0  0  0  0  0
  152.3892  142.9174  158.7526 C   0  0  0  0  0  0  0  0  0  0  0  0
  151.9168  144.3581  159.0002 C   0  0  0  0  0  0  0  0  0  0  0  0
  151.4785  142.1917  157.7711 C   0  0  0  0  0  0  0  0  0  0  0  0
  151.9295  141.6931  156.5950 C   0  0  0  0  0  0  0  0  0  0  0  0
  151.0196  141.0222  155.6670 C   0  0  0  0  0  0  0  0  0  0  0  0
  151.4028  140.5346  154.6039 O   0  0  0  0  0  0  0  0  0  0  0  0
  149.7139  140.9881  156.0637 N   0  0  0  0  0  0  0  0  0  0  0  0
  148.6689  140.4083  155.1930 C   0  0  0  0  0  0  0  0  0  0  0  0
  147.5731  141.4165  154.7269 C   0  0  2  0  0  0  0  0  0  0  0  0
  147.0156  140.9924  153.3513 C   0  0  0  0  0  0  0  0  0  0  0  0
  148.2330  142.6339  154.4273 O   0  0  0  0  0  0  0  0  0  0  0  0
  146.4434  141.5953  155.7538 C   0  0  0  0  0  0  0  0  0  0  0  0
  146.3934  140.8099  156.9299 C   0  0  0  0  0  0  0  0  0  0  0  0
  145.3317  140.9543  157.8422 C   0  0  0  0  0  0  0  0  0  0  0  0
  144.3052  141.8816  157.5890 C   0  0  0  0  0  0  0  0  0  0  0  0
  144.3318  142.6685  156.4197 C   0  0  0  0  0  0  0  0  0  0  0  0
  143.2079  143.6596  156.1559 C   0  0  0  0  0  0  0  0  0  0  0  0
  143.3828  144.3157  155.0081 F   0  0  0  0  0  0  0  0  0  0  0  0
  142.0416  143.0166  156.0965 F   0  0  0  0  0  0  0  0  0  0  0  0
  143.1597  144.5457  157.1499 F   0  0  0  0  0  0  0  0  0  0  0  0
  145.4040  142.5241  155.5123 C   0  0  0  0  0  0  0  0  0  0  0  0
  149.3039  141.4875  157.3177 C   0  0  0  0  0  0  0  0  0  0  0  0
  150.1326  142.0633  158.1286 N   0  0  0  0  0  0  0  0  0  0  0  0
  152.8948  141.1208  159.8799 H   0  0  0  0  0  0  0  0  0  0  0  0
  151.5975  142.0661  160.6074 H   0  0  0  0  0  0  0  0  0  0  0  0
  153.2637  142.6180  160.7267 H   0  0  0  0  0  0  0  0  0  0  0  0
  153.3798  142.9763  158.2984 H   0  0  0  0  0  0  0  0  0  0  0  0
  151.8453  144.9124  158.0638 H   0  0  0  0  0  0  0  0  0  0  0  0
  152.6140  144.8926  159.6459 H   0  0  0  0  0  0  0  0  0  0  0  0
  150.9373  144.3836  159.4786 H   0  0  0  0  0  0  0  0  0  0  0  0
  152.9705  141.7962  156.3259 H   0  0  0  0  0  0  0  0  0  0  0  0
  149.1197  139.9005  154.3378 H   0  0  0  0  0  0  0  0  0  0  0  0
  148.1742  139.5999  155.7352 H   0  0  0  0  0  0  0  0  0  0  0  0
  146.5293  140.0179  153.3847 H   0  0  0  0  0  0  0  0  0  0  0  0
  147.8089  140.9197  152.6059 H   0  0  0  0  0  0  0  0  0  0  0  0
  146.2826  141.7110  152.9817 H   0  0  0  0  0  0  0  0  0  0  0  0
  148.4211  143.0830  155.2372 H   0  0  0  0  0  0  0  0  0  0  0  0
  147.1585  140.0780  157.1418 H   0  0  0  0  0  0  0  0  0  0  0  0
  145.3025  140.3478  158.7353 H   0  0  0  0  0  0  0  0  0  0  0  0
  143.4919  141.9848  158.2924 H   0  0  0  0  0  0  0  0  0  0  0  0
  145.4175  143.1157  154.6102 H   0  0  0  0  0  0  0  0  0  0  0  0
  148.2445  141.3679  157.5496 H   0  0  0  0  0  0  0  0  0  0  0  0
  1  2  1  0  0  0  0
  1 25  1  0  0  0  0
  1 26  1  0  0  0  0
  1 27  1  0  0  0  0
  2  3  1  0  0  0  0
  2  4  1  0  0  0  0
  2 28  1  0  0  0  0
  3 29  1  0  0  0  0
  3 30  1  0  0  0  0
  3 31  1  0  0  0  0
  4 24  1  0  0  0  0
  4  5  2  0  0  0  0
  5  6  1  0  0  0  0
  5 32  1  0  0  0  0
  6  7  2  0  0  0  0
  6  8  1  0  0  0  0
  8  9  1  0  0  0  0
  8 23  1  0  0  0  0
  9 10  1  0  0  0  0
  9 33  1  0  0  0  0
  9 34  1  0  0  0  0
 10 11  1  0  0  0  0
 10 12  1  0  0  0  0
 10 13  1  0  0  0  0
 11 35  1  0  0  0  0
 11 36  1  0  0  0  0
 11 37  1  0  0  0  0
 12 38  1  0  0  0  0
 13 22  1  0  0  0  0
 13 14  2  0  0  0  0
 14 15  1  0  0  0  0
 14 39  1  0  0  0  0
 15 16  2  0  0  0  0
 15 40  1  0  0  0  0
 16 17  1  0  0  0  0
 16 41  1  0  0  0  0
 17 18  1  0  0  0  0
 17 22  2  0  0  0  0
 18 19  1  0  0  0  0
 18 20  1  0  0  0  0
 18 21  1  0  0  0  0
 22 42  1  0  0  0  0
 23 24  2  0  0  0  0
 23 43  1  0  0  0  0
M  END
> <s_m_source_file>
AV-unprocessed.smi

> <i_m_source_file_index>
2696

> <i_lp_mmshare_version>
43012

> <i_f3d_flags>
0

> <s_epik_input>
W0NIM11bQ0hdKFtDSDNdKWMxW2NIXWMoPU8pbihbY0hdbjEpW0NIMl1bQ0BAXShbQ0gzXSkoW09IXSljMltjSF1bY0hdW2NIXWMoQyhGKShGKUYpW2NIXTI=

> <s_epik_cmdline>
J2VwaWtfcHl0aG9uJywgJy1waCcsICc3LjAnLCAnLXRuJywgJzgnLCAnLW1hJywgJzIwMCcsICctbWV0YWxfYmluZGluZycsICctaW1hZScsICc8aW5maWxlLm1hZT4nLCAnLW9tYWUnLCAnPG91dGZpbGUubWFlPic=

> <r_lp_tautomer_probability>
1

> <r_epik_Ionization_Penalty>
2.71388e-05

> <r_epik_Ionization_Penalty_Charging>
4.19927e-06

> <r_epik_Ionization_Penalty_Neutral>
2.29395e-05

> <r_epik_State_Penalty>
-0

> <r_epik_Charging_Adjusted_Penalty>
4.19927e-06

> <i_epik_Tot_Q>
0

> <i_epik_Tot_abs_Q>
0

> <r_epik_Metal_State_Penalty>
-0

> <b_epik_Metal_Only>
0

> <s_lp_Force_Field>
OPLS_2005

> <r_lp_Energy>
19.4026

> <b_lp_Chiralities_Consistent>
1

> <s_lp_Variant>
AV-unprocessed.smi:2696-2

> <Gold.Version>
5.8.1

> <Gold.Id.Protein>
6NUR|6NUR_protein|mol2

> <Gold.PLP.Fitness>
51.8417

> <Gold.PLP.PLP>
-46.0802

> <Gold.PLP.part.hbond>
-3.3247

> <Gold.PLP.part.metal>
0.0000

> <Gold.PLP.part.buried>
-7.3624

> <Gold.PLP.part.nonpolar>
-36.2337

> <Gold.PLP.part.repulsive>
0.1694

> <Gold.PLP.ligand.clash>
0.0846

> <Gold.PLP.ligand.torsion>
0.5029

> <Gold.PLP.Chemscore.Hbond>
2.1334

> <Gold.PLP.Chemscore.CHOScore>
0.0000

> <Gold.PLP.Chemscore.Metal>
0.0000

> <Gold.Chemscore.Hbonds>
donor molecule, donor type, donor heavy atom, donor atom, acceptor molecule, acceptor atom, score
      L1  H    12    38       P1  8028  0.67
      P1  H  7989  7998       L1     7  0.10
      P1  H  8022  8030       L1    12  0.02

> <Gold.PLP.Chemscore.Internal.Correction>
0.4518

> <Gold.Rescore>
     Score         DG    S(hbond)    S(metal)    S(lipo)     H(rot)  DE(clash)    DE(int)     intcor
     15.88     -18.08       2.11        0.00      96.40       2.23       1.39       0.81       ----

> <Gold.Chemscore.Fitness>
15.8817

> <Gold.Chemscore.DG>
-18.0820

> <Gold.Chemscore.ZeroCoef>
-5.4800

> <Gold.Chemscore.Hbond>
2.1063

> <Gold.Chemscore.Metal>
0.0000

> <Gold.Chemscore.Lipo>
96.4005

> <Gold.Chemscore.Internal_Hbond>
0.0000

> <Gold.Chemscore.DEClash>
1.3868

> <Gold.Chemscore.DEInternal>
0.8135

> <Gold.Chemscore.Rot>
2.2312

> <Gold.Chemscore.Internal.Correction>
   9.000000E+99

> <Gold.Chemscore.Hbonds>
donor molecule, donor type, donor heavy atom, donor atom, acceptor molecule, acceptor atom, score
      L1  H    12    38       P1  8028  0.68
      P1  H  7989  7998       L1     7  0.12

> <Gold.Chemscore.Hbond.Weighted>
-7.0349

> <Gold.Chemscore.Metal.Weighted>
-0.0000

> <Gold.Chemscore.Lipo.Weighted>
-11.2789

> <Gold.Chemscore.Internal_Hbond.Weighted>
0.0000

> <Gold.Chemscore.DEClash.Weighted>
1.3868

> <Gold.Chemscore.DEInternal.Weighted>
0.8135

> <Gold.Chemscore.Rot.Weighted>
5.7118

> <Gold.Chemscore.Internal.Correction.Weighted>
   9.000000E+99

> <Gold.Protein.RotatedTorsions>
[ 6907 6896 6895 6894 ] final   -1.54 input  -60.11 | X-H torsion
[ 7974 7965 7964 7962 ] final  -18.68 input  175.53 | X-H torsion
[ 8008 7997 7996 7995 ] final   86.47 input   59.86 | X-H torsion
[ 10167 10162 10161 10158 ] final   -1.26 input  -65.29 | X-H torsion
[ 10718 10713 10712 10709 ] final  157.49 input   66.30 | X-H torsion
[ 10763 10752 10751 10750 ] final  174.62 input  -60.55 | X-H torsion
[ 11005 11000 10999 10996 ] final  137.08 input  -57.11 | X-H torsion

> <Gold.Protein.ActiveResidues>
 VAL166  LYS551  ARG553  GLY616  TRP617  ASP618  TYR619  PRO620  LYS621  CYS622 
 ASP623  PHE694  ASN695  SER759  ASP760  ASP761  ALA762  ILE779  LEU786  VAL792 
 PHE793  MET794  SER795  GLU796  ALA797  LYS798  CYS799  TRP800  GLU811  SER814 

> <Gold.Protein.RotatedAtoms>
  151.5443  135.1068  159.9933 H   0  0  0  0  0  0  0  0  0  0  0  0  # atno 6907 bound_to 6896
  152.4521  133.7645  159.6775 H   0  0  0  0  0  0  0  0  0  0  0  0  # atno 6908 bound_to 6896
  150.8452  133.7806  159.3070 H   0  0  0  0  0  0  0  0  0  0  0  0  # atno 6909 bound_to 6896
  146.1880  140.3955  142.8469 H   0  0  0  0  0  0  0  0  0  0  0  0  # atno 7974 bound_to 7965
  155.9632  140.3391  155.6509 H   0  0  0  0  0  0  0  0  0  0  0  0  # atno 8008 bound_to 7997
  155.6771  140.0733  157.2517 H   0  0  0  0  0  0  0  0  0  0  0  0  # atno 8009 bound_to 7997
  154.4148  140.1681  156.1929 H   0  0  0  0  0  0  0  0  0  0  0  0  # atno 8010 bound_to 7997
  140.6802  143.6796  150.8116 H   0  0  0  0  0  0  0  0  0  0  0  0  # atno 10167 bound_to 10162
  157.1908  131.0654  151.2080 H   0  0  0  0  0  0  0  0  0  0  0  0  # atno 10718 bound_to 10713
  154.4565  135.2766  155.1744 H   0  0  0  0  0  0  0  0  0  0  0  0  # atno 10763 bound_to 10752
  154.3549  135.6142  153.5665 H   0  0  0  0  0  0  0  0  0  0  0  0  # atno 10764 bound_to 10752
  152.9851  135.5820  154.4919 H   0  0  0  0  0  0  0  0  0  0  0  0  # atno 10765 bound_to 10752
  140.0090  134.9447  157.0236 H   0  0  0  0  0  0  0  0  0  0  0  0  # atno 11005 bound_to 11000
  144.8433  140.6890  143.6215 LP  0  0  0  0  0  0  0  0  0  0  0  0  # atno 17320 bound_to 7965
  145.3880  139.1622  143.4244 LP  0  0  0  0  0  0  0  0  0  0  0  0  # atno 17321 bound_to 7965
  140.0496  143.5263  152.2680 LP  0  0  0  0  0  0  0  0  0  0  0  0  # atno 17342 bound_to 10162
  139.6120  144.7611  151.2930 LP  0  0  0  0  0  0  0  0  0  0  0  0  # atno 17343 bound_to 10162
  157.3863  130.7258  149.6665 LP  0  0  0  0  0  0  0  0  0  0  0  0  # atno 17370 bound_to 10713
  155.9712  130.4159  150.4203 LP  0  0  0  0  0  0  0  0  0  0  0  0  # atno 17371 bound_to 10713
  140.4589  134.1504  155.7189 LP  0  0  0  0  0  0  0  0  0  0  0  0  # atno 17394 bound_to 11000
  141.1697  133.8633  157.1607 LP  0  0  0  0  0  0  0  0  0  0  0  0  # atno 17395 bound_to 11000

$$$$
