AV-unprocessed.smi:2805|AV-procd|sdf|10814|dock2
  -GOLD-   2272015253D 1   1.00000     0.00000
 Structure written by MMmdl.
 43 44  0  0  0  0  0  0  0  0  1 V2000
  152.2194  145.8979  160.4540 C   0  0  0  0  0  0  0  0  0  0  0  0
  152.0298  144.5411  159.8093 C   0  0  0  0  0  0  0  0  0  0  0  0
  152.7974  143.4349  160.2205 C   0  0  0  0  0  0  0  0  0  0  0  0
  152.5734  142.1975  159.5854 C   0  0  0  0  0  0  0  0  0  0  0  0
  153.3622  140.9658  159.9779 C   0  0  0  0  0  0  0  0  0  0  0  0
  151.6592  142.0267  158.6065 N   0  0  0  0  0  0  0  0  0  0  0  0
  150.9138  143.0851  158.2030 C   0  0  0  0  0  0  0  0  0  0  0  0
  149.9285  143.0122  157.1833 N   0  0  0  0  0  0  0  0  0  0  0  0
  149.1904  141.9506  156.8150 C   0  0  0  0  0  0  0  0  0  0  0  0
  149.2579  140.8265  157.3131 O   0  0  0  0  0  0  0  0  0  0  0  0
  148.3493  142.2702  155.8208 N   0  0  0  0  0  0  0  0  0  0  0  0
  147.3884  141.3628  155.1957 C   0  0  1  0  0  0  0  0  0  0  0  0
  146.1184  141.2042  156.0579 C   0  0  0  0  0  0  0  0  0  0  0  0
  145.2760  142.4913  156.0941 C   0  0  0  0  0  0  0  0  0  0  0  0
  144.9037  142.9726  154.6755 C   0  0  1  0  0  0  0  0  0  0  0  0
  144.0799  144.2731  154.7042 C   0  0  0  0  0  0  0  0  0  0  0  0
  143.8296  144.7384  153.3948 O   0  0  0  0  0  0  0  0  0  0  0  0
  146.1774  143.1489  153.8247 C   0  0  0  0  0  0  0  0  0  0  0  0
  147.0254  141.8646  153.7856 C   0  0  0  0  0  0  0  0  0  0  0  0
  151.0753  144.3610  158.7881 C   0  0  0  0  0  0  0  0  0  0  0  0
  147.8646  140.3862  155.0919 H   0  0  0  0  0  0  0  0  0  0  0  0
  144.2961  142.1997  154.2017 H   0  0  0  0  0  0  0  0  0  0  0  0
  153.2013  145.9756  160.9219 H   0  0  0  0  0  0  0  0  0  0  0  0
  151.4600  146.0595  161.2190 H   0  0  0  0  0  0  0  0  0  0  0  0
  152.1346  146.6917  159.7114 H   0  0  0  0  0  0  0  0  0  0  0  0
  153.5373  143.5320  161.0018 H   0  0  0  0  0  0  0  0  0  0  0  0
  154.1672  141.2157  160.6695 H   0  0  0  0  0  0  0  0  0  0  0  0
  153.8046  140.4998  159.0968 H   0  0  0  0  0  0  0  0  0  0  0  0
  152.7098  140.2381  160.4613 H   0  0  0  0  0  0  0  0  0  0  0  0
  149.7616  143.8707  156.6799 H   0  0  0  0  0  0  0  0  0  0  0  0
  148.3663  143.2175  155.4729 H   0  0  0  0  0  0  0  0  0  0  0  0
  145.5109  140.3951  155.6508 H   0  0  0  0  0  0  0  0  0  0  0  0
  146.3789  140.9005  157.0724 H   0  0  0  0  0  0  0  0  0  0  0  0
  144.3735  142.3092  156.6782 H   0  0  0  0  0  0  0  0  0  0  0  0
  145.8251  143.2745  156.6185 H   0  0  0  0  0  0  0  0  0  0  0  0
  143.1318  144.1221  155.2214 H   0  0  0  0  0  0  0  0  0  0  0  0
  144.6190  145.0532  155.2428 H   0  0  0  0  0  0  0  0  0  0  0  0
  143.4619  144.0300  152.8887 H   0  0  0  0  0  0  0  0  0  0  0  0
  145.9071  143.4322  152.8070 H   0  0  0  0  0  0  0  0  0  0  0  0
  146.7747  143.9709  154.2212 H   0  0  0  0  0  0  0  0  0  0  0  0
  147.9304  142.0320  153.2003 H   0  0  0  0  0  0  0  0  0  0  0  0
  146.4676  141.0867  153.2628 H   0  0  0  0  0  0  0  0  0  0  0  0
  150.4736  145.1958  158.4582 H   0  0  0  0  0  0  0  0  0  0  0  0
  1  2  1  0  0  0  0
  1 23  1  0  0  0  0
  1 24  1  0  0  0  0
  1 25  1  0  0  0  0
  2 20  1  0  0  0  0
  2  3  2  0  0  0  0
  3  4  1  0  0  0  0
  3 26  1  0  0  0  0
  4  5  1  0  0  0  0
  4  6  2  0  0  0  0
  5 27  1  0  0  0  0
  5 28  1  0  0  0  0
  5 29  1  0  0  0  0
  6  7  1  0  0  0  0
  7  8  1  0  0  0  0
  7 20  2  0  0  0  0
  8  9  1  0  0  0  0
  8 30  1  0  0  0  0
  9 10  2  0  0  0  0
  9 11  1  0  0  0  0
 11 12  1  0  0  0  0
 11 31  1  0  0  0  0
 12 21  1  0  0  0  0
 12 19  1  0  0  0  0
 12 13  1  0  0  0  0
 13 14  1  0  0  0  0
 13 32  1  0  0  0  0
 13 33  1  0  0  0  0
 14 15  1  0  0  0  0
 14 34  1  0  0  0  0
 14 35  1  0  0  0  0
 15 22  1  0  0  0  0
 15 16  1  0  0  0  0
 15 18  1  0  0  0  0
 16 17  1  0  0  0  0
 16 36  1  0  0  0  0
 16 37  1  0  0  0  0
 17 38  1  0  0  0  0
 18 19  1  0  0  0  0
 18 39  1  0  0  0  0
 18 40  1  0  0  0  0
 19 41  1  0  0  0  0
 19 42  1  0  0  0  0
 20 43  1  0  0  0  0
M  END
> <s_m_source_file>
AV-unprocessed.smi

> <i_m_source_file_index>
2805

> <i_lp_mmshare_version>
43012

> <i_f3d_flags>
0

> <s_epik_input>
W0NIM11jMVtjSF1jKFtDSDNdKW5jKFtjSF0xKVtOSF1DKD1PKVtOSF1bQ0BIXTJbQ0gyXVtDSDJdW0NASF0oW0NIMl1bT0hdKVtDSDJdW0NIMl0y

> <s_epik_cmdline>
J2VwaWtfcHl0aG9uJywgJy1waCcsICc3LjAnLCAnLXRuJywgJzgnLCAnLW1hJywgJzIwMCcsICctbWV0YWxfYmluZGluZycsICctaW1hZScsICc8aW5maWxlLm1hZT4nLCAnLW9tYWUnLCAnPG91dGZpbGUubWFlPic=

> <r_lp_tautomer_probability>
1

> <r_epik_Ionization_Penalty>
0.000279533

> <r_epik_Ionization_Penalty_Charging>
0

> <r_epik_Ionization_Penalty_Neutral>
0.000279533

> <r_epik_State_Penalty>
-0

> <r_epik_Charging_Adjusted_Penalty>
0

> <i_epik_Tot_Q>
0

> <i_epik_Tot_abs_Q>
0

> <r_epik_Metal_State_Penalty>
-0

> <b_epik_Metal_Only>
0

> <s_lp_Force_Field>
OPLS_2005

> <r_lp_Energy>
9.89075

> <b_lp_Chiralities_Consistent>
1

> <s_lp_Variant>
AV-unprocessed.smi:2805-2

> <Gold.Version>
5.8.1

> <Gold.Id.Protein>
6NUR|6NUR_protein|mol2

> <Gold.PLP.Fitness>
49.1371

> <Gold.PLP.PLP>
-41.1236

> <Gold.PLP.part.hbond>
-3.6401

> <Gold.PLP.part.metal>
0.0000

> <Gold.PLP.part.buried>
-6.4191

> <Gold.PLP.part.nonpolar>
-32.1118

> <Gold.PLP.part.repulsive>
0.1320

> <Gold.PLP.ligand.clash>
0.0000

> <Gold.PLP.ligand.torsion>
0.4857

> <Gold.PLP.Chemscore.Hbond>
2.9920

> <Gold.PLP.Chemscore.CHOScore>
0.0000

> <Gold.PLP.Chemscore.Metal>
0.0000

> <Gold.Chemscore.Hbonds>
donor molecule, donor type, donor heavy atom, donor atom, acceptor molecule, acceptor atom, score
      L1  H     8    30       P1  8028  1.00
      L1  H    11    31       P1  8028  0.99
      L1  H    17    38       P1 10174  1.00

> <Gold.PLP.Chemscore.Internal.Correction>
0.0088

> <Gold.Rescore>
     Score         DG    S(hbond)    S(metal)    S(lipo)     H(rot)  DE(clash)    DE(int)     intcor
     19.99     -22.23       2.93        0.00      97.99       1.75       0.72       1.52       ----

> <Gold.Chemscore.Fitness>
19.9906

> <Gold.Chemscore.DG>
-22.2326

> <Gold.Chemscore.ZeroCoef>
-5.4800

> <Gold.Chemscore.Hbond>
2.9282

> <Gold.Chemscore.Metal>
0.0000

> <Gold.Chemscore.Lipo>
97.9901

> <Gold.Chemscore.Internal_Hbond>
0.0000

> <Gold.Chemscore.DEClash>
0.7199

> <Gold.Chemscore.DEInternal>
1.5220

> <Gold.Chemscore.Rot>
1.7548

> <Gold.Chemscore.Internal.Correction>
   9.000000E+99

> <Gold.Chemscore.Hbonds>
donor molecule, donor type, donor heavy atom, donor atom, acceptor molecule, acceptor atom, score
      L1  H     8    30       P1  8028  0.92
      L1  H    11    31       P1  8028  0.89
      L1  H    17    38       P1 10174  0.99

> <Gold.Chemscore.Hbond.Weighted>
-9.7801

> <Gold.Chemscore.Metal.Weighted>
-0.0000

> <Gold.Chemscore.Lipo.Weighted>
-11.4648

> <Gold.Chemscore.Internal_Hbond.Weighted>
0.0000

> <Gold.Chemscore.DEClash.Weighted>
0.7199

> <Gold.Chemscore.DEInternal.Weighted>
1.5220

> <Gold.Chemscore.Rot.Weighted>
4.4924

> <Gold.Chemscore.Internal.Correction.Weighted>
   9.000000E+99

> <Gold.Protein.RotatedTorsions>
[ 6907 6896 6895 6894 ] final -166.72 input  -60.11 | X-H torsion
[ 7974 7965 7964 7962 ] final  146.35 input  175.53 | X-H torsion
[ 8008 7997 7996 7995 ] final  -44.44 input   59.86 | X-H torsion
[ 10167 10162 10161 10158 ] final  -52.16 input  -65.29 | X-H torsion
[ 10718 10713 10712 10709 ] final  -34.27 input   66.30 | X-H torsion
[ 10763 10752 10751 10750 ] final   64.06 input  -60.55 | X-H torsion
[ 11005 11000 10999 10996 ] final   76.30 input  -57.11 | X-H torsion

> <Gold.Protein.ActiveResidues>
 VAL166  LYS551  ARG553  GLY616  TRP617  ASP618  TYR619  PRO620  LYS621  CYS622 
 ASP623  PHE694  ASN695  SER759  ASP760  ASP761  ALA762  ILE779  LEU786  VAL792 
 PHE793  MET794  SER795  GLU796  ALA797  LYS798  CYS799  TRP800  GLU811  SER814 

> <Gold.Protein.RotatedAtoms>
  151.4481  133.3625  159.2791 H   0  0  0  0  0  0  0  0  0  0  0  0  # atno 6907 bound_to 6896
  150.9110  134.8528  159.7436 H   0  0  0  0  0  0  0  0  0  0  0  0  # atno 6908 bound_to 6896
  152.4932  134.4411  159.9595 H   0  0  0  0  0  0  0  0  0  0  0  0  # atno 6909 bound_to 6896
  144.8678  139.5894  143.5901 H   0  0  0  0  0  0  0  0  0  0  0  0  # atno 7974 bound_to 7965
  154.3997  140.1422  156.3684 H   0  0  0  0  0  0  0  0  0  0  0  0  # atno 8008 bound_to 7997
  155.8115  140.3472  155.5440 H   0  0  0  0  0  0  0  0  0  0  0  0  # atno 8009 bound_to 7997
  155.8381  140.0922  157.1742 H   0  0  0  0  0  0  0  0  0  0  0  0  # atno 8010 bound_to 7997
  140.6552  143.2594  151.4607 H   0  0  0  0  0  0  0  0  0  0  0  0  # atno 10167 bound_to 10162
  156.3526  130.4311  149.7691 H   0  0  0  0  0  0  0  0  0  0  0  0  # atno 10718 bound_to 10713
  153.0041  135.5406  154.6451 H   0  0  0  0  0  0  0  0  0  0  0  0  # atno 10763 bound_to 10752
  154.5697  135.2840  155.0842 H   0  0  0  0  0  0  0  0  0  0  0  0  # atno 10764 bound_to 10752
  154.2012  135.6483  153.5140 H   0  0  0  0  0  0  0  0  0  0  0  0  # atno 10765 bound_to 10752
  139.9304  134.7590  156.1379 H   0  0  0  0  0  0  0  0  0  0  0  0  # atno 11005 bound_to 11000
  146.2908  139.7135  142.9162 LP  0  0  0  0  0  0  0  0  0  0  0  0  # atno 17320 bound_to 7965
  145.4188  141.0404  143.2975 LP  0  0  0  0  0  0  0  0  0  0  0  0  # atno 17321 bound_to 7965
  139.5773  144.1790  152.1920 LP  0  0  0  0  0  0  0  0  0  0  0  0  # atno 17342 bound_to 10162
  140.1104  144.5462  150.6929 LP  0  0  0  0  0  0  0  0  0  0  0  0  # atno 17343 bound_to 10162
  156.4885  130.8074  151.3085 LP  0  0  0  0  0  0  0  0  0  0  0  0  # atno 17370 bound_to 10713
  157.7463  130.9983  150.2847 LP  0  0  0  0  0  0  0  0  0  0  0  0  # atno 17371 bound_to 10713
  141.0889  133.6722  156.2497 LP  0  0  0  0  0  0  0  0  0  0  0  0  # atno 17394 bound_to 11000
  140.6218  134.5354  157.5548 LP  0  0  0  0  0  0  0  0  0  0  0  0  # atno 17395 bound_to 11000

$$$$
