AV-unprocessed.smi:1133|AV-procd|sdf|4855|dock3
  -GOLD-   22720 3423D 1   1.00000     0.00000
 Structure written by MMmdl.
 42 43  0  0  0  0  0  0  0  0  2 V2000
  152.9715  142.6014  162.5216 C   0  0  0  0  0  0  0  0  0  0  0  0
  152.4708  143.4441  161.3465 C   0  0  0  0  0  0  0  0  0  0  0  0
  151.7764  144.4296  161.5962 O   0  0  0  0  0  0  0  0  0  0  0  0
  152.8082  143.0873  160.0838 N   0  0  0  0  0  0  0  0  0  0  0  0
  153.5631  141.8668  159.7788 C   0  0  0  0  0  0  0  0  0  0  0  0
  152.6175  140.8547  159.1071 C   0  0  0  0  0  0  0  0  0  0  0  0
  151.9518  141.4546  157.8498 C   0  0  0  0  0  0  0  0  0  0  0  0
  150.9257  140.5421  157.3544 N   0  0  0  0  0  0  0  0  0  0  0  0
  150.8843  140.0279  156.1175 C   0  0  0  0  0  0  0  0  0  0  0  0
  151.7248  140.2532  155.2460 O   0  0  0  0  0  0  0  0  0  0  0  0
  149.8110  139.2455  155.9368 N   0  0  0  0  0  0  0  0  0  0  0  0
  149.4881  138.5555  154.6939 C   0  0  0  0  0  0  0  0  0  0  0  0
  149.3943  139.5332  153.5102 C   0  0  0  0  0  0  0  0  0  0  0  0
  148.2587  140.4453  153.6496 N   0  0  0  0  0  0  0  0  0  0  0  0
  148.2627  141.7045  154.1921 C   0  0  0  0  0  0  0  0  0  0  0  0
  146.9757  142.1699  154.1064 C   0  0  0  0  0  0  0  0  0  0  0  0
  146.2415  141.1750  153.5175 N   0  3  0  0  0  0  0  0  0  0  0  0
  147.0239  140.1267  153.2406 C   0  0  0  0  0  0  0  0  0  0  0  0
  151.3436  142.8465  158.1414 C   0  0  0  0  0  0  0  0  0  0  0  0
  152.3528  143.7587  158.8604 C   0  0  0  0  0  0  0  0  0  0  0  0
  154.0608  142.5541  162.5282 H   0  0  0  0  0  0  0  0  0  0  0  0
  152.5717  141.5886  162.4688 H   0  0  0  0  0  0  0  0  0  0  0  0
  152.6521  143.0358  163.4696 H   0  0  0  0  0  0  0  0  0  0  0  0
  154.3905  142.1093  159.1103 H   0  0  0  0  0  0  0  0  0  0  0  0
  154.0184  141.4191  160.6632 H   0  0  0  0  0  0  0  0  0  0  0  0
  153.1676  139.9503  158.8443 H   0  0  0  0  0  0  0  0  0  0  0  0
  151.8521  140.5540  159.8245 H   0  0  0  0  0  0  0  0  0  0  0  0
  152.7272  141.5697  157.0899 H   0  0  0  0  0  0  0  0  0  0  0  0
  150.1882  140.2954  157.9986 H   0  0  0  0  0  0  0  0  0  0  0  0
  149.1756  139.1182  156.7112 H   0  0  0  0  0  0  0  0  0  0  0  0
  150.2340  137.7833  154.4978 H   0  0  0  0  0  0  0  0  0  0  0  0
  148.5362  138.0408  154.8276 H   0  0  0  0  0  0  0  0  0  0  0  0
  150.3014  140.1337  153.4321 H   0  0  0  0  0  0  0  0  0  0  0  0
  149.2804  139.0000  152.5650 H   0  0  0  0  0  0  0  0  0  0  0  0
  149.1570  142.1637  154.5881 H   0  0  0  0  0  0  0  0  0  0  0  0
  146.5390  143.1095  154.4126 H   0  0  0  0  0  0  0  0  0  0  0  0
  146.7188  139.2043  152.7788 H   0  0  0  0  0  0  0  0  0  0  0  0
  151.0164  143.3173  157.2138 H   0  0  0  0  0  0  0  0  0  0  0  0
  150.4536  142.7388  158.7637 H   0  0  0  0  0  0  0  0  0  0  0  0
  151.9084  144.7370  159.0385 H   0  0  0  0  0  0  0  0  0  0  0  0
  153.2112  143.9449  158.2134 H   0  0  0  0  0  0  0  0  0  0  0  0
  145.2501  141.2229  153.3190 H   0  0  0  0  0  0  0  0  0  0  0  0
  1  2  1  0  0  0  0
  1 21  1  0  0  0  0
  1 22  1  0  0  0  0
  1 23  1  0  0  0  0
  2  3  2  0  0  0  0
  2  4  1  0  0  0  0
  4 20  1  0  0  0  0
  4  5  1  0  0  0  0
  5  6  1  0  0  0  0
  5 24  1  0  0  0  0
  5 25  1  0  0  0  0
  6  7  1  0  0  0  0
  6 26  1  0  0  0  0
  6 27  1  0  0  0  0
  7  8  1  0  0  0  0
  7 19  1  0  0  0  0
  7 28  1  0  0  0  0
  8  9  1  0  0  0  0
  8 29  1  0  0  0  0
  9 10  2  0  0  0  0
  9 11  1  0  0  0  0
 11 12  1  0  0  0  0
 11 30  1  0  0  0  0
 12 13  1  0  0  0  0
 12 31  1  0  0  0  0
 12 32  1  0  0  0  0
 13 14  1  0  0  0  0
 13 33  1  0  0  0  0
 13 34  1  0  0  0  0
 14 18  1  0  0  0  0
 14 15  1  0  0  0  0
 15 16  2  0  0  0  0
 15 35  1  0  0  0  0
 16 17  1  0  0  0  0
 16 36  1  0  0  0  0
 17 18  2  0  0  0  0
 17 42  1  0  0  0  0
 18 37  1  0  0  0  0
 19 20  1  0  0  0  0
 19 38  1  0  0  0  0
 19 39  1  0  0  0  0
 20 40  1  0  0  0  0
 20 41  1  0  0  0  0
M  CHG  1  17   1
M  END
> <s_m_source_file>
AV-unprocessed.smi

> <i_m_source_file_index>
1133

> <i_lp_mmshare_version>
43012

> <i_f3d_flags>
0

> <s_epik_input>
W0NIM11DKD1PKU4xW0NIMl1bQ0gyXVtDSF0oW0NIMl1bQ0gyXTEpW05IXUMoPU8pW05IXVtDSDJdW0NIMl1uMltjSF1bY0hdbltjSF0y

> <s_epik_cmdline>
J2VwaWtfcHl0aG9uJywgJy1waCcsICc3LjAnLCAnLXRuJywgJzgnLCAnLW1hJywgJzIwMCcsICctbWV0YWxfYmluZGluZycsICctaW1hZScsICc8aW5maWxlLm1hZT4nLCAnLW9tYWUnLCAnPG91dGZpbGUubWFlPic=

> <r_lp_tautomer_probability>
1

> <r_epik_Ionization_Penalty>
0.255167

> <r_epik_Ionization_Penalty_Charging>
0

> <r_epik_Ionization_Penalty_Neutral>
0.255167

> <r_epik_State_Penalty>
0.246616

> <r_epik_Charging_Adjusted_Penalty>
0.246616

> <i_epik_Tot_Q>
1

> <i_epik_Tot_abs_Q>
1

> <r_epik_Metal_State_Penalty>
0.536415

> <b_epik_Metal_Only>
0

> <s_lp_Force_Field>
OPLS_2005

> <r_lp_Energy>
22.8295

> <b_lp_Chiralities_Consistent>
1

> <s_lp_Variant>
AV-unprocessed.smi:1133-1

> <Gold.Version>
5.8.1

> <Gold.Id.Protein>
6NUR|6NUR_protein|mol2

> <Gold.PLP.Fitness>
51.1044

> <Gold.PLP.PLP>
-42.3874

> <Gold.PLP.part.hbond>
-2.0000

> <Gold.PLP.part.metal>
0.0000

> <Gold.PLP.part.buried>
1.0086

> <Gold.PLP.part.nonpolar>
-42.4231

> <Gold.PLP.part.repulsive>
1.5632

> <Gold.PLP.ligand.clash>
0.0000

> <Gold.PLP.ligand.torsion>
0.4093

> <Gold.PLP.Chemscore.Hbond>
2.8800

> <Gold.PLP.Chemscore.CHOScore>
0.2904

> <Gold.PLP.Chemscore.Metal>
0.0000

> <Gold.Chemscore.Hbonds>
donor molecule, donor type, donor heavy atom, donor atom, acceptor molecule, acceptor atom, score
      L1  H    17    42       P1 10175  2.00
      P1  H  7989  7998       L1    10  0.88
      L1  C    15    35       P1  8028  0.29

> <Gold.PLP.Chemscore.Internal.Correction>
0.0246

> <Gold.Rescore>
     Score         DG    S(hbond)    S(metal)    S(lipo)     H(rot)  DE(clash)    DE(int)     intcor
     13.42     -16.55       1.82        0.00      88.05       2.08       1.84       1.29       ----

> <Gold.Chemscore.Fitness>
13.4225

> <Gold.Chemscore.DG>
-16.5466

> <Gold.Chemscore.ZeroCoef>
-5.4800

> <Gold.Chemscore.Hbond>
1.8226

> <Gold.Chemscore.Metal>
0.0000

> <Gold.Chemscore.Lipo>
88.0539

> <Gold.Chemscore.Internal_Hbond>
0.0000

> <Gold.Chemscore.DEClash>
1.8362

> <Gold.Chemscore.DEInternal>
1.2880

> <Gold.Chemscore.Rot>
2.0794

> <Gold.Chemscore.Internal.Correction>
   9.000000E+99

> <Gold.Chemscore.Hbonds>
donor molecule, donor type, donor heavy atom, donor atom, acceptor molecule, acceptor atom, score
      L1  H    17    42       P1 10175  0.24
      P1  H  7989  7998       L1    10  0.86

> <Gold.Chemscore.Hbond.Weighted>
-6.0875

> <Gold.Chemscore.Metal.Weighted>
-0.0000

> <Gold.Chemscore.Lipo.Weighted>
-10.3023

> <Gold.Chemscore.Internal_Hbond.Weighted>
0.0000

> <Gold.Chemscore.DEClash.Weighted>
1.8362

> <Gold.Chemscore.DEInternal.Weighted>
1.2880

> <Gold.Chemscore.Rot.Weighted>
5.3232

> <Gold.Chemscore.Internal.Correction.Weighted>
   9.000000E+99

> <Gold.Protein.RotatedTorsions>
[ 6907 6896 6895 6894 ] final  174.33 input  -60.11 | X-H torsion
[ 7974 7965 7964 7962 ] final  -11.54 input  175.53 | X-H torsion
[ 8008 7997 7996 7995 ] final  -51.42 input   59.86 | X-H torsion
[ 10167 10162 10161 10158 ] final  -79.65 input  -65.29 | X-H torsion
[ 10718 10713 10712 10709 ] final  154.31 input   66.30 | X-H torsion
[ 10763 10752 10751 10750 ] final   43.79 input  -60.55 | X-H torsion
[ 11005 11000 10999 10996 ] final  114.36 input  -57.11 | X-H torsion

> <Gold.Protein.ActiveResidues>
 VAL166  LYS551  ARG553  GLY616  TRP617  ASP618  TYR619  PRO620  LYS621  CYS622 
 ASP623  PHE694  ASN695  SER759  ASP760  ASP761  ALA762  ILE779  LEU786  VAL792 
 PHE793  MET794  SER795  GLU796  ALA797  LYS798  CYS799  TRP800  GLU811  SER814 

> <Gold.Protein.RotatedAtoms>
  151.7540  133.3329  159.3399 H   0  0  0  0  0  0  0  0  0  0  0  0  # atno 6907 bound_to 6896
  150.7524  134.6166  159.6123 H   0  0  0  0  0  0  0  0  0  0  0  0  # atno 6908 bound_to 6896
  152.3449  134.7086  160.0304 H   0  0  0  0  0  0  0  0  0  0  0  0  # atno 6909 bound_to 6896
  146.2184  140.2926  142.8369 H   0  0  0  0  0  0  0  0  0  0  0  0  # atno 7974 bound_to 7965
  154.4082  140.1248  156.4826 H   0  0  0  0  0  0  0  0  0  0  0  0  # atno 8008 bound_to 7997
  155.7070  140.3494  155.4937 H   0  0  0  0  0  0  0  0  0  0  0  0  # atno 8009 bound_to 7997
  155.9335  140.1074  157.1103 H   0  0  0  0  0  0  0  0  0  0  0  0  # atno 8010 bound_to 7997
  140.4574  143.2464  151.8400 H   0  0  0  0  0  0  0  0  0  0  0  0  # atno 10167 bound_to 10162
  157.2333  131.0744  151.1839 H   0  0  0  0  0  0  0  0  0  0  0  0  # atno 10718 bound_to 10713
  152.9853  135.6090  154.3169 H   0  0  0  0  0  0  0  0  0  0  0  0  # atno 10763 bound_to 10752
  154.2881  135.2775  155.2669 H   0  0  0  0  0  0  0  0  0  0  0  0  # atno 10764 bound_to 10752
  154.4977  135.5875  153.6563 H   0  0  0  0  0  0  0  0  0  0  0  0  # atno 10765 bound_to 10752
  139.8978  134.9566  156.6880 H   0  0  0  0  0  0  0  0  0  0  0  0  # atno 11005 bound_to 11000
  144.9116  140.7763  143.5804 LP  0  0  0  0  0  0  0  0  0  0  0  0  # atno 17320 bound_to 7965
  145.2857  139.1902  143.4767 LP  0  0  0  0  0  0  0  0  0  0  0  0  # atno 17321 bound_to 7965
  139.4802  144.5049  151.9011 LP  0  0  0  0  0  0  0  0  0  0  0  0  # atno 17342 bound_to 10162
  140.4135  144.2338  150.5888 LP  0  0  0  0  0  0  0  0  0  0  0  0  # atno 17343 bound_to 10162
  157.3455  130.7055  149.6408 LP  0  0  0  0  0  0  0  0  0  0  0  0  # atno 17370 bound_to 10713
  155.9674  130.4267  150.4713 LP  0  0  0  0  0  0  0  0  0  0  0  0  # atno 17371 bound_to 10713
  140.7247  133.9110  155.8170 LP  0  0  0  0  0  0  0  0  0  0  0  0  # atno 17394 bound_to 11000
  141.0200  134.0902  157.4131 LP  0  0  0  0  0  0  0  0  0  0  0  0  # atno 17395 bound_to 11000

$$$$
