AV-unprocessed.smi:2864|AV-procd|sdf|11014|dock3
  -GOLD-   2272015473D 1   1.00000     0.00000
 Structure written by MMmdl.
 37 38  0  0  0  0  0  0  0  0  1 V2000
  153.6910  139.5154  160.0953 C   0  0  0  0  0  0  0  0  0  0  0  0
  153.1260  140.8974  159.8395 C   0  0  0  0  0  0  0  0  0  0  0  0
  153.5658  141.9992  160.5963 C   0  0  0  0  0  0  0  0  0  0  0  0
  153.0395  143.2788  160.3448 C   0  0  0  0  0  0  0  0  0  0  0  0
  152.0684  143.4757  159.3395 C   0  0  0  0  0  0  0  0  0  0  0  0
  151.5541  144.8880  159.1099 C   0  0  0  0  0  0  0  0  0  0  0  0
  151.6096  142.3627  158.5804 C   0  0  0  0  0  0  0  0  0  0  0  0
  150.5653  142.4803  157.4694 C   0  0  1  0  0  0  0  0  0  0  0  0
  150.9545  143.3721  156.4439 O   0  0  0  0  0  0  0  0  0  0  0  0
  150.1999  141.1037  156.8625 C   0  0  0  0  0  0  0  0  0  0  0  0
  149.1104  141.2151  155.8872 N   0  0  0  0  0  0  0  0  0  0  0  0
  147.9556  141.7856  156.3941 N   0  0  0  0  0  0  0  0  0  0  0  0
  146.9160  141.9752  155.6472 C   0  0  0  0  0  0  0  0  0  0  0  0
  145.7074  142.6125  156.2871 C   0  0  0  0  0  0  0  0  0  0  0  0
  145.3096  143.6838  155.6001 F   0  0  0  0  0  0  0  0  0  0  0  0
  144.6996  141.7405  156.3327 F   0  0  0  0  0  0  0  0  0  0  0  0
  145.9954  142.9914  157.5330 F   0  0  0  0  0  0  0  0  0  0  0  0
  146.9671  141.5727  154.2512 C   0  0  0  0  0  0  0  0  0  0  0  0
  148.0990  141.0263  153.7577 C   0  0  0  0  0  0  0  0  0  0  0  0
  149.2817  140.8251  154.5910 C   0  0  0  0  0  0  0  0  0  0  0  0
  150.3363  140.3558  154.1643 O   0  0  0  0  0  0  0  0  0  0  0  0
  152.1530  141.0840  158.8388 C   0  0  0  0  0  0  0  0  0  0  0  0
  154.5409  139.5531  160.7775 H   0  0  0  0  0  0  0  0  0  0  0  0
  154.0263  139.0634  159.1614 H   0  0  0  0  0  0  0  0  0  0  0  0
  152.9281  138.8723  160.5346 H   0  0  0  0  0  0  0  0  0  0  0  0
  154.3098  141.8696  161.3687 H   0  0  0  0  0  0  0  0  0  0  0  0
  153.3914  144.1154  160.9309 H   0  0  0  0  0  0  0  0  0  0  0  0
  150.5413  144.9931  159.4988 H   0  0  0  0  0  0  0  0  0  0  0  0
  151.5506  145.1427  158.0510 H   0  0  0  0  0  0  0  0  0  0  0  0
  152.1803  145.6226  159.6172 H   0  0  0  0  0  0  0  0  0  0  0  0
  149.6715  142.9306  157.9043 H   0  0  0  0  0  0  0  0  0  0  0  0
  150.2563  143.9939  156.3078 H   0  0  0  0  0  0  0  0  0  0  0  0
  151.0730  140.6231  156.4166 H   0  0  0  0  0  0  0  0  0  0  0  0
  149.8901  140.4147  157.6510 H   0  0  0  0  0  0  0  0  0  0  0  0
  146.1051  141.7114  153.6158 H   0  0  0  0  0  0  0  0  0  0  0  0
  148.1329  140.7294  152.7196 H   0  0  0  0  0  0  0  0  0  0  0  0
  151.8241  140.2320  158.2613 H   0  0  0  0  0  0  0  0  0  0  0  0
  1  2  1  0  0  0  0
  1 23  1  0  0  0  0
  1 24  1  0  0  0  0
  1 25  1  0  0  0  0
  2 22  1  0  0  0  0
  2  3  2  0  0  0  0
  3  4  1  0  0  0  0
  3 26  1  0  0  0  0
  4  5  2  0  0  0  0
  4 27  1  0  0  0  0
  5  6  1  0  0  0  0
  5  7  1  0  0  0  0
  6 28  1  0  0  0  0
  6 29  1  0  0  0  0
  6 30  1  0  0  0  0
  7  8  1  0  0  0  0
  7 22  2  0  0  0  0
  8  9  1  0  0  0  0
  8 10  1  0  0  0  0
  8 31  1  0  0  0  0
  9 32  1  0  0  0  0
 10 11  1  0  0  0  0
 10 33  1  0  0  0  0
 10 34  1  0  0  0  0
 11 20  1  0  0  0  0
 11 12  1  0  0  0  0
 12 13  2  0  0  0  0
 13 14  1  0  0  0  0
 13 18  1  0  0  0  0
 14 15  1  0  0  0  0
 14 16  1  0  0  0  0
 14 17  1  0  0  0  0
 18 19  2  0  0  0  0
 18 35  1  0  0  0  0
 19 20  1  0  0  0  0
 19 36  1  0  0  0  0
 20 21  2  0  0  0  0
 22 37  1  0  0  0  0
M  END
> <s_m_source_file>
AV-unprocessed.smi

> <i_m_source_file_index>
2864

> <i_lp_mmshare_version>
43012

> <i_f3d_flags>
0

> <s_epik_input>
W0NIM11jMVtjSF1bY0hdYyhbQ0gzXSljKFtjSF0xKVtDQEhdKFtPSF0pW0NIMl1uMm5jKEMoRikoRilGKVtjSF1bY0hdYzI9Tw==

> <s_epik_cmdline>
J2VwaWtfcHl0aG9uJywgJy1waCcsICc3LjAnLCAnLXRuJywgJzgnLCAnLW1hJywgJzIwMCcsICctbWV0YWxfYmluZGluZycsICctaW1hZScsICc8aW5maWxlLm1hZT4nLCAnLW9tYWUnLCAnPG91dGZpbGUubWFlPic=

> <r_lp_tautomer_probability>
1

> <r_epik_Ionization_Penalty>
5.25156e-08

> <r_epik_Ionization_Penalty_Charging>
3.92872e-09

> <r_epik_Ionization_Penalty_Neutral>
4.85868e-08

> <r_epik_State_Penalty>
-0

> <r_epik_Charging_Adjusted_Penalty>
3.92872e-09

> <i_epik_Tot_Q>
0

> <i_epik_Tot_abs_Q>
0

> <r_epik_Metal_State_Penalty>
-0

> <b_epik_Metal_Only>
0

> <s_lp_Force_Field>
OPLS_2005

> <r_lp_Energy>
33.8366

> <b_lp_Chiralities_Consistent>
1

> <s_lp_Variant>
AV-unprocessed.smi:2864-2

> <Gold.Version>
5.8.1

> <Gold.Id.Protein>
6NUR|6NUR_protein|mol2

> <Gold.PLP.Fitness>
50.9909

> <Gold.PLP.PLP>
-45.3465

> <Gold.PLP.part.hbond>
-1.7551

> <Gold.PLP.part.metal>
0.0000

> <Gold.PLP.part.buried>
-6.6274

> <Gold.PLP.part.nonpolar>
-38.1981

> <Gold.PLP.part.repulsive>
0.4187

> <Gold.PLP.ligand.clash>
0.0000

> <Gold.PLP.ligand.torsion>
0.1415

> <Gold.PLP.Chemscore.Hbond>
1.9600

> <Gold.PLP.Chemscore.CHOScore>
0.0000

> <Gold.PLP.Chemscore.Metal>
0.0000

> <Gold.Chemscore.Hbonds>
donor molecule, donor type, donor heavy atom, donor atom, acceptor molecule, acceptor atom, score
      L1  H     9    32       P1  8028  1.00
      P1  H  7989  7998       L1    21  0.96

> <Gold.PLP.Chemscore.Internal.Correction>
0.0475

> <Gold.Rescore>
     Score         DG    S(hbond)    S(metal)    S(lipo)     H(rot)  DE(clash)    DE(int)     intcor
     20.20     -20.38       1.99        0.00     115.55       2.05       0.08       0.10       ----

> <Gold.Chemscore.Fitness>
20.1968

> <Gold.Chemscore.DG>
-20.3802

> <Gold.Chemscore.ZeroCoef>
-5.4800

> <Gold.Chemscore.Hbond>
1.9861

> <Gold.Chemscore.Metal>
0.0000

> <Gold.Chemscore.Lipo>
115.5472

> <Gold.Chemscore.Internal_Hbond>
0.0000

> <Gold.Chemscore.DEClash>
0.0815

> <Gold.Chemscore.DEInternal>
0.1019

> <Gold.Chemscore.Rot>
2.0517

> <Gold.Chemscore.Internal.Correction>
   9.000000E+99

> <Gold.Chemscore.Hbonds>
donor molecule, donor type, donor heavy atom, donor atom, acceptor molecule, acceptor atom, score
      L1  H     9    32       P1  8028  1.00
      P1  H  7989  7998       L1    21  0.86

> <Gold.Chemscore.Hbond.Weighted>
-6.6335

> <Gold.Chemscore.Metal.Weighted>
-0.0000

> <Gold.Chemscore.Lipo.Weighted>
-13.5190

> <Gold.Chemscore.Internal_Hbond.Weighted>
0.0000

> <Gold.Chemscore.DEClash.Weighted>
0.0815

> <Gold.Chemscore.DEInternal.Weighted>
0.1019

> <Gold.Chemscore.Rot.Weighted>
5.2524

> <Gold.Chemscore.Internal.Correction.Weighted>
   9.000000E+99

> <Gold.Protein.RotatedTorsions>
[ 6907 6896 6895 6894 ] final   23.35 input  -60.11 | X-H torsion
[ 7974 7965 7964 7962 ] final  135.47 input  175.53 | X-H torsion
[ 8008 7997 7996 7995 ] final   32.18 input   59.86 | X-H torsion
[ 10167 10162 10161 10158 ] final  -21.14 input  -65.29 | X-H torsion
[ 10718 10713 10712 10709 ] final  129.50 input   66.30 | X-H torsion
[ 10763 10752 10751 10750 ] final  179.63 input  -60.55 | X-H torsion
[ 11005 11000 10999 10996 ] final    2.90 input  -57.11 | X-H torsion

> <Gold.Protein.ActiveResidues>
 VAL166  LYS551  ARG553  GLY616  TRP617  ASP618  TYR619  PRO620  LYS621  CYS622 
 ASP623  PHE694  ASN695  SER759  ASP760  ASP761  ALA762  ILE779  LEU786  VAL792 
 PHE793  MET794  SER795  GLU796  ALA797  LYS798  CYS799  TRP800  GLU811  SER814 

> <Gold.Protein.RotatedAtoms>
  151.9410  135.0213  160.0535 H   0  0  0  0  0  0  0  0  0  0  0  0  # atno 6907 bound_to 6896
  152.2037  133.4855  159.5080 H   0  0  0  0  0  0  0  0  0  0  0  0  # atno 6908 bound_to 6896
  150.6960  134.1475  159.4170 H   0  0  0  0  0  0  0  0  0  0  0  0  # atno 6909 bound_to 6896
  144.9660  139.4657  143.5456 H   0  0  0  0  0  0  0  0  0  0  0  0  # atno 7974 bound_to 7965
  155.1183  140.3246  155.4504 H   0  0  0  0  0  0  0  0  0  0  0  0  # atno 8008 bound_to 7997
  156.2670  140.2032  156.6254 H   0  0  0  0  0  0  0  0  0  0  0  0  # atno 8009 bound_to 7997
  154.6703  140.0537  157.0145 H   0  0  0  0  0  0  0  0  0  0  0  0  # atno 8010 bound_to 7997
  140.7280  143.4656  151.0319 H   0  0  0  0  0  0  0  0  0  0  0  0  # atno 10167 bound_to 10162
  157.5148  131.1097  150.9240 H   0  0  0  0  0  0  0  0  0  0  0  0  # atno 10718 bound_to 10713
  154.5232  135.2795  155.1244 H   0  0  0  0  0  0  0  0  0  0  0  0  # atno 10763 bound_to 10752
  154.2794  135.6288  153.5344 H   0  0  0  0  0  0  0  0  0  0  0  0  # atno 10764 bound_to 10752
  152.9941  135.5647  154.5726 H   0  0  0  0  0  0  0  0  0  0  0  0  # atno 10765 bound_to 10752
  140.5991  133.9852  155.8124 H   0  0  0  0  0  0  0  0  0  0  0  0  # atno 11005 bound_to 11000
  146.3368  139.8841  142.8819 LP  0  0  0  0  0  0  0  0  0  0  0  0  # atno 17320 bound_to 7965
  145.2629  141.0083  143.3816 LP  0  0  0  0  0  0  0  0  0  0  0  0  # atno 17321 bound_to 7965
  139.8343  143.7648  152.3180 LP  0  0  0  0  0  0  0  0  0  0  0  0  # atno 17342 bound_to 10162
  139.7775  144.7456  151.0136 LP  0  0  0  0  0  0  0  0  0  0  0  0  # atno 17343 bound_to 10162
  156.9869  130.5548  149.5300 LP  0  0  0  0  0  0  0  0  0  0  0  0  # atno 17370 bound_to 10713
  156.0313  130.5404  150.8541 LP  0  0  0  0  0  0  0  0  0  0  0  0  # atno 17371 bound_to 10713
  141.0884  133.9955  157.3277 LP  0  0  0  0  0  0  0  0  0  0  0  0  # atno 17394 bound_to 11000
  139.9240  135.0201  156.8168 LP  0  0  0  0  0  0  0  0  0  0  0  0  # atno 17395 bound_to 11000

$$$$
