AV-unprocessed.smi:72|AV-procd|sdf|756|dock2
  -GOLD-   2262017 93D 1   1.00000     0.00000
 Structure written by MMmdl.
 29 30  0  0  0  0  0  0  0  0  1 V2000
  144.3010  138.4704  154.2879 N   0  0  0  0  0  0  0  0  0  0  0  0
  144.5192  137.2185  153.7522 C   0  0  0  0  0  0  0  0  0  0  0  0
  144.5384  137.1340  152.3540 N   0  0  0  0  0  0  0  0  0  0  0  0
  144.7527  135.9618  151.8461 C   0  0  0  0  0  0  0  0  0  0  0  0
  144.9843  134.7999  152.6912 N   0  0  0  0  0  0  0  0  0  0  0  0
  145.2180  133.4045  152.1310 C   0  0  1  0  0  0  0  0  0  0  0  0
  144.2180  133.0871  151.2062 O   0  0  0  0  0  0  0  0  0  0  0  0
  144.6812  133.3528  149.8857 C   0  0  2  0  0  0  0  0  0  0  0  0
  143.8015  132.6553  148.8336 C   0  0  0  0  0  0  0  0  0  0  0  0
  144.0019  133.2496  147.5689 O   0  0  0  0  0  0  0  0  0  0  0  0
  146.1358  132.8796  149.9618 C   0  0  2  0  0  0  0  0  0  0  0  0
  146.2139  131.4731  149.7881 O   0  0  0  0  0  0  0  0  0  0  0  0
  146.5571  133.3282  151.3628 C   0  0  2  0  0  0  0  0  0  0  0  0
  147.4907  132.4437  151.9536 O   0  0  0  0  0  0  0  0  0  0  0  0
  144.9090  134.9559  154.1038 C   0  0  0  0  0  0  0  0  0  0  0  0
  145.0429  133.9799  154.8417 O   0  0  0  0  0  0  0  0  0  0  0  0
  144.6812  136.2446  154.6003 N   0  0  0  0  0  0  0  0  0  0  0  0
  145.1479  132.7371  152.9919 H   0  0  0  0  0  0  0  0  0  0  0  0
  144.6865  134.4301  149.7091 H   0  0  0  0  0  0  0  0  0  0  0  0
  146.7492  133.3475  149.1911 H   0  0  0  0  0  0  0  0  0  0  0  0
  146.9987  134.3241  151.3019 H   0  0  0  0  0  0  0  0  0  0  0  0
  144.2639  138.6510  155.2805 H   0  0  0  0  0  0  0  0  0  0  0  0
  144.1664  139.2991  153.7275 H   0  0  0  0  0  0  0  0  0  0  0  0
  144.7687  135.7847  150.7708 H   0  0  0  0  0  0  0  0  0  0  0  0
  144.0797  131.6045  148.7480 H   0  0  0  0  0  0  0  0  0  0  0  0
  142.7464  132.6935  149.1063 H   0  0  0  0  0  0  0  0  0  0  0  0
  143.1755  133.2674  147.1111 H   0  0  0  0  0  0  0  0  0  0  0  0
  147.0951  131.1981  149.9910 H   0  0  0  0  0  0  0  0  0  0  0  0
  148.0792  132.1403  151.2789 H   0  0  0  0  0  0  0  0  0  0  0  0
  1  2  1  0  0  0  0
  1 22  1  0  0  0  0
  1 23  1  0  0  0  0
  2 17  2  0  0  0  0
  2  3  1  0  0  0  0
  3  4  2  0  0  0  0
  4  5  1  0  0  0  0
  4 24  1  0  0  0  0
  5  6  1  0  0  0  0
  5 15  1  0  0  0  0
  6 18  1  0  0  0  0
  6 13  1  0  0  0  0
  6  7  1  0  0  0  0
  7  8  1  0  0  0  0
  8 19  1  0  0  0  0
  8  9  1  0  0  0  0
  8 11  1  0  0  0  0
  9 10  1  0  0  0  0
  9 25  1  0  0  0  0
  9 26  1  0  0  0  0
 10 27  1  0  0  0  0
 11 20  1  0  0  0  0
 11 12  1  0  0  0  0
 11 13  1  0  0  0  0
 12 28  1  0  0  0  0
 13 21  1  0  0  0  0
 13 14  1  0  0  0  0
 14 29  1  0  0  0  0
 15 16  2  0  0  0  0
 15 17  1  0  0  0  0
M  END
> <s_m_source_file>
AV-unprocessed.smi

> <i_m_source_file_index>
72

> <i_lp_mmshare_version>
43012

> <i_f3d_flags>
0

> <s_epik_input>
W05IMl1jMW5bY0hdbihjKD1PKW4xKVtDQEBIXTJPW0NASF0oW0NIMl1bT0hdKVtDQEBIXShbT0hdKVtDQEhdMltPSF0=

> <s_epik_cmdline>
J2VwaWtfcHl0aG9uJywgJy1waCcsICc3LjAnLCAnLXRuJywgJzgnLCAnLW1hJywgJzIwMCcsICctbWV0YWxfYmluZGluZycsICctaW1hZScsICc8aW5maWxlLm1hZT4nLCAnLW9tYWUnLCAnPG91dGZpbGUubWFlPic=

> <r_lp_tautomer_probability>
4.77166e-05

> <r_epik_Ionization_Penalty>
1.3546

> <r_epik_Ionization_Penalty_Charging>
1.46833e-10

> <r_epik_Ionization_Penalty_Neutral>
1.3546

> <r_epik_State_Penalty>
3.51908

> <r_epik_Charging_Adjusted_Penalty>
3.51908

> <i_epik_Tot_Q>
0

> <i_epik_Tot_abs_Q>
0

> <r_epik_Metal_State_Penalty>
3.44088

> <b_epik_Metal_Only>
1

> <s_epik_Chemistry_Notes>
This compound contains an acetal/aminal-like group ( X-CH(R)-Y where X, Y are N, S, or O) that may be acid/base labile, releasing an aldehyde.

> <s_lp_Force_Field>
OPLS_2005

> <r_lp_Energy>
31.1202

> <b_lp_Chiralities_Consistent>
1

> <s_lp_Variant>
AV-unprocessed.smi:72-94

> <Gold.Version>
5.8.1

> <Gold.Id.Protein>
6NUR|6NUR_protein|mol2

> <Gold.PLP.Fitness>
36.5346

> <Gold.PLP.PLP>
-22.9906

> <Gold.PLP.part.hbond>
-6.0000

> <Gold.PLP.part.metal>
0.0000

> <Gold.PLP.part.buried>
-3.3763

> <Gold.PLP.part.nonpolar>
-13.7682

> <Gold.PLP.part.repulsive>
1.2818

> <Gold.PLP.ligand.clash>
0.0000

> <Gold.PLP.ligand.torsion>
0.2842

> <Gold.PLP.Chemscore.Hbond>
4.6950

> <Gold.PLP.Chemscore.CHOScore>
0.0000

> <Gold.PLP.Chemscore.Metal>
0.0000

> <Gold.Chemscore.Hbonds>
donor molecule, donor type, donor heavy atom, donor atom, acceptor molecule, acceptor atom, score
      L1  H     1    23       P1 10175  1.00
      L1  H    10    27       P1 10195  0.84
      L1  H    12    28       P1 10747  1.00
      L1  H    14    29       P1 10747  1.00
      P1  H  7918  7932       L1    10  0.64

> <Gold.PLP.Chemscore.Internal.Correction>
0.0275

> <Gold.Rescore>
     Score         DG    S(hbond)    S(metal)    S(lipo)     H(rot)  DE(clash)    DE(int)     intcor
     11.34     -12.91       4.01        0.00      37.84       4.06       1.46       0.11       ----

> <Gold.Chemscore.Fitness>
11.3400

> <Gold.Chemscore.DG>
-12.9086

> <Gold.Chemscore.ZeroCoef>
-5.4800

> <Gold.Chemscore.Hbond>
4.0106

> <Gold.Chemscore.Metal>
0.0000

> <Gold.Chemscore.Lipo>
37.8365

> <Gold.Chemscore.Internal_Hbond>
0.0000

> <Gold.Chemscore.DEClash>
1.4618

> <Gold.Chemscore.DEInternal>
0.1068

> <Gold.Chemscore.Rot>
4.0600

> <Gold.Chemscore.Internal.Correction>
   9.000000E+99

> <Gold.Chemscore.Hbonds>
donor molecule, donor type, donor heavy atom, donor atom, acceptor molecule, acceptor atom, score
      L1  H     1    23       P1 10175  1.00
      L1  H    10    27       P1 10195  0.82
      L1  H    12    28       P1 10747  1.00
      L1  H    14    29       P1 10747  0.98
      P1  H  7918  7932       L1    10  0.14

> <Gold.Chemscore.Hbond.Weighted>
-13.3953

> <Gold.Chemscore.Metal.Weighted>
-0.0000

> <Gold.Chemscore.Lipo.Weighted>
-4.4269

> <Gold.Chemscore.Internal_Hbond.Weighted>
0.0000

> <Gold.Chemscore.DEClash.Weighted>
1.4618

> <Gold.Chemscore.DEInternal.Weighted>
0.1068

> <Gold.Chemscore.Rot.Weighted>
10.3936

> <Gold.Chemscore.Internal.Correction.Weighted>
   9.000000E+99

> <Gold.Protein.RotatedTorsions>
[ 6907 6896 6895 6894 ] final   -7.16 input  -60.11 | X-H torsion
[ 7974 7965 7964 7962 ] final  -35.86 input  175.53 | X-H torsion
[ 8008 7997 7996 7995 ] final  -19.95 input   59.86 | X-H torsion
[ 10167 10162 10161 10158 ] final  115.56 input  -65.29 | X-H torsion
[ 10718 10713 10712 10709 ] final   -9.21 input   66.30 | X-H torsion
[ 10763 10752 10751 10750 ] final  153.59 input  -60.55 | X-H torsion
[ 11005 11000 10999 10996 ] final  147.83 input  -57.11 | X-H torsion

> <Gold.Protein.ActiveResidues>
 VAL166  LYS551  ARG553  GLY616  TRP617  ASP618  TYR619  PRO620  LYS621  CYS622 
 ASP623  PHE694  ASN695  SER759  ASP760  ASP761  ALA762  ILE779  LEU786  VAL792 
 PHE793  MET794  SER795  GLU796  ALA797  LYS798  CYS799  TRP800  GLU811  SER814 

> <Gold.Protein.RotatedAtoms>
  151.4539  135.1032  159.9705 H   0  0  0  0  0  0  0  0  0  0  0  0  # atno 6907 bound_to 6896
  152.4878  133.8414  159.7165 H   0  0  0  0  0  0  0  0  0  0  0  0  # atno 6908 bound_to 6896
  150.9003  133.7068  159.2908 H   0  0  0  0  0  0  0  0  0  0  0  0  # atno 6909 bound_to 6896
  146.0710  140.6210  142.8952 H   0  0  0  0  0  0  0  0  0  0  0  0  # atno 7974 bound_to 7965
  154.4802  140.2075  155.9781 H   0  0  0  0  0  0  0  0  0  0  0  0  # atno 8008 bound_to 7997
  156.1153  140.3222  155.8100 H   0  0  0  0  0  0  0  0  0  0  0  0  # atno 8009 bound_to 7997
  155.4563  140.0520  157.2986 H   0  0  0  0  0  0  0  0  0  0  0  0  # atno 8010 bound_to 7997
  139.6308  144.7114  151.2435 H   0  0  0  0  0  0  0  0  0  0  0  0  # atno 10167 bound_to 10162
  156.6914  130.5066  149.5942 H   0  0  0  0  0  0  0  0  0  0  0  0  # atno 10718 bound_to 10713
  154.1386  135.2822  155.3167 H   0  0  0  0  0  0  0  0  0  0  0  0  # atno 10763 bound_to 10752
  154.6303  135.5437  153.7677 H   0  0  0  0  0  0  0  0  0  0  0  0  # atno 10764 bound_to 10752
  153.0258  135.6461  154.1534 H   0  0  0  0  0  0  0  0  0  0  0  0  # atno 10765 bound_to 10752
  140.0909  134.9041  157.1649 H   0  0  0  0  0  0  0  0  0  0  0  0  # atno 11005 bound_to 11000
  144.7232  140.4440  143.6993 LP  0  0  0  0  0  0  0  0  0  0  0  0  # atno 17320 bound_to 7965
  145.6391  139.1547  143.2926 LP  0  0  0  0  0  0  0  0  0  0  0  0  # atno 17321 bound_to 7965
  140.7438  143.6483  150.8272 LP  0  0  0  0  0  0  0  0  0  0  0  0  # atno 17342 bound_to 10162
  140.0108  143.5645  152.2840 LP  0  0  0  0  0  0  0  0  0  0  0  0  # atno 17343 bound_to 10162
  156.1795  130.6489  151.0934 LP  0  0  0  0  0  0  0  0  0  0  0  0  # atno 17370 bound_to 10713
  157.7007  131.0777  150.6828 LP  0  0  0  0  0  0  0  0  0  0  0  0  # atno 17371 bound_to 10713
  140.3354  134.2763  155.7221 LP  0  0  0  0  0  0  0  0  0  0  0  0  # atno 17394 bound_to 11000
  141.2077  133.7797  157.0101 LP  0  0  0  0  0  0  0  0  0  0  0  0  # atno 17395 bound_to 11000

$$$$
