AV-unprocessed.smi:809|AV-procd|sdf|3805|dock7
  -GOLD-   22720 1243D 1   1.00000     0.00000
 Structure written by MMmdl.
 40 41  0  0  0  0  0  0  0  0  2 V2000
  151.6259  140.3560  156.6064 C   0  0  0  0  0  0  0  0  0  0  0  0
  150.4632  140.4354  155.6677 C   0  0  0  0  0  0  0  0  0  0  0  0
  149.8152  141.5718  155.2489 C   0  0  0  0  0  0  0  0  0  0  0  0
  148.5122  141.2135  154.1475 S   0  0  0  0  0  0  0  0  0  0  0  0
  148.9032  139.5080  154.3021 C   0  0  0  0  0  0  0  0  0  0  0  0
  148.1805  138.5064  153.6028 N   0  0  0  0  0  0  0  0  0  0  0  0
  146.8786  138.1910  153.7143 C   0  0  0  0  0  0  0  0  0  0  0  0
  146.0673  138.7624  154.4430 O   0  0  0  0  0  0  0  0  0  0  0  0
  146.5624  137.1568  152.9221 N   0  0  0  0  0  0  0  0  0  0  0  0
  145.2401  136.5431  152.8258 C   0  0  0  0  0  0  0  0  0  0  0  0
  145.2139  135.2531  151.9642 C   0  0  1  0  0  0  0  0  0  0  0  0
  146.4668  134.6136  152.1310 O   0  0  0  0  0  0  0  0  0  0  0  0
  144.1340  134.2876  152.5016 C   0  0  0  0  0  0  0  0  0  0  0  0
  143.9745  133.0254  151.6347 C   0  0  0  0  0  0  0  0  0  0  0  0
  143.6979  133.3822  150.2226 N   0  3  2  0  0  0  0  0  0  0  0  0
  143.4069  132.1960  149.3891 C   0  0  0  0  0  0  0  0  0  0  0  0
  144.7729  134.2267  149.6482 C   0  0  0  0  0  0  0  0  0  0  0  0
  144.9607  135.5212  150.4611 C   0  0  0  0  0  0  0  0  0  0  0  0
  149.9340  139.2636  155.1194 N   0  0  0  0  0  0  0  0  0  0  0  0
  151.8192  141.3167  157.0842 H   0  0  0  0  0  0  0  0  0  0  0  0
  152.5340  140.0596  156.0812 H   0  0  0  0  0  0  0  0  0  0  0  0
  151.4467  139.6263  157.3964 H   0  0  0  0  0  0  0  0  0  0  0  0
  150.0258  142.5958  155.5196 H   0  0  0  0  0  0  0  0  0  0  0  0
  148.7218  137.9589  152.9502 H   0  0  0  0  0  0  0  0  0  0  0  0
  147.2918  136.7561  152.3509 H   0  0  0  0  0  0  0  0  0  0  0  0
  144.8159  136.3663  153.8162 H   0  0  0  0  0  0  0  0  0  0  0  0
  144.6011  137.2960  152.3634 H   0  0  0  0  0  0  0  0  0  0  0  0
  147.1527  135.2616  152.0883 H   0  0  0  0  0  0  0  0  0  0  0  0
  144.3578  134.0027  153.5308 H   0  0  0  0  0  0  0  0  0  0  0  0
  143.1733  134.8035  152.5356 H   0  0  0  0  0  0  0  0  0  0  0  0
  144.8724  132.4075  151.6891 H   0  0  0  0  0  0  0  0  0  0  0  0
  143.1542  132.4215  152.0246 H   0  0  0  0  0  0  0  0  0  0  0  0
  144.2716  131.5333  149.3344 H   0  0  0  0  0  0  0  0  0  0  0  0
  143.1387  132.4936  148.3749 H   0  0  0  0  0  0  0  0  0  0  0  0
  142.5694  131.6322  149.8011 H   0  0  0  0  0  0  0  0  0  0  0  0
  145.7054  133.6608  149.6152 H   0  0  0  0  0  0  0  0  0  0  0  0
  144.5243  134.4816  148.6174 H   0  0  0  0  0  0  0  0  0  0  0  0
  144.0673  136.1380  150.3528 H   0  0  0  0  0  0  0  0  0  0  0  0
  145.7811  136.0949  150.0280 H   0  0  0  0  0  0  0  0  0  0  0  0
  142.8580  133.9436  150.2246 H   0  0  0  0  0  0  0  0  0  0  0  0
  1  2  1  0  0  0  0
  1 20  1  0  0  0  0
  1 21  1  0  0  0  0
  1 22  1  0  0  0  0
  2 19  1  0  0  0  0
  2  3  2  0  0  0  0
  3  4  1  0  0  0  0
  3 23  1  0  0  0  0
  4  5  1  0  0  0  0
  5  6  1  0  0  0  0
  5 19  2  0  0  0  0
  6  7  1  0  0  0  0
  6 24  1  0  0  0  0
  7  8  2  0  0  0  0
  7  9  1  0  0  0  0
  9 10  1  0  0  0  0
  9 25  1  0  0  0  0
 10 11  1  0  0  0  0
 10 26  1  0  0  0  0
 10 27  1  0  0  0  0
 11 18  1  0  0  0  0
 11 12  1  0  0  0  0
 11 13  1  0  0  0  0
 12 28  1  0  0  0  0
 13 14  1  0  0  0  0
 13 29  1  0  0  0  0
 13 30  1  0  0  0  0
 14 15  1  0  0  0  0
 14 31  1  0  0  0  0
 14 32  1  0  0  0  0
 15 16  1  0  0  0  0
 15 17  1  0  0  0  0
 15 40  1  0  0  0  0
 16 33  1  0  0  0  0
 16 34  1  0  0  0  0
 16 35  1  0  0  0  0
 17 18  1  0  0  0  0
 17 36  1  0  0  0  0
 17 37  1  0  0  0  0
 18 38  1  0  0  0  0
 18 39  1  0  0  0  0
M  CHG  1  15   1
M  END
> <s_m_source_file>
AV-unprocessed.smi

> <i_m_source_file_index>
809

> <i_lp_mmshare_version>
43012

> <i_f3d_flags>
0

> <s_epik_input>
W0NIM11jMVtjSF1zYyhuMSlbTkhdQyg9TylbTkhdW0NIMl1DMihbT0hdKVtDSDJdW0NIMl1OKFtDSDNdKVtDSDJdW0NIMl0y

> <s_epik_cmdline>
J2VwaWtfcHl0aG9uJywgJy1waCcsICc3LjAnLCAnLXRuJywgJzgnLCAnLW1hJywgJzIwMCcsICctbWV0YWxfYmluZGluZycsICctaW1hZScsICc8aW5maWxlLm1hZT4nLCAnLW9tYWUnLCAnPG91dGZpbGUubWFlPic=

> <r_lp_tautomer_probability>
0.999

> <r_epik_Ionization_Penalty>
0.00116503

> <r_epik_Ionization_Penalty_Charging>
0.000767707

> <r_epik_Ionization_Penalty_Neutral>
0.00039732

> <r_epik_State_Penalty>
0.000177984

> <r_epik_Charging_Adjusted_Penalty>
0.00094569

> <i_epik_Tot_Q>
1

> <i_epik_Tot_abs_Q>
1

> <r_epik_Metal_State_Penalty>
0.00775393

> <b_epik_Metal_Only>
0

> <s_lp_Force_Field>
OPLS_2005

> <r_lp_Energy>
16.8218

> <b_lp_Chiralities_Consistent>
1

> <s_lp_Variant>
AV-unprocessed.smi:809-1

> <Gold.Version>
5.8.1

> <Gold.Id.Protein>
6NUR|6NUR_protein|mol2

> <Gold.PLP.Fitness>
43.7000

> <Gold.PLP.PLP>
-28.0885

> <Gold.PLP.part.hbond>
-4.6242

> <Gold.PLP.part.metal>
0.0000

> <Gold.PLP.part.buried>
3.9016

> <Gold.PLP.part.nonpolar>
-28.2317

> <Gold.PLP.part.repulsive>
0.2512

> <Gold.PLP.ligand.clash>
0.0000

> <Gold.PLP.ligand.torsion>
1.1477

> <Gold.PLP.Chemscore.Hbond>
4.9675

> <Gold.PLP.Chemscore.CHOScore>
1.0000

> <Gold.PLP.Chemscore.Metal>
0.0000

> <Gold.Chemscore.Hbonds>
donor molecule, donor type, donor heavy atom, donor atom, acceptor molecule, acceptor atom, score
      L1  H     6    24       P1  7948  0.99
      L1  H     9    25       P1  7948  1.00
      L1  H    12    28       P1  7948  1.00
      L1  H    15    40       P1 10186  2.00
      L1  C     3    23       P1  8028  1.00

> <Gold.PLP.Chemscore.Internal.Correction>
0.0045

> <Gold.Rescore>
     Score         DG    S(hbond)    S(metal)    S(lipo)     H(rot)  DE(clash)    DE(int)     intcor
     19.44     -22.45       3.83        0.00      76.15       1.85       1.75       1.26       ----

> <Gold.Chemscore.Fitness>
19.4400

> <Gold.Chemscore.DG>
-22.4470

> <Gold.Chemscore.ZeroCoef>
-5.4800

> <Gold.Chemscore.Hbond>
3.8282

> <Gold.Chemscore.Metal>
0.0000

> <Gold.Chemscore.Lipo>
76.1502

> <Gold.Chemscore.Internal_Hbond>
0.0000

> <Gold.Chemscore.DEClash>
1.7491

> <Gold.Chemscore.DEInternal>
1.2578

> <Gold.Chemscore.Rot>
1.8471

> <Gold.Chemscore.Internal.Correction>
   9.000000E+99

> <Gold.Chemscore.Hbonds>
donor molecule, donor type, donor heavy atom, donor atom, acceptor molecule, acceptor atom, score
      L1  H     6    24       P1  7948  0.88
      L1  H     9    25       P1  7948  1.00
      L1  H    12    28       P1  7948  0.93
      L1  H    15    40       P1 10186  0.89

> <Gold.Chemscore.Hbond.Weighted>
-12.7860

> <Gold.Chemscore.Metal.Weighted>
-0.0000

> <Gold.Chemscore.Lipo.Weighted>
-8.9096

> <Gold.Chemscore.Internal_Hbond.Weighted>
0.0000

> <Gold.Chemscore.DEClash.Weighted>
1.7491

> <Gold.Chemscore.DEInternal.Weighted>
1.2578

> <Gold.Chemscore.Rot.Weighted>
4.7286

> <Gold.Chemscore.Internal.Correction.Weighted>
   9.000000E+99

> <Gold.Protein.RotatedTorsions>
[ 6907 6896 6895 6894 ] final  104.10 input  -60.11 | X-H torsion
[ 7974 7965 7964 7962 ] final -177.34 input  175.53 | X-H torsion
[ 8008 7997 7996 7995 ] final   20.32 input   59.86 | X-H torsion
[ 10167 10162 10161 10158 ] final   93.32 input  -65.29 | X-H torsion
[ 10718 10713 10712 10709 ] final -127.87 input   66.30 | X-H torsion
[ 10763 10752 10751 10750 ] final   69.26 input  -60.55 | X-H torsion
[ 11005 11000 10999 10996 ] final  -99.86 input  -57.11 | X-H torsion

> <Gold.Protein.ActiveResidues>
 VAL166  LYS551  ARG553  GLY616  TRP617  ASP618  TYR619  PRO620  LYS621  CYS622 
 ASP623  PHE694  ASN695  SER759  ASP760  ASP761  ALA762  ILE779  LEU786  VAL792 
 PHE793  MET794  SER795  GLU796  ALA797  LYS798  CYS799  TRP800  GLU811  SER814 

> <Gold.Protein.RotatedAtoms>
  152.5275  133.9727  159.7769 H   0  0  0  0  0  0  0  0  0  0  0  0  # atno 6907 bound_to 6896
  150.9996  133.6061  159.2704 H   0  0  0  0  0  0  0  0  0  0  0  0  # atno 6908 bound_to 6896
  151.3175  135.0816  159.9347 H   0  0  0  0  0  0  0  0  0  0  0  0  # atno 6909 bound_to 6896
  144.7127  140.1034  143.6415 H   0  0  0  0  0  0  0  0  0  0  0  0  # atno 7974 bound_to 7965
  154.9338  140.3044  155.5154 H   0  0  0  0  0  0  0  0  0  0  0  0  # atno 8008 bound_to 7997
  156.3001  140.2349  156.4337 H   0  0  0  0  0  0  0  0  0  0  0  0  # atno 8009 bound_to 7997
  154.8211  140.0423  157.1400 H   0  0  0  0  0  0  0  0  0  0  0  0  # atno 8010 bound_to 7997
  139.8191  144.6739  150.9542 H   0  0  0  0  0  0  0  0  0  0  0  0  # atno 10167 bound_to 10162
  156.1897  130.6787  151.0409 H   0  0  0  0  0  0  0  0  0  0  0  0  # atno 10718 bound_to 10713
  153.0278  135.5217  154.7260 H   0  0  0  0  0  0  0  0  0  0  0  0  # atno 10763 bound_to 10752
  154.6302  135.2899  155.0228 H   0  0  0  0  0  0  0  0  0  0  0  0  # atno 10764 bound_to 10752
  154.1182  135.6611  153.4950 H   0  0  0  0  0  0  0  0  0  0  0  0  # atno 10765 bound_to 10752
  141.1293  133.8354  157.1027 H   0  0  0  0  0  0  0  0  0  0  0  0  # atno 11005 bound_to 11000
  145.9518  139.2739  143.1207 LP  0  0  0  0  0  0  0  0  0  0  0  0  # atno 17320 bound_to 7965
  145.9315  140.9045  143.0354 LP  0  0  0  0  0  0  0  0  0  0  0  0  # atno 17321 bound_to 7965
  140.7814  143.4109  151.0994 LP  0  0  0  0  0  0  0  0  0  0  0  0  # atno 17342 bound_to 10162
  139.7771  143.8409  152.3131 LP  0  0  0  0  0  0  0  0  0  0  0  0  # atno 17343 bound_to 10162
  157.6921  131.0806  150.7076 LP  0  0  0  0  0  0  0  0  0  0  0  0  # atno 17370 bound_to 10713
  156.7133  130.4658  149.5541 LP  0  0  0  0  0  0  0  0  0  0  0  0  # atno 17371 bound_to 10713
  140.0323  134.9895  157.0805 LP  0  0  0  0  0  0  0  0  0  0  0  0  # atno 17394 bound_to 11000
  140.4265  134.1826  155.7166 LP  0  0  0  0  0  0  0  0  0  0  0  0  # atno 17395 bound_to 11000

$$$$
