AV-unprocessed.smi:3329|AV-procd|sdf|12800|dock10
  -GOLD-   2272019163D 1   1.00000     0.00000
 Structure written by MMmdl.
 41 42  0  0  0  0  0  0  0  0  3 V2000
  152.7955  142.6947  162.5694 C   0  0  0  0  0  0  0  0  0  0  0  0
  152.3512  143.2628  161.2525 C   0  0  0  0  0  0  0  0  0  0  0  0
  151.8897  144.5826  160.9837 C   0  0  0  0  0  0  0  0  0  0  0  0
  151.5724  144.7679  159.7126 N   0  0  0  0  0  0  0  0  0  0  0  0
  151.8206  143.5782  159.1262 N   0  0  0  0  0  0  0  0  0  0  0  0
  151.5939  143.4160  157.7010 C   0  0  0  0  0  0  0  0  0  0  0  0
  150.5249  142.3519  157.4037 C   0  0  0  0  0  0  0  0  0  0  0  0
  150.3301  142.1911  155.9507 N   0  3  0  0  0  0  0  0  0  0  0  0
  149.5265  141.0173  155.5574 C   0  0  0  0  0  0  0  0  0  0  0  0
  150.4679  139.8782  155.1627 C   0  0  0  0  0  0  0  0  0  0  0  0
  151.6763  140.0938  155.0876 O   0  0  0  0  0  0  0  0  0  0  0  0
  149.7881  138.7271  154.9278 N   0  5  0  0  0  0  0  0  0  0  0  0
  149.6382  137.6624  155.9195 C   0  0  2  0  0  0  0  0  0  0  0  0
  150.1807  138.1347  157.2828 C   0  0  0  0  0  0  0  0  0  0  0  0
  150.3441  136.4349  155.4901 C   0  0  0  0  0  0  0  0  0  0  0  0
  150.8968  135.4743  155.1545 N   0  0  0  0  0  0  0  0  0  0  0  0
  148.1402  137.3879  156.0417 C   0  0  0  0  0  0  0  0  0  0  0  0
  147.2312  138.2418  156.8984 C   0  0  0  0  0  0  0  0  0  0  0  0
  147.5151  136.8104  157.2930 C   0  0  0  0  0  0  0  0  0  0  0  0
  152.2895  142.6505  160.0329 C   0  0  0  0  0  0  0  0  0  0  0  0
  151.9518  142.5241  163.2379 H   0  0  0  0  0  0  0  0  0  0  0  0
  153.4836  143.3652  163.0846 H   0  0  0  0  0  0  0  0  0  0  0  0
  153.3083  141.7403  162.4483 H   0  0  0  0  0  0  0  0  0  0  0  0
  151.7774  145.4076  161.6719 H   0  0  0  0  0  0  0  0  0  0  0  0
  151.3012  144.3790  157.2799 H   0  0  0  0  0  0  0  0  0  0  0  0
  152.5388  143.1416  157.2302 H   0  0  0  0  0  0  0  0  0  0  0  0
  150.8218  141.3933  157.8304 H   0  0  0  0  0  0  0  0  0  0  0  0
  149.5794  142.6311  157.8710 H   0  0  0  0  0  0  0  0  0  0  0  0
  149.8431  143.0056  155.6027 H   0  0  0  0  0  0  0  0  0  0  0  0
  148.8874  140.7126  156.3873 H   0  0  0  0  0  0  0  0  0  0  0  0
  148.8790  141.2644  154.7145 H   0  0  0  0  0  0  0  0  0  0  0  0
  150.0062  137.3811  158.0515 H   0  0  0  0  0  0  0  0  0  0  0  0
  149.6952  139.0548  157.6107 H   0  0  0  0  0  0  0  0  0  0  0  0
  151.2549  138.3185  157.2529 H   0  0  0  0  0  0  0  0  0  0  0  0
  147.6952  137.0472  155.1076 H   0  0  0  0  0  0  0  0  0  0  0  0
  147.6797  139.0280  157.5023 H   0  0  0  0  0  0  0  0  0  0  0  0
  146.2414  138.4669  156.5067 H   0  0  0  0  0  0  0  0  0  0  0  0
  146.7152  136.0857  157.1593 H   0  0  0  0  0  0  0  0  0  0  0  0
  148.1539  136.6398  158.1568 H   0  0  0  0  0  0  0  0  0  0  0  0
  152.5429  141.6426  159.7385 H   0  0  0  0  0  0  0  0  0  0  0  0
  151.2280  142.1370  155.4922 H   0  0  0  0  0  0  0  0  0  0  0  0
  1  2  1  0  0  0  0
  1 21  1  0  0  0  0
  1 22  1  0  0  0  0
  1 23  1  0  0  0  0
  2 20  2  0  0  0  0
  2  3  1  0  0  0  0
  3  4  2  0  0  0  0
  3 24  1  0  0  0  0
  4  5  1  0  0  0  0
  5  6  1  0  0  0  0
  5 20  1  0  0  0  0
  6  7  1  0  0  0  0
  6 25  1  0  0  0  0
  6 26  1  0  0  0  0
  7  8  1  0  0  0  0
  7 27  1  0  0  0  0
  7 28  1  0  0  0  0
  8  9  1  0  0  0  0
  8 29  1  0  0  0  0
  8 41  1  0  0  0  0
  9 10  1  0  0  0  0
  9 30  1  0  0  0  0
  9 31  1  0  0  0  0
 10 11  2  0  0  0  0
 10 12  1  0  0  0  0
 12 13  1  0  0  0  0
 13 14  1  0  0  0  0
 13 15  1  0  0  0  0
 13 17  1  0  0  0  0
 14 32  1  0  0  0  0
 14 33  1  0  0  0  0
 14 34  1  0  0  0  0
 15 16  3  0  0  0  0
 17 19  1  0  0  0  0
 17 18  1  0  0  0  0
 17 35  1  0  0  0  0
 18 19  1  0  0  0  0
 18 36  1  0  0  0  0
 18 37  1  0  0  0  0
 19 38  1  0  0  0  0
 19 39  1  0  0  0  0
 20 40  1  0  0  0  0
M  CHG  1   8   1
M  CHG  1  12  -1
M  END
> <s_m_source_file>
AV-unprocessed.smi

> <i_m_source_file_index>
3329

> <i_lp_mmshare_version>
43012

> <i_f3d_flags>
0

> <s_epik_input>
W0NIM11jMVtjSF1ubihbY0hdMSlbQ0gyXVtDSDJdW05IXVtDSDJdQyg9TylbTkhdW0NAQF0oW0NIM10pKEMjTilbQ0hdMltDSDJdW0NIMl0y

> <s_epik_cmdline>
J2VwaWtfcHl0aG9uJywgJy1waCcsICc3LjAnLCAnLXRuJywgJzgnLCAnLW1hJywgJzIwMCcsICctbWV0YWxfYmluZGluZycsICctaW1hZScsICc8aW5maWxlLm1hZT4nLCAnLW9tYWUnLCAnPG91dGZpbGUubWFlPic=

> <r_lp_tautomer_probability>
1

> <r_epik_Ionization_Penalty>
5.61187

> <r_epik_Ionization_Penalty_Charging>
5.61186

> <r_epik_Ionization_Penalty_Neutral>
4.91277e-06

> <r_epik_State_Penalty>
5.94522

> <r_epik_Charging_Adjusted_Penalty>
11.5571

> <i_epik_Tot_Q>
0

> <i_epik_Tot_abs_Q>
2

> <r_epik_Metal_State_Penalty>
1.9215

> <b_epik_Metal_Only>
1

> <s_lp_Force_Field>
OPLS_2005

> <r_lp_Energy>
5.18635

> <b_lp_Chiralities_Consistent>
1

> <s_lp_Variant>
AV-unprocessed.smi:3329-6

> <Gold.Version>
5.8.1

> <Gold.Id.Protein>
6NUR|6NUR_protein|mol2

> <Gold.PLP.Fitness>
46.6408

> <Gold.PLP.PLP>
-36.8329

> <Gold.PLP.part.hbond>
-3.0000

> <Gold.PLP.part.metal>
0.0000

> <Gold.PLP.part.buried>
-6.2809

> <Gold.PLP.part.nonpolar>
-28.2367

> <Gold.PLP.part.repulsive>
0.5012

> <Gold.PLP.ligand.clash>
0.0000

> <Gold.PLP.ligand.torsion>
1.9114

> <Gold.PLP.Chemscore.Hbond>
3.9920

> <Gold.PLP.Chemscore.CHOScore>
0.0000

> <Gold.PLP.Chemscore.Metal>
0.0000

> <Gold.Chemscore.Hbonds>
donor molecule, donor type, donor heavy atom, donor atom, acceptor molecule, acceptor atom, score
      L1  H     8    29       P1  8028  2.00
      P1  H  7989  7998       L1    11  0.83
      P1  H 10752 10765       L1    16  0.81

> <Gold.PLP.Chemscore.Internal.Correction>
1.6548

> <Gold.Rescore>
     Score         DG    S(hbond)    S(metal)    S(lipo)     H(rot)  DE(clash)    DE(int)     intcor
     16.36     -18.37       2.91        0.00      77.63       2.31       0.01       2.00       ----

> <Gold.Chemscore.Fitness>
16.3605

> <Gold.Chemscore.DG>
-18.3684

> <Gold.Chemscore.ZeroCoef>
-5.4800

> <Gold.Chemscore.Hbond>
2.9130

> <Gold.Chemscore.Metal>
0.0000

> <Gold.Chemscore.Lipo>
77.6308

> <Gold.Chemscore.Internal_Hbond>
0.0000

> <Gold.Chemscore.DEClash>
0.0115

> <Gold.Chemscore.DEInternal>
1.9963

> <Gold.Chemscore.Rot>
2.3140

> <Gold.Chemscore.Internal.Correction>
   9.000000E+99

> <Gold.Chemscore.Hbonds>
donor molecule, donor type, donor heavy atom, donor atom, acceptor molecule, acceptor atom, score
      L1  H     8    29       P1  8028  0.98
      P1  H  7989  7998       L1    11  0.14
      P1  H 10752 10765       L1    16  0.75

> <Gold.Chemscore.Hbond.Weighted>
-9.7294

> <Gold.Chemscore.Metal.Weighted>
-0.0000

> <Gold.Chemscore.Lipo.Weighted>
-9.0828

> <Gold.Chemscore.Internal_Hbond.Weighted>
0.0000

> <Gold.Chemscore.DEClash.Weighted>
0.0115

> <Gold.Chemscore.DEInternal.Weighted>
1.9963

> <Gold.Chemscore.Rot.Weighted>
5.9238

> <Gold.Chemscore.Internal.Correction.Weighted>
   9.000000E+99

> <Gold.Protein.RotatedTorsions>
[ 6907 6896 6895 6894 ] final  172.91 input  -60.11 | X-H torsion
[ 7974 7965 7964 7962 ] final  -96.74 input  175.53 | X-H torsion
[ 8008 7997 7996 7995 ] final  108.38 input   59.86 | X-H torsion
[ 10167 10162 10161 10158 ] final   97.64 input  -65.29 | X-H torsion
[ 10718 10713 10712 10709 ] final   97.28 input   66.30 | X-H torsion
[ 10763 10752 10751 10750 ] final -170.79 input  -60.55 | X-H torsion
[ 11005 11000 10999 10996 ] final   78.21 input  -57.11 | X-H torsion

> <Gold.Protein.ActiveResidues>
 VAL166  LYS551  ARG553  GLY616  TRP617  ASP618  TYR619  PRO620  LYS621  CYS622 
 ASP623  PHE694  ASN695  SER759  ASP760  ASP761  ALA762  ILE779  LEU786  VAL792 
 PHE793  MET794  SER795  GLU796  ALA797  LYS798  CYS799  TRP800  GLU811  SER814 

> <Gold.Protein.RotatedAtoms>
  151.7768  133.3346  159.3459 H   0  0  0  0  0  0  0  0  0  0  0  0  # atno 6907 bound_to 6896
  150.7441  134.5968  159.6025 H   0  0  0  0  0  0  0  0  0  0  0  0  # atno 6908 bound_to 6896
  152.3303  134.7269  160.0342 H   0  0  0  0  0  0  0  0  0  0  0  0  # atno 6909 bound_to 6896
  145.3429  140.9463  143.2598 H   0  0  0  0  0  0  0  0  0  0  0  0  # atno 7974 bound_to 7965
  156.1899  140.3077  155.9311 H   0  0  0  0  0  0  0  0  0  0  0  0  # atno 8008 bound_to 7997
  155.3198  140.0455  157.3056 H   0  0  0  0  0  0  0  0  0  0  0  0  # atno 8009 bound_to 7997
  154.5439  140.2270  155.8604 H   0  0  0  0  0  0  0  0  0  0  0  0  # atno 8010 bound_to 7997
  139.7782  144.6898  151.0059 H   0  0  0  0  0  0  0  0  0  0  0  0  # atno 10167 bound_to 10162
  157.6915  131.0604  150.4619 H   0  0  0  0  0  0  0  0  0  0  0  0  # atno 10718 bound_to 10713
  154.6376  135.2894  155.0142 H   0  0  0  0  0  0  0  0  0  0  0  0  # atno 10763 bound_to 10752
  154.1280  135.6538  153.4920 H   0  0  0  0  0  0  0  0  0  0  0  0  # atno 10764 bound_to 10752
  153.0310  135.5303  154.7230 H   0  0  0  0  0  0  0  0  0  0  0  0  # atno 10765 bound_to 10752
  139.9222  134.7745  156.1621 H   0  0  0  0  0  0  0  0  0  0  0  0  # atno 11005 bound_to 11000
  144.8776  139.4948  143.6738 LP  0  0  0  0  0  0  0  0  0  0  0  0  # atno 17320 bound_to 7965
  146.3000  139.7396  142.9098 LP  0  0  0  0  0  0  0  0  0  0  0  0  # atno 17321 bound_to 7965
  140.7817  143.4512  151.0410 LP  0  0  0  0  0  0  0  0  0  0  0  0  # atno 17342 bound_to 10162
  139.8193  143.7842  152.3176 LP  0  0  0  0  0  0  0  0  0  0  0  0  # atno 17343 bound_to 10162
  156.4963  130.4107  149.6378 LP  0  0  0  0  0  0  0  0  0  0  0  0  # atno 17370 bound_to 10713
  156.3370  130.7362  151.2301 LP  0  0  0  0  0  0  0  0  0  0  0  0  # atno 17371 bound_to 10713
  141.0752  133.6779  156.2221 LP  0  0  0  0  0  0  0  0  0  0  0  0  # atno 17394 bound_to 11000
  140.6441  134.5135  157.5572 LP  0  0  0  0  0  0  0  0  0  0  0  0  # atno 17395 bound_to 11000

$$$$
