AV-unprocessed.smi:825|AV-procd|sdf|3851|dock7
  -GOLD-   22720 1303D 1   1.00000     0.00000
 Structure written by MMmdl.
 38 39  0  0  0  0  0  0  0  0  1 V2000
  151.1341  135.2044  155.8222 O   0  0  0  0  0  0  0  0  0  0  0  0
  150.4852  135.5296  154.8281 C   0  0  0  0  0  0  0  0  0  0  0  0
  149.6962  134.6895  154.1439 N   0  0  0  0  0  0  0  0  0  0  0  0
  149.4862  133.2782  154.4514 C   0  0  0  0  0  0  0  0  0  0  0  0
  148.5898  132.6107  153.3947 C   0  0  0  0  0  0  0  0  0  0  0  0
  147.4165  133.4745  152.9155 C   0  0  0  0  0  0  0  0  0  0  0  0
  146.3694  132.4899  152.3760 C   0  0  0  0  0  0  0  0  0  0  0  0
  146.7727  131.0997  152.8897 C   0  0  0  0  0  0  0  0  0  0  0  0
  147.9081  131.3342  153.8881 C   0  0  0  0  0  0  0  0  0  0  0  0
  150.4711  136.7579  154.2859 N   0  0  0  0  0  0  0  0  0  0  0  0
  151.1506  137.9099  154.7547 C   0  0  0  0  0  0  0  0  0  0  0  0
  152.4456  138.3947  154.4157 C   0  0  0  0  0  0  0  0  0  0  0  0
  152.7258  139.5054  155.0811 N   0  0  0  0  0  0  0  0  0  0  0  0
  151.6308  139.7460  155.8437 N   0  0  0  0  0  0  0  0  0  0  0  0
  151.6074  140.9014  156.7192 C   0  0  0  0  0  0  0  0  0  0  0  0
  150.7747  142.0437  156.1210 C   0  0  0  0  0  0  0  0  0  0  0  0
  149.8821  142.5468  157.0914 O   0  0  0  0  0  0  0  0  0  0  0  0
  150.6509  138.7896  155.6672 C   0  0  0  0  0  0  0  0  0  0  0  0
  149.2038  135.0529  153.3410 H   0  0  0  0  0  0  0  0  0  0  0  0
  150.4322  132.7384  154.5153 H   0  0  0  0  0  0  0  0  0  0  0  0
  149.0253  133.2083  155.4371 H   0  0  0  0  0  0  0  0  0  0  0  0
  149.1998  132.3513  152.5273 H   0  0  0  0  0  0  0  0  0  0  0  0
  146.9926  134.0244  153.7570 H   0  0  0  0  0  0  0  0  0  0  0  0
  147.7197  134.2063  152.1660 H   0  0  0  0  0  0  0  0  0  0  0  0
  145.3710  132.7655  152.7173 H   0  0  0  0  0  0  0  0  0  0  0  0
  146.3537  132.4981  151.2856 H   0  0  0  0  0  0  0  0  0  0  0  0
  145.9361  130.5645  153.3400 H   0  0  0  0  0  0  0  0  0  0  0  0
  147.1364  130.4958  152.0573 H   0  0  0  0  0  0  0  0  0  0  0  0
  148.5938  130.4883  153.9463 H   0  0  0  0  0  0  0  0  0  0  0  0
  147.4917  131.4933  154.8840 H   0  0  0  0  0  0  0  0  0  0  0  0
  149.9062  136.8852  153.4591 H   0  0  0  0  0  0  0  0  0  0  0  0
  153.1811  137.9951  153.7336 H   0  0  0  0  0  0  0  0  0  0  0  0
  151.2065  140.5996  157.6881 H   0  0  0  0  0  0  0  0  0  0  0  0
  152.6345  141.2278  156.8888 H   0  0  0  0  0  0  0  0  0  0  0  0
  151.4214  142.8528  155.7800 H   0  0  0  0  0  0  0  0  0  0  0  0
  150.2041  141.6961  155.2590 H   0  0  0  0  0  0  0  0  0  0  0  0
  149.4762  143.3289  156.7496 H   0  0  0  0  0  0  0  0  0  0  0  0
  149.7098  138.8175  156.1961 H   0  0  0  0  0  0  0  0  0  0  0  0
  1  2  2  0  0  0  0
  2  3  1  0  0  0  0
  2 10  1  0  0  0  0
  3  4  1  0  0  0  0
  3 19  1  0  0  0  0
  4  5  1  0  0  0  0
  4 20  1  0  0  0  0
  4 21  1  0  0  0  0
  5  9  1  0  0  0  0
  5  6  1  0  0  0  0
  5 22  1  0  0  0  0
  6  7  1  0  0  0  0
  6 23  1  0  0  0  0
  6 24  1  0  0  0  0
  7  8  1  0  0  0  0
  7 25  1  0  0  0  0
  7 26  1  0  0  0  0
  8  9  1  0  0  0  0
  8 27  1  0  0  0  0
  8 28  1  0  0  0  0
  9 29  1  0  0  0  0
  9 30  1  0  0  0  0
 10 11  1  0  0  0  0
 10 31  1  0  0  0  0
 11 18  2  0  0  0  0
 11 12  1  0  0  0  0
 12 13  2  0  0  0  0
 12 32  1  0  0  0  0
 13 14  1  0  0  0  0
 14 15  1  0  0  0  0
 14 18  1  0  0  0  0
 15 16  1  0  0  0  0
 15 33  1  0  0  0  0
 15 34  1  0  0  0  0
 16 17  1  0  0  0  0
 16 35  1  0  0  0  0
 16 36  1  0  0  0  0
 17 37  1  0  0  0  0
 18 38  1  0  0  0  0
M  END
> <s_m_source_file>
AV-unprocessed.smi

> <i_m_source_file_index>
825

> <i_lp_mmshare_version>
43012

> <i_f3d_flags>
0

> <s_epik_input>
W0NIMl0xW0NIMl1bQ0gyXVtDSDJdW0NIXTFbQ0gyXVtOSF1DKD1PKVtOSF1jMltjSF1ubihbY0hdMilbQ0gyXVtDSDJdW09IXQ==

> <s_epik_cmdline>
J2VwaWtfcHl0aG9uJywgJy1waCcsICc3LjAnLCAnLXRuJywgJzgnLCAnLW1hJywgJzIwMCcsICctbWV0YWxfYmluZGluZycsICctaW1hZScsICc8aW5maWxlLm1hZT4nLCAnLW9tYWUnLCAnPG91dGZpbGUubWFlPic=

> <r_lp_tautomer_probability>
1

> <r_epik_Ionization_Penalty>
0.000577844

> <r_epik_Ionization_Penalty_Charging>
0

> <r_epik_Ionization_Penalty_Neutral>
0.000577844

> <r_epik_State_Penalty>
-0

> <r_epik_Charging_Adjusted_Penalty>
0

> <i_epik_Tot_Q>
0

> <i_epik_Tot_abs_Q>
0

> <r_epik_Metal_State_Penalty>
-0

> <b_epik_Metal_Only>
0

> <s_lp_Force_Field>
OPLS_2005

> <r_lp_Energy>
26.6731

> <b_lp_Chiralities_Consistent>
1

> <s_lp_Variant>
AV-unprocessed.smi:825-1

> <Gold.Version>
5.8.1

> <Gold.Id.Protein>
6NUR|6NUR_protein|mol2

> <Gold.PLP.Fitness>
46.6606

> <Gold.PLP.PLP>
-35.5262

> <Gold.PLP.part.hbond>
-7.3262

> <Gold.PLP.part.metal>
0.0000

> <Gold.PLP.part.buried>
-3.5072

> <Gold.PLP.part.nonpolar>
-25.6578

> <Gold.PLP.part.repulsive>
0.1741

> <Gold.PLP.ligand.clash>
0.0000

> <Gold.PLP.ligand.torsion>
1.5449

> <Gold.PLP.Chemscore.Hbond>
4.7374

> <Gold.PLP.Chemscore.CHOScore>
0.0000

> <Gold.PLP.Chemscore.Metal>
0.0000

> <Gold.Chemscore.Hbonds>
donor molecule, donor type, donor heavy atom, donor atom, acceptor molecule, acceptor atom, score
      L1  H     3    19       P1  7948  0.80
      L1  H    10    31       P1  7948  1.00
      L1  H    17    37       P1  8028  1.00
      P1  H  7989  7998       L1    13  0.03
      P1  H  7997  8008       L1    13  0.99
      P1  H 10752 10763       L1     1  0.66

> <Gold.PLP.Chemscore.Internal.Correction>
0.0117

> <Gold.Rescore>
     Score         DG    S(hbond)    S(metal)    S(lipo)     H(rot)  DE(clash)    DE(int)     intcor
     14.79     -16.46       2.67        0.00      68.07       2.31       0.14       1.53       ----

> <Gold.Chemscore.Fitness>
14.7946

> <Gold.Chemscore.DG>
-16.4648

> <Gold.Chemscore.ZeroCoef>
-5.4800

> <Gold.Chemscore.Hbond>
2.6748

> <Gold.Chemscore.Metal>
0.0000

> <Gold.Chemscore.Lipo>
68.0665

> <Gold.Chemscore.Internal_Hbond>
0.0000

> <Gold.Chemscore.DEClash>
0.1386

> <Gold.Chemscore.DEInternal>
1.5315

> <Gold.Chemscore.Rot>
2.3097

> <Gold.Chemscore.Internal.Correction>
   9.000000E+99

> <Gold.Chemscore.Hbonds>
donor molecule, donor type, donor heavy atom, donor atom, acceptor molecule, acceptor atom, score
      L1  H     3    19       P1  7948  0.12
      L1  H    10    31       P1  7948  0.29
      L1  H    17    37       P1  8028  0.99
      P1  H  7997  8008       L1    13  0.65
      P1  H 10752 10763       L1     1  0.12

> <Gold.Chemscore.Hbond.Weighted>
-8.9338

> <Gold.Chemscore.Metal.Weighted>
-0.0000

> <Gold.Chemscore.Lipo.Weighted>
-7.9638

> <Gold.Chemscore.Internal_Hbond.Weighted>
0.0000

> <Gold.Chemscore.DEClash.Weighted>
0.1386

> <Gold.Chemscore.DEInternal.Weighted>
1.5315

> <Gold.Chemscore.Rot.Weighted>
5.9128

> <Gold.Chemscore.Internal.Correction.Weighted>
   9.000000E+99

> <Gold.Protein.RotatedTorsions>
[ 6907 6896 6895 6894 ] final   97.10 input  -60.11 | X-H torsion
[ 7974 7965 7964 7962 ] final  -15.44 input  175.53 | X-H torsion
[ 8008 7997 7996 7995 ] final  -26.76 input   59.86 | X-H torsion
[ 10167 10162 10161 10158 ] final   85.05 input  -65.29 | X-H torsion
[ 10718 10713 10712 10709 ] final -156.27 input   66.30 | X-H torsion
[ 10763 10752 10751 10750 ] final   86.36 input  -60.55 | X-H torsion
[ 11005 11000 10999 10996 ] final  117.22 input  -57.11 | X-H torsion

> <Gold.Protein.ActiveResidues>
 VAL166  LYS551  ARG553  GLY616  TRP617  ASP618  TYR619  PRO620  LYS621  CYS622 
 ASP623  PHE694  ASN695  SER759  ASP760  ASP761  ALA762  ILE779  LEU786  VAL792 
 PHE793  MET794  SER795  GLU796  ALA797  LYS798  CYS799  TRP800  GLU811  SER814 

> <Gold.Protein.RotatedAtoms>
  152.5427  134.0784  159.8224 H   0  0  0  0  0  0  0  0  0  0  0  0  # atno 6907 bound_to 6896
  151.0889  133.5324  159.2623 H   0  0  0  0  0  0  0  0  0  0  0  0  # atno 6908 bound_to 6896
  151.2122  135.0494  159.8970 H   0  0  0  0  0  0  0  0  0  0  0  0  # atno 6909 bound_to 6896
  146.2032  140.3493  142.8416 H   0  0  0  0  0  0  0  0  0  0  0  0  # atno 7974 bound_to 7965
  154.4409  140.1890  156.0826 H   0  0  0  0  0  0  0  0  0  0  0  0  # atno 8008 bound_to 7997
  156.0427  140.3318  155.7235 H   0  0  0  0  0  0  0  0  0  0  0  0  # atno 8009 bound_to 7997
  155.5675  140.0609  157.2805 H   0  0  0  0  0  0  0  0  0  0  0  0  # atno 8010 bound_to 7997
  139.9018  144.6325  150.8629 H   0  0  0  0  0  0  0  0  0  0  0  0  # atno 10167 bound_to 10162
  156.5243  130.8492  151.2693 H   0  0  0  0  0  0  0  0  0  0  0  0  # atno 10718 bound_to 10713
  153.1563  135.4583  154.9709 H   0  0  0  0  0  0  0  0  0  0  0  0  # atno 10763 bound_to 10752
  154.7864  135.3205  154.7879 H   0  0  0  0  0  0  0  0  0  0  0  0  # atno 10764 bound_to 10752
  153.8376  135.6933  153.4861 H   0  0  0  0  0  0  0  0  0  0  0  0  # atno 10765 bound_to 10752
  139.9067  134.9607  156.7318 H   0  0  0  0  0  0  0  0  0  0  0  0  # atno 11005 bound_to 11000
  144.8731  140.7299  143.6034 LP  0  0  0  0  0  0  0  0  0  0  0  0  # atno 17320 bound_to 7965
  145.3412  139.1732  143.4485 LP  0  0  0  0  0  0  0  0  0  0  0  0  # atno 17321 bound_to 7965
  140.7705  143.3431  151.2166 LP  0  0  0  0  0  0  0  0  0  0  0  0  # atno 17342 bound_to 10162
  139.7019  143.9519  152.2909 LP  0  0  0  0  0  0  0  0  0  0  0  0  # atno 17343 bound_to 10162
  157.7432  130.9906  150.2573 LP  0  0  0  0  0  0  0  0  0  0  0  0  # atno 17370 bound_to 10713
  156.3120  130.3773  149.7653 LP  0  0  0  0  0  0  0  0  0  0  0  0  # atno 17371 bound_to 10713
  140.6919  133.9383  155.7971 LP  0  0  0  0  0  0  0  0  0  0  0  0  # atno 17394 bound_to 11000
  141.0435  134.0587  157.3872 LP  0  0  0  0  0  0  0  0  0  0  0  0  # atno 17395 bound_to 11000

$$$$
