AV-unprocessed.smi:2151|AV-procd|sdf|8759|dock6
  -GOLD-   2272011533D 1   1.00000     0.00000
 Structure written by MMmdl.
 39 40  0  0  0  0  0  0  0  0  1 V2000
  151.2407  135.9995  156.4702 C   0  0  0  0  0  0  0  0  0  0  0  0
  149.8621  136.2493  155.8419 C   0  0  1  0  0  0  0  0  0  0  0  0
  148.9008  136.5323  156.9065 N   0  0  0  0  0  0  0  0  0  0  0  0
  148.7099  135.7990  158.0144 C   0  0  0  0  0  0  0  0  0  0  0  0
  149.3307  134.7638  158.2591 O   0  0  0  0  0  0  0  0  0  0  0  0
  147.6299  136.3127  158.9770 C   0  0  0  0  0  0  0  0  0  0  0  0
  147.4765  135.4777  160.1803 N   0  0  0  0  0  0  0  0  0  0  0  0
  147.2933  134.0949  159.9829 C   0  0  0  0  0  0  0  0  0  0  0  0
  147.1300  133.2246  160.9977 C   0  0  0  0  0  0  0  0  0  0  0  0
  146.9945  131.7298  160.7524 C   0  0  0  0  0  0  0  0  0  0  0  0
  147.9910  131.0544  161.3258 F   0  0  0  0  0  0  0  0  0  0  0  0
  145.8456  131.2895  161.2636 F   0  0  0  0  0  0  0  0  0  0  0  0
  146.9991  131.4558  159.4472 F   0  0  0  0  0  0  0  0  0  0  0  0
  147.1840  133.7779  162.3367 C   0  0  0  0  0  0  0  0  0  0  0  0
  147.3730  135.0960  162.5432 C   0  0  0  0  0  0  0  0  0  0  0  0
  147.5304  136.0325  161.4282 C   0  0  0  0  0  0  0  0  0  0  0  0
  147.6996  137.2392  161.6044 O   0  0  0  0  0  0  0  0  0  0  0  0
  149.8911  137.4104  154.8281 C   0  0  2  0  0  0  0  0  0  0  0  0
  150.6217  138.6659  155.3100 C   0  0  0  0  0  0  0  0  0  0  0  0
  149.9920  139.7350  154.4477 C   0  0  0  0  0  0  0  0  0  0  0  0
  148.5386  139.2751  154.3958 C   0  0  0  0  0  0  0  0  0  0  0  0
  148.5681  137.8566  154.5370 O   0  0  0  0  0  0  0  0  0  0  0  0
  151.9832  135.7577  155.7092 H   0  0  0  0  0  0  0  0  0  0  0  0
  151.2066  135.1644  157.1707 H   0  0  0  0  0  0  0  0  0  0  0  0
  151.5949  136.8764  157.0135 H   0  0  0  0  0  0  0  0  0  0  0  0
  149.5746  135.3424  155.3072 H   0  0  0  0  0  0  0  0  0  0  0  0
  148.3353  137.3608  156.7916 H   0  0  0  0  0  0  0  0  0  0  0  0
  147.8566  137.3421  159.2615 H   0  0  0  0  0  0  0  0  0  0  0  0
  146.6883  136.3701  158.4292 H   0  0  0  0  0  0  0  0  0  0  0  0
  147.3041  133.7832  158.9484 H   0  0  0  0  0  0  0  0  0  0  0  0
  147.0691  133.1258  163.1900 H   0  0  0  0  0  0  0  0  0  0  0  0
  147.4078  135.4734  163.5548 H   0  0  0  0  0  0  0  0  0  0  0  0
  150.3414  137.0794  153.8905 H   0  0  0  0  0  0  0  0  0  0  0  0
  150.4047  138.8589  156.3619 H   0  0  0  0  0  0  0  0  0  0  0  0
  151.7036  138.6029  155.1891 H   0  0  0  0  0  0  0  0  0  0  0  0
  150.1080  140.7401  154.8538 H   0  0  0  0  0  0  0  0  0  0  0  0
  150.4299  139.7152  153.4488 H   0  0  0  0  0  0  0  0  0  0  0  0
  147.9765  139.6935  155.2315 H   0  0  0  0  0  0  0  0  0  0  0  0
  148.0427  139.5729  153.4718 H   0  0  0  0  0  0  0  0  0  0  0  0
  1  2  1  0  0  0  0
  1 23  1  0  0  0  0
  1 24  1  0  0  0  0
  1 25  1  0  0  0  0
  2  3  1  0  0  0  0
  2 18  1  0  0  0  0
  2 26  1  0  0  0  0
  3  4  1  0  0  0  0
  3 27  1  0  0  0  0
  4  5  2  0  0  0  0
  4  6  1  0  0  0  0
  6  7  1  0  0  0  0
  6 28  1  0  0  0  0
  6 29  1  0  0  0  0
  7 16  1  0  0  0  0
  7  8  1  0  0  0  0
  8  9  2  0  0  0  0
  8 30  1  0  0  0  0
  9 10  1  0  0  0  0
  9 14  1  0  0  0  0
 10 11  1  0  0  0  0
 10 12  1  0  0  0  0
 10 13  1  0  0  0  0
 14 15  2  0  0  0  0
 14 31  1  0  0  0  0
 15 16  1  0  0  0  0
 15 32  1  0  0  0  0
 16 17  2  0  0  0  0
 18 22  1  0  0  0  0
 18 19  1  0  0  0  0
 18 33  1  0  0  0  0
 19 20  1  0  0  0  0
 19 34  1  0  0  0  0
 19 35  1  0  0  0  0
 20 21  1  0  0  0  0
 20 36  1  0  0  0  0
 20 37  1  0  0  0  0
 21 22  1  0  0  0  0
 21 38  1  0  0  0  0
 21 39  1  0  0  0  0
M  END
> <s_m_source_file>
AV-unprocessed.smi

> <i_m_source_file_index>
2151

> <i_lp_mmshare_version>
43012

> <i_f3d_flags>
0

> <s_epik_input>
TzFbQ0gyXVtDSDJdW0NIMl1bQ0BIXTFbQ0BIXShbQ0gzXSlbTkhdQyg9TylbQ0gyXW4yW2NIXWMoQyhGKShGKUYpW2NIXVtjSF1jMj1P

> <s_epik_cmdline>
J2VwaWtfcHl0aG9uJywgJy1waCcsICc3LjAnLCAnLXRuJywgJzgnLCAnLW1hJywgJzIwMCcsICctbWV0YWxfYmluZGluZycsICctaW1hZScsICc8aW5maWxlLm1hZT4nLCAnLW9tYWUnLCAnPG91dGZpbGUubWFlPic=

> <r_lp_tautomer_probability>
1

> <r_epik_Ionization_Penalty>
4.20109e-08

> <r_epik_Ionization_Penalty_Charging>
1.89977e-08

> <r_epik_Ionization_Penalty_Neutral>
2.30132e-08

> <r_epik_State_Penalty>
-0

> <r_epik_Charging_Adjusted_Penalty>
1.89977e-08

> <i_epik_Tot_Q>
0

> <i_epik_Tot_abs_Q>
0

> <r_epik_Metal_State_Penalty>
-0

> <b_epik_Metal_Only>
0

> <s_lp_Force_Field>
OPLS_2005

> <r_lp_Energy>
30.2794

> <b_lp_Chiralities_Consistent>
1

> <s_lp_Variant>
AV-unprocessed.smi:2151-2

> <Gold.Version>
5.8.1

> <Gold.Id.Protein>
6NUR|6NUR_protein|mol2

> <Gold.PLP.Fitness>
40.2365

> <Gold.PLP.PLP>
-34.4331

> <Gold.PLP.part.hbond>
-2.9890

> <Gold.PLP.part.metal>
0.0000

> <Gold.PLP.part.buried>
-2.6239

> <Gold.PLP.part.nonpolar>
-29.2477

> <Gold.PLP.part.repulsive>
0.5469

> <Gold.PLP.ligand.clash>
1.4798

> <Gold.PLP.ligand.torsion>
0.3738

> <Gold.PLP.Chemscore.Hbond>
2.6480

> <Gold.PLP.Chemscore.CHOScore>
0.0000

> <Gold.PLP.Chemscore.Metal>
0.0000

> <Gold.Chemscore.Hbonds>
donor molecule, donor type, donor heavy atom, donor atom, acceptor molecule, acceptor atom, score
      P1  H  6896  6907       L1     5  1.00
      P1  H  6931  6943       L1    17  0.99
      P1  H  6934  6947       L1    17  0.74

> <Gold.PLP.Chemscore.Internal.Correction>
0.0868

> <Gold.Rescore>
     Score         DG    S(hbond)    S(metal)    S(lipo)     H(rot)  DE(clash)    DE(int)     intcor
     14.49     -17.49       2.69        0.00      65.75       1.82       0.03       2.98       ----

> <Gold.Chemscore.Fitness>
14.4896

> <Gold.Chemscore.DG>
-17.4944

> <Gold.Chemscore.ZeroCoef>
-5.4800

> <Gold.Chemscore.Hbond>
2.6910

> <Gold.Chemscore.Metal>
0.0000

> <Gold.Chemscore.Lipo>
65.7510

> <Gold.Chemscore.Internal_Hbond>
0.0000

> <Gold.Chemscore.DEClash>
0.0270

> <Gold.Chemscore.DEInternal>
2.9778

> <Gold.Chemscore.Rot>
1.8228

> <Gold.Chemscore.Internal.Correction>
   9.000000E+99

> <Gold.Chemscore.Hbonds>
donor molecule, donor type, donor heavy atom, donor atom, acceptor molecule, acceptor atom, score
      P1  H  6896  6907       L1     5  1.00
      P1  H  6931  6943       L1    17  0.94
      P1  H  6934  6947       L1    17  0.71

> <Gold.Chemscore.Hbond.Weighted>
-8.9879

> <Gold.Chemscore.Metal.Weighted>
-0.0000

> <Gold.Chemscore.Lipo.Weighted>
-7.6929

> <Gold.Chemscore.Internal_Hbond.Weighted>
0.0000

> <Gold.Chemscore.DEClash.Weighted>
0.0270

> <Gold.Chemscore.DEInternal.Weighted>
2.9778

> <Gold.Chemscore.Rot.Weighted>
4.6665

> <Gold.Chemscore.Internal.Correction.Weighted>
   9.000000E+99

> <Gold.Protein.RotatedTorsions>
[ 6907 6896 6895 6894 ] final  -78.37 input  -60.11 | X-H torsion
[ 7974 7965 7964 7962 ] final  -27.49 input  175.53 | X-H torsion
[ 8008 7997 7996 7995 ] final   47.47 input   59.86 | X-H torsion
[ 10167 10162 10161 10158 ] final -174.86 input  -65.29 | X-H torsion
[ 10718 10713 10712 10709 ] final   43.57 input   66.30 | X-H torsion
[ 10763 10752 10751 10750 ] final   95.24 input  -60.55 | X-H torsion
[ 11005 11000 10999 10996 ] final  123.62 input  -57.11 | X-H torsion

> <Gold.Protein.ActiveResidues>
 VAL166  LYS551  ARG553  GLY616  TRP617  ASP618  TYR619  PRO620  LYS621  CYS622 
 ASP623  PHE694  ASN695  SER759  ASP760  ASP761  ALA762  ILE779  LEU786  VAL792 
 PHE793  MET794  SER795  GLU796  ALA797  LYS798  CYS799  TRP800  GLU811  SER814 

> <Gold.Protein.RotatedAtoms>
  150.6975  134.4283  159.5236 H   0  0  0  0  0  0  0  0  0  0  0  0  # atno 6907 bound_to 6896
  152.2014  134.8582  160.0516 H   0  0  0  0  0  0  0  0  0  0  0  0  # atno 6908 bound_to 6896
  151.9501  133.3628  159.4033 H   0  0  0  0  0  0  0  0  0  0  0  0  # atno 6909 bound_to 6896
  146.1354  140.5159  142.8675 H   0  0  0  0  0  0  0  0  0  0  0  0  # atno 7974 bound_to 7965
  155.3696  140.3423  155.4243 H   0  0  0  0  0  0  0  0  0  0  0  0  # atno 8008 bound_to 7997
  156.1670  140.1619  156.8548 H   0  0  0  0  0  0  0  0  0  0  0  0  # atno 8009 bound_to 7997
  154.5195  140.0770  156.8127 H   0  0  0  0  0  0  0  0  0  0  0  0  # atno 8010 bound_to 7997
  139.5611  144.1867  152.1240 H   0  0  0  0  0  0  0  0  0  0  0  0  # atno 10167 bound_to 10162
  157.4174  130.7949  149.7484 H   0  0  0  0  0  0  0  0  0  0  0  0  # atno 10718 bound_to 10713
  153.2509  135.4261  155.0797 H   0  0  0  0  0  0  0  0  0  0  0  0  # atno 10763 bound_to 10752
  154.8381  135.3425  154.6514 H   0  0  0  0  0  0  0  0  0  0  0  0  # atno 10764 bound_to 10752
  153.6935  135.7032  153.5140 H   0  0  0  0  0  0  0  0  0  0  0  0  # atno 10765 bound_to 10752
  139.9321  134.9641  156.8287 H   0  0  0  0  0  0  0  0  0  0  0  0  # atno 11005 bound_to 11000
  144.7734  140.5687  143.6654 LP  0  0  0  0  0  0  0  0  0  0  0  0  # atno 17320 bound_to 7965
  145.5168  139.1477  143.3574 LP  0  0  0  0  0  0  0  0  0  0  0  0  # atno 17321 bound_to 7965
  140.1381  144.5227  150.6761 LP  0  0  0  0  0  0  0  0  0  0  0  0  # atno 17342 bound_to 10162
  140.6891  143.2366  151.5180 LP  0  0  0  0  0  0  0  0  0  0  0  0  # atno 17343 bound_to 10162
  155.9869  130.3971  150.3189 LP  0  0  0  0  0  0  0  0  0  0  0  0  # atno 17370 bound_to 10713
  157.1333  131.0277  151.2960 LP  0  0  0  0  0  0  0  0  0  0  0  0  # atno 17371 bound_to 10713
  140.6174  134.0026  155.7603 LP  0  0  0  0  0  0  0  0  0  0  0  0  # atno 17394 bound_to 11000
  141.0915  133.9909  157.3229 LP  0  0  0  0  0  0  0  0  0  0  0  0  # atno 17395 bound_to 11000

$$$$
