AV-unprocessed.smi:2532|AV-procd|sdf|9968|dock10
  -GOLD-   2272014 13D 1   1.00000     0.00000
 Structure written by MMmdl.
 36 38  0  0  0  0  0  0  0  0  1 V2000
  152.8291  138.2587  159.6392 O   0  0  0  0  0  0  0  0  0  0  0  0
  152.4862  139.0975  158.5529 C   0  0  2  0  0  0  0  0  0  0  0  0
  152.2799  140.5248  159.0844 C   0  0  0  0  0  0  0  0  0  0  0  0
  153.5390  141.1663  159.1999 O   0  0  0  0  0  0  0  0  0  0  0  0
  153.6184  142.0163  160.3329 C   0  0  0  0  0  0  0  0  0  0  0  0
  152.8593  143.2661  160.0205 C   0  0  0  0  0  0  0  0  0  0  0  0
  152.8050  143.9187  158.8150 C   0  0  0  0  0  0  0  0  0  0  0  0
  151.9734  145.0768  158.8375 C   0  0  0  0  0  0  0  0  0  0  0  0
  151.3946  145.2911  160.0597 C   0  0  0  0  0  0  0  0  0  0  0  0
  151.8598  144.0685  161.2106 S   0  0  0  0  0  0  0  0  0  0  0  0
  151.2136  138.5492  157.8785 C   0  0  0  0  0  0  0  0  0  0  0  0
  150.9022  139.2291  156.6333 N   0  0  0  0  0  0  0  0  0  0  0  0
  151.6633  139.2719  155.5229 C   0  0  0  0  0  0  0  0  0  0  0  0
  151.1914  139.9587  154.4863 N   0  0  0  0  0  0  0  0  0  0  0  0
  149.9824  140.4166  154.9816 C   0  0  0  0  0  0  0  0  0  0  0  0
  148.9856  141.2141  154.3749 C   0  0  0  0  0  0  0  0  0  0  0  0
  147.8165  141.5593  155.0848 C   0  0  0  0  0  0  0  0  0  0  0  0
  147.6257  141.1127  156.4086 C   0  0  0  0  0  0  0  0  0  0  0  0
  148.6049  140.3174  157.0343 C   0  0  0  0  0  0  0  0  0  0  0  0
  149.7707  139.9766  156.3233 C   0  0  0  0  0  0  0  0  0  0  0  0
  152.0557  137.7873  159.9091 H   0  0  0  0  0  0  0  0  0  0  0  0
  153.3022  139.0908  157.8288 H   0  0  0  0  0  0  0  0  0  0  0  0
  151.6730  141.0946  158.3786 H   0  0  0  0  0  0  0  0  0  0  0  0
  151.7456  140.5183  160.0363 H   0  0  0  0  0  0  0  0  0  0  0  0
  153.1928  141.5239  161.2086 H   0  0  0  0  0  0  0  0  0  0  0  0
  154.6585  142.2584  160.5560 H   0  0  0  0  0  0  0  0  0  0  0  0
  153.3312  143.6078  157.9244 H   0  0  0  0  0  0  0  0  0  0  0  0
  151.8296  145.7015  157.9681 H   0  0  0  0  0  0  0  0  0  0  0  0
  150.7242  146.0858  160.3525 H   0  0  0  0  0  0  0  0  0  0  0  0
  151.3161  137.4815  157.6791 H   0  0  0  0  0  0  0  0  0  0  0  0
  150.3579  138.6586  158.5460 H   0  0  0  0  0  0  0  0  0  0  0  0
  152.6183  138.7693  155.4728 H   0  0  0  0  0  0  0  0  0  0  0  0
  149.1208  141.5611  153.3612 H   0  0  0  0  0  0  0  0  0  0  0  0
  147.0616  142.1694  154.6106 H   0  0  0  0  0  0  0  0  0  0  0  0
  146.7265  141.3806  156.9439 H   0  0  0  0  0  0  0  0  0  0  0  0
  148.4606  139.9719  158.0473 H   0  0  0  0  0  0  0  0  0  0  0  0
  1  2  1  0  0  0  0
  1 21  1  0  0  0  0
  2  3  1  0  0  0  0
  2 11  1  0  0  0  0
  2 22  1  0  0  0  0
  3  4  1  0  0  0  0
  3 23  1  0  0  0  0
  3 24  1  0  0  0  0
  4  5  1  0  0  0  0
  5  6  1  0  0  0  0
  5 25  1  0  0  0  0
  5 26  1  0  0  0  0
  6 10  1  0  0  0  0
  6  7  2  0  0  0  0
  7  8  1  0  0  0  0
  7 27  1  0  0  0  0
  8  9  2  0  0  0  0
  8 28  1  0  0  0  0
  9 10  1  0  0  0  0
  9 29  1  0  0  0  0
 11 12  1  0  0  0  0
 11 30  1  0  0  0  0
 11 31  1  0  0  0  0
 12 20  1  0  0  0  0
 12 13  1  0  0  0  0
 13 14  2  0  0  0  0
 13 32  1  0  0  0  0
 14 15  1  0  0  0  0
 15 20  2  0  0  0  0
 15 16  1  0  0  0  0
 16 17  2  0  0  0  0
 16 33  1  0  0  0  0
 17 18  1  0  0  0  0
 17 34  1  0  0  0  0
 18 19  2  0  0  0  0
 18 35  1  0  0  0  0
 19 20  1  0  0  0  0
 19 36  1  0  0  0  0
M  END
> <s_m_source_file>
AV-unprocessed.smi

> <i_m_source_file_index>
2532

> <i_lp_mmshare_version>
43012

> <i_f3d_flags>
0

> <s_epik_input>
W2NIXTFbY0hdW2NIXVtjSF1jKGMxMiluKFtjSF1uMilbQ0gyXVtDQEhdKFtPSF0pW0NIMl1PW0NIMl1jM1tjSF1bY0hdW2NIXXMz

> <s_epik_cmdline>
J2VwaWtfcHl0aG9uJywgJy1waCcsICc3LjAnLCAnLXRuJywgJzgnLCAnLW1hJywgJzIwMCcsICctbWV0YWxfYmluZGluZycsICctaW1hZScsICc8aW5maWxlLm1hZT4nLCAnLW9tYWUnLCAnPG91dGZpbGUubWFlPic=

> <r_epik_Ionization_Penalty>
0.0678455

> <r_epik_Ionization_Penalty_Charging>
0

> <r_epik_Ionization_Penalty_Neutral>
0.0678455

> <r_epik_State_Penalty>
0.0593261

> <r_epik_Charging_Adjusted_Penalty>
0.0593261

> <i_epik_Tot_Q>
0

> <i_epik_Tot_abs_Q>
0

> <r_epik_Metal_State_Penalty>
6.23947e-05

> <b_epik_Metal_Only>
0

> <s_lp_Force_Field>
OPLS_2005

> <r_lp_Energy>
9.71279

> <b_lp_Chiralities_Consistent>
1

> <s_lp_Variant>
AV-unprocessed.smi:2532-1

> <Gold.Version>
5.8.1

> <Gold.Id.Protein>
6NUR|6NUR_protein|mol2

> <Gold.PLP.Fitness>
47.0865

> <Gold.PLP.PLP>
-45.6693

> <Gold.PLP.part.hbond>
-1.0000

> <Gold.PLP.part.metal>
0.0000

> <Gold.PLP.part.buried>
-4.5531

> <Gold.PLP.part.nonpolar>
-40.1175

> <Gold.PLP.part.repulsive>
0.0820

> <Gold.PLP.ligand.clash>
0.0000

> <Gold.PLP.ligand.torsion>
0.9004

> <Gold.PLP.Chemscore.Hbond>
1.0000

> <Gold.PLP.Chemscore.CHOScore>
0.0000

> <Gold.PLP.Chemscore.Metal>
0.0000

> <Gold.Chemscore.Hbonds>
donor molecule, donor type, donor heavy atom, donor atom, acceptor molecule, acceptor atom, score
      P1  H  7989  7998       L1    14  0.70

> <Gold.PLP.Chemscore.Internal.Correction>
0.2180

> <Gold.Rescore>
     Score         DG    S(hbond)    S(metal)    S(lipo)     H(rot)  DE(clash)    DE(int)     intcor
     15.60     -16.56       0.97        0.00     118.74       2.36       0.11       0.85       ----

> <Gold.Chemscore.Fitness>
15.5955

> <Gold.Chemscore.DG>
-16.5589

> <Gold.Chemscore.ZeroCoef>
-5.4800

> <Gold.Chemscore.Hbond>
0.9681

> <Gold.Chemscore.Metal>
0.0000

> <Gold.Chemscore.Lipo>
118.7362

> <Gold.Chemscore.Internal_Hbond>
0.0000

> <Gold.Chemscore.DEClash>
0.1148

> <Gold.Chemscore.DEInternal>
0.8486

> <Gold.Chemscore.Rot>
2.3620

> <Gold.Chemscore.Internal.Correction>
   9.000000E+99

> <Gold.Chemscore.Hbonds>
donor molecule, donor type, donor heavy atom, donor atom, acceptor molecule, acceptor atom, score
      P1  H  7989  7998       L1    14  0.50

> <Gold.Chemscore.Hbond.Weighted>
-3.2336

> <Gold.Chemscore.Metal.Weighted>
-0.0000

> <Gold.Chemscore.Lipo.Weighted>
-13.8921

> <Gold.Chemscore.Internal_Hbond.Weighted>
0.0000

> <Gold.Chemscore.DEClash.Weighted>
0.1148

> <Gold.Chemscore.DEInternal.Weighted>
0.8486

> <Gold.Chemscore.Rot.Weighted>
6.0468

> <Gold.Chemscore.Internal.Correction.Weighted>
   9.000000E+99

> <Gold.Protein.RotatedTorsions>
[ 6907 6896 6895 6894 ] final  117.05 input  -60.11 | X-H torsion
[ 7974 7965 7964 7962 ] final  -94.06 input  175.53 | X-H torsion
[ 8008 7997 7996 7995 ] final  155.78 input   59.86 | X-H torsion
[ 10167 10162 10161 10158 ] final  -76.30 input  -65.29 | X-H torsion
[ 10718 10713 10712 10709 ] final -143.50 input   66.30 | X-H torsion
[ 10763 10752 10751 10750 ] final   17.54 input  -60.55 | X-H torsion
[ 11005 11000 10999 10996 ] final  100.35 input  -57.11 | X-H torsion

> <Gold.Protein.ActiveResidues>
 VAL166  LYS551  ARG553  GLY616  TRP617  ASP618  TYR619  PRO620  LYS621  CYS622 
 ASP623  PHE694  ASN695  SER759  ASP760  ASP761  ALA762  ILE779  LEU786  VAL792 
 PHE793  MET794  SER795  GLU796  ALA797  LYS798  CYS799  TRP800  GLU811  SER814 

> <Gold.Protein.RotatedAtoms>
  152.4637  133.7877  159.6884 H   0  0  0  0  0  0  0  0  0  0  0  0  # atno 6907 bound_to 6896
  150.8592  133.7659  159.3004 H   0  0  0  0  0  0  0  0  0  0  0  0  # atno 6908 bound_to 6896
  151.5229  135.1070  159.9935 H   0  0  0  0  0  0  0  0  0  0  0  0  # atno 6909 bound_to 6896
  145.3783  140.9514  143.2408 H   0  0  0  0  0  0  0  0  0  0  0  0  # atno 7974 bound_to 7965
  156.2459  140.1930  156.6854 H   0  0  0  0  0  0  0  0  0  0  0  0  # atno 8008 bound_to 7997
  154.6291  140.0598  156.9736 H   0  0  0  0  0  0  0  0  0  0  0  0  # atno 8009 bound_to 7997
  155.1740  140.3270  155.4390 H   0  0  0  0  0  0  0  0  0  0  0  0  # atno 8010 bound_to 7997
  140.4869  143.2389  151.7969 H   0  0  0  0  0  0  0  0  0  0  0  0  # atno 10167 bound_to 10162
  156.3587  130.7727  151.1891 H   0  0  0  0  0  0  0  0  0  0  0  0  # atno 10718 bound_to 10713
  153.1330  135.6744  153.9148 H   0  0  0  0  0  0  0  0  0  0  0  0  # atno 10763 bound_to 10752
  153.8628  135.3079  155.3440 H   0  0  0  0  0  0  0  0  0  0  0  0  # atno 10764 bound_to 10752
  154.7724  135.4932  153.9757 H   0  0  0  0  0  0  0  0  0  0  0  0  # atno 10765 bound_to 10752
  139.8771  134.9136  156.4742 H   0  0  0  0  0  0  0  0  0  0  0  0  # atno 11005 bound_to 11000
  144.8526  139.5298  143.6849 LP  0  0  0  0  0  0  0  0  0  0  0  0  # atno 17320 bound_to 7965
  146.2854  139.6990  142.9199 LP  0  0  0  0  0  0  0  0  0  0  0  0  # atno 17321 bound_to 7965
  139.4843  144.4700  151.9437 LP  0  0  0  0  0  0  0  0  0  0  0  0  # atno 17342 bound_to 10162
  140.3786  144.2765  150.5911 LP  0  0  0  0  0  0  0  0  0  0  0  0  # atno 17343 bound_to 10162
  157.7471  131.0406  150.4607 LP  0  0  0  0  0  0  0  0  0  0  0  0  # atno 17370 bound_to 10713
  156.4814  130.4074  149.6459 LP  0  0  0  0  0  0  0  0  0  0  0  0  # atno 17371 bound_to 10713
  140.8774  133.7943  155.9429 LP  0  0  0  0  0  0  0  0  0  0  0  0  # atno 17394 bound_to 11000
  140.8890  134.2518  157.5104 LP  0  0  0  0  0  0  0  0  0  0  0  0  # atno 17395 bound_to 11000

$$$$
