AV-unprocessed.smi:480|AV-procd|sdf|2676|dock7
  -GOLD-   2262023 93D 1   1.00000     0.00000
 Structure written by MMmdl.
 46 48  0  0  0  0  0  0  0  0  1 V2000
  153.1032  138.6630  154.8951 C   0  0  0  0  0  0  0  0  0  0  0  0
  151.7344  139.0888  155.4407 C   0  0  0  0  0  0  0  0  0  0  0  0
  151.8365  140.0740  156.5704 C   0  0  0  0  0  0  0  0  0  0  0  0
  152.6124  139.8156  157.6249 N   0  0  0  0  0  0  0  0  0  0  0  0
  152.4358  140.9292  158.4201 C   0  0  0  0  0  0  0  0  0  0  0  0
  152.9891  141.2565  159.6788 C   0  0  0  0  0  0  0  0  0  0  0  0
  152.6573  142.4735  160.3095 C   0  0  0  0  0  0  0  0  0  0  0  0
  151.7702  143.3785  159.6915 C   0  0  0  0  0  0  0  0  0  0  0  0
  151.2095  143.0715  158.4368 C   0  0  0  0  0  0  0  0  0  0  0  0
  151.5434  141.8546  157.8115 C   0  0  0  0  0  0  0  0  0  0  0  0
  151.1775  141.2648  156.6045 N   0  0  0  0  0  0  0  0  0  0  0  0
  150.2800  141.8676  155.6242 C   0  0  0  0  0  0  0  0  0  0  0  0
  149.3445  140.8422  154.9539 C   0  0  2  0  0  0  0  0  0  0  0  0
  149.5976  140.8230  153.5640 O   0  0  0  0  0  0  0  0  0  0  0  0
  147.8649  141.1943  155.1760 C   0  0  0  0  0  0  0  0  0  0  0  0
  147.4732  142.1779  154.2270 O   0  0  0  0  0  0  0  0  0  0  0  0
  146.3259  142.9015  154.4742 C   0  0  0  0  0  0  0  0  0  0  0  0
  145.6071  142.8646  155.6962 C   0  0  0  0  0  0  0  0  0  0  0  0
  144.4400  143.6356  155.8617 C   0  0  0  0  0  0  0  0  0  0  0  0
  143.9744  144.4525  154.8131 C   0  0  0  0  0  0  0  0  0  0  0  0
  142.7210  145.2831  154.9929 C   0  0  0  0  0  0  0  0  0  0  0  0
  141.6029  144.7719  154.1858 C   0  0  0  0  0  0  0  0  0  0  0  0
  140.7232  144.3701  153.5507 N   0  0  0  0  0  0  0  0  0  0  0  0
  144.6841  144.4961  153.5974 C   0  0  0  0  0  0  0  0  0  0  0  0
  145.8511  143.7254  153.4330 C   0  0  0  0  0  0  0  0  0  0  0  0
  152.9900  137.9559  154.0734 H   0  0  0  0  0  0  0  0  0  0  0  0
  153.7078  138.1840  155.6640 H   0  0  0  0  0  0  0  0  0  0  0  0
  153.6611  139.5210  154.5191 H   0  0  0  0  0  0  0  0  0  0  0  0
  151.1590  139.5529  154.6391 H   0  0  0  0  0  0  0  0  0  0  0  0
  151.1696  138.2069  155.7311 H   0  0  0  0  0  0  0  0  0  0  0  0
  153.6703  140.5699  160.1589 H   0  0  0  0  0  0  0  0  0  0  0  0
  153.0858  142.7138  161.2715 H   0  0  0  0  0  0  0  0  0  0  0  0
  151.5208  144.3088  160.1806 H   0  0  0  0  0  0  0  0  0  0  0  0
  150.5305  143.7631  157.9607 H   0  0  0  0  0  0  0  0  0  0  0  0
  149.6808  142.6123  156.1493 H   0  0  0  0  0  0  0  0  0  0  0  0
  150.8407  142.4276  154.8792 H   0  0  0  0  0  0  0  0  0  0  0  0
  149.5489  139.8522  155.3640 H   0  0  0  0  0  0  0  0  0  0  0  0
  149.3111  139.9908  153.2196 H   0  0  0  0  0  0  0  0  0  0  0  0
  147.2575  140.3025  155.0136 H   0  0  0  0  0  0  0  0  0  0  0  0
  147.6941  141.5316  156.2002 H   0  0  0  0  0  0  0  0  0  0  0  0
  145.9301  142.2524  156.5243 H   0  0  0  0  0  0  0  0  0  0  0  0
  143.9028  143.5980  156.7980 H   0  0  0  0  0  0  0  0  0  0  0  0
  142.4198  145.2831  156.0408 H   0  0  0  0  0  0  0  0  0  0  0  0
  142.9100  146.3177  154.7059 H   0  0  0  0  0  0  0  0  0  0  0  0
  144.3359  145.1217  152.7886 H   0  0  0  0  0  0  0  0  0  0  0  0
  146.3871  143.7661  152.4960 H   0  0  0  0  0  0  0  0  0  0  0  0
  1  2  1  0  0  0  0
  1 26  1  0  0  0  0
  1 27  1  0  0  0  0
  1 28  1  0  0  0  0
  2  3  1  0  0  0  0
  2 29  1  0  0  0  0
  2 30  1  0  0  0  0
  3 11  1  0  0  0  0
  3  4  2  0  0  0  0
  4  5  1  0  0  0  0
  5 10  2  0  0  0  0
  5  6  1  0  0  0  0
  6  7  2  0  0  0  0
  6 31  1  0  0  0  0
  7  8  1  0  0  0  0
  7 32  1  0  0  0  0
  8  9  2  0  0  0  0
  8 33  1  0  0  0  0
  9 10  1  0  0  0  0
  9 34  1  0  0  0  0
 10 11  1  0  0  0  0
 11 12  1  0  0  0  0
 12 13  1  0  0  0  0
 12 35  1  0  0  0  0
 12 36  1  0  0  0  0
 13 14  1  0  0  0  0
 13 15  1  0  0  0  0
 13 37  1  0  0  0  0
 14 38  1  0  0  0  0
 15 16  1  0  0  0  0
 15 39  1  0  0  0  0
 15 40  1  0  0  0  0
 16 17  1  0  0  0  0
 17 25  1  0  0  0  0
 17 18  2  0  0  0  0
 18 19  1  0  0  0  0
 18 41  1  0  0  0  0
 19 20  2  0  0  0  0
 19 42  1  0  0  0  0
 20 21  1  0  0  0  0
 20 24  1  0  0  0  0
 21 22  1  0  0  0  0
 21 43  1  0  0  0  0
 21 44  1  0  0  0  0
 22 23  3  0  0  0  0
 24 25  2  0  0  0  0
 24 45  1  0  0  0  0
 25 46  1  0  0  0  0
M  END
> <s_m_source_file>
AV-unprocessed.smi

> <i_m_source_file_index>
480

> <i_lp_mmshare_version>
43012

> <i_f3d_flags>
0

> <s_epik_input>
W2NIXTFbY0hdW2NIXVtjSF1jKGMxMiluKGMobjIpW0NIMl1bQ0gzXSlbQ0gyXVtDQEhdKFtPSF0pW0NIMl1PYzNbY0hdW2NIXWMoW0NIMl1DI04pW2NIXVtjSF0z

> <s_epik_cmdline>
J2VwaWtfcHl0aG9uJywgJy1waCcsICc3LjAnLCAnLXRuJywgJzgnLCAnLW1hJywgJzIwMCcsICctbWV0YWxfYmluZGluZycsICctaW1hZScsICc8aW5maWxlLm1hZT4nLCAnLW9tYWUnLCAnPG91dGZpbGUubWFlPic=

> <r_lp_tautomer_probability>
1

> <r_epik_Ionization_Penalty>
0.114213

> <r_epik_Ionization_Penalty_Charging>
0

> <r_epik_Ionization_Penalty_Neutral>
0.114213

> <r_epik_State_Penalty>
0.103875

> <r_epik_Charging_Adjusted_Penalty>
0.103875

> <i_epik_Tot_Q>
0

> <i_epik_Tot_abs_Q>
0

> <r_epik_Metal_State_Penalty>
0.000113526

> <b_epik_Metal_Only>
0

> <s_lp_Force_Field>
OPLS_2005

> <r_lp_Energy>
17.1637

> <b_lp_Chiralities_Consistent>
1

> <s_lp_Variant>
AV-unprocessed.smi:480-1

> <Gold.Version>
5.8.1

> <Gold.Id.Protein>
6NUR|6NUR_protein|mol2

> <Gold.PLP.Fitness>
61.9443

> <Gold.PLP.PLP>
-55.2601

> <Gold.PLP.part.hbond>
-4.8392

> <Gold.PLP.part.metal>
0.0000

> <Gold.PLP.part.buried>
-6.7940

> <Gold.PLP.part.nonpolar>
-43.5002

> <Gold.PLP.part.repulsive>
0.2632

> <Gold.PLP.ligand.clash>
0.0000

> <Gold.PLP.ligand.torsion>
1.5863

> <Gold.PLP.Chemscore.Hbond>
3.2320

> <Gold.PLP.Chemscore.CHOScore>
0.0000

> <Gold.PLP.Chemscore.Metal>
0.0000

> <Gold.Chemscore.Hbonds>
donor molecule, donor type, donor heavy atom, donor atom, acceptor molecule, acceptor atom, score
      L1  H    14    38       P1  7957  0.13
      P1  H  7989  7998       L1    14  0.35
      P1  H  7997  8008       L1     4  1.00
      P1  H  8011  8017       L1    14  1.00
      P1  H 10162 10167       L1    23  0.69

> <Gold.PLP.Chemscore.Internal.Correction>
0.1608

> <Gold.Rescore>
     Score         DG    S(hbond)    S(metal)    S(lipo)     H(rot)  DE(clash)    DE(int)     intcor
     20.06     -21.88       2.44        0.00     126.79       2.58       0.27       1.54       ----

> <Gold.Chemscore.Fitness>
20.0632

> <Gold.Chemscore.DG>
-21.8750

> <Gold.Chemscore.ZeroCoef>
-5.4800

> <Gold.Chemscore.Hbond>
2.4416

> <Gold.Chemscore.Metal>
0.0000

> <Gold.Chemscore.Lipo>
126.7886

> <Gold.Chemscore.Internal_Hbond>
0.0000

> <Gold.Chemscore.DEClash>
0.2677

> <Gold.Chemscore.DEInternal>
1.5442

> <Gold.Chemscore.Rot>
2.5759

> <Gold.Chemscore.Internal.Correction>
   9.000000E+99

> <Gold.Chemscore.Hbonds>
donor molecule, donor type, donor heavy atom, donor atom, acceptor molecule, acceptor atom, score
      L1  H    14    38       P1  7957  0.13
      P1  H  7989  7998       L1    14  0.10
      P1  H  7997  8008       L1     4  0.15
      P1  H  8011  8017       L1    14  0.90
      P1  H 10162 10167       L1    23  0.69

> <Gold.Chemscore.Hbond.Weighted>
-8.1551

> <Gold.Chemscore.Metal.Weighted>
-0.0000

> <Gold.Chemscore.Lipo.Weighted>
-14.8343

> <Gold.Chemscore.Internal_Hbond.Weighted>
0.0000

> <Gold.Chemscore.DEClash.Weighted>
0.2677

> <Gold.Chemscore.DEInternal.Weighted>
1.5442

> <Gold.Chemscore.Rot.Weighted>
6.5943

> <Gold.Chemscore.Internal.Correction.Weighted>
   9.000000E+99

> <Gold.Protein.RotatedTorsions>
[ 6907 6896 6895 6894 ] final  -23.93 input  -60.11 | X-H torsion
[ 7974 7965 7964 7962 ] final -110.51 input  175.53 | X-H torsion
[ 8008 7997 7996 7995 ] final  -76.42 input   59.86 | X-H torsion
[ 10167 10162 10161 10158 ] final -143.31 input  -65.29 | X-H torsion
[ 10718 10713 10712 10709 ] final  105.80 input   66.30 | X-H torsion
[ 10763 10752 10751 10750 ] final  -28.13 input  -60.55 | X-H torsion
[ 11005 11000 10999 10996 ] final  103.52 input  -57.11 | X-H torsion

> <Gold.Protein.ActiveResidues>
 VAL166  LYS551  ARG553  GLY616  TRP617  ASP618  TYR619  PRO620  LYS621  CYS622 
 ASP623  PHE694  ASN695  SER759  ASP760  ASP761  ALA762  ILE779  LEU786  VAL792 
 PHE793  MET794  SER795  GLU796  ALA797  LYS798  CYS799  TRP800  GLU811  SER814 

> <Gold.Protein.RotatedAtoms>
  151.1969  135.0426  159.8855 H   0  0  0  0  0  0  0  0  0  0  0  0  # atno 6907 bound_to 6896
  152.5435  134.0893  159.8280 H   0  0  0  0  0  0  0  0  0  0  0  0  # atno 6908 bound_to 6896
  151.1029  133.5183  159.2641 H   0  0  0  0  0  0  0  0  0  0  0  0  # atno 6909 bound_to 6896
  145.1673  140.8908  143.3555 H   0  0  0  0  0  0  0  0  0  0  0  0  # atno 7974 bound_to 7965
  154.5503  140.0727  156.8657 H   0  0  0  0  0  0  0  0  0  0  0  0  # atno 8008 bound_to 7997
  155.3006  140.3384  155.4230 H   0  0  0  0  0  0  0  0  0  0  0  0  # atno 8009 bound_to 7997
  156.1955  140.1702  156.7992 H   0  0  0  0  0  0  0  0  0  0  0  0  # atno 8010 bound_to 7997
  139.8006  143.7839  152.2658 H   0  0  0  0  0  0  0  0  0  0  0  0  # atno 10167 bound_to 10162
  157.6692  131.0836  150.5911 H   0  0  0  0  0  0  0  0  0  0  0  0  # atno 10718 bound_to 10713
  153.7433  135.6931  153.4962 H   0  0  0  0  0  0  0  0  0  0  0  0  # atno 10763 bound_to 10752
  153.2054  135.4422  155.0315 H   0  0  0  0  0  0  0  0  0  0  0  0  # atno 10764 bound_to 10752
  154.8213  135.3423  154.6957 H   0  0  0  0  0  0  0  0  0  0  0  0  # atno 10765 bound_to 10752
  139.8784  134.9266  156.5221 H   0  0  0  0  0  0  0  0  0  0  0  0  # atno 11005 bound_to 11000
  145.0269  139.3375  143.6044 LP  0  0  0  0  0  0  0  0  0  0  0  0  # atno 17320 bound_to 7965
  146.3474  139.9591  142.8719 LP  0  0  0  0  0  0  0  0  0  0  0  0  # atno 17321 bound_to 7965
  139.7958  144.7393  150.9892 LP  0  0  0  0  0  0  0  0  0  0  0  0  # atno 17342 bound_to 10162
  140.7820  143.4395  151.0573 LP  0  0  0  0  0  0  0  0  0  0  0  0  # atno 17343 bound_to 10162
  156.6212  130.4406  149.5821 LP  0  0  0  0  0  0  0  0  0  0  0  0  # atno 17370 bound_to 10713
  156.2354  130.6820  151.1505 LP  0  0  0  0  0  0  0  0  0  0  0  0  # atno 17371 bound_to 10713
  140.8442  133.8181  155.9105 LP  0  0  0  0  0  0  0  0  0  0  0  0  # atno 17394 bound_to 11000
  140.9207  134.2145  157.4928 LP  0  0  0  0  0  0  0  0  0  0  0  0  # atno 17395 bound_to 11000

$$$$
