AV-unprocessed.smi:1972|AV-procd|sdf|7975|dock1
  -GOLD-   2272010153D 1   1.00000     0.00000
 Structure written by MMmdl.
 44 45  0  0  0  0  0  0  0  0  1 V2000
  151.7420  131.1708  154.4224 C   0  0  0  0  0  0  0  0  0  0  0  0
  151.5156  132.7639  155.2542 S   0  0  0  0  0  0  0  0  0  0  0  0
  150.1838  133.4518  154.2287 C   0  0  0  0  0  0  0  0  0  0  0  0
  149.6965  134.8171  154.7454 C   0  0  0  0  0  0  0  0  0  0  0  0
  150.8056  135.8728  154.7903 C   0  0  0  0  0  0  0  0  0  0  0  0
  151.7723  135.7261  155.5384 O   0  0  0  0  0  0  0  0  0  0  0  0
  150.6503  136.9345  153.9860 N   0  0  0  0  0  0  0  0  0  0  0  0
  151.6026  138.0320  153.8596 C   0  0  0  0  0  0  0  0  0  0  0  0
  151.6315  138.9524  155.0695 C   0  0  0  0  0  0  0  0  0  0  0  0
  150.6520  139.9454  155.2820 C   0  0  0  0  0  0  0  0  0  0  0  0
  150.7489  140.7690  156.4197 C   0  0  0  0  0  0  0  0  0  0  0  0
  151.8261  140.5834  157.3189 C   0  0  0  0  0  0  0  0  0  0  0  0
  151.9419  141.3960  158.4678 N   0  0  0  0  0  0  0  0  0  0  0  0
  152.0190  140.7368  159.7699 C   0  0  0  0  0  0  0  0  0  0  0  0
  152.4341  141.7433  160.8551 C   0  0  0  0  0  0  0  0  0  0  0  0
  151.5397  142.8509  160.8480 O   0  0  0  0  0  0  0  0  0  0  0  0
  151.5619  143.5508  159.6071 C   0  0  2  0  0  0  0  0  0  0  0  0
  150.6444  144.7723  159.7273 C   0  0  0  0  0  0  0  0  0  0  0  0
  151.1158  142.6007  158.4788 C   0  0  0  0  0  0  0  0  0  0  0  0
  152.7736  139.6377  157.1021 N   0  0  0  0  0  0  0  0  0  0  0  0
  152.6759  138.8505  156.0102 C   0  0  0  0  0  0  0  0  0  0  0  0
  152.5302  130.5995  154.9123 H   0  0  0  0  0  0  0  0  0  0  0  0
  152.0201  131.3218  153.3794 H   0  0  0  0  0  0  0  0  0  0  0  0
  150.8207  130.5890  154.4571 H   0  0  0  0  0  0  0  0  0  0  0  0
  150.5610  133.5618  153.2117 H   0  0  0  0  0  0  0  0  0  0  0  0
  149.3618  132.7366  154.1789 H   0  0  0  0  0  0  0  0  0  0  0  0
  148.8582  135.1679  154.1415 H   0  0  0  0  0  0  0  0  0  0  0  0
  149.3148  134.7009  155.7601 H   0  0  0  0  0  0  0  0  0  0  0  0
  149.8224  136.9781  153.4095 H   0  0  0  0  0  0  0  0  0  0  0  0
  152.5961  137.6120  153.6969 H   0  0  0  0  0  0  0  0  0  0  0  0
  151.3657  138.6398  152.9845 H   0  0  0  0  0  0  0  0  0  0  0  0
  149.8385  140.0860  154.5857 H   0  0  0  0  0  0  0  0  0  0  0  0
  150.0093  141.5394  156.5787 H   0  0  0  0  0  0  0  0  0  0  0  0
  151.0475  140.3046  160.0141 H   0  0  0  0  0  0  0  0  0  0  0  0
  152.7423  139.9206  159.7400 H   0  0  0  0  0  0  0  0  0  0  0  0
  152.4056  141.2697  161.8364 H   0  0  0  0  0  0  0  0  0  0  0  0
  153.4579  142.0864  160.6968 H   0  0  0  0  0  0  0  0  0  0  0  0
  152.5778  143.8994  159.4122 H   0  0  0  0  0  0  0  0  0  0  0  0
  150.6386  145.3511  158.8033 H   0  0  0  0  0  0  0  0  0  0  0  0
  150.9764  145.4311  160.5298 H   0  0  0  0  0  0  0  0  0  0  0  0
  149.6177  144.4747  159.9432 H   0  0  0  0  0  0  0  0  0  0  0  0
  151.1657  143.1308  157.5290 H   0  0  0  0  0  0  0  0  0  0  0  0
  150.0748  142.3084  158.6233 H   0  0  0  0  0  0  0  0  0  0  0  0
  153.4570  138.1149  155.8865 H   0  0  0  0  0  0  0  0  0  0  0  0
  1  2  1  0  0  0  0
  1 22  1  0  0  0  0
  1 23  1  0  0  0  0
  1 24  1  0  0  0  0
  2  3  1  0  0  0  0
  3  4  1  0  0  0  0
  3 25  1  0  0  0  0
  3 26  1  0  0  0  0
  4  5  1  0  0  0  0
  4 27  1  0  0  0  0
  4 28  1  0  0  0  0
  5  6  2  0  0  0  0
  5  7  1  0  0  0  0
  7  8  1  0  0  0  0
  7 29  1  0  0  0  0
  8  9  1  0  0  0  0
  8 30  1  0  0  0  0
  8 31  1  0  0  0  0
  9 21  1  0  0  0  0
  9 10  2  0  0  0  0
 10 11  1  0  0  0  0
 10 32  1  0  0  0  0
 11 12  2  0  0  0  0
 11 33  1  0  0  0  0
 12 13  1  0  0  0  0
 12 20  1  0  0  0  0
 13 19  1  0  0  0  0
 13 14  1  0  0  0  0
 14 15  1  0  0  0  0
 14 34  1  0  0  0  0
 14 35  1  0  0  0  0
 15 16  1  0  0  0  0
 15 36  1  0  0  0  0
 15 37  1  0  0  0  0
 16 17  1  0  0  0  0
 17 18  1  0  0  0  0
 17 19  1  0  0  0  0
 17 38  1  0  0  0  0
 18 39  1  0  0  0  0
 18 40  1  0  0  0  0
 18 41  1  0  0  0  0
 19 42  1  0  0  0  0
 19 43  1  0  0  0  0
 20 21  2  0  0  0  0
 21 44  1  0  0  0  0
M  END
> <s_m_source_file>
AV-unprocessed.smi

> <i_m_source_file_index>
1972

> <i_lp_mmshare_version>
43012

> <i_f3d_flags>
0

> <s_epik_input>
W0NIM11TW0NIMl1bQ0gyXUMoPU8pW05IXVtDSDJdYzFbY0hdW2NIXWMobltjSF0xKU4yW0NIMl1bQ0gyXU9bQ0BASF0oW0NIM10pW0NIMl0y

> <s_epik_cmdline>
J2VwaWtfcHl0aG9uJywgJy1waCcsICc3LjAnLCAnLXRuJywgJzgnLCAnLW1hJywgJzIwMCcsICctbWV0YWxfYmluZGluZycsICctaW1hZScsICc8aW5maWxlLm1hZT4nLCAnLW9tYWUnLCAnPG91dGZpbGUubWFlPic=

> <r_lp_tautomer_probability>
1

> <r_epik_Ionization_Penalty>
0.00559088

> <r_epik_Ionization_Penalty_Charging>
0

> <r_epik_Ionization_Penalty_Neutral>
0.00559088

> <r_epik_State_Penalty>
0.00409544

> <r_epik_Charging_Adjusted_Penalty>
0.00409544

> <i_epik_Tot_Q>
0

> <i_epik_Tot_abs_Q>
0

> <r_epik_Metal_State_Penalty>
-0

> <b_epik_Metal_Only>
0

> <s_lp_Force_Field>
OPLS_2005

> <r_lp_Energy>
17.9422

> <b_lp_Chiralities_Consistent>
1

> <s_lp_Variant>
AV-unprocessed.smi:1972-2

> <Gold.Version>
5.8.1

> <Gold.Id.Protein>
6NUR|6NUR_protein|mol2

> <Gold.PLP.Fitness>
51.4338

> <Gold.PLP.PLP>
-43.5995

> <Gold.PLP.part.hbond>
-4.0000

> <Gold.PLP.part.metal>
0.0000

> <Gold.PLP.part.buried>
-3.1585

> <Gold.PLP.part.nonpolar>
-36.5053

> <Gold.PLP.part.repulsive>
0.1629

> <Gold.PLP.ligand.clash>
0.0000

> <Gold.PLP.ligand.torsion>
0.5362

> <Gold.PLP.Chemscore.Hbond>
2.8247

> <Gold.PLP.Chemscore.CHOScore>
0.0000

> <Gold.PLP.Chemscore.Metal>
0.0000

> <Gold.Chemscore.Hbonds>
donor molecule, donor type, donor heavy atom, donor atom, acceptor molecule, acceptor atom, score
      L1  H     7    29       P1  7948  0.86
      P1  H  6933  6945       L1    16  0.05
      P1  H  7997  8008       L1    20  0.85
      P1  H 10752 10765       L1     6  0.80

> <Gold.PLP.Chemscore.Internal.Correction>
0.4326

> <Gold.Rescore>
     Score         DG    S(hbond)    S(metal)    S(lipo)     H(rot)  DE(clash)    DE(int)     intcor
     19.34     -20.21       2.08        0.00     104.81       1.75       0.23       0.64       ----

> <Gold.Chemscore.Fitness>
19.3442

> <Gold.Chemscore.DG>
-20.2083

> <Gold.Chemscore.ZeroCoef>
-5.4800

> <Gold.Chemscore.Hbond>
2.0763

> <Gold.Chemscore.Metal>
0.0000

> <Gold.Chemscore.Lipo>
104.8137

> <Gold.Chemscore.Internal_Hbond>
0.0000

> <Gold.Chemscore.DEClash>
0.2272

> <Gold.Chemscore.DEInternal>
0.6369

> <Gold.Chemscore.Rot>
1.7460

> <Gold.Chemscore.Internal.Correction>
   9.000000E+99

> <Gold.Chemscore.Hbonds>
donor molecule, donor type, donor heavy atom, donor atom, acceptor molecule, acceptor atom, score
      L1  H     7    29       P1  7948  0.38
      P1  H  7997  8008       L1    20  0.14
      P1  H 10752 10765       L1     6  0.77

> <Gold.Chemscore.Hbond.Weighted>
-6.9348

> <Gold.Chemscore.Metal.Weighted>
-0.0000

> <Gold.Chemscore.Lipo.Weighted>
-12.2632

> <Gold.Chemscore.Internal_Hbond.Weighted>
0.0000

> <Gold.Chemscore.DEClash.Weighted>
0.2272

> <Gold.Chemscore.DEInternal.Weighted>
0.6369

> <Gold.Chemscore.Rot.Weighted>
4.4697

> <Gold.Chemscore.Internal.Correction.Weighted>
   9.000000E+99

> <Gold.Protein.RotatedTorsions>
[ 6907 6896 6895 6894 ] final   37.51 input  -60.11 | X-H torsion
[ 7974 7965 7964 7962 ] final  -42.16 input  175.53 | X-H torsion
[ 8008 7997 7996 7995 ] final  -78.35 input   59.86 | X-H torsion
[ 10167 10162 10161 10158 ] final  -33.08 input  -65.29 | X-H torsion
[ 10718 10713 10712 10709 ] final  -11.39 input   66.30 | X-H torsion
[ 10763 10752 10751 10750 ] final -154.92 input  -60.55 | X-H torsion
[ 11005 11000 10999 10996 ] final  154.01 input  -57.11 | X-H torsion

> <Gold.Protein.ActiveResidues>
 VAL166  LYS551  ARG553  GLY616  TRP617  ASP618  TYR619  PRO620  LYS621  CYS622 
 ASP623  PHE694  ASN695  SER759  ASP760  ASP761  ALA762  ILE779  LEU786  VAL792 
 PHE793  MET794  SER795  GLU796  ALA797  LYS798  CYS799  TRP800  GLU811  SER814 

> <Gold.Protein.RotatedAtoms>
  152.1441  134.9040  160.0551 H   0  0  0  0  0  0  0  0  0  0  0  0  # atno 6907 bound_to 6896
  152.0096  133.3851  159.4223 H   0  0  0  0  0  0  0  0  0  0  0  0  # atno 6908 bound_to 6896
  150.6868  134.3666  159.5017 H   0  0  0  0  0  0  0  0  0  0  0  0  # atno 6909 bound_to 6896
  146.0143  140.6927  142.9209 H   0  0  0  0  0  0  0  0  0  0  0  0  # atno 7974 bound_to 7965
  154.5681  140.0695  156.8923 H   0  0  0  0  0  0  0  0  0  0  0  0  # atno 8008 bound_to 7997
  155.2685  140.3363  155.4249 H   0  0  0  0  0  0  0  0  0  0  0  0  # atno 8009 bound_to 7997
  156.2097  140.1754  156.7708 H   0  0  0  0  0  0  0  0  0  0  0  0  # atno 8010 bound_to 7997
  140.7210  143.3647  151.1894 H   0  0  0  0  0  0  0  0  0  0  0  0  # atno 10167 bound_to 10162
  156.6597  130.4978  149.6034 H   0  0  0  0  0  0  0  0  0  0  0  0  # atno 10718 bound_to 10713
  154.7824  135.3179  154.7961 H   0  0  0  0  0  0  0  0  0  0  0  0  # atno 10763 bound_to 10752
  153.8669  135.6848  153.4782 H   0  0  0  0  0  0  0  0  0  0  0  0  # atno 10764 bound_to 10752
  153.1464  135.4717  154.9511 H   0  0  0  0  0  0  0  0  0  0  0  0  # atno 10765 bound_to 10752
  140.1450  134.8713  157.2381 H   0  0  0  0  0  0  0  0  0  0  0  0  # atno 11005 bound_to 11000
  144.6965  140.3453  143.7192 LP  0  0  0  0  0  0  0  0  0  0  0  0  # atno 17320 bound_to 7965
  145.7294  139.1732  143.2439 LP  0  0  0  0  0  0  0  0  0  0  0  0  # atno 17321 bound_to 7965
  139.7206  143.9229  152.2984 LP  0  0  0  0  0  0  0  0  0  0  0  0  # atno 17342 bound_to 10162
  139.8985  144.6925  150.8692 LP  0  0  0  0  0  0  0  0  0  0  0  0  # atno 17343 bound_to 10162
  156.2020  130.6626  151.1178 LP  0  0  0  0  0  0  0  0  0  0  0  0  # atno 17370 bound_to 10713
  157.7113  131.0732  150.6488 LP  0  0  0  0  0  0  0  0  0  0  0  0  # atno 17371 bound_to 10713
  140.2674  134.3500  155.7385 LP  0  0  0  0  0  0  0  0  0  0  0  0  # atno 17394 bound_to 11000
  141.2191  133.7404  156.9172 LP  0  0  0  0  0  0  0  0  0  0  0  0  # atno 17395 bound_to 11000

$$$$
