AV-unprocessed.smi:3048|AV-procd|sdf|11627|dock2
  -GOLD-   2272017 13D 1   1.00000     0.00000
 Structure written by MMmdl.
 37 38  0  0  0  0  0  0  0  0  1 V2000
  151.9783  144.5024  157.4982 C   0  0  0  0  0  0  0  0  0  0  0  0
  152.1007  144.2145  158.9667 C   0  0  0  0  0  0  0  0  0  0  0  0
  151.5119  144.9278  160.0492 C   0  0  0  0  0  0  0  0  0  0  0  0
  151.8144  144.4136  161.2295 N   0  0  0  0  0  0  0  0  0  0  0  0
  152.6077  143.3591  160.9447 N   0  0  0  0  0  0  0  0  0  0  0  0
  153.1373  142.5411  162.0213 C   0  0  0  0  0  0  0  0  0  0  0  0
  154.0757  141.4360  161.5108 C   0  0  0  0  0  0  0  0  0  0  0  0
  154.9815  140.9695  162.5565 N   0  0  0  0  0  0  0  0  0  0  0  0
  155.9693  140.0061  162.0831 C   0  0  0  0  0  0  0  0  0  0  0  0
  155.7390  138.6255  162.7141 C   0  0  2  0  0  0  0  0  0  0  0  0
  154.4808  137.9420  162.1440 C   0  0  0  0  0  0  0  0  0  0  0  0
  154.2186  136.6106  162.8574 C   0  0  0  0  0  0  0  0  0  0  0  0
  154.1789  136.8340  164.3728 C   0  0  0  0  0  0  0  0  0  0  0  0
  155.4393  137.5815  164.8357 C   0  0  0  0  0  0  0  0  0  0  0  0
  155.5655  138.8056  164.1187 O   0  0  0  0  0  0  0  0  0  0  0  0
  152.7949  143.2142  159.5865 C   0  0  0  0  0  0  0  0  0  0  0  0
  151.5452  145.4856  157.3135 H   0  0  0  0  0  0  0  0  0  0  0  0
  151.3422  143.7722  156.9976 H   0  0  0  0  0  0  0  0  0  0  0  0
  152.9481  144.4812  157.0008 H   0  0  0  0  0  0  0  0  0  0  0  0
  150.8749  145.7991  160.0116 H   0  0  0  0  0  0  0  0  0  0  0  0
  153.6515  143.1775  162.7437 H   0  0  0  0  0  0  0  0  0  0  0  0
  152.2938  142.0930  162.5473 H   0  0  0  0  0  0  0  0  0  0  0  0
  153.4717  140.6021  161.1517 H   0  0  0  0  0  0  0  0  0  0  0  0
  154.6440  141.7982  160.6532 H   0  0  0  0  0  0  0  0  0  0  0  0
  154.4480  140.5642  163.3195 H   0  0  0  0  0  0  0  0  0  0  0  0
  155.9356  139.9253  160.9960 H   0  0  0  0  0  0  0  0  0  0  0  0
  156.9683  140.3608  162.3397 H   0  0  0  0  0  0  0  0  0  0  0  0
  156.6086  137.9922  162.5272 H   0  0  0  0  0  0  0  0  0  0  0  0
  153.6179  138.5977  162.2676 H   0  0  0  0  0  0  0  0  0  0  0  0
  154.5936  137.7728  161.0727 H   0  0  0  0  0  0  0  0  0  0  0  0
  153.2821  136.1714  162.5127 H   0  0  0  0  0  0  0  0  0  0  0  0
  155.0087  135.9002  162.6113 H   0  0  0  0  0  0  0  0  0  0  0  0
  153.2945  137.4158  164.6347 H   0  0  0  0  0  0  0  0  0  0  0  0
  154.0919  135.8799  164.8934 H   0  0  0  0  0  0  0  0  0  0  0  0
  155.3735  137.8032  165.9008 H   0  0  0  0  0  0  0  0  0  0  0  0
  156.3308  136.9694  164.6924 H   0  0  0  0  0  0  0  0  0  0  0  0
  153.4022  142.4199  159.1779 H   0  0  0  0  0  0  0  0  0  0  0  0
  1  2  1  0  0  0  0
  1 17  1  0  0  0  0
  1 18  1  0  0  0  0
  1 19  1  0  0  0  0
  2 16  2  0  0  0  0
  2  3  1  0  0  0  0
  3  4  2  0  0  0  0
  3 20  1  0  0  0  0
  4  5  1  0  0  0  0
  5  6  1  0  0  0  0
  5 16  1  0  0  0  0
  6  7  1  0  0  0  0
  6 21  1  0  0  0  0
  6 22  1  0  0  0  0
  7  8  1  0  0  0  0
  7 23  1  0  0  0  0
  7 24  1  0  0  0  0
  8  9  1  0  0  0  0
  8 25  1  0  0  0  0
  9 10  1  0  0  0  0
  9 26  1  0  0  0  0
  9 27  1  0  0  0  0
 10 15  1  0  0  0  0
 10 11  1  0  0  0  0
 10 28  1  0  0  0  0
 11 12  1  0  0  0  0
 11 29  1  0  0  0  0
 11 30  1  0  0  0  0
 12 13  1  0  0  0  0
 12 31  1  0  0  0  0
 12 32  1  0  0  0  0
 13 14  1  0  0  0  0
 13 33  1  0  0  0  0
 13 34  1  0  0  0  0
 14 15  1  0  0  0  0
 14 35  1  0  0  0  0
 14 36  1  0  0  0  0
 16 37  1  0  0  0  0
M  END
> <s_m_source_file>
AV-unprocessed.smi

> <i_m_source_file_index>
3048

> <i_lp_mmshare_version>
43012

> <i_f3d_flags>
0

> <s_epik_input>
W0NIM11jMVtjSF1ubihbY0hdMSlbQ0gyXVtDSDJdW05IXVtDSDJdW0NAQEhdMltDSDJdW0NIMl1bQ0gyXVtDSDJdTzI=

> <s_epik_cmdline>
J2VwaWtfcHl0aG9uJywgJy1waCcsICc3LjAnLCAnLXRuJywgJzgnLCAnLW1hJywgJzIwMCcsICctbWV0YWxfYmluZGluZycsICctaW1hZScsICc8aW5maWxlLm1hZT4nLCAnLW9tYWUnLCAnPG91dGZpbGUubWFlPic=

> <r_lp_tautomer_probability>
1

> <r_epik_Ionization_Penalty>
2.52229

> <r_epik_Ionization_Penalty_Charging>
0

> <r_epik_Ionization_Penalty_Neutral>
2.52229

> <r_epik_State_Penalty>
2.68614

> <r_epik_Charging_Adjusted_Penalty>
2.68614

> <i_epik_Tot_Q>
0

> <i_epik_Tot_abs_Q>
0

> <r_epik_Metal_State_Penalty>
2.68365

> <b_epik_Metal_Only>
0

> <s_lp_Force_Field>
OPLS_2005

> <r_lp_Energy>
12.7025

> <b_lp_Chiralities_Consistent>
1

> <s_lp_Variant>
AV-unprocessed.smi:3048-3

> <Gold.Version>
5.8.1

> <Gold.Id.Protein>
6NUR|6NUR_protein|mol2

> <Gold.PLP.Fitness>
44.4882

> <Gold.PLP.PLP>
-45.5683

> <Gold.PLP.part.hbond>
-1.0000

> <Gold.PLP.part.metal>
0.0000

> <Gold.PLP.part.buried>
-5.1786

> <Gold.PLP.part.nonpolar>
-38.8901

> <Gold.PLP.part.repulsive>
0.1906

> <Gold.PLP.ligand.clash>
0.0000

> <Gold.PLP.ligand.torsion>
0.5641

> <Gold.PLP.Chemscore.Hbond>
0.0000

> <Gold.PLP.Chemscore.CHOScore>
0.0000

> <Gold.PLP.Chemscore.Metal>
0.0000

> <Gold.PLP.Chemscore.Internal.Correction>
0.0482

> <Gold.Rescore>
     Score         DG    S(hbond)    S(metal)    S(lipo)     H(rot)  DE(clash)    DE(int)     intcor
     14.68     -15.60       0.00        0.00     120.22       1.54       0.40       0.52       ----

> <Gold.Chemscore.Fitness>
14.6755

> <Gold.Chemscore.DG>
-15.6008

> <Gold.Chemscore.ZeroCoef>
-5.4800

> <Gold.Chemscore.Hbond>
0.0000

> <Gold.Chemscore.Metal>
0.0000

> <Gold.Chemscore.Lipo>
120.2223

> <Gold.Chemscore.Internal_Hbond>
0.0000

> <Gold.Chemscore.DEClash>
0.4046

> <Gold.Chemscore.DEInternal>
0.5208

> <Gold.Chemscore.Rot>
1.5411

> <Gold.Chemscore.Internal.Correction>
   9.000000E+99

> <Gold.Chemscore.Hbond.Weighted>
-0.0000

> <Gold.Chemscore.Metal.Weighted>
-0.0000

> <Gold.Chemscore.Lipo.Weighted>
-14.0660

> <Gold.Chemscore.Internal_Hbond.Weighted>
0.0000

> <Gold.Chemscore.DEClash.Weighted>
0.4046

> <Gold.Chemscore.DEInternal.Weighted>
0.5208

> <Gold.Chemscore.Rot.Weighted>
3.9452

> <Gold.Chemscore.Internal.Correction.Weighted>
   9.000000E+99

> <Gold.Protein.RotatedTorsions>
[ 6907 6896 6895 6894 ] final  -56.02 input  -60.11 | X-H torsion
[ 7974 7965 7964 7962 ] final -107.43 input  175.53 | X-H torsion
[ 8008 7997 7996 7995 ] final   17.35 input   59.86 | X-H torsion
[ 10167 10162 10161 10158 ] final  -71.47 input  -65.29 | X-H torsion
[ 10718 10713 10712 10709 ] final  -89.55 input   66.30 | X-H torsion
[ 10763 10752 10751 10750 ] final -151.30 input  -60.55 | X-H torsion
[ 11005 11000 10999 10996 ] final   10.93 input  -57.11 | X-H torsion

> <Gold.Protein.ActiveResidues>
 VAL166  LYS551  ARG553  GLY616  TRP617  ASP618  TYR619  PRO620  LYS621  CYS622 
 ASP623  PHE694  ASN695  SER759  ASP760  ASP761  ALA762  ILE779  LEU786  VAL792 
 PHE793  MET794  SER795  GLU796  ALA797  LYS798  CYS799  TRP800  GLU811  SER814 

> <Gold.Protein.RotatedAtoms>
  150.8202  134.7406  159.6765 H   0  0  0  0  0  0  0  0  0  0  0  0  # atno 6907 bound_to 6896
  152.4318  134.5759  159.9944 H   0  0  0  0  0  0  0  0  0  0  0  0  # atno 6908 bound_to 6896
  151.5945  133.3325  159.3070 H   0  0  0  0  0  0  0  0  0  0  0  0  # atno 6909 bound_to 6896
  145.2054  140.9074  143.3345 H   0  0  0  0  0  0  0  0  0  0  0  0  # atno 7974 bound_to 7965
  154.8902  140.2986  155.5375 H   0  0  0  0  0  0  0  0  0  0  0  0  # atno 8008 bound_to 7997
  156.3021  140.2426  156.3851 H   0  0  0  0  0  0  0  0  0  0  0  0  # atno 8009 bound_to 7997
  154.8627  140.0404  157.1664 H   0  0  0  0  0  0  0  0  0  0  0  0  # atno 8010 bound_to 7997
  140.5271  143.2325  151.7329 H   0  0  0  0  0  0  0  0  0  0  0  0  # atno 10167 bound_to 10162
  155.9985  130.4876  150.5188 H   0  0  0  0  0  0  0  0  0  0  0  0  # atno 10718 bound_to 10713
  154.8066  135.3263  154.7415 H   0  0  0  0  0  0  0  0  0  0  0  0  # atno 10763 bound_to 10752
  153.8072  135.6898  153.4851 H   0  0  0  0  0  0  0  0  0  0  0  0  # atno 10764 bound_to 10752
  153.1815  135.4584  154.9979 H   0  0  0  0  0  0  0  0  0  0  0  0  # atno 10765 bound_to 10752
  140.5089  134.0672  155.7813 H   0  0  0  0  0  0  0  0  0  0  0  0  # atno 11005 bound_to 11000
  144.9907  139.3692  143.6216 LP  0  0  0  0  0  0  0  0  0  0  0  0  # atno 17320 bound_to 7965
  146.3409  139.9089  142.8783 LP  0  0  0  0  0  0  0  0  0  0  0  0  # atno 17321 bound_to 7965
  139.4942  144.4170  152.0019 LP  0  0  0  0  0  0  0  0  0  0  0  0  # atno 17342 bound_to 10162
  140.3270  144.3361  150.5996 LP  0  0  0  0  0  0  0  0  0  0  0  0  # atno 17343 bound_to 10162
  157.3152  131.0671  151.1972 LP  0  0  0  0  0  0  0  0  0  0  0  0  # atno 17370 bound_to 10713
  157.2905  130.6794  149.6111 LP  0  0  0  0  0  0  0  0  0  0  0  0  # atno 17371 bound_to 10713
  141.1396  133.9161  157.2356 LP  0  0  0  0  0  0  0  0  0  0  0  0  # atno 17394 bound_to 11000
  139.9670  135.0139  156.9413 LP  0  0  0  0  0  0  0  0  0  0  0  0  # atno 17395 bound_to 11000

$$$$
