AV-unprocessed.smi:2503|AV-procd|sdf|9847|dock10
  -GOLD-   2272013473D 1   1.00000     0.00000
 Structure written by MMmdl.
 37 38  0  0  0  0  0  0  0  0  2 V2000
  145.1932  142.6863  155.7454 C   0  0  0  0  0  0  0  0  0  0  0  0
  146.2056  142.9413  154.6204 C   0  0  0  0  0  0  0  0  0  0  0  0
  145.5708  143.7153  153.4542 C   0  0  0  0  0  0  0  0  0  0  0  0
  146.8472  141.6589  154.1658 C   0  0  0  0  0  0  0  0  0  0  0  0
  146.2159  140.6567  153.5407 N   0  3  0  0  0  0  0  0  0  0  0  0
  147.0773  139.6233  153.2950 C   0  0  0  0  0  0  0  0  0  0  0  0
  148.2890  140.0011  153.8089 C   0  0  0  0  0  0  0  0  0  0  0  0
  148.1182  141.2517  154.3475 N   0  0  0  0  0  0  0  0  0  0  0  0
  149.1561  142.0482  155.0205 C   0  0  0  0  0  0  0  0  0  0  0  0
  150.3224  141.1883  155.5226 C   0  0  0  0  0  0  0  0  0  0  0  0
  150.8421  140.3672  154.7631 O   0  0  0  0  0  0  0  0  0  0  0  0
  150.6905  141.4228  156.8032 N   0  0  0  0  0  0  0  0  0  0  0  0
  151.6822  140.8910  157.5568 C   0  0  0  0  0  0  0  0  0  0  0  0
  152.4071  140.0099  157.0983 O   0  0  0  0  0  0  0  0  0  0  0  0
  151.8217  141.3631  158.8096 N   0  0  0  0  0  0  0  0  0  0  0  0
  152.9912  141.2481  159.6191 C   0  0  0  0  0  0  0  0  0  0  0  0
  152.8964  141.7099  161.0571 C   0  0  0  0  0  0  0  0  0  0  0  0
  153.6674  142.5285  160.0586 C   0  0  0  0  0  0  0  0  0  0  0  0
  145.6665  142.1984  156.5979 H   0  0  0  0  0  0  0  0  0  0  0  0
  144.3762  142.0479  155.4075 H   0  0  0  0  0  0  0  0  0  0  0  0
  144.7592  143.6212  156.1009 H   0  0  0  0  0  0  0  0  0  0  0  0
  147.0057  143.5636  155.0184 H   0  0  0  0  0  0  0  0  0  0  0  0
  146.3076  143.9300  152.6796 H   0  0  0  0  0  0  0  0  0  0  0  0
  145.1657  144.6690  153.7935 H   0  0  0  0  0  0  0  0  0  0  0  0
  144.7551  143.1558  152.9955 H   0  0  0  0  0  0  0  0  0  0  0  0
  146.7706  138.7189  152.7900 H   0  0  0  0  0  0  0  0  0  0  0  0
  149.2374  139.4839  153.8326 H   0  0  0  0  0  0  0  0  0  0  0  0
  149.5014  142.8196  154.3306 H   0  0  0  0  0  0  0  0  0  0  0  0
  148.6971  142.5582  155.8684 H   0  0  0  0  0  0  0  0  0  0  0  0
  150.1348  142.1163  157.2823 H   0  0  0  0  0  0  0  0  0  0  0  0
  151.0327  141.8413  159.2213 H   0  0  0  0  0  0  0  0  0  0  0  0
  153.6506  140.4021  159.4298 H   0  0  0  0  0  0  0  0  0  0  0  0
  151.9441  142.1076  161.4033 H   0  0  0  0  0  0  0  0  0  0  0  0
  153.4663  141.1555  161.8001 H   0  0  0  0  0  0  0  0  0  0  0  0
  154.7527  142.5215  160.1351 H   0  0  0  0  0  0  0  0  0  0  0  0
  153.2294  143.4725  159.7393 H   0  0  0  0  0  0  0  0  0  0  0  0
  145.2368  140.6678  153.2836 H   0  0  0  0  0  0  0  0  0  0  0  0
  1  2  1  0  0  0  0
  1 19  1  0  0  0  0
  1 20  1  0  0  0  0
  1 21  1  0  0  0  0
  2  3  1  0  0  0  0
  2  4  1  0  0  0  0
  2 22  1  0  0  0  0
  3 23  1  0  0  0  0
  3 24  1  0  0  0  0
  3 25  1  0  0  0  0
  4  8  1  0  0  0  0
  4  5  2  0  0  0  0
  5  6  1  0  0  0  0
  5 37  1  0  0  0  0
  6  7  2  0  0  0  0
  6 26  1  0  0  0  0
  7  8  1  0  0  0  0
  7 27  1  0  0  0  0
  8  9  1  0  0  0  0
  9 10  1  0  0  0  0
  9 28  1  0  0  0  0
  9 29  1  0  0  0  0
 10 11  2  0  0  0  0
 10 12  1  0  0  0  0
 12 13  1  0  0  0  0
 12 30  1  0  0  0  0
 13 14  2  0  0  0  0
 13 15  1  0  0  0  0
 15 16  1  0  0  0  0
 15 31  1  0  0  0  0
 16 18  1  0  0  0  0
 16 17  1  0  0  0  0
 16 32  1  0  0  0  0
 17 18  1  0  0  0  0
 17 33  1  0  0  0  0
 17 34  1  0  0  0  0
 18 35  1  0  0  0  0
 18 36  1  0  0  0  0
M  CHG  1   5   1
M  END
> <s_m_source_file>
AV-unprocessed.smi

> <i_m_source_file_index>
2503

> <i_lp_mmshare_version>
43012

> <i_f3d_flags>
0

> <s_epik_input>
W0NIM11bQ0hdKFtDSDNdKWMxbltjSF1bY0hdbjFbQ0gyXUMoPU8pW05IXUMoPU8pW05IXVtDSF0yW0NIMl1bQ0gyXTI=

> <s_epik_cmdline>
J2VwaWtfcHl0aG9uJywgJy1waCcsICc3LjAnLCAnLXRuJywgJzgnLCAnLW1hJywgJzIwMCcsICctbWV0YWxfYmluZGluZycsICctaW1hZScsICc8aW5maWxlLm1hZT4nLCAnLW9tYWUnLCAnPG91dGZpbGUubWFlPic=

> <r_lp_tautomer_probability>
1

> <r_epik_Ionization_Penalty>
0.381304

> <r_epik_Ionization_Penalty_Charging>
0

> <r_epik_Ionization_Penalty_Neutral>
0.381304

> <r_epik_State_Penalty>
0.37936

> <r_epik_Charging_Adjusted_Penalty>
0.37936

> <i_epik_Tot_Q>
1

> <i_epik_Tot_abs_Q>
1

> <r_epik_Metal_State_Penalty>
0.628559

> <b_epik_Metal_Only>
0

> <s_lp_Force_Field>
OPLS_2005

> <r_lp_Energy>
25.6891

> <b_lp_Chiralities_Consistent>
1

> <s_lp_Variant>
AV-unprocessed.smi:2503-1

> <Gold.Version>
5.8.1

> <Gold.Id.Protein>
6NUR|6NUR_protein|mol2

> <Gold.PLP.Fitness>
47.3350

> <Gold.PLP.PLP>
-36.2373

> <Gold.PLP.part.hbond>
-3.0000

> <Gold.PLP.part.metal>
0.0000

> <Gold.PLP.part.buried>
-0.4147

> <Gold.PLP.part.nonpolar>
-32.8440

> <Gold.PLP.part.repulsive>
0.2528

> <Gold.PLP.ligand.clash>
0.0000

> <Gold.PLP.ligand.torsion>
0.6008

> <Gold.PLP.Chemscore.Hbond>
4.0000

> <Gold.PLP.Chemscore.CHOScore>
0.0691

> <Gold.PLP.Chemscore.Metal>
0.0000

> <Gold.Chemscore.Hbonds>
donor molecule, donor type, donor heavy atom, donor atom, acceptor molecule, acceptor atom, score
      L1  H     5    37       P1 10175  2.00
      P1  H  7989  7998       L1    11  1.00
      P1  H  7997  8008       L1    14  1.00
      L1  C     7    27       P1  7957  0.09

> <Gold.PLP.Chemscore.Internal.Correction>
0.0920

> <Gold.Rescore>
     Score         DG    S(hbond)    S(metal)    S(lipo)     H(rot)  DE(clash)    DE(int)     intcor
     14.39     -18.26       2.84        0.00      68.08       1.82       0.73       3.14       ----

> <Gold.Chemscore.Fitness>
14.3931

> <Gold.Chemscore.DG>
-18.2565

> <Gold.Chemscore.ZeroCoef>
-5.4800

> <Gold.Chemscore.Hbond>
2.8369

> <Gold.Chemscore.Metal>
0.0000

> <Gold.Chemscore.Lipo>
68.0808

> <Gold.Chemscore.Internal_Hbond>
0.0000

> <Gold.Chemscore.DEClash>
0.7274

> <Gold.Chemscore.DEInternal>
3.1360

> <Gold.Chemscore.Rot>
1.8220

> <Gold.Chemscore.Internal.Correction>
   9.000000E+99

> <Gold.Chemscore.Hbonds>
donor molecule, donor type, donor heavy atom, donor atom, acceptor molecule, acceptor atom, score
      L1  H     5    37       P1 10175  0.88
      P1  H  7989  7998       L1    11  0.93
      P1  H  7997  8008       L1    14  0.94

> <Gold.Chemscore.Hbond.Weighted>
-9.4754

> <Gold.Chemscore.Metal.Weighted>
-0.0000

> <Gold.Chemscore.Lipo.Weighted>
-7.9655

> <Gold.Chemscore.Internal_Hbond.Weighted>
0.0000

> <Gold.Chemscore.DEClash.Weighted>
0.7274

> <Gold.Chemscore.DEInternal.Weighted>
3.1360

> <Gold.Chemscore.Rot.Weighted>
4.6643

> <Gold.Chemscore.Internal.Correction.Weighted>
   9.000000E+99

> <Gold.Protein.RotatedTorsions>
[ 6907 6896 6895 6894 ] final -114.50 input  -60.11 | X-H torsion
[ 7974 7965 7964 7962 ] final  166.04 input  175.53 | X-H torsion
[ 8008 7997 7996 7995 ] final  -55.54 input   59.86 | X-H torsion
[ 10167 10162 10161 10158 ] final  -30.93 input  -65.29 | X-H torsion
[ 10718 10713 10712 10709 ] final  166.15 input   66.30 | X-H torsion
[ 10763 10752 10751 10750 ] final   11.56 input  -60.55 | X-H torsion
[ 11005 11000 10999 10996 ] final  -60.29 input  -57.11 | X-H torsion

> <Gold.Protein.ActiveResidues>
 VAL166  LYS551  ARG553  GLY616  TRP617  ASP618  TYR619  PRO620  LYS621  CYS622 
 ASP623  PHE694  ASN695  SER759  ASP760  ASP761  ALA762  ILE779  LEU786  VAL792 
 PHE793  MET794  SER795  GLU796  ALA797  LYS798  CYS799  TRP800  GLU811  SER814 

> <Gold.Protein.RotatedAtoms>
  150.7907  133.8792  159.3280 H   0  0  0  0  0  0  0  0  0  0  0  0  # atno 6907 bound_to 6896
  151.6630  135.0985  160.0193 H   0  0  0  0  0  0  0  0  0  0  0  0  # atno 6908 bound_to 6896
  152.3980  133.6737  159.6328 H   0  0  0  0  0  0  0  0  0  0  0  0  # atno 6909 bound_to 6896
  144.7478  139.8558  143.6376 H   0  0  0  0  0  0  0  0  0  0  0  0  # atno 7974 bound_to 7965
  154.4198  140.1150  156.5493 H   0  0  0  0  0  0  0  0  0  0  0  0  # atno 8008 bound_to 7997
  155.6427  140.3496  155.4701 H   0  0  0  0  0  0  0  0  0  0  0  0  # atno 8009 bound_to 7997
  155.9858  140.1169  157.0674 H   0  0  0  0  0  0  0  0  0  0  0  0  # atno 8010 bound_to 7997
  140.7243  143.3810  151.1601 H   0  0  0  0  0  0  0  0  0  0  0  0  # atno 10167 bound_to 10162
  157.0700  131.0363  151.2615 H   0  0  0  0  0  0  0  0  0  0  0  0  # atno 10718 bound_to 10713
  153.1913  135.6842  153.8349 H   0  0  0  0  0  0  0  0  0  0  0  0  # atno 10763 bound_to 10752
  153.7647  135.3204  155.3344 H   0  0  0  0  0  0  0  0  0  0  0  0  # atno 10764 bound_to 10752
  154.8119  135.4712  154.0637 H   0  0  0  0  0  0  0  0  0  0  0  0  # atno 10765 bound_to 10752
  141.1281  133.6621  156.5201 H   0  0  0  0  0  0  0  0  0  0  0  0  # atno 11005 bound_to 11000
  146.1384  139.4435  143.0124 LP  0  0  0  0  0  0  0  0  0  0  0  0  # atno 17320 bound_to 7965
  145.7056  141.0122  143.1480 LP  0  0  0  0  0  0  0  0  0  0  0  0  # atno 17321 bound_to 7965
  139.7399  143.8941  152.3046 LP  0  0  0  0  0  0  0  0  0  0  0  0  # atno 17342 bound_to 10162
  139.8759  144.7044  150.8934 LP  0  0  0  0  0  0  0  0  0  0  0  0  # atno 17343 bound_to 10162
  157.4886  130.7808  149.7485 LP  0  0  0  0  0  0  0  0  0  0  0  0  # atno 17370 bound_to 10713
  155.9953  130.3912  150.2823 LP  0  0  0  0  0  0  0  0  0  0  0  0  # atno 17371 bound_to 10713
  140.4299  134.7111  157.4936 LP  0  0  0  0  0  0  0  0  0  0  0  0  # atno 17394 bound_to 11000
  140.0301  134.6419  155.9119 LP  0  0  0  0  0  0  0  0  0  0  0  0  # atno 17395 bound_to 11000

$$$$
