AV-unprocessed.smi:1840|AV-procd|sdf|7492|dock3
  -GOLD-   22720 9193D 1   1.00000     0.00000
 Structure written by MMmdl.
 43 44  0  0  0  0  0  0  0  0  1 V2000
  151.7696  145.2845  158.6968 C   0  0  0  0  0  0  0  0  0  0  0  0
  150.9825  144.0437  159.1384 C   0  0  2  0  0  0  0  0  0  0  0  0
  151.9088  142.8215  159.3211 C   0  0  0  0  0  0  0  0  0  0  0  0
  152.5038  142.7638  160.6462 N   0  0  0  0  0  0  0  0  0  0  0  0
  153.4780  141.9059  161.1116 C   0  0  0  0  0  0  0  0  0  0  0  0
  153.7393  142.2525  162.4064 C   0  0  0  0  0  0  0  0  0  0  0  0
  152.8619  143.3463  162.6480 C   0  0  0  0  0  0  0  0  0  0  0  0
  152.1197  143.6468  161.5948 N   0  0  0  0  0  0  0  0  0  0  0  0
  149.9432  143.7569  158.1505 N   0  0  0  0  0  0  0  0  0  0  0  0
  148.9273  142.8987  158.3227 C   0  0  0  0  0  0  0  0  0  0  0  0
  148.6718  142.3306  159.3848 O   0  0  0  0  0  0  0  0  0  0  0  0
  148.2563  142.6932  157.1820 N   0  0  0  0  0  0  0  0  0  0  0  0
  147.1807  141.7187  156.9968 C   0  0  2  0  0  0  0  0  0  0  0  0
  147.4068  140.8779  155.7189 C   0  0  0  0  0  0  0  0  0  0  0  0
  147.2390  141.7142  154.4393 C   0  0  0  0  0  0  0  0  0  0  0  0
  145.8657  142.4017  154.4054 C   0  0  0  0  0  0  0  0  0  0  0  0
  145.6310  143.2505  155.6659 C   0  0  0  0  0  0  0  0  0  0  0  0
  145.7989  142.4173  156.9546 C   0  0  2  0  0  0  0  0  0  0  0  0
  145.5155  143.2566  158.2124 C   0  0  0  0  0  0  0  0  0  0  0  0
  152.5362  145.5418  159.4279 H   0  0  0  0  0  0  0  0  0  0  0  0
  151.1132  146.1491  158.5916 H   0  0  0  0  0  0  0  0  0  0  0  0
  152.2647  145.1222  157.7387 H   0  0  0  0  0  0  0  0  0  0  0  0
  150.5251  144.2783  160.1014 H   0  0  0  0  0  0  0  0  0  0  0  0
  151.3621  141.8953  159.1343 H   0  0  0  0  0  0  0  0  0  0  0  0
  152.7194  142.8548  158.5924 H   0  0  0  0  0  0  0  0  0  0  0  0
  153.9060  141.1364  160.4861 H   0  0  0  0  0  0  0  0  0  0  0  0
  154.4522  141.7968  163.0775 H   0  0  0  0  0  0  0  0  0  0  0  0
  152.7436  143.9274  163.5508 H   0  0  0  0  0  0  0  0  0  0  0  0
  150.0618  144.1706  157.2373 H   0  0  0  0  0  0  0  0  0  0  0  0
  148.5472  143.2053  156.3621 H   0  0  0  0  0  0  0  0  0  0  0  0
  147.1905  141.0448  157.8555 H   0  0  0  0  0  0  0  0  0  0  0  0
  148.3932  140.4125  155.7303 H   0  0  0  0  0  0  0  0  0  0  0  0
  146.6905  140.0555  155.7025 H   0  0  0  0  0  0  0  0  0  0  0  0
  148.0288  142.4643  154.3815 H   0  0  0  0  0  0  0  0  0  0  0  0
  147.3571  141.0771  153.5624 H   0  0  0  0  0  0  0  0  0  0  0  0
  145.7854  143.0270  153.5157 H   0  0  0  0  0  0  0  0  0  0  0  0
  145.0826  141.6468  154.3239 H   0  0  0  0  0  0  0  0  0  0  0  0
  146.3254  144.0916  155.6722 H   0  0  0  0  0  0  0  0  0  0  0  0
  144.6299  143.6814  155.6304 H   0  0  0  0  0  0  0  0  0  0  0  0
  145.0439  141.6297  156.9285 H   0  0  0  0  0  0  0  0  0  0  0  0
  146.1930  144.1069  158.2934 H   0  0  0  0  0  0  0  0  0  0  0  0
  145.6237  142.6564  159.1163 H   0  0  0  0  0  0  0  0  0  0  0  0
  144.4979  143.6483  158.1990 H   0  0  0  0  0  0  0  0  0  0  0  0
  1  2  1  0  0  0  0
  1 20  1  0  0  0  0
  1 21  1  0  0  0  0
  1 22  1  0  0  0  0
  2  3  1  0  0  0  0
  2  9  1  0  0  0  0
  2 23  1  0  0  0  0
  3  4  1  0  0  0  0
  3 24  1  0  0  0  0
  3 25  1  0  0  0  0
  4  8  1  0  0  0  0
  4  5  1  0  0  0  0
  5  6  2  0  0  0  0
  5 26  1  0  0  0  0
  6  7  1  0  0  0  0
  6 27  1  0  0  0  0
  7  8  2  0  0  0  0
  7 28  1  0  0  0  0
  9 10  1  0  0  0  0
  9 29  1  0  0  0  0
 10 11  2  0  0  0  0
 10 12  1  0  0  0  0
 12 13  1  0  0  0  0
 12 30  1  0  0  0  0
 13 18  1  0  0  0  0
 13 14  1  0  0  0  0
 13 31  1  0  0  0  0
 14 15  1  0  0  0  0
 14 32  1  0  0  0  0
 14 33  1  0  0  0  0
 15 16  1  0  0  0  0
 15 34  1  0  0  0  0
 15 35  1  0  0  0  0
 16 17  1  0  0  0  0
 16 36  1  0  0  0  0
 16 37  1  0  0  0  0
 17 18  1  0  0  0  0
 17 38  1  0  0  0  0
 17 39  1  0  0  0  0
 18 19  1  0  0  0  0
 18 40  1  0  0  0  0
 19 41  1  0  0  0  0
 19 42  1  0  0  0  0
 19 43  1  0  0  0  0
M  END
> <s_m_source_file>
AV-unprocessed.smi

> <i_m_source_file_index>
1840

> <i_lp_mmshare_version>
43012

> <i_f3d_flags>
0

> <s_epik_input>
bjFbY0hdW2NIXVtjSF1uMVtDSDJdW0NAQEhdKFtDSDNdKVtOSF1DKD1PKVtOSF1bQ0BASF0yW0NIMl1bQ0gyXVtDSDJdW0NIMl1bQ0BIXTJbQ0gzXQ==

> <s_epik_cmdline>
J2VwaWtfcHl0aG9uJywgJy1waCcsICc3LjAnLCAnLXRuJywgJzgnLCAnLW1hJywgJzIwMCcsICctbWV0YWxfYmluZGluZycsICctaW1hZScsICc8aW5maWxlLm1hZT4nLCAnLW9tYWUnLCAnPG91dGZpbGUubWFlPic=

> <r_lp_tautomer_probability>
1

> <r_epik_Ionization_Penalty>
7.38659e-05

> <r_epik_Ionization_Penalty_Charging>
0

> <r_epik_Ionization_Penalty_Neutral>
7.38659e-05

> <r_epik_State_Penalty>
-0

> <r_epik_Charging_Adjusted_Penalty>
0

> <i_epik_Tot_Q>
0

> <i_epik_Tot_abs_Q>
0

> <r_epik_Metal_State_Penalty>
-0

> <b_epik_Metal_Only>
0

> <s_lp_Force_Field>
OPLS_2005

> <r_lp_Energy>
6.60397

> <b_lp_Chiralities_Consistent>
1

> <s_lp_Variant>
AV-unprocessed.smi:1840-5

> <Gold.Version>
5.8.1

> <Gold.Id.Protein>
6NUR|6NUR_protein|mol2

> <Gold.PLP.Fitness>
42.9785

> <Gold.PLP.PLP>
-38.4194

> <Gold.PLP.part.hbond>
-5.4867

> <Gold.PLP.part.metal>
0.0000

> <Gold.PLP.part.buried>
-0.6298

> <Gold.PLP.part.nonpolar>
-32.1259

> <Gold.PLP.part.repulsive>
0.2920

> <Gold.PLP.ligand.clash>
0.0000

> <Gold.PLP.ligand.torsion>
0.6324

> <Gold.PLP.Chemscore.Hbond>
1.9360

> <Gold.PLP.Chemscore.CHOScore>
0.0000

> <Gold.PLP.Chemscore.Metal>
0.0000

> <Gold.Chemscore.Hbonds>
donor molecule, donor type, donor heavy atom, donor atom, acceptor molecule, acceptor atom, score
      L1  H     9    29       P1  8028  0.77
      L1  H    12    30       P1  8028  0.94
      P1  H  6933  6944       L1    11  0.13

> <Gold.PLP.Chemscore.Internal.Correction>
0.0159

> <Gold.Rescore>
     Score         DG    S(hbond)    S(metal)    S(lipo)     H(rot)  DE(clash)    DE(int)     intcor
     16.24     -17.33       1.50        0.00      92.44       1.56       0.73       0.36       ----

> <Gold.Chemscore.Fitness>
16.2390

> <Gold.Chemscore.DG>
-17.3269

> <Gold.Chemscore.ZeroCoef>
-5.4800

> <Gold.Chemscore.Hbond>
1.5028

> <Gold.Chemscore.Metal>
0.0000

> <Gold.Chemscore.Lipo>
92.4362

> <Gold.Chemscore.Internal_Hbond>
0.0000

> <Gold.Chemscore.DEClash>
0.7295

> <Gold.Chemscore.DEInternal>
0.3585

> <Gold.Chemscore.Rot>
1.5576

> <Gold.Chemscore.Internal.Correction>
   9.000000E+99

> <Gold.Chemscore.Hbonds>
donor molecule, donor type, donor heavy atom, donor atom, acceptor molecule, acceptor atom, score
      L1  H     9    29       P1  8028  0.53
      L1  H    12    30       P1  8028  0.78
      P1  H  6933  6944       L1    11  0.13

> <Gold.Chemscore.Hbond.Weighted>
-5.0194

> <Gold.Chemscore.Metal.Weighted>
-0.0000

> <Gold.Chemscore.Lipo.Weighted>
-10.8150

> <Gold.Chemscore.Internal_Hbond.Weighted>
0.0000

> <Gold.Chemscore.DEClash.Weighted>
0.7295

> <Gold.Chemscore.DEInternal.Weighted>
0.3585

> <Gold.Chemscore.Rot.Weighted>
3.9875

> <Gold.Chemscore.Internal.Correction.Weighted>
   9.000000E+99

> <Gold.Protein.RotatedTorsions>
[ 6907 6896 6895 6894 ] final  -47.53 input  -60.11 | X-H torsion
[ 7974 7965 7964 7962 ] final   98.08 input  175.53 | X-H torsion
[ 8008 7997 7996 7995 ] final   -7.01 input   59.86 | X-H torsion
[ 10167 10162 10161 10158 ] final  -59.17 input  -65.29 | X-H torsion
[ 10718 10713 10712 10709 ] final   63.08 input   66.30 | X-H torsion
[ 10763 10752 10751 10750 ] final -160.81 input  -60.55 | X-H torsion
[ 11005 11000 10999 10996 ] final   88.38 input  -57.11 | X-H torsion

> <Gold.Protein.ActiveResidues>
 VAL166  LYS551  ARG553  GLY616  TRP617  ASP618  TYR619  PRO620  LYS621  CYS622 
 ASP623  PHE694  ASN695  SER759  ASP760  ASP761  ALA762  ILE779  LEU786  VAL792 
 PHE793  MET794  SER795  GLU796  ALA797  LYS798  CYS799  TRP800  GLU811  SER814 

> <Gold.Protein.RotatedAtoms>
  150.8998  134.8410  159.7352 H   0  0  0  0  0  0  0  0  0  0  0  0  # atno 6907 bound_to 6896
  152.4886  134.4519  159.9587 H   0  0  0  0  0  0  0  0  0  0  0  0  # atno 6908 bound_to 6896
  151.4572  133.3563  159.2839 H   0  0  0  0  0  0  0  0  0  0  0  0  # atno 6909 bound_to 6896
  145.4169  139.2326  143.3217 H   0  0  0  0  0  0  0  0  0  0  0  0  # atno 7974 bound_to 7965
  154.5881  140.2418  155.7959 H   0  0  0  0  0  0  0  0  0  0  0  0  # atno 8008 bound_to 7997
  156.2227  140.2992  155.9947 H   0  0  0  0  0  0  0  0  0  0  0  0  # atno 8009 bound_to 7997
  155.2423  140.0407  157.2967 H   0  0  0  0  0  0  0  0  0  0  0  0  # atno 8010 bound_to 7997
  140.6151  143.2400  151.5616 H   0  0  0  0  0  0  0  0  0  0  0  0  # atno 10167 bound_to 10162
  157.5946  130.9085  149.9670 H   0  0  0  0  0  0  0  0  0  0  0  0  # atno 10718 bound_to 10713
  154.7358  135.3057  154.8813 H   0  0  0  0  0  0  0  0  0  0  0  0  # atno 10763 bound_to 10752
  153.9643  135.6749  153.4750 H   0  0  0  0  0  0  0  0  0  0  0  0  # atno 10764 bound_to 10752
  153.0961  135.4935  154.8704 H   0  0  0  0  0  0  0  0  0  0  0  0  # atno 10765 bound_to 10752
  139.8898  134.8484  156.2992 H   0  0  0  0  0  0  0  0  0  0  0  0  # atno 11005 bound_to 11000
  146.2676  140.4888  142.8827 LP  0  0  0  0  0  0  0  0  0  0  0  0  # atno 17320 bound_to 7965
  144.8271  140.6647  143.6315 LP  0  0  0  0  0  0  0  0  0  0  0  0  # atno 17321 bound_to 7965
  139.5392  144.2694  152.1316 LP  0  0  0  0  0  0  0  0  0  0  0  0  # atno 17342 bound_to 10162
  140.1902  144.4759  150.6483 LP  0  0  0  0  0  0  0  0  0  0  0  0  # atno 17343 bound_to 10162
  156.1006  130.3656  150.0224 LP  0  0  0  0  0  0  0  0  0  0  0  0  # atno 17370 bound_to 10713
  156.8340  130.9402  151.3635 LP  0  0  0  0  0  0  0  0  0  0  0  0  # atno 17371 bound_to 10713
  140.9925  133.7200  156.0835 LP  0  0  0  0  0  0  0  0  0  0  0  0  # atno 17394 bound_to 11000
  140.7606  134.3943  157.5526 LP  0  0  0  0  0  0  0  0  0  0  0  0  # atno 17395 bound_to 11000

$$$$
