AV-unprocessed.smi:1216|AV-procd|sdf|5100|dock7
  -GOLD-   22720 4153D 1   1.00000     0.00000
 Structure written by MMmdl.
 42 43  0  0  0  0  0  0  0  0  1 V2000
  147.3606  131.8140  152.9472 C   0  0  0  0  0  0  0  0  0  0  0  0
  147.0660  133.3183  153.0136 C   0  0  2  0  0  0  0  0  0  0  0  0
  146.6158  133.8636  151.6407 C   0  0  0  0  0  0  0  0  0  0  0  0
  145.5421  133.0847  151.0497 N   0  0  0  0  0  0  0  0  0  0  0  0
  144.1974  133.4248  150.9824 C   0  0  0  0  0  0  0  0  0  0  0  0
  143.5636  132.3941  150.3256 C   0  0  0  0  0  0  0  0  0  0  0  0
  144.4909  131.4103  149.9912 N   0  0  0  0  0  0  0  0  0  0  0  0
  145.6383  131.8867  150.4569 C   0  0  0  0  0  0  0  0  0  0  0  0
  148.2618  134.0167  153.4838 N   0  0  0  0  0  0  0  0  0  0  0  0
  148.8730  133.8133  154.6617 C   0  0  0  0  0  0  0  0  0  0  0  0
  148.5152  132.9587  155.4732 O   0  0  0  0  0  0  0  0  0  0  0  0
  150.0774  134.7104  154.9677 C   0  0  0  0  0  0  0  0  0  0  0  0
  149.7070  136.1329  154.9933 N   0  0  0  0  0  0  0  0  0  0  0  0
  148.3023  136.4484  155.3001 C   0  0  0  0  0  0  0  0  0  0  0  0
  148.1013  137.1510  156.6627 C   0  0  0  0  0  0  0  0  0  0  0  0
  149.2626  138.0400  157.1496 C   0  0  0  0  0  0  0  0  0  0  0  0
  149.7519  139.0914  156.1319 C   0  0  0  0  0  0  0  0  0  0  0  0
  150.1484  138.5655  154.7316 C   0  0  0  0  0  0  0  0  0  0  0  0
  150.6153  137.1010  154.7121 C   0  0  0  0  0  0  0  0  0  0  0  0
  151.7922  136.8589  154.4419 O   0  0  0  0  0  0  0  0  0  0  0  0
  146.4802  131.2560  152.6269 H   0  0  0  0  0  0  0  0  0  0  0  0
  147.6564  131.4275  153.9232 H   0  0  0  0  0  0  0  0  0  0  0  0
  148.1655  131.5968  152.2443 H   0  0  0  0  0  0  0  0  0  0  0  0
  146.2520  133.4544  153.7281 H   0  0  0  0  0  0  0  0  0  0  0  0
  146.2913  134.9016  151.7288 H   0  0  0  0  0  0  0  0  0  0  0  0
  147.4535  133.8571  150.9425 H   0  0  0  0  0  0  0  0  0  0  0  0
  143.8154  134.3504  151.3867 H   0  0  0  0  0  0  0  0  0  0  0  0
  142.5195  132.2854  150.0713 H   0  0  0  0  0  0  0  0  0  0  0  0
  146.5731  131.3554  150.3552 H   0  0  0  0  0  0  0  0  0  0  0  0
  148.6326  134.7365  152.8804 H   0  0  0  0  0  0  0  0  0  0  0  0
  150.4969  134.4105  155.9286 H   0  0  0  0  0  0  0  0  0  0  0  0
  150.8725  134.5378  154.2397 H   0  0  0  0  0  0  0  0  0  0  0  0
  147.8916  137.0659  154.5009 H   0  0  0  0  0  0  0  0  0  0  0  0
  147.6907  135.5458  155.2725 H   0  0  0  0  0  0  0  0  0  0  0  0
  147.1829  137.7378  156.6229 H   0  0  0  0  0  0  0  0  0  0  0  0
  147.9287  136.3882  157.4226 H   0  0  0  0  0  0  0  0  0  0  0  0
  148.9539  138.5504  158.0624 H   0  0  0  0  0  0  0  0  0  0  0  0
  150.0993  137.4079  157.4500 H   0  0  0  0  0  0  0  0  0  0  0  0
  148.9794  139.8514  156.0098 H   0  0  0  0  0  0  0  0  0  0  0  0
  150.6068  139.6117  156.5649 H   0  0  0  0  0  0  0  0  0  0  0  0
  149.3160  138.6795  154.0376 H   0  0  0  0  0  0  0  0  0  0  0  0
  150.9378  139.1973  154.3220 H   0  0  0  0  0  0  0  0  0  0  0  0
  1  2  1  0  0  0  0
  1 21  1  0  0  0  0
  1 22  1  0  0  0  0
  1 23  1  0  0  0  0
  2  3  1  0  0  0  0
  2  9  1  0  0  0  0
  2 24  1  0  0  0  0
  3  4  1  0  0  0  0
  3 25  1  0  0  0  0
  3 26  1  0  0  0  0
  4  8  1  0  0  0  0
  4  5  1  0  0  0  0
  5  6  2  0  0  0  0
  5 27  1  0  0  0  0
  6  7  1  0  0  0  0
  6 28  1  0  0  0  0
  7  8  2  0  0  0  0
  8 29  1  0  0  0  0
  9 10  1  0  0  0  0
  9 30  1  0  0  0  0
 10 11  2  0  0  0  0
 10 12  1  0  0  0  0
 12 13  1  0  0  0  0
 12 31  1  0  0  0  0
 12 32  1  0  0  0  0
 13 19  1  0  0  0  0
 13 14  1  0  0  0  0
 14 15  1  0  0  0  0
 14 33  1  0  0  0  0
 14 34  1  0  0  0  0
 15 16  1  0  0  0  0
 15 35  1  0  0  0  0
 15 36  1  0  0  0  0
 16 17  1  0  0  0  0
 16 37  1  0  0  0  0
 16 38  1  0  0  0  0
 17 18  1  0  0  0  0
 17 39  1  0  0  0  0
 17 40  1  0  0  0  0
 18 19  1  0  0  0  0
 18 41  1  0  0  0  0
 18 42  1  0  0  0  0
 19 20  2  0  0  0  0
M  END
> <s_m_source_file>
AV-unprocessed.smi

> <i_m_source_file_index>
1216

> <i_lp_mmshare_version>
43012

> <i_f3d_flags>
0

> <s_epik_input>
W2NIXTFuW2NIXVtjSF1uMVtDSDJdW0NAQEhdKFtDSDNdKVtOSF1DKD1PKVtDSDJdTjJbQ0gyXVtDSDJdW0NIMl1bQ0gyXVtDSDJdQzI9Tw==

> <s_epik_cmdline>
J2VwaWtfcHl0aG9uJywgJy1waCcsICc3LjAnLCAnLXRuJywgJzgnLCAnLW1hJywgJzIwMCcsICctbWV0YWxfYmluZGluZycsICctaW1hZScsICc8aW5maWxlLm1hZT4nLCAnLW9tYWUnLCAnPG91dGZpbGUubWFlPic=

> <r_lp_tautomer_probability>
1

> <r_epik_Ionization_Penalty>
0.623868

> <r_epik_Ionization_Penalty_Charging>
0.623868

> <r_epik_Ionization_Penalty_Neutral>
4.50838e-08

> <r_epik_State_Penalty>
0.640129

> <r_epik_Charging_Adjusted_Penalty>
1.264

> <i_epik_Tot_Q>
0

> <i_epik_Tot_abs_Q>
0

> <r_epik_Metal_State_Penalty>
0.307431

> <b_epik_Metal_Only>
0

> <s_lp_Force_Field>
OPLS_2005

> <r_lp_Energy>
19.0473

> <b_lp_Chiralities_Consistent>
1

> <s_lp_Variant>
AV-unprocessed.smi:1216-3

> <Gold.Version>
5.8.1

> <Gold.Id.Protein>
6NUR|6NUR_protein|mol2

> <Gold.PLP.Fitness>
43.2738

> <Gold.PLP.PLP>
-30.1464

> <Gold.PLP.part.hbond>
-3.0000

> <Gold.PLP.part.metal>
0.0000

> <Gold.PLP.part.buried>
-4.1266

> <Gold.PLP.part.nonpolar>
-24.5532

> <Gold.PLP.part.repulsive>
0.3546

> <Gold.PLP.ligand.clash>
0.0000

> <Gold.PLP.ligand.torsion>
0.6042

> <Gold.PLP.Chemscore.Hbond>
2.2912

> <Gold.PLP.Chemscore.CHOScore>
2.4764

> <Gold.PLP.Chemscore.Metal>
0.0000

> <Gold.Chemscore.Hbonds>
donor molecule, donor type, donor heavy atom, donor atom, acceptor molecule, acceptor atom, score
      L1  H     9    30       P1  7948  0.95
      P1  H 10752 10763       L1    20  1.00
      P1  H 10785 10796       L1     7  0.28
      L1  C     6    28       P1 10186  0.56
      L1  C     6    28       P1 10952  0.78
      L1  C     8    29       P1 10747  1.00

> <Gold.PLP.Chemscore.Internal.Correction>
0.0330

> <Gold.Rescore>
     Score         DG    S(hbond)    S(metal)    S(lipo)     H(rot)  DE(clash)    DE(int)     intcor
      9.96     -12.58       2.15        0.00      45.93       2.13       0.98       1.64       ----

> <Gold.Chemscore.Fitness>
9.9617

> <Gold.Chemscore.DG>
-12.5794

> <Gold.Chemscore.ZeroCoef>
-5.4800

> <Gold.Chemscore.Hbond>
2.1521

> <Gold.Chemscore.Metal>
0.0000

> <Gold.Chemscore.Lipo>
45.9313

> <Gold.Chemscore.Internal_Hbond>
0.0000

> <Gold.Chemscore.DEClash>
0.9819

> <Gold.Chemscore.DEInternal>
1.6358

> <Gold.Chemscore.Rot>
2.1338

> <Gold.Chemscore.Internal.Correction>
   9.000000E+99

> <Gold.Chemscore.Hbonds>
donor molecule, donor type, donor heavy atom, donor atom, acceptor molecule, acceptor atom, score
      L1  H     9    30       P1  7948  0.22
      P1  H 10752 10763       L1    20  0.99
      P1  H 10785 10796       L1     7  0.07

> <Gold.Chemscore.Hbond.Weighted>
-7.1879

> <Gold.Chemscore.Metal.Weighted>
-0.0000

> <Gold.Chemscore.Lipo.Weighted>
-5.3740

> <Gold.Chemscore.Internal_Hbond.Weighted>
0.0000

> <Gold.Chemscore.DEClash.Weighted>
0.9819

> <Gold.Chemscore.DEInternal.Weighted>
1.6358

> <Gold.Chemscore.Rot.Weighted>
5.4625

> <Gold.Chemscore.Internal.Correction.Weighted>
   9.000000E+99

> <Gold.Protein.RotatedTorsions>
[ 6907 6896 6895 6894 ] final   30.46 input  -60.11 | X-H torsion
[ 7974 7965 7964 7962 ] final  -47.11 input  175.53 | X-H torsion
[ 8008 7997 7996 7995 ] final -164.67 input   59.86 | X-H torsion
[ 10167 10162 10161 10158 ] final -113.75 input  -65.29 | X-H torsion
[ 10718 10713 10712 10709 ] final  105.90 input   66.30 | X-H torsion
[ 10763 10752 10751 10750 ] final   50.69 input  -60.55 | X-H torsion
[ 11005 11000 10999 10996 ] final   41.78 input  -57.11 | X-H torsion

> <Gold.Protein.ActiveResidues>
 VAL166  LYS551  ARG553  GLY616  TRP617  ASP618  TYR619  PRO620  LYS621  CYS622 
 ASP623  PHE694  ASN695  SER759  ASP760  ASP761  ALA762  ILE779  LEU786  VAL792 
 PHE793  MET794  SER795  GLU796  ALA797  LYS798  CYS799  TRP800  GLU811  SER814 

> <Gold.Protein.RotatedAtoms>
  152.0463  134.9681  160.0574 H   0  0  0  0  0  0  0  0  0  0  0  0  # atno 6907 bound_to 6896
  152.1100  133.4291  159.4635 H   0  0  0  0  0  0  0  0  0  0  0  0  # atno 6908 bound_to 6896
  150.6843  134.2578  159.4580 H   0  0  0  0  0  0  0  0  0  0  0  0  # atno 6909 bound_to 6896
  145.9650  140.7441  142.9439 H   0  0  0  0  0  0  0  0  0  0  0  0  # atno 7974 bound_to 7965
  155.8389  140.0945  157.1747 H   0  0  0  0  0  0  0  0  0  0  0  0  # atno 8008 bound_to 7997
  154.3981  140.1405  156.3765 H   0  0  0  0  0  0  0  0  0  0  0  0  # atno 8009 bound_to 7997
  155.8086  140.3450  155.5447 H   0  0  0  0  0  0  0  0  0  0  0  0  # atno 8010 bound_to 7997
  140.1084  143.4549  152.1768 H   0  0  0  0  0  0  0  0  0  0  0  0  # atno 10167 bound_to 10162
  157.6688  131.0838  150.5926 H   0  0  0  0  0  0  0  0  0  0  0  0  # atno 10718 bound_to 10713
  152.9784  135.5870  154.4293 H   0  0  0  0  0  0  0  0  0  0  0  0  # atno 10763 bound_to 10752
  154.3908  135.2768  155.2158 H   0  0  0  0  0  0  0  0  0  0  0  0  # atno 10764 bound_to 10752
  154.4031  135.6099  153.5963 H   0  0  0  0  0  0  0  0  0  0  0  0  # atno 10765 bound_to 10752
  140.1801  134.4114  155.8205 H   0  0  0  0  0  0  0  0  0  0  0  0  # atno 11005 bound_to 11000
  144.6823  140.2653  143.7313 LP  0  0  0  0  0  0  0  0  0  0  0  0  # atno 17320 bound_to 7965
  145.7987  139.1955  143.2060 LP  0  0  0  0  0  0  0  0  0  0  0  0  # atno 17321 bound_to 7965
  139.5633  144.7419  151.4094 LP  0  0  0  0  0  0  0  0  0  0  0  0  # atno 17342 bound_to 10162
  140.6939  143.7795  150.7297 LP  0  0  0  0  0  0  0  0  0  0  0  0  # atno 17343 bound_to 10162
  156.6227  130.4410  149.5816 LP  0  0  0  0  0  0  0  0  0  0  0  0  # atno 17370 bound_to 10713
  156.2343  130.6813  151.1494 LP  0  0  0  0  0  0  0  0  0  0  0  0  # atno 17371 bound_to 10713
  141.2222  133.6996  156.7916 LP  0  0  0  0  0  0  0  0  0  0  0  0  # atno 17394 bound_to 11000
  140.2277  134.8709  157.3444 LP  0  0  0  0  0  0  0  0  0  0  0  0  # atno 17395 bound_to 11000

$$$$
