AV-unprocessed.smi:620|AV-procd|sdf|3088|dock4
  -GOLD-   22720 0 13D 1   1.00000     0.00000
 Structure written by MMmdl.
 32 34  0  0  0  0  0  0  0  0  2 V2000
  152.8167  143.5317  162.1461 C   0  0  0  0  0  0  0  0  0  0  0  0
  153.2562  142.4043  161.2763 C   0  0  0  0  0  0  0  0  0  0  0  0
  154.2741  141.6006  161.5875 N   0  0  0  0  0  0  0  0  0  0  0  0
  154.4874  140.6325  160.6185 N   0  0  0  0  0  0  0  0  0  0  0  0
  153.6313  140.7073  159.5824 C   0  0  0  0  0  0  0  0  0  0  0  0
  153.6093  139.8966  158.5003 N   0  5  0  0  0  0  0  0  0  0  0  0
  152.4925  139.3959  157.9121 C   0  0  0  0  0  0  0  0  0  0  0  0
  151.8911  138.3617  158.2081 O   0  0  0  0  0  0  0  0  0  0  0  0
  152.0472  140.1607  156.9034 N   0  0  0  0  0  0  0  0  0  0  0  0
  150.8809  139.9174  156.0576 C   0  0  0  0  0  0  0  0  0  0  0  0
  151.2046  138.9761  154.9118 C   0  0  0  0  0  0  0  0  0  0  0  0
  151.6050  137.5407  155.1587 C   0  0  0  0  0  0  0  0  0  0  0  0
  152.6236  138.5342  154.6462 C   0  0  0  0  0  0  0  0  0  0  0  0
  150.2874  141.2116  155.5315 C   0  0  0  0  0  0  0  0  0  0  0  0
  148.8312  141.5445  155.7498 C   0  0  0  0  0  0  0  0  0  0  0  0
  149.3339  141.2232  154.3601 C   0  0  0  0  0  0  0  0  0  0  0  0
  152.4728  142.0264  159.7533 S   0  0  0  0  0  0  0  0  0  0  0  0
  153.4315  143.5867  163.0452 H   0  0  0  0  0  0  0  0  0  0  0  0
  151.7772  143.3906  162.4419 H   0  0  0  0  0  0  0  0  0  0  0  0
  152.9033  144.4743  161.6057 H   0  0  0  0  0  0  0  0  0  0  0  0
  152.5759  140.9970  156.7037 H   0  0  0  0  0  0  0  0  0  0  0  0
  150.1000  139.4334  156.6466 H   0  0  0  0  0  0  0  0  0  0  0  0
  150.5925  139.1459  154.0276 H   0  0  0  0  0  0  0  0  0  0  0  0
  151.7083  137.2083  156.1896 H   0  0  0  0  0  0  0  0  0  0  0  0
  151.2377  136.7906  154.4615 H   0  0  0  0  0  0  0  0  0  0  0  0
  152.9352  138.4480  153.6072 H   0  0  0  0  0  0  0  0  0  0  0  0
  153.3946  138.8671  155.3384 H   0  0  0  0  0  0  0  0  0  0  0  0
  150.9747  142.0543  155.5840 H   0  0  0  0  0  0  0  0  0  0  0  0
  148.2113  140.7998  156.2455 H   0  0  0  0  0  0  0  0  0  0  0  0
  148.5817  142.5804  155.9698 H   0  0  0  0  0  0  0  0  0  0  0  0
  149.4189  142.0451  153.6525 H   0  0  0  0  0  0  0  0  0  0  0  0
  149.0377  140.2678  153.9318 H   0  0  0  0  0  0  0  0  0  0  0  0
  1  2  1  0  0  0  0
  1 18  1  0  0  0  0
  1 19  1  0  0  0  0
  1 20  1  0  0  0  0
  2 17  1  0  0  0  0
  2  3  2  0  0  0  0
  3  4  1  0  0  0  0
  4  5  2  0  0  0  0
  5  6  1  0  0  0  0
  5 17  1  0  0  0  0
  6  7  1  0  0  0  0
  7  8  2  0  0  0  0
  7  9  1  0  0  0  0
  9 10  1  0  0  0  0
  9 21  1  0  0  0  0
 10 11  1  0  0  0  0
 10 14  1  0  0  0  0
 10 22  1  0  0  0  0
 11 13  1  0  0  0  0
 11 12  1  0  0  0  0
 11 23  1  0  0  0  0
 12 13  1  0  0  0  0
 12 24  1  0  0  0  0
 12 25  1  0  0  0  0
 13 26  1  0  0  0  0
 13 27  1  0  0  0  0
 14 16  1  0  0  0  0
 14 15  1  0  0  0  0
 14 28  1  0  0  0  0
 15 16  1  0  0  0  0
 15 29  1  0  0  0  0
 15 30  1  0  0  0  0
 16 31  1  0  0  0  0
 16 32  1  0  0  0  0
M  CHG  1   6  -1
M  END
> <s_m_source_file>
AV-unprocessed.smi

> <i_m_source_file_index>
620

> <i_lp_mmshare_version>
43012

> <i_f3d_flags>
0

> <s_epik_input>
W0NIM11jMW5uYyhzMSlbTkhdQyg9TylbTkhdW0NIXShbQ0hdMltDSDJdW0NIMl0yKVtDSF0zW0NIMl1bQ0gyXTM=

> <s_epik_cmdline>
J2VwaWtfcHl0aG9uJywgJy1waCcsICc3LjAnLCAnLXRuJywgJzgnLCAnLW1hJywgJzIwMCcsICctbWV0YWxfYmluZGluZycsICctaW1hZScsICc8aW5maWxlLm1hZT4nLCAnLW9tYWUnLCAnPG91dGZpbGUubWFlPic=

> <r_lp_tautomer_probability>
1

> <r_epik_Ionization_Penalty>
4.60723

> <r_epik_Ionization_Penalty_Charging>
4.45392

> <r_epik_Ionization_Penalty_Neutral>
0.153307

> <r_epik_State_Penalty>
4.4536

> <r_epik_Charging_Adjusted_Penalty>
8.90752

> <i_epik_Tot_Q>
-1

> <i_epik_Tot_abs_Q>
1

> <r_epik_Metal_State_Penalty>
0.796734

> <b_epik_Metal_Only>
1

> <s_lp_Force_Field>
OPLS_2005

> <r_lp_Energy>
26.5225

> <b_lp_Chiralities_Consistent>
1

> <s_lp_Variant>
AV-unprocessed.smi:620-2

> <Gold.Version>
5.8.1

> <Gold.Id.Protein>
6NUR|6NUR_protein|mol2

> <Gold.PLP.Fitness>
38.1590

> <Gold.PLP.PLP>
-36.1914

> <Gold.PLP.part.hbond>
-2.0000

> <Gold.PLP.part.metal>
0.0000

> <Gold.PLP.part.buried>
-3.0666

> <Gold.PLP.part.nonpolar>
-30.6253

> <Gold.PLP.part.repulsive>
0.1256

> <Gold.PLP.ligand.clash>
0.0000

> <Gold.PLP.ligand.torsion>
3.0900

> <Gold.PLP.Chemscore.Hbond>
2.0000

> <Gold.PLP.Chemscore.CHOScore>
0.0000

> <Gold.PLP.Chemscore.Metal>
0.0000

> <Gold.Chemscore.Hbonds>
donor molecule, donor type, donor heavy atom, donor atom, acceptor molecule, acceptor atom, score
      P1  H  7997  8010       L1     6  1.98

> <Gold.PLP.Chemscore.Internal.Correction>
2.1475

> <Gold.Rescore>
     Score         DG    S(hbond)    S(metal)    S(lipo)     H(rot)  DE(clash)    DE(int)     intcor
     10.99     -14.12       0.78        0.00      82.47       1.41       0.05       3.07       ----

> <Gold.Chemscore.Fitness>
10.9938

> <Gold.Chemscore.DG>
-14.1158

> <Gold.Chemscore.ZeroCoef>
-5.4800

> <Gold.Chemscore.Hbond>
0.7796

> <Gold.Chemscore.Metal>
0.0000

> <Gold.Chemscore.Lipo>
82.4665

> <Gold.Chemscore.Internal_Hbond>
0.0000

> <Gold.Chemscore.DEClash>
0.0523

> <Gold.Chemscore.DEInternal>
3.0697

> <Gold.Chemscore.Rot>
1.4127

> <Gold.Chemscore.Internal.Correction>
   9.000000E+99

> <Gold.Chemscore.Hbonds>
donor molecule, donor type, donor heavy atom, donor atom, acceptor molecule, acceptor atom, score
      P1  H  7997  8010       L1     6  0.60

> <Gold.Chemscore.Hbond.Weighted>
-2.6037

> <Gold.Chemscore.Metal.Weighted>
-0.0000

> <Gold.Chemscore.Lipo.Weighted>
-9.6486

> <Gold.Chemscore.Internal_Hbond.Weighted>
0.0000

> <Gold.Chemscore.DEClash.Weighted>
0.0523

> <Gold.Chemscore.DEInternal.Weighted>
3.0697

> <Gold.Chemscore.Rot.Weighted>
3.6165

> <Gold.Chemscore.Internal.Correction.Weighted>
   9.000000E+99

> <Gold.Protein.RotatedTorsions>
[ 6907 6896 6895 6894 ] final -145.79 input  -60.11 | X-H torsion
[ 7974 7965 7964 7962 ] final  -47.36 input  175.53 | X-H torsion
[ 8008 7997 7996 7995 ] final   12.69 input   59.86 | X-H torsion
[ 10167 10162 10161 10158 ] final  -84.46 input  -65.29 | X-H torsion
[ 10718 10713 10712 10709 ] final   45.23 input   66.30 | X-H torsion
[ 10763 10752 10751 10750 ] final   68.95 input  -60.55 | X-H torsion
[ 11005 11000 10999 10996 ] final -147.63 input  -57.11 | X-H torsion

> <Gold.Protein.ActiveResidues>
 VAL166  LYS551  ARG553  GLY616  TRP617  ASP618  TYR619  PRO620  LYS621  CYS622 
 ASP623  PHE694  ASN695  SER759  ASP760  ASP761  ALA762  ILE779  LEU786  VAL792 
 PHE793  MET794  SER795  GLU796  ALA797  LYS798  CYS799  TRP800  GLU811  SER814 

> <Gold.Protein.RotatedAtoms>
  151.1327  133.5026  159.2598 H   0  0  0  0  0  0  0  0  0  0  0  0  # atno 6907 bound_to 6896
  151.1740  135.0330  159.8774 H   0  0  0  0  0  0  0  0  0  0  0  0  # atno 6908 bound_to 6896
  152.5460  134.1186  159.8442 H   0  0  0  0  0  0  0  0  0  0  0  0  # atno 6909 bound_to 6896
  145.9624  140.7466  142.9451 H   0  0  0  0  0  0  0  0  0  0  0  0  # atno 7974 bound_to 7965
  154.8241  140.2889  155.5766 H   0  0  0  0  0  0  0  0  0  0  0  0  # atno 8008 bound_to 7997
  156.3000  140.2544  156.3085 H   0  0  0  0  0  0  0  0  0  0  0  0  # atno 8009 bound_to 7997
  154.9305  140.0383  157.2035 H   0  0  0  0  0  0  0  0  0  0  0  0  # atno 8010 bound_to 7997
  140.4130  143.2615  151.8992 H   0  0  0  0  0  0  0  0  0  0  0  0  # atno 10167 bound_to 10162
  157.4353  130.8049  149.7642 H   0  0  0  0  0  0  0  0  0  0  0  0  # atno 10718 bound_to 10713
  153.0261  135.5228  154.7213 H   0  0  0  0  0  0  0  0  0  0  0  0  # atno 10763 bound_to 10752
  154.6267  135.2895  155.0266 H   0  0  0  0  0  0  0  0  0  0  0  0  # atno 10764 bound_to 10752
  154.1232  135.6604  153.4959 H   0  0  0  0  0  0  0  0  0  0  0  0  # atno 10765 bound_to 10752
  140.7696  134.3204  157.5078 H   0  0  0  0  0  0  0  0  0  0  0  0  # atno 11005 bound_to 11000
  144.6818  140.2613  143.7318 LP  0  0  0  0  0  0  0  0  0  0  0  0  # atno 17320 bound_to 7965
  145.8021  139.1968  143.2042 LP  0  0  0  0  0  0  0  0  0  0  0  0  # atno 17321 bound_to 7965
  139.4782  144.5517  151.8375 LP  0  0  0  0  0  0  0  0  0  0  0  0  # atno 17342 bound_to 10162
  140.4617  144.1712  150.5907 LP  0  0  0  0  0  0  0  0  0  0  0  0  # atno 17343 bound_to 10162
  155.9928  130.3928  150.2926 LP  0  0  0  0  0  0  0  0  0  0  0  0  # atno 17370 bound_to 10713
  157.1086  131.0215  151.3057 LP  0  0  0  0  0  0  0  0  0  0  0  0  # atno 17371 bound_to 10713
  139.8758  134.9253  156.3371 LP  0  0  0  0  0  0  0  0  0  0  0  0  # atno 17394 bound_to 11000
  140.9586  133.7403  156.0370 LP  0  0  0  0  0  0  0  0  0  0  0  0  # atno 17395 bound_to 11000

$$$$
