AV-unprocessed.smi:1350|AV-procd|sdf|5522|dock6
  -GOLD-   22720 5113D 1   1.00000     0.00000
 Structure written by MMmdl.
 44 46  0  0  0  0  0  0  0  0  2 V2000
  148.5509  136.6611  155.3123 C   0  0  0  0  0  0  0  0  0  0  0  0
  148.8750  137.9933  155.6832 O   0  0  0  0  0  0  0  0  0  0  0  0
  148.3048  139.0324  154.9754 C   0  0  0  0  0  0  0  0  0  0  0  0
  147.4024  138.8348  153.8980 C   0  0  0  0  0  0  0  0  0  0  0  0
  146.8498  139.9324  153.2116 C   0  0  0  0  0  0  0  0  0  0  0  0
  147.1879  141.2430  153.5897 C   0  0  0  0  0  0  0  0  0  0  0  0
  148.0808  141.4532  154.6553 C   0  0  0  0  0  0  0  0  0  0  0  0
  148.6420  140.3588  155.3466 C   0  0  0  0  0  0  0  0  0  0  0  0
  149.5907  140.6450  156.4993 C   0  0  0  0  0  0  0  0  0  0  0  0
  149.8284  142.0359  156.6415 O   0  0  0  0  0  0  0  0  0  0  0  0
  150.7752  142.3294  157.6557 C   0  0  0  0  0  0  0  0  0  0  0  0
  151.1791  143.8067  157.5523 C   0  0  2  0  0  0  0  0  0  0  0  0
  151.2478  144.1624  156.1856 O   0  0  0  0  0  0  0  0  0  0  0  0
  152.5315  144.0979  158.2333 C   0  0  0  0  0  0  0  0  0  0  0  0
  152.4555  144.0241  159.6977 N   0  0  0  0  0  0  0  0  0  0  0  0
  151.8339  144.8454  160.5869 C   0  0  0  0  0  0  0  0  0  0  0  0
  152.0512  144.3410  161.8335 N   0  3  0  0  0  0  0  0  0  0  0  0
  152.8238  143.1812  161.7390 C   0  0  0  0  0  0  0  0  0  0  0  0
  153.2991  142.3187  162.7221 C   0  0  0  0  0  0  0  0  0  0  0  0
  154.0634  141.2179  162.2820 C   0  0  0  0  0  0  0  0  0  0  0  0
  154.3293  141.0073  160.9128 C   0  0  0  0  0  0  0  0  0  0  0  0
  153.8428  141.8885  159.9247 C   0  0  0  0  0  0  0  0  0  0  0  0
  153.0881  142.9733  160.3688 C   0  0  0  0  0  0  0  0  0  0  0  0
  149.0838  135.9679  155.9629 H   0  0  0  0  0  0  0  0  0  0  0  0
  148.8532  136.4473  154.2862 H   0  0  0  0  0  0  0  0  0  0  0  0
  147.4842  136.4636  155.4253 H   0  0  0  0  0  0  0  0  0  0  0  0
  147.1143  137.8459  153.5758 H   0  0  0  0  0  0  0  0  0  0  0  0
  146.1635  139.7668  152.3943 H   0  0  0  0  0  0  0  0  0  0  0  0
  146.7621  142.0856  153.0652 H   0  0  0  0  0  0  0  0  0  0  0  0
  148.3356  142.4624  154.9445 H   0  0  0  0  0  0  0  0  0  0  0  0
  149.1379  140.2558  157.4124 H   0  0  0  0  0  0  0  0  0  0  0  0
  150.5402  140.1249  156.3732 H   0  0  0  0  0  0  0  0  0  0  0  0
  150.3600  142.1137  158.6418 H   0  0  0  0  0  0  0  0  0  0  0  0
  151.6524  141.6937  157.5223 H   0  0  0  0  0  0  0  0  0  0  0  0
  150.3983  144.4169  158.0075 H   0  0  0  0  0  0  0  0  0  0  0  0
  150.4878  144.6817  155.9721 H   0  0  0  0  0  0  0  0  0  0  0  0
  153.3004  143.4022  157.8938 H   0  0  0  0  0  0  0  0  0  0  0  0
  152.8821  145.0972  157.9718 H   0  0  0  0  0  0  0  0  0  0  0  0
  151.2667  145.7331  160.3469 H   0  0  0  0  0  0  0  0  0  0  0  0
  153.0967  142.4767  163.7712 H   0  0  0  0  0  0  0  0  0  0  0  0
  154.4530  140.5202  163.0092 H   0  0  0  0  0  0  0  0  0  0  0  0
  154.9177  140.1521  160.6139 H   0  0  0  0  0  0  0  0  0  0  0  0
  154.0491  141.7191  158.8781 H   0  0  0  0  0  0  0  0  0  0  0  0
  151.6944  144.7580  162.6837 H   0  0  0  0  0  0  0  0  0  0  0  0
  1  2  1  0  0  0  0
  1 24  1  0  0  0  0
  1 25  1  0  0  0  0
  1 26  1  0  0  0  0
  2  3  1  0  0  0  0
  3  8  1  0  0  0  0
  3  4  2  0  0  0  0
  4  5  1  0  0  0  0
  4 27  1  0  0  0  0
  5  6  2  0  0  0  0
  5 28  1  0  0  0  0
  6  7  1  0  0  0  0
  6 29  1  0  0  0  0
  7  8  2  0  0  0  0
  7 30  1  0  0  0  0
  8  9  1  0  0  0  0
  9 10  1  0  0  0  0
  9 31  1  0  0  0  0
  9 32  1  0  0  0  0
 10 11  1  0  0  0  0
 11 12  1  0  0  0  0
 11 33  1  0  0  0  0
 11 34  1  0  0  0  0
 12 13  1  0  0  0  0
 12 14  1  0  0  0  0
 12 35  1  0  0  0  0
 13 36  1  0  0  0  0
 14 15  1  0  0  0  0
 14 37  1  0  0  0  0
 14 38  1  0  0  0  0
 15 23  1  0  0  0  0
 15 16  1  0  0  0  0
 16 17  2  0  0  0  0
 16 39  1  0  0  0  0
 17 18  1  0  0  0  0
 17 44  1  0  0  0  0
 18 23  2  0  0  0  0
 18 19  1  0  0  0  0
 19 20  2  0  0  0  0
 19 40  1  0  0  0  0
 20 21  1  0  0  0  0
 20 41  1  0  0  0  0
 21 22  2  0  0  0  0
 21 42  1  0  0  0  0
 22 23  1  0  0  0  0
 22 43  1  0  0  0  0
M  CHG  1  17   1
M  END
> <s_m_source_file>
AV-unprocessed.smi

> <i_m_source_file_index>
1350

> <i_lp_mmshare_version>
43012

> <i_f3d_flags>
0

> <s_epik_input>
W0NIM11PYzFbY0hdW2NIXVtjSF1bY0hdYzFbQ0gyXU9bQ0gyXVtDQEhdKFtPSF0pW0NIMl1uKFtjSF1uMiljKGMyMylbY0hdW2NIXVtjSF1bY0hdMw==

> <s_epik_cmdline>
J2VwaWtfcHl0aG9uJywgJy1waCcsICc3LjAnLCAnLXRuJywgJzgnLCAnLW1hJywgJzIwMCcsICctbWV0YWxfYmluZGluZycsICctaW1hZScsICc8aW5maWxlLm1hZT4nLCAnLW9tYWUnLCAnPG91dGZpbGUubWFlPic=

> <r_lp_tautomer_probability>
1

> <r_epik_Ionization_Penalty>
1.28975

> <r_epik_Ionization_Penalty_Charging>
1.28975

> <r_epik_Ionization_Penalty_Neutral>
1.07667e-06

> <r_epik_State_Penalty>
1.36276

> <r_epik_Charging_Adjusted_Penalty>
2.65251

> <i_epik_Tot_Q>
1

> <i_epik_Tot_abs_Q>
1

> <r_epik_Metal_State_Penalty>
5.39298

> <b_epik_Metal_Only>
0

> <s_lp_Force_Field>
OPLS_2005

> <r_lp_Energy>
23.7531

> <b_lp_Chiralities_Consistent>
1

> <s_lp_Variant>
AV-unprocessed.smi:1350-3

> <Gold.Version>
5.8.1

> <Gold.Id.Protein>
6NUR|6NUR_protein|mol2

> <Gold.PLP.Fitness>
55.1558

> <Gold.PLP.PLP>
-52.8239

> <Gold.PLP.part.hbond>
-2.1497

> <Gold.PLP.part.metal>
0.0000

> <Gold.PLP.part.buried>
-4.3123

> <Gold.PLP.part.nonpolar>
-48.2369

> <Gold.PLP.part.repulsive>
0.6999

> <Gold.PLP.ligand.clash>
0.0000

> <Gold.PLP.ligand.torsion>
0.4204

> <Gold.PLP.Chemscore.Hbond>
1.0000

> <Gold.PLP.Chemscore.CHOScore>
0.0000

> <Gold.PLP.Chemscore.Metal>
0.0000

> <Gold.Chemscore.Hbonds>
donor molecule, donor type, donor heavy atom, donor atom, acceptor molecule, acceptor atom, score
      L1  H    13    36       P1  8028  0.99

> <Gold.PLP.Chemscore.Internal.Correction>
0.1727

> <Gold.Rescore>
     Score         DG    S(hbond)    S(metal)    S(lipo)     H(rot)  DE(clash)    DE(int)     intcor
     17.35     -17.95       0.98        0.00     138.44       2.74       0.20       0.40       ----

> <Gold.Chemscore.Fitness>
17.3510

> <Gold.Chemscore.DG>
-17.9505

> <Gold.Chemscore.ZeroCoef>
-5.4800

> <Gold.Chemscore.Hbond>
0.9833

> <Gold.Chemscore.Metal>
0.0000

> <Gold.Chemscore.Lipo>
138.4449

> <Gold.Chemscore.Internal_Hbond>
0.0000

> <Gold.Chemscore.DEClash>
0.1953

> <Gold.Chemscore.DEInternal>
0.4042

> <Gold.Chemscore.Rot>
2.7390

> <Gold.Chemscore.Internal.Correction>
   9.000000E+99

> <Gold.Chemscore.Hbonds>
donor molecule, donor type, donor heavy atom, donor atom, acceptor molecule, acceptor atom, score
      L1  H    13    36       P1  8028  0.93

> <Gold.Chemscore.Hbond.Weighted>
-3.2842

> <Gold.Chemscore.Metal.Weighted>
-0.0000

> <Gold.Chemscore.Lipo.Weighted>
-16.1980

> <Gold.Chemscore.Internal_Hbond.Weighted>
0.0000

> <Gold.Chemscore.DEClash.Weighted>
0.1953

> <Gold.Chemscore.DEInternal.Weighted>
0.4042

> <Gold.Chemscore.Rot.Weighted>
7.0118

> <Gold.Chemscore.Internal.Correction.Weighted>
   9.000000E+99

> <Gold.Protein.RotatedTorsions>
[ 6907 6896 6895 6894 ] final -113.59 input  -60.11 | X-H torsion
[ 7974 7965 7964 7962 ] final -104.30 input  175.53 | X-H torsion
[ 8008 7997 7996 7995 ] final   51.19 input   59.86 | X-H torsion
[ 10167 10162 10161 10158 ] final  124.64 input  -65.29 | X-H torsion
[ 10718 10713 10712 10709 ] final  142.48 input   66.30 | X-H torsion
[ 10763 10752 10751 10750 ] final  128.40 input  -60.55 | X-H torsion
[ 11005 11000 10999 10996 ] final -166.99 input  -57.11 | X-H torsion

> <Gold.Protein.ActiveResidues>
 VAL166  LYS551  ARG553  GLY616  TRP617  ASP618  TYR619  PRO620  LYS621  CYS622 
 ASP623  PHE694  ASN695  SER759  ASP760  ASP761  ALA762  ILE779  LEU786  VAL792 
 PHE793  MET794  SER795  GLU796  ALA797  LYS798  CYS799  TRP800  GLU811  SER814 

> <Gold.Protein.RotatedAtoms>
  150.7840  133.8923  159.3316 H   0  0  0  0  0  0  0  0  0  0  0  0  # atno 6907 bound_to 6896
  151.6778  135.0964  160.0220 H   0  0  0  0  0  0  0  0  0  0  0  0  # atno 6908 bound_to 6896
  152.3899  133.6625  159.6264 H   0  0  0  0  0  0  0  0  0  0  0  0  # atno 6909 bound_to 6896
  145.2449  140.9218  143.3129 H   0  0  0  0  0  0  0  0  0  0  0  0  # atno 7974 bound_to 7965
  155.4313  140.3450  155.4280 H   0  0  0  0  0  0  0  0  0  0  0  0  # atno 8008 bound_to 7997
  156.1335  140.1521  156.9061 H   0  0  0  0  0  0  0  0  0  0  0  0  # atno 8009 bound_to 7997
  154.4913  140.0840  156.7580 H   0  0  0  0  0  0  0  0  0  0  0  0  # atno 8010 bound_to 7997
  139.5730  144.6949  151.3727 H   0  0  0  0  0  0  0  0  0  0  0  0  # atno 10167 bound_to 10162
  157.3801  131.0991  151.0747 H   0  0  0  0  0  0  0  0  0  0  0  0  # atno 10718 bound_to 10713
  153.7250  135.3247  155.3274 H   0  0  0  0  0  0  0  0  0  0  0  0  # atno 10763 bound_to 10752
  154.8344  135.4508  154.1179 H   0  0  0  0  0  0  0  0  0  0  0  0  # atno 10764 bound_to 10752
  153.2310  135.6960  153.7970 H   0  0  0  0  0  0  0  0  0  0  0  0  # atno 10765 bound_to 10752
  140.5583  134.5359  157.5137 H   0  0  0  0  0  0  0  0  0  0  0  0  # atno 11005 bound_to 11000
  144.9555  139.4036  143.6381 LP  0  0  0  0  0  0  0  0  0  0  0  0  # atno 17320 bound_to 7965
  146.3318  139.8584  142.8860 LP  0  0  0  0  0  0  0  0  0  0  0  0  # atno 17321 bound_to 7965
  140.7014  143.7622  150.7409 LP  0  0  0  0  0  0  0  0  0  0  0  0  # atno 17342 bound_to 10162
  140.1134  143.4678  152.2357 LP  0  0  0  0  0  0  0  0  0  0  0  0  # atno 17343 bound_to 10162
  157.1819  130.6313  149.5675 LP  0  0  0  0  0  0  0  0  0  0  0  0  # atno 17370 bound_to 10713
  155.9774  130.4751  150.6589 LP  0  0  0  0  0  0  0  0  0  0  0  0  # atno 17371 bound_to 10713
  139.9420  134.7769  156.0654 LP  0  0  0  0  0  0  0  0  0  0  0  0  # atno 17394 bound_to 11000
  141.1130  133.6637  156.3025 LP  0  0  0  0  0  0  0  0  0  0  0  0  # atno 17395 bound_to 11000

$$$$
