AV-unprocessed.smi:3112|AV-procd|sdf|11841|dock6
  -GOLD-   2272017213D 1   1.00000     0.00000
 Structure written by MMmdl.
 37 37  0  0  0  0  0  0  0  0  2 V2000
  144.1439  135.7983  151.7617 C   0  0  0  0  0  0  0  0  0  0  0  0
  144.6582  137.1051  152.3813 C   0  0  0  0  0  0  0  0  0  0  0  0
  146.1427  137.3828  152.0821 C   0  0  1  0  0  0  0  0  0  0  0  0
  146.3149  137.4971  150.6828 O   0  0  0  0  0  0  0  0  0  0  0  0
  146.6322  138.6824  152.7424 C   0  0  0  0  0  0  0  0  0  0  0  0
  148.1091  138.7428  152.7625 N   0  3  0  0  0  0  0  0  0  0  0  0
  148.7159  139.0767  154.0729 C   0  0  2  0  0  0  0  0  0  0  0  0
  147.8773  138.4605  155.2089 C   0  0  0  0  0  0  0  0  0  0  0  0
  148.8632  140.6153  154.2058 C   0  0  1  0  0  0  0  0  0  0  0  0
  147.5321  141.3403  154.4800 C   0  0  0  0  0  0  0  0  0  0  0  0
  149.8316  140.9524  155.2441 N   0  0  0  0  0  0  0  0  0  0  0  0
  149.6814  141.7920  156.3307 C   0  0  0  0  0  0  0  0  0  0  0  0
  150.8483  141.7576  157.0385 C   0  0  0  0  0  0  0  0  0  0  0  0
  151.6622  140.8504  156.3051 C   0  0  0  0  0  0  0  0  0  0  0  0
  151.0477  140.3632  155.2392 N   0  0  0  0  0  0  0  0  0  0  0  0
  143.1009  135.6280  152.0297 H   0  0  0  0  0  0  0  0  0  0  0  0
  144.7201  134.9418  152.1129 H   0  0  0  0  0  0  0  0  0  0  0  0
  144.2050  135.8205  150.6735 H   0  0  0  0  0  0  0  0  0  0  0  0
  144.0448  137.9397  152.0390 H   0  0  0  0  0  0  0  0  0  0  0  0
  144.5160  137.0476  153.4611 H   0  0  0  0  0  0  0  0  0  0  0  0
  146.7434  136.5461  152.4421 H   0  0  0  0  0  0  0  0  0  0  0  0
  145.5015  137.7894  150.2999 H   0  0  0  0  0  0  0  0  0  0  0  0
  146.2194  139.5504  152.2276 H   0  0  0  0  0  0  0  0  0  0  0  0
  146.2758  138.7228  153.7726 H   0  0  0  0  0  0  0  0  0  0  0  0
  148.4471  137.8277  152.4984 H   0  0  0  0  0  0  0  0  0  0  0  0
  149.7163  138.6418  154.1069 H   0  0  0  0  0  0  0  0  0  0  0  0
  148.3450  138.6106  156.1816 H   0  0  0  0  0  0  0  0  0  0  0  0
  147.7609  137.3840  155.0857 H   0  0  0  0  0  0  0  0  0  0  0  0
  146.8793  138.8985  155.2470 H   0  0  0  0  0  0  0  0  0  0  0  0
  149.2484  141.0024  153.2600 H   0  0  0  0  0  0  0  0  0  0  0  0
  146.8496  141.2631  153.6340 H   0  0  0  0  0  0  0  0  0  0  0  0
  147.6965  142.4041  154.6560 H   0  0  0  0  0  0  0  0  0  0  0  0
  147.0254  140.9334  155.3556 H   0  0  0  0  0  0  0  0  0  0  0  0
  148.7670  142.3382  156.5096 H   0  0  0  0  0  0  0  0  0  0  0  0
  151.0845  142.2967  157.9439 H   0  0  0  0  0  0  0  0  0  0  0  0
  152.6714  140.5289  156.5168 H   0  0  0  0  0  0  0  0  0  0  0  0
  148.4266  139.4072  152.0708 H   0  0  0  0  0  0  0  0  0  0  0  0
  1  2  1  0  0  0  0
  1 16  1  0  0  0  0
  1 17  1  0  0  0  0
  1 18  1  0  0  0  0
  2  3  1  0  0  0  0
  2 19  1  0  0  0  0
  2 20  1  0  0  0  0
  3  4  1  0  0  0  0
  3  5  1  0  0  0  0
  3 21  1  0  0  0  0
  4 22  1  0  0  0  0
  5  6  1  0  0  0  0
  5 23  1  0  0  0  0
  5 24  1  0  0  0  0
  6  7  1  0  0  0  0
  6 25  1  0  0  0  0
  6 37  1  0  0  0  0
  7  8  1  0  0  0  0
  7  9  1  0  0  0  0
  7 26  1  0  0  0  0
  8 27  1  0  0  0  0
  8 28  1  0  0  0  0
  8 29  1  0  0  0  0
  9 10  1  0  0  0  0
  9 11  1  0  0  0  0
  9 30  1  0  0  0  0
 10 31  1  0  0  0  0
 10 32  1  0  0  0  0
 10 33  1  0  0  0  0
 11 15  1  0  0  0  0
 11 12  1  0  0  0  0
 12 13  2  0  0  0  0
 12 34  1  0  0  0  0
 13 14  1  0  0  0  0
 13 35  1  0  0  0  0
 14 15  2  0  0  0  0
 14 36  1  0  0  0  0
M  CHG  1   6   1
M  END
> <s_m_source_file>
AV-unprocessed.smi

> <i_m_source_file_index>
3112

> <i_lp_mmshare_version>
43012

> <i_f3d_flags>
0

> <s_epik_input>
W0NIM11bQ0gyXVtDQEhdKFtPSF0pW0NIMl1bTkhdW0NASF0oW0NIM10pW0NASF0oW0NIM10pbjFbY0hdW2NIXVtjSF1uMQ==

> <s_epik_cmdline>
J2VwaWtfcHl0aG9uJywgJy1waCcsICc3LjAnLCAnLXRuJywgJzgnLCAnLW1hJywgJzIwMCcsICctbWV0YWxfYmluZGluZycsICctaW1hZScsICc8aW5maWxlLm1hZT4nLCAnLW9tYWUnLCAnPG91dGZpbGUubWFlPic=

> <r_lp_tautomer_probability>
1

> <r_epik_Ionization_Penalty>
0.0154842

> <r_epik_Ionization_Penalty_Charging>
0.0154724

> <r_epik_Ionization_Penalty_Neutral>
1.17979e-05

> <r_epik_State_Penalty>
0.0121607

> <r_epik_Charging_Adjusted_Penalty>
0.0276331

> <i_epik_Tot_Q>
1

> <i_epik_Tot_abs_Q>
1

> <r_epik_Metal_State_Penalty>
0.0121863

> <b_epik_Metal_Only>
0

> <s_lp_Force_Field>
OPLS_2005

> <r_lp_Energy>
12.5622

> <b_lp_Chiralities_Consistent>
1

> <s_lp_Variant>
AV-unprocessed.smi:3112-6

> <Gold.Version>
5.8.1

> <Gold.Id.Protein>
6NUR|6NUR_protein|mol2

> <Gold.PLP.Fitness>
47.1231

> <Gold.PLP.PLP>
-29.3453

> <Gold.PLP.part.hbond>
-5.7527

> <Gold.PLP.part.metal>
0.0000

> <Gold.PLP.part.buried>
-0.8250

> <Gold.PLP.part.nonpolar>
-23.2436

> <Gold.PLP.part.repulsive>
0.1034

> <Gold.PLP.ligand.clash>
0.0000

> <Gold.PLP.ligand.torsion>
1.0968

> <Gold.PLP.Chemscore.Hbond>
5.9500

> <Gold.PLP.Chemscore.CHOScore>
0.6733

> <Gold.PLP.Chemscore.Metal>
0.0000

> <Gold.Chemscore.Hbonds>
donor molecule, donor type, donor heavy atom, donor atom, acceptor molecule, acceptor atom, score
      L1  H     4    22       P1 10171  1.00
      L1  H     6    25       P1  7948  2.00
      L1  H     6    37       P1  7957  1.00
      P1  H  7954  7966       L1     4  0.98
      P1  H  7989  7998       L1    15  1.00
      L1  C    12    34       P1  8028  0.66

> <Gold.PLP.Chemscore.Internal.Correction>
0.1014

> <Gold.Rescore>
     Score         DG    S(hbond)    S(metal)    S(lipo)     H(rot)  DE(clash)    DE(int)     intcor
     19.55     -21.71       4.57        0.00      61.08       2.41       1.18       0.98       ----

> <Gold.Chemscore.Fitness>
19.5488

> <Gold.Chemscore.DG>
-21.7100

> <Gold.Chemscore.ZeroCoef>
-5.4800

> <Gold.Chemscore.Hbond>
4.5661

> <Gold.Chemscore.Metal>
0.0000

> <Gold.Chemscore.Lipo>
61.0770

> <Gold.Chemscore.Internal_Hbond>
0.0000

> <Gold.Chemscore.DEClash>
1.1777

> <Gold.Chemscore.DEInternal>
0.9835

> <Gold.Chemscore.Rot>
2.4089

> <Gold.Chemscore.Internal.Correction>
   9.000000E+99

> <Gold.Chemscore.Hbonds>
donor molecule, donor type, donor heavy atom, donor atom, acceptor molecule, acceptor atom, score
      L1  H     4    22       P1 10171  1.00
      L1  H     6    25       P1  7948  1.00
      L1  H     6    37       P1  7957  0.94
      P1  H  7954  7966       L1     4  0.85
      P1  H  7989  7998       L1    15  0.24

> <Gold.Chemscore.Hbond.Weighted>
-15.2507

> <Gold.Chemscore.Metal.Weighted>
-0.0000

> <Gold.Chemscore.Lipo.Weighted>
-7.1460

> <Gold.Chemscore.Internal_Hbond.Weighted>
0.0000

> <Gold.Chemscore.DEClash.Weighted>
1.1777

> <Gold.Chemscore.DEInternal.Weighted>
0.9835

> <Gold.Chemscore.Rot.Weighted>
6.1667

> <Gold.Chemscore.Internal.Correction.Weighted>
   9.000000E+99

> <Gold.Protein.RotatedTorsions>
[ 6907 6896 6895 6894 ] final  -43.75 input  -60.11 | X-H torsion
[ 7974 7965 7964 7962 ] final   18.04 input  175.53 | X-H torsion
[ 8008 7997 7996 7995 ] final  -45.57 input   59.86 | X-H torsion
[ 10167 10162 10161 10158 ] final   31.79 input  -65.29 | X-H torsion
[ 10718 10713 10712 10709 ] final   11.61 input   66.30 | X-H torsion
[ 10763 10752 10751 10750 ] final -135.25 input  -60.55 | X-H torsion
[ 11005 11000 10999 10996 ] final  -78.62 input  -57.11 | X-H torsion

> <Gold.Protein.ActiveResidues>
 VAL166  LYS551  ARG553  GLY616  TRP617  ASP618  TYR619  PRO620  LYS621  CYS622 
 ASP623  PHE694  ASN695  SER759  ASP760  ASP761  ALA762  ILE779  LEU786  VAL792 
 PHE793  MET794  SER795  GLU796  ALA797  LYS798  CYS799  TRP800  GLU811  SER814 

> <Gold.Protein.RotatedAtoms>
  150.9404  134.8813  159.7608 H   0  0  0  0  0  0  0  0  0  0  0  0  # atno 6907 bound_to 6896
  152.5077  134.3950  159.9407 H   0  0  0  0  0  0  0  0  0  0  0  0  # atno 6908 bound_to 6896
  151.3971  133.3729  159.2762 H   0  0  0  0  0  0  0  0  0  0  0  0  # atno 6909 bound_to 6896
  146.2198  139.8514  142.8622 H   0  0  0  0  0  0  0  0  0  0  0  0  # atno 7974 bound_to 7965
  154.4002  140.1393  156.3868 H   0  0  0  0  0  0  0  0  0  0  0  0  # atno 8008 bound_to 7997
  155.7952  140.3477  155.5351 H   0  0  0  0  0  0  0  0  0  0  0  0  # atno 8009 bound_to 7997
  155.8539  140.0946  157.1647 H   0  0  0  0  0  0  0  0  0  0  0  0  # atno 8010 bound_to 7997
  140.4557  144.0982  150.6201 H   0  0  0  0  0  0  0  0  0  0  0  0  # atno 10167 bound_to 10162
  156.9980  130.6068  149.5693 H   0  0  0  0  0  0  0  0  0  0  0  0  # atno 10718 bound_to 10713
  154.8706  135.3709  154.4868 H   0  0  0  0  0  0  0  0  0  0  0  0  # atno 10763 bound_to 10752
  153.5517  135.7024  153.5593 H   0  0  0  0  0  0  0  0  0  0  0  0  # atno 10764 bound_to 10752
  153.3709  135.4022  155.1751 H   0  0  0  0  0  0  0  0  0  0  0  0  # atno 10765 bound_to 10752
  141.1665  133.7071  156.7999 H   0  0  0  0  0  0  0  0  0  0  0  0  # atno 11005 bound_to 11000
  145.2797  141.0135  143.3724 LP  0  0  0  0  0  0  0  0  0  0  0  0  # atno 17320 bound_to 7965
  144.9159  139.4471  143.6564 LP  0  0  0  0  0  0  0  0  0  0  0  0  # atno 17321 bound_to 7965
  140.4154  143.2637  151.9781 LP  0  0  0  0  0  0  0  0  0  0  0  0  # atno 17342 bound_to 10162
  139.4801  144.5878  151.7823 LP  0  0  0  0  0  0  0  0  0  0  0  0  # atno 17343 bound_to 10162
  156.0182  130.5276  150.8197 LP  0  0  0  0  0  0  0  0  0  0  0  0  # atno 17370 bound_to 10713
  157.5411  131.0941  150.9826 LP  0  0  0  0  0  0  0  0  0  0  0  0  # atno 17371 bound_to 10713
  140.2264  134.8719  157.3431 LP  0  0  0  0  0  0  0  0  0  0  0  0  # atno 17394 bound_to 11000
  140.1935  134.4342  155.7702 LP  0  0  0  0  0  0  0  0  0  0  0  0  # atno 17395 bound_to 11000

$$$$
