AV-unprocessed.smi:1226|AV-procd|sdf|5144|dock3
  -GOLD-   22720 4213D 1   1.00000     0.00000
 Structure written by MMmdl.
 37 38  0  0  0  0  0  0  0  0  1 V2000
  152.2149  139.0022  155.2194 C   0  0  0  0  0  0  0  0  0  0  0  0
  150.9697  139.8065  155.0648 C   0  0  0  0  0  0  0  0  0  0  0  0
  149.9363  139.4297  154.3076 N   0  0  0  0  0  0  0  0  0  0  0  0
  148.8878  140.3548  154.3274 C   0  0  0  0  0  0  0  0  0  0  0  0
  147.6427  140.0894  153.5370 C   0  0  0  0  0  0  0  0  0  0  0  0
  146.9163  138.8183  154.0079 C   0  0  0  0  0  0  0  0  0  0  0  0
  146.9170  137.7845  152.9794 N   0  0  0  0  0  0  0  0  0  0  0  0
  145.8187  137.2168  152.4624 C   0  0  0  0  0  0  0  0  0  0  0  0
  144.6696  137.5064  152.7955 O   0  0  0  0  0  0  0  0  0  0  0  0
  146.1233  136.2897  151.5444 N   0  0  0  0  0  0  0  0  0  0  0  0
  145.1496  135.4797  150.8206 C   0  0  0  0  0  0  0  0  0  0  0  0
  145.5130  133.9844  150.8382 C   0  0  2  0  0  0  0  0  0  0  0  0
  144.5266  133.0742  150.1043 C   0  0  0  0  0  0  0  0  0  0  0  0
  144.6703  131.7369  150.8157 C   0  0  0  0  0  0  0  0  0  0  0  0
  145.4845  132.0623  152.0709 C   0  0  0  0  0  0  0  0  0  0  0  0
  145.4701  133.4796  152.1623 O   0  0  0  0  0  0  0  0  0  0  0  0
  149.1463  141.4484  155.1160 C   0  0  0  0  0  0  0  0  0  0  0  0
  150.7175  141.3539  155.8630 S   0  0  0  0  0  0  0  0  0  0  0  0
  152.0805  138.0030  154.8039 H   0  0  0  0  0  0  0  0  0  0  0  0
  152.4706  138.9094  156.2749 H   0  0  0  0  0  0  0  0  0  0  0  0
  153.0395  139.4896  154.6994 H   0  0  0  0  0  0  0  0  0  0  0  0
  146.9665  140.9419  153.6130 H   0  0  0  0  0  0  0  0  0  0  0  0
  147.8925  140.0010  152.4789 H   0  0  0  0  0  0  0  0  0  0  0  0
  147.3696  138.4336  154.9232 H   0  0  0  0  0  0  0  0  0  0  0  0
  145.8794  139.0527  154.2499 H   0  0  0  0  0  0  0  0  0  0  0  0
  147.8174  137.4783  152.6409 H   0  0  0  0  0  0  0  0  0  0  0  0
  147.0972  136.1235  151.3378 H   0  0  0  0  0  0  0  0  0  0  0  0
  144.1529  135.6310  151.2384 H   0  0  0  0  0  0  0  0  0  0  0  0
  145.1103  135.8399  149.7923 H   0  0  0  0  0  0  0  0  0  0  0  0
  146.5198  133.8330  150.4439 H   0  0  0  0  0  0  0  0  0  0  0  0
  143.5074  133.4435  150.2259 H   0  0  0  0  0  0  0  0  0  0  0  0
  144.7352  133.0102  149.0358 H   0  0  0  0  0  0  0  0  0  0  0  0
  143.6908  131.3298  151.0697 H   0  0  0  0  0  0  0  0  0  0  0  0
  145.1881  131.0029  150.1973 H   0  0  0  0  0  0  0  0  0  0  0  0
  145.0715  131.6042  152.9699 H   0  0  0  0  0  0  0  0  0  0  0  0
  146.5148  131.7219  151.9580 H   0  0  0  0  0  0  0  0  0  0  0  0
  148.5100  142.3006  155.3031 H   0  0  0  0  0  0  0  0  0  0  0  0
  1  2  1  0  0  0  0
  1 19  1  0  0  0  0
  1 20  1  0  0  0  0
  1 21  1  0  0  0  0
  2 18  1  0  0  0  0
  2  3  2  0  0  0  0
  3  4  1  0  0  0  0
  4  5  1  0  0  0  0
  4 17  2  0  0  0  0
  5  6  1  0  0  0  0
  5 22  1  0  0  0  0
  5 23  1  0  0  0  0
  6  7  1  0  0  0  0
  6 24  1  0  0  0  0
  6 25  1  0  0  0  0
  7  8  1  0  0  0  0
  7 26  1  0  0  0  0
  8  9  2  0  0  0  0
  8 10  1  0  0  0  0
 10 11  1  0  0  0  0
 10 27  1  0  0  0  0
 11 12  1  0  0  0  0
 11 28  1  0  0  0  0
 11 29  1  0  0  0  0
 12 16  1  0  0  0  0
 12 13  1  0  0  0  0
 12 30  1  0  0  0  0
 13 14  1  0  0  0  0
 13 31  1  0  0  0  0
 13 32  1  0  0  0  0
 14 15  1  0  0  0  0
 14 33  1  0  0  0  0
 14 34  1  0  0  0  0
 15 16  1  0  0  0  0
 15 35  1  0  0  0  0
 15 36  1  0  0  0  0
 17 18  1  0  0  0  0
 17 37  1  0  0  0  0
M  END
> <s_m_source_file>
AV-unprocessed.smi

> <i_m_source_file_index>
1226

> <i_lp_mmshare_version>
43012

> <i_f3d_flags>
0

> <s_epik_input>
W0NIM11jMW5jKFtjSF1zMSlbQ0gyXVtDSDJdW05IXUMoPU8pW05IXVtDSDJdW0NAQEhdMltDSDJdW0NIMl1bQ0gyXU8y

> <s_epik_cmdline>
J2VwaWtfcHl0aG9uJywgJy1waCcsICc3LjAnLCAnLXRuJywgJzgnLCAnLW1hJywgJzIwMCcsICctbWV0YWxfYmluZGluZycsICctaW1hZScsICc8aW5maWxlLm1hZT4nLCAnLW9tYWUnLCAnPG91dGZpbGUubWFlPic=

> <r_epik_Ionization_Penalty>
0.00199722

> <r_epik_Ionization_Penalty_Charging>
0

> <r_epik_Ionization_Penalty_Neutral>
0.00199722

> <r_epik_State_Penalty>
0.00132705

> <r_epik_Charging_Adjusted_Penalty>
0.00132705

> <i_epik_Tot_Q>
0

> <i_epik_Tot_abs_Q>
0

> <r_epik_Metal_State_Penalty>
-0

> <b_epik_Metal_Only>
0

> <s_lp_Force_Field>
OPLS_2005

> <r_lp_Energy>
9.02747

> <b_lp_Chiralities_Consistent>
1

> <s_lp_Variant>
AV-unprocessed.smi:1226-1

> <Gold.Version>
5.8.1

> <Gold.Id.Protein>
6NUR|6NUR_protein|mol2

> <Gold.PLP.Fitness>
42.6806

> <Gold.PLP.PLP>
-34.5217

> <Gold.PLP.part.hbond>
-2.0000

> <Gold.PLP.part.metal>
0.0000

> <Gold.PLP.part.buried>
-4.4527

> <Gold.PLP.part.nonpolar>
-29.2682

> <Gold.PLP.part.repulsive>
0.5864

> <Gold.PLP.ligand.clash>
0.0000

> <Gold.PLP.ligand.torsion>
0.4400

> <Gold.PLP.Chemscore.Hbond>
2.0000

> <Gold.PLP.Chemscore.CHOScore>
1.0000

> <Gold.PLP.Chemscore.Metal>
0.0000

> <Gold.Chemscore.Hbonds>
donor molecule, donor type, donor heavy atom, donor atom, acceptor molecule, acceptor atom, score
      L1  H     7    26       P1  7948  1.00
      L1  H    10    27       P1  7948  1.00
      L1  C    17    37       P1  8028  1.00

> <Gold.PLP.Chemscore.Internal.Correction>
0.0389

> <Gold.Rescore>
     Score         DG    S(hbond)    S(metal)    S(lipo)     H(rot)  DE(clash)    DE(int)     intcor
     16.69     -17.32       1.90        0.00      85.17       1.75       0.19       0.44       ----

> <Gold.Chemscore.Fitness>
16.6902

> <Gold.Chemscore.DG>
-17.3245

> <Gold.Chemscore.ZeroCoef>
-5.4800

> <Gold.Chemscore.Hbond>
1.9033

> <Gold.Chemscore.Metal>
0.0000

> <Gold.Chemscore.Lipo>
85.1650

> <Gold.Chemscore.Internal_Hbond>
0.0000

> <Gold.Chemscore.DEClash>
0.1944

> <Gold.Chemscore.DEInternal>
0.4399

> <Gold.Chemscore.Rot>
1.7487

> <Gold.Chemscore.Internal.Correction>
   9.000000E+99

> <Gold.Chemscore.Hbonds>
donor molecule, donor type, donor heavy atom, donor atom, acceptor molecule, acceptor atom, score
      L1  H     7    26       P1  7948  0.97
      L1  H    10    27       P1  7948  0.95

> <Gold.Chemscore.Hbond.Weighted>
-6.3570

> <Gold.Chemscore.Metal.Weighted>
-0.0000

> <Gold.Chemscore.Lipo.Weighted>
-9.9643

> <Gold.Chemscore.Internal_Hbond.Weighted>
0.0000

> <Gold.Chemscore.DEClash.Weighted>
0.1944

> <Gold.Chemscore.DEInternal.Weighted>
0.4399

> <Gold.Chemscore.Rot.Weighted>
4.4768

> <Gold.Chemscore.Internal.Correction.Weighted>
   9.000000E+99

> <Gold.Protein.RotatedTorsions>
[ 6907 6896 6895 6894 ] final   43.56 input  -60.11 | X-H torsion
[ 7974 7965 7964 7962 ] final  154.27 input  175.53 | X-H torsion
[ 8008 7997 7996 7995 ] final  -97.72 input   59.86 | X-H torsion
[ 10167 10162 10161 10158 ] final  152.68 input  -65.29 | X-H torsion
[ 10718 10713 10712 10709 ] final  -41.67 input   66.30 | X-H torsion
[ 10763 10752 10751 10750 ] final -145.55 input  -60.55 | X-H torsion
[ 11005 11000 10999 10996 ] final  112.64 input  -57.11 | X-H torsion

> <Gold.Protein.ActiveResidues>
 VAL166  LYS551  ARG553  GLY616  TRP617  ASP618  TYR619  PRO620  LYS621  CYS622 
 ASP623  PHE694  ASN695  SER759  ASP760  ASP761  ALA762  ILE779  LEU786  VAL792 
 PHE793  MET794  SER795  GLU796  ALA797  LYS798  CYS799  TRP800  GLU811  SER814 

> <Gold.Protein.RotatedAtoms>
  152.2217  134.8406  160.0484 H   0  0  0  0  0  0  0  0  0  0  0  0  # atno 6907 bound_to 6896
  151.9187  133.3575  159.3897 H   0  0  0  0  0  0  0  0  0  0  0  0  # atno 6908 bound_to 6896
  150.7002  134.4582  159.5412 H   0  0  0  0  0  0  0  0  0  0  0  0  # atno 6909 bound_to 6896
  144.8100  139.6911  143.6146 H   0  0  0  0  0  0  0  0  0  0  0  0  # atno 7974 bound_to 7965
  154.7915  140.0461  157.1204 H   0  0  0  0  0  0  0  0  0  0  0  0  # atno 8008 bound_to 7997
  154.9585  140.3074  155.5022 H   0  0  0  0  0  0  0  0  0  0  0  0  # atno 8009 bound_to 7997
  156.2950  140.2275  156.4669 H   0  0  0  0  0  0  0  0  0  0  0  0  # atno 8010 bound_to 7997
  139.4831  144.5337  151.7681 H   0  0  0  0  0  0  0  0  0  0  0  0  # atno 10167 bound_to 10162
  156.2679  130.4203  149.8470 H   0  0  0  0  0  0  0  0  0  0  0  0  # atno 10718 bound_to 10713
  154.8378  135.3410  154.6522 H   0  0  0  0  0  0  0  0  0  0  0  0  # atno 10763 bound_to 10752
  153.7136  135.6962  153.5035 H   0  0  0  0  0  0  0  0  0  0  0  0  # atno 10764 bound_to 10752
  153.2434  135.4377  155.0675 H   0  0  0  0  0  0  0  0  0  0  0  0  # atno 10765 bound_to 10752
  139.8932  134.9534  156.6616 H   0  0  0  0  0  0  0  0  0  0  0  0  # atno 11005 bound_to 11000
  146.2397  139.5976  142.9500 LP  0  0  0  0  0  0  0  0  0  0  0  0  # atno 17320 bound_to 7965
  145.5347  141.0425  143.2364 LP  0  0  0  0  0  0  0  0  0  0  0  0  # atno 17321 bound_to 7965
  140.4867  144.1371  150.5942 LP  0  0  0  0  0  0  0  0  0  0  0  0  # atno 17342 bound_to 10162
  140.4218  143.2608  151.9706 LP  0  0  0  0  0  0  0  0  0  0  0  0  # atno 17343 bound_to 10162
  156.5962  130.8527  151.3420 LP  0  0  0  0  0  0  0  0  0  0  0  0  # atno 17370 bound_to 10713
  157.7274  130.9642  150.1695 LP  0  0  0  0  0  0  0  0  0  0  0  0  # atno 17371 bound_to 10713
  140.7442  133.8952  155.8300 LP  0  0  0  0  0  0  0  0  0  0  0  0  # atno 17394 bound_to 11000
  141.0053  134.1095  157.4277 LP  0  0  0  0  0  0  0  0  0  0  0  0  # atno 17395 bound_to 11000

$$$$
