AV-unprocessed.smi:2636|AV-procd|sdf|10257|dock2
  -GOLD-   2272014263D 1   1.00000     0.00000
 Structure written by MMmdl.
 36 37  0  0  0  0  0  0  0  0  1 V2000
  149.7652  134.4390  154.4657 C   0  0  0  0  0  0  0  0  0  0  0  0
  150.5732  135.4542  155.2568 C   0  0  0  0  0  0  0  0  0  0  0  0
  150.9019  136.6726  154.7557 C   0  0  0  0  0  0  0  0  0  0  0  0
  151.6358  137.6145  155.4577 N   0  0  0  0  0  0  0  0  0  0  0  0
  152.0278  138.8906  154.8866 C   0  0  0  0  0  0  0  0  0  0  0  0
  150.9092  139.4970  154.3240 O   0  0  0  0  0  0  0  0  0  0  0  0
  149.9914  139.9827  155.2892 C   0  0  0  0  0  0  0  0  0  0  0  0
  150.5515  141.2086  155.9760 C   0  0  0  0  0  0  0  0  0  0  0  0
  150.9310  141.2441  157.2662 C   0  0  0  0  0  0  0  0  0  0  0  0
  151.4826  142.4043  157.9886 C   0  0  0  0  0  0  0  0  0  0  0  0
  151.4661  143.7144  157.4539 C   0  0  0  0  0  0  0  0  0  0  0  0
  152.0036  144.7925  158.1842 C   0  0  0  0  0  0  0  0  0  0  0  0
  152.5633  144.5747  159.4567 C   0  0  0  0  0  0  0  0  0  0  0  0
  152.5847  143.2761  159.9979 C   0  0  0  0  0  0  0  0  0  0  0  0
  152.0470  142.1991  159.2668 C   0  0  0  0  0  0  0  0  0  0  0  0
  152.1046  137.3158  156.7541 C   0  0  0  0  0  0  0  0  0  0  0  0
  152.7805  138.0980  157.4228 O   0  0  0  0  0  0  0  0  0  0  0  0
  151.7645  136.0660  157.2693 N   0  0  0  0  0  0  0  0  0  0  0  0
  151.0143  135.0897  156.6072 C   0  0  0  0  0  0  0  0  0  0  0  0
  150.7772  134.0219  157.1695 O   0  0  0  0  0  0  0  0  0  0  0  0
  152.0912  135.8452  158.1987 H   0  0  0  0  0  0  0  0  0  0  0  0
  149.4821  134.8236  153.4856 H   0  0  0  0  0  0  0  0  0  0  0  0
  148.8505  134.1793  154.9999 H   0  0  0  0  0  0  0  0  0  0  0  0
  150.3440  133.5275  154.3132 H   0  0  0  0  0  0  0  0  0  0  0  0
  150.5749  136.9242  153.7567 H   0  0  0  0  0  0  0  0  0  0  0  0
  152.4367  139.5228  155.6769 H   0  0  0  0  0  0  0  0  0  0  0  0
  152.8122  138.7243  154.1439 H   0  0  0  0  0  0  0  0  0  0  0  0
  149.0374  140.2236  154.8168 H   0  0  0  0  0  0  0  0  0  0  0  0
  149.8022  139.2197  156.0456 H   0  0  0  0  0  0  0  0  0  0  0  0
  150.6323  142.0846  155.3513 H   0  0  0  0  0  0  0  0  0  0  0  0
  150.8281  140.3384  157.8466 H   0  0  0  0  0  0  0  0  0  0  0  0
  151.0444  143.9145  156.4812 H   0  0  0  0  0  0  0  0  0  0  0  0
  151.9855  145.7884  157.7666 H   0  0  0  0  0  0  0  0  0  0  0  0
  152.9751  145.4017  160.0162 H   0  0  0  0  0  0  0  0  0  0  0  0
  153.0129  143.1050  160.9745 H   0  0  0  0  0  0  0  0  0  0  0  0
  152.0699  141.2081  159.6964 H   0  0  0  0  0  0  0  0  0  0  0  0
  1  2  1  0  0  0  0
  1 22  1  0  0  0  0
  1 23  1  0  0  0  0
  1 24  1  0  0  0  0
  2 19  1  0  0  0  0
  2  3  2  0  0  0  0
  3  4  1  0  0  0  0
  3 25  1  0  0  0  0
  4  5  1  0  0  0  0
  4 16  1  0  0  0  0
  5  6  1  0  0  0  0
  5 26  1  0  0  0  0
  5 27  1  0  0  0  0
  6  7  1  0  0  0  0
  7  8  1  0  0  0  0
  7 28  1  0  0  0  0
  7 29  1  0  0  0  0
  8  9  2  0  0  0  0
  8 30  1  0  0  0  0
  9 10  1  0  0  0  0
  9 31  1  0  0  0  0
 10 15  1  0  0  0  0
 10 11  2  0  0  0  0
 11 12  1  0  0  0  0
 11 32  1  0  0  0  0
 12 13  2  0  0  0  0
 12 33  1  0  0  0  0
 13 14  1  0  0  0  0
 13 34  1  0  0  0  0
 14 15  2  0  0  0  0
 14 35  1  0  0  0  0
 15 36  1  0  0  0  0
 16 17  2  0  0  0  0
 16 18  1  0  0  0  0
 18 21  1  0  0  0  0
 18 19  1  0  0  0  0
 19 20  2  0  0  0  0
M  END
> <s_m_source_file>
AV-unprocessed.smi

> <i_m_source_file_index>
2636

> <i_lp_mmshare_version>
43012

> <i_f3d_flags>
0

> <s_epik_input>
Tz1jMVtuSF1jKD1PKW4oW2NIXWMxW0NIM10pW0NIMl1PW0NIMl0vW0NIXT1bQ0hdL2MyW2NIXVtjSF1bY0hdW2NIXVtjSF0y

> <s_epik_cmdline>
J2VwaWtfcHl0aG9uJywgJy1waCcsICc3LjAnLCAnLXRuJywgJzgnLCAnLW1hJywgJzIwMCcsICctbWV0YWxfYmluZGluZycsICctaW1hZScsICc8aW5maWxlLm1hZT4nLCAnLW9tYWUnLCAnPG91dGZpbGUubWFlPic=

> <r_lp_tautomer_probability>
0.999537

> <r_epik_Ionization_Penalty>
0.00179702

> <r_epik_Ionization_Penalty_Charging>
0.00179702

> <r_epik_Ionization_Penalty_Neutral>
9.83266e-13

> <r_epik_State_Penalty>
0.00121868

> <r_epik_Charging_Adjusted_Penalty>
0.0030157

> <i_epik_Tot_Q>
0

> <i_epik_Tot_abs_Q>
0

> <r_epik_Metal_State_Penalty>
0.826903

> <b_epik_Metal_Only>
0

> <s_epik_Chemistry_Notes>
This compound contains an acetal/aminal-like group ( X-CH(R)-Y where X, Y are N, S, or O) that may be acid/base labile, releasing an aldehyde.

> <s_lp_Force_Field>
OPLS_2005

> <r_lp_Energy>
1.95272

> <b_lp_Chiralities_Consistent>
1

> <s_lp_Variant>
AV-unprocessed.smi:2636-1

> <Gold.Version>
5.8.1

> <Gold.Id.Protein>
6NUR|6NUR_protein|mol2

> <Gold.PLP.Fitness>
48.4662

> <Gold.PLP.PLP>
-40.7874

> <Gold.PLP.part.hbond>
-2.0000

> <Gold.PLP.part.metal>
0.0000

> <Gold.PLP.part.buried>
-4.5345

> <Gold.PLP.part.nonpolar>
-36.2416

> <Gold.PLP.part.repulsive>
0.3031

> <Gold.PLP.ligand.clash>
0.0000

> <Gold.PLP.ligand.torsion>
0.2620

> <Gold.PLP.Chemscore.Hbond>
1.5897

> <Gold.PLP.Chemscore.CHOScore>
1.1326

> <Gold.PLP.Chemscore.Metal>
0.0000

> <Gold.Chemscore.Hbonds>
donor molecule, donor type, donor heavy atom, donor atom, acceptor molecule, acceptor atom, score
      P1  H  6896  6908       L1    20  0.54
      P1  H  7989  7998       L1     6  1.00
      L1  C     3    25       P1  7948  0.54
      L1  C     3    25       P1  7949  0.59

> <Gold.PLP.Chemscore.Internal.Correction>
0.0360

> <Gold.Rescore>
     Score         DG    S(hbond)    S(metal)    S(lipo)     H(rot)  DE(clash)    DE(int)     intcor
     17.05     -17.61       1.45        0.00     104.40       1.92       0.28       0.28       ----

> <Gold.Chemscore.Fitness>
17.0477

> <Gold.Chemscore.DG>
-17.6126

> <Gold.Chemscore.ZeroCoef>
-5.4800

> <Gold.Chemscore.Hbond>
1.4483

> <Gold.Chemscore.Metal>
0.0000

> <Gold.Chemscore.Lipo>
104.3977

> <Gold.Chemscore.Internal_Hbond>
0.0000

> <Gold.Chemscore.DEClash>
0.2811

> <Gold.Chemscore.DEInternal>
0.2838

> <Gold.Chemscore.Rot>
1.9216

> <Gold.Chemscore.Internal.Correction>
   9.000000E+99

> <Gold.Chemscore.Hbonds>
donor molecule, donor type, donor heavy atom, donor atom, acceptor molecule, acceptor atom, score
      P1  H  6896  6908       L1    20  0.51
      P1  H  7989  7998       L1     6  0.21

> <Gold.Chemscore.Hbond.Weighted>
-4.8373

> <Gold.Chemscore.Metal.Weighted>
-0.0000

> <Gold.Chemscore.Lipo.Weighted>
-12.2145

> <Gold.Chemscore.Internal_Hbond.Weighted>
0.0000

> <Gold.Chemscore.DEClash.Weighted>
0.2811

> <Gold.Chemscore.DEInternal.Weighted>
0.2838

> <Gold.Chemscore.Rot.Weighted>
4.9193

> <Gold.Chemscore.Internal.Correction.Weighted>
   9.000000E+99

> <Gold.Protein.RotatedTorsions>
[ 6907 6896 6895 6894 ] final  112.22 input  -60.11 | X-H torsion
[ 7974 7965 7964 7962 ] final -178.62 input  175.53 | X-H torsion
[ 8008 7997 7996 7995 ] final  168.59 input   59.86 | X-H torsion
[ 10167 10162 10161 10158 ] final  -93.36 input  -65.29 | X-H torsion
[ 10718 10713 10712 10709 ] final -119.18 input   66.30 | X-H torsion
[ 10763 10752 10751 10750 ] final -154.07 input  -60.55 | X-H torsion
[ 11005 11000 10999 10996 ] final  -43.71 input  -57.11 | X-H torsion

> <Gold.Protein.ActiveResidues>
 VAL166  LYS551  ARG553  GLY616  TRP617  ASP618  TYR619  PRO620  LYS621  CYS622 
 ASP623  PHE694  ASN695  SER759  ASP760  ASP761  ALA762  ILE779  LEU786  VAL792 
 PHE793  MET794  SER795  GLU796  ALA797  LYS798  CYS799  TRP800  GLU811  SER814 

> <Gold.Protein.RotatedAtoms>
  152.4928  133.8546  159.7218 H   0  0  0  0  0  0  0  0  0  0  0  0  # atno 6907 bound_to 6896
  150.9074  133.7032  159.2870 H   0  0  0  0  0  0  0  0  0  0  0  0  # atno 6908 bound_to 6896
  151.4452  135.1028  159.9734 H   0  0  0  0  0  0  0  0  0  0  0  0  # atno 6909 bound_to 6896
  144.7132  140.0841  143.6424 H   0  0  0  0  0  0  0  0  0  0  0  0  # atno 7974 bound_to 7965
  156.1533  140.1586  156.8733 H   0  0  0  0  0  0  0  0  0  0  0  0  # atno 8008 bound_to 7997
  154.5092  140.0805  156.7992 H   0  0  0  0  0  0  0  0  0  0  0  0  # atno 8009 bound_to 7997
  155.3852  140.3407  155.4251 H   0  0  0  0  0  0  0  0  0  0  0  0  # atno 8010 bound_to 7997
  140.3254  143.3025  152.0001 H   0  0  0  0  0  0  0  0  0  0  0  0  # atno 10167 bound_to 10162
  156.1162  130.6287  150.9384 H   0  0  0  0  0  0  0  0  0  0  0  0  # atno 10718 bound_to 10713
  154.7884  135.3198  154.7833 H   0  0  0  0  0  0  0  0  0  0  0  0  # atno 10763 bound_to 10752
  153.8527  135.6860  153.4795 H   0  0  0  0  0  0  0  0  0  0  0  0  # atno 10764 bound_to 10752
  153.1545  135.4686  154.9624 H   0  0  0  0  0  0  0  0  0  0  0  0  # atno 10765 bound_to 10752
  141.0402  133.6783  156.2771 H   0  0  0  0  0  0  0  0  0  0  0  0  # atno 11005 bound_to 11000
  145.9676  139.2846  143.1118 LP  0  0  0  0  0  0  0  0  0  0  0  0  # atno 17320 bound_to 7965
  145.9151  140.9153  143.0434 LP  0  0  0  0  0  0  0  0  0  0  0  0  # atno 17321 bound_to 7965
  139.4866  144.6278  151.7130 LP  0  0  0  0  0  0  0  0  0  0  0  0  # atno 17342 bound_to 10162
  140.5446  144.0524  150.6102 LP  0  0  0  0  0  0  0  0  0  0  0  0  # atno 17343 bound_to 10162
  157.6345  131.0917  150.8376 LP  0  0  0  0  0  0  0  0  0  0  0  0  # atno 17370 bound_to 10713
  156.8479  130.5070  149.5314 LP  0  0  0  0  0  0  0  0  0  0  0  0  # atno 17371 bound_to 10713
  140.6248  134.5325  157.5552 LP  0  0  0  0  0  0  0  0  0  0  0  0  # atno 17394 bound_to 11000
  139.9270  134.8036  156.1039 LP  0  0  0  0  0  0  0  0  0  0  0  0  # atno 17395 bound_to 11000

$$$$
