AV-unprocessed.smi:1976|AV-procd|sdf|7984|dock1
  -GOLD-   2272010163D 1   1.00000     0.00000
 Structure written by MMmdl.
 45 47  0  0  0  0  0  0  0  0  2 V2000
  148.1612  140.2123  156.7014 O   0  0  0  0  0  0  0  0  0  0  0  0
  148.9000  139.9329  155.7566 C   0  0  0  0  0  0  0  0  0  0  0  0
  150.1552  140.7681  155.4693 C   0  0  0  0  0  0  0  0  0  0  0  0
  150.9683  141.0105  156.6726 N   0  0  0  0  0  0  0  0  0  0  0  0
  151.0508  142.3383  157.1366 C   0  0  0  0  0  0  0  0  0  0  0  0
  151.7633  142.6916  158.2238 C   0  0  0  0  0  0  0  0  0  0  0  0
  151.7792  144.1219  158.7409 C   0  0  0  0  0  0  0  0  0  0  0  0
  152.4180  144.2024  159.9084 F   0  0  0  0  0  0  0  0  0  0  0  0
  152.4062  144.9112  157.8698 F   0  0  0  0  0  0  0  0  0  0  0  0
  150.5413  144.5890  158.9076 F   0  0  0  0  0  0  0  0  0  0  0  0
  152.4353  141.6190  158.9310 C   0  0  0  0  0  0  0  0  0  0  0  0
  152.3550  140.3420  158.5086 C   0  0  0  0  0  0  0  0  0  0  0  0
  151.5874  139.9759  157.3163 C   0  0  0  0  0  0  0  0  0  0  0  0
  151.5031  138.8125  156.9213 O   0  0  0  0  0  0  0  0  0  0  0  0
  148.6570  138.9180  154.9138 N   0  0  0  0  0  0  0  0  0  0  0  0
  147.5196  138.0067  155.0144 C   0  0  1  0  0  0  0  0  0  0  0  0
  146.5694  138.0542  153.7991 C   0  0  0  0  0  0  0  0  0  0  0  0
  146.2250  136.5885  153.5152 C   0  0  0  0  0  0  0  0  0  0  0  0
  147.4486  135.8800  153.9090 N   0  3  2  0  0  0  0  0  0  0  0  0
  147.4084  134.4073  154.0155 C   0  0  0  0  0  0  0  0  0  0  0  0
  148.8426  133.8958  154.2730 C   0  0  0  0  0  0  0  0  0  0  0  0
  149.5124  134.6047  155.4726 C   0  0  0  0  0  0  0  0  0  0  0  0
  149.4102  136.1414  155.3599 C   0  0  0  0  0  0  0  0  0  0  0  0
  147.9367  136.5255  155.1399 C   0  0  1  0  0  0  0  0  0  0  0  0
  150.7571  140.2787  154.7009 H   0  0  0  0  0  0  0  0  0  0  0  0
  149.8395  141.7126  155.0244 H   0  0  0  0  0  0  0  0  0  0  0  0
  150.4836  143.0522  156.5571 H   0  0  0  0  0  0  0  0  0  0  0  0
  153.0160  141.8432  159.8136 H   0  0  0  0  0  0  0  0  0  0  0  0
  152.8701  139.5691  159.0600 H   0  0  0  0  0  0  0  0  0  0  0  0
  149.3124  138.7567  154.1627 H   0  0  0  0  0  0  0  0  0  0  0  0
  146.9586  138.2696  155.9136 H   0  0  0  0  0  0  0  0  0  0  0  0
  145.6833  138.6624  153.9838 H   0  0  0  0  0  0  0  0  0  0  0  0
  147.0824  138.4766  152.9336 H   0  0  0  0  0  0  0  0  0  0  0  0
  145.3918  136.2618  154.1397 H   0  0  0  0  0  0  0  0  0  0  0  0
  145.9676  136.4103  152.4708 H   0  0  0  0  0  0  0  0  0  0  0  0
  146.7372  134.1068  154.8215 H   0  0  0  0  0  0  0  0  0  0  0  0
  147.0166  133.9811  153.0912 H   0  0  0  0  0  0  0  0  0  0  0  0
  148.8312  132.8176  154.4346 H   0  0  0  0  0  0  0  0  0  0  0  0
  149.4464  134.0643  153.3803 H   0  0  0  0  0  0  0  0  0  0  0  0
  149.0303  134.2789  156.3954 H   0  0  0  0  0  0  0  0  0  0  0  0
  150.5573  134.3031  155.5504 H   0  0  0  0  0  0  0  0  0  0  0  0
  149.7958  136.6089  156.2667 H   0  0  0  0  0  0  0  0  0  0  0  0
  150.0254  136.4951  154.5314 H   0  0  0  0  0  0  0  0  0  0  0  0
  147.3586  136.1165  155.9717 H   0  0  0  0  0  0  0  0  0  0  0  0
  148.1261  136.0970  153.1919 H   0  0  0  0  0  0  0  0  0  0  0  0
  1  2  2  0  0  0  0
  2  3  1  0  0  0  0
  2 15  1  0  0  0  0
  3  4  1  0  0  0  0
  3 25  1  0  0  0  0
  3 26  1  0  0  0  0
  4 13  1  0  0  0  0
  4  5  1  0  0  0  0
  5  6  2  0  0  0  0
  5 27  1  0  0  0  0
  6  7  1  0  0  0  0
  6 11  1  0  0  0  0
  7  8  1  0  0  0  0
  7  9  1  0  0  0  0
  7 10  1  0  0  0  0
 11 12  2  0  0  0  0
 11 28  1  0  0  0  0
 12 13  1  0  0  0  0
 12 29  1  0  0  0  0
 13 14  2  0  0  0  0
 15 16  1  0  0  0  0
 15 30  1  0  0  0  0
 16 24  1  0  0  0  0
 16 17  1  0  0  0  0
 16 31  1  0  0  0  0
 17 18  1  0  0  0  0
 17 32  1  0  0  0  0
 17 33  1  0  0  0  0
 18 19  1  0  0  0  0
 18 34  1  0  0  0  0
 18 35  1  0  0  0  0
 19 24  1  0  0  0  0
 19 20  1  0  0  0  0
 19 45  1  0  0  0  0
 20 21  1  0  0  0  0
 20 36  1  0  0  0  0
 20 37  1  0  0  0  0
 21 22  1  0  0  0  0
 21 38  1  0  0  0  0
 21 39  1  0  0  0  0
 22 23  1  0  0  0  0
 22 40  1  0  0  0  0
 22 41  1  0  0  0  0
 23 24  1  0  0  0  0
 23 42  1  0  0  0  0
 23 43  1  0  0  0  0
 24 44  1  0  0  0  0
M  CHG  1  19   1
M  END
> <s_m_source_file>
AV-unprocessed.smi

> <i_m_source_file_index>
1976

> <i_lp_mmshare_version>
43012

> <i_f3d_flags>
0

> <s_epik_input>
W0NIMl0xW0NIMl1bQ0gyXVtDSDJdW0NASF0oTjEyKVtDQEBIXShbQ0gyXVtDSDJdMilbTkhdQyg9TylbQ0gyXW4zW2NIXWMoQyhGKShGKUYpW2NIXVtjSF1jMz1P

> <s_epik_cmdline>
J2VwaWtfcHl0aG9uJywgJy1waCcsICc3LjAnLCAnLXRuJywgJzgnLCAnLW1hJywgJzIwMCcsICctbWV0YWxfYmluZGluZycsICctaW1hZScsICc8aW5maWxlLm1hZT4nLCAnLW9tYWUnLCAnPG91dGZpbGUubWFlPic=

> <r_lp_tautomer_probability>
1

> <r_epik_Ionization_Penalty>
0.00171506

> <r_epik_Ionization_Penalty_Charging>
0.00171498

> <r_epik_Ionization_Penalty_Neutral>
7.81737e-08

> <r_epik_State_Penalty>
0.00115937

> <r_epik_Charging_Adjusted_Penalty>
0.00287436

> <i_epik_Tot_Q>
1

> <i_epik_Tot_abs_Q>
1

> <r_epik_Metal_State_Penalty>
-0

> <b_epik_Metal_Only>
0

> <s_lp_Force_Field>
OPLS_2005

> <r_lp_Energy>
52.9518

> <b_lp_Chiralities_Consistent>
1

> <s_lp_Variant>
AV-unprocessed.smi:1976-2

> <Gold.Version>
5.8.1

> <Gold.Id.Protein>
6NUR|6NUR_protein|mol2

> <Gold.PLP.Fitness>
46.9280

> <Gold.PLP.PLP>
-38.4499

> <Gold.PLP.part.hbond>
-1.0000

> <Gold.PLP.part.metal>
0.0000

> <Gold.PLP.part.buried>
-4.1336

> <Gold.PLP.part.nonpolar>
-33.2782

> <Gold.PLP.part.repulsive>
0.0218

> <Gold.PLP.ligand.clash>
0.0000

> <Gold.PLP.ligand.torsion>
0.2891

> <Gold.PLP.Chemscore.Hbond>
2.0000

> <Gold.PLP.Chemscore.CHOScore>
0.9918

> <Gold.PLP.Chemscore.Metal>
0.0000

> <Gold.Chemscore.Hbonds>
donor molecule, donor type, donor heavy atom, donor atom, acceptor molecule, acceptor atom, score
      L1  H    19    45       P1  7948  2.00
      L1  C     5    27       P1  8028  1.00

> <Gold.PLP.Chemscore.Internal.Correction>
0.0810

> <Gold.Rescore>
     Score         DG    S(hbond)    S(metal)    S(lipo)     H(rot)  DE(clash)    DE(int)     intcor
     13.28     -13.57       1.00        0.00      75.34       1.58       0.01       0.28       ----

> <Gold.Chemscore.Fitness>
13.2847

> <Gold.Chemscore.DG>
-13.5722

> <Gold.Chemscore.ZeroCoef>
-5.4800

> <Gold.Chemscore.Hbond>
0.9968

> <Gold.Chemscore.Metal>
0.0000

> <Gold.Chemscore.Lipo>
75.3427

> <Gold.Chemscore.Internal_Hbond>
0.0000

> <Gold.Chemscore.DEClash>
0.0059

> <Gold.Chemscore.DEInternal>
0.2815

> <Gold.Chemscore.Rot>
1.5830

> <Gold.Chemscore.Internal.Correction>
   9.000000E+99

> <Gold.Chemscore.Hbonds>
donor molecule, donor type, donor heavy atom, donor atom, acceptor molecule, acceptor atom, score
      L1  H    19    45       P1  7948  0.97

> <Gold.Chemscore.Hbond.Weighted>
-3.3294

> <Gold.Chemscore.Metal.Weighted>
-0.0000

> <Gold.Chemscore.Lipo.Weighted>
-8.8151

> <Gold.Chemscore.Internal_Hbond.Weighted>
0.0000

> <Gold.Chemscore.DEClash.Weighted>
0.0059

> <Gold.Chemscore.DEInternal.Weighted>
0.2815

> <Gold.Chemscore.Rot.Weighted>
4.0524

> <Gold.Chemscore.Internal.Correction.Weighted>
   9.000000E+99

> <Gold.Protein.RotatedTorsions>
[ 6907 6896 6895 6894 ] final -124.52 input  -60.11 | X-H torsion
[ 7974 7965 7964 7962 ] final -119.54 input  175.53 | X-H torsion
[ 8008 7997 7996 7995 ] final  -95.98 input   59.86 | X-H torsion
[ 10167 10162 10161 10158 ] final  -78.26 input  -65.29 | X-H torsion
[ 10718 10713 10712 10709 ] final -106.55 input   66.30 | X-H torsion
[ 10763 10752 10751 10750 ] final   38.86 input  -60.55 | X-H torsion
[ 11005 11000 10999 10996 ] final  118.44 input  -57.11 | X-H torsion

> <Gold.Protein.ActiveResidues>
 VAL166  LYS551  ARG553  GLY616  TRP617  ASP618  TYR619  PRO620  LYS621  CYS622 
 ASP623  PHE694  ASN695  SER759  ASP760  ASP761  ALA762  ILE779  LEU786  VAL792 
 PHE793  MET794  SER795  GLU796  ALA797  LYS798  CYS799  TRP800  GLU811  SER814 

> <Gold.Protein.RotatedAtoms>
  150.8777  133.7416  159.2941 H   0  0  0  0  0  0  0  0  0  0  0  0  # atno 6907 bound_to 6896
  151.5008  135.1060  159.9838 H   0  0  0  0  0  0  0  0  0  0  0  0  # atno 6908 bound_to 6896
  152.4738  133.8046  159.7027 H   0  0  0  0  0  0  0  0  0  0  0  0  # atno 6909 bound_to 6896
  145.0614  140.8293  143.4150 H   0  0  0  0  0  0  0  0  0  0  0  0  # atno 7974 bound_to 7965
  154.7684  140.0475  157.1031 H   0  0  0  0  0  0  0  0  0  0  0  0  # atno 8008 bound_to 7997
  154.9851  140.3106  155.4910 H   0  0  0  0  0  0  0  0  0  0  0  0  # atno 8009 bound_to 7997
  156.2917  140.2229  156.4952 H   0  0  0  0  0  0  0  0  0  0  0  0  # atno 8010 bound_to 7997
  140.4698  143.2430  151.8223 H   0  0  0  0  0  0  0  0  0  0  0  0  # atno 10167 bound_to 10162
  156.0395  130.5618  150.7697 H   0  0  0  0  0  0  0  0  0  0  0  0  # atno 10718 bound_to 10713
  152.9986  135.6237  154.2372 H   0  0  0  0  0  0  0  0  0  0  0  0  # atno 10763 bound_to 10752
  154.2113  135.2800  155.2959 H   0  0  0  0  0  0  0  0  0  0  0  0  # atno 10764 bound_to 10752
  154.5604  135.5707  153.7061 H   0  0  0  0  0  0  0  0  0  0  0  0  # atno 10765 bound_to 10752
  139.9110  134.9620  156.7503 H   0  0  0  0  0  0  0  0  0  0  0  0  # atno 11005 bound_to 11000
  145.1404  139.2576  143.5493 LP  0  0  0  0  0  0  0  0  0  0  0  0  # atno 17320 bound_to 7965
  146.3524  140.1080  142.8605 LP  0  0  0  0  0  0  0  0  0  0  0  0  # atno 17321 bound_to 7965
  139.4817  144.4906  151.9190 LP  0  0  0  0  0  0  0  0  0  0  0  0  # atno 17342 bound_to 10162
  140.3991  144.2516  150.5894 LP  0  0  0  0  0  0  0  0  0  0  0  0  # atno 17343 bound_to 10162
  157.5194  131.0930  151.0098 LP  0  0  0  0  0  0  0  0  0  0  0  0  # atno 17370 bound_to 10713
  157.0432  130.5757  149.5359 LP  0  0  0  0  0  0  0  0  0  0  0  0  # atno 17371 bound_to 10713
  140.6778  133.9501  155.7893 LP  0  0  0  0  0  0  0  0  0  0  0  0  # atno 17394 bound_to 11000
  141.0531  134.0455  157.3757 LP  0  0  0  0  0  0  0  0  0  0  0  0  # atno 17395 bound_to 11000

$$$$
