AV-unprocessed.smi:2687|AV-procd|sdf|10385|dock2
  -GOLD-   2272014413D 1   1.00000     0.00000
 Structure written by MMmdl.
 38 39  0  0  0  0  0  0  0  0  1 V2000
  153.2053  139.9422  158.3480 O   0  0  0  0  0  0  0  0  0  0  0  0
  152.1635  140.5970  158.3476 C   0  0  0  0  0  0  0  0  0  0  0  0
  151.8760  141.5460  159.5092 C   0  0  0  0  0  0  0  0  0  0  0  0
  152.8362  142.5889  159.4829 O   0  0  0  0  0  0  0  0  0  0  0  0
  152.4719  143.6939  160.2947 C   0  0  0  0  0  0  0  0  0  0  0  0
  151.8558  144.7921  159.4191 C   0  0  0  0  0  0  0  0  0  0  0  0
  151.8955  145.9511  160.0752 F   0  0  0  0  0  0  0  0  0  0  0  0
  152.5445  144.9193  158.2852 F   0  0  0  0  0  0  0  0  0  0  0  0
  150.5853  144.5012  159.1411 F   0  0  0  0  0  0  0  0  0  0  0  0
  151.2208  140.5331  157.3901 N   0  0  0  0  0  0  0  0  0  0  0  0
  151.2262  139.7532  156.1989 C   0  0  0  0  0  0  0  0  0  0  0  0
  152.3737  139.0591  155.7445 C   0  0  0  0  0  0  0  0  0  0  0  0
  152.3046  138.3331  154.5415 C   0  0  0  0  0  0  0  0  0  0  0  0
  151.0922  138.3339  153.8283 C   0  0  0  0  0  0  0  0  0  0  0  0
  149.9948  139.0017  154.2390 N   0  0  0  0  0  0  0  0  0  0  0  0
  150.0571  139.7018  155.3976 C   0  0  0  0  0  0  0  0  0  0  0  0
  148.8978  140.3859  155.8004 N   0  0  0  0  0  0  0  0  0  0  0  0
  148.3458  141.2585  154.7722 C   0  0  0  0  0  0  0  0  0  0  0  0
  147.1671  142.0641  155.3455 C   0  0  0  0  0  0  0  0  0  0  0  0
  146.1947  141.1725  155.8844 O   0  0  0  0  0  0  0  0  0  0  0  0
  146.7248  140.3742  156.9390 C   0  0  0  0  0  0  0  0  0  0  0  0
  147.8901  139.5241  156.4054 C   0  0  0  0  0  0  0  0  0  0  0  0
  150.8666  141.9547  159.4324 H   0  0  0  0  0  0  0  0  0  0  0  0
  151.9392  140.9904  160.4462 H   0  0  0  0  0  0  0  0  0  0  0  0
  151.7563  143.3793  161.0561 H   0  0  0  0  0  0  0  0  0  0  0  0
  153.3508  144.0819  160.8119 H   0  0  0  0  0  0  0  0  0  0  0  0
  150.3687  141.0444  157.5694 H   0  0  0  0  0  0  0  0  0  0  0  0
  153.3061  139.0844  156.2873 H   0  0  0  0  0  0  0  0  0  0  0  0
  153.1632  137.7935  154.1710 H   0  0  0  0  0  0  0  0  0  0  0  0
  151.0028  137.7890  152.9003 H   0  0  0  0  0  0  0  0  0  0  0  0
  149.1201  141.9340  154.4068 H   0  0  0  0  0  0  0  0  0  0  0  0
  148.0083  140.6625  153.9232 H   0  0  0  0  0  0  0  0  0  0  0  0
  147.5075  142.7565  156.1172 H   0  0  0  0  0  0  0  0  0  0  0  0
  146.7042  142.6630  154.5611 H   0  0  0  0  0  0  0  0  0  0  0  0
  147.0525  141.0107  157.7626 H   0  0  0  0  0  0  0  0  0  0  0  0
  145.9367  139.7294  157.3281 H   0  0  0  0  0  0  0  0  0  0  0  0
  147.5192  138.8126  155.6663 H   0  0  0  0  0  0  0  0  0  0  0  0
  148.3365  138.9465  157.2157 H   0  0  0  0  0  0  0  0  0  0  0  0
  1  2  2  0  0  0  0
  2  3  1  0  0  0  0
  2 10  1  0  0  0  0
  3  4  1  0  0  0  0
  3 23  1  0  0  0  0
  3 24  1  0  0  0  0
  4  5  1  0  0  0  0
  5  6  1  0  0  0  0
  5 25  1  0  0  0  0
  5 26  1  0  0  0  0
  6  7  1  0  0  0  0
  6  8  1  0  0  0  0
  6  9  1  0  0  0  0
 10 11  1  0  0  0  0
 10 27  1  0  0  0  0
 11 16  1  0  0  0  0
 11 12  2  0  0  0  0
 12 13  1  0  0  0  0
 12 28  1  0  0  0  0
 13 14  2  0  0  0  0
 13 29  1  0  0  0  0
 14 15  1  0  0  0  0
 14 30  1  0  0  0  0
 15 16  2  0  0  0  0
 16 17  1  0  0  0  0
 17 22  1  0  0  0  0
 17 18  1  0  0  0  0
 18 19  1  0  0  0  0
 18 31  1  0  0  0  0
 18 32  1  0  0  0  0
 19 20  1  0  0  0  0
 19 33  1  0  0  0  0
 19 34  1  0  0  0  0
 20 21  1  0  0  0  0
 21 22  1  0  0  0  0
 21 35  1  0  0  0  0
 21 36  1  0  0  0  0
 22 37  1  0  0  0  0
 22 38  1  0  0  0  0
M  END
> <s_m_source_file>
AV-unprocessed.smi

> <i_m_source_file_index>
2687

> <i_lp_mmshare_version>
43012

> <i_f3d_flags>
0

> <s_epik_input>
RkMoRikoRilbQ0gyXU9bQ0gyXUMoPU8pW05IXWMxW2NIXVtjSF1bY0hdbmMxTjJbQ0gyXVtDSDJdT1tDSDJdW0NIMl0y

> <s_epik_cmdline>
J2VwaWtfcHl0aG9uJywgJy1waCcsICc3LjAnLCAnLXRuJywgJzgnLCAnLW1hJywgJzIwMCcsICctbWV0YWxfYmluZGluZycsICctaW1hZScsICc8aW5maWxlLm1hZT4nLCAnLW9tYWUnLCAnPG91dGZpbGUubWFlPic=

> <r_lp_tautomer_probability>
1

> <r_epik_Ionization_Penalty>
0.00040187

> <r_epik_Ionization_Penalty_Charging>
0

> <r_epik_Ionization_Penalty_Neutral>
0.00040187

> <r_epik_State_Penalty>
0.000245652

> <r_epik_Charging_Adjusted_Penalty>
0.000245652

> <i_epik_Tot_Q>
0

> <i_epik_Tot_abs_Q>
0

> <r_epik_Metal_State_Penalty>
-0

> <b_epik_Metal_Only>
0

> <s_lp_Force_Field>
OPLS_2005

> <r_lp_Energy>
25.827

> <b_lp_Chiralities_Consistent>
1

> <s_lp_Variant>
AV-unprocessed.smi:2687-1

> <Gold.Version>
5.8.1

> <Gold.Id.Protein>
6NUR|6NUR_protein|mol2

> <Gold.PLP.Fitness>
46.9470

> <Gold.PLP.PLP>
-42.4861

> <Gold.PLP.part.hbond>
-1.0000

> <Gold.PLP.part.metal>
0.0000

> <Gold.PLP.part.buried>
-5.8512

> <Gold.PLP.part.nonpolar>
-35.0068

> <Gold.PLP.part.repulsive>
0.3547

> <Gold.PLP.ligand.clash>
0.0000

> <Gold.PLP.ligand.torsion>
0.9419

> <Gold.PLP.Chemscore.Hbond>
1.0000

> <Gold.PLP.Chemscore.CHOScore>
1.0453

> <Gold.PLP.Chemscore.Metal>
0.0000

> <Gold.Chemscore.Hbonds>
donor molecule, donor type, donor heavy atom, donor atom, acceptor molecule, acceptor atom, score
      P1  H  7997  8010       L1     1  1.00
      L1  C    14    30       P1  7948  0.04
      L1  C    14    30       P1  7949  1.00

> <Gold.PLP.Chemscore.Internal.Correction>
0.2087

> <Gold.Rescore>
     Score         DG    S(hbond)    S(metal)    S(lipo)     H(rot)  DE(clash)    DE(int)     intcor
      9.95     -12.67       0.98        0.00      77.46       2.01       0.81       1.90       ----

> <Gold.Chemscore.Fitness>
9.9527

> <Gold.Chemscore.DG>
-12.6715

> <Gold.Chemscore.ZeroCoef>
-5.4800

> <Gold.Chemscore.Hbond>
0.9835

> <Gold.Chemscore.Metal>
0.0000

> <Gold.Chemscore.Lipo>
77.4649

> <Gold.Chemscore.Internal_Hbond>
0.0000

> <Gold.Chemscore.DEClash>
0.8141

> <Gold.Chemscore.DEInternal>
1.9047

> <Gold.Chemscore.Rot>
2.0144

> <Gold.Chemscore.Internal.Correction>
   9.000000E+99

> <Gold.Chemscore.Hbonds>
donor molecule, donor type, donor heavy atom, donor atom, acceptor molecule, acceptor atom, score
      P1  H  7997  8010       L1     1  0.97

> <Gold.Chemscore.Hbond.Weighted>
-3.2849

> <Gold.Chemscore.Metal.Weighted>
-0.0000

> <Gold.Chemscore.Lipo.Weighted>
-9.0634

> <Gold.Chemscore.Internal_Hbond.Weighted>
0.0000

> <Gold.Chemscore.DEClash.Weighted>
0.8141

> <Gold.Chemscore.DEInternal.Weighted>
1.9047

> <Gold.Chemscore.Rot.Weighted>
5.1568

> <Gold.Chemscore.Internal.Correction.Weighted>
   9.000000E+99

> <Gold.Protein.RotatedTorsions>
[ 6907 6896 6895 6894 ] final -161.63 input  -60.11 | X-H torsion
[ 7974 7965 7964 7962 ] final -111.56 input  175.53 | X-H torsion
[ 8008 7997 7996 7995 ] final   38.58 input   59.86 | X-H torsion
[ 10167 10162 10161 10158 ] final   70.95 input  -65.29 | X-H torsion
[ 10718 10713 10712 10709 ] final -126.85 input   66.30 | X-H torsion
[ 10763 10752 10751 10750 ] final  -70.04 input  -60.55 | X-H torsion
[ 11005 11000 10999 10996 ] final  153.11 input  -57.11 | X-H torsion

> <Gold.Protein.ActiveResidues>
 VAL166  LYS551  ARG553  GLY616  TRP617  ASP618  TYR619  PRO620  LYS621  CYS622 
 ASP623  PHE694  ASN695  SER759  ASP760  ASP761  ALA762  ILE779  LEU786  VAL792 
 PHE793  MET794  SER795  GLU796  ALA797  LYS798  CYS799  TRP800  GLU811  SER814 

> <Gold.Protein.RotatedAtoms>
  151.3676  133.3866  159.2696 H   0  0  0  0  0  0  0  0  0  0  0  0  # atno 6907 bound_to 6896
  150.9676  134.9055  159.7779 H   0  0  0  0  0  0  0  0  0  0  0  0  # atno 6908 bound_to 6896
  152.5173  134.3637  159.9346 H   0  0  0  0  0  0  0  0  0  0  0  0  # atno 6909 bound_to 6896
  145.1546  140.8847  143.3626 H   0  0  0  0  0  0  0  0  0  0  0  0  # atno 7974 bound_to 7965
  155.2225  140.3332  155.4314 H   0  0  0  0  0  0  0  0  0  0  0  0  # atno 8008 bound_to 7997
  156.2328  140.1858  156.7246 H   0  0  0  0  0  0  0  0  0  0  0  0  # atno 8009 bound_to 7997
  154.6006  140.0623  156.9349 H   0  0  0  0  0  0  0  0  0  0  0  0  # atno 8010 bound_to 7997
  140.0514  144.5308  150.7360 H   0  0  0  0  0  0  0  0  0  0  0  0  # atno 10167 bound_to 10162
  156.1803  130.6727  151.0295 H   0  0  0  0  0  0  0  0  0  0  0  0  # atno 10718 bound_to 10713
  154.4121  135.6006  153.5959 H   0  0  0  0  0  0  0  0  0  0  0  0  # atno 10763 bound_to 10752
  152.9790  135.5932  154.4058 H   0  0  0  0  0  0  0  0  0  0  0  0  # atno 10764 bound_to 10752
  154.3871  135.2841  155.2155 H   0  0  0  0  0  0  0  0  0  0  0  0  # atno 10765 bound_to 10752
  140.1369  134.8765  157.2278 H   0  0  0  0  0  0  0  0  0  0  0  0  # atno 11005 bound_to 11000
  145.0394  139.3273  143.5984 LP  0  0  0  0  0  0  0  0  0  0  0  0  # atno 17320 bound_to 7965
  146.3490  139.9762  142.8701 LP  0  0  0  0  0  0  0  0  0  0  0  0  # atno 17321 bound_to 7965
  140.7215  143.2593  151.4264 LP  0  0  0  0  0  0  0  0  0  0  0  0  # atno 17342 bound_to 10162
  139.5950  144.1416  152.2133 LP  0  0  0  0  0  0  0  0  0  0  0  0  # atno 17343 bound_to 10162
  157.6863  131.0823  150.7232 LP  0  0  0  0  0  0  0  0  0  0  0  0  # atno 17370 bound_to 10713
  156.7290  130.4703  149.5504 LP  0  0  0  0  0  0  0  0  0  0  0  0  # atno 17371 bound_to 10713
  140.2772  134.3392  155.7354 LP  0  0  0  0  0  0  0  0  0  0  0  0  # atno 17394 bound_to 11000
  141.2179  133.7457  156.9310 LP  0  0  0  0  0  0  0  0  0  0  0  0  # atno 17395 bound_to 11000

$$$$
