AV-unprocessed.smi:2976|AV-procd|sdf|11361|dock1
  -GOLD-   2272016273D 1   1.00000     0.00000
 Structure written by MMmdl.
 40 41  0  0  0  0  0  0  0  0  1 V2000
  151.8691  145.5262  160.3199 C   0  0  0  0  0  0  0  0  0  0  0  0
  152.1838  144.4368  159.2779 C   0  0  2  0  0  0  0  0  0  0  0  0
  151.2564  144.6103  158.0582 C   0  0  0  0  0  0  0  0  0  0  0  0
  151.5419  143.5709  156.9689 C   0  0  0  0  0  0  0  0  0  0  0  0
  151.4074  142.1528  157.5310 C   0  0  0  0  0  0  0  0  0  0  0  0
  152.3381  141.9399  158.7377 C   0  0  2  0  0  0  0  0  0  0  0  0
  152.1355  140.5833  159.2457 N   0  0  0  0  0  0  0  0  0  0  0  0
  153.0631  139.6145  159.2992 C   0  0  0  0  0  0  0  0  0  0  0  0
  154.2163  139.7538  158.8897 O   0  0  0  0  0  0  0  0  0  0  0  0
  152.6068  138.2773  159.8995 C   0  0  0  0  0  0  0  0  0  0  0  0
  153.5547  137.7419  160.8876 N   0  0  0  0  0  0  0  0  0  0  0  0
  153.7620  138.5682  161.9783 N   0  0  0  0  0  0  0  0  0  0  0  0
  154.5539  138.1878  162.9208 C   0  0  0  0  0  0  0  0  0  0  0  0
  155.2469  136.9189  162.8798 C   0  0  0  0  0  0  0  0  0  0  0  0
  156.2960  136.4618  164.1754 Cl  0  0  0  0  0  0  0  0  0  0  0  0
  155.0437  136.1202  161.8017 C   0  0  0  0  0  0  0  0  0  0  0  0
  155.8395  134.5882  161.6805 Cl  0  0  0  0  0  0  0  0  0  0  0  0
  154.1474  136.5210  160.7082 C   0  0  0  0  0  0  0  0  0  0  0  0
  153.9376  135.8258  159.7129 O   0  0  0  0  0  0  0  0  0  0  0  0
  152.0932  142.9940  159.8527 C   0  0  1  0  0  0  0  0  0  0  0  0
  153.0582  142.7834  161.0409 C   0  0  0  0  0  0  0  0  0  0  0  0
  150.8886  145.3726  160.7713 H   0  0  0  0  0  0  0  0  0  0  0  0
  151.8701  146.5158  159.8620 H   0  0  0  0  0  0  0  0  0  0  0  0
  152.6088  145.5525  161.1194 H   0  0  0  0  0  0  0  0  0  0  0  0
  153.2075  144.5984  158.9365 H   0  0  0  0  0  0  0  0  0  0  0  0
  150.2144  144.5305  158.3717 H   0  0  0  0  0  0  0  0  0  0  0  0
  151.3752  145.6102  157.6391 H   0  0  0  0  0  0  0  0  0  0  0  0
  150.8538  143.7071  156.1343 H   0  0  0  0  0  0  0  0  0  0  0  0
  152.5468  143.7176  156.5710 H   0  0  0  0  0  0  0  0  0  0  0  0
  150.3712  141.9761  157.8237 H   0  0  0  0  0  0  0  0  0  0  0  0
  151.6365  141.4275  156.7492 H   0  0  0  0  0  0  0  0  0  0  0  0
  153.3648  142.0591  158.3858 H   0  0  0  0  0  0  0  0  0  0  0  0
  151.2154  140.3702  159.6025 H   0  0  0  0  0  0  0  0  0  0  0  0
  151.6208  138.3902  160.3547 H   0  0  0  0  0  0  0  0  0  0  0  0
  152.4715  137.5694  159.0798 H   0  0  0  0  0  0  0  0  0  0  0  0
  154.7440  138.8028  163.8005 H   0  0  0  0  0  0  0  0  0  0  0  0
  151.0787  142.8503  160.2283 H   0  0  0  0  0  0  0  0  0  0  0  0
  154.0936  142.9485  160.7414 H   0  0  0  0  0  0  0  0  0  0  0  0
  152.9906  141.7745  161.4471 H   0  0  0  0  0  0  0  0  0  0  0  0
  152.8376  143.4554  161.8689 H   0  0  0  0  0  0  0  0  0  0  0  0
  1  2  1  0  0  0  0
  1 22  1  0  0  0  0
  1 23  1  0  0  0  0
  1 24  1  0  0  0  0
  2 20  1  0  0  0  0
  2  3  1  0  0  0  0
  2 25  1  0  0  0  0
  3  4  1  0  0  0  0
  3 26  1  0  0  0  0
  3 27  1  0  0  0  0
  4  5  1  0  0  0  0
  4 28  1  0  0  0  0
  4 29  1  0  0  0  0
  5  6  1  0  0  0  0
  5 30  1  0  0  0  0
  5 31  1  0  0  0  0
  6  7  1  0  0  0  0
  6 20  1  0  0  0  0
  6 32  1  0  0  0  0
  7  8  1  0  0  0  0
  7 33  1  0  0  0  0
  8  9  2  0  0  0  0
  8 10  1  0  0  0  0
 10 11  1  0  0  0  0
 10 34  1  0  0  0  0
 10 35  1  0  0  0  0
 11 18  1  0  0  0  0
 11 12  1  0  0  0  0
 12 13  2  0  0  0  0
 13 14  1  0  0  0  0
 13 36  1  0  0  0  0
 14 15  1  0  0  0  0
 14 16  2  0  0  0  0
 16 17  1  0  0  0  0
 16 18  1  0  0  0  0
 18 19  2  0  0  0  0
 20 21  1  0  0  0  0
 20 37  1  0  0  0  0
 21 38  1  0  0  0  0
 21 39  1  0  0  0  0
 21 40  1  0  0  0  0
M  END
> <s_m_source_file>
AV-unprocessed.smi

> <i_m_source_file_index>
2976

> <i_lp_mmshare_version>
43012

> <i_f3d_flags>
0

> <s_epik_input>
W0NIM11bQ0BASF0xW0NIMl1bQ0gyXVtDSDJdW0NASF0oW0NASF0xW0NIM10pW05IXUMoPU8pW0NIMl1uMm5bY0hdYyhDbCljKENsKWMyPU8=

> <s_epik_cmdline>
J2VwaWtfcHl0aG9uJywgJy1waCcsICc3LjAnLCAnLXRuJywgJzgnLCAnLW1hJywgJzIwMCcsICctbWV0YWxfYmluZGluZycsICctaW1hZScsICc8aW5maWxlLm1hZT4nLCAnLW9tYWUnLCAnPG91dGZpbGUubWFlPic=

> <r_lp_tautomer_probability>
1

> <r_epik_Ionization_Penalty>
1.90777e-08

> <r_epik_Ionization_Penalty_Charging>
3.07942e-11

> <r_epik_Ionization_Penalty_Neutral>
1.90469e-08

> <r_epik_State_Penalty>
-0

> <r_epik_Charging_Adjusted_Penalty>
3.07942e-11

> <i_epik_Tot_Q>
0

> <i_epik_Tot_abs_Q>
0

> <r_epik_Metal_State_Penalty>
-0

> <b_epik_Metal_Only>
0

> <s_lp_Force_Field>
OPLS_2005

> <r_lp_Energy>
26.5415

> <b_lp_Chiralities_Consistent>
1

> <s_lp_Variant>
AV-unprocessed.smi:2976-3

> <Gold.Version>
5.8.1

> <Gold.Id.Protein>
6NUR|6NUR_protein|mol2

> <Gold.PLP.Fitness>
44.3615

> <Gold.PLP.PLP>
-38.6501

> <Gold.PLP.part.hbond>
-2.0000

> <Gold.PLP.part.metal>
0.0000

> <Gold.PLP.part.buried>
-4.0514

> <Gold.PLP.part.nonpolar>
-32.3102

> <Gold.PLP.part.repulsive>
0.1396

> <Gold.PLP.ligand.clash>
0.0000

> <Gold.PLP.ligand.torsion>
0.1477

> <Gold.PLP.Chemscore.Hbond>
2.0000

> <Gold.PLP.Chemscore.CHOScore>
0.0000

> <Gold.PLP.Chemscore.Metal>
0.0000

> <Gold.Chemscore.Hbonds>
donor molecule, donor type, donor heavy atom, donor atom, acceptor molecule, acceptor atom, score
      P1  H  6896  6908       L1    19  1.00
      P1  H  7997  8008       L1     9  1.00

> <Gold.PLP.Chemscore.Internal.Correction>
0.0067

> <Gold.Rescore>
     Score         DG    S(hbond)    S(metal)    S(lipo)     H(rot)  DE(clash)    DE(int)     intcor
     21.63     -21.91       1.95        0.00     117.42       1.49       0.18       0.11       ----

> <Gold.Chemscore.Fitness>
21.6271

> <Gold.Chemscore.DG>
-21.9105

> <Gold.Chemscore.ZeroCoef>
-5.4800

> <Gold.Chemscore.Hbond>
1.9455

> <Gold.Chemscore.Metal>
0.0000

> <Gold.Chemscore.Lipo>
117.4208

> <Gold.Chemscore.Internal_Hbond>
0.0000

> <Gold.Chemscore.DEClash>
0.1761

> <Gold.Chemscore.DEInternal>
0.1073

> <Gold.Chemscore.Rot>
1.4866

> <Gold.Chemscore.Internal.Correction>
   9.000000E+99

> <Gold.Chemscore.Hbonds>
donor molecule, donor type, donor heavy atom, donor atom, acceptor molecule, acceptor atom, score
      P1  H  6896  6908       L1    19  0.82
      P1  H  7997  8008       L1     9  0.98

> <Gold.Chemscore.Hbond.Weighted>
-6.4979

> <Gold.Chemscore.Metal.Weighted>
-0.0000

> <Gold.Chemscore.Lipo.Weighted>
-13.7382

> <Gold.Chemscore.Internal_Hbond.Weighted>
0.0000

> <Gold.Chemscore.DEClash.Weighted>
0.1761

> <Gold.Chemscore.DEInternal.Weighted>
0.1073

> <Gold.Chemscore.Rot.Weighted>
3.8057

> <Gold.Chemscore.Internal.Correction.Weighted>
   9.000000E+99

> <Gold.Protein.RotatedTorsions>
[ 6907 6896 6895 6894 ] final  -56.05 input  -60.11 | X-H torsion
[ 7974 7965 7964 7962 ] final   35.42 input  175.53 | X-H torsion
[ 8008 7997 7996 7995 ] final  -98.34 input   59.86 | X-H torsion
[ 10167 10162 10161 10158 ] final  -26.62 input  -65.29 | X-H torsion
[ 10718 10713 10712 10709 ] final -127.73 input   66.30 | X-H torsion
[ 10763 10752 10751 10750 ] final  145.91 input  -60.55 | X-H torsion
[ 11005 11000 10999 10996 ] final  -69.22 input  -57.11 | X-H torsion

> <Gold.Protein.ActiveResidues>
 VAL166  LYS551  ARG553  GLY616  TRP617  ASP618  TYR619  PRO620  LYS621  CYS622 
 ASP623  PHE694  ASN695  SER759  ASP760  ASP761  ALA762  ILE779  LEU786  VAL792 
 PHE793  MET794  SER795  GLU796  ALA797  LYS798  CYS799  TRP800  GLU811  SER814 

> <Gold.Protein.RotatedAtoms>
  150.8199  134.7402  159.6763 H   0  0  0  0  0  0  0  0  0  0  0  0  # atno 6907 bound_to 6896
  152.4316  134.5764  159.9945 H   0  0  0  0  0  0  0  0  0  0  0  0  # atno 6908 bound_to 6896
  151.5951  133.3325  159.3071 H   0  0  0  0  0  0  0  0  0  0  0  0  # atno 6909 bound_to 6896
  146.1284  139.6144  142.9243 H   0  0  0  0  0  0  0  0  0  0  0  0  # atno 7974 bound_to 7965
  154.7999  140.0456  157.1265 H   0  0  0  0  0  0  0  0  0  0  0  0  # atno 8008 bound_to 7997
  154.9491  140.3063  155.5064 H   0  0  0  0  0  0  0  0  0  0  0  0  # atno 8009 bound_to 7997
  156.2960  140.2291  156.4567 H   0  0  0  0  0  0  0  0  0  0  0  0  # atno 8010 bound_to 7997
  140.7282  143.4163  151.1023 H   0  0  0  0  0  0  0  0  0  0  0  0  # atno 10167 bound_to 10162
  156.1884  130.6779  151.0393 H   0  0  0  0  0  0  0  0  0  0  0  0  # atno 10718 bound_to 10713
  154.0132  135.2912  155.3390 H   0  0  0  0  0  0  0  0  0  0  0  0  # atno 10763 bound_to 10752
  154.7091  135.5157  153.8642 H   0  0  0  0  0  0  0  0  0  0  0  0  # atno 10764 bound_to 10752
  153.0714  135.6649  154.0361 H   0  0  0  0  0  0  0  0  0  0  0  0  # atno 10765 bound_to 10752
  141.1549  133.6759  156.6566 H   0  0  0  0  0  0  0  0  0  0  0  0  # atno 11005 bound_to 11000
  145.5315  141.0426  143.2380 LP  0  0  0  0  0  0  0  0  0  0  0  0  # atno 17320 bound_to 7965
  144.7665  139.6833  143.7212 LP  0  0  0  0  0  0  0  0  0  0  0  0  # atno 17321 bound_to 7965
  139.7803  143.8365  152.3136 LP  0  0  0  0  0  0  0  0  0  0  0  0  # atno 17342 bound_to 10162
  139.8314  144.7252  150.9446 LP  0  0  0  0  0  0  0  0  0  0  0  0  # atno 17343 bound_to 10162
  157.6913  131.0809  150.7098 LP  0  0  0  0  0  0  0  0  0  0  0  0  # atno 17370 bound_to 10713
  156.7154  130.4664  149.5536 LP  0  0  0  0  0  0  0  0  0  0  0  0  # atno 17371 bound_to 10713
  140.3279  134.7953  157.4304 LP  0  0  0  0  0  0  0  0  0  0  0  0  # atno 17394 bound_to 11000
  140.1041  134.5433  155.8325 LP  0  0  0  0  0  0  0  0  0  0  0  0  # atno 17395 bound_to 11000

$$$$
