AV-unprocessed.smi:653|AV-procd|sdf|3208|dock9
  -GOLD-   22720 0143D 1   1.00000     0.00000
 Structure written by MMmdl.
 45 46  0  0  0  0  0  0  0  0  2 V2000
  143.6990  131.8592  150.4306 C   0  0  0  0  0  0  0  0  0  0  0  0
  144.3265  133.1997  150.7503 C   0  0  0  0  0  0  0  0  0  0  0  0
  145.5906  133.3102  151.3678 C   0  0  0  0  0  0  0  0  0  0  0  0
  146.1180  134.5910  151.6334 C   0  0  0  0  0  0  0  0  0  0  0  0
  145.3715  135.7361  151.2770 C   0  0  0  0  0  0  0  0  0  0  0  0
  145.9136  137.1290  151.5468 C   0  0  0  0  0  0  0  0  0  0  0  0
  146.1198  137.3474  153.0475 C   0  0  0  0  0  0  0  0  0  0  0  0
  145.1483  137.4983  153.7887 O   0  0  0  0  0  0  0  0  0  0  0  0
  147.3889  137.3605  153.4831 N   0  0  0  0  0  0  0  0  0  0  0  0
  147.7936  137.5531  154.8714 C   0  0  0  0  0  0  0  0  0  0  0  0
  148.6440  138.8258  155.0547 C   0  0  2  0  0  0  0  0  0  0  0  0
  147.9969  140.0916  154.5257 C   0  0  0  0  0  0  0  0  0  0  0  0
  149.1960  141.0245  154.3969 C   0  0  0  0  0  0  0  0  0  0  0  0
  150.2976  140.1888  154.0562 O   0  0  0  0  0  0  0  0  0  0  0  0
  149.9611  138.8181  154.2649 C   0  0  1  0  0  0  0  0  0  0  0  0
  151.1357  138.0441  154.9071 C   0  0  0  0  0  0  0  0  0  0  0  0
  152.4958  138.3322  154.2453 C   0  0  0  0  0  0  0  0  0  0  0  0
  150.8516  136.5339  154.9213 C   0  0  0  0  0  0  0  0  0  0  0  0
  144.1125  135.5636  150.6618 C   0  0  0  0  0  0  0  0  0  0  0  0
  143.6431  134.3194  150.4228 N   0  3  0  0  0  0  0  0  0  0  0  0
  144.1101  131.0762  151.0684 H   0  0  0  0  0  0  0  0  0  0  0  0
  143.8908  131.5913  149.3914 H   0  0  0  0  0  0  0  0  0  0  0  0
  142.6200  131.8894  150.5855 H   0  0  0  0  0  0  0  0  0  0  0  0
  146.1523  132.4265  151.6342 H   0  0  0  0  0  0  0  0  0  0  0  0
  147.0866  134.6910  152.1014 H   0  0  0  0  0  0  0  0  0  0  0  0
  146.8500  137.2669  151.0037 H   0  0  0  0  0  0  0  0  0  0  0  0
  145.2175  137.8799  151.1707 H   0  0  0  0  0  0  0  0  0  0  0  0
  148.1273  137.2332  152.8062 H   0  0  0  0  0  0  0  0  0  0  0  0
  146.9098  137.5913  155.5100 H   0  0  0  0  0  0  0  0  0  0  0  0
  148.3584  136.6744  155.1845 H   0  0  0  0  0  0  0  0  0  0  0  0
  148.8493  138.9754  156.1142 H   0  0  0  0  0  0  0  0  0  0  0  0
  147.5543  139.9145  153.5445 H   0  0  0  0  0  0  0  0  0  0  0  0
  147.2229  140.4871  155.1844 H   0  0  0  0  0  0  0  0  0  0  0  0
  149.0404  141.8044  153.6512 H   0  0  0  0  0  0  0  0  0  0  0  0
  149.4083  141.5058  155.3525 H   0  0  0  0  0  0  0  0  0  0  0  0
  149.7576  138.3993  153.2777 H   0  0  0  0  0  0  0  0  0  0  0  0
  151.2083  138.3591  155.9486 H   0  0  0  0  0  0  0  0  0  0  0  0
  152.4878  138.0693  153.1872 H   0  0  0  0  0  0  0  0  0  0  0  0
  153.2891  137.7545  154.7201 H   0  0  0  0  0  0  0  0  0  0  0  0
  152.7774  139.3812  154.3268 H   0  0  0  0  0  0  0  0  0  0  0  0
  150.7650  136.1369  153.9095 H   0  0  0  0  0  0  0  0  0  0  0  0
  149.9221  136.3122  155.4464 H   0  0  0  0  0  0  0  0  0  0  0  0
  151.6493  135.9877  155.4256 H   0  0  0  0  0  0  0  0  0  0  0  0
  143.4725  136.3767  150.3517 H   0  0  0  0  0  0  0  0  0  0  0  0
  142.7322  134.2200  149.9742 H   0  0  0  0  0  0  0  0  0  0  0  0
  1  2  1  0  0  0  0
  1 21  1  0  0  0  0
  1 22  1  0  0  0  0
  1 23  1  0  0  0  0
  2 20  1  0  0  0  0
  2  3  2  0  0  0  0
  3  4  1  0  0  0  0
  3 24  1  0  0  0  0
  4  5  2  0  0  0  0
  4 25  1  0  0  0  0
  5  6  1  0  0  0  0
  5 19  1  0  0  0  0
  6  7  1  0  0  0  0
  6 26  1  0  0  0  0
  6 27  1  0  0  0  0
  7  8  2  0  0  0  0
  7  9  1  0  0  0  0
  9 10  1  0  0  0  0
  9 28  1  0  0  0  0
 10 11  1  0  0  0  0
 10 29  1  0  0  0  0
 10 30  1  0  0  0  0
 11 15  1  0  0  0  0
 11 12  1  0  0  0  0
 11 31  1  0  0  0  0
 12 13  1  0  0  0  0
 12 32  1  0  0  0  0
 12 33  1  0  0  0  0
 13 14  1  0  0  0  0
 13 34  1  0  0  0  0
 13 35  1  0  0  0  0
 14 15  1  0  0  0  0
 15 16  1  0  0  0  0
 15 36  1  0  0  0  0
 16 17  1  0  0  0  0
 16 18  1  0  0  0  0
 16 37  1  0  0  0  0
 17 38  1  0  0  0  0
 17 39  1  0  0  0  0
 17 40  1  0  0  0  0
 18 41  1  0  0  0  0
 18 42  1  0  0  0  0
 18 43  1  0  0  0  0
 19 20  2  0  0  0  0
 19 44  1  0  0  0  0
 20 45  1  0  0  0  0
M  CHG  1  20   1
M  END
> <s_m_source_file>
AV-unprocessed.smi

> <i_m_source_file_index>
653

> <i_lp_mmshare_version>
43012

> <i_f3d_flags>
0

> <s_epik_input>
W0NIM11jMVtjSF1bY0hdYyhbY0hdbjEpW0NIMl1DKD1PKVtOSF1bQ0gyXVtDQEBIXTJbQ0gyXVtDSDJdT1tDQEhdMltDSF0oW0NIM10pW0NIM10=

> <s_epik_cmdline>
J2VwaWtfcHl0aG9uJywgJy1waCcsICc3LjAnLCAnLXRuJywgJzgnLCAnLW1hJywgJzIwMCcsICctbWV0YWxfYmluZGluZycsICctaW1hZScsICc8aW5maWxlLm1hZT4nLCAnLW9tYWUnLCAnPG91dGZpbGUubWFlPic=

> <r_epik_Ionization_Penalty>
2.12486

> <r_epik_Ionization_Penalty_Charging>
2.12486

> <r_epik_Ionization_Penalty_Neutral>
9.0873e-08

> <r_epik_State_Penalty>
2.26279

> <r_epik_Charging_Adjusted_Penalty>
4.38765

> <i_epik_Tot_Q>
1

> <i_epik_Tot_abs_Q>
1

> <r_epik_Metal_State_Penalty>
2.27914

> <b_epik_Metal_Only>
0

> <s_lp_Force_Field>
OPLS_2005

> <r_lp_Energy>
26.2023

> <b_lp_Chiralities_Consistent>
1

> <s_lp_Variant>
AV-unprocessed.smi:653-5

> <Gold.Version>
5.8.1

> <Gold.Id.Protein>
6NUR|6NUR_protein|mol2

> <Gold.PLP.Fitness>
47.2581

> <Gold.PLP.PLP>
-35.8322

> <Gold.PLP.part.hbond>
-2.9613

> <Gold.PLP.part.metal>
0.0000

> <Gold.PLP.part.buried>
-2.0549

> <Gold.PLP.part.nonpolar>
-32.1248

> <Gold.PLP.part.repulsive>
1.0144

> <Gold.PLP.ligand.clash>
0.0000

> <Gold.PLP.ligand.torsion>
0.2866

> <Gold.PLP.Chemscore.Hbond>
3.9920

> <Gold.PLP.Chemscore.CHOScore>
0.0000

> <Gold.PLP.Chemscore.Metal>
0.0000

> <Gold.Chemscore.Hbonds>
donor molecule, donor type, donor heavy atom, donor atom, acceptor molecule, acceptor atom, score
      L1  H     9    28       P1  7948  0.98
      L1  H    20    45       P1 10186  2.00
      P1  H  7989  7998       L1    14  0.98

> <Gold.PLP.Chemscore.Internal.Correction>
0.0232

> <Gold.Rescore>
     Score         DG    S(hbond)    S(metal)    S(lipo)     H(rot)  DE(clash)    DE(int)     intcor
     20.97     -21.80       2.85        0.00      92.59       1.57       0.53       0.29       ----

> <Gold.Chemscore.Fitness>
20.9720

> <Gold.Chemscore.DG>
-21.7992

> <Gold.Chemscore.ZeroCoef>
-5.4800

> <Gold.Chemscore.Hbond>
2.8459

> <Gold.Chemscore.Metal>
0.0000

> <Gold.Chemscore.Lipo>
92.5923

> <Gold.Chemscore.Internal_Hbond>
0.0000

> <Gold.Chemscore.DEClash>
0.5322

> <Gold.Chemscore.DEInternal>
0.2949

> <Gold.Chemscore.Rot>
1.5701

> <Gold.Chemscore.Internal.Correction>
   9.000000E+99

> <Gold.Chemscore.Hbonds>
donor molecule, donor type, donor heavy atom, donor atom, acceptor molecule, acceptor atom, score
      L1  H     9    28       P1  7948  0.92
      L1  H    20    45       P1 10186  0.98
      P1  H  7989  7998       L1    14  0.86

> <Gold.Chemscore.Hbond.Weighted>
-9.5055

> <Gold.Chemscore.Metal.Weighted>
-0.0000

> <Gold.Chemscore.Lipo.Weighted>
-10.8333

> <Gold.Chemscore.Internal_Hbond.Weighted>
0.0000

> <Gold.Chemscore.DEClash.Weighted>
0.5322

> <Gold.Chemscore.DEInternal.Weighted>
0.2949

> <Gold.Chemscore.Rot.Weighted>
4.0196

> <Gold.Chemscore.Internal.Correction.Weighted>
   9.000000E+99

> <Gold.Protein.RotatedTorsions>
[ 6907 6896 6895 6894 ] final  -85.83 input  -60.11 | X-H torsion
[ 7974 7965 7964 7962 ] final  -20.91 input  175.53 | X-H torsion
[ 8008 7997 7996 7995 ] final -160.60 input   59.86 | X-H torsion
[ 10167 10162 10161 10158 ] final  108.95 input  -65.29 | X-H torsion
[ 10718 10713 10712 10709 ] final   39.44 input   66.30 | X-H torsion
[ 10763 10752 10751 10750 ] final   74.89 input  -60.55 | X-H torsion
[ 11005 11000 10999 10996 ] final  161.36 input  -57.11 | X-H torsion

> <Gold.Protein.ActiveResidues>
 VAL166  LYS551  ARG553  GLY616  TRP617  ASP618  TYR619  PRO620  LYS621  CYS622 
 ASP623  PHE694  ASN695  SER759  ASP760  ASP761  ALA762  ILE779  LEU786  VAL792 
 PHE793  MET794  SER795  GLU796  ALA797  LYS798  CYS799  TRP800  GLU811  SER814 

> <Gold.Protein.RotatedAtoms>
  150.6869  134.3144  159.4759 H   0  0  0  0  0  0  0  0  0  0  0  0  # atno 6907 bound_to 6896
  152.1027  134.9328  160.0578 H   0  0  0  0  0  0  0  0  0  0  0  0  # atno 6908 bound_to 6896
  152.0601  133.4023  159.4451 H   0  0  0  0  0  0  0  0  0  0  0  0  # atno 6909 bound_to 6896
  146.1762  140.4267  142.8512 H   0  0  0  0  0  0  0  0  0  0  0  0  # atno 7974 bound_to 7965
  155.7798  140.0863  157.2065 H   0  0  0  0  0  0  0  0  0  0  0  0  # atno 8008 bound_to 7997
  154.3991  140.1510  156.3096 H   0  0  0  0  0  0  0  0  0  0  0  0  # atno 8009 bound_to 7997
  155.8665  140.3427  155.5794 H   0  0  0  0  0  0  0  0  0  0  0  0  # atno 8010 bound_to 7997
  139.6805  144.7118  151.1523 H   0  0  0  0  0  0  0  0  0  0  0  0  # atno 10167 bound_to 10162
  157.3706  130.7699  149.7116 H   0  0  0  0  0  0  0  0  0  0  0  0  # atno 10718 bound_to 10713
  153.0617  135.5009  154.8108 H   0  0  0  0  0  0  0  0  0  0  0  0  # atno 10763 bound_to 10752
  154.6892  135.2981  154.9505 H   0  0  0  0  0  0  0  0  0  0  0  0  # atno 10764 bound_to 10752
  154.0266  135.6735  153.4830 H   0  0  0  0  0  0  0  0  0  0  0  0  # atno 10765 bound_to 10752
  140.2150  134.8239  157.3161 H   0  0  0  0  0  0  0  0  0  0  0  0  # atno 11005 bound_to 11000
  144.8241  140.6598  143.6334 LP  0  0  0  0  0  0  0  0  0  0  0  0  # atno 17320 bound_to 7965
  145.4204  139.1565  143.4077 LP  0  0  0  0  0  0  0  0  0  0  0  0  # atno 17321 bound_to 7965
  140.7650  143.5706  150.9000 LP  0  0  0  0  0  0  0  0  0  0  0  0  # atno 17342 bound_to 10162
  139.9377  143.6418  152.3061 LP  0  0  0  0  0  0  0  0  0  0  0  0  # atno 17343 bound_to 10162
  155.9755  130.4088  150.3847 LP  0  0  0  0  0  0  0  0  0  0  0  0  # atno 17370 bound_to 10713
  157.1937  131.0421  151.2686 LP  0  0  0  0  0  0  0  0  0  0  0  0  # atno 17371 bound_to 10713
  140.1910  134.4372  155.7716 LP  0  0  0  0  0  0  0  0  0  0  0  0  # atno 17394 bound_to 11000
  141.2225  133.7027  156.8027 LP  0  0  0  0  0  0  0  0  0  0  0  0  # atno 17395 bound_to 11000

$$$$
