AV-unprocessed.smi:1673|AV-procd|sdf|6710|dock5
  -GOLD-   22720 7453D 1   1.00000     0.00000
 Structure written by MMmdl.
 39 40  0  0  0  0  0  0  0  0  1 V2000
  151.4647  138.2933  154.7714 C   0  0  0  0  0  0  0  0  0  0  0  0
  150.3723  139.2927  154.5095 C   0  0  0  0  0  0  0  0  0  0  0  0
  150.6279  140.5823  154.6746 N   0  0  0  0  0  0  0  0  0  0  0  0
  149.4669  141.2756  154.2987 O   0  0  0  0  0  0  0  0  0  0  0  0
  148.5246  140.3769  153.9111 C   0  0  0  0  0  0  0  0  0  0  0  0
  147.2139  140.9223  153.4546 C   0  0  0  0  0  0  0  0  0  0  0  0
  149.0329  139.1196  154.0513 C   0  0  0  0  0  0  0  0  0  0  0  0
  148.3415  137.9295  153.7137 N   0  0  0  0  0  0  0  0  0  0  0  0
  147.1803  137.4986  154.2288 C   0  0  0  0  0  0  0  0  0  0  0  0
  146.4992  138.1202  155.0438 O   0  0  0  0  0  0  0  0  0  0  0  0
  146.8420  136.3018  153.7287 N   0  0  0  0  0  0  0  0  0  0  0  0
  145.6454  135.5303  154.0713 C   0  0  1  0  0  0  0  0  0  0  0  0
  144.3908  136.2509  153.5379 C   0  0  0  0  0  0  0  0  0  0  0  0
  144.3028  136.2070  152.0023 C   0  0  0  0  0  0  0  0  0  0  0  0
  144.3759  134.7638  151.4818 C   0  0  0  0  0  0  0  0  0  0  0  0
  145.6353  134.0459  151.9932 C   0  0  0  0  0  0  0  0  0  0  0  0
  145.7203  134.0777  153.5333 C   0  0  1  0  0  0  0  0  0  0  0  0
  146.9450  133.3014  154.0481 C   0  0  0  0  0  0  0  0  0  0  0  0
  151.3836  137.4341  154.1055 H   0  0  0  0  0  0  0  0  0  0  0  0
  151.4237  137.9293  155.7978 H   0  0  0  0  0  0  0  0  0  0  0  0
  152.4512  138.7306  154.6154 H   0  0  0  0  0  0  0  0  0  0  0  0
  146.5795  140.1334  153.0504 H   0  0  0  0  0  0  0  0  0  0  0  0
  147.3574  141.6720  152.6765 H   0  0  0  0  0  0  0  0  0  0  0  0
  146.6831  141.3909  154.2830 H   0  0  0  0  0  0  0  0  0  0  0  0
  148.7334  137.3885  152.9569 H   0  0  0  0  0  0  0  0  0  0  0  0
  147.4693  135.8782  153.0608 H   0  0  0  0  0  0  0  0  0  0  0  0
  145.5498  135.4843  155.1577 H   0  0  0  0  0  0  0  0  0  0  0  0
  143.5021  135.7777  153.9575 H   0  0  0  0  0  0  0  0  0  0  0  0
  144.3735  137.2851  153.8840 H   0  0  0  0  0  0  0  0  0  0  0  0
  143.3745  136.6735  151.6713 H   0  0  0  0  0  0  0  0  0  0  0  0
  145.1124  136.7945  151.5677 H   0  0  0  0  0  0  0  0  0  0  0  0
  143.4891  134.2155  151.8015 H   0  0  0  0  0  0  0  0  0  0  0  0
  144.3634  134.7615  150.3916 H   0  0  0  0  0  0  0  0  0  0  0  0
  145.6306  133.0134  151.6422 H   0  0  0  0  0  0  0  0  0  0  0  0
  146.5221  134.5111  151.5611 H   0  0  0  0  0  0  0  0  0  0  0  0
  144.8416  133.5543  153.9133 H   0  0  0  0  0  0  0  0  0  0  0  0
  147.8771  133.7097  153.6570 H   0  0  0  0  0  0  0  0  0  0  0  0
  146.8963  132.2539  153.7498 H   0  0  0  0  0  0  0  0  0  0  0  0
  146.9986  133.3307  155.1366 H   0  0  0  0  0  0  0  0  0  0  0  0
  1  2  1  0  0  0  0
  1 19  1  0  0  0  0
  1 20  1  0  0  0  0
  1 21  1  0  0  0  0
  2  7  1  0  0  0  0
  2  3  2  0  0  0  0
  3  4  1  0  0  0  0
  4  5  1  0  0  0  0
  5  6  1  0  0  0  0
  5  7  2  0  0  0  0
  6 22  1  0  0  0  0
  6 23  1  0  0  0  0
  6 24  1  0  0  0  0
  7  8  1  0  0  0  0
  8  9  1  0  0  0  0
  8 25  1  0  0  0  0
  9 10  2  0  0  0  0
  9 11  1  0  0  0  0
 11 12  1  0  0  0  0
 11 26  1  0  0  0  0
 12 17  1  0  0  0  0
 12 13  1  0  0  0  0
 12 27  1  0  0  0  0
 13 14  1  0  0  0  0
 13 28  1  0  0  0  0
 13 29  1  0  0  0  0
 14 15  1  0  0  0  0
 14 30  1  0  0  0  0
 14 31  1  0  0  0  0
 15 16  1  0  0  0  0
 15 32  1  0  0  0  0
 15 33  1  0  0  0  0
 16 17  1  0  0  0  0
 16 34  1  0  0  0  0
 16 35  1  0  0  0  0
 17 18  1  0  0  0  0
 17 36  1  0  0  0  0
 18 37  1  0  0  0  0
 18 38  1  0  0  0  0
 18 39  1  0  0  0  0
M  END
> <s_m_source_file>
AV-unprocessed.smi

> <i_m_source_file_index>
1673

> <i_lp_mmshare_version>
43012

> <i_f3d_flags>
0

> <s_epik_input>
W0NIM11jMW5vYyhbQ0gzXSljMVtOSF1DKD1PKVtOSF1bQ0BASF0yW0NIMl1bQ0gyXVtDSDJdW0NIMl1bQ0BIXTJbQ0gzXQ==

> <s_epik_cmdline>
J2VwaWtfcHl0aG9uJywgJy1waCcsICc3LjAnLCAnLXRuJywgJzgnLCAnLW1hJywgJzIwMCcsICctbWV0YWxfYmluZGluZycsICctaW1hZScsICc8aW5maWxlLm1hZT4nLCAnLW9tYWUnLCAnPG91dGZpbGUubWFlPic=

> <r_lp_tautomer_probability>
1

> <r_epik_Ionization_Penalty>
4.01865e-05

> <r_epik_Ionization_Penalty_Charging>
0

> <r_epik_Ionization_Penalty_Neutral>
4.01865e-05

> <r_epik_State_Penalty>
-0

> <r_epik_Charging_Adjusted_Penalty>
0

> <i_epik_Tot_Q>
0

> <i_epik_Tot_abs_Q>
0

> <r_epik_Metal_State_Penalty>
-0

> <b_epik_Metal_Only>
0

> <s_lp_Force_Field>
OPLS_2005

> <r_lp_Energy>
11.4639

> <b_lp_Chiralities_Consistent>
1

> <s_lp_Variant>
AV-unprocessed.smi:1673-2

> <Gold.Version>
5.8.1

> <Gold.Id.Protein>
6NUR|6NUR_protein|mol2

> <Gold.PLP.Fitness>
33.8975

> <Gold.PLP.PLP>
-25.6111

> <Gold.PLP.part.hbond>
-4.6373

> <Gold.PLP.part.metal>
0.0000

> <Gold.PLP.part.buried>
-0.0156

> <Gold.PLP.part.nonpolar>
-19.7621

> <Gold.PLP.part.repulsive>
0.3290

> <Gold.PLP.ligand.clash>
0.0000

> <Gold.PLP.ligand.torsion>
0.6322

> <Gold.PLP.Chemscore.Hbond>
3.1021

> <Gold.PLP.Chemscore.CHOScore>
0.0000

> <Gold.PLP.Chemscore.Metal>
0.0000

> <Gold.Chemscore.Hbonds>
donor molecule, donor type, donor heavy atom, donor atom, acceptor molecule, acceptor atom, score
      L1  H     8    25       P1  7948  1.00
      L1  H    11    26       P1  7948  0.90
      P1  H  7989  7998       L1     3  0.99
      P1  H  8011  8017       L1     4  0.23

> <Gold.PLP.Chemscore.Internal.Correction>
0.2447

> <Gold.Rescore>
     Score         DG    S(hbond)    S(metal)    S(lipo)     H(rot)  DE(clash)    DE(int)     intcor
     15.86     -16.55       1.96        0.00      60.49       1.00       0.02       0.67       ----

> <Gold.Chemscore.Fitness>
15.8555

> <Gold.Chemscore.DG>
-16.5455

> <Gold.Chemscore.ZeroCoef>
-5.4800

> <Gold.Chemscore.Hbond>
1.9605

> <Gold.Chemscore.Metal>
0.0000

> <Gold.Chemscore.Lipo>
60.4908

> <Gold.Chemscore.Internal_Hbond>
0.0000

> <Gold.Chemscore.DEClash>
0.0208

> <Gold.Chemscore.DEInternal>
0.6692

> <Gold.Chemscore.Rot>
1.0000

> <Gold.Chemscore.Internal.Correction>
   9.000000E+99

> <Gold.Chemscore.Hbonds>
donor molecule, donor type, donor heavy atom, donor atom, acceptor molecule, acceptor atom, score
      L1  H     8    25       P1  7948  0.98
      L1  H    11    26       P1  7948  0.88
      P1  H  7989  7998       L1     3  0.14
      P1  H  8011  8017       L1     4  0.06

> <Gold.Chemscore.Hbond.Weighted>
-6.5481

> <Gold.Chemscore.Metal.Weighted>
-0.0000

> <Gold.Chemscore.Lipo.Weighted>
-7.0774

> <Gold.Chemscore.Internal_Hbond.Weighted>
0.0000

> <Gold.Chemscore.DEClash.Weighted>
0.0208

> <Gold.Chemscore.DEInternal.Weighted>
0.6692

> <Gold.Chemscore.Rot.Weighted>
2.5600

> <Gold.Chemscore.Internal.Correction.Weighted>
   9.000000E+99

> <Gold.Protein.RotatedTorsions>
[ 6907 6896 6895 6894 ] final -167.49 input  -60.11 | X-H torsion
[ 7974 7965 7964 7962 ] final   97.89 input  175.53 | X-H torsion
[ 8008 7997 7996 7995 ] final -116.86 input   59.86 | X-H torsion
[ 10167 10162 10161 10158 ] final  147.51 input  -65.29 | X-H torsion
[ 10718 10713 10712 10709 ] final    8.40 input   66.30 | X-H torsion
[ 10763 10752 10751 10750 ] final   -8.06 input  -60.55 | X-H torsion
[ 11005 11000 10999 10996 ] final   42.29 input  -57.11 | X-H torsion

> <Gold.Protein.ActiveResidues>
 VAL166  LYS551  ARG553  GLY616  TRP617  ASP618  TYR619  PRO620  LYS621  CYS622 
 ASP623  PHE694  ASN695  SER759  ASP760  ASP761  ALA762  ILE779  LEU786  VAL792 
 PHE793  MET794  SER795  GLU796  ALA797  LYS798  CYS799  TRP800  GLU811  SER814 

> <Gold.Protein.RotatedAtoms>
  151.4604  133.3594  159.2808 H   0  0  0  0  0  0  0  0  0  0  0  0  # atno 6907 bound_to 6896
  150.9030  134.8445  159.7384 H   0  0  0  0  0  0  0  0  0  0  0  0  # atno 6908 bound_to 6896
  152.4890  134.4526  159.9631 H   0  0  0  0  0  0  0  0  0  0  0  0  # atno 6909 bound_to 6896
  145.4194  139.2323  143.3204 H   0  0  0  0  0  0  0  0  0  0  0  0  # atno 7974 bound_to 7965
  155.0745  140.0393  157.2619 H   0  0  0  0  0  0  0  0  0  0  0  0  # atno 8008 bound_to 7997
  154.6956  140.2662  155.6745 H   0  0  0  0  0  0  0  0  0  0  0  0  # atno 8009 bound_to 7997
  156.2743  140.2751  156.1549 H   0  0  0  0  0  0  0  0  0  0  0  0  # atno 8010 bound_to 7997
  139.4889  144.5750  151.6983 H   0  0  0  0  0  0  0  0  0  0  0  0  # atno 10167 bound_to 10162
  156.9510  130.5897  149.5657 H   0  0  0  0  0  0  0  0  0  0  0  0  # atno 10718 bound_to 10713
  153.4352  135.7013  153.6205 H   0  0  0  0  0  0  0  0  0  0  0  0  # atno 10763 bound_to 10752
  153.4603  135.3738  155.2334 H   0  0  0  0  0  0  0  0  0  0  0  0  # atno 10764 bound_to 10752
  154.8726  135.4018  154.3742 H   0  0  0  0  0  0  0  0  0  0  0  0  # atno 10765 bound_to 10752
  140.1753  134.4171  155.8232 H   0  0  0  0  0  0  0  0  0  0  0  0  # atno 11005 bound_to 11000
  146.2664  140.4917  142.8832 LP  0  0  0  0  0  0  0  0  0  0  0  0  # atno 17320 bound_to 7965
  144.8255  140.6621  143.6325 LP  0  0  0  0  0  0  0  0  0  0  0  0  # atno 17321 bound_to 7965
  140.5344  144.0679  150.6065 LP  0  0  0  0  0  0  0  0  0  0  0  0  # atno 17342 bound_to 10162
  140.3680  143.2870  152.0310 LP  0  0  0  0  0  0  0  0  0  0  0  0  # atno 17343 bound_to 10162
  156.0363  130.5450  150.8661 LP  0  0  0  0  0  0  0  0  0  0  0  0  # atno 17370 bound_to 10713
  157.5722  131.0946  150.9401 LP  0  0  0  0  0  0  0  0  0  0  0  0  # atno 17371 bound_to 10713
  141.2220  133.6975  156.7835 LP  0  0  0  0  0  0  0  0  0  0  0  0  # atno 17394 bound_to 11000
  140.2330  134.8671  157.3496 LP  0  0  0  0  0  0  0  0  0  0  0  0  # atno 17395 bound_to 11000

$$$$
