AV-unprocessed.smi:1226|AV-procd|sdf|5145|dock7
  -GOLD-   22720 4213D 1   1.00000     0.00000
 Structure written by MMmdl.
 37 38  0  0  0  0  0  0  0  0  1 V2000
  142.9575  146.0093  154.0079 C   0  0  0  0  0  0  0  0  0  0  0  0
  144.0668  145.0196  153.9059 C   0  0  0  0  0  0  0  0  0  0  0  0
  144.3192  144.0946  154.8355 N   0  0  0  0  0  0  0  0  0  0  0  0
  145.4060  143.2798  154.5032 C   0  0  0  0  0  0  0  0  0  0  0  0
  145.8284  142.1795  155.4287 C   0  0  0  0  0  0  0  0  0  0  0  0
  147.1302  141.5027  154.9684 C   0  0  0  0  0  0  0  0  0  0  0  0
  148.3040  142.1342  155.5597 N   0  0  0  0  0  0  0  0  0  0  0  0
  149.2074  141.5055  156.3242 C   0  0  0  0  0  0  0  0  0  0  0  0
  149.1500  140.3107  156.6163 O   0  0  0  0  0  0  0  0  0  0  0  0
  150.1801  142.3337  156.7290 N   0  0  0  0  0  0  0  0  0  0  0  0
  151.3201  141.9454  157.5515 C   0  0  0  0  0  0  0  0  0  0  0  0
  151.5586  142.9489  158.6914 C   0  0  1  0  0  0  0  0  0  0  0  0
  152.0651  144.3082  158.2128 C   0  0  0  0  0  0  0  0  0  0  0  0
  151.6500  145.2065  159.3549 C   0  0  0  0  0  0  0  0  0  0  0  0
  150.2935  144.6205  159.7361 C   0  0  0  0  0  0  0  0  0  0  0  0
  150.3465  143.2405  159.3834 O   0  0  0  0  0  0  0  0  0  0  0  0
  145.9791  143.6068  153.2996 C   0  0  0  0  0  0  0  0  0  0  0  0
  145.1717  144.9497  152.5386 S   0  0  0  0  0  0  0  0  0  0  0  0
  142.6068  146.0878  155.0375 H   0  0  0  0  0  0  0  0  0  0  0  0
  142.1248  145.6995  153.3764 H   0  0  0  0  0  0  0  0  0  0  0  0
  143.3001  146.9908  153.6805 H   0  0  0  0  0  0  0  0  0  0  0  0
  145.9582  142.5775  156.4359 H   0  0  0  0  0  0  0  0  0  0  0  0
  145.0360  141.4337  155.5033 H   0  0  0  0  0  0  0  0  0  0  0  0
  147.1279  140.4526  155.2620 H   0  0  0  0  0  0  0  0  0  0  0  0
  147.2049  141.5199  153.8797 H   0  0  0  0  0  0  0  0  0  0  0  0
  148.4367  143.1173  155.3730 H   0  0  0  0  0  0  0  0  0  0  0  0
  150.1380  143.2984  156.4351 H   0  0  0  0  0  0  0  0  0  0  0  0
  151.1038  140.9625  157.9706 H   0  0  0  0  0  0  0  0  0  0  0  0
  152.2195  141.8296  156.9442 H   0  0  0  0  0  0  0  0  0  0  0  0
  152.2673  142.5400  159.4135 H   0  0  0  0  0  0  0  0  0  0  0  0
  153.1390  144.3212  158.0259 H   0  0  0  0  0  0  0  0  0  0  0  0
  151.5538  144.6101  157.2975 H   0  0  0  0  0  0  0  0  0  0  0  0
  152.3513  145.1043  160.1841 H   0  0  0  0  0  0  0  0  0  0  0  0
  151.5975  146.2597  159.0778 H   0  0  0  0  0  0  0  0  0  0  0  0
  150.0690  144.7519  160.7947 H   0  0  0  0  0  0  0  0  0  0  0  0
  149.4976  145.0924  159.1593 H   0  0  0  0  0  0  0  0  0  0  0  0
  146.8234  143.1386  152.8153 H   0  0  0  0  0  0  0  0  0  0  0  0
  1  2  1  0  0  0  0
  1 19  1  0  0  0  0
  1 20  1  0  0  0  0
  1 21  1  0  0  0  0
  2 18  1  0  0  0  0
  2  3  2  0  0  0  0
  3  4  1  0  0  0  0
  4  5  1  0  0  0  0
  4 17  2  0  0  0  0
  5  6  1  0  0  0  0
  5 22  1  0  0  0  0
  5 23  1  0  0  0  0
  6  7  1  0  0  0  0
  6 24  1  0  0  0  0
  6 25  1  0  0  0  0
  7  8  1  0  0  0  0
  7 26  1  0  0  0  0
  8  9  2  0  0  0  0
  8 10  1  0  0  0  0
 10 11  1  0  0  0  0
 10 27  1  0  0  0  0
 11 12  1  0  0  0  0
 11 28  1  0  0  0  0
 11 29  1  0  0  0  0
 12 16  1  0  0  0  0
 12 13  1  0  0  0  0
 12 30  1  0  0  0  0
 13 14  1  0  0  0  0
 13 31  1  0  0  0  0
 13 32  1  0  0  0  0
 14 15  1  0  0  0  0
 14 33  1  0  0  0  0
 14 34  1  0  0  0  0
 15 16  1  0  0  0  0
 15 35  1  0  0  0  0
 15 36  1  0  0  0  0
 17 18  1  0  0  0  0
 17 37  1  0  0  0  0
M  END
> <s_m_source_file>
AV-unprocessed.smi

> <i_m_source_file_index>
1226

> <i_lp_mmshare_version>
43012

> <i_f3d_flags>
0

> <s_epik_input>
W0NIM11jMW5jKFtjSF1zMSlbQ0gyXVtDSDJdW05IXUMoPU8pW05IXVtDSDJdW0NAQEhdMltDSDJdW0NIMl1bQ0gyXU8y

> <s_epik_cmdline>
J2VwaWtfcHl0aG9uJywgJy1waCcsICc3LjAnLCAnLXRuJywgJzgnLCAnLW1hJywgJzIwMCcsICctbWV0YWxfYmluZGluZycsICctaW1hZScsICc8aW5maWxlLm1hZT4nLCAnLW9tYWUnLCAnPG91dGZpbGUubWFlPic=

> <r_epik_Ionization_Penalty>
0.00199722

> <r_epik_Ionization_Penalty_Charging>
0

> <r_epik_Ionization_Penalty_Neutral>
0.00199722

> <r_epik_State_Penalty>
0.00132705

> <r_epik_Charging_Adjusted_Penalty>
0.00132705

> <i_epik_Tot_Q>
0

> <i_epik_Tot_abs_Q>
0

> <r_epik_Metal_State_Penalty>
-0

> <b_epik_Metal_Only>
0

> <s_lp_Force_Field>
OPLS_2005

> <r_lp_Energy>
8.90451

> <b_lp_Chiralities_Consistent>
1

> <s_lp_Variant>
AV-unprocessed.smi:1226-2

> <Gold.Version>
5.8.1

> <Gold.Id.Protein>
6NUR|6NUR_protein|mol2

> <Gold.PLP.Fitness>
46.1434

> <Gold.PLP.PLP>
-41.2897

> <Gold.PLP.part.hbond>
-2.0217

> <Gold.PLP.part.metal>
0.0000

> <Gold.PLP.part.buried>
-6.7330

> <Gold.PLP.part.nonpolar>
-33.6231

> <Gold.PLP.part.repulsive>
0.3516

> <Gold.PLP.ligand.clash>
0.0000

> <Gold.PLP.ligand.torsion>
0.3868

> <Gold.PLP.Chemscore.Hbond>
1.8640

> <Gold.PLP.Chemscore.CHOScore>
0.0000

> <Gold.PLP.Chemscore.Metal>
0.0000

> <Gold.Chemscore.Hbonds>
donor molecule, donor type, donor heavy atom, donor atom, acceptor molecule, acceptor atom, score
      L1  H     7    26       P1  8028  1.00
      L1  H    10    27       P1  8028  0.86

> <Gold.PLP.Chemscore.Internal.Correction>
0.0353

> <Gold.Rescore>
     Score         DG    S(hbond)    S(metal)    S(lipo)     H(rot)  DE(clash)    DE(int)     intcor
     18.68     -19.09       1.76        0.00     104.35       1.75       0.06       0.35       ----

> <Gold.Chemscore.Fitness>
18.6766

> <Gold.Chemscore.DG>
-19.0873

> <Gold.Chemscore.ZeroCoef>
-5.4800

> <Gold.Chemscore.Hbond>
1.7589

> <Gold.Chemscore.Metal>
0.0000

> <Gold.Chemscore.Lipo>
104.3533

> <Gold.Chemscore.Internal_Hbond>
0.0000

> <Gold.Chemscore.DEClash>
0.0645

> <Gold.Chemscore.DEInternal>
0.3462

> <Gold.Chemscore.Rot>
1.7487

> <Gold.Chemscore.Internal.Correction>
   9.000000E+99

> <Gold.Chemscore.Hbonds>
donor molecule, donor type, donor heavy atom, donor atom, acceptor molecule, acceptor atom, score
      L1  H     7    26       P1  8028  0.99
      L1  H    10    27       P1  8028  0.79

> <Gold.Chemscore.Hbond.Weighted>
-5.8748

> <Gold.Chemscore.Metal.Weighted>
-0.0000

> <Gold.Chemscore.Lipo.Weighted>
-12.2093

> <Gold.Chemscore.Internal_Hbond.Weighted>
0.0000

> <Gold.Chemscore.DEClash.Weighted>
0.0645

> <Gold.Chemscore.DEInternal.Weighted>
0.3462

> <Gold.Chemscore.Rot.Weighted>
4.4768

> <Gold.Chemscore.Internal.Correction.Weighted>
   9.000000E+99

> <Gold.Protein.RotatedTorsions>
[ 6907 6896 6895 6894 ] final  150.29 input  -60.11 | X-H torsion
[ 7974 7965 7964 7962 ] final  153.99 input  175.53 | X-H torsion
[ 8008 7997 7996 7995 ] final   31.56 input   59.86 | X-H torsion
[ 10167 10162 10161 10158 ] final   95.18 input  -65.29 | X-H torsion
[ 10718 10713 10712 10709 ] final  -46.74 input   66.30 | X-H torsion
[ 10763 10752 10751 10750 ] final -127.23 input  -60.55 | X-H torsion
[ 11005 11000 10999 10996 ] final  -34.81 input  -57.11 | X-H torsion

> <Gold.Protein.ActiveResidues>
 VAL166  LYS551  ARG553  GLY616  TRP617  ASP618  TYR619  PRO620  LYS621  CYS622 
 ASP623  PHE694  ASN695  SER759  ASP760  ASP761  ALA762  ILE779  LEU786  VAL792 
 PHE793  MET794  SER795  GLU796  ALA797  LYS798  CYS799  TRP800  GLU811  SER814 

> <Gold.Protein.RotatedAtoms>
  152.1164  133.4329  159.4654 H   0  0  0  0  0  0  0  0  0  0  0  0  # atno 6907 bound_to 6896
  150.6869  134.2587  159.4549 H   0  0  0  0  0  0  0  0  0  0  0  0  # atno 6908 bound_to 6896
  152.0460  134.9682  160.0625 H   0  0  0  0  0  0  0  0  0  0  0  0  # atno 6909 bound_to 6896
  144.8118  139.6874  143.6138 H   0  0  0  0  0  0  0  0  0  0  0  0  # atno 7974 bound_to 7965
  155.1083  140.3236  155.4528 H   0  0  0  0  0  0  0  0  0  0  0  0  # atno 8008 bound_to 7997
  156.2698  140.2048  156.6155 H   0  0  0  0  0  0  0  0  0  0  0  0  # atno 8009 bound_to 7997
  154.6776  140.0530  157.0218 H   0  0  0  0  0  0  0  0  0  0  0  0  # atno 8010 bound_to 7997
  139.8013  144.6813  150.9762 H   0  0  0  0  0  0  0  0  0  0  0  0  # atno 10167 bound_to 10162
  156.2153  130.4163  149.9062 H   0  0  0  0  0  0  0  0  0  0  0  0  # atno 10718 bound_to 10713
  154.8751  135.3969  154.3560 H   0  0  0  0  0  0  0  0  0  0  0  0  # atno 10763 bound_to 10752
  153.4339  135.7025  153.6218 H   0  0  0  0  0  0  0  0  0  0  0  0  # atno 10764 bound_to 10752
  153.4828  135.3765  155.2420 H   0  0  0  0  0  0  0  0  0  0  0  0  # atno 10765 bound_to 10752
  140.9746  133.7090  156.1580 H   0  0  0  0  0  0  0  0  0  0  0  0  # atno 11005 bound_to 11000
  146.2417  139.6015  142.9487 LP  0  0  0  0  0  0  0  0  0  0  0  0  # atno 17320 bound_to 7965
  145.5307  141.0427  143.2385 LP  0  0  0  0  0  0  0  0  0  0  0  0  # atno 17321 bound_to 7965
  140.7820  143.4279  151.0740 LP  0  0  0  0  0  0  0  0  0  0  0  0  # atno 17342 bound_to 10162
  139.7951  143.8163  152.3156 LP  0  0  0  0  0  0  0  0  0  0  0  0  # atno 17343 bound_to 10162
  156.6727  130.8826  151.3564 LP  0  0  0  0  0  0  0  0  0  0  0  0  # atno 17370 bound_to 10713
  157.7060  130.9385  150.0932 LP  0  0  0  0  0  0  0  0  0  0  0  0  # atno 17371 bound_to 10713
  140.7278  134.4288  157.5569 LP  0  0  0  0  0  0  0  0  0  0  0  0  # atno 17394 bound_to 11000
  139.8925  134.8752  156.2266 LP  0  0  0  0  0  0  0  0  0  0  0  0  # atno 17395 bound_to 11000

$$$$
