AV-unprocessed.smi:100|AV-procd|sdf|897|dock10
  -GOLD-   2262017393D 1   1.00000     0.00000
 Structure written by MMmdl.
 31 33  0  0  0  0  0  0  0  0  1 V2000
  153.0179  142.9604  162.2925 N   0  0  0  0  0  0  0  0  0  0  0  0
  152.4904  143.1771  161.0798 C   0  0  0  0  0  0  0  0  0  0  0  0
  151.9852  144.4034  160.8069 N   0  0  0  0  0  0  0  0  0  0  0  0
  151.4550  144.6452  159.6031 C   0  0  0  0  0  0  0  0  0  0  0  0
  151.3363  143.8184  158.5599 N   0  0  0  0  0  0  0  0  0  0  0  0
  151.8440  142.5826  158.8411 C   0  0  0  0  0  0  0  0  0  0  0  0
  152.4378  142.1836  160.0699 C   0  0  0  0  0  0  0  0  0  0  0  0
  152.8470  140.8588  159.9895 N   0  0  0  0  0  0  0  0  0  0  0  0
  152.5112  140.4995  158.7790 C   0  0  0  0  0  0  0  0  0  0  0  0
  151.8991  141.4761  158.0224 N   0  0  0  0  0  0  0  0  0  0  0  0
  151.4072  141.3942  156.6159 C   0  0  2  0  0  0  0  0  0  0  0  0
  150.0823  141.8359  156.6131 O   0  0  0  0  0  0  0  0  0  0  0  0
  149.2547  140.9456  155.8717 C   0  0  1  0  0  0  0  0  0  0  0  0
  149.2022  141.4069  154.4022 C   0  0  0  0  0  0  0  0  0  0  0  0
  148.2196  142.4078  154.2459 O   0  0  0  0  0  0  0  0  0  0  0  0
  149.9429  139.5909  156.0546 C   0  0  2  0  0  0  0  0  0  0  0  0
  149.5423  139.0450  157.2042 F   0  0  0  0  0  0  0  0  0  0  0  0
  151.4222  139.9303  156.1470 C   0  0  1  0  0  0  0  0  0  0  0  0
  152.0508  139.7781  154.8899 O   0  0  0  0  0  0  0  0  0  0  0  0
  153.4014  142.0539  162.5183 H   0  0  0  0  0  0  0  0  0  0  0  0
  153.0304  143.7022  162.9773 H   0  0  0  0  0  0  0  0  0  0  0  0
  151.0703  145.6434  159.4542 H   0  0  0  0  0  0  0  0  0  0  0  0
  152.7027  139.5052  158.4021 H   0  0  0  0  0  0  0  0  0  0  0  0
  152.0471  142.0637  156.0388 H   0  0  0  0  0  0  0  0  0  0  0  0
  148.2467  140.9188  156.2886 H   0  0  0  0  0  0  0  0  0  0  0  0
  150.1682  141.7729  154.0536 H   0  0  0  0  0  0  0  0  0  0  0  0
  148.9210  140.5747  153.7563 H   0  0  0  0  0  0  0  0  0  0  0  0
  148.5711  143.2264  154.5612 H   0  0  0  0  0  0  0  0  0  0  0  0
  149.7046  138.8696  155.2719 H   0  0  0  0  0  0  0  0  0  0  0  0
  151.9407  139.2909  156.8635 H   0  0  0  0  0  0  0  0  0  0  0  0
  152.2974  138.8711  154.7874 H   0  0  0  0  0  0  0  0  0  0  0  0
  1  2  1  0  0  0  0
  1 20  1  0  0  0  0
  1 21  1  0  0  0  0
  2  7  1  0  0  0  0
  2  3  2  0  0  0  0
  3  4  1  0  0  0  0
  4  5  2  0  0  0  0
  4 22  1  0  0  0  0
  5  6  1  0  0  0  0
  6 10  1  0  0  0  0
  6  7  2  0  0  0  0
  7  8  1  0  0  0  0
  8  9  2  0  0  0  0
  9 10  1  0  0  0  0
  9 23  1  0  0  0  0
 10 11  1  0  0  0  0
 11 18  1  0  0  0  0
 11 12  1  0  0  0  0
 11 24  1  0  0  0  0
 12 13  1  0  0  0  0
 13 14  1  0  0  0  0
 13 16  1  0  0  0  0
 13 25  1  0  0  0  0
 14 15  1  0  0  0  0
 14 26  1  0  0  0  0
 14 27  1  0  0  0  0
 15 28  1  0  0  0  0
 16 17  1  0  0  0  0
 16 18  1  0  0  0  0
 16 29  1  0  0  0  0
 18 19  1  0  0  0  0
 18 30  1  0  0  0  0
 19 31  1  0  0  0  0
M  END
> <s_m_source_file>
AV-unprocessed.smi

> <i_m_source_file_index>
100

> <i_lp_mmshare_version>
43012

> <i_f3d_flags>
0

> <s_epik_input>
bjFbY0hdbmMoW05IMl0pYyhjMTIpbltjSF1uMltDQEBIXTNPW0NAQEhdKFtDSDJdW09IXSlbQ0BIXShGKVtDQEhdM1tPSF0=

> <s_epik_cmdline>
J2VwaWtfcHl0aG9uJywgJy1waCcsICc3LjAnLCAnLXRuJywgJzgnLCAnLW1hJywgJzIwMCcsICctbWV0YWxfYmluZGluZycsICctaW1hZScsICc8aW5maWxlLm1hZT4nLCAnLW9tYWUnLCAnPG91dGZpbGUubWFlPic=

> <r_lp_tautomer_probability>
1

> <r_epik_Ionization_Penalty>
0.000750324

> <r_epik_Ionization_Penalty_Charging>
0

> <r_epik_Ionization_Penalty_Neutral>
0.000750324

> <r_epik_State_Penalty>
-0

> <r_epik_Charging_Adjusted_Penalty>
0

> <i_epik_Tot_Q>
0

> <i_epik_Tot_abs_Q>
0

> <r_epik_Metal_State_Penalty>
-0

> <b_epik_Metal_Only>
0

> <s_epik_Chemistry_Notes>
This compound contains an acetal/aminal-like group ( X-CH(R)-Y where X, Y are N, S, or O) that may be acid/base labile, releasing an aldehyde.

> <s_lp_Force_Field>
OPLS_2005

> <r_lp_Energy>
27.7777

> <b_lp_Chiralities_Consistent>
1

> <s_lp_Variant>
AV-unprocessed.smi:100-1

> <Gold.Version>
5.8.1

> <Gold.Id.Protein>
6NUR|6NUR_protein|mol2

> <Gold.PLP.Fitness>
38.8713

> <Gold.PLP.PLP>
-34.0117

> <Gold.PLP.part.hbond>
-3.0000

> <Gold.PLP.part.metal>
0.0000

> <Gold.PLP.part.buried>
-7.0183

> <Gold.PLP.part.nonpolar>
-23.6955

> <Gold.PLP.part.repulsive>
0.4146

> <Gold.PLP.ligand.clash>
0.0000

> <Gold.PLP.ligand.torsion>
0.3748

> <Gold.PLP.Chemscore.Hbond>
1.8640

> <Gold.PLP.Chemscore.CHOScore>
0.0000

> <Gold.PLP.Chemscore.Metal>
0.0000

> <Gold.Chemscore.Hbonds>
donor molecule, donor type, donor heavy atom, donor atom, acceptor molecule, acceptor atom, score
      L1  H    15    28       P1  8028  1.00
      P1  H  7989  7998       L1    19  0.86

> <Gold.PLP.Chemscore.Internal.Correction>
0.0172

> <Gold.Rescore>
     Score         DG    S(hbond)    S(metal)    S(lipo)     H(rot)  DE(clash)    DE(int)     intcor
      6.20      -7.54       1.90        0.00      33.24       3.19       0.06       1.28       ----

> <Gold.Chemscore.Fitness>
6.1990

> <Gold.Chemscore.DG>
-7.5391

> <Gold.Chemscore.ZeroCoef>
-5.4800

> <Gold.Chemscore.Hbond>
1.8973

> <Gold.Chemscore.Metal>
0.0000

> <Gold.Chemscore.Lipo>
33.2378

> <Gold.Chemscore.Internal_Hbond>
0.0000

> <Gold.Chemscore.DEClash>
0.0556

> <Gold.Chemscore.DEInternal>
1.2844

> <Gold.Chemscore.Rot>
3.1901

> <Gold.Chemscore.Internal.Correction>
   9.000000E+99

> <Gold.Chemscore.Hbonds>
donor molecule, donor type, donor heavy atom, donor atom, acceptor molecule, acceptor atom, score
      L1  H    15    28       P1  8028  1.00
      P1  H  7989  7998       L1    19  0.83

> <Gold.Chemscore.Hbond.Weighted>
-6.3369

> <Gold.Chemscore.Metal.Weighted>
-0.0000

> <Gold.Chemscore.Lipo.Weighted>
-3.8888

> <Gold.Chemscore.Internal_Hbond.Weighted>
0.0000

> <Gold.Chemscore.DEClash.Weighted>
0.0556

> <Gold.Chemscore.DEInternal.Weighted>
1.2844

> <Gold.Chemscore.Rot.Weighted>
8.1667

> <Gold.Chemscore.Internal.Correction.Weighted>
   9.000000E+99

> <Gold.Protein.RotatedTorsions>
[ 6907 6896 6895 6894 ] final -128.27 input  -60.11 | X-H torsion
[ 7974 7965 7964 7962 ] final   36.12 input  175.53 | X-H torsion
[ 8008 7997 7996 7995 ] final -135.29 input   59.86 | X-H torsion
[ 10167 10162 10161 10158 ] final  -39.62 input  -65.29 | X-H torsion
[ 10718 10713 10712 10709 ] final -176.09 input   66.30 | X-H torsion
[ 10763 10752 10751 10750 ] final   27.57 input  -60.55 | X-H torsion
[ 11005 11000 10999 10996 ] final   86.93 input  -57.11 | X-H torsion

> <Gold.Protein.ActiveResidues>
 VAL166  LYS551  ARG553  GLY616  TRP617  ASP618  TYR619  PRO620  LYS621  CYS622 
 ASP623  PHE694  ASN695  SER759  ASP760  ASP761  ALA762  ILE779  LEU786  VAL792 
 PHE793  MET794  SER795  GLU796  ALA797  LYS798  CYS799  TRP800  GLU811  SER814 

> <Gold.Protein.RotatedAtoms>
  150.9161  133.6937  159.2842 H   0  0  0  0  0  0  0  0  0  0  0  0  # atno 6907 bound_to 6896
  151.4407  135.1018  159.9679 H   0  0  0  0  0  0  0  0  0  0  0  0  # atno 6908 bound_to 6896
  152.4955  133.8570  159.7286 H   0  0  0  0  0  0  0  0  0  0  0  0  # atno 6909 bound_to 6896
  146.1234  139.6057  142.9274 H   0  0  0  0  0  0  0  0  0  0  0  0  # atno 7974 bound_to 7965
  155.3761  140.0491  157.3044 H   0  0  0  0  0  0  0  0  0  0  0  0  # atno 8008 bound_to 7997
  154.5105  140.2190  155.9127 H   0  0  0  0  0  0  0  0  0  0  0  0  # atno 8009 bound_to 7997
  156.1577  140.3123  155.8760 H   0  0  0  0  0  0  0  0  0  0  0  0  # atno 8010 bound_to 7997
  140.7059  143.3203  151.2808 H   0  0  0  0  0  0  0  0  0  0  0  0  # atno 10167 bound_to 10162
  156.8095  130.9581  151.3116 H   0  0  0  0  0  0  0  0  0  0  0  0  # atno 10718 bound_to 10713
  153.0547  135.6534  154.0606 H   0  0  0  0  0  0  0  0  0  0  0  0  # atno 10763 bound_to 10752
  154.0287  135.2913  155.3373 H   0  0  0  0  0  0  0  0  0  0  0  0  # atno 10764 bound_to 10752
  154.6856  135.5303  153.8389 H   0  0  0  0  0  0  0  0  0  0  0  0  # atno 10765 bound_to 10752
  139.8932  134.8388  156.2788 H   0  0  0  0  0  0  0  0  0  0  0  0  # atno 11005 bound_to 11000
  145.5417  141.0420  143.2327 LP  0  0  0  0  0  0  0  0  0  0  0  0  # atno 17320 bound_to 7965
  144.7619  139.6937  143.7231 LP  0  0  0  0  0  0  0  0  0  0  0  0  # atno 17321 bound_to 7965
  139.6655  144.0113  152.2720 LP  0  0  0  0  0  0  0  0  0  0  0  0  # atno 17342 bound_to 10162
  139.9694  144.6504  150.8003 LP  0  0  0  0  0  0  0  0  0  0  0  0  # atno 17343 bound_to 10162
  157.6513  130.8886  149.9638 LP  0  0  0  0  0  0  0  0  0  0  0  0  # atno 17370 bound_to 10713
  156.1053  130.3653  150.0145 LP  0  0  0  0  0  0  0  0  0  0  0  0  # atno 17371 bound_to 10713
  141.0052  133.7128  156.1023 LP  0  0  0  0  0  0  0  0  0  0  0  0  # atno 17394 bound_to 11000
  140.7443  134.4115  157.5550 LP  0  0  0  0  0  0  0  0  0  0  0  0  # atno 17395 bound_to 11000

$$$$
