AV-unprocessed.smi:156|AV-procd|sdf|1288|dock5
  -GOLD-   2262018563D 1   1.00000     0.00000
 Structure written by MMmdl.
 51 53  0  0  0  0  0  0  0  0  1 V2000
  146.3633  141.9586  155.4968 C   0  0  0  0  0  0  0  0  0  0  0  0
  147.2843  140.7675  155.1657 C   0  0  1  0  0  0  0  0  0  0  0  0
  148.3672  140.5133  156.2586 C   0  0  2  0  0  0  0  0  0  0  0  0
  148.9648  141.8150  156.8255 C   0  0  0  0  0  0  0  0  0  0  0  0
  149.7551  139.4107  155.6710 S   0  0  0  0  0  0  0  0  0  0  0  0
  148.8860  137.8728  155.1454 C   0  0  0  0  0  0  0  0  0  0  0  0
  150.3438  140.0130  154.4651 O   0  0  0  0  0  0  0  0  0  0  0  0
  150.6290  139.0675  156.8028 O   0  0  0  0  0  0  0  0  0  0  0  0
  146.4602  139.5808  154.8820 N   0  0  0  0  0  0  0  0  0  0  0  0
  145.3311  139.2514  155.7490 C   0  0  0  0  0  0  0  0  0  0  0  0
  146.4774  139.0564  153.6237 C   0  0  0  0  0  0  0  0  0  0  0  0
  147.1134  139.7585  152.6489 N   0  0  0  0  0  0  0  0  0  0  0  0
  147.1841  139.2904  151.4007 C   0  0  0  0  0  0  0  0  0  0  0  0
  146.6931  138.1534  150.9094 N   0  0  0  0  0  0  0  0  0  0  0  0
  146.0461  137.4386  151.8731 C   0  0  0  0  0  0  0  0  0  0  0  0
  145.8942  137.8080  153.2422 C   0  0  0  0  0  0  0  0  0  0  0  0
  145.1744  136.8196  153.9065 N   0  0  0  0  0  0  0  0  0  0  0  0
  144.9315  135.9204  152.9938 C   0  0  0  0  0  0  0  0  0  0  0  0
  145.4049  136.2186  151.7371 N   0  0  0  0  0  0  0  0  0  0  0  0
  145.2825  135.4027  150.5363 C   0  0  0  0  0  0  0  0  0  0  0  0
  145.3968  133.8762  150.7689 C   0  0  0  0  0  0  0  0  0  0  0  0
  146.8140  133.5764  151.2764 C   0  0  0  0  0  0  0  0  0  0  0  0
  146.9884  132.1967  151.5280 O   0  0  0  0  0  0  0  0  0  0  0  0
  144.2630  133.2356  151.5872 C   0  0  0  0  0  0  0  0  0  0  0  0
  143.6348  132.7026  150.4028 O   0  0  0  0  0  0  0  0  0  0  0  0
  144.8566  132.9410  149.6729 C   0  0  0  0  0  0  0  0  0  0  0  0
  146.9122  142.8995  155.5245 H   0  0  0  0  0  0  0  0  0  0  0  0
  145.8717  141.8291  156.4615 H   0  0  0  0  0  0  0  0  0  0  0  0
  145.5854  142.0726  154.7410 H   0  0  0  0  0  0  0  0  0  0  0  0
  147.8224  141.0635  154.2669 H   0  0  0  0  0  0  0  0  0  0  0  0
  147.9137  139.9913  157.0998 H   0  0  0  0  0  0  0  0  0  0  0  0
  148.2232  142.3847  157.3848 H   0  0  0  0  0  0  0  0  0  0  0  0
  149.3494  142.4586  156.0348 H   0  0  0  0  0  0  0  0  0  0  0  0
  149.7826  141.6097  157.5160 H   0  0  0  0  0  0  0  0  0  0  0  0
  149.6234  137.1502  154.7967 H   0  0  0  0  0  0  0  0  0  0  0  0
  148.1962  138.0929  154.3319 H   0  0  0  0  0  0  0  0  0  0  0  0
  148.3400  137.4428  155.9824 H   0  0  0  0  0  0  0  0  0  0  0  0
  145.0569  138.2009  155.6462 H   0  0  0  0  0  0  0  0  0  0  0  0
  144.4643  139.8648  155.5021 H   0  0  0  0  0  0  0  0  0  0  0  0
  145.5666  139.4144  156.7988 H   0  0  0  0  0  0  0  0  0  0  0  0
  147.7112  139.9160  150.6957 H   0  0  0  0  0  0  0  0  0  0  0  0
  144.3957  135.0099  153.2174 H   0  0  0  0  0  0  0  0  0  0  0  0
  144.3298  135.6543  150.0693 H   0  0  0  0  0  0  0  0  0  0  0  0
  146.0487  135.7333  149.8340 H   0  0  0  0  0  0  0  0  0  0  0  0
  147.5666  133.9042  150.5586 H   0  0  0  0  0  0  0  0  0  0  0  0
  147.0170  134.1111  152.2050 H   0  0  0  0  0  0  0  0  0  0  0  0
  147.7622  131.9022  151.0721 H   0  0  0  0  0  0  0  0  0  0  0  0
  144.5928  132.4400  152.2573 H   0  0  0  0  0  0  0  0  0  0  0  0
  143.6317  133.9428  152.1233 H   0  0  0  0  0  0  0  0  0  0  0  0
  144.6898  133.4129  148.7061 H   0  0  0  0  0  0  0  0  0  0  0  0
  145.4372  132.0246  149.5529 H   0  0  0  0  0  0  0  0  0  0  0  0
  1  2  1  0  0  0  0
  1 27  1  0  0  0  0
  1 28  1  0  0  0  0
  1 29  1  0  0  0  0
  2  3  1  0  0  0  0
  2  9  1  0  0  0  0
  2 30  1  0  0  0  0
  3  4  1  0  0  0  0
  3  5  1  0  0  0  0
  3 31  1  0  0  0  0
  4 32  1  0  0  0  0
  4 33  1  0  0  0  0
  4 34  1  0  0  0  0
  5  6  1  0  0  0  0
  5  7  2  0  0  0  0
  5  8  2  0  0  0  0
  6 35  1  0  0  0  0
  6 36  1  0  0  0  0
  6 37  1  0  0  0  0
  9 10  1  0  0  0  0
  9 11  1  0  0  0  0
 10 38  1  0  0  0  0
 10 39  1  0  0  0  0
 10 40  1  0  0  0  0
 11 16  1  0  0  0  0
 11 12  2  0  0  0  0
 12 13  1  0  0  0  0
 13 14  2  0  0  0  0
 13 41  1  0  0  0  0
 14 15  1  0  0  0  0
 15 19  1  0  0  0  0
 15 16  2  0  0  0  0
 16 17  1  0  0  0  0
 17 18  2  0  0  0  0
 18 19  1  0  0  0  0
 18 42  1  0  0  0  0
 19 20  1  0  0  0  0
 20 21  1  0  0  0  0
 20 43  1  0  0  0  0
 20 44  1  0  0  0  0
 21 26  1  0  0  0  0
 21 22  1  0  0  0  0
 21 24  1  0  0  0  0
 22 23  1  0  0  0  0
 22 45  1  0  0  0  0
 22 46  1  0  0  0  0
 23 47  1  0  0  0  0
 24 25  1  0  0  0  0
 24 48  1  0  0  0  0
 24 49  1  0  0  0  0
 25 26  1  0  0  0  0
 26 50  1  0  0  0  0
 26 51  1  0  0  0  0
M  END
> <s_m_source_file>
AV-unprocessed.smi

> <i_m_source_file_index>
156

> <i_lp_mmshare_version>
43012

> <i_f3d_flags>
0

> <s_epik_input>
W0NIM11TKD1PKSg9TylbQ0BASF0oW0NIM10pW0NAQEhdKFtDSDNdKU4oW0NIM10pYyhuW2NIXW4xKWMoYzEyKW5bY0hdbjJbQ0gyXUMzKFtDSDJdW09IXSlbQ0gyXU9bQ0gyXTM=

> <s_epik_cmdline>
J2VwaWtfcHl0aG9uJywgJy1waCcsICc3LjAnLCAnLXRuJywgJzgnLCAnLW1hJywgJzIwMCcsICctbWV0YWxfYmluZGluZycsICctaW1hZScsICc8aW5maWxlLm1hZT4nLCAnLW9tYWUnLCAnPG91dGZpbGUubWFlPic=

> <r_lp_tautomer_probability>
1

> <r_epik_Ionization_Penalty>
0.00107697

> <r_epik_Ionization_Penalty_Charging>
0

> <r_epik_Ionization_Penalty_Neutral>
0.00107697

> <r_epik_State_Penalty>
0.000614712

> <r_epik_Charging_Adjusted_Penalty>
0.000614712

> <i_epik_Tot_Q>
0

> <i_epik_Tot_abs_Q>
0

> <r_epik_Metal_State_Penalty>
-0

> <b_epik_Metal_Only>
0

> <s_lp_Force_Field>
OPLS_2005

> <r_lp_Energy>
29.1467

> <b_lp_Chiralities_Consistent>
1

> <s_lp_Variant>
AV-unprocessed.smi:156-2

> <Gold.Version>
5.8.1

> <Gold.Id.Protein>
6NUR|6NUR_protein|mol2

> <Gold.PLP.Fitness>
38.3180

> <Gold.PLP.PLP>
-30.2691

> <Gold.PLP.part.hbond>
-3.0000

> <Gold.PLP.part.metal>
0.0000

> <Gold.PLP.part.buried>
-3.9933

> <Gold.PLP.part.nonpolar>
-25.9784

> <Gold.PLP.part.repulsive>
3.2453

> <Gold.PLP.ligand.clash>
0.0000

> <Gold.PLP.ligand.torsion>
1.3107

> <Gold.PLP.Chemscore.Hbond>
2.5452

> <Gold.PLP.Chemscore.CHOScore>
0.5774

> <Gold.PLP.Chemscore.Metal>
0.0000

> <Gold.Chemscore.Hbonds>
donor molecule, donor type, donor heavy atom, donor atom, acceptor molecule, acceptor atom, score
      L1  H    23    47       P1 10747  1.00
      P1  H  7954  7966       L1    14  0.60
      P1  H  7989  7998       L1     7  1.00
      L1  C    13    41       P1  7957  0.42

> <Gold.PLP.Chemscore.Internal.Correction>
1.3026

> <Gold.Rescore>
     Score         DG    S(hbond)    S(metal)    S(lipo)     H(rot)  DE(clash)    DE(int)     intcor
      3.93      -9.85       1.92        0.00      52.96       3.21       2.57       3.36       ----

> <Gold.Chemscore.Fitness>
3.9271

> <Gold.Chemscore.DG>
-9.8534

> <Gold.Chemscore.ZeroCoef>
-5.4800

> <Gold.Chemscore.Hbond>
1.9157

> <Gold.Chemscore.Metal>
0.0000

> <Gold.Chemscore.Lipo>
52.9621

> <Gold.Chemscore.Internal_Hbond>
0.0000

> <Gold.Chemscore.DEClash>
2.5674

> <Gold.Chemscore.DEInternal>
3.3590

> <Gold.Chemscore.Rot>
3.2115

> <Gold.Chemscore.Internal.Correction>
   9.000000E+99

> <Gold.Chemscore.Hbonds>
donor molecule, donor type, donor heavy atom, donor atom, acceptor molecule, acceptor atom, score
      L1  H    23    47       P1 10747  1.00
      P1  H  7954  7966       L1    14  0.04
      P1  H  7989  7998       L1     7  0.99

> <Gold.Chemscore.Hbond.Weighted>
-6.3984

> <Gold.Chemscore.Metal.Weighted>
-0.0000

> <Gold.Chemscore.Lipo.Weighted>
-6.1966

> <Gold.Chemscore.Internal_Hbond.Weighted>
0.0000

> <Gold.Chemscore.DEClash.Weighted>
2.5674

> <Gold.Chemscore.DEInternal.Weighted>
3.3590

> <Gold.Chemscore.Rot.Weighted>
8.2215

> <Gold.Chemscore.Internal.Correction.Weighted>
   9.000000E+99

> <Gold.Protein.RotatedTorsions>
[ 6907 6896 6895 6894 ] final -114.98 input  -60.11 | X-H torsion
[ 7974 7965 7964 7962 ] final -136.94 input  175.53 | X-H torsion
[ 8008 7997 7996 7995 ] final  173.70 input   59.86 | X-H torsion
[ 10167 10162 10161 10158 ] final  165.96 input  -65.29 | X-H torsion
[ 10718 10713 10712 10709 ] final  -38.71 input   66.30 | X-H torsion
[ 10763 10752 10751 10750 ] final   84.55 input  -60.55 | X-H torsion
[ 11005 11000 10999 10996 ] final -107.62 input  -57.11 | X-H torsion

> <Gold.Protein.ActiveResidues>
 VAL166  LYS551  ARG553  GLY616  TRP617  ASP618  TYR619  PRO620  LYS621  CYS622 
 ASP623  PHE694  ASN695  SER759  ASP760  ASP761  ALA762  ILE779  LEU786  VAL792 
 PHE793  MET794  SER795  GLU796  ALA797  LYS798  CYS799  TRP800  GLU811  SER814 

> <Gold.Protein.RotatedAtoms>
  150.7943  133.8724  159.3262 H   0  0  0  0  0  0  0  0  0  0  0  0  # atno 6907 bound_to 6896
  151.6553  135.0994  160.0178 H   0  0  0  0  0  0  0  0  0  0  0  0  # atno 6908 bound_to 6896
  152.4022  133.6796  159.6361 H   0  0  0  0  0  0  0  0  0  0  0  0  # atno 6909 bound_to 6896
  144.8884  140.6607  143.5161 H   0  0  0  0  0  0  0  0  0  0  0  0  # atno 7974 bound_to 7965
  156.1049  140.1453  156.9418 H   0  0  0  0  0  0  0  0  0  0  0  0  # atno 8008 bound_to 7997
  154.4727  140.0904  156.7229 H   0  0  0  0  0  0  0  0  0  0  0  0  # atno 8009 bound_to 7997
  155.4697  140.3441  155.4326 H   0  0  0  0  0  0  0  0  0  0  0  0  # atno 8010 bound_to 7997
  139.4915  144.4077  151.9336 H   0  0  0  0  0  0  0  0  0  0  0  0  # atno 10167 bound_to 10162
  156.3007  130.4240  149.8146 H   0  0  0  0  0  0  0  0  0  0  0  0  # atno 10718 bound_to 10713
  153.1393  135.4650  154.9470 H   0  0  0  0  0  0  0  0  0  0  0  0  # atno 10763 bound_to 10752
  154.7733  135.3165  154.8147 H   0  0  0  0  0  0  0  0  0  0  0  0  # atno 10764 bound_to 10752
  153.8673  135.6907  153.4831 H   0  0  0  0  0  0  0  0  0  0  0  0  # atno 10765 bound_to 10752
  141.0945  133.8996  157.1997 H   0  0  0  0  0  0  0  0  0  0  0  0  # atno 11005 bound_to 11000
  145.3828  139.1633  143.4271 LP  0  0  0  0  0  0  0  0  0  0  0  0  # atno 17320 bound_to 7965
  146.3038  140.3910  142.8694 LP  0  0  0  0  0  0  0  0  0  0  0  0  # atno 17321 bound_to 7965
  140.3518  144.3080  150.5948 LP  0  0  0  0  0  0  0  0  0  0  0  0  # atno 17342 bound_to 10162
  140.5479  143.2211  151.7977 LP  0  0  0  0  0  0  0  0  0  0  0  0  # atno 17343 bound_to 10162
  156.5525  130.8348  151.3304 LP  0  0  0  0  0  0  0  0  0  0  0  0  # atno 17370 bound_to 10713
  157.7367  130.9783  150.2152 LP  0  0  0  0  0  0  0  0  0  0  0  0  # atno 17371 bound_to 10713
  139.9778  135.0108  156.9674 LP  0  0  0  0  0  0  0  0  0  0  0  0  # atno 17394 bound_to 11000
  140.5174  134.0942  155.7284 LP  0  0  0  0  0  0  0  0  0  0  0  0  # atno 17395 bound_to 11000

$$$$
