AV-unprocessed.smi:1966|AV-procd|sdf|7950|dock9
  -GOLD-   2272010113D 1   1.00000     0.00000
 Structure written by MMmdl.
 53 54  0  0  0  0  0  0  0  0  1 V2000
  145.4374  136.2242  151.4263 C   0  0  0  0  0  0  0  0  0  0  0  0
  145.7337  135.4350  152.6967 C   0  0  0  0  0  0  0  0  0  0  0  0
  144.8536  134.7526  153.2205 O   0  0  0  0  0  0  0  0  0  0  0  0
  146.9811  135.5385  153.1820 N   0  0  0  0  0  0  0  0  0  0  0  0
  147.4788  134.8842  154.3943 C   0  0  2  0  0  0  0  0  0  0  0  0
  148.0026  135.9660  155.3598 C   0  0  0  0  0  0  0  0  0  0  0  0
  147.6151  135.9830  156.5286 O   0  0  0  0  0  0  0  0  0  0  0  0
  148.8487  136.8634  154.8204 N   0  0  0  0  0  0  0  0  0  0  0  0
  149.5148  137.9544  155.4425 C   0  0  0  0  0  0  0  0  0  0  0  0
  150.3411  138.8825  154.7668 C   0  0  0  0  0  0  0  0  0  0  0  0
  150.9268  139.9335  155.4982 C   0  0  0  0  0  0  0  0  0  0  0  0
  150.6674  140.0433  156.8845 C   0  0  0  0  0  0  0  0  0  0  0  0
  151.2410  141.0944  157.6326 N   0  0  0  0  0  0  0  0  0  0  0  0
  152.0776  140.7446  158.7773 C   0  0  0  0  0  0  0  0  0  0  0  0
  152.8752  141.9711  159.2551 C   0  0  2  0  0  0  0  0  0  0  0  0
  153.6621  141.6774  160.5364 C   0  0  0  0  0  0  0  0  0  0  0  0
  151.9797  143.0488  159.5248 O   0  0  0  0  0  0  0  0  0  0  0  0
  151.1661  143.4417  158.4175 C   0  0  1  0  0  0  0  0  0  0  0  0
  151.9774  144.1637  157.3266 C   0  0  0  0  0  0  0  0  0  0  0  0
  150.3655  142.2352  157.8886 C   0  0  0  0  0  0  0  0  0  0  0  0
  149.8712  139.1545  157.5277 N   0  0  0  0  0  0  0  0  0  0  0  0
  149.3120  138.1487  156.8234 C   0  0  0  0  0  0  0  0  0  0  0  0
  148.6269  133.9073  154.0022 C   0  0  0  0  0  0  0  0  0  0  0  0
  148.1305  132.7865  153.0672 C   0  0  0  0  0  0  0  0  0  0  0  0
  149.3267  133.2725  155.2222 C   0  0  0  0  0  0  0  0  0  0  0  0
  145.5994  137.2894  151.5940 H   0  0  0  0  0  0  0  0  0  0  0  0
  144.4027  136.0815  151.1129 H   0  0  0  0  0  0  0  0  0  0  0  0
  146.0885  135.8985  150.6147 H   0  0  0  0  0  0  0  0  0  0  0  0
  147.6346  136.1268  152.6859 H   0  0  0  0  0  0  0  0  0  0  0  0
  146.6698  134.3217  154.8654 H   0  0  0  0  0  0  0  0  0  0  0  0
  149.0125  136.7693  153.8284 H   0  0  0  0  0  0  0  0  0  0  0  0
  150.5307  138.8217  153.7069 H   0  0  0  0  0  0  0  0  0  0  0  0
  151.5723  140.6346  154.9904 H   0  0  0  0  0  0  0  0  0  0  0  0
  151.4443  140.3685  159.5822 H   0  0  0  0  0  0  0  0  0  0  0  0
  152.7713  139.9473  158.5075 H   0  0  0  0  0  0  0  0  0  0  0  0
  153.5864  142.2677  158.4840 H   0  0  0  0  0  0  0  0  0  0  0  0
  154.3735  140.8655  160.3829 H   0  0  0  0  0  0  0  0  0  0  0  0
  152.9966  141.3906  161.3513 H   0  0  0  0  0  0  0  0  0  0  0  0
  154.2234  142.5552  160.8576 H   0  0  0  0  0  0  0  0  0  0  0  0
  150.4520  144.1667  158.8090 H   0  0  0  0  0  0  0  0  0  0  0  0
  151.3161  144.5766  156.5645 H   0  0  0  0  0  0  0  0  0  0  0  0
  152.6751  143.4969  156.8203 H   0  0  0  0  0  0  0  0  0  0  0  0
  152.5494  144.9898  157.7493 H   0  0  0  0  0  0  0  0  0  0  0  0
  149.8093  142.5332  157.0009 H   0  0  0  0  0  0  0  0  0  0  0  0
  149.6260  141.9345  158.6319 H   0  0  0  0  0  0  0  0  0  0  0  0
  148.6818  137.4746  157.3853 H   0  0  0  0  0  0  0  0  0  0  0  0
  149.3854  134.4676  153.4523 H   0  0  0  0  0  0  0  0  0  0  0  0
  147.3430  132.1988  153.5398 H   0  0  0  0  0  0  0  0  0  0  0  0
  148.9407  132.1048  152.8069 H   0  0  0  0  0  0  0  0  0  0  0  0
  147.7353  133.1796  152.1304 H   0  0  0  0  0  0  0  0  0  0  0  0
  148.6144  132.7379  155.8514 H   0  0  0  0  0  0  0  0  0  0  0  0
  149.8284  134.0155  155.8421 H   0  0  0  0  0  0  0  0  0  0  0  0
  150.0902  132.5600  154.9085 H   0  0  0  0  0  0  0  0  0  0  0  0
  1  2  1  0  0  0  0
  1 26  1  0  0  0  0
  1 27  1  0  0  0  0
  1 28  1  0  0  0  0
  2  3  2  0  0  0  0
  2  4  1  0  0  0  0
  4  5  1  0  0  0  0
  4 29  1  0  0  0  0
  5  6  1  0  0  0  0
  5 23  1  0  0  0  0
  5 30  1  0  0  0  0
  6  7  2  0  0  0  0
  6  8  1  0  0  0  0
  8  9  1  0  0  0  0
  8 31  1  0  0  0  0
  9 22  1  0  0  0  0
  9 10  2  0  0  0  0
 10 11  1  0  0  0  0
 10 32  1  0  0  0  0
 11 12  2  0  0  0  0
 11 33  1  0  0  0  0
 12 13  1  0  0  0  0
 12 21  1  0  0  0  0
 13 20  1  0  0  0  0
 13 14  1  0  0  0  0
 14 15  1  0  0  0  0
 14 34  1  0  0  0  0
 14 35  1  0  0  0  0
 15 16  1  0  0  0  0
 15 17  1  0  0  0  0
 15 36  1  0  0  0  0
 16 37  1  0  0  0  0
 16 38  1  0  0  0  0
 16 39  1  0  0  0  0
 17 18  1  0  0  0  0
 18 19  1  0  0  0  0
 18 20  1  0  0  0  0
 18 40  1  0  0  0  0
 19 41  1  0  0  0  0
 19 42  1  0  0  0  0
 19 43  1  0  0  0  0
 20 44  1  0  0  0  0
 20 45  1  0  0  0  0
 21 22  2  0  0  0  0
 22 46  1  0  0  0  0
 23 24  1  0  0  0  0
 23 25  1  0  0  0  0
 23 47  1  0  0  0  0
 24 48  1  0  0  0  0
 24 49  1  0  0  0  0
 24 50  1  0  0  0  0
 25 51  1  0  0  0  0
 25 52  1  0  0  0  0
 25 53  1  0  0  0  0
M  END
> <s_m_source_file>
AV-unprocessed.smi

> <i_m_source_file_index>
1966

> <i_lp_mmshare_version>
43012

> <i_f3d_flags>
0

> <s_epik_input>
W0NIM11DKD1PKVtOSF1bQ0BASF0oW0NIXShbQ0gzXSlbQ0gzXSlDKD1PKVtOSF1jMVtjSF1bY0hdYyhuW2NIXTEpTjJbQ0gyXVtDQEBIXShbQ0gzXSlPW0NAQEhdKFtDSDNdKVtDSDJdMg==

> <s_epik_cmdline>
J2VwaWtfcHl0aG9uJywgJy1waCcsICc3LjAnLCAnLXRuJywgJzgnLCAnLW1hJywgJzIwMCcsICctbWV0YWxfYmluZGluZycsICctaW1hZScsICc8aW5maWxlLm1hZT4nLCAnLW9tYWUnLCAnPG91dGZpbGUubWFlPic=

> <r_lp_tautomer_probability>
1

> <r_epik_Ionization_Penalty>
0.000679699

> <r_epik_Ionization_Penalty_Charging>
0

> <r_epik_Ionization_Penalty_Neutral>
0.000679699

> <r_epik_State_Penalty>
0.000430485

> <r_epik_Charging_Adjusted_Penalty>
0.000430485

> <i_epik_Tot_Q>
0

> <i_epik_Tot_abs_Q>
0

> <r_epik_Metal_State_Penalty>
-0

> <b_epik_Metal_Only>
0

> <s_lp_Force_Field>
OPLS_2005

> <r_lp_Energy>
28.7238

> <b_lp_Chiralities_Consistent>
1

> <s_lp_Variant>
AV-unprocessed.smi:1966-3

> <Gold.Version>
5.8.1

> <Gold.Id.Protein>
6NUR|6NUR_protein|mol2

> <Gold.PLP.Fitness>
44.3759

> <Gold.PLP.PLP>
-39.1564

> <Gold.PLP.part.hbond>
-1.6856

> <Gold.PLP.part.metal>
0.0000

> <Gold.PLP.part.buried>
-4.7084

> <Gold.PLP.part.nonpolar>
-33.2762

> <Gold.PLP.part.repulsive>
0.0917

> <Gold.PLP.ligand.clash>
0.0000

> <Gold.PLP.ligand.torsion>
0.4855

> <Gold.PLP.Chemscore.Hbond>
1.9516

> <Gold.PLP.Chemscore.CHOScore>
0.0000

> <Gold.PLP.Chemscore.Metal>
0.0000

> <Gold.Chemscore.Hbonds>
donor molecule, donor type, donor heavy atom, donor atom, acceptor molecule, acceptor atom, score
      L1  H     4    29       P1  7948  0.94
      L1  H     8    31       P1  7948  1.00

> <Gold.PLP.Chemscore.Internal.Correction>
0.3356

> <Gold.Rescore>
     Score         DG    S(hbond)    S(metal)    S(lipo)     H(rot)  DE(clash)    DE(int)     intcor
     17.52     -19.48       1.96        0.00     100.40       1.68       0.08       1.88       ----

> <Gold.Chemscore.Fitness>
17.5222

> <Gold.Chemscore.DG>
-19.4845

> <Gold.Chemscore.ZeroCoef>
-5.4800

> <Gold.Chemscore.Hbond>
1.9604

> <Gold.Chemscore.Metal>
0.0000

> <Gold.Chemscore.Lipo>
100.4014

> <Gold.Chemscore.Internal_Hbond>
0.0000

> <Gold.Chemscore.DEClash>
0.0794

> <Gold.Chemscore.DEInternal>
1.8830

> <Gold.Chemscore.Rot>
1.6759

> <Gold.Chemscore.Internal.Correction>
   9.000000E+99

> <Gold.Chemscore.Hbonds>
donor molecule, donor type, donor heavy atom, donor atom, acceptor molecule, acceptor atom, score
      L1  H     4    29       P1  7948  0.87
      L1  H     8    31       P1  7948  0.93

> <Gold.Chemscore.Hbond.Weighted>
-6.5478

> <Gold.Chemscore.Metal.Weighted>
-0.0000

> <Gold.Chemscore.Lipo.Weighted>
-11.7470

> <Gold.Chemscore.Internal_Hbond.Weighted>
0.0000

> <Gold.Chemscore.DEClash.Weighted>
0.0794

> <Gold.Chemscore.DEInternal.Weighted>
1.8830

> <Gold.Chemscore.Rot.Weighted>
4.2902

> <Gold.Chemscore.Internal.Correction.Weighted>
   9.000000E+99

> <Gold.Protein.RotatedTorsions>
[ 6907 6896 6895 6894 ] final  170.90 input  -60.11 | X-H torsion
[ 7974 7965 7964 7962 ] final   60.63 input  175.53 | X-H torsion
[ 8008 7997 7996 7995 ] final -158.22 input   59.86 | X-H torsion
[ 10167 10162 10161 10158 ] final -133.47 input  -65.29 | X-H torsion
[ 10718 10713 10712 10709 ] final -144.73 input   66.30 | X-H torsion
[ 10763 10752 10751 10750 ] final  -31.90 input  -60.55 | X-H torsion
[ 11005 11000 10999 10996 ] final   85.22 input  -57.11 | X-H torsion

> <Gold.Protein.ActiveResidues>
 VAL166  LYS551  ARG553  GLY616  TRP617  ASP618  TYR619  PRO620  LYS621  CYS622 
 ASP623  PHE694  ASN695  SER759  ASP760  ASP761  ALA762  ILE779  LEU786  VAL792 
 PHE793  MET794  SER795  GLU796  ALA797  LYS798  CYS799  TRP800  GLU811  SER814 

> <Gold.Protein.RotatedAtoms>
  151.8087  133.3379  159.3548 H   0  0  0  0  0  0  0  0  0  0  0  0  # atno 6907 bound_to 6896
  150.7333  134.5684  159.5887 H   0  0  0  0  0  0  0  0  0  0  0  0  # atno 6908 bound_to 6896
  152.3091  134.7521  160.0392 H   0  0  0  0  0  0  0  0  0  0  0  0  # atno 6909 bound_to 6896
  145.8939  139.3531  143.0633 H   0  0  0  0  0  0  0  0  0  0  0  0  # atno 7974 bound_to 7965
  155.7443  140.0818  157.2231 H   0  0  0  0  0  0  0  0  0  0  0  0  # atno 8008 bound_to 7997
  154.4018  140.1572  156.2707 H   0  0  0  0  0  0  0  0  0  0  0  0  # atno 8009 bound_to 7997
  155.8990  140.3411  155.6015 H   0  0  0  0  0  0  0  0  0  0  0  0  # atno 8010 bound_to 7997
  139.8979  143.6643  152.2600 H   0  0  0  0  0  0  0  0  0  0  0  0  # atno 10167 bound_to 10162
  156.3737  130.7801  151.1985 H   0  0  0  0  0  0  0  0  0  0  0  0  # atno 10718 bound_to 10713
  153.8049  135.6887  153.4850 H   0  0  0  0  0  0  0  0  0  0  0  0  # atno 10763 bound_to 10752
  153.1665  135.4559  154.9842 H   0  0  0  0  0  0  0  0  0  0  0  0  # atno 10764 bound_to 10752
  154.7991  135.3331  154.7534 H   0  0  0  0  0  0  0  0  0  0  0  0  # atno 10765 bound_to 10752
  139.8978  134.8271  156.2552 H   0  0  0  0  0  0  0  0  0  0  0  0  # atno 11005 bound_to 11000
  145.8875  140.9325  143.0569 LP  0  0  0  0  0  0  0  0  0  0  0  0  # atno 17320 bound_to 7965
  144.6732  140.0861  143.7467 LP  0  0  0  0  0  0  0  0  0  0  0  0  # atno 17321 bound_to 7965
  139.7051  144.7629  151.1207 LP  0  0  0  0  0  0  0  0  0  0  0  0  # atno 17342 bound_to 10162
  140.7713  143.5405  150.9318 LP  0  0  0  0  0  0  0  0  0  0  0  0  # atno 17343 bound_to 10162
  157.7486  131.0364  150.4410 LP  0  0  0  0  0  0  0  0  0  0  0  0  # atno 17370 bound_to 10713
  156.4642  130.4038  149.6557 LP  0  0  0  0  0  0  0  0  0  0  0  0  # atno 17371 bound_to 10713
  141.0198  133.7048  156.1249 LP  0  0  0  0  0  0  0  0  0  0  0  0  # atno 17394 bound_to 11000
  140.7250  134.4317  157.5571 LP  0  0  0  0  0  0  0  0  0  0  0  0  # atno 17395 bound_to 11000

$$$$
