AV-unprocessed.smi:1791|AV-procd|sdf|7219|dock1
  -GOLD-   22720 8463D 1   1.00000     0.00000
 Structure written by MMmdl.
 38 39  0  0  0  0  0  0  0  0  1 V2000
  153.2619  139.1279  158.6956 C   0  0  0  0  0  0  0  0  0  0  0  0
  153.0716  139.4531  157.3227 O   0  0  0  0  0  0  0  0  0  0  0  0
  152.3095  138.6025  156.5481 C   0  0  0  0  0  0  0  0  0  0  0  0
  152.0323  138.9682  155.2158 C   0  0  0  0  0  0  0  0  0  0  0  0
  151.2578  138.1042  154.4179 C   0  0  0  0  0  0  0  0  0  0  0  0
  150.7887  136.8921  154.9789 C   0  0  0  0  0  0  0  0  0  0  0  0
  149.9888  135.9399  154.2902 N   0  0  0  0  0  0  0  0  0  0  0  0
  149.4987  134.7697  154.7345 C   0  0  0  0  0  0  0  0  0  0  0  0
  149.6760  134.3045  155.8598 O   0  0  0  0  0  0  0  0  0  0  0  0
  148.7641  134.1682  153.7876 N   0  0  0  0  0  0  0  0  0  0  0  0
  148.0770  132.8851  153.9211 C   0  0  1  0  0  0  0  0  0  0  0  0
  146.9724  133.0253  154.9801 C   0  0  0  0  0  0  0  0  0  0  0  0
  147.5229  132.4550  152.5488 C   0  0  2  0  0  0  0  0  0  0  0  0
  146.4924  133.4121  151.9460 C   0  0  0  0  0  0  0  0  0  0  0  0
  145.6496  132.5213  151.0458 C   0  0  0  0  0  0  0  0  0  0  0  0
  146.0380  131.0993  151.4571 C   0  0  0  0  0  0  0  0  0  0  0  0
  146.7745  131.2539  152.6612 O   0  0  0  0  0  0  0  0  0  0  0  0
  151.1101  136.6264  156.3259 C   0  0  0  0  0  0  0  0  0  0  0  0
  151.8524  137.4496  157.0958 N   0  0  0  0  0  0  0  0  0  0  0  0
  153.8816  139.8915  159.1654 H   0  0  0  0  0  0  0  0  0  0  0  0
  153.7727  138.1709  158.8114 H   0  0  0  0  0  0  0  0  0  0  0  0
  152.3136  139.0952  159.2337 H   0  0  0  0  0  0  0  0  0  0  0  0
  152.4054  139.8983  154.8127 H   0  0  0  0  0  0  0  0  0  0  0  0
  151.0340  138.3961  153.4040 H   0  0  0  0  0  0  0  0  0  0  0  0
  149.7031  136.2117  153.3609 H   0  0  0  0  0  0  0  0  0  0  0  0
  148.6778  134.6313  152.8950 H   0  0  0  0  0  0  0  0  0  0  0  0
  148.7723  132.1184  154.2670 H   0  0  0  0  0  0  0  0  0  0  0  0
  146.4621  132.0770  155.1501 H   0  0  0  0  0  0  0  0  0  0  0  0
  146.2225  133.7574  154.6788 H   0  0  0  0  0  0  0  0  0  0  0  0
  147.3861  133.3464  155.9365 H   0  0  0  0  0  0  0  0  0  0  0  0
  148.3383  132.2950  151.8402 H   0  0  0  0  0  0  0  0  0  0  0  0
  145.8630  133.8332  152.7312 H   0  0  0  0  0  0  0  0  0  0  0  0
  146.9545  134.2398  151.4068 H   0  0  0  0  0  0  0  0  0  0  0  0
  144.5869  132.7086  151.2036 H   0  0  0  0  0  0  0  0  0  0  0  0
  145.8674  132.6916  149.9912 H   0  0  0  0  0  0  0  0  0  0  0  0
  145.1724  130.4531  151.6046 H   0  0  0  0  0  0  0  0  0  0  0  0
  146.6788  130.6432  150.7012 H   0  0  0  0  0  0  0  0  0  0  0  0
  150.7655  135.7205  156.8028 H   0  0  0  0  0  0  0  0  0  0  0  0
  1  2  1  0  0  0  0
  1 20  1  0  0  0  0
  1 21  1  0  0  0  0
  1 22  1  0  0  0  0
  2  3  1  0  0  0  0
  3 19  1  0  0  0  0
  3  4  2  0  0  0  0
  4  5  1  0  0  0  0
  4 23  1  0  0  0  0
  5  6  2  0  0  0  0
  5 24  1  0  0  0  0
  6  7  1  0  0  0  0
  6 18  1  0  0  0  0
  7  8  1  0  0  0  0
  7 25  1  0  0  0  0
  8  9  2  0  0  0  0
  8 10  1  0  0  0  0
 10 11  1  0  0  0  0
 10 26  1  0  0  0  0
 11 12  1  0  0  0  0
 11 13  1  0  0  0  0
 11 27  1  0  0  0  0
 12 28  1  0  0  0  0
 12 29  1  0  0  0  0
 12 30  1  0  0  0  0
 13 17  1  0  0  0  0
 13 14  1  0  0  0  0
 13 31  1  0  0  0  0
 14 15  1  0  0  0  0
 14 32  1  0  0  0  0
 14 33  1  0  0  0  0
 15 16  1  0  0  0  0
 15 34  1  0  0  0  0
 15 35  1  0  0  0  0
 16 17  1  0  0  0  0
 16 36  1  0  0  0  0
 16 37  1  0  0  0  0
 18 19  2  0  0  0  0
 18 38  1  0  0  0  0
M  END
> <s_m_source_file>
AV-unprocessed.smi

> <i_m_source_file_index>
1791

> <i_lp_mmshare_version>
43012

> <i_f3d_flags>
0

> <s_epik_input>
W0NIM11PYzFbY0hdW2NIXWMoW2NIXW4xKVtOSF1DKD1PKVtOSF1bQ0BIXShbQ0gzXSlbQ0BASF0yW0NIMl1bQ0gyXVtDSDJdTzI=

> <s_epik_cmdline>
J2VwaWtfcHl0aG9uJywgJy1waCcsICc3LjAnLCAnLXRuJywgJzgnLCAnLW1hJywgJzIwMCcsICctbWV0YWxfYmluZGluZycsICctaW1hZScsICc8aW5maWxlLm1hZT4nLCAnLW9tYWUnLCAnPG91dGZpbGUubWFlPic=

> <r_lp_tautomer_probability>
1

> <r_epik_Ionization_Penalty>
9.18737e-05

> <r_epik_Ionization_Penalty_Charging>
0

> <r_epik_Ionization_Penalty_Neutral>
9.18737e-05

> <r_epik_State_Penalty>
-0

> <r_epik_Charging_Adjusted_Penalty>
0

> <i_epik_Tot_Q>
0

> <i_epik_Tot_abs_Q>
0

> <r_epik_Metal_State_Penalty>
-0

> <b_epik_Metal_Only>
0

> <s_lp_Force_Field>
OPLS_2005

> <r_lp_Energy>
20.9022

> <b_lp_Chiralities_Consistent>
1

> <s_lp_Variant>
AV-unprocessed.smi:1791-2

> <Gold.Version>
5.8.1

> <Gold.Id.Protein>
6NUR|6NUR_protein|mol2

> <Gold.PLP.Fitness>
37.0120

> <Gold.PLP.PLP>
-28.1283

> <Gold.PLP.part.hbond>
-3.8598

> <Gold.PLP.part.metal>
0.0000

> <Gold.PLP.part.buried>
-2.9654

> <Gold.PLP.part.nonpolar>
-22.0275

> <Gold.PLP.part.repulsive>
0.2252

> <Gold.PLP.ligand.clash>
0.0000

> <Gold.PLP.ligand.torsion>
0.0771

> <Gold.PLP.Chemscore.Hbond>
2.9920

> <Gold.PLP.Chemscore.CHOScore>
0.0000

> <Gold.PLP.Chemscore.Metal>
0.0000

> <Gold.Chemscore.Hbonds>
donor molecule, donor type, donor heavy atom, donor atom, acceptor molecule, acceptor atom, score
      L1  H     7    25       P1  7948  0.95
      L1  H    10    26       P1  7948  0.83
      P1  H  7997  8009       L1     2  1.00

> <Gold.PLP.Chemscore.Internal.Correction>
0.0618

> <Gold.Rescore>
     Score         DG    S(hbond)    S(metal)    S(lipo)     H(rot)  DE(clash)    DE(int)     intcor
     15.63     -17.47       2.64        0.00      59.43       1.47       0.03       1.81       ----

> <Gold.Chemscore.Fitness>
15.6285

> <Gold.Chemscore.DG>
-17.4742

> <Gold.Chemscore.ZeroCoef>
-5.4800

> <Gold.Chemscore.Hbond>
2.6353

> <Gold.Chemscore.Metal>
0.0000

> <Gold.Chemscore.Lipo>
59.4330

> <Gold.Chemscore.Internal_Hbond>
0.0000

> <Gold.Chemscore.DEClash>
0.0310

> <Gold.Chemscore.DEInternal>
1.8147

> <Gold.Chemscore.Rot>
1.4693

> <Gold.Chemscore.Internal.Correction>
   9.000000E+99

> <Gold.Chemscore.Hbonds>
donor molecule, donor type, donor heavy atom, donor atom, acceptor molecule, acceptor atom, score
      L1  H     7    25       P1  7948  0.21
      L1  H    10    26       P1  7948  0.14
      P1  H  7997  8009       L1     2  0.83

> <Gold.Chemscore.Hbond.Weighted>
-8.8019

> <Gold.Chemscore.Metal.Weighted>
-0.0000

> <Gold.Chemscore.Lipo.Weighted>
-6.9537

> <Gold.Chemscore.Internal_Hbond.Weighted>
0.0000

> <Gold.Chemscore.DEClash.Weighted>
0.0310

> <Gold.Chemscore.DEInternal.Weighted>
1.8147

> <Gold.Chemscore.Rot.Weighted>
3.7613

> <Gold.Chemscore.Internal.Correction.Weighted>
   9.000000E+99

> <Gold.Protein.RotatedTorsions>
[ 6907 6896 6895 6894 ] final   -2.87 input  -60.11 | X-H torsion
[ 7974 7965 7964 7962 ] final -130.63 input  175.53 | X-H torsion
[ 8008 7997 7996 7995 ] final -174.26 input   59.86 | X-H torsion
[ 10167 10162 10161 10158 ] final  -66.36 input  -65.29 | X-H torsion
[ 10718 10713 10712 10709 ] final -174.96 input   66.30 | X-H torsion
[ 10763 10752 10751 10750 ] final  108.74 input  -60.55 | X-H torsion
[ 11005 11000 10999 10996 ] final  111.97 input  -57.11 | X-H torsion

> <Gold.Protein.ActiveResidues>
 VAL166  LYS551  ARG553  GLY616  TRP617  ASP618  TYR619  PRO620  LYS621  CYS622 
 ASP623  PHE694  ASN695  SER759  ASP760  ASP761  ALA762  ILE779  LEU786  VAL792 
 PHE793  MET794  SER795  GLU796  ALA797  LYS798  CYS799  TRP800  GLU811  SER814 

> <Gold.Protein.RotatedAtoms>
  151.5230  135.1067  159.9882 H   0  0  0  0  0  0  0  0  0  0  0  0  # atno 6907 bound_to 6896
  152.4612  133.7822  159.6867 H   0  0  0  0  0  0  0  0  0  0  0  0  # atno 6908 bound_to 6896
  150.8575  133.7628  159.3029 H   0  0  0  0  0  0  0  0  0  0  0  0  # atno 6909 bound_to 6896
  144.9456  140.7288  143.4819 H   0  0  0  0  0  0  0  0  0  0  0  0  # atno 7974 bound_to 7965
  155.9678  140.1157  157.0839 H   0  0  0  0  0  0  0  0  0  0  0  0  # atno 8008 bound_to 7997
  154.4148  140.1169  156.5333 H   0  0  0  0  0  0  0  0  0  0  0  0  # atno 8009 bound_to 7997
  155.6636  140.3473  155.4794 H   0  0  0  0  0  0  0  0  0  0  0  0  # atno 8010 bound_to 7997
  140.5662  143.2315  151.6629 H   0  0  0  0  0  0  0  0  0  0  0  0  # atno 10167 bound_to 10162
  156.7929  130.9524  151.3120 H   0  0  0  0  0  0  0  0  0  0  0  0  # atno 10718 bound_to 10713
  153.4249  135.3802  155.2134 H   0  0  0  0  0  0  0  0  0  0  0  0  # atno 10763 bound_to 10752
  154.8747  135.3826  154.4338 H   0  0  0  0  0  0  0  0  0  0  0  0  # atno 10764 bound_to 10752
  153.4863  135.7088  153.5972 H   0  0  0  0  0  0  0  0  0  0  0  0  # atno 10765 bound_to 10752
  139.8916  134.9520  156.6514 H   0  0  0  0  0  0  0  0  0  0  0  0  # atno 11005 bound_to 11000
  145.2922  139.1879  143.4734 LP  0  0  0  0  0  0  0  0  0  0  0  0  # atno 17320 bound_to 7965
  146.3302  140.2901  142.8615 LP  0  0  0  0  0  0  0  0  0  0  0  0  # atno 17321 bound_to 7965
  139.5094  144.3577  152.0592 LP  0  0  0  0  0  0  0  0  0  0  0  0  # atno 17342 bound_to 10162
  140.2709  144.3965  150.6152 LP  0  0  0  0  0  0  0  0  0  0  0  0  # atno 17343 bound_to 10162
  157.6592  130.8951  149.9793 LP  0  0  0  0  0  0  0  0  0  0  0  0  # atno 17370 bound_to 10713
  156.1148  130.3648  149.9987 LP  0  0  0  0  0  0  0  0  0  0  0  0  # atno 17371 bound_to 10713
  140.7517  133.8891  155.8352 LP  0  0  0  0  0  0  0  0  0  0  0  0  # atno 17394 bound_to 11000
  140.9995  134.1170  157.4331 LP  0  0  0  0  0  0  0  0  0  0  0  0  # atno 17395 bound_to 11000

$$$$
