AV-unprocessed.smi:2261|AV-procd|sdf|9137|dock7
  -GOLD-   2272012343D 1   1.00000     0.00000
 Structure written by MMmdl.
 41 42  0  0  0  0  0  0  0  0  1 V2000
  147.1718  136.0863  158.6574 C   0  0  0  0  0  0  0  0  0  0  0  0
  147.6048  134.7452  158.0406 C   0  0  0  0  0  0  0  0  0  0  0  0
  147.1757  133.5663  158.9276 C   0  0  0  0  0  0  0  0  0  0  0  0
  147.1131  134.5944  156.5953 C   0  0  0  0  0  0  0  0  0  0  0  0
  148.2511  135.1802  155.7843 C   0  0  2  0  0  0  0  0  0  0  0  0
  148.2648  134.6622  154.4192 N   0  0  0  0  0  0  0  0  0  0  0  0
  147.9416  133.4104  154.0616 C   0  0  0  0  0  0  0  0  0  0  0  0
  147.6695  132.5197  154.8658 O   0  0  0  0  0  0  0  0  0  0  0  0
  147.8929  133.1279  152.5606 C   0  0  0  0  0  0  0  0  0  0  0  0
  146.4516  133.1310  152.0831 C   0  0  0  0  0  0  0  0  0  0  0  0
  145.6131  134.2396  152.3220 C   0  0  0  0  0  0  0  0  0  0  0  0
  144.2900  134.2050  151.8415 C   0  0  0  0  0  0  0  0  0  0  0  0
  143.8607  133.0605  151.1404 C   0  0  0  0  0  0  0  0  0  0  0  0
  144.6539  131.9928  150.9068 N   0  0  0  0  0  0  0  0  0  0  0  0
  145.9202  132.0328  151.3731 C   0  0  0  0  0  0  0  0  0  0  0  0
  149.4904  134.7724  156.6097 C   0  0  0  0  0  0  0  0  0  0  0  0
  150.0183  133.3531  156.3080 C   0  0  0  0  0  0  0  0  0  0  0  0
  150.6251  135.8031  156.5044 C   0  0  0  0  0  0  0  0  0  0  0  0
  149.0298  134.7572  157.9600 O   0  0  0  0  0  0  0  0  0  0  0  0
  146.0863  136.1530  158.7347 H   0  0  0  0  0  0  0  0  0  0  0  0
  147.5143  136.9307  158.0589 H   0  0  0  0  0  0  0  0  0  0  0  0
  147.5836  136.2087  159.6595 H   0  0  0  0  0  0  0  0  0  0  0  0
  146.0896  133.5005  158.9972 H   0  0  0  0  0  0  0  0  0  0  0  0
  147.5690  133.6712  159.9390 H   0  0  0  0  0  0  0  0  0  0  0  0
  147.5426  132.6193  158.5306 H   0  0  0  0  0  0  0  0  0  0  0  0
  146.9825  133.5396  156.3472 H   0  0  0  0  0  0  0  0  0  0  0  0
  146.1606  135.0927  156.4106 H   0  0  0  0  0  0  0  0  0  0  0  0
  148.1408  136.2665  155.7821 H   0  0  0  0  0  0  0  0  0  0  0  0
  148.4742  135.3234  153.6857 H   0  0  0  0  0  0  0  0  0  0  0  0
  148.4701  133.8795  152.0202 H   0  0  0  0  0  0  0  0  0  0  0  0
  148.3518  132.1612  152.3484 H   0  0  0  0  0  0  0  0  0  0  0  0
  145.9784  135.1034  152.8582 H   0  0  0  0  0  0  0  0  0  0  0  0
  143.6207  135.0369  152.0039 H   0  0  0  0  0  0  0  0  0  0  0  0
  142.8529  133.0010  150.7567 H   0  0  0  0  0  0  0  0  0  0  0  0
  146.5312  131.1674  151.1623 H   0  0  0  0  0  0  0  0  0  0  0  0
  150.4440  133.2867  155.3065 H   0  0  0  0  0  0  0  0  0  0  0  0
  149.2310  132.6031  156.3852 H   0  0  0  0  0  0  0  0  0  0  0  0
  150.8032  133.0725  157.0108 H   0  0  0  0  0  0  0  0  0  0  0  0
  151.0167  135.8567  155.4883 H   0  0  0  0  0  0  0  0  0  0  0  0
  151.4530  135.5453  157.1652 H   0  0  0  0  0  0  0  0  0  0  0  0
  150.2819  136.8001  156.7819 H   0  0  0  0  0  0  0  0  0  0  0  0
  1  2  1  0  0  0  0
  1 20  1  0  0  0  0
  1 21  1  0  0  0  0
  1 22  1  0  0  0  0
  2 19  1  0  0  0  0
  2  3  1  0  0  0  0
  2  4  1  0  0  0  0
  3 23  1  0  0  0  0
  3 24  1  0  0  0  0
  3 25  1  0  0  0  0
  4  5  1  0  0  0  0
  4 26  1  0  0  0  0
  4 27  1  0  0  0  0
  5  6  1  0  0  0  0
  5 16  1  0  0  0  0
  5 28  1  0  0  0  0
  6  7  1  0  0  0  0
  6 29  1  0  0  0  0
  7  8  2  0  0  0  0
  7  9  1  0  0  0  0
  9 10  1  0  0  0  0
  9 30  1  0  0  0  0
  9 31  1  0  0  0  0
 10 15  1  0  0  0  0
 10 11  2  0  0  0  0
 11 12  1  0  0  0  0
 11 32  1  0  0  0  0
 12 13  2  0  0  0  0
 12 33  1  0  0  0  0
 13 14  1  0  0  0  0
 13 34  1  0  0  0  0
 14 15  2  0  0  0  0
 15 35  1  0  0  0  0
 16 17  1  0  0  0  0
 16 18  1  0  0  0  0
 16 19  1  0  0  0  0
 17 36  1  0  0  0  0
 17 37  1  0  0  0  0
 17 38  1  0  0  0  0
 18 39  1  0  0  0  0
 18 40  1  0  0  0  0
 18 41  1  0  0  0  0
M  END
> <s_m_source_file>
AV-unprocessed.smi

> <i_m_source_file_index>
2261

> <i_lp_mmshare_version>
43012

> <i_f3d_flags>
0

> <s_epik_input>
W0NIM11DMShbQ0gzXSlbQ0gyXVtDQEhdKEMoTzEpKFtDSDNdKVtDSDNdKVtOSF1DKD1PKVtDSDJdYzJbY0hdW2NIXVtjSF1uW2NIXTI=

> <s_epik_cmdline>
J2VwaWtfcHl0aG9uJywgJy1waCcsICc3LjAnLCAnLXRuJywgJzgnLCAnLW1hJywgJzIwMCcsICctbWV0YWxfYmluZGluZycsICctaW1hZScsICc8aW5maWxlLm1hZT4nLCAnLW9tYWUnLCAnPG91dGZpbGUubWFlPic=

> <r_epik_Ionization_Penalty>
0.00420617

> <r_epik_Ionization_Penalty_Charging>
0

> <r_epik_Ionization_Penalty_Neutral>
0.00420617

> <r_epik_State_Penalty>
0.0030219

> <r_epik_Charging_Adjusted_Penalty>
0.0030219

> <i_epik_Tot_Q>
0

> <i_epik_Tot_abs_Q>
0

> <r_epik_Metal_State_Penalty>
-0

> <b_epik_Metal_Only>
0

> <s_lp_Force_Field>
OPLS_2005

> <r_lp_Energy>
16.2034

> <b_lp_Chiralities_Consistent>
1

> <s_lp_Variant>
AV-unprocessed.smi:2261-2

> <Gold.Version>
5.8.1

> <Gold.Id.Protein>
6NUR|6NUR_protein|mol2

> <Gold.PLP.Fitness>
34.5798

> <Gold.PLP.PLP>
-23.7680

> <Gold.PLP.part.hbond>
-2.0000

> <Gold.PLP.part.metal>
0.0000

> <Gold.PLP.part.buried>
-2.4364

> <Gold.PLP.part.nonpolar>
-19.2502

> <Gold.PLP.part.repulsive>
0.1840

> <Gold.PLP.ligand.clash>
0.0000

> <Gold.PLP.ligand.torsion>
0.5870

> <Gold.PLP.Chemscore.Hbond>
2.0000

> <Gold.PLP.Chemscore.CHOScore>
1.9906

> <Gold.PLP.Chemscore.Metal>
0.0000

> <Gold.Chemscore.Hbonds>
donor molecule, donor type, donor heavy atom, donor atom, acceptor molecule, acceptor atom, score
      L1  H     6    29       P1  7948  0.89
      P1  H  6896  6909       L1    19  0.28
      L1  C    13    34       P1 10186  0.78
      L1  C    15    35       P1 10747  0.78

> <Gold.PLP.Chemscore.Internal.Correction>
0.0140

> <Gold.Rescore>
     Score         DG    S(hbond)    S(metal)    S(lipo)     H(rot)  DE(clash)    DE(int)     intcor
     12.70     -14.88       1.71        0.00      59.75       1.28       0.01       2.18       ----

> <Gold.Chemscore.Fitness>
12.6995

> <Gold.Chemscore.DG>
-14.8805

> <Gold.Chemscore.ZeroCoef>
-5.4800

> <Gold.Chemscore.Hbond>
1.7058

> <Gold.Chemscore.Metal>
0.0000

> <Gold.Chemscore.Lipo>
59.7495

> <Gold.Chemscore.Internal_Hbond>
0.0000

> <Gold.Chemscore.DEClash>
0.0060

> <Gold.Chemscore.DEInternal>
2.1750

> <Gold.Chemscore.Rot>
1.2842

> <Gold.Chemscore.Internal.Correction>
   9.000000E+99

> <Gold.Chemscore.Hbonds>
donor molecule, donor type, donor heavy atom, donor atom, acceptor molecule, acceptor atom, score
      L1  H     6    29       P1  7948  0.84
      P1  H  6896  6909       L1    19  0.17

> <Gold.Chemscore.Hbond.Weighted>
-5.6974

> <Gold.Chemscore.Metal.Weighted>
-0.0000

> <Gold.Chemscore.Lipo.Weighted>
-6.9907

> <Gold.Chemscore.Internal_Hbond.Weighted>
0.0000

> <Gold.Chemscore.DEClash.Weighted>
0.0060

> <Gold.Chemscore.DEInternal.Weighted>
2.1750

> <Gold.Chemscore.Rot.Weighted>
3.2875

> <Gold.Chemscore.Internal.Correction.Weighted>
   9.000000E+99

> <Gold.Protein.RotatedTorsions>
[ 6907 6896 6895 6894 ] final    6.69 input  -60.11 | X-H torsion
[ 7974 7965 7964 7962 ] final -134.59 input  175.53 | X-H torsion
[ 8008 7997 7996 7995 ] final  138.87 input   59.86 | X-H torsion
[ 10167 10162 10161 10158 ] final   27.11 input  -65.29 | X-H torsion
[ 10718 10713 10712 10709 ] final   65.65 input   66.30 | X-H torsion
[ 10763 10752 10751 10750 ] final   74.71 input  -60.55 | X-H torsion
[ 11005 11000 10999 10996 ] final -139.33 input  -57.11 | X-H torsion

> <Gold.Protein.ActiveResidues>
 VAL166  LYS551  ARG553  GLY616  TRP617  ASP618  TYR619  PRO620  LYS621  CYS622 
 ASP623  PHE694  ASN695  SER759  ASP760  ASP761  ALA762  ILE779  LEU786  VAL792 
 PHE793  MET794  SER795  GLU796  ALA797  LYS798  CYS799  TRP800  GLU811  SER814 

> <Gold.Protein.RotatedAtoms>
  151.6777  135.0966  160.0209 H   0  0  0  0  0  0  0  0  0  0  0  0  # atno 6907 bound_to 6896
  152.3854  133.6599  159.6203 H   0  0  0  0  0  0  0  0  0  0  0  0  # atno 6908 bound_to 6896
  150.7781  133.8961  159.3369 H   0  0  0  0  0  0  0  0  0  0  0  0  # atno 6909 bound_to 6896
  144.9089  140.6869  143.5037 H   0  0  0  0  0  0  0  0  0  0  0  0  # atno 7974 bound_to 7965
  156.2994  140.2382  156.4144 H   0  0  0  0  0  0  0  0  0  0  0  0  # atno 8008 bound_to 7997
  154.8412  140.0428  157.1562 H   0  0  0  0  0  0  0  0  0  0  0  0  # atno 8009 bound_to 7997
  154.9101  140.2989  155.5275 H   0  0  0  0  0  0  0  0  0  0  0  0  # atno 8010 bound_to 7997
  140.4966  144.0382  150.6316 H   0  0  0  0  0  0  0  0  0  0  0  0  # atno 10167 bound_to 10162
  157.6119  130.9225  150.0004 H   0  0  0  0  0  0  0  0  0  0  0  0  # atno 10718 bound_to 10713
  153.0605  135.5016  154.8082 H   0  0  0  0  0  0  0  0  0  0  0  0  # atno 10763 bound_to 10752
  154.6875  135.2978  154.9529 H   0  0  0  0  0  0  0  0  0  0  0  0  # atno 10764 bound_to 10752
  154.0295  135.6731  153.4832 H   0  0  0  0  0  0  0  0  0  0  0  0  # atno 10765 bound_to 10752
  140.8530  134.2262  157.4750 H   0  0  0  0  0  0  0  0  0  0  0  0  # atno 11005 bound_to 11000
  145.3488  139.1712  143.4446 LP  0  0  0  0  0  0  0  0  0  0  0  0  # atno 17320 bound_to 7965
  146.3148  140.3537  142.8658 LP  0  0  0  0  0  0  0  0  0  0  0  0  # atno 17321 bound_to 7965
  140.3666  143.2878  152.0324 LP  0  0  0  0  0  0  0  0  0  0  0  0  # atno 17342 bound_to 10162
  139.4862  144.6262  151.7160 LP  0  0  0  0  0  0  0  0  0  0  0  0  # atno 17343 bound_to 10162
  156.1225  130.3645  149.9864 LP  0  0  0  0  0  0  0  0  0  0  0  0  # atno 17370 bound_to 10713
  156.7941  130.9267  151.3646 LP  0  0  0  0  0  0  0  0  0  0  0  0  # atno 17371 bound_to 10713
  139.8704  134.9693  156.4660 LP  0  0  0  0  0  0  0  0  0  0  0  0  # atno 17394 bound_to 11000
  140.8768  133.7947  155.9424 LP  0  0  0  0  0  0  0  0  0  0  0  0  # atno 17395 bound_to 11000

$$$$
