AV-unprocessed.smi:2925|AV-procd|sdf|11223|dock2
  -GOLD-   2272016113D 1   1.00000     0.00000
 Structure written by MMmdl.
 44 45  0  0  0  0  0  0  0  0  1 V2000
  147.5880  133.2051  153.3335 C   0  0  0  0  0  0  0  0  0  0  0  0
  146.2864  133.7298  153.9576 C   0  0  0  0  0  0  0  0  0  0  0  0
  145.7031  134.9600  153.2334 C   0  0  1  0  0  0  0  0  0  0  0  0
  146.7396  135.9836  153.0954 N   0  0  0  0  0  0  0  0  0  0  0  0
  146.7625  137.1662  153.7262 C   0  0  0  0  0  0  0  0  0  0  0  0
  145.8952  137.5417  154.5162 O   0  0  0  0  0  0  0  0  0  0  0  0
  147.8564  137.8752  153.3970 N   0  0  0  0  0  0  0  0  0  0  0  0
  148.1942  139.1448  153.8903 C   0  0  0  0  0  0  0  0  0  0  0  0
  149.3908  139.3140  154.5116 C   0  0  0  0  0  0  0  0  0  0  0  0
  150.3557  138.1575  154.7200 C   0  0  0  0  0  0  0  0  0  0  0  0
  149.7450  140.6272  155.0099 C   0  0  0  0  0  0  0  0  0  0  0  0
  148.8938  141.6479  154.8412 C   0  0  0  0  0  0  0  0  0  0  0  0
  147.6690  141.4840  154.1782 N   0  0  0  0  0  0  0  0  0  0  0  0
  146.8153  142.6653  154.0277 C   0  0  0  0  0  0  0  0  0  0  0  0
  147.2779  140.2868  153.6544 C   0  0  0  0  0  0  0  0  0  0  0  0
  146.2296  140.1905  153.0119 O   0  0  0  0  0  0  0  0  0  0  0  0
  145.1295  134.5940  151.8476 C   0  0  2  0  0  0  0  0  0  0  0  0
  143.9299  133.6432  151.8733 C   0  0  0  0  0  0  0  0  0  0  0  0
  143.9916  133.0332  150.4927 C   0  0  0  0  0  0  0  0  0  0  0  0
  145.4954  132.8822  150.2873 C   0  0  0  0  0  0  0  0  0  0  0  0
  146.1057  133.9104  151.0638 O   0  0  0  0  0  0  0  0  0  0  0  0
  147.9871  132.3736  153.9148 H   0  0  0  0  0  0  0  0  0  0  0  0
  148.3500  133.9845  153.3023 H   0  0  0  0  0  0  0  0  0  0  0  0
  147.4314  132.8483  152.3152 H   0  0  0  0  0  0  0  0  0  0  0  0
  145.5476  132.9276  153.9790 H   0  0  0  0  0  0  0  0  0  0  0  0
  146.4847  133.9847  154.9992 H   0  0  0  0  0  0  0  0  0  0  0  0
  144.8841  135.3432  153.8450 H   0  0  0  0  0  0  0  0  0  0  0  0
  147.5010  135.7696  152.4679 H   0  0  0  0  0  0  0  0  0  0  0  0
  148.5588  137.4178  152.8349 H   0  0  0  0  0  0  0  0  0  0  0  0
  151.2491  138.4802  155.2551 H   0  0  0  0  0  0  0  0  0  0  0  0
  150.6697  137.7437  153.7614 H   0  0  0  0  0  0  0  0  0  0  0  0
  149.8838  137.3652  155.3019 H   0  0  0  0  0  0  0  0  0  0  0  0
  150.6829  140.7867  155.5214 H   0  0  0  0  0  0  0  0  0  0  0  0
  149.1014  142.6479  155.1933 H   0  0  0  0  0  0  0  0  0  0  0  0
  145.8113  142.4674  154.4062 H   0  0  0  0  0  0  0  0  0  0  0  0
  146.7337  142.9444  152.9763 H   0  0  0  0  0  0  0  0  0  0  0  0
  147.1968  143.5318  154.5687 H   0  0  0  0  0  0  0  0  0  0  0  0
  144.8484  135.4997  151.3075 H   0  0  0  0  0  0  0  0  0  0  0  0
  144.0685  132.8679  152.6284 H   0  0  0  0  0  0  0  0  0  0  0  0
  142.9861  134.1512  152.0736 H   0  0  0  0  0  0  0  0  0  0  0  0
  143.4526  132.0887  150.4144 H   0  0  0  0  0  0  0  0  0  0  0  0
  143.5784  133.7264  149.7587 H   0  0  0  0  0  0  0  0  0  0  0  0
  145.8370  131.9174  150.6638 H   0  0  0  0  0  0  0  0  0  0  0  0
  145.7788  132.9553  149.2371 H   0  0  0  0  0  0  0  0  0  0  0  0
  1  2  1  0  0  0  0
  1 22  1  0  0  0  0
  1 23  1  0  0  0  0
  1 24  1  0  0  0  0
  2  3  1  0  0  0  0
  2 25  1  0  0  0  0
  2 26  1  0  0  0  0
  3  4  1  0  0  0  0
  3 17  1  0  0  0  0
  3 27  1  0  0  0  0
  4  5  1  0  0  0  0
  4 28  1  0  0  0  0
  5  6  2  0  0  0  0
  5  7  1  0  0  0  0
  7  8  1  0  0  0  0
  7 29  1  0  0  0  0
  8 15  1  0  0  0  0
  8  9  2  0  0  0  0
  9 10  1  0  0  0  0
  9 11  1  0  0  0  0
 10 30  1  0  0  0  0
 10 31  1  0  0  0  0
 10 32  1  0  0  0  0
 11 12  2  0  0  0  0
 11 33  1  0  0  0  0
 12 13  1  0  0  0  0
 12 34  1  0  0  0  0
 13 14  1  0  0  0  0
 13 15  1  0  0  0  0
 14 35  1  0  0  0  0
 14 36  1  0  0  0  0
 14 37  1  0  0  0  0
 15 16  2  0  0  0  0
 17 21  1  0  0  0  0
 17 18  1  0  0  0  0
 17 38  1  0  0  0  0
 18 19  1  0  0  0  0
 18 39  1  0  0  0  0
 18 40  1  0  0  0  0
 19 20  1  0  0  0  0
 19 41  1  0  0  0  0
 19 42  1  0  0  0  0
 20 21  1  0  0  0  0
 20 43  1  0  0  0  0
 20 44  1  0  0  0  0
M  END
> <s_m_source_file>
AV-unprocessed.smi

> <i_m_source_file_index>
2925

> <i_lp_mmshare_version>
43012

> <i_f3d_flags>
0

> <s_epik_input>
TzFbQ0gyXVtDSDJdW0NIMl1bQ0BIXTFbQ0BIXShbQ0gyXVtDSDNdKVtOSF1DKD1PKVtOSF1jMmMoW0NIM10pW2NIXVtjSF1uKFtDSDNdKWMyPU8=

> <s_epik_cmdline>
J2VwaWtfcHl0aG9uJywgJy1waCcsICc3LjAnLCAnLXRuJywgJzgnLCAnLW1hJywgJzIwMCcsICctbWV0YWxfYmluZGluZycsICctaW1hZScsICc8aW5maWxlLm1hZT4nLCAnLW9tYWUnLCAnPG91dGZpbGUubWFlPic=

> <r_lp_tautomer_probability>
1

> <r_epik_Ionization_Penalty>
2.58789e-05

> <r_epik_Ionization_Penalty_Charging>
6.72534e-06

> <r_epik_Ionization_Penalty_Neutral>
1.91535e-05

> <r_epik_State_Penalty>
-0

> <r_epik_Charging_Adjusted_Penalty>
6.72534e-06

> <i_epik_Tot_Q>
0

> <i_epik_Tot_abs_Q>
0

> <r_epik_Metal_State_Penalty>
-0

> <b_epik_Metal_Only>
0

> <s_lp_Force_Field>
OPLS_2005

> <r_lp_Energy>
34.616

> <b_lp_Chiralities_Consistent>
1

> <s_lp_Variant>
AV-unprocessed.smi:2925-2

> <Gold.Version>
5.8.1

> <Gold.Id.Protein>
6NUR|6NUR_protein|mol2

> <Gold.PLP.Fitness>
39.0475

> <Gold.PLP.PLP>
-31.0317

> <Gold.PLP.part.hbond>
-1.5701

> <Gold.PLP.part.metal>
0.0000

> <Gold.PLP.part.buried>
-2.3125

> <Gold.PLP.part.nonpolar>
-31.3568

> <Gold.PLP.part.repulsive>
3.7419

> <Gold.PLP.ligand.clash>
0.0000

> <Gold.PLP.ligand.torsion>
0.6850

> <Gold.PLP.Chemscore.Hbond>
1.9360

> <Gold.PLP.Chemscore.CHOScore>
1.0000

> <Gold.PLP.Chemscore.Metal>
0.0000

> <Gold.Chemscore.Hbonds>
donor molecule, donor type, donor heavy atom, donor atom, acceptor molecule, acceptor atom, score
      L1  H     4    28       P1  7948  0.96
      L1  H     7    29       P1  7948  1.00
      L1  C    12    34       P1  8028  1.00

> <Gold.PLP.Chemscore.Internal.Correction>
0.5779

> <Gold.Rescore>
     Score         DG    S(hbond)    S(metal)    S(lipo)     H(rot)  DE(clash)    DE(int)     intcor
     13.21     -16.93       1.85        0.00      74.81       1.36       1.64       2.09       ----

> <Gold.Chemscore.Fitness>
13.2091

> <Gold.Chemscore.DG>
-16.9319

> <Gold.Chemscore.ZeroCoef>
-5.4800

> <Gold.Chemscore.Hbond>
1.8490

> <Gold.Chemscore.Metal>
0.0000

> <Gold.Chemscore.Lipo>
74.8088

> <Gold.Chemscore.Internal_Hbond>
0.0000

> <Gold.Chemscore.DEClash>
1.6364

> <Gold.Chemscore.DEInternal>
2.0864

> <Gold.Chemscore.Rot>
1.3579

> <Gold.Chemscore.Internal.Correction>
   9.000000E+99

> <Gold.Chemscore.Hbonds>
donor molecule, donor type, donor heavy atom, donor atom, acceptor molecule, acceptor atom, score
      L1  H     4    28       P1  7948  0.92
      L1  H     7    29       P1  7948  0.91

> <Gold.Chemscore.Hbond.Weighted>
-6.1755

> <Gold.Chemscore.Metal.Weighted>
-0.0000

> <Gold.Chemscore.Lipo.Weighted>
-8.7526

> <Gold.Chemscore.Internal_Hbond.Weighted>
0.0000

> <Gold.Chemscore.DEClash.Weighted>
1.6364

> <Gold.Chemscore.DEInternal.Weighted>
2.0864

> <Gold.Chemscore.Rot.Weighted>
3.4763

> <Gold.Chemscore.Internal.Correction.Weighted>
   9.000000E+99

> <Gold.Protein.RotatedTorsions>
[ 6907 6896 6895 6894 ] final    8.20 input  -60.11 | X-H torsion
[ 7974 7965 7964 7962 ] final -152.51 input  175.53 | X-H torsion
[ 8008 7997 7996 7995 ] final  161.82 input   59.86 | X-H torsion
[ 10167 10162 10161 10158 ] final  -66.55 input  -65.29 | X-H torsion
[ 10718 10713 10712 10709 ] final  -26.07 input   66.30 | X-H torsion
[ 10763 10752 10751 10750 ] final -171.76 input  -60.55 | X-H torsion
[ 11005 11000 10999 10996 ] final  125.48 input  -57.11 | X-H torsion

> <Gold.Protein.ActiveResidues>
 VAL166  LYS551  ARG553  GLY616  TRP617  ASP618  TYR619  PRO620  LYS621  CYS622 
 ASP623  PHE694  ASN695  SER759  ASP760  ASP761  ALA762  ILE779  LEU786  VAL792 
 PHE793  MET794  SER795  GLU796  ALA797  LYS798  CYS799  TRP800  GLU811  SER814 

> <Gold.Protein.RotatedAtoms>
  151.7022  135.0928  160.0252 H   0  0  0  0  0  0  0  0  0  0  0  0  # atno 6907 bound_to 6896
  152.3713  133.6418  159.6098 H   0  0  0  0  0  0  0  0  0  0  0  0  # atno 6908 bound_to 6896
  150.7675  133.9182  159.3431 H   0  0  0  0  0  0  0  0  0  0  0  0  # atno 6909 bound_to 6896
  144.7790  140.4652  143.5852 H   0  0  0  0  0  0  0  0  0  0  0  0  # atno 7974 bound_to 7965
  156.2076  140.1767  156.7765 H   0  0  0  0  0  0  0  0  0  0  0  0  # atno 8008 bound_to 7997
  154.5677  140.0688  156.8947 H   0  0  0  0  0  0  0  0  0  0  0  0  # atno 8009 bound_to 7997
  155.2731  140.3344  155.4266 H   0  0  0  0  0  0  0  0  0  0  0  0  # atno 8010 bound_to 7997
  140.5648  143.2314  151.6656 H   0  0  0  0  0  0  0  0  0  0  0  0  # atno 10167 bound_to 10162
  156.4561  130.4494  149.6958 H   0  0  0  0  0  0  0  0  0  0  0  0  # atno 10718 bound_to 10713
  154.6269  135.2882  155.0262 H   0  0  0  0  0  0  0  0  0  0  0  0  # atno 10763 bound_to 10752
  154.1437  135.6514  153.4951 H   0  0  0  0  0  0  0  0  0  0  0  0  # atno 10764 bound_to 10752
  153.0261  135.5339  154.7080 H   0  0  0  0  0  0  0  0  0  0  0  0  # atno 10765 bound_to 10752
  139.9409  134.9635  156.8565 H   0  0  0  0  0  0  0  0  0  0  0  0  # atno 11005 bound_to 11000
  145.6103  139.1512  143.3079 LP  0  0  0  0  0  0  0  0  0  0  0  0  # atno 17320 bound_to 7965
  146.1987  140.6219  142.9112 LP  0  0  0  0  0  0  0  0  0  0  0  0  # atno 17321 bound_to 7965
  139.5088  144.3600  152.0571 LP  0  0  0  0  0  0  0  0  0  0  0  0  # atno 17342 bound_to 10162
  140.2731  144.3943  150.6144 LP  0  0  0  0  0  0  0  0  0  0  0  0  # atno 17343 bound_to 10162
  156.3765  130.7557  151.2546 LP  0  0  0  0  0  0  0  0  0  0  0  0  # atno 17370 bound_to 10713
  157.7500  131.0308  150.4153 LP  0  0  0  0  0  0  0  0  0  0  0  0  # atno 17371 bound_to 10713
  140.5955  134.0221  155.7516 LP  0  0  0  0  0  0  0  0  0  0  0  0  # atno 17394 bound_to 11000
  141.1042  133.9720  157.3026 LP  0  0  0  0  0  0  0  0  0  0  0  0  # atno 17395 bound_to 11000

$$$$
