AV-unprocessed.smi:1570|AV-procd|sdf|6313|dock8
  -GOLD-   22720 6513D 1   1.00000     0.00000
 Structure written by MMmdl.
 51 53  0  0  0  0  0  0  0  0  1 V2000
  154.0282  139.7425  160.8033 C   0  0  0  0  0  0  0  0  0  0  0  0
  154.0682  141.2723  160.7011 C   0  0  0  0  0  0  0  0  0  0  0  0
  153.1438  141.7589  159.6799 N   0  0  0  0  0  0  0  0  0  0  0  0
  152.7675  141.1049  158.5562 C   0  0  0  0  0  0  0  0  0  0  0  0
  153.1474  139.9862  158.2103 O   0  0  0  0  0  0  0  0  0  0  0  0
  151.8952  141.8912  157.8817 N   0  0  0  0  0  0  0  0  0  0  0  0
  151.2560  141.5772  156.6016 C   0  0  0  0  0  0  0  0  0  0  0  0
  150.3226  140.3473  156.6862 C   0  0  1  0  0  0  0  0  0  0  0  0
  149.0993  140.6217  156.0353 O   0  0  0  0  0  0  0  0  0  0  0  0
  150.9234  139.0161  156.1744 C   0  0  0  0  0  0  0  0  0  0  0  0
  150.2268  137.7891  156.5659 N   0  0  0  0  0  0  0  0  0  0  0  0
  149.9662  137.7121  158.0002 C   0  0  0  0  0  0  0  0  0  0  0  0
  149.2380  136.4093  158.3842 C   0  0  2  0  0  0  0  0  0  0  0  0
  149.0456  136.2789  159.8986 C   0  0  0  0  0  0  0  0  0  0  0  0
  149.9998  135.2934  157.9312 O   0  0  0  0  0  0  0  0  0  0  0  0
  150.2352  135.3059  156.5261 C   0  0  2  0  0  0  0  0  0  0  0  0
  151.0428  134.0567  156.1596 C   0  0  0  0  0  0  0  0  0  0  0  0
  150.9721  136.6061  156.1549 C   0  0  0  0  0  0  0  0  0  0  0  0
  151.6814  143.0703  158.6152 C   0  0  0  0  0  0  0  0  0  0  0  0
  150.8613  144.1859  158.3663 C   0  0  0  0  0  0  0  0  0  0  0  0
  150.8822  145.2329  159.3166 C   0  0  0  0  0  0  0  0  0  0  0  0
  151.6975  145.1467  160.4741 C   0  0  0  0  0  0  0  0  0  0  0  0
  152.5090  144.0117  160.7052 C   0  0  0  0  0  0  0  0  0  0  0  0
  152.4726  142.9878  159.7423 C   0  0  0  0  0  0  0  0  0  0  0  0
  154.7121  139.3878  161.5745 H   0  0  0  0  0  0  0  0  0  0  0  0
  154.3196  139.2763  159.8614 H   0  0  0  0  0  0  0  0  0  0  0  0
  153.0284  139.3894  161.0576 H   0  0  0  0  0  0  0  0  0  0  0  0
  153.8191  141.7184  161.6644 H   0  0  0  0  0  0  0  0  0  0  0  0
  155.0824  141.6017  160.4704 H   0  0  0  0  0  0  0  0  0  0  0  0
  150.6855  142.4493  156.2779 H   0  0  0  0  0  0  0  0  0  0  0  0
  152.0117  141.4201  155.8327 H   0  0  0  0  0  0  0  0  0  0  0  0
  150.0531  140.1932  157.7313 H   0  0  0  0  0  0  0  0  0  0  0  0
  148.8378  139.8517  155.5535 H   0  0  0  0  0  0  0  0  0  0  0  0
  150.9071  139.0739  155.0851 H   0  0  0  0  0  0  0  0  0  0  0  0
  151.9795  138.9532  156.4414 H   0  0  0  0  0  0  0  0  0  0  0  0
  150.9065  137.7817  158.5495 H   0  0  0  0  0  0  0  0  0  0  0  0
  149.3546  138.5556  158.3170 H   0  0  0  0  0  0  0  0  0  0  0  0
  148.2584  136.3842  157.9042 H   0  0  0  0  0  0  0  0  0  0  0  0
  148.4563  137.1076  160.2919 H   0  0  0  0  0  0  0  0  0  0  0  0
  150.0039  136.2724  160.4189 H   0  0  0  0  0  0  0  0  0  0  0  0
  148.5252  135.3538  160.1468 H   0  0  0  0  0  0  0  0  0  0  0  0
  149.2765  135.2675  156.0060 H   0  0  0  0  0  0  0  0  0  0  0  0
  151.2373  134.0162  155.0876 H   0  0  0  0  0  0  0  0  0  0  0  0
  150.5029  133.1500  156.4338 H   0  0  0  0  0  0  0  0  0  0  0  0
  152.0032  134.0419  156.6757 H   0  0  0  0  0  0  0  0  0  0  0  0
  151.1339  136.6297  155.0764 H   0  0  0  0  0  0  0  0  0  0  0  0
  151.9595  136.6125  156.6195 H   0  0  0  0  0  0  0  0  0  0  0  0
  150.2431  144.2537  157.4841 H   0  0  0  0  0  0  0  0  0  0  0  0
  150.2704  146.1087  159.1578 H   0  0  0  0  0  0  0  0  0  0  0  0
  151.6979  145.9571  161.1881 H   0  0  0  0  0  0  0  0  0  0  0  0
  153.1289  143.9396  161.5864 H   0  0  0  0  0  0  0  0  0  0  0  0
  1  2  1  0  0  0  0
  1 25  1  0  0  0  0
  1 26  1  0  0  0  0
  1 27  1  0  0  0  0
  2  3  1  0  0  0  0
  2 28  1  0  0  0  0
  2 29  1  0  0  0  0
  3 24  1  0  0  0  0
  3  4  1  0  0  0  0
  4  5  2  0  0  0  0
  4  6  1  0  0  0  0
  6  7  1  0  0  0  0
  6 19  1  0  0  0  0
  7  8  1  0  0  0  0
  7 30  1  0  0  0  0
  7 31  1  0  0  0  0
  8  9  1  0  0  0  0
  8 10  1  0  0  0  0
  8 32  1  0  0  0  0
  9 33  1  0  0  0  0
 10 11  1  0  0  0  0
 10 34  1  0  0  0  0
 10 35  1  0  0  0  0
 11 18  1  0  0  0  0
 11 12  1  0  0  0  0
 12 13  1  0  0  0  0
 12 36  1  0  0  0  0
 12 37  1  0  0  0  0
 13 14  1  0  0  0  0
 13 15  1  0  0  0  0
 13 38  1  0  0  0  0
 14 39  1  0  0  0  0
 14 40  1  0  0  0  0
 14 41  1  0  0  0  0
 15 16  1  0  0  0  0
 16 17  1  0  0  0  0
 16 18  1  0  0  0  0
 16 42  1  0  0  0  0
 17 43  1  0  0  0  0
 17 44  1  0  0  0  0
 17 45  1  0  0  0  0
 18 46  1  0  0  0  0
 18 47  1  0  0  0  0
 19 24  2  0  0  0  0
 19 20  1  0  0  0  0
 20 21  2  0  0  0  0
 20 48  1  0  0  0  0
 21 22  1  0  0  0  0
 21 49  1  0  0  0  0
 22 23  2  0  0  0  0
 22 50  1  0  0  0  0
 23 24  1  0  0  0  0
 23 51  1  0  0  0  0
M  END
> <s_m_source_file>
AV-unprocessed.smi

> <i_m_source_file_index>
1570

> <i_lp_mmshare_version>
43012

> <i_f3d_flags>
0

> <s_epik_input>
W2NIXTFbY0hdW2NIXVtjSF1jKGMxMiluKFtDSDJdW0NIM10pYyg9TyluMltDSDJdW0NASF0oW09IXSlbQ0gyXU4zW0NIMl1bQ0BASF0oW0NIM10pT1tDQEBIXShbQ0gzXSlbQ0gyXTM=

> <s_epik_cmdline>
J2VwaWtfcHl0aG9uJywgJy1waCcsICc3LjAnLCAnLXRuJywgJzgnLCAnLW1hJywgJzIwMCcsICctbWV0YWxfYmluZGluZycsICctaW1hZScsICc8aW5maWxlLm1hZT4nLCAnLW9tYWUnLCAnPG91dGZpbGUubWFlPic=

> <r_epik_Ionization_Penalty>
0.214359

> <r_epik_Ionization_Penalty_Charging>
2.30976e-09

> <r_epik_Ionization_Penalty_Neutral>
0.214359

> <r_epik_State_Penalty>
0.204533

> <r_epik_Charging_Adjusted_Penalty>
0.204533

> <i_epik_Tot_Q>
0

> <i_epik_Tot_abs_Q>
0

> <r_epik_Metal_State_Penalty>
0.204533

> <b_epik_Metal_Only>
0

> <s_lp_Force_Field>
OPLS_2005

> <r_lp_Energy>
59.6928

> <b_lp_Chiralities_Consistent>
1

> <s_lp_Variant>
AV-unprocessed.smi:1570-2

> <Gold.Version>
5.8.1

> <Gold.Id.Protein>
6NUR|6NUR_protein|mol2

> <Gold.PLP.Fitness>
49.0722

> <Gold.PLP.PLP>
-45.2424

> <Gold.PLP.part.hbond>
-2.0000

> <Gold.PLP.part.metal>
0.0000

> <Gold.PLP.part.buried>
-6.8144

> <Gold.PLP.part.nonpolar>
-35.7079

> <Gold.PLP.part.repulsive>
0.0000

> <Gold.PLP.ligand.clash>
0.0233

> <Gold.PLP.ligand.torsion>
1.1141

> <Gold.PLP.Chemscore.Hbond>
1.9920

> <Gold.PLP.Chemscore.CHOScore>
0.0000

> <Gold.PLP.Chemscore.Metal>
0.0000

> <Gold.Chemscore.Hbonds>
donor molecule, donor type, donor heavy atom, donor atom, acceptor molecule, acceptor atom, score
      P1  H  6896  6908       L1    15  0.88
      P1  H  7997  8008       L1     5  1.00

> <Gold.PLP.Chemscore.Internal.Correction>
0.1053

> <Gold.Rescore>
     Score         DG    S(hbond)    S(metal)    S(lipo)     H(rot)  DE(clash)    DE(int)     intcor
     18.30     -20.66       1.80        0.00     123.53       2.06       0.12       2.23       ----

> <Gold.Chemscore.Fitness>
18.3050

> <Gold.Chemscore.DG>
-20.6640

> <Gold.Chemscore.ZeroCoef>
-5.4800

> <Gold.Chemscore.Hbond>
1.7957

> <Gold.Chemscore.Metal>
0.0000

> <Gold.Chemscore.Lipo>
123.5310

> <Gold.Chemscore.Internal_Hbond>
0.0000

> <Gold.Chemscore.DEClash>
0.1247

> <Gold.Chemscore.DEInternal>
2.2343

> <Gold.Chemscore.Rot>
2.0574

> <Gold.Chemscore.Internal.Correction>
   9.000000E+99

> <Gold.Chemscore.Hbonds>
donor molecule, donor type, donor heavy atom, donor atom, acceptor molecule, acceptor atom, score
      P1  H  6896  6908       L1    15  0.43
      P1  H  7997  8008       L1     5  0.79

> <Gold.Chemscore.Hbond.Weighted>
-5.9977

> <Gold.Chemscore.Metal.Weighted>
-0.0000

> <Gold.Chemscore.Lipo.Weighted>
-14.4531

> <Gold.Chemscore.Internal_Hbond.Weighted>
0.0000

> <Gold.Chemscore.DEClash.Weighted>
0.1247

> <Gold.Chemscore.DEInternal.Weighted>
2.2343

> <Gold.Chemscore.Rot.Weighted>
5.2669

> <Gold.Chemscore.Internal.Correction.Weighted>
   9.000000E+99

> <Gold.Protein.RotatedTorsions>
[ 6907 6896 6895 6894 ] final  164.54 input  -60.11 | X-H torsion
[ 7974 7965 7964 7962 ] final -123.66 input  175.53 | X-H torsion
[ 8008 7997 7996 7995 ] final  -75.77 input   59.86 | X-H torsion
[ 10167 10162 10161 10158 ] final  -98.31 input  -65.29 | X-H torsion
[ 10718 10713 10712 10709 ] final -104.81 input   66.30 | X-H torsion
[ 10763 10752 10751 10750 ] final   -6.25 input  -60.55 | X-H torsion
[ 11005 11000 10999 10996 ] final   94.11 input  -57.11 | X-H torsion

> <Gold.Protein.ActiveResidues>
 VAL166  LYS551  ARG553  GLY616  TRP617  ASP618  TYR619  PRO620  LYS621  CYS622 
 ASP623  PHE694  ASN695  SER759  ASP760  ASP761  ALA762  ILE779  LEU786  VAL792 
 PHE793  MET794  SER795  GLU796  ALA797  LYS798  CYS799  TRP800  GLU811  SER814 

> <Gold.Protein.RotatedAtoms>
  151.9083  133.3555  159.3854 H   0  0  0  0  0  0  0  0  0  0  0  0  # atno 6907 bound_to 6896
  150.7064  134.4758  159.5456 H   0  0  0  0  0  0  0  0  0  0  0  0  # atno 6908 bound_to 6896
  152.2359  134.8276  160.0518 H   0  0  0  0  0  0  0  0  0  0  0  0  # atno 6909 bound_to 6896
  145.0163  140.7950  143.4408 H   0  0  0  0  0  0  0  0  0  0  0  0  # atno 7974 bound_to 7965
  154.5446  140.0738  156.8567 H   0  0  0  0  0  0  0  0  0  0  0  0  # atno 8008 bound_to 7997
  155.3113  140.3390  155.4225 H   0  0  0  0  0  0  0  0  0  0  0  0  # atno 8009 bound_to 7997
  156.1906  140.1685  156.8086 H   0  0  0  0  0  0  0  0  0  0  0  0  # atno 8010 bound_to 7997
  140.2743  143.3323  152.0504 H   0  0  0  0  0  0  0  0  0  0  0  0  # atno 10167 bound_to 10162
  156.0319  130.5533  150.7449 H   0  0  0  0  0  0  0  0  0  0  0  0  # atno 10718 bound_to 10713
  153.4098  135.7007  153.6367 H   0  0  0  0  0  0  0  0  0  0  0  0  # atno 10763 bound_to 10752
  153.4866  135.3682  155.2470 H   0  0  0  0  0  0  0  0  0  0  0  0  # atno 10764 bound_to 10752
  154.8716  135.4079  154.3448 H   0  0  0  0  0  0  0  0  0  0  0  0  # atno 10765 bound_to 10752
  139.8802  134.8827  156.3816 H   0  0  0  0  0  0  0  0  0  0  0  0  # atno 11005 bound_to 11000
  145.1955  139.2279  143.5220 LP  0  0  0  0  0  0  0  0  0  0  0  0  # atno 17320 bound_to 7965
  146.3478  140.1760  142.8589 LP  0  0  0  0  0  0  0  0  0  0  0  0  # atno 17321 bound_to 7965
  139.4980  144.6635  151.6410 LP  0  0  0  0  0  0  0  0  0  0  0  0  # atno 17342 bound_to 10162
  140.5864  143.9856  150.6298 LP  0  0  0  0  0  0  0  0  0  0  0  0  # atno 17343 bound_to 10162
  157.5008  131.0918  151.0316 LP  0  0  0  0  0  0  0  0  0  0  0  0  # atno 17370 bound_to 10713
  157.0697  130.5859  149.5400 LP  0  0  0  0  0  0  0  0  0  0  0  0  # atno 17371 bound_to 10713
  140.9395  133.7524  156.0128 LP  0  0  0  0  0  0  0  0  0  0  0  0  # atno 17394 bound_to 11000
  140.8236  134.3260  157.5373 LP  0  0  0  0  0  0  0  0  0  0  0  0  # atno 17395 bound_to 11000

$$$$
