AV-unprocessed.smi:3246|AV-procd|sdf|12410|dock2
  -GOLD-   2272018293D 1   1.00000     0.00000
 Structure written by MMmdl.
 35 36  0  0  0  0  0  0  0  0  1 V2000
  151.2766  141.1267  157.3239 O   0  0  0  0  0  0  0  0  0  0  0  0
  150.6112  141.8571  156.5905 C   0  0  0  0  0  0  0  0  0  0  0  0
  150.1001  141.2996  155.2517 C   0  0  0  0  0  0  0  0  0  0  0  0
  150.3672  139.8758  155.0305 N   0  0  0  0  0  0  0  0  0  0  0  0
  149.2953  138.8980  155.1217 C   0  0  0  0  0  0  0  0  0  0  0  0
  149.9074  137.5873  154.6071 C   0  0  0  0  0  0  0  0  0  0  0  0
  151.4226  137.8156  154.5856 C   0  0  0  0  0  0  0  0  0  0  0  0
  151.5530  139.3201  154.7511 C   0  0  0  0  0  0  0  0  0  0  0  0
  152.6217  139.9159  154.6281 O   0  0  0  0  0  0  0  0  0  0  0  0
  150.3070  143.1259  156.9134 N   0  0  0  0  0  0  0  0  0  0  0  0
  150.7114  143.8017  158.1396 C   0  0  0  0  0  0  0  0  0  0  0  0
  152.2328  143.7340  158.3461 C   0  0  0  0  0  0  0  0  0  0  0  0
  152.5984  143.1244  159.6849 C   0  0  0  0  0  0  0  0  0  0  0  0
  153.3286  141.9203  159.7593 C   0  0  0  0  0  0  0  0  0  0  0  0
  153.6380  141.3925  161.0277 C   0  0  0  0  0  0  0  0  0  0  0  0
  153.2026  142.0933  162.1702 C   0  0  0  0  0  0  0  0  0  0  0  0
  152.5023  143.2467  162.1108 N   0  0  0  0  0  0  0  0  0  0  0  0
  152.2098  143.7461  160.8906 C   0  0  0  0  0  0  0  0  0  0  0  0
  149.0264  141.4831  155.1854 H   0  0  0  0  0  0  0  0  0  0  0  0
  150.5555  141.8762  154.4457 H   0  0  0  0  0  0  0  0  0  0  0  0
  148.9838  138.8019  156.1628 H   0  0  0  0  0  0  0  0  0  0  0  0
  148.4294  139.2000  154.5313 H   0  0  0  0  0  0  0  0  0  0  0  0
  149.6303  136.7390  155.2338 H   0  0  0  0  0  0  0  0  0  0  0  0
  149.5508  137.3790  153.5975 H   0  0  0  0  0  0  0  0  0  0  0  0
  151.9136  137.3156  155.4210 H   0  0  0  0  0  0  0  0  0  0  0  0
  151.8780  137.4750  153.6555 H   0  0  0  0  0  0  0  0  0  0  0  0
  149.7601  143.6629  156.2559 H   0  0  0  0  0  0  0  0  0  0  0  0
  150.3709  144.8385  158.1248 H   0  0  0  0  0  0  0  0  0  0  0  0
  150.2013  143.3192  158.9737 H   0  0  0  0  0  0  0  0  0  0  0  0
  152.6937  143.1497  157.5485 H   0  0  0  0  0  0  0  0  0  0  0  0
  152.6685  144.7324  158.2868 H   0  0  0  0  0  0  0  0  0  0  0  0
  153.6452  141.4083  158.8625 H   0  0  0  0  0  0  0  0  0  0  0  0
  154.1956  140.4726  161.1232 H   0  0  0  0  0  0  0  0  0  0  0  0
  153.4229  141.7171  163.1584 H   0  0  0  0  0  0  0  0  0  0  0  0
  151.6465  144.6678  160.8762 H   0  0  0  0  0  0  0  0  0  0  0  0
  1  2  2  0  0  0  0
  2  3  1  0  0  0  0
  2 10  1  0  0  0  0
  3  4  1  0  0  0  0
  3 19  1  0  0  0  0
  3 20  1  0  0  0  0
  4  8  1  0  0  0  0
  4  5  1  0  0  0  0
  5  6  1  0  0  0  0
  5 21  1  0  0  0  0
  5 22  1  0  0  0  0
  6  7  1  0  0  0  0
  6 23  1  0  0  0  0
  6 24  1  0  0  0  0
  7  8  1  0  0  0  0
  7 25  1  0  0  0  0
  7 26  1  0  0  0  0
  8  9  2  0  0  0  0
 10 11  1  0  0  0  0
 10 27  1  0  0  0  0
 11 12  1  0  0  0  0
 11 28  1  0  0  0  0
 11 29  1  0  0  0  0
 12 13  1  0  0  0  0
 12 30  1  0  0  0  0
 12 31  1  0  0  0  0
 13 18  1  0  0  0  0
 13 14  2  0  0  0  0
 14 15  1  0  0  0  0
 14 32  1  0  0  0  0
 15 16  2  0  0  0  0
 15 33  1  0  0  0  0
 16 17  1  0  0  0  0
 16 34  1  0  0  0  0
 17 18  2  0  0  0  0
 18 35  1  0  0  0  0
M  END
> <s_m_source_file>
AV-unprocessed.smi

> <i_m_source_file_index>
3246

> <i_lp_mmshare_version>
43012

> <i_f3d_flags>
0

> <s_epik_input>
Tz1DMVtDSDJdW0NIMl1bQ0gyXU4xW0NIMl1DKD1PKVtOSF1bQ0gyXVtDSDJdYzJbY0hdW2NIXVtjSF1uW2NIXTI=

> <s_epik_cmdline>
J2VwaWtfcHl0aG9uJywgJy1waCcsICc3LjAnLCAnLXRuJywgJzgnLCAnLW1hJywgJzIwMCcsICctbWV0YWxfYmluZGluZycsICctaW1hZScsICc8aW5maWxlLm1hZT4nLCAnLW9tYWUnLCAnPG91dGZpbGUubWFlPic=

> <r_epik_Ionization_Penalty>
0.0129263

> <r_epik_Ionization_Penalty_Charging>
0

> <r_epik_Ionization_Penalty_Neutral>
0.0129263

> <r_epik_State_Penalty>
0.0100328

> <r_epik_Charging_Adjusted_Penalty>
0.0100328

> <i_epik_Tot_Q>
0

> <i_epik_Tot_abs_Q>
0

> <r_epik_Metal_State_Penalty>
0.00981748

> <b_epik_Metal_Only>
0

> <s_lp_Force_Field>
OPLS_2005

> <r_lp_Energy>
11.4517

> <b_lp_Chiralities_Consistent>
1

> <s_lp_Variant>
AV-unprocessed.smi:3246-1

> <Gold.Version>
5.8.1

> <Gold.Id.Protein>
6NUR|6NUR_protein|mol2

> <Gold.PLP.Fitness>
50.8845

> <Gold.PLP.PLP>
-45.8157

> <Gold.PLP.part.hbond>
-2.9498

> <Gold.PLP.part.metal>
0.0000

> <Gold.PLP.part.buried>
-3.1636

> <Gold.PLP.part.nonpolar>
-38.4695

> <Gold.PLP.part.repulsive>
0.2178

> <Gold.PLP.ligand.clash>
0.0000

> <Gold.PLP.ligand.torsion>
0.5781

> <Gold.PLP.Chemscore.Hbond>
2.0601

> <Gold.PLP.Chemscore.CHOScore>
0.0000

> <Gold.PLP.Chemscore.Metal>
0.0000

> <Gold.Chemscore.Hbonds>
donor molecule, donor type, donor heavy atom, donor atom, acceptor molecule, acceptor atom, score
      L1  H    10    27       P1  8028  0.91
      P1  H  7989  7998       L1     9  0.07
      P1  H  7997  8009       L1     9  0.36

> <Gold.PLP.Chemscore.Internal.Correction>
0.0448

> <Gold.Rescore>
     Score         DG    S(hbond)    S(metal)    S(lipo)     H(rot)  DE(clash)    DE(int)     intcor
     19.06     -19.69       1.99        0.00     105.21       1.85       0.06       0.56       ----

> <Gold.Chemscore.Fitness>
19.0592

> <Gold.Chemscore.DG>
-19.6852

> <Gold.Chemscore.ZeroCoef>
-5.4800

> <Gold.Chemscore.Hbond>
1.9852

> <Gold.Chemscore.Metal>
0.0000

> <Gold.Chemscore.Lipo>
105.2054

> <Gold.Chemscore.Internal_Hbond>
0.0000

> <Gold.Chemscore.DEClash>
0.0617

> <Gold.Chemscore.DEInternal>
0.5643

> <Gold.Chemscore.Rot>
1.8494

> <Gold.Chemscore.Internal.Correction>
   9.000000E+99

> <Gold.Chemscore.Hbonds>
donor molecule, donor type, donor heavy atom, donor atom, acceptor molecule, acceptor atom, score
      L1  H    10    27       P1  8028  0.87
      P1  H  7997  8009       L1     9  0.37

> <Gold.Chemscore.Hbond.Weighted>
-6.6306

> <Gold.Chemscore.Metal.Weighted>
-0.0000

> <Gold.Chemscore.Lipo.Weighted>
-12.3090

> <Gold.Chemscore.Internal_Hbond.Weighted>
0.0000

> <Gold.Chemscore.DEClash.Weighted>
0.0617

> <Gold.Chemscore.DEInternal.Weighted>
0.5643

> <Gold.Chemscore.Rot.Weighted>
4.7344

> <Gold.Chemscore.Internal.Correction.Weighted>
   9.000000E+99

> <Gold.Protein.RotatedTorsions>
[ 6907 6896 6895 6894 ] final  176.54 input  -60.11 | X-H torsion
[ 7974 7965 7964 7962 ] final   80.38 input  175.53 | X-H torsion
[ 8008 7997 7996 7995 ] final -148.48 input   59.86 | X-H torsion
[ 10167 10162 10161 10158 ] final   79.39 input  -65.29 | X-H torsion
[ 10718 10713 10712 10709 ] final  154.99 input   66.30 | X-H torsion
[ 10763 10752 10751 10750 ] final  -45.51 input  -60.55 | X-H torsion
[ 11005 11000 10999 10996 ] final -121.89 input  -57.11 | X-H torsion

> <Gold.Protein.ActiveResidues>
 VAL166  LYS551  ARG553  GLY616  TRP617  ASP618  TYR619  PRO620  LYS621  CYS622 
 ASP623  PHE694  ASN695  SER759  ASP760  ASP761  ALA762  ILE779  LEU786  VAL792 
 PHE793  MET794  SER795  GLU796  ALA797  LYS798  CYS799  TRP800  GLU811  SER814 

> <Gold.Protein.RotatedAtoms>
  151.7185  133.3314  159.3308 H   0  0  0  0  0  0  0  0  0  0  0  0  # atno 6907 bound_to 6896
  150.7663  134.6469  159.6276 H   0  0  0  0  0  0  0  0  0  0  0  0  # atno 6908 bound_to 6896
  152.3667  134.6796  160.0241 H   0  0  0  0  0  0  0  0  0  0  0  0  # atno 6909 bound_to 6896
  145.6519  139.2450  143.1971 H   0  0  0  0  0  0  0  0  0  0  0  0  # atno 7974 bound_to 7965
  155.5922  140.0654  157.2755 H   0  0  0  0  0  0  0  0  0  0  0  0  # atno 8008 bound_to 7997
  154.4302  140.1833  156.1133 H   0  0  0  0  0  0  0  0  0  0  0  0  # atno 8009 bound_to 7997
  156.0224  140.3315  155.7056 H   0  0  0  0  0  0  0  0  0  0  0  0  # atno 8010 bound_to 7997
  139.9609  144.5962  150.8073 H   0  0  0  0  0  0  0  0  0  0  0  0  # atno 10167 bound_to 10162
  157.2243  131.0725  151.1892 H   0  0  0  0  0  0  0  0  0  0  0  0  # atno 10718 bound_to 10713
  154.0297  135.6658  153.4779 H   0  0  0  0  0  0  0  0  0  0  0  0  # atno 10763 bound_to 10752
  153.0545  135.5064  154.7944 H   0  0  0  0  0  0  0  0  0  0  0  0  # atno 10764 bound_to 10752
  154.6886  135.3057  154.9477 H   0  0  0  0  0  0  0  0  0  0  0  0  # atno 10765 bound_to 10752
  141.0036  134.0366  157.3505 H   0  0  0  0  0  0  0  0  0  0  0  0  # atno 11005 bound_to 11000
  146.1196  140.7325  142.9464 LP  0  0  0  0  0  0  0  0  0  0  0  0  # atno 17320 bound_to 7965
  144.7119  140.4071  143.7074 LP  0  0  0  0  0  0  0  0  0  0  0  0  # atno 17321 bound_to 7965
  140.7553  143.3044  151.2998 LP  0  0  0  0  0  0  0  0  0  0  0  0  # atno 17342 bound_to 10162
  139.6555  144.0284  152.2656 LP  0  0  0  0  0  0  0  0  0  0  0  0  # atno 17343 bound_to 10162
  157.3543  130.7098  149.6461 LP  0  0  0  0  0  0  0  0  0  0  0  0  # atno 17370 bound_to 10713
  155.9680  130.4243  150.4604 LP  0  0  0  0  0  0  0  0  0  0  0  0  # atno 17371 bound_to 10713
  139.9052  135.0177  156.7451 LP  0  0  0  0  0  0  0  0  0  0  0  0  # atno 17394 bound_to 11000
  140.6849  133.9442  155.7932 LP  0  0  0  0  0  0  0  0  0  0  0  0  # atno 17395 bound_to 11000

$$$$
