AV-unprocessed.smi:228|AV-procd|sdf|1746|dock2
  -GOLD-   2262020263D 1   1.00000     0.00000
 Structure written by MMmdl.
 59 62  0  0  0  0  0  0  0  0  1 V2000
  145.9857  138.8957  155.8852 C   0  0  0  0  0  0  0  0  0  0  0  0
  146.7207  139.2692  154.6834 N   0  0  0  0  0  0  0  0  0  0  0  0
  147.4575  140.5361  154.6923 C   0  0  0  0  0  0  0  0  0  0  0  0
  148.9744  140.3487  154.4866 C   0  0  1  0  0  0  0  0  0  0  0  0
  149.3324  141.0877  153.3371 O   0  0  0  0  0  0  0  0  0  0  0  0
  149.8156  140.8701  155.6735 C   0  0  0  0  0  0  0  0  0  0  0  0
  150.7399  139.9058  156.2709 N   0  0  0  0  0  0  0  0  0  0  0  0
  151.4539  140.4515  157.4248 C   0  0  0  0  0  0  0  0  0  0  0  0
  152.4552  139.4416  158.0129 C   0  0  0  0  0  0  0  0  0  0  0  0
  153.3670  139.0248  157.0023 O   0  0  0  0  0  0  0  0  0  0  0  0
  152.7114  138.4408  155.8817 C   0  0  0  0  0  0  0  0  0  0  0  0
  151.7165  139.4513  155.2861 C   0  0  0  0  0  0  0  0  0  0  0  0
  146.4577  138.6402  153.5031 C   0  0  0  0  0  0  0  0  0  0  0  0
  146.8633  139.2420  152.3531 N   0  0  0  0  0  0  0  0  0  0  0  0
  146.6309  138.6789  151.1651 C   0  0  0  0  0  0  0  0  0  0  0  0
  146.0090  137.5318  150.8956 N   0  0  0  0  0  0  0  0  0  0  0  0
  145.5878  136.9191  152.0381 C   0  0  0  0  0  0  0  0  0  0  0  0
  145.7738  137.3917  153.3707 C   0  0  0  0  0  0  0  0  0  0  0  0
  145.2074  136.4846  154.2616 N   0  0  0  0  0  0  0  0  0  0  0  0
  144.7339  135.5329  153.5058 C   0  0  0  0  0  0  0  0  0  0  0  0
  144.8925  135.7282  152.1539 N   0  0  0  0  0  0  0  0  0  0  0  0
  144.5034  134.8360  151.1010 C   0  0  0  0  0  0  0  0  0  0  0  0
  144.0046  133.4223  151.4132 C   0  0  0  0  0  0  0  0  0  0  0  0
  144.6953  132.8843  150.1405 C   0  0  0  0  0  0  0  0  0  0  0  0
  145.5035  131.5914  150.3317 C   0  0  0  0  0  0  0  0  0  0  0  0
  146.4556  131.7249  151.3678 O   0  0  0  0  0  0  0  0  0  0  0  0
  143.8087  132.6841  148.8907 C   0  0  0  0  0  0  0  0  0  0  0  0
  143.4030  133.8969  148.2891 O   0  0  0  0  0  0  0  0  0  0  0  0
  145.5405  134.1776  150.1847 C   0  0  0  0  0  0  0  0  0  0  0  0
  145.9561  137.8121  156.0037 H   0  0  0  0  0  0  0  0  0  0  0  0
  144.9648  139.2762  155.8463 H   0  0  0  0  0  0  0  0  0  0  0  0
  146.4633  139.3099  156.7736 H   0  0  0  0  0  0  0  0  0  0  0  0
  147.0616  141.1417  153.8762 H   0  0  0  0  0  0  0  0  0  0  0  0
  147.2672  141.1188  155.5937 H   0  0  0  0  0  0  0  0  0  0  0  0
  149.1733  139.2972  154.2850 H   0  0  0  0  0  0  0  0  0  0  0  0
  149.5779  140.4811  152.6553 H   0  0  0  0  0  0  0  0  0  0  0  0
  150.3728  141.7442  155.3334 H   0  0  0  0  0  0  0  0  0  0  0  0
  149.1539  141.2345  156.4587 H   0  0  0  0  0  0  0  0  0  0  0  0
  151.9862  141.3592  157.1361 H   0  0  0  0  0  0  0  0  0  0  0  0
  150.7537  140.7362  158.2086 H   0  0  0  0  0  0  0  0  0  0  0  0
  153.0136  139.8945  158.8324 H   0  0  0  0  0  0  0  0  0  0  0  0
  151.9336  138.5744  158.4209 H   0  0  0  0  0  0  0  0  0  0  0  0
  153.4577  138.1601  155.1383 H   0  0  0  0  0  0  0  0  0  0  0  0
  152.1996  137.5262  156.1849 H   0  0  0  0  0  0  0  0  0  0  0  0
  151.2031  138.9921  154.4407 H   0  0  0  0  0  0  0  0  0  0  0  0
  152.2669  140.3057  154.8891 H   0  0  0  0  0  0  0  0  0  0  0  0
  146.9934  139.2272  150.3080 H   0  0  0  0  0  0  0  0  0  0  0  0
  144.2467  134.6619  153.9196 H   0  0  0  0  0  0  0  0  0  0  0  0
  143.7639  135.3818  150.5142 H   0  0  0  0  0  0  0  0  0  0  0  0
  144.4395  133.0240  152.3316 H   0  0  0  0  0  0  0  0  0  0  0  0
  142.9189  133.3210  151.4222 H   0  0  0  0  0  0  0  0  0  0  0  0
  144.8509  130.7474  150.5585 H   0  0  0  0  0  0  0  0  0  0  0  0
  146.0406  131.3287  149.4197 H   0  0  0  0  0  0  0  0  0  0  0  0
  147.3070  131.4995  151.0251 H   0  0  0  0  0  0  0  0  0  0  0  0
  144.3338  132.1003  148.1341 H   0  0  0  0  0  0  0  0  0  0  0  0
  142.9041  132.1288  149.1400 H   0  0  0  0  0  0  0  0  0  0  0  0
  142.5697  134.1499  148.6561 H   0  0  0  0  0  0  0  0  0  0  0  0
  145.6695  134.6755  149.2231 H   0  0  0  0  0  0  0  0  0  0  0  0
  146.5025  134.0371  150.6801 H   0  0  0  0  0  0  0  0  0  0  0  0
  1  2  1  0  0  0  0
  1 30  1  0  0  0  0
  1 31  1  0  0  0  0
  1 32  1  0  0  0  0
  2  3  1  0  0  0  0
  2 13  1  0  0  0  0
  3  4  1  0  0  0  0
  3 33  1  0  0  0  0
  3 34  1  0  0  0  0
  4  5  1  0  0  0  0
  4  6  1  0  0  0  0
  4 35  1  0  0  0  0
  5 36  1  0  0  0  0
  6  7  1  0  0  0  0
  6 37  1  0  0  0  0
  6 38  1  0  0  0  0
  7 12  1  0  0  0  0
  7  8  1  0  0  0  0
  8  9  1  0  0  0  0
  8 39  1  0  0  0  0
  8 40  1  0  0  0  0
  9 10  1  0  0  0  0
  9 41  1  0  0  0  0
  9 42  1  0  0  0  0
 10 11  1  0  0  0  0
 11 12  1  0  0  0  0
 11 43  1  0  0  0  0
 11 44  1  0  0  0  0
 12 45  1  0  0  0  0
 12 46  1  0  0  0  0
 13 18  1  0  0  0  0
 13 14  2  0  0  0  0
 14 15  1  0  0  0  0
 15 16  2  0  0  0  0
 15 47  1  0  0  0  0
 16 17  1  0  0  0  0
 17 21  1  0  0  0  0
 17 18  2  0  0  0  0
 18 19  1  0  0  0  0
 19 20  2  0  0  0  0
 20 21  1  0  0  0  0
 20 48  1  0  0  0  0
 21 22  1  0  0  0  0
 22 29  1  0  0  0  0
 22 23  1  0  0  0  0
 22 49  1  0  0  0  0
 23 24  1  0  0  0  0
 23 50  1  0  0  0  0
 23 51  1  0  0  0  0
 24 25  1  0  0  0  0
 24 27  1  0  0  0  0
 24 29  1  0  0  0  0
 25 26  1  0  0  0  0
 25 52  1  0  0  0  0
 25 53  1  0  0  0  0
 26 54  1  0  0  0  0
 27 28  1  0  0  0  0
 27 55  1  0  0  0  0
 27 56  1  0  0  0  0
 28 57  1  0  0  0  0
 29 58  1  0  0  0  0
 29 59  1  0  0  0  0
M  END
> <s_m_source_file>
AV-unprocessed.smi

> <i_m_source_file_index>
228

> <i_lp_mmshare_version>
43012

> <i_f3d_flags>
0

> <s_epik_input>
W0NIMl0xW0NIMl1PW0NIMl1bQ0gyXU4xW0NIMl1bQ0BASF0oW09IXSlbQ0gyXU4oW0NIM10pYyhuW2NIXW4yKWMoYzIzKW5bY0hdbjNbQ0hdKFtDSDJdNClbQ0gyXUM0KFtDSDJdW09IXSlbQ0gyXVtPSF0=

> <s_epik_cmdline>
J2VwaWtfcHl0aG9uJywgJy1waCcsICc3LjAnLCAnLXRuJywgJzgnLCAnLW1hJywgJzIwMCcsICctbWV0YWxfYmluZGluZycsICctaW1hZScsICc8aW5maWxlLm1hZT4nLCAnLW9tYWUnLCAnPG91dGZpbGUubWFlPic=

> <r_lp_tautomer_probability>
1

> <r_epik_Ionization_Penalty>
0.423559

> <r_epik_Ionization_Penalty_Charging>
0

> <r_epik_Ionization_Penalty_Neutral>
0.423559

> <r_epik_State_Penalty>
0.438466

> <r_epik_Charging_Adjusted_Penalty>
0.438466

> <i_epik_Tot_Q>
0

> <i_epik_Tot_abs_Q>
0

> <r_epik_Metal_State_Penalty>
0.436601

> <b_epik_Metal_Only>
0

> <s_lp_Force_Field>
OPLS_2005

> <r_lp_Energy>
57.656

> <b_lp_Chiralities_Consistent>
1

> <s_lp_Variant>
AV-unprocessed.smi:228-4

> <Gold.Version>
5.8.1

> <Gold.Id.Protein>
6NUR|6NUR_protein|mol2

> <Gold.PLP.Fitness>
55.9346

> <Gold.PLP.PLP>
-44.6364

> <Gold.PLP.part.hbond>
-7.2611

> <Gold.PLP.part.metal>
0.0000

> <Gold.PLP.part.buried>
-3.1573

> <Gold.PLP.part.nonpolar>
-38.5673

> <Gold.PLP.part.repulsive>
4.6199

> <Gold.PLP.ligand.clash>
0.0000

> <Gold.PLP.ligand.torsion>
2.2467

> <Gold.PLP.Chemscore.Hbond>
4.6100

> <Gold.PLP.Chemscore.CHOScore>
0.2074

> <Gold.PLP.Chemscore.Metal>
0.0000

> <Gold.Chemscore.Hbonds>
donor molecule, donor type, donor heavy atom, donor atom, acceptor molecule, acceptor atom, score
      L1  H     5    36       P1  7957  1.00
      L1  H    26    54       P1 10747  1.00
      L1  H    28    57       P1 10186  1.00
      P1  H  7997  8010       L1    10  1.00
      P1  H  8011  8017       L1     5  0.50
      L1  C    15    47       P1  7957  0.14

> <Gold.PLP.Chemscore.Internal.Correction>
1.3394

> <Gold.Rescore>
     Score         DG    S(hbond)    S(metal)    S(lipo)     H(rot)  DE(clash)    DE(int)     intcor
     11.05     -17.81       3.80        0.00      98.86       4.66       3.54       3.22       ----

> <Gold.Chemscore.Fitness>
11.0492

> <Gold.Chemscore.DG>
-17.8136

> <Gold.Chemscore.ZeroCoef>
-5.4800

> <Gold.Chemscore.Hbond>
3.8015

> <Gold.Chemscore.Metal>
0.0000

> <Gold.Chemscore.Lipo>
98.8577

> <Gold.Chemscore.Internal_Hbond>
0.0000

> <Gold.Chemscore.DEClash>
3.5447

> <Gold.Chemscore.DEInternal>
3.2197

> <Gold.Chemscore.Rot>
4.6600

> <Gold.Chemscore.Internal.Correction>
   9.000000E+99

> <Gold.Chemscore.Hbonds>
donor molecule, donor type, donor heavy atom, donor atom, acceptor molecule, acceptor atom, score
      L1  H     5    36       P1  7957  0.91
      L1  H    26    54       P1 10747  0.99
      L1  H    28    57       P1 10186  1.00
      P1  H  7997  8010       L1    10  0.67
      P1  H  8011  8017       L1     5  0.02

> <Gold.Chemscore.Hbond.Weighted>
-12.6969

> <Gold.Chemscore.Metal.Weighted>
-0.0000

> <Gold.Chemscore.Lipo.Weighted>
-11.5663

> <Gold.Chemscore.Internal_Hbond.Weighted>
0.0000

> <Gold.Chemscore.DEClash.Weighted>
3.5447

> <Gold.Chemscore.DEInternal.Weighted>
3.2197

> <Gold.Chemscore.Rot.Weighted>
11.9297

> <Gold.Chemscore.Internal.Correction.Weighted>
   9.000000E+99

> <Gold.Protein.RotatedTorsions>
[ 6907 6896 6895 6894 ] final   77.81 input  -60.11 | X-H torsion
[ 7974 7965 7964 7962 ] final  132.51 input  175.53 | X-H torsion
[ 8008 7997 7996 7995 ] final   40.84 input   59.86 | X-H torsion
[ 10167 10162 10161 10158 ] final  -31.57 input  -65.29 | X-H torsion
[ 10718 10713 10712 10709 ] final  -44.71 input   66.30 | X-H torsion
[ 10763 10752 10751 10750 ] final  166.80 input  -60.55 | X-H torsion
[ 11005 11000 10999 10996 ] final  -42.81 input  -57.11 | X-H torsion

> <Gold.Protein.ActiveResidues>
 VAL166  LYS551  ARG553  GLY616  TRP617  ASP618  TYR619  PRO620  LYS621  CYS622 
 ASP623  PHE694  ASN695  SER759  ASP760  ASP761  ALA762  ILE779  LEU786  VAL792 
 PHE793  MET794  SER795  GLU796  ALA797  LYS798  CYS799  TRP800  GLU811  SER814 

> <Gold.Protein.RotatedAtoms>
  152.5133  134.3759  159.9334 H   0  0  0  0  0  0  0  0  0  0  0  0  # atno 6907 bound_to 6896
  151.3715  133.3847  159.2708 H   0  0  0  0  0  0  0  0  0  0  0  0  # atno 6908 bound_to 6896
  150.9574  134.8986  159.7768 H   0  0  0  0  0  0  0  0  0  0  0  0  # atno 6909 bound_to 6896
  144.9961  139.4358  143.5315 H   0  0  0  0  0  0  0  0  0  0  0  0  # atno 7974 bound_to 7965
  155.2597  140.3358  155.4274 H   0  0  0  0  0  0  0  0  0  0  0  0  # atno 8008 bound_to 7997
  156.2180  140.1797  156.7587 H   0  0  0  0  0  0  0  0  0  0  0  0  # atno 8009 bound_to 7997
  154.5782  140.0658  156.9050 H   0  0  0  0  0  0  0  0  0  0  0  0  # atno 8010 bound_to 7997
  140.7234  143.3760  151.1688 H   0  0  0  0  0  0  0  0  0  0  0  0  # atno 10167 bound_to 10162
  156.2358  130.4176  149.8820 H   0  0  0  0  0  0  0  0  0  0  0  0  # atno 10718 bound_to 10713
  154.3443  135.2753  155.2406 H   0  0  0  0  0  0  0  0  0  0  0  0  # atno 10763 bound_to 10752
  154.4663  135.5894  153.6293 H   0  0  0  0  0  0  0  0  0  0  0  0  # atno 10764 bound_to 10752
  152.9855  135.6077  154.3647 H   0  0  0  0  0  0  0  0  0  0  0  0  # atno 10765 bound_to 10752
  141.0341  133.6807  156.2646 H   0  0  0  0  0  0  0  0  0  0  0  0  # atno 11005 bound_to 11000
  146.3442  139.9322  142.8752 LP  0  0  0  0  0  0  0  0  0  0  0  0  # atno 17320 bound_to 7965
  145.2217  140.9938  143.4041 LP  0  0  0  0  0  0  0  0  0  0  0  0  # atno 17321 bound_to 7965
  139.7341  143.9027  152.3029 LP  0  0  0  0  0  0  0  0  0  0  0  0  # atno 17342 bound_to 10162
  139.8826  144.7009  150.8861 LP  0  0  0  0  0  0  0  0  0  0  0  0  # atno 17343 bound_to 10162
  156.6418  130.8708  151.3515 LP  0  0  0  0  0  0  0  0  0  0  0  0  # atno 17370 bound_to 10713
  157.7153  130.9490  150.1235 LP  0  0  0  0  0  0  0  0  0  0  0  0  # atno 17371 bound_to 10713
  140.6354  134.5221  157.5564 LP  0  0  0  0  0  0  0  0  0  0  0  0  # atno 17394 bound_to 11000
  139.9228  134.8115  156.1159 LP  0  0  0  0  0  0  0  0  0  0  0  0  # atno 17395 bound_to 11000

$$$$
