AV-unprocessed.smi:372|AV-procd|sdf|2444|dock4
  -GOLD-   2262022383D 1   1.00000     0.00000
 Structure written by MMmdl.
 23 24  0  0  0  0  0  0  0  0  1 V2000
  150.5587  139.7142  158.8623 C   0  0  0  0  0  0  0  0  0  0  0  0
  151.3245  140.4096  157.7204 C   0  0  2  0  0  0  0  0  0  0  0  0
  151.7482  141.8387  158.1028 C   0  0  0  0  0  0  0  0  0  0  0  0
  152.6590  142.0911  159.1587 C   0  0  0  0  0  0  0  0  0  0  0  0
  153.0109  143.4229  159.4511 C   0  0  0  0  0  0  0  0  0  0  0  0
  152.4490  144.4593  158.6835 C   0  0  0  0  0  0  0  0  0  0  0  0
  151.5582  144.1152  157.6496 C   0  0  0  0  0  0  0  0  0  0  0  0
  151.2168  142.8417  157.3611 N   0  0  0  0  0  0  0  0  0  0  0  0
  150.5372  140.3532  156.4944 N   0  0  0  0  0  0  0  0  0  0  0  0
  151.1585  139.7132  155.4956 C   0  0  0  0  0  0  0  0  0  0  0  0
  150.7259  139.5594  154.3561 O   0  0  0  0  0  0  0  0  0  0  0  0
  152.3245  139.2608  155.9630 N   0  0  0  0  0  0  0  0  0  0  0  0
  152.5155  139.5759  157.2429 C   0  0  0  0  0  0  0  0  0  0  0  0
  153.4739  139.2428  157.9389 O   0  0  0  0  0  0  0  0  0  0  0  0
  151.1523  139.6733  159.7764 H   0  0  0  0  0  0  0  0  0  0  0  0
  150.2897  138.6895  158.6018 H   0  0  0  0  0  0  0  0  0  0  0  0
  149.6359  140.2469  159.0940 H   0  0  0  0  0  0  0  0  0  0  0  0
  153.0905  141.2925  159.7430 H   0  0  0  0  0  0  0  0  0  0  0  0
  153.7020  143.6451  160.2507 H   0  0  0  0  0  0  0  0  0  0  0  0
  152.6966  145.4919  158.8807 H   0  0  0  0  0  0  0  0  0  0  0  0
  151.1088  144.8823  157.0367 H   0  0  0  0  0  0  0  0  0  0  0  0
  149.6328  140.7938  156.4092 H   0  0  0  0  0  0  0  0  0  0  0  0
  152.9784  138.7220  155.4140 H   0  0  0  0  0  0  0  0  0  0  0  0
  1  2  1  0  0  0  0
  1 15  1  0  0  0  0
  1 16  1  0  0  0  0
  1 17  1  0  0  0  0
  2 13  1  0  0  0  0
  2  3  1  0  0  0  0
  2  9  1  0  0  0  0
  3  8  1  0  0  0  0
  3  4  2  0  0  0  0
  4  5  1  0  0  0  0
  4 18  1  0  0  0  0
  5  6  2  0  0  0  0
  5 19  1  0  0  0  0
  6  7  1  0  0  0  0
  6 20  1  0  0  0  0
  7  8  2  0  0  0  0
  7 21  1  0  0  0  0
  9 10  1  0  0  0  0
  9 22  1  0  0  0  0
 10 11  2  0  0  0  0
 10 12  1  0  0  0  0
 12 13  1  0  0  0  0
 12 23  1  0  0  0  0
 13 14  2  0  0  0  0
M  END
> <s_m_source_file>
AV-unprocessed.smi

> <i_m_source_file_index>
372

> <i_lp_mmshare_version>
43012

> <i_f3d_flags>
0

> <s_epik_input>
Tz1DMVtOSF1DKD1PKVtOSF1bQ0BAXTEoW0NIM10pYzJbY0hdW2NIXVtjSF1bY0hdbjI=

> <s_epik_cmdline>
J2VwaWtfcHl0aG9uJywgJy1waCcsICc3LjAnLCAnLXRuJywgJzgnLCAnLW1hJywgJzIwMCcsICctbWV0YWxfYmluZGluZycsICctaW1hZScsICc8aW5maWxlLm1hZT4nLCAnLW9tYWUnLCAnPG91dGZpbGUubWFlPic=

> <r_lp_tautomer_probability>
1

> <r_epik_Ionization_Penalty>
0.0293563

> <r_epik_Ionization_Penalty_Charging>
0

> <r_epik_Ionization_Penalty_Neutral>
0.0293563

> <r_epik_State_Penalty>
0.034944

> <r_epik_Charging_Adjusted_Penalty>
0.034944

> <i_epik_Tot_Q>
0

> <i_epik_Tot_abs_Q>
0

> <r_epik_Metal_State_Penalty>
0.534399

> <b_epik_Metal_Only>
0

> <s_lp_Force_Field>
OPLS_2005

> <r_lp_Energy>
17.2904

> <b_lp_Chiralities_Consistent>
1

> <s_lp_Variant>
AV-unprocessed.smi:372-2

> <Gold.Version>
5.8.1

> <Gold.Id.Protein>
6NUR|6NUR_protein|mol2

> <Gold.PLP.Fitness>
34.2302

> <Gold.PLP.PLP>
-25.3313

> <Gold.PLP.part.hbond>
-1.8460

> <Gold.PLP.part.metal>
0.0000

> <Gold.PLP.part.buried>
-1.6608

> <Gold.PLP.part.nonpolar>
-23.5452

> <Gold.PLP.part.repulsive>
0.4822

> <Gold.PLP.ligand.clash>
0.0000

> <Gold.PLP.ligand.torsion>
0.0790

> <Gold.PLP.Chemscore.Hbond>
2.0000

> <Gold.PLP.Chemscore.CHOScore>
0.9800

> <Gold.PLP.Chemscore.Metal>
0.0000

> <Gold.Chemscore.Hbonds>
donor molecule, donor type, donor heavy atom, donor atom, acceptor molecule, acceptor atom, score
      P1  H  7989  7998       L1    11  1.00
      P1  H  7997  8010       L1    14  1.00
      L1  C     7    21       P1  8028  0.87

> <Gold.PLP.Chemscore.Internal.Correction>
0.1171

> <Gold.Rescore>
     Score         DG    S(hbond)    S(metal)    S(lipo)     H(rot)  DE(clash)    DE(int)     intcor
     14.72     -14.83       1.26        0.00      65.65       1.00       0.04       0.07       ----

> <Gold.Chemscore.Fitness>
14.7176

> <Gold.Chemscore.DG>
-14.8251

> <Gold.Chemscore.ZeroCoef>
-5.4800

> <Gold.Chemscore.Hbond>
1.2647

> <Gold.Chemscore.Metal>
0.0000

> <Gold.Chemscore.Lipo>
65.6487

> <Gold.Chemscore.Internal_Hbond>
0.0000

> <Gold.Chemscore.DEClash>
0.0425

> <Gold.Chemscore.DEInternal>
0.0650

> <Gold.Chemscore.Rot>
1.0000

> <Gold.Chemscore.Internal.Correction>
   9.000000E+99

> <Gold.Chemscore.Hbonds>
donor molecule, donor type, donor heavy atom, donor atom, acceptor molecule, acceptor atom, score
      P1  H  7989  7998       L1    11  0.30
      P1  H  7997  8010       L1    14  0.48

> <Gold.Chemscore.Hbond.Weighted>
-4.2242

> <Gold.Chemscore.Metal.Weighted>
-0.0000

> <Gold.Chemscore.Lipo.Weighted>
-7.6809

> <Gold.Chemscore.Internal_Hbond.Weighted>
0.0000

> <Gold.Chemscore.DEClash.Weighted>
0.0425

> <Gold.Chemscore.DEInternal.Weighted>
0.0650

> <Gold.Chemscore.Rot.Weighted>
2.5600

> <Gold.Chemscore.Internal.Correction.Weighted>
   9.000000E+99

> <Gold.Protein.RotatedTorsions>
[ 6907 6896 6895 6894 ] final -108.20 input  -60.11 | X-H torsion
[ 7974 7965 7964 7962 ] final   66.03 input  175.53 | X-H torsion
[ 8008 7997 7996 7995 ] final   15.61 input   59.86 | X-H torsion
[ 10167 10162 10161 10158 ] final -154.45 input  -65.29 | X-H torsion
[ 10718 10713 10712 10709 ] final  -79.49 input   66.30 | X-H torsion
[ 10763 10752 10751 10750 ] final -129.78 input  -60.55 | X-H torsion
[ 11005 11000 10999 10996 ] final  176.10 input  -57.11 | X-H torsion

> <Gold.Protein.ActiveResidues>
 VAL166  LYS551  ARG553  GLY616  TRP617  ASP618  TYR619  PRO620  LYS621  CYS622 
 ASP623  PHE694  ASN695  SER759  ASP760  ASP761  ALA762  ILE779  LEU786  VAL792 
 PHE793  MET794  SER795  GLU796  ALA797  LYS798  CYS799  TRP800  GLU811  SER814 

> <Gold.Protein.RotatedAtoms>
  150.7488  133.9712  159.3546 H   0  0  0  0  0  0  0  0  0  0  0  0  # atno 6907 bound_to 6896
  151.7646  135.0799  160.0360 H   0  0  0  0  0  0  0  0  0  0  0  0  # atno 6908 bound_to 6896
  152.3380  133.5997  159.5892 H   0  0  0  0  0  0  0  0  0  0  0  0  # atno 6909 bound_to 6896
  145.8315  139.3142  143.0985 H   0  0  0  0  0  0  0  0  0  0  0  0  # atno 7974 bound_to 7965
  154.8651  140.2950  155.5515 H   0  0  0  0  0  0  0  0  0  0  0  0  # atno 8008 bound_to 7997
  156.3020  140.2470  156.3564 H   0  0  0  0  0  0  0  0  0  0  0  0  # atno 8009 bound_to 7997
  154.8876  140.0395  157.1809 H   0  0  0  0  0  0  0  0  0  0  0  0  # atno 8010 bound_to 7997
  139.7012  143.9259  152.2429 H   0  0  0  0  0  0  0  0  0  0  0  0  # atno 10167 bound_to 10162
  156.0091  130.4547  150.3656 H   0  0  0  0  0  0  0  0  0  0  0  0  # atno 10718 bound_to 10713
  154.8757  135.3884  154.3976 H   0  0  0  0  0  0  0  0  0  0  0  0  # atno 10763 bound_to 10752
  153.4704  135.7030  153.6002 H   0  0  0  0  0  0  0  0  0  0  0  0  # atno 10764 bound_to 10752
  153.4461  135.3844  155.2225 H   0  0  0  0  0  0  0  0  0  0  0  0  # atno 10765 bound_to 10752
  140.3694  134.7043  157.4383 H   0  0  0  0  0  0  0  0  0  0  0  0  # atno 11005 bound_to 11000
  145.9566  140.8868  143.0232 LP  0  0  0  0  0  0  0  0  0  0  0  0  # atno 17320 bound_to 7965
  144.6739  140.1753  143.7410 LP  0  0  0  0  0  0  0  0  0  0  0  0  # atno 17321 bound_to 7965
  139.9102  144.6861  150.8570 LP  0  0  0  0  0  0  0  0  0  0  0  0  # atno 17342 bound_to 10162
  140.7710  143.3449  151.2132 LP  0  0  0  0  0  0  0  0  0  0  0  0  # atno 17343 bound_to 10162
  157.1743  131.0376  151.2780 LP  0  0  0  0  0  0  0  0  0  0  0  0  # atno 17370 bound_to 10713
  157.4202  130.7433  149.6907 LP  0  0  0  0  0  0  0  0  0  0  0  0  # atno 17371 bound_to 10713
  140.0563  134.6058  155.8801 LP  0  0  0  0  0  0  0  0  0  0  0  0  # atno 17394 bound_to 11000
  141.1959  133.6589  156.5666 LP  0  0  0  0  0  0  0  0  0  0  0  0  # atno 17395 bound_to 11000

$$$$
