AV-unprocessed.smi:2671|AV-procd|sdf|10347|dock1
  -GOLD-   2272014373D 1   1.00000     0.00000
 Structure written by MMmdl.
 28 29  0  0  0  0  0  0  0  0  2 V2000
  153.7157  135.9002  159.4833 O   0  0  0  0  0  0  0  0  0  0  0  0
  154.5571  136.6870  159.0543 C   0  0  0  0  0  0  0  0  0  0  0  0
  154.8757  137.8896  159.8223 C   0  0  0  0  0  0  0  0  0  0  0  0
  155.8119  138.7476  159.3449 C   0  0  0  0  0  0  0  0  0  0  0  0
  156.1709  140.0228  160.0891 C   0  0  0  0  0  0  0  0  0  0  0  0
  156.5231  139.7458  161.3448 F   0  0  0  0  0  0  0  0  0  0  0  0
  157.1994  140.6270  159.4946 F   0  0  0  0  0  0  0  0  0  0  0  0
  155.1471  140.8777  160.1223 F   0  0  0  0  0  0  0  0  0  0  0  0
  156.4565  138.4882  158.1208 N   0  0  0  0  0  0  0  0  0  0  0  0
  156.1587  137.4295  157.4639 C   0  0  0  0  0  0  0  0  0  0  0  0
  156.9831  137.0909  155.8979 S   0  0  0  0  0  0  0  0  0  0  0  0
  155.9602  137.9585  154.6708 C   0  0  0  0  0  0  0  0  0  0  0  0
  156.3656  137.5994  153.2349 C   0  0  1  0  0  0  0  0  0  0  0  0
  157.8771  137.5874  152.9812 C   0  0  0  0  0  0  0  0  0  0  0  0
  158.0776  136.4789  151.9556 C   0  0  0  0  0  0  0  0  0  0  0  0
  156.6789  135.8971  151.7543 C   0  0  0  0  0  0  0  0  0  0  0  0
  155.9785  136.2685  152.9305 O   0  0  0  0  0  0  0  0  0  0  0  0
  155.2262  136.5029  157.8793 N   0  5  0  0  0  0  0  0  0  0  0  0
  154.3705  138.0896  160.7558 H   0  0  0  0  0  0  0  0  0  0  0  0
  156.0731  139.0322  154.8236 H   0  0  0  0  0  0  0  0  0  0  0  0
  154.9095  137.7189  154.8378 H   0  0  0  0  0  0  0  0  0  0  0  0
  155.8735  138.2686  152.5265 H   0  0  0  0  0  0  0  0  0  0  0  0
  158.2358  138.5546  152.6278 H   0  0  0  0  0  0  0  0  0  0  0  0
  158.4228  137.3443  153.8939 H   0  0  0  0  0  0  0  0  0  0  0  0
  158.4971  136.8473  151.0190 H   0  0  0  0  0  0  0  0  0  0  0  0
  158.7547  135.7212  152.3516 H   0  0  0  0  0  0  0  0  0  0  0  0
  156.1933  136.3494  150.8879 H   0  0  0  0  0  0  0  0  0  0  0  0
  156.6872  134.8157  151.6155 H   0  0  0  0  0  0  0  0  0  0  0  0
  1  2  2  0  0  0  0
  2 18  1  0  0  0  0
  2  3  1  0  0  0  0
  3 19  1  0  0  0  0
  3  4  2  0  0  0  0
  4  5  1  0  0  0  0
  4  9  1  0  0  0  0
  5  6  1  0  0  0  0
  5  7  1  0  0  0  0
  5  8  1  0  0  0  0
  9 10  2  0  0  0  0
 10 11  1  0  0  0  0
 10 18  1  0  0  0  0
 11 12  1  0  0  0  0
 12 13  1  0  0  0  0
 12 20  1  0  0  0  0
 12 21  1  0  0  0  0
 13 17  1  0  0  0  0
 13 14  1  0  0  0  0
 13 22  1  0  0  0  0
 14 15  1  0  0  0  0
 14 23  1  0  0  0  0
 14 24  1  0  0  0  0
 15 16  1  0  0  0  0
 15 25  1  0  0  0  0
 15 26  1  0  0  0  0
 16 17  1  0  0  0  0
 16 27  1  0  0  0  0
 16 28  1  0  0  0  0
M  CHG  1  18  -1
M  END
> <s_m_source_file>
AV-unprocessed.smi

> <i_m_source_file_index>
2671

> <i_lp_mmshare_version>
43012

> <i_f3d_flags>
0

> <s_epik_input>
W09IXWMxW2NIXWMoQyhGKShGKUYpbmMobjEpU1tDSDJdW0NAQEhdMltDSDJdW0NIMl1bQ0gyXU8y

> <s_epik_cmdline>
J2VwaWtfcHl0aG9uJywgJy1waCcsICc3LjAnLCAnLXRuJywgJzgnLCAnLW1hJywgJzIwMCcsICctbWV0YWxfYmluZGluZycsICctaW1hZScsICc8aW5maWxlLm1hZT4nLCAnLW9tYWUnLCAnPG91dGZpbGUubWFlPic=

> <r_lp_tautomer_probability>
1

> <r_epik_Ionization_Penalty>
0.972901

> <r_epik_Ionization_Penalty_Charging>
0.00136034

> <r_epik_Ionization_Penalty_Neutral>
0.971541

> <r_epik_State_Penalty>
0.242243

> <r_epik_Charging_Adjusted_Penalty>
0.243604

> <i_epik_Tot_Q>
-1

> <i_epik_Tot_abs_Q>
1

> <r_epik_Metal_State_Penalty>
0.0617458

> <b_epik_Metal_Only>
0

> <s_lp_Force_Field>
OPLS_2005

> <r_lp_Energy>
24.5089

> <b_lp_Chiralities_Consistent>
1

> <s_lp_Variant>
AV-unprocessed.smi:2671-2

> <Gold.Version>
5.8.1

> <Gold.Id.Protein>
6NUR|6NUR_protein|mol2

> <Gold.PLP.Fitness>
34.6950

> <Gold.PLP.PLP>
-26.8784

> <Gold.PLP.part.hbond>
-3.0000

> <Gold.PLP.part.metal>
0.0000

> <Gold.PLP.part.buried>
-0.1955

> <Gold.PLP.part.nonpolar>
-23.8338

> <Gold.PLP.part.repulsive>
0.1060

> <Gold.PLP.ligand.clash>
0.0000

> <Gold.PLP.ligand.torsion>
0.6069

> <Gold.PLP.Chemscore.Hbond>
3.0000

> <Gold.PLP.Chemscore.CHOScore>
0.0000

> <Gold.PLP.Chemscore.Metal>
0.0000

> <Gold.Chemscore.Hbonds>
donor molecule, donor type, donor heavy atom, donor atom, acceptor molecule, acceptor atom, score
      P1  H  6896  6909       L1     1  1.00
      P1  H  7997  8008       L1     9  0.90
      P1  H 10752 10765       L1    17  1.00

> <Gold.PLP.Chemscore.Internal.Correction>
0.0303

> <Gold.Rescore>
     Score         DG    S(hbond)    S(metal)    S(lipo)     H(rot)  DE(clash)    DE(int)     intcor
     17.81     -18.40       2.33        0.00      80.44       1.66       0.26       0.33       ----

> <Gold.Chemscore.Fitness>
17.8127

> <Gold.Chemscore.DG>
-18.4000

> <Gold.Chemscore.ZeroCoef>
-5.4800

> <Gold.Chemscore.Hbond>
2.3264

> <Gold.Chemscore.Metal>
0.0000

> <Gold.Chemscore.Lipo>
80.4444

> <Gold.Chemscore.Internal_Hbond>
0.0000

> <Gold.Chemscore.DEClash>
0.2565

> <Gold.Chemscore.DEInternal>
0.3308

> <Gold.Chemscore.Rot>
1.6649

> <Gold.Chemscore.Internal.Correction>
   9.000000E+99

> <Gold.Chemscore.Hbonds>
donor molecule, donor type, donor heavy atom, donor atom, acceptor molecule, acceptor atom, score
      P1  H  6896  6909       L1     1  0.98
      P1  H  7997  8008       L1     9  0.13
      P1  H 10752 10765       L1    17  0.97

> <Gold.Chemscore.Hbond.Weighted>
-7.7701

> <Gold.Chemscore.Metal.Weighted>
-0.0000

> <Gold.Chemscore.Lipo.Weighted>
-9.4120

> <Gold.Chemscore.Internal_Hbond.Weighted>
0.0000

> <Gold.Chemscore.DEClash.Weighted>
0.2565

> <Gold.Chemscore.DEInternal.Weighted>
0.3308

> <Gold.Chemscore.Rot.Weighted>
4.2620

> <Gold.Chemscore.Internal.Correction.Weighted>
   9.000000E+99

> <Gold.Protein.RotatedTorsions>
[ 6907 6896 6895 6894 ] final  163.19 input  -60.11 | X-H torsion
[ 7974 7965 7964 7962 ] final  -57.84 input  175.53 | X-H torsion
[ 8008 7997 7996 7995 ] final -165.70 input   59.86 | X-H torsion
[ 10167 10162 10161 10158 ] final   98.26 input  -65.29 | X-H torsion
[ 10718 10713 10712 10709 ] final -127.06 input   66.30 | X-H torsion
[ 10763 10752 10751 10750 ] final   43.98 input  -60.55 | X-H torsion
[ 11005 11000 10999 10996 ] final -153.60 input  -57.11 | X-H torsion

> <Gold.Protein.ActiveResidues>
 VAL166  LYS551  ARG553  GLY616  TRP617  ASP618  TYR619  PRO620  LYS621  CYS622 
 ASP623  PHE694  ASN695  SER759  ASP760  ASP761  ALA762  ILE779  LEU786  VAL792 
 PHE793  MET794  SER795  GLU796  ALA797  LYS798  CYS799  TRP800  GLU811  SER814 

> <Gold.Protein.RotatedAtoms>
  151.9289  133.3606  159.3923 H   0  0  0  0  0  0  0  0  0  0  0  0  # atno 6907 bound_to 6896
  150.7021  134.4558  159.5366 H   0  0  0  0  0  0  0  0  0  0  0  0  # atno 6908 bound_to 6896
  152.2194  134.8427  160.0538 H   0  0  0  0  0  0  0  0  0  0  0  0  # atno 6909 bound_to 6896
  145.8463  140.8383  143.0008 H   0  0  0  0  0  0  0  0  0  0  0  0  # atno 7974 bound_to 7965
  155.8535  140.0967  157.1659 H   0  0  0  0  0  0  0  0  0  0  0  0  # atno 8008 bound_to 7997
  154.3986  140.1378  156.3935 H   0  0  0  0  0  0  0  0  0  0  0  0  # atno 8009 bound_to 7997
  155.7935  140.3455  155.5365 H   0  0  0  0  0  0  0  0  0  0  0  0  # atno 8010 bound_to 7997
  139.7725  144.6917  151.0136 H   0  0  0  0  0  0  0  0  0  0  0  0  # atno 10167 bound_to 10162
  156.1822  130.6739  151.0319 H   0  0  0  0  0  0  0  0  0  0  0  0  # atno 10718 bound_to 10713
  152.9850  135.6085  154.3199 H   0  0  0  0  0  0  0  0  0  0  0  0  # atno 10763 bound_to 10752
  154.2909  135.2775  155.2657 H   0  0  0  0  0  0  0  0  0  0  0  0  # atno 10764 bound_to 10752
  154.4952  135.5881  153.6546 H   0  0  0  0  0  0  0  0  0  0  0  0  # atno 10765 bound_to 10752
  140.7064  134.3881  157.5203 H   0  0  0  0  0  0  0  0  0  0  0  0  # atno 11005 bound_to 11000
  144.6731  140.0887  143.7466 LP  0  0  0  0  0  0  0  0  0  0  0  0  # atno 17320 bound_to 7965
  145.9408  139.2668  143.1270 LP  0  0  0  0  0  0  0  0  0  0  0  0  # atno 17321 bound_to 7965
  140.7814  143.4573  151.0328 LP  0  0  0  0  0  0  0  0  0  0  0  0  # atno 17342 bound_to 10162
  139.8256  143.7761  152.3178 LP  0  0  0  0  0  0  0  0  0  0  0  0  # atno 17343 bound_to 10162
  157.6875  131.0820  150.7200 LP  0  0  0  0  0  0  0  0  0  0  0  0  # atno 17370 bound_to 10713
  156.7257  130.4694  149.5511 LP  0  0  0  0  0  0  0  0  0  0  0  0  # atno 17371 bound_to 10713
  139.8883  134.8860  156.2482 LP  0  0  0  0  0  0  0  0  0  0  0  0  # atno 17394 bound_to 11000
  141.0121  133.7090  156.1128 LP  0  0  0  0  0  0  0  0  0  0  0  0  # atno 17395 bound_to 11000

$$$$
