AV-unprocessed.smi:37|AV-procd|sdf|308|dock3
  -GOLD-   2262016123D 1   1.00000     0.00000
 Structure written by MMmdl.
 44 45  0  0  0  0  0  0  0  0  1 V2000
  156.4017  137.5166  157.2240 C   0  0  0  0  0  0  0  0  0  0  0  0
  155.0986  137.3375  158.0135 C   0  0  0  0  0  0  0  0  0  0  0  0
  153.8868  137.1781  157.0985 C   0  0  0  0  0  0  0  0  0  0  0  0
  153.2690  136.1154  157.0320 O   0  0  0  0  0  0  0  0  0  0  0  0
  153.5963  138.3038  156.4261 O   0  0  0  0  0  0  0  0  0  0  0  0
  152.3834  138.4047  155.6965 C   0  0  0  0  0  0  0  0  0  0  0  0
  152.0632  139.8853  155.4242 C   0  0  1  0  0  0  0  0  0  0  0  0
  150.9855  139.9139  154.4850 O   0  0  0  0  0  0  0  0  0  0  0  0
  149.8709  140.5282  155.0544 C   0  0  1  0  0  0  0  0  0  0  0  0
  148.6398  139.7603  154.6378 N   0  0  0  0  0  0  0  0  0  0  0  0
  148.5731  138.3867  154.8247 C   0  0  0  0  0  0  0  0  0  0  0  0
  147.5080  137.6412  154.4472 C   0  0  0  0  0  0  0  0  0  0  0  0
  147.5161  136.3150  154.6632 F   0  0  0  0  0  0  0  0  0  0  0  0
  146.3546  138.2642  153.8045 C   0  0  0  0  0  0  0  0  0  0  0  0
  145.3427  137.6754  153.4295 O   0  0  0  0  0  0  0  0  0  0  0  0
  146.4704  139.6461  153.6265 N   0  0  0  0  0  0  0  0  0  0  0  0
  147.5632  140.4264  154.0098 C   0  0  0  0  0  0  0  0  0  0  0  0
  147.5496  141.6389  153.8031 O   0  0  0  0  0  0  0  0  0  0  0  0
  150.0695  140.5042  156.5646 C   0  0  2  0  0  0  0  0  0  0  0  0
  149.0929  141.9862  157.4658 Br  0  0  0  0  0  0  0  0  0  0  0  0
  151.5685  140.6829  156.6481 C   0  0  1  0  0  0  0  0  0  0  0  0
  152.0511  140.2173  157.9020 O   0  0  0  0  0  0  0  0  0  0  0  0
  151.9175  140.9760  159.0053 C   0  0  0  0  0  0  0  0  0  0  0  0
  151.0143  141.7839  159.2213 O   0  0  0  0  0  0  0  0  0  0  0  0
  153.0524  140.7657  160.0049 C   0  0  0  0  0  0  0  0  0  0  0  0
  153.1396  141.9008  161.0338 C   0  0  0  0  0  0  0  0  0  0  0  0
  145.6972  140.1201  153.1828 H   0  0  0  0  0  0  0  0  0  0  0  0
  157.2514  137.5989  157.9016 H   0  0  0  0  0  0  0  0  0  0  0  0
  156.3791  138.4197  156.6130 H   0  0  0  0  0  0  0  0  0  0  0  0
  156.5860  136.6674  156.5651 H   0  0  0  0  0  0  0  0  0  0  0  0
  155.1729  136.4614  158.6580 H   0  0  0  0  0  0  0  0  0  0  0  0
  154.9362  138.1968  158.6648 H   0  0  0  0  0  0  0  0  0  0  0  0
  152.5162  137.8730  154.7538 H   0  0  0  0  0  0  0  0  0  0  0  0
  151.5527  137.9296  156.2202 H   0  0  0  0  0  0  0  0  0  0  0  0
  152.9300  140.3717  154.9755 H   0  0  0  0  0  0  0  0  0  0  0  0
  149.8157  141.5416  154.6544 H   0  0  0  0  0  0  0  0  0  0  0  0
  149.4065  137.8810  155.2902 H   0  0  0  0  0  0  0  0  0  0  0  0
  149.7511  139.5510  156.9882 H   0  0  0  0  0  0  0  0  0  0  0  0
  151.7949  141.7404  156.5012 H   0  0  0  0  0  0  0  0  0  0  0  0
  152.9031  139.8123  160.5123 H   0  0  0  0  0  0  0  0  0  0  0  0
  153.9925  140.6888  159.4581 H   0  0  0  0  0  0  0  0  0  0  0  0
  153.9884  141.7496  161.7008 H   0  0  0  0  0  0  0  0  0  0  0  0
  152.2418  141.9514  161.6508 H   0  0  0  0  0  0  0  0  0  0  0  0
  153.2698  142.8684  160.5478 H   0  0  0  0  0  0  0  0  0  0  0  0
  1  2  1  0  0  0  0
  1 28  1  0  0  0  0
  1 29  1  0  0  0  0
  1 30  1  0  0  0  0
  2  3  1  0  0  0  0
  2 31  1  0  0  0  0
  2 32  1  0  0  0  0
  3  4  2  0  0  0  0
  3  5  1  0  0  0  0
  5  6  1  0  0  0  0
  6  7  1  0  0  0  0
  6 33  1  0  0  0  0
  6 34  1  0  0  0  0
  7 21  1  0  0  0  0
  7  8  1  0  0  0  0
  7 35  1  0  0  0  0
  8  9  1  0  0  0  0
  9 10  1  0  0  0  0
  9 19  1  0  0  0  0
  9 36  1  0  0  0  0
 10 17  1  0  0  0  0
 10 11  1  0  0  0  0
 11 12  2  0  0  0  0
 11 37  1  0  0  0  0
 12 13  1  0  0  0  0
 12 14  1  0  0  0  0
 14 15  2  0  0  0  0
 14 16  1  0  0  0  0
 16 27  1  0  0  0  0
 16 17  1  0  0  0  0
 17 18  2  0  0  0  0
 19 20  1  0  0  0  0
 19 21  1  0  0  0  0
 19 38  1  0  0  0  0
 21 22  1  0  0  0  0
 21 39  1  0  0  0  0
 22 23  1  0  0  0  0
 23 24  2  0  0  0  0
 23 25  1  0  0  0  0
 25 26  1  0  0  0  0
 25 40  1  0  0  0  0
 25 41  1  0  0  0  0
 26 42  1  0  0  0  0
 26 43  1  0  0  0  0
 26 44  1  0  0  0  0
M  END
> <s_m_source_file>
AV-unprocessed.smi

> <i_m_source_file_index>
37

> <i_lp_mmshare_version>
43012

> <i_f3d_flags>
0

> <s_epik_input>
W0NIM11bQ0gyXUMoPU8pT1tDSDJdW0NAQEhdMU9bQ0BASF0objJbY0hdYyhGKWMoPU8pW25IXWMyPU8pW0NAQEhdKEJyKVtDQEhdMU9DKD1PKVtDSDJdW0NIM10=

> <s_epik_cmdline>
J2VwaWtfcHl0aG9uJywgJy1waCcsICc3LjAnLCAnLXRuJywgJzgnLCAnLW1hJywgJzIwMCcsICctbWV0YWxfYmluZGluZycsICctaW1hZScsICc8aW5maWxlLm1hZT4nLCAnLW9tYWUnLCAnPG91dGZpbGUubWFlPic=

> <r_lp_tautomer_probability>
0.999537

> <r_epik_Ionization_Penalty>
0.104106

> <r_epik_Ionization_Penalty_Charging>
0.104106

> <r_epik_Ionization_Penalty_Neutral>
3.94675e-16

> <r_epik_State_Penalty>
0.0940182

> <r_epik_Charging_Adjusted_Penalty>
0.198124

> <i_epik_Tot_Q>
0

> <i_epik_Tot_abs_Q>
0

> <r_epik_Metal_State_Penalty>
3.05314

> <b_epik_Metal_Only>
0

> <s_epik_Chemistry_Notes>
This compound has an ester and may undergo hydrolysis at high or low pH. This compound contains an acetal/aminal-like group ( X-CH(R)-Y where X, Y are N, S, or O) that may be acid/base labile, releasing an aldehyde.

> <s_lp_Force_Field>
OPLS_2005

> <r_lp_Energy>
26.2696

> <b_lp_Chiralities_Consistent>
1

> <s_lp_Variant>
AV-unprocessed.smi:37-6

> <Gold.Version>
5.8.1

> <Gold.Id.Protein>
6NUR|6NUR_protein|mol2

> <Gold.PLP.Fitness>
39.4674

> <Gold.PLP.PLP>
-33.4880

> <Gold.PLP.part.hbond>
-4.4469

> <Gold.PLP.part.metal>
0.0000

> <Gold.PLP.part.buried>
-3.6139

> <Gold.PLP.part.nonpolar>
-25.1378

> <Gold.PLP.part.repulsive>
0.4460

> <Gold.PLP.ligand.clash>
0.0000

> <Gold.PLP.ligand.torsion>
1.0955

> <Gold.PLP.Chemscore.Hbond>
2.5893

> <Gold.PLP.Chemscore.CHOScore>
0.0000

> <Gold.PLP.Chemscore.Metal>
0.0000

> <Gold.Chemscore.Hbonds>
donor molecule, donor type, donor heavy atom, donor atom, acceptor molecule, acceptor atom, score
      L1  H    16    27       P1 10175  0.67
      P1  H  7989  7998       L1     8  0.83
      P1  H 10752 10763       L1     4  1.00

> <Gold.PLP.Chemscore.Internal.Correction>
0.4026

> <Gold.Rescore>
     Score         DG    S(hbond)    S(metal)    S(lipo)     H(rot)  DE(clash)    DE(int)     intcor
      5.04     -10.33       1.93        0.00      59.20       3.33       1.26       4.02       ----

> <Gold.Chemscore.Fitness>
5.0422

> <Gold.Chemscore.DG>
-10.3306

> <Gold.Chemscore.ZeroCoef>
-5.4800

> <Gold.Chemscore.Hbond>
1.9310

> <Gold.Chemscore.Metal>
0.0000

> <Gold.Chemscore.Lipo>
59.2019

> <Gold.Chemscore.Internal_Hbond>
0.0000

> <Gold.Chemscore.DEClash>
1.2642

> <Gold.Chemscore.DEInternal>
4.0242

> <Gold.Chemscore.Rot>
3.3303

> <Gold.Chemscore.Internal.Correction>
   9.000000E+99

> <Gold.Chemscore.Hbonds>
donor molecule, donor type, donor heavy atom, donor atom, acceptor molecule, acceptor atom, score
      L1  H    16    27       P1 10175  0.66
      P1  H  7989  7998       L1     8  0.10
      P1  H 10752 10763       L1     4  0.60

> <Gold.Chemscore.Hbond.Weighted>
-6.4496

> <Gold.Chemscore.Metal.Weighted>
-0.0000

> <Gold.Chemscore.Lipo.Weighted>
-6.9266

> <Gold.Chemscore.Internal_Hbond.Weighted>
0.0000

> <Gold.Chemscore.DEClash.Weighted>
1.2642

> <Gold.Chemscore.DEInternal.Weighted>
4.0242

> <Gold.Chemscore.Rot.Weighted>
8.5256

> <Gold.Chemscore.Internal.Correction.Weighted>
   9.000000E+99

> <Gold.Protein.RotatedTorsions>
[ 6907 6896 6895 6894 ] final  -14.59 input  -60.11 | X-H torsion
[ 7974 7965 7964 7962 ] final  145.53 input  175.53 | X-H torsion
[ 8008 7997 7996 7995 ] final  -16.65 input   59.86 | X-H torsion
[ 10167 10162 10161 10158 ] final  175.99 input  -65.29 | X-H torsion
[ 10718 10713 10712 10709 ] final -171.07 input   66.30 | X-H torsion
[ 10763 10752 10751 10750 ] final  125.32 input  -60.55 | X-H torsion
[ 11005 11000 10999 10996 ] final -144.78 input  -57.11 | X-H torsion

> <Gold.Protein.ActiveResidues>
 VAL166  LYS551  ARG553  GLY616  TRP617  ASP618  TYR619  PRO620  LYS621  CYS622 
 ASP623  PHE694  ASN695  SER759  ASP760  ASP761  ALA762  ILE779  LEU786  VAL792 
 PHE793  MET794  SER795  GLU796  ALA797  LYS798  CYS799  TRP800  GLU811  SER814 

> <Gold.Protein.RotatedAtoms>
  151.3371  135.0855  159.9357 H   0  0  0  0  0  0  0  0  0  0  0  0  # atno 6907 bound_to 6896
  152.5220  133.9485  159.7671 H   0  0  0  0  0  0  0  0  0  0  0  0  # atno 6908 bound_to 6896
  150.9834  133.6169  159.2749 H   0  0  0  0  0  0  0  0  0  0  0  0  # atno 6909 bound_to 6896
  144.8745  139.5795  143.5871 H   0  0  0  0  0  0  0  0  0  0  0  0  # atno 7974 bound_to 7965
  154.5037  140.2164  155.9294 H   0  0  0  0  0  0  0  0  0  0  0  0  # atno 8008 bound_to 7997
  156.1466  140.3169  155.8548 H   0  0  0  0  0  0  0  0  0  0  0  0  # atno 8009 bound_to 7997
  155.4018  140.0485  157.3027 H   0  0  0  0  0  0  0  0  0  0  0  0  # atno 8010 bound_to 7997
  139.5198  144.2967  152.0415 H   0  0  0  0  0  0  0  0  0  0  0  0  # atno 10167 bound_to 10162
  156.7355  130.9322  151.3107 H   0  0  0  0  0  0  0  0  0  0  0  0  # atno 10718 bound_to 10713
  153.6754  135.3323  155.3164 H   0  0  0  0  0  0  0  0  0  0  0  0  # atno 10763 bound_to 10752
  154.8480  135.4396  154.1661 H   0  0  0  0  0  0  0  0  0  0  0  0  # atno 10764 bound_to 10752
  153.2663  135.6996  153.7602 H   0  0  0  0  0  0  0  0  0  0  0  0  # atno 10765 bound_to 10752
  140.7990  134.2879  157.4986 H   0  0  0  0  0  0  0  0  0  0  0  0  # atno 11005 bound_to 11000
  146.2953  139.7259  142.9131 LP  0  0  0  0  0  0  0  0  0  0  0  0  # atno 17320 bound_to 7965
  145.4069  141.0392  143.3039 LP  0  0  0  0  0  0  0  0  0  0  0  0  # atno 17321 bound_to 7965
  140.2416  144.4263  150.6258 LP  0  0  0  0  0  0  0  0  0  0  0  0  # atno 17342 bound_to 10162
  140.6287  143.2184  151.6542 LP  0  0  0  0  0  0  0  0  0  0  0  0  # atno 17343 bound_to 10162
  157.6841  130.9168  150.0341 LP  0  0  0  0  0  0  0  0  0  0  0  0  # atno 17370 bound_to 10713
  156.1500  130.3642  149.9452 LP  0  0  0  0  0  0  0  0  0  0  0  0  # atno 17371 bound_to 10713
  139.8723  134.9418  156.3808 LP  0  0  0  0  0  0  0  0  0  0  0  0  # atno 17394 bound_to 11000
  140.9314  133.7577  156.0029 LP  0  0  0  0  0  0  0  0  0  0  0  0  # atno 17395 bound_to 11000

$$$$
