AV-unprocessed.smi:1504|AV-procd|sdf|6072|dock1
  -GOLD-   22720 6193D 1   1.00000     0.00000
 Structure written by MMmdl.
 39 40  0  0  0  0  0  0  0  0  1 V2000
  150.1153  141.7352  158.7100 O   0  0  0  0  0  0  0  0  0  0  0  0
  149.9732  142.4815  157.7413 C   0  0  0  0  0  0  0  0  0  0  0  0
  150.2154  143.7993  157.7659 N   0  0  0  0  0  0  0  0  0  0  0  0
  150.6784  144.5408  158.9352 C   0  0  0  0  0  0  0  0  0  0  0  0
  152.2111  144.5097  159.0955 C   0  0  0  0  0  0  0  0  0  0  0  0
  152.6846  143.6121  160.2261 C   0  0  0  0  0  0  0  0  0  0  0  0
  153.5353  142.5152  159.9700 C   0  0  0  0  0  0  0  0  0  0  0  0
  153.9452  141.7160  161.0547 C   0  0  0  0  0  0  0  0  0  0  0  0
  153.4912  142.0424  162.3473 C   0  0  0  0  0  0  0  0  0  0  0  0
  152.6453  143.1595  162.4978 C   0  0  0  0  0  0  0  0  0  0  0  0
  152.2478  143.9332  161.4648 N   0  0  0  0  0  0  0  0  0  0  0  0
  149.5604  142.0729  156.5351 N   0  0  0  0  0  0  0  0  0  0  0  0
  149.2159  140.6957  156.2059 C   0  0  0  0  0  0  0  0  0  0  0  0
  150.4532  139.9144  155.7330 C   0  0  1  0  0  0  0  0  0  0  0  0
  151.6841  140.1652  156.6258 C   0  0  0  0  0  0  0  0  0  0  0  0
  152.7703  139.1505  156.2561 C   0  0  0  0  0  0  0  0  0  0  0  0
  151.8768  137.6155  155.8110 S   0  0  0  0  0  0  0  0  0  0  0  0
  152.3296  137.1636  154.4866 O   0  0  0  0  0  0  0  0  0  0  0  0
  151.8709  136.7006  156.9624 O   0  0  0  0  0  0  0  0  0  0  0  0
  150.2234  138.3939  155.6626 C   0  0  0  0  0  0  0  0  0  0  0  0
  150.0735  144.3279  156.9177 H   0  0  0  0  0  0  0  0  0  0  0  0
  150.3438  145.5726  158.8257 H   0  0  0  0  0  0  0  0  0  0  0  0
  150.1973  144.1559  159.8355 H   0  0  0  0  0  0  0  0  0  0  0  0
  152.6674  144.1732  158.1637 H   0  0  0  0  0  0  0  0  0  0  0  0
  152.5874  145.5198  159.2620 H   0  0  0  0  0  0  0  0  0  0  0  0
  153.8676  142.2917  158.9667 H   0  0  0  0  0  0  0  0  0  0  0  0
  154.5955  140.8684  160.8979 H   0  0  0  0  0  0  0  0  0  0  0  0
  153.7834  141.4515  163.2026 H   0  0  0  0  0  0  0  0  0  0  0  0
  152.2779  143.4390  163.4741 H   0  0  0  0  0  0  0  0  0  0  0  0
  149.4756  142.7570  155.7976 H   0  0  0  0  0  0  0  0  0  0  0  0
  148.7865  140.2203  157.0887 H   0  0  0  0  0  0  0  0  0  0  0  0
  148.4477  140.6815  155.4305 H   0  0  0  0  0  0  0  0  0  0  0  0
  150.7129  140.2534  154.7289 H   0  0  0  0  0  0  0  0  0  0  0  0
  152.0485  141.1886  156.5337 H   0  0  0  0  0  0  0  0  0  0  0  0
  151.4067  140.0189  157.6708 H   0  0  0  0  0  0  0  0  0  0  0  0
  153.3272  139.4831  155.3798 H   0  0  0  0  0  0  0  0  0  0  0  0
  153.4734  138.9589  157.0668 H   0  0  0  0  0  0  0  0  0  0  0  0
  149.6177  138.0483  156.5008 H   0  0  0  0  0  0  0  0  0  0  0  0
  149.7434  138.0779  154.7363 H   0  0  0  0  0  0  0  0  0  0  0  0
  1  2  2  0  0  0  0
  2  3  1  0  0  0  0
  2 12  1  0  0  0  0
  3  4  1  0  0  0  0
  3 21  1  0  0  0  0
  4  5  1  0  0  0  0
  4 22  1  0  0  0  0
  4 23  1  0  0  0  0
  5  6  1  0  0  0  0
  5 24  1  0  0  0  0
  5 25  1  0  0  0  0
  6 11  1  0  0  0  0
  6  7  2  0  0  0  0
  7  8  1  0  0  0  0
  7 26  1  0  0  0  0
  8  9  2  0  0  0  0
  8 27  1  0  0  0  0
  9 10  1  0  0  0  0
  9 28  1  0  0  0  0
 10 11  2  0  0  0  0
 10 29  1  0  0  0  0
 12 13  1  0  0  0  0
 12 30  1  0  0  0  0
 13 14  1  0  0  0  0
 13 31  1  0  0  0  0
 13 32  1  0  0  0  0
 14 20  1  0  0  0  0
 14 15  1  0  0  0  0
 14 33  1  0  0  0  0
 15 16  1  0  0  0  0
 15 34  1  0  0  0  0
 15 35  1  0  0  0  0
 16 17  1  0  0  0  0
 16 36  1  0  0  0  0
 16 37  1  0  0  0  0
 17 18  2  0  0  0  0
 17 19  2  0  0  0  0
 17 20  1  0  0  0  0
 20 38  1  0  0  0  0
 20 39  1  0  0  0  0
M  END
> <s_m_source_file>
AV-unprocessed.smi

> <i_m_source_file_index>
1504

> <i_lp_mmshare_version>
43012

> <i_f3d_flags>
0

> <s_epik_input>
Tz1TMSg9TylbQ0gyXVtDSDJdW0NASF0oW0NIMl0xKVtDSDJdW05IXUMoPU8pW05IXVtDSDJdW0NIMl1jMltjSF1bY0hdW2NIXVtjSF1uMg==

> <s_epik_cmdline>
J2VwaWtfcHl0aG9uJywgJy1waCcsICc3LjAnLCAnLXRuJywgJzgnLCAnLW1hJywgJzIwMCcsICctbWV0YWxfYmluZGluZycsICctaW1hZScsICc8aW5maWxlLm1hZT4nLCAnLW9tYWUnLCAnPG91dGZpbGUubWFlPic=

> <r_epik_Ionization_Penalty>
0.0431785

> <r_epik_Ionization_Penalty_Charging>
0

> <r_epik_Ionization_Penalty_Neutral>
0.0431785

> <r_epik_State_Penalty>
0.0364691

> <r_epik_Charging_Adjusted_Penalty>
0.0364691

> <i_epik_Tot_Q>
0

> <i_epik_Tot_abs_Q>
0

> <r_epik_Metal_State_Penalty>
0.0339827

> <b_epik_Metal_Only>
0

> <s_lp_Force_Field>
OPLS_2005

> <r_lp_Energy>
0.935995

> <b_lp_Chiralities_Consistent>
1

> <s_lp_Variant>
AV-unprocessed.smi:1504-2

> <Gold.Version>
5.8.1

> <Gold.Id.Protein>
6NUR|6NUR_protein|mol2

> <Gold.PLP.Fitness>
49.3395

> <Gold.PLP.PLP>
-42.5923

> <Gold.PLP.part.hbond>
-4.1190

> <Gold.PLP.part.metal>
0.0000

> <Gold.PLP.part.buried>
-2.9094

> <Gold.PLP.part.nonpolar>
-37.1747

> <Gold.PLP.part.repulsive>
1.9693

> <Gold.PLP.ligand.clash>
0.0000

> <Gold.PLP.ligand.torsion>
0.7879

> <Gold.PLP.Chemscore.Hbond>
2.7520

> <Gold.PLP.Chemscore.CHOScore>
0.0000

> <Gold.PLP.Chemscore.Metal>
0.0000

> <Gold.Chemscore.Hbonds>
donor molecule, donor type, donor heavy atom, donor atom, acceptor molecule, acceptor atom, score
      L1  H     3    21       P1  8028  0.90
      L1  H    12    30       P1  8028  0.69
      P1  H 10752 10763       L1    18  0.54

> <Gold.PLP.Chemscore.Internal.Correction>
0.0670

> <Gold.Rescore>
     Score         DG    S(hbond)    S(metal)    S(lipo)     H(rot)  DE(clash)    DE(int)     intcor
     17.72     -21.17       2.36        0.00     108.46       1.91       0.27       3.18       ----

> <Gold.Chemscore.Fitness>
17.7243

> <Gold.Chemscore.DG>
-21.1745

> <Gold.Chemscore.ZeroCoef>
-5.4800

> <Gold.Chemscore.Hbond>
2.3639

> <Gold.Chemscore.Metal>
0.0000

> <Gold.Chemscore.Lipo>
108.4612

> <Gold.Chemscore.Internal_Hbond>
0.0000

> <Gold.Chemscore.DEClash>
0.2698

> <Gold.Chemscore.DEInternal>
3.1804

> <Gold.Chemscore.Rot>
1.9105

> <Gold.Chemscore.Internal.Correction>
   9.000000E+99

> <Gold.Chemscore.Hbonds>
donor molecule, donor type, donor heavy atom, donor atom, acceptor molecule, acceptor atom, score
      L1  H     3    21       P1  8028  0.75
      L1  H    12    30       P1  8028  0.65
      P1  H 10752 10763       L1    18  0.54

> <Gold.Chemscore.Hbond.Weighted>
-7.8954

> <Gold.Chemscore.Metal.Weighted>
-0.0000

> <Gold.Chemscore.Lipo.Weighted>
-12.6900

> <Gold.Chemscore.Internal_Hbond.Weighted>
0.0000

> <Gold.Chemscore.DEClash.Weighted>
0.2698

> <Gold.Chemscore.DEInternal.Weighted>
3.1804

> <Gold.Chemscore.Rot.Weighted>
4.8908

> <Gold.Chemscore.Internal.Correction.Weighted>
   9.000000E+99

> <Gold.Protein.RotatedTorsions>
[ 6907 6896 6895 6894 ] final   38.91 input  -60.11 | X-H torsion
[ 7974 7965 7964 7962 ] final  162.61 input  175.53 | X-H torsion
[ 8008 7997 7996 7995 ] final -177.19 input   59.86 | X-H torsion
[ 10167 10162 10161 10158 ] final  126.19 input  -65.29 | X-H torsion
[ 10718 10713 10712 10709 ] final  110.73 input   66.30 | X-H torsion
[ 10763 10752 10751 10750 ] final   15.22 input  -60.55 | X-H torsion
[ 11005 11000 10999 10996 ] final  -79.71 input  -57.11 | X-H torsion

> <Gold.Protein.ActiveResidues>
 VAL166  LYS551  ARG553  GLY616  TRP617  ASP618  TYR619  PRO620  LYS621  CYS622 
 ASP623  PHE694  ASN695  SER759  ASP760  ASP761  ALA762  ILE779  LEU786  VAL792 
 PHE793  MET794  SER795  GLU796  ALA797  LYS798  CYS799  TRP800  GLU811  SER814 

> <Gold.Protein.RotatedAtoms>
  152.1627  134.8899  160.0540 H   0  0  0  0  0  0  0  0  0  0  0  0  # atno 6907 bound_to 6896
  151.9889  133.3779  159.4144 H   0  0  0  0  0  0  0  0  0  0  0  0  # atno 6908 bound_to 6896
  150.6890  134.3881  159.5108 H   0  0  0  0  0  0  0  0  0  0  0  0  # atno 6909 bound_to 6896
  144.7628  139.8064  143.6326 H   0  0  0  0  0  0  0  0  0  0  0  0  # atno 7974 bound_to 7965
  156.0040  140.1226  157.0520 H   0  0  0  0  0  0  0  0  0  0  0  0  # atno 8008 bound_to 7997
  154.4252  140.1101  156.5805 H   0  0  0  0  0  0  0  0  0  0  0  0  # atno 8009 bound_to 7997
  155.6173  140.3472  155.4643 H   0  0  0  0  0  0  0  0  0  0  0  0  # atno 8010 bound_to 7997
  139.5644  144.6902  151.3951 H   0  0  0  0  0  0  0  0  0  0  0  0  # atno 10167 bound_to 10162
  157.6480  131.0938  150.6644 H   0  0  0  0  0  0  0  0  0  0  0  0  # atno 10718 bound_to 10713
  153.1546  135.6785  153.8831 H   0  0  0  0  0  0  0  0  0  0  0  0  # atno 10763 bound_to 10752
  153.8247  135.3125  155.3414 H   0  0  0  0  0  0  0  0  0  0  0  0  # atno 10764 bound_to 10752
  154.7888  135.4847  154.0092 H   0  0  0  0  0  0  0  0  0  0  0  0  # atno 10765 bound_to 10752
  141.1667  133.7117  156.8163 H   0  0  0  0  0  0  0  0  0  0  0  0  # atno 11005 bound_to 11000
  146.1708  139.4858  142.9929 LP  0  0  0  0  0  0  0  0  0  0  0  0  # atno 17320 bound_to 7965
  145.6564  141.0251  143.1733 LP  0  0  0  0  0  0  0  0  0  0  0  0  # atno 17321 bound_to 7965
  140.6927  143.7823  150.7279 LP  0  0  0  0  0  0  0  0  0  0  0  0  # atno 17342 bound_to 10162
  140.1310  143.4526  152.2254 LP  0  0  0  0  0  0  0  0  0  0  0  0  # atno 17343 bound_to 10162
  156.6959  130.4609  149.5586 LP  0  0  0  0  0  0  0  0  0  0  0  0  # atno 17370 bound_to 10713
  156.1829  130.6510  151.0972 LP  0  0  0  0  0  0  0  0  0  0  0  0  # atno 17371 bound_to 10713
  140.2151  134.8798  157.3317 LP  0  0  0  0  0  0  0  0  0  0  0  0  # atno 17394 bound_to 11000
  140.2046  134.4213  155.7644 LP  0  0  0  0  0  0  0  0  0  0  0  0  # atno 17395 bound_to 11000

$$$$
