AV-unprocessed.smi:3335|AV-procd|sdf|12841|dock4
  -GOLD-   2272019223D 1   1.00000     0.00000
 Structure written by MMmdl.
 47 48  0  0  0  0  0  0  0  0  2 V2000
  151.1599  143.1577  157.2782 C   0  0  0  0  0  0  0  0  0  0  0  0
  150.8572  142.0064  156.3628 C   0  0  0  0  0  0  0  0  0  0  0  0
  151.7242  140.9482  155.9709 C   0  0  0  0  0  0  0  0  0  0  0  0
  151.1466  140.0918  155.1450 N   0  0  0  0  0  0  0  0  0  0  0  0
  149.8881  140.5604  154.9866 N   0  0  0  0  0  0  0  0  0  0  0  0
  148.9399  139.8877  154.1003 C   0  0  2  0  0  0  0  0  0  0  0  0
  147.7088  140.7658  153.8003 C   0  0  0  0  0  0  0  0  0  0  0  0
  148.5620  138.4643  154.5930 C   0  0  2  0  0  0  0  0  0  0  0  0
  149.7765  137.5375  154.8164 C   0  0  0  0  0  0  0  0  0  0  0  0
  147.6013  137.8605  153.6367 N   0  3  0  0  0  0  0  0  0  0  0  0
  146.8053  136.7004  154.1004 C   0  0  1  0  0  0  0  0  0  0  0  0
  145.9262  137.0754  155.3115 C   0  0  0  0  0  0  0  0  0  0  0  0
  145.9524  136.1890  152.9245 C   0  0  0  0  0  0  0  0  0  0  0  0
  145.1568  136.9564  152.3813 O   0  0  0  0  0  0  0  0  0  0  0  0
  146.1169  134.9177  152.4982 N   0  0  0  0  0  0  0  0  0  0  0  0
  147.0689  133.9877  153.1038 C   0  0  0  0  0  0  0  0  0  0  0  0
  147.0985  132.7660  152.1859 C   0  0  0  0  0  0  0  0  0  0  0  0
  145.7368  132.7801  151.5069 C   0  0  0  0  0  0  0  0  0  0  0  0
  145.3815  134.2641  151.4149 C   0  0  0  0  0  0  0  0  0  0  0  0
  149.6930  141.7207  155.7082 C   0  0  0  0  0  0  0  0  0  0  0  0
  152.1928  143.1390  157.6268 H   0  0  0  0  0  0  0  0  0  0  0  0
  150.5231  143.1455  158.1628 H   0  0  0  0  0  0  0  0  0  0  0  0
  151.0056  144.1170  156.7838 H   0  0  0  0  0  0  0  0  0  0  0  0
  152.7523  140.7809  156.2570 H   0  0  0  0  0  0  0  0  0  0  0  0
  149.4508  139.7687  153.1433 H   0  0  0  0  0  0  0  0  0  0  0  0
  147.0543  140.2847  153.0728 H   0  0  0  0  0  0  0  0  0  0  0  0
  148.0096  141.7268  153.3818 H   0  0  0  0  0  0  0  0  0  0  0  0
  147.1154  140.9692  154.6915 H   0  0  0  0  0  0  0  0  0  0  0  0
  148.0511  138.5874  155.5473 H   0  0  0  0  0  0  0  0  0  0  0  0
  150.5291  138.0111  155.4458 H   0  0  0  0  0  0  0  0  0  0  0  0
  150.2563  137.2646  153.8766 H   0  0  0  0  0  0  0  0  0  0  0  0
  149.4942  136.6135  155.3190 H   0  0  0  0  0  0  0  0  0  0  0  0
  146.9486  138.5752  153.3479 H   0  0  0  0  0  0  0  0  0  0  0  0
  147.4643  135.8951  154.4188 H   0  0  0  0  0  0  0  0  0  0  0  0
  145.2619  136.2543  155.5846 H   0  0  0  0  0  0  0  0  0  0  0  0
  145.3061  137.9493  155.1067 H   0  0  0  0  0  0  0  0  0  0  0  0
  146.5278  137.2974  156.1924 H   0  0  0  0  0  0  0  0  0  0  0  0
  148.0621  134.4270  153.2118 H   0  0  0  0  0  0  0  0  0  0  0  0
  146.7115  133.7108  154.0970 H   0  0  0  0  0  0  0  0  0  0  0  0
  147.8806  132.8911  151.4359 H   0  0  0  0  0  0  0  0  0  0  0  0
  147.2956  131.8374  152.7224 H   0  0  0  0  0  0  0  0  0  0  0  0
  145.7430  132.2857  150.5351 H   0  0  0  0  0  0  0  0  0  0  0  0
  145.0099  132.2673  152.1384 H   0  0  0  0  0  0  0  0  0  0  0  0
  144.3041  134.4097  151.4961 H   0  0  0  0  0  0  0  0  0  0  0  0
  145.7131  134.6738  150.4595 H   0  0  0  0  0  0  0  0  0  0  0  0
  148.7491  142.2457  155.6960 H   0  0  0  0  0  0  0  0  0  0  0  0
  148.1282  137.5722  152.8245 H   0  0  0  0  0  0  0  0  0  0  0  0
  1  2  1  0  0  0  0
  1 21  1  0  0  0  0
  1 22  1  0  0  0  0
  1 23  1  0  0  0  0
  2 20  2  0  0  0  0
  2  3  1  0  0  0  0
  3  4  2  0  0  0  0
  3 24  1  0  0  0  0
  4  5  1  0  0  0  0
  5  6  1  0  0  0  0
  5 20  1  0  0  0  0
  6  7  1  0  0  0  0
  6  8  1  0  0  0  0
  6 25  1  0  0  0  0
  7 26  1  0  0  0  0
  7 27  1  0  0  0  0
  7 28  1  0  0  0  0
  8  9  1  0  0  0  0
  8 10  1  0  0  0  0
  8 29  1  0  0  0  0
  9 30  1  0  0  0  0
  9 31  1  0  0  0  0
  9 32  1  0  0  0  0
 10 11  1  0  0  0  0
 10 33  1  0  0  0  0
 10 47  1  0  0  0  0
 11 12  1  0  0  0  0
 11 13  1  0  0  0  0
 11 34  1  0  0  0  0
 12 35  1  0  0  0  0
 12 36  1  0  0  0  0
 12 37  1  0  0  0  0
 13 14  2  0  0  0  0
 13 15  1  0  0  0  0
 15 19  1  0  0  0  0
 15 16  1  0  0  0  0
 16 17  1  0  0  0  0
 16 38  1  0  0  0  0
 16 39  1  0  0  0  0
 17 18  1  0  0  0  0
 17 40  1  0  0  0  0
 17 41  1  0  0  0  0
 18 19  1  0  0  0  0
 18 42  1  0  0  0  0
 18 43  1  0  0  0  0
 19 44  1  0  0  0  0
 19 45  1  0  0  0  0
 20 46  1  0  0  0  0
M  CHG  1  10   1
M  END
> <s_m_source_file>
AV-unprocessed.smi

> <i_m_source_file_index>
3335

> <i_lp_mmshare_version>
43012

> <i_f3d_flags>
0

> <s_epik_input>
W0NIM11jMVtjSF1ubihbY0hdMSlbQ0BIXShbQ0gzXSlbQ0BIXShbQ0gzXSlbTkhdW0NASF0oW0NIM10pQyg9TylOMltDSDJdW0NIMl1bQ0gyXVtDSDJdMg==

> <s_epik_cmdline>
J2VwaWtfcHl0aG9uJywgJy1waCcsICc3LjAnLCAnLXRuJywgJzgnLCAnLW1hJywgJzIwMCcsICctbWV0YWxfYmluZGluZycsICctaW1hZScsICc8aW5maWxlLm1hZT4nLCAnLW9tYWUnLCAnPG91dGZpbGUubWFlPic=

> <r_lp_tautomer_probability>
1

> <r_epik_Ionization_Penalty>
0.14175

> <r_epik_Ionization_Penalty_Charging>
0.141731

> <r_epik_Ionization_Penalty_Neutral>
1.91261e-05

> <r_epik_State_Penalty>
0.131043

> <r_epik_Charging_Adjusted_Penalty>
0.272773

> <i_epik_Tot_Q>
1

> <i_epik_Tot_abs_Q>
1

> <r_epik_Metal_State_Penalty>
0.131408

> <b_epik_Metal_Only>
0

> <s_lp_Force_Field>
OPLS_2005

> <r_lp_Energy>
38.6819

> <b_lp_Chiralities_Consistent>
1

> <s_lp_Variant>
AV-unprocessed.smi:3335-5

> <Gold.Version>
5.8.1

> <Gold.Id.Protein>
6NUR|6NUR_protein|mol2

> <Gold.PLP.Fitness>
38.8907

> <Gold.PLP.PLP>
-29.8050

> <Gold.PLP.part.hbond>
-2.0000

> <Gold.PLP.part.metal>
0.0000

> <Gold.PLP.part.buried>
-1.1458

> <Gold.PLP.part.nonpolar>
-26.5775

> <Gold.PLP.part.repulsive>
0.5128

> <Gold.PLP.ligand.clash>
0.0000

> <Gold.PLP.ligand.torsion>
0.3214

> <Gold.PLP.Chemscore.Hbond>
2.3640

> <Gold.PLP.Chemscore.CHOScore>
0.8111

> <Gold.PLP.Chemscore.Metal>
0.0000

> <Gold.Chemscore.Hbonds>
donor molecule, donor type, donor heavy atom, donor atom, acceptor molecule, acceptor atom, score
      L1  H    10    47       P1  7948  2.00
      P1  H  7989  7998       L1     4  0.48
      L1  C    20    46       P1  8028  0.73

> <Gold.PLP.Chemscore.Internal.Correction>
0.2031

> <Gold.Rescore>
     Score         DG    S(hbond)    S(metal)    S(lipo)     H(rot)  DE(clash)    DE(int)     intcor
     11.56     -13.19       0.98        0.00      74.71       1.68       0.05       1.58       ----

> <Gold.Chemscore.Fitness>
11.5587

> <Gold.Chemscore.DG>
-13.1851

> <Gold.Chemscore.ZeroCoef>
-5.4800

> <Gold.Chemscore.Hbond>
0.9758

> <Gold.Chemscore.Metal>
0.0000

> <Gold.Chemscore.Lipo>
74.7097

> <Gold.Chemscore.Internal_Hbond>
0.0000

> <Gold.Chemscore.DEClash>
0.0462

> <Gold.Chemscore.DEInternal>
1.5803

> <Gold.Chemscore.Rot>
1.6778

> <Gold.Chemscore.Internal.Correction>
   9.000000E+99

> <Gold.Chemscore.Hbonds>
donor molecule, donor type, donor heavy atom, donor atom, acceptor molecule, acceptor atom, score
      L1  H    10    47       P1  7948  0.94

> <Gold.Chemscore.Hbond.Weighted>
-3.2593

> <Gold.Chemscore.Metal.Weighted>
-0.0000

> <Gold.Chemscore.Lipo.Weighted>
-8.7410

> <Gold.Chemscore.Internal_Hbond.Weighted>
0.0000

> <Gold.Chemscore.DEClash.Weighted>
0.0462

> <Gold.Chemscore.DEInternal.Weighted>
1.5803

> <Gold.Chemscore.Rot.Weighted>
4.2952

> <Gold.Chemscore.Internal.Correction.Weighted>
   9.000000E+99

> <Gold.Protein.RotatedTorsions>
[ 6907 6896 6895 6894 ] final   40.11 input  -60.11 | X-H torsion
[ 7974 7965 7964 7962 ] final  178.67 input  175.53 | X-H torsion
[ 8008 7997 7996 7995 ] final   25.61 input   59.86 | X-H torsion
[ 10167 10162 10161 10158 ] final   67.69 input  -65.29 | X-H torsion
[ 10718 10713 10712 10709 ] final -129.31 input   66.30 | X-H torsion
[ 10763 10752 10751 10750 ] final  137.55 input  -60.55 | X-H torsion
[ 11005 11000 10999 10996 ] final -176.84 input  -57.11 | X-H torsion

> <Gold.Protein.ActiveResidues>
 VAL166  LYS551  ARG553  GLY616  TRP617  ASP618  TYR619  PRO620  LYS621  CYS622 
 ASP623  PHE694  ASN695  SER759  ASP760  ASP761  ALA762  ILE779  LEU786  VAL792 
 PHE793  MET794  SER795  GLU796  ALA797  LYS798  CYS799  TRP800  GLU811  SER814 

> <Gold.Protein.RotatedAtoms>
  152.1782  134.8776  160.0528 H   0  0  0  0  0  0  0  0  0  0  0  0  # atno 6907 bound_to 6896
  151.9710  133.3721  159.4079 H   0  0  0  0  0  0  0  0  0  0  0  0  # atno 6908 bound_to 6896
  150.6913  134.4063  159.5185 H   0  0  0  0  0  0  0  0  0  0  0  0  # atno 6909 bound_to 6896
  144.7153  140.0433  143.6437 H   0  0  0  0  0  0  0  0  0  0  0  0  # atno 7974 bound_to 7965
  155.0144  140.3140  155.4817 H   0  0  0  0  0  0  0  0  0  0  0  0  # atno 8008 bound_to 7997
  156.2903  140.2209  156.5201 H   0  0  0  0  0  0  0  0  0  0  0  0  # atno 8009 bound_to 7997
  154.7506  140.0466  157.0878 H   0  0  0  0  0  0  0  0  0  0  0  0  # atno 8010 bound_to 7997
  140.0867  144.5023  150.7125 H   0  0  0  0  0  0  0  0  0  0  0  0  # atno 10167 bound_to 10162
  156.2035  130.6872  151.0567 H   0  0  0  0  0  0  0  0  0  0  0  0  # atno 10718 bound_to 10713
  153.8749  135.3051  155.3443 H   0  0  0  0  0  0  0  0  0  0  0  0  # atno 10763 bound_to 10752
  154.7788  135.4846  153.9804 H   0  0  0  0  0  0  0  0  0  0  0  0  # atno 10764 bound_to 10752
  153.1384  135.6819  153.9162 H   0  0  0  0  0  0  0  0  0  0  0  0  # atno 10765 bound_to 10752
  140.4476  134.6373  157.4786 H   0  0  0  0  0  0  0  0  0  0  0  0  # atno 11005 bound_to 11000
  146.0006  139.3088  143.0930 LP  0  0  0  0  0  0  0  0  0  0  0  0  # atno 17320 bound_to 7965
  145.8798  140.9369  143.0607 LP  0  0  0  0  0  0  0  0  0  0  0  0  # atno 17321 bound_to 7965
  140.7050  143.2461  151.4754 LP  0  0  0  0  0  0  0  0  0  0  0  0  # atno 17342 bound_to 10162
  139.5748  144.1845  152.1887 LP  0  0  0  0  0  0  0  0  0  0  0  0  # atno 17343 bound_to 10162
  157.6999  131.0780  150.6853 LP  0  0  0  0  0  0  0  0  0  0  0  0  # atno 17370 bound_to 10713
  156.6911  130.4595  149.5599 LP  0  0  0  0  0  0  0  0  0  0  0  0  # atno 17371 bound_to 10713
  140.0028  134.6810  155.9503 LP  0  0  0  0  0  0  0  0  0  0  0  0  # atno 17394 bound_to 11000
  141.1678  133.6537  156.4543 LP  0  0  0  0  0  0  0  0  0  0  0  0  # atno 17395 bound_to 11000

$$$$
