AV-unprocessed.smi:189|AV-procd|sdf|1483|dock8
  -GOLD-   2262019303D 1   1.00000     0.00000
 Structure written by MMmdl.
 53 57  0  0  0  0  0  0  0  0  1 V2000
  150.2155  141.2572  156.3145 C   0  0  0  0  0  0  0  0  0  0  0  0
  150.5191  141.6686  157.7656 C   0  0  2  0  0  0  0  0  0  0  0  0
  150.6276  143.1975  157.9265 C   0  0  0  0  0  0  0  0  0  0  0  0
  152.1194  143.4428  158.1652 C   0  0  1  0  0  0  0  0  0  0  0  0
  152.4970  144.7610  158.8711 C   0  0  0  0  0  0  0  0  0  0  0  0
  152.1835  144.7519  160.3750 C   0  0  0  0  0  0  0  0  0  0  0  0
  152.7955  143.5204  161.0557 C   0  0  0  0  0  0  0  0  0  0  0  0
  152.2612  142.2323  160.4170 C   0  0  0  0  0  0  0  0  0  0  0  0
  152.5654  142.1708  158.8997 C   0  0  1  0  0  0  0  0  0  0  0  0
  151.8005  141.1242  158.2298 N   0  0  0  0  0  0  0  0  0  0  0  0
  151.9391  139.8175  158.5914 C   0  0  0  0  0  0  0  0  0  0  0  0
  150.8528  139.0008  158.5394 N   0  0  0  0  0  0  0  0  0  0  0  0
  150.9460  137.7149  158.8863 C   0  0  0  0  0  0  0  0  0  0  0  0
  152.0160  137.0427  159.3101 N   0  0  0  0  0  0  0  0  0  0  0  0
  153.1141  137.8486  159.3657 C   0  0  0  0  0  0  0  0  0  0  0  0
  153.1667  139.2318  159.0247 C   0  0  0  0  0  0  0  0  0  0  0  0
  154.4652  139.7003  159.1945 N   0  0  0  0  0  0  0  0  0  0  0  0
  155.1336  138.6636  159.6183 C   0  0  0  0  0  0  0  0  0  0  0  0
  154.3979  137.5095  159.7565 N   0  0  0  0  0  0  0  0  0  0  0  0
  154.8874  136.2120  160.1987 C   0  0  0  0  0  0  0  0  0  0  0  0
  155.4019  136.2030  161.6586 C   0  0  2  0  0  0  0  0  0  0  0  0
  156.5514  137.0262  161.7435 O   0  0  0  0  0  0  0  0  0  0  0  0
  155.7600  134.7951  162.1399 C   0  0  0  0  0  0  0  0  0  0  0  0
  154.6573  134.4661  163.1389 C   0  0  0  0  0  0  0  0  0  0  0  0
  154.3976  135.7233  163.7367 O   0  0  0  0  0  0  0  0  0  0  0  0
  154.3590  136.6816  162.6893 C   0  0  0  0  0  0  0  0  0  0  0  0
  149.2736  141.6898  155.9770 H   0  0  0  0  0  0  0  0  0  0  0  0
  150.1329  140.1760  156.2083 H   0  0  0  0  0  0  0  0  0  0  0  0
  150.9995  141.5976  155.6371 H   0  0  0  0  0  0  0  0  0  0  0  0
  149.7128  141.3142  158.4092 H   0  0  0  0  0  0  0  0  0  0  0  0
  150.2501  143.7503  157.0656 H   0  0  0  0  0  0  0  0  0  0  0  0
  150.0453  143.5114  158.7929 H   0  0  0  0  0  0  0  0  0  0  0  0
  152.5982  143.4457  157.1842 H   0  0  0  0  0  0  0  0  0  0  0  0
  153.5671  144.9289  158.7428 H   0  0  0  0  0  0  0  0  0  0  0  0
  151.9990  145.6016  158.3872 H   0  0  0  0  0  0  0  0  0  0  0  0
  152.5679  145.6615  160.8372 H   0  0  0  0  0  0  0  0  0  0  0  0
  151.1045  144.7610  160.5317 H   0  0  0  0  0  0  0  0  0  0  0  0
  153.8828  143.5512  160.9751 H   0  0  0  0  0  0  0  0  0  0  0  0
  152.5609  143.5308  162.1204 H   0  0  0  0  0  0  0  0  0  0  0  0
  152.6964  141.3692  160.9210 H   0  0  0  0  0  0  0  0  0  0  0  0
  151.1857  142.1723  160.5901 H   0  0  0  0  0  0  0  0  0  0  0  0
  153.6347  142.0424  158.7390 H   0  0  0  0  0  0  0  0  0  0  0  0
  150.0324  137.1437  158.8150 H   0  0  0  0  0  0  0  0  0  0  0  0
  156.1892  138.7124  159.8434 H   0  0  0  0  0  0  0  0  0  0  0  0
  154.0829  135.4845  160.0832 H   0  0  0  0  0  0  0  0  0  0  0  0
  155.6795  135.8983  159.5172 H   0  0  0  0  0  0  0  0  0  0  0  0
  156.4204  137.7791  161.1872 H   0  0  0  0  0  0  0  0  0  0  0  0
  155.8198  134.0616  161.3350 H   0  0  0  0  0  0  0  0  0  0  0  0
  156.7206  134.7891  162.6578 H   0  0  0  0  0  0  0  0  0  0  0  0
  153.7612  134.1065  162.6305 H   0  0  0  0  0  0  0  0  0  0  0  0
  154.9618  133.7219  163.8751 H   0  0  0  0  0  0  0  0  0  0  0  0
  154.5423  137.6895  163.0637 H   0  0  0  0  0  0  0  0  0  0  0  0
  153.3531  136.6647  162.2698 H   0  0  0  0  0  0  0  0  0  0  0  0
  1  2  1  0  0  0  0
  1 27  1  0  0  0  0
  1 28  1  0  0  0  0
  1 29  1  0  0  0  0
  2 10  1  0  0  0  0
  2  3  1  0  0  0  0
  2 30  1  0  0  0  0
  3  4  1  0  0  0  0
  3 31  1  0  0  0  0
  3 32  1  0  0  0  0
  4  9  1  0  0  0  0
  4  5  1  0  0  0  0
  4 33  1  0  0  0  0
  5  6  1  0  0  0  0
  5 34  1  0  0  0  0
  5 35  1  0  0  0  0
  6  7  1  0  0  0  0
  6 36  1  0  0  0  0
  6 37  1  0  0  0  0
  7  8  1  0  0  0  0
  7 38  1  0  0  0  0
  7 39  1  0  0  0  0
  8  9  1  0  0  0  0
  8 40  1  0  0  0  0
  8 41  1  0  0  0  0
  9 10  1  0  0  0  0
  9 42  1  0  0  0  0
 10 11  1  0  0  0  0
 11 16  1  0  0  0  0
 11 12  2  0  0  0  0
 12 13  1  0  0  0  0
 13 14  2  0  0  0  0
 13 43  1  0  0  0  0
 14 15  1  0  0  0  0
 15 19  1  0  0  0  0
 15 16  2  0  0  0  0
 16 17  1  0  0  0  0
 17 18  2  0  0  0  0
 18 19  1  0  0  0  0
 18 44  1  0  0  0  0
 19 20  1  0  0  0  0
 20 21  1  0  0  0  0
 20 45  1  0  0  0  0
 20 46  1  0  0  0  0
 21 26  1  0  0  0  0
 21 22  1  0  0  0  0
 21 23  1  0  0  0  0
 22 47  1  0  0  0  0
 23 24  1  0  0  0  0
 23 48  1  0  0  0  0
 23 49  1  0  0  0  0
 24 25  1  0  0  0  0
 24 50  1  0  0  0  0
 24 51  1  0  0  0  0
 25 26  1  0  0  0  0
 26 52  1  0  0  0  0
 26 53  1  0  0  0  0
M  END
> <s_m_source_file>
AV-unprocessed.smi

> <i_m_source_file_index>
189

> <i_lp_mmshare_version>
43012

> <i_f3d_flags>
0

> <s_epik_input>
W0NIMl0xW0NIMl1bQ0gyXVtDSDJdW0NASF0oW0NASF0xMilOKFtDQEhdKFtDSDNdKVtDSDJdMiljKG5bY0hdbjMpYyhjMzQpbltjSF1uNFtDSDJdW0NAQF01KFtPSF0pW0NIMl1bQ0gyXU9bQ0gyXTU=

> <s_epik_cmdline>
J2VwaWtfcHl0aG9uJywgJy1waCcsICc3LjAnLCAnLXRuJywgJzgnLCAnLW1hJywgJzIwMCcsICctbWV0YWxfYmluZGluZycsICctaW1hZScsICc8aW5maWxlLm1hZT4nLCAnLW9tYWUnLCAnPG91dGZpbGUubWFlPic=

> <r_lp_tautomer_probability>
1

> <r_epik_Ionization_Penalty>
0.00594261

> <r_epik_Ionization_Penalty_Charging>
0

> <r_epik_Ionization_Penalty_Neutral>
0.00594261

> <r_epik_State_Penalty>
0.00429776

> <r_epik_Charging_Adjusted_Penalty>
0.00429776

> <i_epik_Tot_Q>
0

> <i_epik_Tot_abs_Q>
0

> <r_epik_Metal_State_Penalty>
-0

> <b_epik_Metal_Only>
0

> <s_lp_Force_Field>
OPLS_2005

> <r_lp_Energy>
57.6623

> <b_lp_Chiralities_Consistent>
1

> <s_lp_Variant>
AV-unprocessed.smi:189-9

> <Gold.Version>
5.8.1

> <Gold.Id.Protein>
6NUR|6NUR_protein|mol2

> <Gold.PLP.Fitness>
51.5269

> <Gold.PLP.PLP>
-45.8802

> <Gold.PLP.part.hbond>
-2.0000

> <Gold.PLP.part.metal>
0.0000

> <Gold.PLP.part.buried>
-6.2907

> <Gold.PLP.part.nonpolar>
-37.2486

> <Gold.PLP.part.repulsive>
0.0560

> <Gold.PLP.ligand.clash>
0.0000

> <Gold.PLP.ligand.torsion>
0.2778

> <Gold.PLP.Chemscore.Hbond>
1.9825

> <Gold.PLP.Chemscore.CHOScore>
0.0000

> <Gold.PLP.Chemscore.Metal>
0.0000

> <Gold.Chemscore.Hbonds>
donor molecule, donor type, donor heavy atom, donor atom, acceptor molecule, acceptor atom, score
      P1  H  6896  6909       L1    14  0.99
      P1  H  7997  8008       L1    17  1.00

> <Gold.PLP.Chemscore.Internal.Correction>
0.2549

> <Gold.Rescore>
     Score         DG    S(hbond)    S(metal)    S(lipo)     H(rot)  DE(clash)    DE(int)     intcor
     19.93     -20.41       1.61        0.00     119.75       1.74       0.09       0.39       ----

> <Gold.Chemscore.Fitness>
19.9285

> <Gold.Chemscore.DG>
-20.4116

> <Gold.Chemscore.ZeroCoef>
-5.4800

> <Gold.Chemscore.Hbond>
1.6108

> <Gold.Chemscore.Metal>
0.0000

> <Gold.Chemscore.Lipo>
119.7511

> <Gold.Chemscore.Internal_Hbond>
0.0000

> <Gold.Chemscore.DEClash>
0.0905

> <Gold.Chemscore.DEInternal>
0.3927

> <Gold.Chemscore.Rot>
1.7420

> <Gold.Chemscore.Internal.Correction>
   9.000000E+99

> <Gold.Chemscore.Hbonds>
donor molecule, donor type, donor heavy atom, donor atom, acceptor molecule, acceptor atom, score
      P1  H  6896  6909       L1    14  0.80
      P1  H  7997  8008       L1    17  0.20

> <Gold.Chemscore.Hbond.Weighted>
-5.3802

> <Gold.Chemscore.Metal.Weighted>
-0.0000

> <Gold.Chemscore.Lipo.Weighted>
-14.0109

> <Gold.Chemscore.Internal_Hbond.Weighted>
0.0000

> <Gold.Chemscore.DEClash.Weighted>
0.0905

> <Gold.Chemscore.DEInternal.Weighted>
0.3927

> <Gold.Chemscore.Rot.Weighted>
4.4594

> <Gold.Chemscore.Internal.Correction.Weighted>
   9.000000E+99

> <Gold.Protein.RotatedTorsions>
[ 6907 6896 6895 6894 ] final  120.08 input  -60.11 | X-H torsion
[ 7974 7965 7964 7962 ] final  103.64 input  175.53 | X-H torsion
[ 8008 7997 7996 7995 ] final -116.02 input   59.86 | X-H torsion
[ 10167 10162 10161 10158 ] final   43.21 input  -65.29 | X-H torsion
[ 10718 10713 10712 10709 ] final  116.54 input   66.30 | X-H torsion
[ 10763 10752 10751 10750 ] final -109.41 input  -60.55 | X-H torsion
[ 11005 11000 10999 10996 ] final  114.84 input  -57.11 | X-H torsion

> <Gold.Protein.ActiveResidues>
 VAL166  LYS551  ARG553  GLY616  TRP617  ASP618  TYR619  PRO620  LYS621  CYS622 
 ASP623  PHE694  ASN695  SER759  ASP760  ASP761  ALA762  ILE779  LEU786  VAL792 
 PHE793  MET794  SER795  GLU796  ALA797  LYS798  CYS799  TRP800  GLU811  SER814 

> <Gold.Protein.RotatedAtoms>
  152.4424  133.7473  159.6674 H   0  0  0  0  0  0  0  0  0  0  0  0  # atno 6907 bound_to 6896
  150.8317  133.8069  159.3102 H   0  0  0  0  0  0  0  0  0  0  0  0  # atno 6908 bound_to 6896
  151.5721  135.1064  160.0049 H   0  0  0  0  0  0  0  0  0  0  0  0  # atno 6909 bound_to 6896
  145.3433  139.2457  143.3598 H   0  0  0  0  0  0  0  0  0  0  0  0  # atno 7974 bound_to 7965
  155.0612  140.0393  157.2577 H   0  0  0  0  0  0  0  0  0  0  0  0  # atno 8008 bound_to 7997
  154.7058  140.2682  155.6652 H   0  0  0  0  0  0  0  0  0  0  0  0  # atno 8009 bound_to 7997
  156.2774  140.2731  156.1683 H   0  0  0  0  0  0  0  0  0  0  0  0  # atno 8010 bound_to 7997
  140.3467  144.2402  150.6150 H   0  0  0  0  0  0  0  0  0  0  0  0  # atno 10167 bound_to 10162
  157.6154  131.1026  150.7488 H   0  0  0  0  0  0  0  0  0  0  0  0  # atno 10718 bound_to 10713
  154.8192  135.4602  154.0729 H   0  0  0  0  0  0  0  0  0  0  0  0  # atno 10763 bound_to 10752
  153.2097  135.6880  153.8136 H   0  0  0  0  0  0  0  0  0  0  0  0  # atno 10764 bound_to 10752
  153.7591  135.3286  155.3311 H   0  0  0  0  0  0  0  0  0  0  0  0  # atno 10765 bound_to 10752
  139.8992  134.9574  156.6954 H   0  0  0  0  0  0  0  0  0  0  0  0  # atno 11005 bound_to 11000
  146.2998  140.4034  142.8708 LP  0  0  0  0  0  0  0  0  0  0  0  0  # atno 17320 bound_to 7965
  144.8774  140.7354  143.6008 LP  0  0  0  0  0  0  0  0  0  0  0  0  # atno 17321 bound_to 7965
  140.5258  143.2255  151.8317 LP  0  0  0  0  0  0  0  0  0  0  0  0  # atno 17342 bound_to 10162
  139.4832  144.4781  151.9341 LP  0  0  0  0  0  0  0  0  0  0  0  0  # atno 17343 bound_to 10162
  156.7856  130.4873  149.5393 LP  0  0  0  0  0  0  0  0  0  0  0  0  # atno 17370 bound_to 10713
  156.1273  130.6153  151.0283 LP  0  0  0  0  0  0  0  0  0  0  0  0  # atno 17371 bound_to 10713
  140.7192  133.9155  155.8135 LP  0  0  0  0  0  0  0  0  0  0  0  0  # atno 17394 bound_to 11000
  141.0240  134.0849  157.4089 LP  0  0  0  0  0  0  0  0  0  0  0  0  # atno 17395 bound_to 11000

$$$$
