AV-unprocessed.smi:150|AV-procd|sdf|1243|dock2
  -GOLD-   2262018463D 1   1.00000     0.00000
 Structure written by MMmdl.
 55 57  0  0  0  0  0  0  0  0  1 V2000
  153.8712  142.4005  159.9060 C   0  0  0  0  0  0  0  0  0  0  0  0
  153.0049  142.7007  158.6729 C   0  0  0  0  0  0  0  0  0  0  0  0
  152.8720  144.2204  158.4742 C   0  0  0  0  0  0  0  0  0  0  0  0
  151.6371  141.9921  158.7911 C   0  0  0  0  0  0  0  0  0  0  0  0
  150.9321  141.6099  157.4592 C   0  0  1  0  0  0  0  0  0  0  0  0
  151.8780  141.0284  156.3794 C   0  0  0  0  0  0  0  0  0  0  0  0
  151.1510  140.4927  155.2945 O   0  0  0  0  0  0  0  0  0  0  0  0
  149.7655  140.7431  157.6892 N   0  0  0  0  0  0  0  0  0  0  0  0
  148.5298  141.0568  156.9777 C   0  0  0  0  0  0  0  0  0  0  0  0
  149.8914  139.4323  158.0304 C   0  0  0  0  0  0  0  0  0  0  0  0
  151.1163  138.9066  158.2953 N   0  0  0  0  0  0  0  0  0  0  0  0
  151.2466  137.6164  158.6162 C   0  0  0  0  0  0  0  0  0  0  0  0
  150.2988  136.6841  158.7233 N   0  0  0  0  0  0  0  0  0  0  0  0
  149.0664  137.2000  158.4518 C   0  0  0  0  0  0  0  0  0  0  0  0
  148.7757  138.5494  158.1016 C   0  0  0  0  0  0  0  0  0  0  0  0
  147.4069  138.7030  157.9135 N   0  0  0  0  0  0  0  0  0  0  0  0
  146.9183  137.5138  158.1351 C   0  0  0  0  0  0  0  0  0  0  0  0
  147.8454  136.5479  158.4549 N   0  0  0  0  0  0  0  0  0  0  0  0
  147.5791  135.1476  158.7475 C   0  0  0  0  0  0  0  0  0  0  0  0
  146.6907  134.9203  159.9963 C   0  0  0  0  0  0  0  0  0  0  0  0
  145.3601  135.2628  159.6504 O   0  0  0  0  0  0  0  0  0  0  0  0
  146.7182  133.4348  160.4088 C   0  0  0  0  0  0  0  0  0  0  0  0
  145.9911  133.1882  161.7425 C   0  0  0  0  0  0  0  0  0  0  0  0
  146.5443  134.0167  162.7576 O   0  0  0  0  0  0  0  0  0  0  0  0
  146.3734  135.4028  162.4888 C   0  0  0  0  0  0  0  0  0  0  0  0
  147.1195  135.7890  161.1993 C   0  0  0  0  0  0  0  0  0  0  0  0
  153.4100  142.7819  160.8177 H   0  0  0  0  0  0  0  0  0  0  0  0
  154.8569  142.8581  159.8159 H   0  0  0  0  0  0  0  0  0  0  0  0
  154.0200  141.3277  160.0317 H   0  0  0  0  0  0  0  0  0  0  0  0
  153.5380  142.2921  157.8154 H   0  0  0  0  0  0  0  0  0  0  0  0
  152.3047  144.6781  159.2851 H   0  0  0  0  0  0  0  0  0  0  0  0
  152.3728  144.4638  157.5370 H   0  0  0  0  0  0  0  0  0  0  0  0
  153.8519  144.6974  158.4450 H   0  0  0  0  0  0  0  0  0  0  0  0
  151.7724  141.1002  159.4020 H   0  0  0  0  0  0  0  0  0  0  0  0
  150.9704  142.6397  159.3623 H   0  0  0  0  0  0  0  0  0  0  0  0
  150.4984  142.5223  157.0505 H   0  0  0  0  0  0  0  0  0  0  0  0
  152.5720  141.7825  156.0081 H   0  0  0  0  0  0  0  0  0  0  0  0
  152.4807  140.2172  156.7887 H   0  0  0  0  0  0  0  0  0  0  0  0
  150.8181  139.6448  155.5463 H   0  0  0  0  0  0  0  0  0  0  0  0
  147.7477  141.3324  157.6851 H   0  0  0  0  0  0  0  0  0  0  0  0
  148.1792  140.2070  156.3900 H   0  0  0  0  0  0  0  0  0  0  0  0
  148.6691  141.8949  156.2942 H   0  0  0  0  0  0  0  0  0  0  0  0
  152.2548  137.2835  158.8141 H   0  0  0  0  0  0  0  0  0  0  0  0
  145.8605  137.3054  158.0654 H   0  0  0  0  0  0  0  0  0  0  0  0
  147.1198  134.6945  157.8676 H   0  0  0  0  0  0  0  0  0  0  0  0
  148.5391  134.6462  158.8782 H   0  0  0  0  0  0  0  0  0  0  0  0
  144.7867  134.5672  159.9335 H   0  0  0  0  0  0  0  0  0  0  0  0
  146.2842  132.8116  159.6256 H   0  0  0  0  0  0  0  0  0  0  0  0
  147.7539  133.1101  160.5174 H   0  0  0  0  0  0  0  0  0  0  0  0
  144.9200  133.3731  161.6483 H   0  0  0  0  0  0  0  0  0  0  0  0
  146.1048  132.1459  162.0410 H   0  0  0  0  0  0  0  0  0  0  0  0
  145.3116  135.6424  162.4157 H   0  0  0  0  0  0  0  0  0  0  0  0
  146.7667  135.9735  163.3301 H   0  0  0  0  0  0  0  0  0  0  0  0
  148.1900  135.6651  161.3678 H   0  0  0  0  0  0  0  0  0  0  0  0
  146.9615  136.8479  160.9916 H   0  0  0  0  0  0  0  0  0  0  0  0
  1  2  1  0  0  0  0
  1 27  1  0  0  0  0
  1 28  1  0  0  0  0
  1 29  1  0  0  0  0
  2  3  1  0  0  0  0
  2  4  1  0  0  0  0
  2 30  1  0  0  0  0
  3 31  1  0  0  0  0
  3 32  1  0  0  0  0
  3 33  1  0  0  0  0
  4  5  1  0  0  0  0
  4 34  1  0  0  0  0
  4 35  1  0  0  0  0
  5  6  1  0  0  0  0
  5  8  1  0  0  0  0
  5 36  1  0  0  0  0
  6  7  1  0  0  0  0
  6 37  1  0  0  0  0
  6 38  1  0  0  0  0
  7 39  1  0  0  0  0
  8  9  1  0  0  0  0
  8 10  1  0  0  0  0
  9 40  1  0  0  0  0
  9 41  1  0  0  0  0
  9 42  1  0  0  0  0
 10 15  1  0  0  0  0
 10 11  2  0  0  0  0
 11 12  1  0  0  0  0
 12 13  2  0  0  0  0
 12 43  1  0  0  0  0
 13 14  1  0  0  0  0
 14 18  1  0  0  0  0
 14 15  2  0  0  0  0
 15 16  1  0  0  0  0
 16 17  2  0  0  0  0
 17 18  1  0  0  0  0
 17 44  1  0  0  0  0
 18 19  1  0  0  0  0
 19 20  1  0  0  0  0
 19 45  1  0  0  0  0
 19 46  1  0  0  0  0
 20 26  1  0  0  0  0
 20 21  1  0  0  0  0
 20 22  1  0  0  0  0
 21 47  1  0  0  0  0
 22 23  1  0  0  0  0
 22 48  1  0  0  0  0
 22 49  1  0  0  0  0
 23 24  1  0  0  0  0
 23 50  1  0  0  0  0
 23 51  1  0  0  0  0
 24 25  1  0  0  0  0
 25 26  1  0  0  0  0
 25 52  1  0  0  0  0
 25 53  1  0  0  0  0
 26 54  1  0  0  0  0
 26 55  1  0  0  0  0
M  END
> <s_m_source_file>
AV-unprocessed.smi

> <i_m_source_file_index>
150

> <i_lp_mmshare_version>
43012

> <i_f3d_flags>
0

> <s_epik_input>
W0NIM11bQ0hdKFtDSDNdKVtDSDJdW0NASF0oW0NIMl1bT0hdKU4oW0NIM10pYyhuW2NIXW4xKWMoYzEyKW5bY0hdbjJbQ0gyXUMzKFtPSF0pW0NIMl1bQ0gyXU9bQ0gyXVtDSDJdMw==

> <s_epik_cmdline>
J2VwaWtfcHl0aG9uJywgJy1waCcsICc3LjAnLCAnLXRuJywgJzgnLCAnLW1hJywgJzIwMCcsICctbWV0YWxfYmluZGluZycsICctaW1hZScsICc8aW5maWxlLm1hZT4nLCAnLW9tYWUnLCAnPG91dGZpbGUubWFlPic=

> <r_lp_tautomer_probability>
1

> <r_epik_Ionization_Penalty>
0.00548416

> <r_epik_Ionization_Penalty_Charging>
0

> <r_epik_Ionization_Penalty_Neutral>
0.00548416

> <r_epik_State_Penalty>
0.0038135

> <r_epik_Charging_Adjusted_Penalty>
0.0038135

> <i_epik_Tot_Q>
0

> <i_epik_Tot_abs_Q>
0

> <r_epik_Metal_State_Penalty>
-0

> <b_epik_Metal_Only>
0

> <s_lp_Force_Field>
OPLS_2005

> <r_lp_Energy>
26.5114

> <b_lp_Chiralities_Consistent>
1

> <s_lp_Variant>
AV-unprocessed.smi:150-2

> <Gold.Version>
5.8.1

> <Gold.Id.Protein>
6NUR|6NUR_protein|mol2

> <Gold.PLP.Fitness>
46.7182

> <Gold.PLP.PLP>
-41.9488

> <Gold.PLP.part.hbond>
-3.0000

> <Gold.PLP.part.metal>
0.0000

> <Gold.PLP.part.buried>
-7.9780

> <Gold.PLP.part.nonpolar>
-31.0655

> <Gold.PLP.part.repulsive>
0.0117

> <Gold.PLP.ligand.clash>
0.0000

> <Gold.PLP.ligand.torsion>
1.1157

> <Gold.PLP.Chemscore.Hbond>
1.9760

> <Gold.PLP.Chemscore.CHOScore>
0.0000

> <Gold.PLP.Chemscore.Metal>
0.0000

> <Gold.Chemscore.Hbonds>
donor molecule, donor type, donor heavy atom, donor atom, acceptor molecule, acceptor atom, score
      P1  H  6896  6909       L1    13  0.81
      P1  H  7989  7998       L1     7  0.94

> <Gold.PLP.Chemscore.Internal.Correction>
1.0728

> <Gold.Rescore>
     Score         DG    S(hbond)    S(metal)    S(lipo)     H(rot)  DE(clash)    DE(int)     intcor
      8.88     -14.61       1.89        0.00      98.42       3.40       1.72       4.00       ----

> <Gold.Chemscore.Fitness>
8.8802

> <Gold.Chemscore.DG>
-14.6055

> <Gold.Chemscore.ZeroCoef>
-5.4800

> <Gold.Chemscore.Hbond>
1.8901

> <Gold.Chemscore.Metal>
0.0000

> <Gold.Chemscore.Lipo>
98.4236

> <Gold.Chemscore.Internal_Hbond>
0.0000

> <Gold.Chemscore.DEClash>
1.7233

> <Gold.Chemscore.DEInternal>
4.0021

> <Gold.Chemscore.Rot>
3.3995

> <Gold.Chemscore.Internal.Correction>
   9.000000E+99

> <Gold.Chemscore.Hbonds>
donor molecule, donor type, donor heavy atom, donor atom, acceptor molecule, acceptor atom, score
      P1  H  6896  6909       L1    13  0.59
      P1  H  7989  7998       L1     7  0.88

> <Gold.Chemscore.Hbond.Weighted>
-6.3128

> <Gold.Chemscore.Metal.Weighted>
-0.0000

> <Gold.Chemscore.Lipo.Weighted>
-11.5156

> <Gold.Chemscore.Internal_Hbond.Weighted>
0.0000

> <Gold.Chemscore.DEClash.Weighted>
1.7233

> <Gold.Chemscore.DEInternal.Weighted>
4.0021

> <Gold.Chemscore.Rot.Weighted>
8.7028

> <Gold.Chemscore.Internal.Correction.Weighted>
   9.000000E+99

> <Gold.Protein.RotatedTorsions>
[ 6907 6896 6895 6894 ] final   86.97 input  -60.11 | X-H torsion
[ 7974 7965 7964 7962 ] final  156.04 input  175.53 | X-H torsion
[ 8008 7997 7996 7995 ] final   -5.15 input   59.86 | X-H torsion
[ 10167 10162 10161 10158 ] final   67.85 input  -65.29 | X-H torsion
[ 10718 10713 10712 10709 ] final  109.07 input   66.30 | X-H torsion
[ 10763 10752 10751 10750 ] final -114.94 input  -60.55 | X-H torsion
[ 11005 11000 10999 10996 ] final  -26.79 input  -57.11 | X-H torsion

> <Gold.Protein.ActiveResidues>
 VAL166  LYS551  ARG553  GLY616  TRP617  ASP618  TYR619  PRO620  LYS621  CYS622 
 ASP623  PHE694  ASN695  SER759  ASP760  ASP761  ALA762  ILE779  LEU786  VAL792 
 PHE793  MET794  SER795  GLU796  ALA797  LYS798  CYS799  TRP800  GLU811  SER814 

> <Gold.Protein.RotatedAtoms>
  152.5403  134.2349  159.8839 H   0  0  0  0  0  0  0  0  0  0  0  0  # atno 6907 bound_to 6896
  151.2319  133.4439  159.2611 H   0  0  0  0  0  0  0  0  0  0  0  0  # atno 6908 bound_to 6896
  151.0707  134.9810  159.8363 H   0  0  0  0  0  0  0  0  0  0  0  0  # atno 6909 bound_to 6896
  144.7988  139.7149  143.6191 H   0  0  0  0  0  0  0  0  0  0  0  0  # atno 7974 bound_to 7965
  154.6069  140.2466  155.7719 H   0  0  0  0  0  0  0  0  0  0  0  0  # atno 8008 bound_to 7997
  156.2346  140.2954  156.0230 H   0  0  0  0  0  0  0  0  0  0  0  0  # atno 8009 bound_to 7997
  155.2117  140.0397  157.2925 H   0  0  0  0  0  0  0  0  0  0  0  0  # atno 8010 bound_to 7997
  140.0850  144.5038  150.7136 H   0  0  0  0  0  0  0  0  0  0  0  0  # atno 10167 bound_to 10162
  157.6558  131.0906  150.6400 H   0  0  0  0  0  0  0  0  0  0  0  0  # atno 10718 bound_to 10713
  154.8461  135.4399  154.1585 H   0  0  0  0  0  0  0  0  0  0  0  0  # atno 10763 bound_to 10752
  153.2728  135.6946  153.7470 H   0  0  0  0  0  0  0  0  0  0  0  0  # atno 10764 bound_to 10752
  153.6704  135.3420  155.3127 H   0  0  0  0  0  0  0  0  0  0  0  0  # atno 10765 bound_to 10752
  140.9061  133.7492  156.0608 H   0  0  0  0  0  0  0  0  0  0  0  0  # atno 11005 bound_to 11000
  146.2263  139.5729  142.9585 LP  0  0  0  0  0  0  0  0  0  0  0  0  # atno 17320 bound_to 7965
  145.5606  141.0404  143.2228 LP  0  0  0  0  0  0  0  0  0  0  0  0  # atno 17321 bound_to 7965
  140.7058  143.2467  151.4730 LP  0  0  0  0  0  0  0  0  0  0  0  0  # atno 17342 bound_to 10162
  139.5757  144.1824  152.1900 LP  0  0  0  0  0  0  0  0  0  0  0  0  # atno 17343 bound_to 10162
  156.6706  130.4538  149.5658 LP  0  0  0  0  0  0  0  0  0  0  0  0  # atno 17370 bound_to 10713
  156.2000  130.6614  151.1157 LP  0  0  0  0  0  0  0  0  0  0  0  0  # atno 17371 bound_to 10713
  140.8169  134.3334  157.5394 LP  0  0  0  0  0  0  0  0  0  0  0  0  # atno 17394 bound_to 11000
  139.8749  134.9287  156.3456 LP  0  0  0  0  0  0  0  0  0  0  0  0  # atno 17395 bound_to 11000

$$$$
