AV-unprocessed.smi:545|AV-procd|sdf|2882|dock1
  -GOLD-   2262023373D 1   1.00000     0.00000
 Structure written by MMmdl.
 35 36  0  0  0  0  0  0  0  0  2 V2000
  155.3118  139.7059  161.6588 C   0  0  0  0  0  0  0  0  0  0  0  0
  155.7473  140.7982  160.8701 O   0  0  0  0  0  0  0  0  0  0  0  0
  154.8608  141.0861  159.8007 C   0  0  0  0  0  0  0  0  0  0  0  0
  153.4306  141.2318  160.3388 C   0  0  0  0  0  0  0  0  0  0  0  0
  152.4953  141.6550  159.2955 N   0  0  0  0  0  0  0  0  0  0  0  0
  151.7821  142.8154  159.1888 C   0  0  0  0  0  0  0  0  0  0  0  0
  151.8146  143.8422  160.1416 N   0  0  0  0  0  0  0  0  0  0  0  0
  151.0445  145.0714  160.0055 C   0  0  0  0  0  0  0  0  0  0  0  0
  152.4025  143.8048  161.4745 C   0  0  0  0  0  0  0  0  0  0  0  0
  151.0678  142.9173  158.0649 N   0  0  0  0  0  0  0  0  0  0  0  0
  151.3295  141.7271  157.4086 C   0  0  0  0  0  0  0  0  0  0  0  0
  152.1933  140.9554  158.1195 C   0  0  0  0  0  0  0  0  0  0  0  0
  152.6957  139.6434  157.6481 C   0  0  0  0  0  0  0  0  0  0  0  0
  153.5077  138.9969  158.3067 O   0  0  0  0  0  0  0  0  0  0  0  0
  152.1581  139.2859  156.4391 N   0  5  0  0  0  0  0  0  0  0  0  0
  151.2718  140.0325  155.6938 C   0  0  0  0  0  0  0  0  0  0  0  0
  150.8346  139.6349  154.6130 O   0  0  0  0  0  0  0  0  0  0  0  0
  150.8560  141.2535  156.1546 N   0  0  0  0  0  0  0  0  0  0  0  0
  149.9215  142.0744  155.3790 C   0  0  0  0  0  0  0  0  0  0  0  0
  156.0234  139.5317  162.4658 H   0  0  0  0  0  0  0  0  0  0  0  0
  155.2461  138.7932  161.0650 H   0  0  0  0  0  0  0  0  0  0  0  0
  154.3369  139.9051  162.1054 H   0  0  0  0  0  0  0  0  0  0  0  0
  155.1657  142.0059  159.2990 H   0  0  0  0  0  0  0  0  0  0  0  0
  154.8977  140.2846  159.0616 H   0  0  0  0  0  0  0  0  0  0  0  0
  153.0896  140.2922  160.7691 H   0  0  0  0  0  0  0  0  0  0  0  0
  153.4173  141.9197  161.1758 H   0  0  0  0  0  0  0  0  0  0  0  0
  150.8306  145.2785  158.9564 H   0  0  0  0  0  0  0  0  0  0  0  0
  151.5914  145.9271  160.4040 H   0  0  0  0  0  0  0  0  0  0  0  0
  150.0951  144.9873  160.5353 H   0  0  0  0  0  0  0  0  0  0  0  0
  152.4644  142.7784  161.8368 H   0  0  0  0  0  0  0  0  0  0  0  0
  151.8042  144.3609  162.1979 H   0  0  0  0  0  0  0  0  0  0  0  0
  153.4033  144.2371  161.4618 H   0  0  0  0  0  0  0  0  0  0  0  0
  150.3255  142.2835  154.3873 H   0  0  0  0  0  0  0  0  0  0  0  0
  149.7116  143.0333  155.8518 H   0  0  0  0  0  0  0  0  0  0  0  0
  148.9700  141.5548  155.2573 H   0  0  0  0  0  0  0  0  0  0  0  0
  1  2  1  0  0  0  0
  1 20  1  0  0  0  0
  1 21  1  0  0  0  0
  1 22  1  0  0  0  0
  2  3  1  0  0  0  0
  3  4  1  0  0  0  0
  3 23  1  0  0  0  0
  3 24  1  0  0  0  0
  4  5  1  0  0  0  0
  4 25  1  0  0  0  0
  4 26  1  0  0  0  0
  5 12  1  0  0  0  0
  5  6  1  0  0  0  0
  6  7  1  0  0  0  0
  6 10  2  0  0  0  0
  7  8  1  0  0  0  0
  7  9  1  0  0  0  0
  8 27  1  0  0  0  0
  8 28  1  0  0  0  0
  8 29  1  0  0  0  0
  9 30  1  0  0  0  0
  9 31  1  0  0  0  0
  9 32  1  0  0  0  0
 10 11  1  0  0  0  0
 11 18  1  0  0  0  0
 11 12  2  0  0  0  0
 12 13  1  0  0  0  0
 13 14  2  0  0  0  0
 13 15  1  0  0  0  0
 15 16  1  0  0  0  0
 16 17  2  0  0  0  0
 16 18  1  0  0  0  0
 18 19  1  0  0  0  0
 19 33  1  0  0  0  0
 19 34  1  0  0  0  0
 19 35  1  0  0  0  0
M  CHG  1  15  -1
M  END
> <s_m_source_file>
AV-unprocessed.smi

> <i_m_source_file_index>
545

> <i_lp_mmshare_version>
43012

> <i_f3d_flags>
0

> <s_epik_input>
W0NIM11PW0NIMl1bQ0gyXW4oYyhuMSlOKFtDSDNdKVtDSDNdKWMoYzEyKWMoPU8pW25IXWMoPU8pbjJbQ0gzXQ==

> <s_epik_cmdline>
J2VwaWtfcHl0aG9uJywgJy1waCcsICc3LjAnLCAnLXRuJywgJzgnLCAnLW1hJywgJzIwMCcsICctbWV0YWxfYmluZGluZycsICctaW1hZScsICc8aW5maWxlLm1hZT4nLCAnLW9tYWUnLCAnPG91dGZpbGUubWFlPic=

> <r_lp_tautomer_probability>
1

> <r_epik_Ionization_Penalty>
6.28808

> <r_epik_Ionization_Penalty_Charging>
0.078064

> <r_epik_Ionization_Penalty_Neutral>
6.21001

> <r_epik_State_Penalty>
6.20933

> <r_epik_Charging_Adjusted_Penalty>
6.2874

> <i_epik_Tot_Q>
-1

> <i_epik_Tot_abs_Q>
1

> <r_epik_Metal_State_Penalty>
2.14897

> <b_epik_Metal_Only>
1

> <s_lp_Force_Field>
OPLS_2005

> <r_lp_Energy>
31.5619

> <b_lp_Chiralities_Consistent>
1

> <s_lp_Variant>
AV-unprocessed.smi:545-2

> <Gold.Version>
5.8.1

> <Gold.Id.Protein>
6NUR|6NUR_protein|mol2

> <Gold.PLP.Fitness>
42.0633

> <Gold.PLP.PLP>
-38.0813

> <Gold.PLP.part.hbond>
-3.0000

> <Gold.PLP.part.metal>
0.0000

> <Gold.PLP.part.buried>
-1.6403

> <Gold.PLP.part.nonpolar>
-32.3232

> <Gold.PLP.part.repulsive>
0.1878

> <Gold.PLP.ligand.clash>
0.1827

> <Gold.PLP.ligand.torsion>
0.0594

> <Gold.PLP.Chemscore.Hbond>
1.3494

> <Gold.PLP.Chemscore.CHOScore>
0.0000

> <Gold.PLP.Chemscore.Metal>
0.0000

> <Gold.Chemscore.Hbonds>
donor molecule, donor type, donor heavy atom, donor atom, acceptor molecule, acceptor atom, score
      P1  H  7989  7998       L1    17  1.00
      P1  H  7997  8010       L1    14  0.35

> <Gold.PLP.Chemscore.Internal.Correction>
0.2351

> <Gold.Rescore>
     Score         DG    S(hbond)    S(metal)    S(lipo)     H(rot)  DE(clash)    DE(int)     intcor
      7.01      -9.53       0.24        0.00      61.78       1.55       0.11       2.40       ----

> <Gold.Chemscore.Fitness>
7.0117

> <Gold.Chemscore.DG>
-9.5292

> <Gold.Chemscore.ZeroCoef>
-5.4800

> <Gold.Chemscore.Hbond>
0.2359

> <Gold.Chemscore.Metal>
0.0000

> <Gold.Chemscore.Lipo>
61.7781

> <Gold.Chemscore.Internal_Hbond>
0.0000

> <Gold.Chemscore.DEClash>
0.1128

> <Gold.Chemscore.DEInternal>
2.4047

> <Gold.Chemscore.Rot>
1.5494

> <Gold.Chemscore.Internal.Correction>
   9.000000E+99

> <Gold.Chemscore.Hbonds>
donor molecule, donor type, donor heavy atom, donor atom, acceptor molecule, acceptor atom, score
      P1  H  7989  7998       L1    17  0.26
      P1  H  7997  8010       L1    14  0.01

> <Gold.Chemscore.Hbond.Weighted>
-0.7878

> <Gold.Chemscore.Metal.Weighted>
-0.0000

> <Gold.Chemscore.Lipo.Weighted>
-7.2280

> <Gold.Chemscore.Internal_Hbond.Weighted>
0.0000

> <Gold.Chemscore.DEClash.Weighted>
0.1128

> <Gold.Chemscore.DEInternal.Weighted>
2.4047

> <Gold.Chemscore.Rot.Weighted>
3.9666

> <Gold.Chemscore.Internal.Correction.Weighted>
   9.000000E+99

> <Gold.Protein.RotatedTorsions>
[ 6907 6896 6895 6894 ] final   90.44 input  -60.11 | X-H torsion
[ 7974 7965 7964 7962 ] final -141.47 input  175.53 | X-H torsion
[ 8008 7997 7996 7995 ] final    4.86 input   59.86 | X-H torsion
[ 10167 10162 10161 10158 ] final   93.48 input  -65.29 | X-H torsion
[ 10718 10713 10712 10709 ] final -111.08 input   66.30 | X-H torsion
[ 10763 10752 10751 10750 ] final  176.87 input  -60.55 | X-H torsion
[ 11005 11000 10999 10996 ] final   34.06 input  -57.11 | X-H torsion

> <Gold.Protein.ActiveResidues>
 VAL166  LYS551  ARG553  GLY616  TRP617  ASP618  TYR619  PRO620  LYS621  CYS622 
 ASP623  PHE694  ASN695  SER759  ASP760  ASP761  ALA762  ILE779  LEU786  VAL792 
 PHE793  MET794  SER795  GLU796  ALA797  LYS798  CYS799  TRP800  GLU811  SER814 

> <Gold.Protein.RotatedAtoms>
  152.5444  134.1811  159.8635 H   0  0  0  0  0  0  0  0  0  0  0  0  # atno 6907 bound_to 6896
  151.1814  133.4716  159.2601 H   0  0  0  0  0  0  0  0  0  0  0  0  # atno 6908 bound_to 6896
  151.1175  135.0072  159.8578 H   0  0  0  0  0  0  0  0  0  0  0  0  # atno 6909 bound_to 6896
  144.8517  140.6075  143.5386 H   0  0  0  0  0  0  0  0  0  0  0  0  # atno 7974 bound_to 7965
  154.7211  140.2712  155.6540 H   0  0  0  0  0  0  0  0  0  0  0  0  # atno 8008 bound_to 7997
  156.2824  140.2734  156.1808 H   0  0  0  0  0  0  0  0  0  0  0  0  # atno 8009 bound_to 7997
  155.0505  140.0371  157.2532 H   0  0  0  0  0  0  0  0  0  0  0  0  # atno 8010 bound_to 7997
  139.8176  144.6746  150.9560 H   0  0  0  0  0  0  0  0  0  0  0  0  # atno 10167 bound_to 10162
  156.0626  130.5848  150.8324 H   0  0  0  0  0  0  0  0  0  0  0  0  # atno 10718 bound_to 10713
  154.4868  135.2777  155.1527 H   0  0  0  0  0  0  0  0  0  0  0  0  # atno 10763 bound_to 10752
  154.3215  135.6208  153.5513 H   0  0  0  0  0  0  0  0  0  0  0  0  # atno 10764 bound_to 10752
  152.9882  135.5744  154.5281 H   0  0  0  0  0  0  0  0  0  0  0  0  # atno 10765 bound_to 10752
  140.2568  134.3239  155.7871 H   0  0  0  0  0  0  0  0  0  0  0  0  # atno 11005 bound_to 11000
  145.4487  139.1526  143.3930 LP  0  0  0  0  0  0  0  0  0  0  0  0  # atno 17320 bound_to 7965
  146.2790  140.4612  142.8784 LP  0  0  0  0  0  0  0  0  0  0  0  0  # atno 17321 bound_to 7965
  140.7815  143.4123  151.0972 LP  0  0  0  0  0  0  0  0  0  0  0  0  # atno 17342 bound_to 10162
  139.7786  143.8388  152.3133 LP  0  0  0  0  0  0  0  0  0  0  0  0  # atno 17343 bound_to 10162
  157.5646  131.0946  150.9508 LP  0  0  0  0  0  0  0  0  0  0  0  0  # atno 17370 bound_to 10713
  156.9738  130.5501  149.5292 LP  0  0  0  0  0  0  0  0  0  0  0  0  # atno 17371 bound_to 10713
  141.2195  133.7385  156.9123 LP  0  0  0  0  0  0  0  0  0  0  0  0  # atno 17394 bound_to 11000
  140.1504  134.9234  157.2585 LP  0  0  0  0  0  0  0  0  0  0  0  0  # atno 17395 bound_to 11000

$$$$
