AV-unprocessed.smi:2014|AV-procd|sdf|8162|dock6
  -GOLD-   2272010413D 1   1.00000     0.00000
 Structure written by MMmdl.
 46 48  0  0  0  0  0  0  0  0  1 V2000
  145.4344  136.5565  152.6062 C   0  0  0  0  0  0  0  0  0  0  0  0
  145.5850  138.0736  152.7862 C   0  0  2  0  0  0  0  0  0  0  0  0
  146.6168  138.6586  151.8023 C   0  0  0  0  0  0  0  0  0  0  0  0
  146.7875  140.1783  151.9878 C   0  0  0  0  0  0  0  0  0  0  0  0
  147.1492  140.5505  153.4388 C   0  0  2  0  0  0  0  0  0  0  0  0
  148.5054  140.0994  153.7438 N   0  0  0  0  0  0  0  0  0  0  0  0
  149.1634  140.3087  154.8935 C   0  0  0  0  0  0  0  0  0  0  0  0
  148.7056  140.9663  155.8283 O   0  0  0  0  0  0  0  0  0  0  0  0
  150.5592  139.6803  154.9949 C   0  0  0  0  0  0  0  0  0  0  0  0
  151.1530  139.8582  156.3371 N   0  0  0  0  0  0  0  0  0  0  0  0
  151.4861  138.6960  157.0794 C   0  0  0  0  0  0  0  0  0  0  0  0
  151.3104  137.5702  156.6092 O   0  0  0  0  0  0  0  0  0  0  0  0
  152.0252  138.9357  158.4158 C   0  0  0  0  0  0  0  0  0  0  0  0
  152.3411  137.7909  159.2043 C   0  0  0  0  0  0  0  0  0  0  0  0
  152.5817  136.8493  159.8328 N   0  0  0  0  0  0  0  0  0  0  0  0
  152.2068  140.1904  158.8768 C   0  0  0  0  0  0  0  0  0  0  0  0
  151.9134  141.3067  158.1241 N   0  0  0  0  0  0  0  0  0  0  0  0
  151.9648  142.6252  158.6903 C   0  0  0  0  0  0  0  0  0  0  0  0
  153.2986  143.3085  158.9217 C   0  0  0  0  0  0  0  0  0  0  0  0
  152.4984  142.7998  160.0956 C   0  0  0  0  0  0  0  0  0  0  0  0
  151.3262  141.1678  156.8472 C   0  0  0  0  0  0  0  0  0  0  0  0
  150.9655  142.1542  156.2006 O   0  0  0  0  0  0  0  0  0  0  0  0
  146.1154  139.9528  154.4185 C   0  0  0  0  0  0  0  0  0  0  0  0
  145.9571  138.4331  154.2374 C   0  0  0  0  0  0  0  0  0  0  0  0
  146.3692  136.0370  152.8195 H   0  0  0  0  0  0  0  0  0  0  0  0
  145.1406  136.3090  151.5858 H   0  0  0  0  0  0  0  0  0  0  0  0
  144.6711  136.1558  153.2738 H   0  0  0  0  0  0  0  0  0  0  0  0
  144.6176  138.5280  152.5664 H   0  0  0  0  0  0  0  0  0  0  0  0
  147.5783  138.1619  151.9393 H   0  0  0  0  0  0  0  0  0  0  0  0
  146.3103  138.4507  150.7767 H   0  0  0  0  0  0  0  0  0  0  0  0
  147.5462  140.5548  151.3005 H   0  0  0  0  0  0  0  0  0  0  0  0
  145.8573  140.6766  151.7124 H   0  0  0  0  0  0  0  0  0  0  0  0
  147.1309  141.6382  153.5268 H   0  0  0  0  0  0  0  0  0  0  0  0
  148.9674  139.5516  153.0325 H   0  0  0  0  0  0  0  0  0  0  0  0
  150.5116  138.6203  154.7382 H   0  0  0  0  0  0  0  0  0  0  0  0
  151.1840  140.1134  154.2128 H   0  0  0  0  0  0  0  0  0  0  0  0
  152.6023  140.3288  159.8728 H   0  0  0  0  0  0  0  0  0  0  0  0
  151.1413  143.2808  158.4124 H   0  0  0  0  0  0  0  0  0  0  0  0
  154.2073  142.7660  158.6674 H   0  0  0  0  0  0  0  0  0  0  0  0
  153.3419  144.3853  158.7711 H   0  0  0  0  0  0  0  0  0  0  0  0
  152.0093  143.5371  160.7287 H   0  0  0  0  0  0  0  0  0  0  0  0
  152.8791  141.9213  160.6132 H   0  0  0  0  0  0  0  0  0  0  0  0
  146.3844  140.1774  155.4509 H   0  0  0  0  0  0  0  0  0  0  0  0
  145.1500  140.4321  154.2519 H   0  0  0  0  0  0  0  0  0  0  0  0
  145.1910  138.0645  154.9201 H   0  0  0  0  0  0  0  0  0  0  0  0
  146.8837  137.9308  154.5191 H   0  0  0  0  0  0  0  0  0  0  0  0
  1  2  1  0  0  0  0
  1 25  1  0  0  0  0
  1 26  1  0  0  0  0
  1 27  1  0  0  0  0
  2 24  1  0  0  0  0
  2  3  1  0  0  0  0
  2 28  1  0  0  0  0
  3  4  1  0  0  0  0
  3 29  1  0  0  0  0
  3 30  1  0  0  0  0
  4  5  1  0  0  0  0
  4 31  1  0  0  0  0
  4 32  1  0  0  0  0
  5  6  1  0  0  0  0
  5 23  1  0  0  0  0
  5 33  1  0  0  0  0
  6  7  1  0  0  0  0
  6 34  1  0  0  0  0
  7  8  2  0  0  0  0
  7  9  1  0  0  0  0
  9 10  1  0  0  0  0
  9 35  1  0  0  0  0
  9 36  1  0  0  0  0
 10 21  1  0  0  0  0
 10 11  1  0  0  0  0
 11 12  2  0  0  0  0
 11 13  1  0  0  0  0
 13 14  1  0  0  0  0
 13 16  2  0  0  0  0
 14 15  3  0  0  0  0
 16 17  1  0  0  0  0
 16 37  1  0  0  0  0
 17 18  1  0  0  0  0
 17 21  1  0  0  0  0
 18 20  1  0  0  0  0
 18 19  1  0  0  0  0
 18 38  1  0  0  0  0
 19 20  1  0  0  0  0
 19 39  1  0  0  0  0
 19 40  1  0  0  0  0
 20 41  1  0  0  0  0
 20 42  1  0  0  0  0
 21 22  2  0  0  0  0
 23 24  1  0  0  0  0
 23 43  1  0  0  0  0
 23 44  1  0  0  0  0
 24 45  1  0  0  0  0
 24 46  1  0  0  0  0
M  END
> <s_m_source_file>
AV-unprocessed.smi

> <i_m_source_file_index>
2014

> <i_lp_mmshare_version>
43012

> <i_f3d_flags>
0

> <s_epik_input>
W0NIM11bQ0BASF0xW0NIMl1bQ0gyXVtDQEhdKFtDSDJdW0NIMl0xKVtOSF1DKD1PKVtDSDJdbjJjKD1PKWMoQyNOKVtjSF1uKGMyPU8pW0NIXTNbQ0gyXVtDSDJdMw==

> <s_epik_cmdline>
J2VwaWtfcHl0aG9uJywgJy1waCcsICc3LjAnLCAnLXRuJywgJzgnLCAnLW1hJywgJzIwMCcsICctbWV0YWxfYmluZGluZycsICctaW1hZScsICc8aW5maWxlLm1hZT4nLCAnLW9tYWUnLCAnPG91dGZpbGUubWFlPic=

> <r_lp_tautomer_probability>
1

> <r_epik_Ionization_Penalty>
1.91358e-08

> <r_epik_Ionization_Penalty_Charging>
8.89021e-11

> <r_epik_Ionization_Penalty_Neutral>
1.90469e-08

> <r_epik_State_Penalty>
-0

> <r_epik_Charging_Adjusted_Penalty>
8.89021e-11

> <i_epik_Tot_Q>
0

> <i_epik_Tot_abs_Q>
0

> <r_epik_Metal_State_Penalty>
-0

> <b_epik_Metal_Only>
0

> <s_lp_Force_Field>
OPLS_2005

> <r_lp_Energy>
34.0364

> <b_lp_Chiralities_Consistent>
1

> <s_lp_Variant>
AV-unprocessed.smi:2014-2

> <Gold.Version>
5.8.1

> <Gold.Id.Protein>
6NUR|6NUR_protein|mol2

> <Gold.PLP.Fitness>
44.4841

> <Gold.PLP.PLP>
-39.3541

> <Gold.PLP.part.hbond>
-2.0000

> <Gold.PLP.part.metal>
0.0000

> <Gold.PLP.part.buried>
1.0648

> <Gold.PLP.part.nonpolar>
-38.8710

> <Gold.PLP.part.repulsive>
0.2836

> <Gold.PLP.ligand.clash>
0.0000

> <Gold.PLP.ligand.torsion>
0.1945

> <Gold.PLP.Chemscore.Hbond>
1.7680

> <Gold.PLP.Chemscore.CHOScore>
0.0000

> <Gold.PLP.Chemscore.Metal>
0.0000

> <Gold.Chemscore.Hbonds>
donor molecule, donor type, donor heavy atom, donor atom, acceptor molecule, acceptor atom, score
      L1  H     6    34       P1  7957  0.63
      P1  H  6896  6908       L1    15  1.00

> <Gold.PLP.Chemscore.Internal.Correction>
0.2150

> <Gold.Rescore>
     Score         DG    S(hbond)    S(metal)    S(lipo)     H(rot)  DE(clash)    DE(int)     intcor
     13.54     -18.95       1.87        0.00      98.96       1.70       1.68       3.73       ----

> <Gold.Chemscore.Fitness>
13.5370

> <Gold.Chemscore.DG>
-18.9480

> <Gold.Chemscore.ZeroCoef>
-5.4800

> <Gold.Chemscore.Hbond>
1.8718

> <Gold.Chemscore.Metal>
0.0000

> <Gold.Chemscore.Lipo>
98.9558

> <Gold.Chemscore.Internal_Hbond>
0.0000

> <Gold.Chemscore.DEClash>
1.6798

> <Gold.Chemscore.DEInternal>
3.7311

> <Gold.Chemscore.Rot>
1.7038

> <Gold.Chemscore.Internal.Correction>
   9.000000E+99

> <Gold.Chemscore.Hbonds>
donor molecule, donor type, donor heavy atom, donor atom, acceptor molecule, acceptor atom, score
      L1  H     6    34       P1  7957  0.59
      P1  H  6896  6908       L1    15  1.00

> <Gold.Chemscore.Hbond.Weighted>
-6.2519

> <Gold.Chemscore.Metal.Weighted>
-0.0000

> <Gold.Chemscore.Lipo.Weighted>
-11.5778

> <Gold.Chemscore.Internal_Hbond.Weighted>
0.0000

> <Gold.Chemscore.DEClash.Weighted>
1.6798

> <Gold.Chemscore.DEInternal.Weighted>
3.7311

> <Gold.Chemscore.Rot.Weighted>
4.3618

> <Gold.Chemscore.Internal.Correction.Weighted>
   9.000000E+99

> <Gold.Protein.RotatedTorsions>
[ 6907 6896 6895 6894 ] final  -95.04 input  -60.11 | X-H torsion
[ 7974 7965 7964 7962 ] final   88.50 input  175.53 | X-H torsion
[ 8008 7997 7996 7995 ] final   -9.53 input   59.86 | X-H torsion
[ 10167 10162 10161 10158 ] final  -86.38 input  -65.29 | X-H torsion
[ 10718 10713 10712 10709 ] final  -19.54 input   66.30 | X-H torsion
[ 10763 10752 10751 10750 ] final  -80.27 input  -60.55 | X-H torsion
[ 11005 11000 10999 10996 ] final   38.41 input  -57.11 | X-H torsion

> <Gold.Protein.ActiveResidues>
 VAL166  LYS551  ARG553  GLY616  TRP617  ASP618  TYR619  PRO620  LYS621  CYS622 
 ASP623  PHE694  ASN695  SER759  ASP760  ASP761  ALA762  ILE779  LEU786  VAL792 
 PHE793  MET794  SER795  GLU796  ALA797  LYS798  CYS799  TRP800  GLU811  SER814 

> <Gold.Protein.RotatedAtoms>
  150.6955  134.1719  159.4215 H   0  0  0  0  0  0  0  0  0  0  0  0  # atno 6907 bound_to 6896
  151.9697  135.0080  160.0561 H   0  0  0  0  0  0  0  0  0  0  0  0  # atno 6908 bound_to 6896
  152.1853  133.4700  159.5016 H   0  0  0  0  0  0  0  0  0  0  0  0  # atno 6909 bound_to 6896
  145.5449  139.2291  143.2545 H   0  0  0  0  0  0  0  0  0  0  0  0  # atno 7974 bound_to 7965
  154.5638  140.2352  155.8294 H   0  0  0  0  0  0  0  0  0  0  0  0  # atno 8008 bound_to 7997
  156.2052  140.3041  155.9570 H   0  0  0  0  0  0  0  0  0  0  0  0  # atno 8009 bound_to 7997
  155.2838  140.0423  157.3008 H   0  0  0  0  0  0  0  0  0  0  0  0  # atno 8010 bound_to 7997
  140.3947  143.2689  151.9220 H   0  0  0  0  0  0  0  0  0  0  0  0  # atno 10167 bound_to 10162
  156.5443  130.4686  149.6483 H   0  0  0  0  0  0  0  0  0  0  0  0  # atno 10718 bound_to 10713
  154.5491  135.5667  153.6906 H   0  0  0  0  0  0  0  0  0  0  0  0  # atno 10763 bound_to 10752
  152.9984  135.6246  154.2398 H   0  0  0  0  0  0  0  0  0  0  0  0  # atno 10764 bound_to 10752
  154.2332  135.2865  155.2862 H   0  0  0  0  0  0  0  0  0  0  0  0  # atno 10765 bound_to 10752
  140.2129  134.3733  155.8040 H   0  0  0  0  0  0  0  0  0  0  0  0  # atno 11005 bound_to 11000
  146.1956  140.6270  142.9125 LP  0  0  0  0  0  0  0  0  0  0  0  0  # atno 17320 bound_to 7965
  144.7558  140.5304  143.6770 LP  0  0  0  0  0  0  0  0  0  0  0  0  # atno 17321 bound_to 7965
  139.4787  144.5693  151.8114 LP  0  0  0  0  0  0  0  0  0  0  0  0  # atno 17342 bound_to 10162
  140.4803  144.1459  150.5931 LP  0  0  0  0  0  0  0  0  0  0  0  0  # atno 17343 bound_to 10162
  156.2943  130.7141  151.1998 LP  0  0  0  0  0  0  0  0  0  0  0  0  # atno 17370 bound_to 10713
  157.7399  131.0523  150.5198 LP  0  0  0  0  0  0  0  0  0  0  0  0  # atno 17371 bound_to 10713
  141.2225  133.7152  156.8448 LP  0  0  0  0  0  0  0  0  0  0  0  0  # atno 17394 bound_to 11000
  140.1931  134.8951  157.3084 LP  0  0  0  0  0  0  0  0  0  0  0  0  # atno 17395 bound_to 11000

$$$$
