AV-unprocessed.smi:3078|AV-procd|sdf|11731|dock4
  -GOLD-   2272017123D 1   1.00000     0.00000
 Structure written by MMmdl.
 23 23  0  0  0  0  0  0  0  0  2 V2000
  142.4865  135.3085  152.9341 C   0  0  0  0  0  0  0  0  0  0  0  0
  143.8052  135.8948  152.8250 N   0  0  0  0  0  0  0  0  0  0  0  0
  144.1494  137.1819  152.4730 C   0  0  0  0  0  0  0  0  0  0  0  0
  145.5144  137.2685  152.5108 C   0  0  0  0  0  0  0  0  0  0  0  0
  146.4064  138.4423  152.2031 C   0  0  2  0  0  0  0  0  0  0  0  0
  147.3430  138.1055  151.1456 N   0  0  0  0  0  0  0  0  0  0  0  0
  147.1983  138.8669  153.4530 C   0  0  0  0  0  0  0  0  0  0  0  0
  148.6517  138.7386  153.2499 N   0  3  0  0  0  0  0  0  0  0  0  0
  145.9142  135.9571  152.8984 C   0  0  0  0  0  0  0  0  0  0  0  0
  144.8914  135.1402  153.0874 N   0  0  0  0  0  0  0  0  0  0  0  0
  141.7302  136.0246  152.6112 H   0  0  0  0  0  0  0  0  0  0  0  0
  142.2924  135.0297  153.9700 H   0  0  0  0  0  0  0  0  0  0  0  0
  142.4235  134.4195  152.3056 H   0  0  0  0  0  0  0  0  0  0  0  0
  143.4031  137.9228  152.2258 H   0  0  0  0  0  0  0  0  0  0  0  0
  145.8061  139.2845  151.8561 H   0  0  0  0  0  0  0  0  0  0  0  0
  147.9456  138.8962  150.9640 H   0  0  0  0  0  0  0  0  0  0  0  0
  147.9454  137.3530  151.4486 H   0  0  0  0  0  0  0  0  0  0  0  0
  146.9910  139.9120  153.6862 H   0  0  0  0  0  0  0  0  0  0  0  0
  146.8997  138.2825  154.3248 H   0  0  0  0  0  0  0  0  0  0  0  0
  149.1267  138.8401  154.1353 H   0  0  0  0  0  0  0  0  0  0  0  0
  148.9681  139.4546  152.6119 H   0  0  0  0  0  0  0  0  0  0  0  0
  146.9141  135.5770  153.0474 H   0  0  0  0  0  0  0  0  0  0  0  0
  148.8523  137.8279  152.8614 H   0  0  0  0  0  0  0  0  0  0  0  0
  1  2  1  0  0  0  0
  1 11  1  0  0  0  0
  1 12  1  0  0  0  0
  1 13  1  0  0  0  0
  2 10  1  0  0  0  0
  2  3  1  0  0  0  0
  3  4  2  0  0  0  0
  3 14  1  0  0  0  0
  4  5  1  0  0  0  0
  4  9  1  0  0  0  0
  5  6  1  0  0  0  0
  5  7  1  0  0  0  0
  5 15  1  0  0  0  0
  6 16  1  0  0  0  0
  6 17  1  0  0  0  0
  7  8  1  0  0  0  0
  7 18  1  0  0  0  0
  7 19  1  0  0  0  0
  8 20  1  0  0  0  0
  8 21  1  0  0  0  0
  8 23  1  0  0  0  0
  9 10  2  0  0  0  0
  9 22  1  0  0  0  0
M  CHG  1   8   1
M  END
> <s_m_source_file>
AV-unprocessed.smi

> <i_m_source_file_index>
3078

> <i_lp_mmshare_version>
43012

> <i_f3d_flags>
0

> <s_epik_input>
W0NIM11uMVtjSF1jKFtjSF1uMSlbQ0BIXShbTkgyXSlbQ0gyXVtOSDJd

> <s_epik_cmdline>
J2VwaWtfcHl0aG9uJywgJy1waCcsICc3LjAnLCAnLXRuJywgJzgnLCAnLW1hJywgJzIwMCcsICctbWV0YWxfYmluZGluZycsICctaW1hZScsICc8aW5maWxlLm1hZT4nLCAnLW9tYWUnLCAnPG91dGZpbGUubWFlPic=

> <r_lp_tautomer_probability>
1

> <r_epik_Ionization_Penalty>
0.0498714

> <r_epik_Ionization_Penalty_Charging>
0.00651912

> <r_epik_Ionization_Penalty_Neutral>
0.0433523

> <r_epik_State_Penalty>
0.141593

> <r_epik_Charging_Adjusted_Penalty>
0.148112

> <i_epik_Tot_Q>
1

> <i_epik_Tot_abs_Q>
1

> <r_epik_Metal_State_Penalty>
0.141584

> <b_epik_Metal_Only>
0

> <s_lp_Force_Field>
OPLS_2005

> <r_lp_Energy>
-1.23343

> <b_lp_Chiralities_Consistent>
1

> <s_lp_Variant>
AV-unprocessed.smi:3078-1

> <Gold.Version>
5.8.1

> <Gold.Id.Protein>
6NUR|6NUR_protein|mol2

> <Gold.PLP.Fitness>
38.8181

> <Gold.PLP.PLP>
-18.1741

> <Gold.PLP.part.hbond>
-4.8767

> <Gold.PLP.part.metal>
0.0000

> <Gold.PLP.part.buried>
-0.3050

> <Gold.PLP.part.nonpolar>
-12.4538

> <Gold.PLP.part.repulsive>
0.1380

> <Gold.PLP.ligand.clash>
0.0000

> <Gold.PLP.ligand.torsion>
0.7666

> <Gold.PLP.Chemscore.Hbond>
4.9500

> <Gold.PLP.Chemscore.CHOScore>
2.4415

> <Gold.PLP.Chemscore.Metal>
0.0000

> <Gold.Chemscore.Hbonds>
donor molecule, donor type, donor heavy atom, donor atom, acceptor molecule, acceptor atom, score
      L1  H     6    16       P1  7957  0.90
      L1  H     6    17       P1  7948  0.98
      L1  H     8    21       P1  7957  1.00
      L1  H     8    23       P1  7948  2.00
      L1  C     3    14       P1 10171  0.53
      L1  C     3    14       P1 10175  0.94
      L1  C     9    22       P1  7948  0.95

> <Gold.PLP.Chemscore.Internal.Correction>
0.0027

> <Gold.Rescore>
     Score         DG    S(hbond)    S(metal)    S(lipo)     H(rot)  DE(clash)    DE(int)     intcor
     17.21     -18.16       3.81        0.00      30.51       1.41       0.25       0.69       ----

> <Gold.Chemscore.Fitness>
17.2112

> <Gold.Chemscore.DG>
-18.1556

> <Gold.Chemscore.ZeroCoef>
-5.4800

> <Gold.Chemscore.Hbond>
3.8089

> <Gold.Chemscore.Metal>
0.0000

> <Gold.Chemscore.Lipo>
30.5080

> <Gold.Chemscore.Internal_Hbond>
0.0000

> <Gold.Chemscore.DEClash>
0.2550

> <Gold.Chemscore.DEInternal>
0.6895

> <Gold.Chemscore.Rot>
1.4123

> <Gold.Chemscore.Internal.Correction>
   9.000000E+99

> <Gold.Chemscore.Hbonds>
donor molecule, donor type, donor heavy atom, donor atom, acceptor molecule, acceptor atom, score
      L1  H     6    16       P1  7957  0.17
      L1  H     6    17       P1  7948  0.91
      L1  H     8    21       P1  7957  0.98
      L1  H     8    23       P1  7948  1.00

> <Gold.Chemscore.Hbond.Weighted>
-12.7216

> <Gold.Chemscore.Metal.Weighted>
-0.0000

> <Gold.Chemscore.Lipo.Weighted>
-3.5694

> <Gold.Chemscore.Internal_Hbond.Weighted>
0.0000

> <Gold.Chemscore.DEClash.Weighted>
0.2550

> <Gold.Chemscore.DEInternal.Weighted>
0.6895

> <Gold.Chemscore.Rot.Weighted>
3.6154

> <Gold.Chemscore.Internal.Correction.Weighted>
   9.000000E+99

> <Gold.Protein.RotatedTorsions>
[ 6907 6896 6895 6894 ] final -161.94 input  -60.11 | X-H torsion
[ 7974 7965 7964 7962 ] final -104.83 input  175.53 | X-H torsion
[ 8008 7997 7996 7995 ] final  146.91 input   59.86 | X-H torsion
[ 10167 10162 10161 10158 ] final  -44.01 input  -65.29 | X-H torsion
[ 10718 10713 10712 10709 ] final   15.69 input   66.30 | X-H torsion
[ 10763 10752 10751 10750 ] final -176.87 input  -60.55 | X-H torsion
[ 11005 11000 10999 10996 ] final  -94.81 input  -57.11 | X-H torsion

> <Gold.Protein.ActiveResidues>
 VAL166  LYS551  ARG553  GLY616  TRP617  ASP618  TYR619  PRO620  LYS621  CYS622 
 ASP623  PHE694  ASN695  SER759  ASP760  ASP761  ALA762  ILE779  LEU786  VAL792 
 PHE793  MET794  SER795  GLU796  ALA797  LYS798  CYS799  TRP800  GLU811  SER814 

> <Gold.Protein.RotatedAtoms>
  151.3725  133.3849  159.2700 H   0  0  0  0  0  0  0  0  0  0  0  0  # atno 6907 bound_to 6896
  150.9640  134.9024  159.7758 H   0  0  0  0  0  0  0  0  0  0  0  0  # atno 6908 bound_to 6896
  152.5160  134.3685  159.9362 H   0  0  0  0  0  0  0  0  0  0  0  0  # atno 6909 bound_to 6896
  145.2381  140.9195  143.3166 H   0  0  0  0  0  0  0  0  0  0  0  0  # atno 7974 bound_to 7965
  156.2841  140.2170  156.5453 H   0  0  0  0  0  0  0  0  0  0  0  0  # atno 8008 bound_to 7997
  154.7336  140.0493  157.0771 H   0  0  0  0  0  0  0  0  0  0  0  0  # atno 8009 bound_to 7997
  155.0321  140.3136  155.4757 H   0  0  0  0  0  0  0  0  0  0  0  0  # atno 8010 bound_to 7997
  140.6913  143.2953  151.3433 H   0  0  0  0  0  0  0  0  0  0  0  0  # atno 10167 bound_to 10162
  157.0572  130.6294  149.5779 H   0  0  0  0  0  0  0  0  0  0  0  0  # atno 10718 bound_to 10713
  154.5671  135.2825  155.0863 H   0  0  0  0  0  0  0  0  0  0  0  0  # atno 10763 bound_to 10752
  154.2250  135.6384  153.5160 H   0  0  0  0  0  0  0  0  0  0  0  0  # atno 10764 bound_to 10752
  153.0046  135.5523  154.6283 H   0  0  0  0  0  0  0  0  0  0  0  0  # atno 10765 bound_to 10752
  141.1460  133.7982  157.0348 H   0  0  0  0  0  0  0  0  0  0  0  0  # atno 11005 bound_to 11000
  144.9614  139.3976  143.6354 LP  0  0  0  0  0  0  0  0  0  0  0  0  # atno 17320 bound_to 7965
  146.3335  139.8669  142.8846 LP  0  0  0  0  0  0  0  0  0  0  0  0  # atno 17321 bound_to 7965
  139.6319  144.0705  152.2483 LP  0  0  0  0  0  0  0  0  0  0  0  0  # atno 17342 bound_to 10162
  140.0182  144.6173  150.7589 LP  0  0  0  0  0  0  0  0  0  0  0  0  # atno 17343 bound_to 10162
  155.9989  130.5064  150.7589 LP  0  0  0  0  0  0  0  0  0  0  0  0  # atno 17370 bound_to 10713
  157.4984  131.0916  151.0344 LP  0  0  0  0  0  0  0  0  0  0  0  0  # atno 17371 bound_to 10713
  140.0730  134.9691  157.1499 LP  0  0  0  0  0  0  0  0  0  0  0  0  # atno 17394 bound_to 11000
  140.3683  134.2418  155.7180 LP  0  0  0  0  0  0  0  0  0  0  0  0  # atno 17395 bound_to 11000

$$$$
