AV-unprocessed.smi:428|AV-procd|sdf|2544|dock1
  -GOLD-   2262022503D 1   1.00000     0.00000
 Structure written by MMmdl.
 40 41  0  0  0  0  0  0  0  0  1 V2000
  152.3713  143.7225  161.2321 C   0  0  0  0  0  0  0  0  0  0  0  0
  152.6211  142.3507  160.5956 C   0  0  0  0  0  0  0  0  0  0  0  0
  153.8264  141.6254  161.2204 C   0  0  0  0  0  0  0  0  0  0  0  0
  154.2247  140.3517  160.4678 C   0  0  0  0  0  0  0  0  0  0  0  0
  154.6531  140.4094  159.3148 O   0  0  0  0  0  0  0  0  0  0  0  0
  154.0861  139.2006  161.1435 N   0  0  0  0  0  0  0  0  0  0  0  0
  154.4029  137.8738  160.6222 C   0  0  0  0  0  0  0  0  0  0  0  0
  154.5062  136.7669  161.6654 C   0  0  0  0  0  0  0  0  0  0  0  0
  154.1646  137.0440  163.0036 C   0  0  0  0  0  0  0  0  0  0  0  0
  154.2730  136.0241  163.9676 C   0  0  0  0  0  0  0  0  0  0  0  0
  154.7231  134.7437  163.5688 C   0  0  0  0  0  0  0  0  0  0  0  0
  154.8426  133.7077  164.5199 N   0  0  0  0  0  0  0  0  0  0  0  0
  154.0813  132.4807  164.2943 C   0  0  0  0  0  0  0  0  0  0  0  0
  154.1128  131.5933  165.5500 C   0  0  0  0  0  0  0  0  0  0  0  0
  155.4634  131.3398  165.9230 O   0  0  0  0  0  0  0  0  0  0  0  0
  156.1579  132.5405  166.2441 C   0  0  0  0  0  0  0  0  0  0  0  0
  156.1949  133.4669  165.0163 C   0  0  0  0  0  0  0  0  0  0  0  0
  155.0472  134.4759  162.2800 N   0  0  0  0  0  0  0  0  0  0  0  0
  154.9449  135.4588  161.3606 C   0  0  0  0  0  0  0  0  0  0  0  0
  151.5144  144.2143  160.7711 H   0  0  0  0  0  0  0  0  0  0  0  0
  153.2355  144.3762  161.1110 H   0  0  0  0  0  0  0  0  0  0  0  0
  152.1671  143.6301  162.2990 H   0  0  0  0  0  0  0  0  0  0  0  0
  151.7240  141.7393  160.7034 H   0  0  0  0  0  0  0  0  0  0  0  0
  152.7799  142.4823  159.5244 H   0  0  0  0  0  0  0  0  0  0  0  0
  154.6890  142.2919  161.2470 H   0  0  0  0  0  0  0  0  0  0  0  0
  153.5980  141.3688  162.2561 H   0  0  0  0  0  0  0  0  0  0  0  0
  153.7311  139.2461  162.0878 H   0  0  0  0  0  0  0  0  0  0  0  0
  153.6194  137.5994  159.9157 H   0  0  0  0  0  0  0  0  0  0  0  0
  155.3302  137.9112  160.0480 H   0  0  0  0  0  0  0  0  0  0  0  0
  153.8224  138.0275  163.2908 H   0  0  0  0  0  0  0  0  0  0  0  0
  153.9990  136.2292  164.9919 H   0  0  0  0  0  0  0  0  0  0  0  0
  153.0466  132.7201  164.0454 H   0  0  0  0  0  0  0  0  0  0  0  0
  154.5061  131.9417  163.4464 H   0  0  0  0  0  0  0  0  0  0  0  0
  153.5788  132.0669  166.3754 H   0  0  0  0  0  0  0  0  0  0  0  0
  153.6145  130.6443  165.3519 H   0  0  0  0  0  0  0  0  0  0  0  0
  155.6778  133.0357  167.0897 H   0  0  0  0  0  0  0  0  0  0  0  0
  157.1721  132.2910  166.5555 H   0  0  0  0  0  0  0  0  0  0  0  0
  156.7838  133.0075  164.2212 H   0  0  0  0  0  0  0  0  0  0  0  0
  156.6963  134.3953  165.2863 H   0  0  0  0  0  0  0  0  0  0  0  0
  155.2280  135.1795  160.3569 H   0  0  0  0  0  0  0  0  0  0  0  0
  1  2  1  0  0  0  0
  1 20  1  0  0  0  0
  1 21  1  0  0  0  0
  1 22  1  0  0  0  0
  2  3  1  0  0  0  0
  2 23  1  0  0  0  0
  2 24  1  0  0  0  0
  3  4  1  0  0  0  0
  3 25  1  0  0  0  0
  3 26  1  0  0  0  0
  4  5  2  0  0  0  0
  4  6  1  0  0  0  0
  6  7  1  0  0  0  0
  6 27  1  0  0  0  0
  7  8  1  0  0  0  0
  7 28  1  0  0  0  0
  7 29  1  0  0  0  0
  8 19  1  0  0  0  0
  8  9  2  0  0  0  0
  9 10  1  0  0  0  0
  9 30  1  0  0  0  0
 10 11  2  0  0  0  0
 10 31  1  0  0  0  0
 11 12  1  0  0  0  0
 11 18  1  0  0  0  0
 12 17  1  0  0  0  0
 12 13  1  0  0  0  0
 13 14  1  0  0  0  0
 13 32  1  0  0  0  0
 13 33  1  0  0  0  0
 14 15  1  0  0  0  0
 14 34  1  0  0  0  0
 14 35  1  0  0  0  0
 15 16  1  0  0  0  0
 16 17  1  0  0  0  0
 16 36  1  0  0  0  0
 16 37  1  0  0  0  0
 17 38  1  0  0  0  0
 17 39  1  0  0  0  0
 18 19  2  0  0  0  0
 19 40  1  0  0  0  0
M  END
> <s_m_source_file>
AV-unprocessed.smi

> <i_m_source_file_index>
428

> <i_lp_mmshare_version>
43012

> <i_f3d_flags>
0

> <s_epik_input>
W0NIM11bQ0gyXVtDSDJdQyg9TylbTkhdW0NIMl1jMVtjSF1bY0hdYyhuW2NIXTEpTjJbQ0gyXVtDSDJdT1tDSDJdW0NIMl0y

> <s_epik_cmdline>
J2VwaWtfcHl0aG9uJywgJy1waCcsICc3LjAnLCAnLXRuJywgJzgnLCAnLW1hJywgJzIwMCcsICctbWV0YWxfYmluZGluZycsICctaW1hZScsICc8aW5maWxlLm1hZT4nLCAnLW9tYWUnLCAnPG91dGZpbGUubWFlPic=

> <r_lp_tautomer_probability>
1

> <r_epik_Ionization_Penalty>
0.00505548

> <r_epik_Ionization_Penalty_Charging>
0

> <r_epik_Ionization_Penalty_Neutral>
0.00505548

> <r_epik_State_Penalty>
0.00367784

> <r_epik_Charging_Adjusted_Penalty>
0.00367784

> <i_epik_Tot_Q>
0

> <i_epik_Tot_abs_Q>
0

> <r_epik_Metal_State_Penalty>
-0

> <b_epik_Metal_Only>
0

> <s_lp_Force_Field>
OPLS_2005

> <r_lp_Energy>
16.3878

> <b_lp_Chiralities_Consistent>
1

> <s_lp_Variant>
AV-unprocessed.smi:428-1

> <Gold.Version>
5.8.1

> <Gold.Id.Protein>
6NUR|6NUR_protein|mol2

> <Gold.PLP.Fitness>
37.2652

> <Gold.PLP.PLP>
-35.4896

> <Gold.PLP.part.hbond>
-1.0000

> <Gold.PLP.part.metal>
0.0000

> <Gold.PLP.part.buried>
-3.3106

> <Gold.PLP.part.nonpolar>
-31.2141

> <Gold.PLP.part.repulsive>
0.0817

> <Gold.PLP.ligand.clash>
0.0000

> <Gold.PLP.ligand.torsion>
0.4686

> <Gold.PLP.Chemscore.Hbond>
0.7930

> <Gold.PLP.Chemscore.CHOScore>
0.0000

> <Gold.PLP.Chemscore.Metal>
0.0000

> <Gold.Chemscore.Hbonds>
donor molecule, donor type, donor heavy atom, donor atom, acceptor molecule, acceptor atom, score
      P1  H  7997  8009       L1     5  0.70

> <Gold.PLP.Chemscore.Internal.Correction>
0.3339

> <Gold.Rescore>
     Score         DG    S(hbond)    S(metal)    S(lipo)     H(rot)  DE(clash)    DE(int)     intcor
     14.62     -15.30       0.91        0.00      94.98       1.69       0.32       0.36       ----

> <Gold.Chemscore.Fitness>
14.6183

> <Gold.Chemscore.DG>
-15.2978

> <Gold.Chemscore.ZeroCoef>
-5.4800

> <Gold.Chemscore.Hbond>
0.9095

> <Gold.Chemscore.Metal>
0.0000

> <Gold.Chemscore.Lipo>
94.9848

> <Gold.Chemscore.Internal_Hbond>
0.0000

> <Gold.Chemscore.DEClash>
0.3225

> <Gold.Chemscore.DEInternal>
0.3570

> <Gold.Chemscore.Rot>
1.6926

> <Gold.Chemscore.Internal.Correction>
   9.000000E+99

> <Gold.Chemscore.Hbonds>
donor molecule, donor type, donor heavy atom, donor atom, acceptor molecule, acceptor atom, score
      P1  H  7997  8009       L1     5  0.68

> <Gold.Chemscore.Hbond.Weighted>
-3.0376

> <Gold.Chemscore.Metal.Weighted>
-0.0000

> <Gold.Chemscore.Lipo.Weighted>
-11.1132

> <Gold.Chemscore.Internal_Hbond.Weighted>
0.0000

> <Gold.Chemscore.DEClash.Weighted>
0.3225

> <Gold.Chemscore.DEInternal.Weighted>
0.3570

> <Gold.Chemscore.Rot.Weighted>
4.3330

> <Gold.Chemscore.Internal.Correction.Weighted>
   9.000000E+99

> <Gold.Protein.RotatedTorsions>
[ 6907 6896 6895 6894 ] final  -70.89 input  -60.11 | X-H torsion
[ 7974 7965 7964 7962 ] final  -29.42 input  175.53 | X-H torsion
[ 8008 7997 7996 7995 ] final  110.36 input   59.86 | X-H torsion
[ 10167 10162 10161 10158 ] final  103.03 input  -65.29 | X-H torsion
[ 10718 10713 10712 10709 ] final   69.11 input   66.30 | X-H torsion
[ 10763 10752 10751 10750 ] final  -92.51 input  -60.55 | X-H torsion
[ 11005 11000 10999 10996 ] final  138.94 input  -57.11 | X-H torsion

> <Gold.Protein.ActiveResidues>
 VAL166  LYS551  ARG553  GLY616  TRP617  ASP618  TYR619  PRO620  LYS621  CYS622 
 ASP623  PHE694  ASN695  SER759  ASP760  ASP761  ALA762  ILE779  LEU786  VAL792 
 PHE793  MET794  SER795  GLU796  ALA797  LYS798  CYS799  TRP800  GLU811  SER814 

> <Gold.Protein.RotatedAtoms>
  150.7237  134.5387  159.5736 H   0  0  0  0  0  0  0  0  0  0  0  0  # atno 6907 bound_to 6896
  152.2903  134.7726  160.0388 H   0  0  0  0  0  0  0  0  0  0  0  0  # atno 6908 bound_to 6896
  151.8342  133.3378  159.3659 H   0  0  0  0  0  0  0  0  0  0  0  0  # atno 6909 bound_to 6896
  146.1217  140.5410  142.8732 H   0  0  0  0  0  0  0  0  0  0  0  0  # atno 7974 bound_to 7965
  156.2047  140.3040  155.9601 H   0  0  0  0  0  0  0  0  0  0  0  0  # atno 8008 bound_to 7997
  155.2870  140.0440  157.3037 H   0  0  0  0  0  0  0  0  0  0  0  0  # atno 8009 bound_to 7997
  154.5617  140.2322  155.8334 H   0  0  0  0  0  0  0  0  0  0  0  0  # atno 8010 bound_to 7997
  139.7298  144.7038  151.0740 H   0  0  0  0  0  0  0  0  0  0  0  0  # atno 10167 bound_to 10162
  157.6327  130.9408  150.0469 H   0  0  0  0  0  0  0  0  0  0  0  0  # atno 10718 bound_to 10713
  154.6868  135.5228  153.8338 H   0  0  0  0  0  0  0  0  0  0  0  0  # atno 10763 bound_to 10752
  153.0604  135.6566  154.0487 H   0  0  0  0  0  0  0  0  0  0  0  0  # atno 10764 bound_to 10752
  154.0367  135.2980  155.3340 H   0  0  0  0  0  0  0  0  0  0  0  0  # atno 10765 bound_to 10752
  140.0219  134.9393  157.0491 H   0  0  0  0  0  0  0  0  0  0  0  0  # atno 11005 bound_to 11000
  144.7604  140.5408  143.6739 LP  0  0  0  0  0  0  0  0  0  0  0  0  # atno 17320 bound_to 7965
  145.5451  139.1476  143.3425 LP  0  0  0  0  0  0  0  0  0  0  0  0  # atno 17321 bound_to 7965
  140.7769  143.5058  150.9714 LP  0  0  0  0  0  0  0  0  0  0  0  0  # atno 17342 bound_to 10162
  139.8745  143.7149  152.3163 LP  0  0  0  0  0  0  0  0  0  0  0  0  # atno 17343 bound_to 10162
  156.1543  130.3643  149.9392 LP  0  0  0  0  0  0  0  0  0  0  0  0  # atno 17370 bound_to 10713
  156.7405  130.9077  151.3632 LP  0  0  0  0  0  0  0  0  0  0  0  0  # atno 17371 bound_to 10713
  140.4373  134.1718  155.7171 LP  0  0  0  0  0  0  0  0  0  0  0  0  # atno 17394 bound_to 11000
  141.1779  133.8476  157.1359 LP  0  0  0  0  0  0  0  0  0  0  0  0  # atno 17395 bound_to 11000

$$$$
