AV-unprocessed.smi:209|AV-procd|sdf|1607|dock9
  -GOLD-   2262019523D 1   1.00000     0.00000
 Structure written by MMmdl.
 48 52  0  0  0  0  0  0  0  0  1 V2000
  143.4900  131.5864  150.1696 O   0  0  0  0  0  0  0  0  0  0  0  0
  144.1647  132.6032  150.3173 C   0  0  0  0  0  0  0  0  0  0  0  0
  143.7310  133.8559  150.1877 N   0  0  0  0  0  0  0  0  0  0  0  0
  144.7431  134.8464  150.5131 C   0  0  0  0  0  0  0  0  0  0  0  0
  145.8749  134.0387  151.1960 C   0  0  2  0  0  0  0  0  0  0  0  0
  145.6508  132.6081  150.6472 C   0  0  1  0  0  0  0  0  0  0  0  0
  146.1577  131.4610  151.5470 C   0  0  0  0  0  0  0  0  0  0  0  0
  145.8517  131.7069  153.0268 C   0  0  0  0  0  0  0  0  0  0  0  0
  146.3951  133.0757  153.4468 C   0  0  0  0  0  0  0  0  0  0  0  0
  145.7614  134.1326  152.6636 N   0  0  0  0  0  0  0  0  0  0  0  0
  145.9168  135.3544  153.2355 C   0  0  0  0  0  0  0  0  0  0  0  0
  144.9524  136.3029  153.0937 N   0  0  0  0  0  0  0  0  0  0  0  0
  145.1060  137.5085  153.6494 C   0  0  0  0  0  0  0  0  0  0  0  0
  146.1269  137.9691  154.3748 N   0  0  0  0  0  0  0  0  0  0  0  0
  147.0966  137.0215  154.5215 C   0  0  0  0  0  0  0  0  0  0  0  0
  147.0722  135.7018  153.9896 C   0  0  0  0  0  0  0  0  0  0  0  0
  148.2285  135.0230  154.3540 N   0  0  0  0  0  0  0  0  0  0  0  0
  148.9010  135.8939  155.0560 C   0  0  0  0  0  0  0  0  0  0  0  0
  148.2989  137.1239  155.2002 N   0  0  0  0  0  0  0  0  0  0  0  0
  148.8172  138.2706  155.9310 C   0  0  0  0  0  0  0  0  0  0  0  0
  149.5801  139.2792  155.0518 C   0  0  0  0  0  0  0  0  0  0  0  0
  148.5570  140.1999  154.3564 C   0  0  0  0  0  0  0  0  0  0  0  0
  149.1206  140.9158  153.2751 O   0  0  0  0  0  0  0  0  0  0  0  0
  150.7597  139.9755  155.7454 C   0  0  0  0  0  0  0  0  0  0  0  0
  151.6812  139.5869  154.7028 O   0  0  0  0  0  0  0  0  0  0  0  0
  150.6824  138.6985  154.1545 C   0  0  0  0  0  0  0  0  0  0  0  0
  146.8548  134.4036  150.8854 H   0  0  0  0  0  0  0  0  0  0  0  0
  146.1544  132.5238  149.6829 H   0  0  0  0  0  0  0  0  0  0  0  0
  142.7784  134.1042  149.9623 H   0  0  0  0  0  0  0  0  0  0  0  0
  145.0993  135.2927  149.5840 H   0  0  0  0  0  0  0  0  0  0  0  0
  144.3250  135.6456  151.1257 H   0  0  0  0  0  0  0  0  0  0  0  0
  145.7368  130.5055  151.2312 H   0  0  0  0  0  0  0  0  0  0  0  0
  147.2370  131.3677  151.4208 H   0  0  0  0  0  0  0  0  0  0  0  0
  144.7763  131.6607  153.2035 H   0  0  0  0  0  0  0  0  0  0  0  0
  146.3030  130.9227  153.6350 H   0  0  0  0  0  0  0  0  0  0  0  0
  146.2207  133.2163  154.5138 H   0  0  0  0  0  0  0  0  0  0  0  0
  147.4749  133.1161  153.2965 H   0  0  0  0  0  0  0  0  0  0  0  0
  144.2955  138.2038  153.4883 H   0  0  0  0  0  0  0  0  0  0  0  0
  149.8608  135.6581  155.4921 H   0  0  0  0  0  0  0  0  0  0  0  0
  147.9863  138.7607  156.4401 H   0  0  0  0  0  0  0  0  0  0  0  0
  149.4619  137.8896  156.7240 H   0  0  0  0  0  0  0  0  0  0  0  0
  147.7187  139.6278  153.9590 H   0  0  0  0  0  0  0  0  0  0  0  0
  148.1430  140.9217  155.0610 H   0  0  0  0  0  0  0  0  0  0  0  0
  149.2713  140.3145  152.5616 H   0  0  0  0  0  0  0  0  0  0  0  0
  150.6567  141.0575  155.8343 H   0  0  0  0  0  0  0  0  0  0  0  0
  151.0312  139.5361  156.7066 H   0  0  0  0  0  0  0  0  0  0  0  0
  150.9217  137.6546  154.3597 H   0  0  0  0  0  0  0  0  0  0  0  0
  150.5207  138.8564  153.0876 H   0  0  0  0  0  0  0  0  0  0  0  0
  1  2  2  0  0  0  0
  2  6  1  0  0  0  0
  2  3  1  0  0  0  0
  3  4  1  0  0  0  0
  3 29  1  0  0  0  0
  4  5  1  0  0  0  0
  4 30  1  0  0  0  0
  4 31  1  0  0  0  0
  5 27  1  0  0  0  0
  5 10  1  0  0  0  0
  5  6  1  0  0  0  0
  6 28  1  0  0  0  0
  6  7  1  0  0  0  0
  7  8  1  0  0  0  0
  7 32  1  0  0  0  0
  7 33  1  0  0  0  0
  8  9  1  0  0  0  0
  8 34  1  0  0  0  0
  8 35  1  0  0  0  0
  9 10  1  0  0  0  0
  9 36  1  0  0  0  0
  9 37  1  0  0  0  0
 10 11  1  0  0  0  0
 11 16  1  0  0  0  0
 11 12  2  0  0  0  0
 12 13  1  0  0  0  0
 13 14  2  0  0  0  0
 13 38  1  0  0  0  0
 14 15  1  0  0  0  0
 15 19  1  0  0  0  0
 15 16  2  0  0  0  0
 16 17  1  0  0  0  0
 17 18  2  0  0  0  0
 18 19  1  0  0  0  0
 18 39  1  0  0  0  0
 19 20  1  0  0  0  0
 20 21  1  0  0  0  0
 20 40  1  0  0  0  0
 20 41  1  0  0  0  0
 21 26  1  0  0  0  0
 21 22  1  0  0  0  0
 21 24  1  0  0  0  0
 22 23  1  0  0  0  0
 22 42  1  0  0  0  0
 22 43  1  0  0  0  0
 23 44  1  0  0  0  0
 24 25  1  0  0  0  0
 24 45  1  0  0  0  0
 24 46  1  0  0  0  0
 25 26  1  0  0  0  0
 26 47  1  0  0  0  0
 26 48  1  0  0  0  0
M  END
> <s_m_source_file>
AV-unprocessed.smi

> <i_m_source_file_index>
209

> <i_lp_mmshare_version>
43012

> <i_f3d_flags>
0

> <s_epik_input>
W0NIMl0xW05IXUMoPU8pW0NAQEhdKFtDQEBIXTEyKVtDSDJdW0NIMl1bQ0gyXU4yYyhuW2NIXW4zKWMoYzM0KW5bY0hdbjRbQ0gyXUM1KFtDSDJdW09IXSlbQ0gyXU9bQ0gyXTU=

> <s_epik_cmdline>
J2VwaWtfcHl0aG9uJywgJy1waCcsICc3LjAnLCAnLXRuJywgJzgnLCAnLW1hJywgJzIwMCcsICctbWV0YWxfYmluZGluZycsICctaW1hZScsICc8aW5maWxlLm1hZT4nLCAnLW9tYWUnLCAnPG91dGZpbGUubWFlPic=

> <r_lp_tautomer_probability>
1

> <r_epik_Ionization_Penalty>
0.00113306

> <r_epik_Ionization_Penalty_Charging>
0

> <r_epik_Ionization_Penalty_Neutral>
0.00113306

> <r_epik_State_Penalty>
0.000624042

> <r_epik_Charging_Adjusted_Penalty>
0.000624042

> <i_epik_Tot_Q>
0

> <i_epik_Tot_abs_Q>
0

> <r_epik_Metal_State_Penalty>
-0

> <b_epik_Metal_Only>
0

> <s_lp_Force_Field>
OPLS_2005

> <r_lp_Energy>
50.3938

> <b_lp_Chiralities_Consistent>
1

> <s_lp_Variant>
AV-unprocessed.smi:209-1

> <Gold.Version>
5.8.1

> <Gold.Id.Protein>
6NUR|6NUR_protein|mol2

> <Gold.PLP.Fitness>
45.2740

> <Gold.PLP.PLP>
-30.9533

> <Gold.PLP.part.hbond>
-5.3791

> <Gold.PLP.part.metal>
0.0000

> <Gold.PLP.part.buried>
-4.2656

> <Gold.PLP.part.nonpolar>
-24.1715

> <Gold.PLP.part.repulsive>
3.0882

> <Gold.PLP.ligand.clash>
0.0000

> <Gold.PLP.ligand.torsion>
1.4466

> <Gold.PLP.Chemscore.Hbond>
4.5135

> <Gold.PLP.Chemscore.CHOScore>
0.9925

> <Gold.PLP.Chemscore.Metal>
0.0000

> <Gold.Chemscore.Hbonds>
donor molecule, donor type, donor heavy atom, donor atom, acceptor molecule, acceptor atom, score
      L1  H     3    29       P1 10186  1.00
      L1  H    23    44       P1  7957  0.84
      P1  H  7989  7998       L1    25  1.00
      P1  H  8011  8017       L1    23  0.70
      P1  H 10785 10796       L1     1  0.92
      L1  C    13    38       P1 10175  0.97

> <Gold.PLP.Chemscore.Internal.Correction>
0.6958

> <Gold.Rescore>
     Score         DG    S(hbond)    S(metal)    S(lipo)     H(rot)  DE(clash)    DE(int)     intcor
     12.94     -17.22       3.42        0.00      60.90       2.66       0.54       3.75       ----

> <Gold.Chemscore.Fitness>
12.9410

> <Gold.Chemscore.DG>
-17.2244

> <Gold.Chemscore.ZeroCoef>
-5.4800

> <Gold.Chemscore.Hbond>
3.4234

> <Gold.Chemscore.Metal>
0.0000

> <Gold.Chemscore.Lipo>
60.8973

> <Gold.Chemscore.Internal_Hbond>
0.0000

> <Gold.Chemscore.DEClash>
0.5359

> <Gold.Chemscore.DEInternal>
3.7475

> <Gold.Chemscore.Rot>
2.6620

> <Gold.Chemscore.Internal.Correction>
   9.000000E+99

> <Gold.Chemscore.Hbonds>
donor molecule, donor type, donor heavy atom, donor atom, acceptor molecule, acceptor atom, score
      L1  H     3    29       P1 10186  0.99
      L1  H    23    44       P1  7957  0.78
      P1  H  7989  7998       L1    25  0.15
      P1  H  8011  8017       L1    23  0.07
      P1  H 10785 10796       L1     1  0.84

> <Gold.Chemscore.Hbond.Weighted>
-11.4342

> <Gold.Chemscore.Metal.Weighted>
-0.0000

> <Gold.Chemscore.Lipo.Weighted>
-7.1250

> <Gold.Chemscore.Internal_Hbond.Weighted>
0.0000

> <Gold.Chemscore.DEClash.Weighted>
0.5359

> <Gold.Chemscore.DEInternal.Weighted>
3.7475

> <Gold.Chemscore.Rot.Weighted>
6.8148

> <Gold.Chemscore.Internal.Correction.Weighted>
   9.000000E+99

> <Gold.Protein.RotatedTorsions>
[ 6907 6896 6895 6894 ] final  142.90 input  -60.11 | X-H torsion
[ 7974 7965 7964 7962 ] final   94.52 input  175.53 | X-H torsion
[ 8008 7997 7996 7995 ] final -164.81 input   59.86 | X-H torsion
[ 10167 10162 10161 10158 ] final  167.21 input  -65.29 | X-H torsion
[ 10718 10713 10712 10709 ] final   27.63 input   66.30 | X-H torsion
[ 10763 10752 10751 10750 ] final  157.75 input  -60.55 | X-H torsion
[ 11005 11000 10999 10996 ] final  -15.18 input  -57.11 | X-H torsion

> <Gold.Protein.ActiveResidues>
 VAL166  LYS551  ARG553  GLY616  TRP617  ASP618  TYR619  PRO620  LYS621  CYS622 
 ASP623  PHE694  ASN695  SER759  ASP760  ASP761  ALA762  ILE779  LEU786  VAL792 
 PHE793  MET794  SER795  GLU796  ALA797  LYS798  CYS799  TRP800  GLU811  SER814 

> <Gold.Protein.RotatedAtoms>
  152.2129  133.4925  159.5119 H   0  0  0  0  0  0  0  0  0  0  0  0  # atno 6907 bound_to 6896
  150.6994  134.1443  159.4125 H   0  0  0  0  0  0  0  0  0  0  0  0  # atno 6908 bound_to 6896
  151.9362  135.0234  160.0583 H   0  0  0  0  0  0  0  0  0  0  0  0  # atno 6909 bound_to 6896
  145.4645  139.2285  143.2969 H   0  0  0  0  0  0  0  0  0  0  0  0  # atno 7974 bound_to 7965
  155.8409  140.0948  157.1735 H   0  0  0  0  0  0  0  0  0  0  0  0  # atno 8008 bound_to 7997
  154.3982  140.1401  156.3789 H   0  0  0  0  0  0  0  0  0  0  0  0  # atno 8009 bound_to 7997
  155.8065  140.3451  155.5435 H   0  0  0  0  0  0  0  0  0  0  0  0  # atno 8010 bound_to 7997
  139.4940  144.3946  151.9479 H   0  0  0  0  0  0  0  0  0  0  0  0  # atno 10167 bound_to 10162
  157.2228  130.6987  149.6278 H   0  0  0  0  0  0  0  0  0  0  0  0  # atno 10718 bound_to 10713
  154.2053  135.2788  155.2977 H   0  0  0  0  0  0  0  0  0  0  0  0  # atno 10763 bound_to 10752
  154.5822  135.5586  153.7200 H   0  0  0  0  0  0  0  0  0  0  0  0  # atno 10764 bound_to 10752
  153.0077  135.6347  154.2191 H   0  0  0  0  0  0  0  0  0  0  0  0  # atno 10765 bound_to 10752
  140.7940  133.8266  155.9406 H   0  0  0  0  0  0  0  0  0  0  0  0  # atno 11005 bound_to 11000
  146.2432  140.5417  142.8925 LP  0  0  0  0  0  0  0  0  0  0  0  0  # atno 17320 bound_to 7965
  144.7983  140.6164  143.6495 LP  0  0  0  0  0  0  0  0  0  0  0  0  # atno 17321 bound_to 7965
  140.3384  144.3233  150.5972 LP  0  0  0  0  0  0  0  0  0  0  0  0  # atno 17342 bound_to 10162
  140.5587  143.2195  151.7803 LP  0  0  0  0  0  0  0  0  0  0  0  0  # atno 17343 bound_to 10162
  155.9681  130.4514  150.5735 LP  0  0  0  0  0  0  0  0  0  0  0  0  # atno 17370 bound_to 10713
  157.3559  131.0741  151.1676 LP  0  0  0  0  0  0  0  0  0  0  0  0  # atno 17371 bound_to 10713
  140.9361  134.1960  157.4830 LP  0  0  0  0  0  0  0  0  0  0  0  0  # atno 17394 bound_to 11000
  139.8728  134.9853  156.5275 LP  0  0  0  0  0  0  0  0  0  0  0  0  # atno 17395 bound_to 11000

$$$$
