AV-unprocessed.smi:1945|AV-procd|sdf|7859|dock2
  -GOLD-   2272010 03D 1   1.00000     0.00000
 Structure written by MMmdl.
 47 48  0  0  0  0  0  0  0  0  1 V2000
  154.0320  141.4246  160.3354 C   0  0  0  0  0  0  0  0  0  0  0  0
  152.9932  142.1280  159.5132 C   0  0  0  0  0  0  0  0  0  0  0  0
  152.1594  141.5799  158.4961 C   0  0  0  0  0  0  0  0  0  0  0  0
  151.4218  142.6607  158.0958 C   0  0  0  0  0  0  0  0  0  0  0  0
  150.4554  142.7239  157.1420 N   0  0  0  0  0  0  0  0  0  0  0  0
  149.9874  141.7349  156.3616 C   0  0  0  0  0  0  0  0  0  0  0  0
  150.2794  140.5435  156.4682 O   0  0  0  0  0  0  0  0  0  0  0  0
  149.1686  142.2139  155.4138 N   0  0  0  0  0  0  0  0  0  0  0  0
  148.6381  141.4358  154.2988 C   0  0  0  0  0  0  0  0  0  0  0  0
  147.1026  141.4801  154.2832 C   0  0  0  0  0  0  0  0  0  0  0  0
  146.6325  141.6116  155.6161 O   0  0  0  0  0  0  0  0  0  0  0  0
  145.2192  141.5648  155.7655 C   0  0  2  0  0  0  0  0  0  0  0  0
  144.6215  142.6328  154.8308 C   0  0  0  0  0  0  0  0  0  0  0  0
  145.0115  144.0571  155.2628 C   0  0  0  0  0  0  0  0  0  0  0  0
  144.6230  144.3236  156.7248 C   0  0  0  0  0  0  0  0  0  0  0  0
  145.2260  143.2675  157.6644 C   0  0  0  0  0  0  0  0  0  0  0  0
  144.8279  141.8397  157.2389 C   0  0  2  0  0  0  0  0  0  0  0  0
  145.3751  140.7849  158.2126 C   0  0  0  0  0  0  0  0  0  0  0  0
  151.8021  143.7584  158.8380 N   0  0  0  0  0  0  0  0  0  0  0  0
  151.3261  145.1280  158.7974 C   0  0  0  0  0  0  0  0  0  0  0  0
  152.7753  143.4229  159.7119 N   0  0  0  0  0  0  0  0  0  0  0  0
  154.1216  140.3776  160.0453 H   0  0  0  0  0  0  0  0  0  0  0  0
  153.7794  141.4542  161.3956 H   0  0  0  0  0  0  0  0  0  0  0  0
  155.0111  141.8877  160.2112 H   0  0  0  0  0  0  0  0  0  0  0  0
  152.1240  140.5623  158.1369 H   0  0  0  0  0  0  0  0  0  0  0  0
  150.1189  143.6517  156.9321 H   0  0  0  0  0  0  0  0  0  0  0  0
  148.9707  143.2037  155.4107 H   0  0  0  0  0  0  0  0  0  0  0  0
  149.0451  141.7821  153.3474 H   0  0  0  0  0  0  0  0  0  0  0  0
  148.9714  140.4053  154.4220 H   0  0  0  0  0  0  0  0  0  0  0  0
  146.7533  142.3295  153.6949 H   0  0  0  0  0  0  0  0  0  0  0  0
  146.7108  140.5769  153.8135 H   0  0  0  0  0  0  0  0  0  0  0  0
  144.8301  140.5920  155.4584 H   0  0  0  0  0  0  0  0  0  0  0  0
  144.9458  142.4535  153.8054 H   0  0  0  0  0  0  0  0  0  0  0  0
  143.5347  142.5427  154.8280 H   0  0  0  0  0  0  0  0  0  0  0  0
  146.0863  144.1973  155.1400 H   0  0  0  0  0  0  0  0  0  0  0  0
  144.5299  144.7869  154.6118 H   0  0  0  0  0  0  0  0  0  0  0  0
  144.9558  145.3186  157.0221 H   0  0  0  0  0  0  0  0  0  0  0  0
  143.5364  144.3197  156.8206 H   0  0  0  0  0  0  0  0  0  0  0  0
  146.3121  143.3650  157.6740 H   0  0  0  0  0  0  0  0  0  0  0  0
  144.8942  143.4590  158.6854 H   0  0  0  0  0  0  0  0  0  0  0  0
  143.7401  141.7783  157.2962 H   0  0  0  0  0  0  0  0  0  0  0  0
  146.4635  140.8058  158.2563 H   0  0  0  0  0  0  0  0  0  0  0  0
  145.0700  139.7810  157.9167 H   0  0  0  0  0  0  0  0  0  0  0  0
  145.0040  140.9571  159.2231 H   0  0  0  0  0  0  0  0  0  0  0  0
  150.6244  145.2691  157.9754 H   0  0  0  0  0  0  0  0  0  0  0  0
  152.1685  145.8062  158.6579 H   0  0  0  0  0  0  0  0  0  0  0  0
  150.8253  145.3695  159.7352 H   0  0  0  0  0  0  0  0  0  0  0  0
  1  2  1  0  0  0  0
  1 22  1  0  0  0  0
  1 23  1  0  0  0  0
  1 24  1  0  0  0  0
  2 21  2  0  0  0  0
  2  3  1  0  0  0  0
  3  4  2  0  0  0  0
  3 25  1  0  0  0  0
  4  5  1  0  0  0  0
  4 19  1  0  0  0  0
  5  6  1  0  0  0  0
  5 26  1  0  0  0  0
  6  7  2  0  0  0  0
  6  8  1  0  0  0  0
  8  9  1  0  0  0  0
  8 27  1  0  0  0  0
  9 10  1  0  0  0  0
  9 28  1  0  0  0  0
  9 29  1  0  0  0  0
 10 11  1  0  0  0  0
 10 30  1  0  0  0  0
 10 31  1  0  0  0  0
 11 12  1  0  0  0  0
 12 17  1  0  0  0  0
 12 13  1  0  0  0  0
 12 32  1  0  0  0  0
 13 14  1  0  0  0  0
 13 33  1  0  0  0  0
 13 34  1  0  0  0  0
 14 15  1  0  0  0  0
 14 35  1  0  0  0  0
 14 36  1  0  0  0  0
 15 16  1  0  0  0  0
 15 37  1  0  0  0  0
 15 38  1  0  0  0  0
 16 17  1  0  0  0  0
 16 39  1  0  0  0  0
 16 40  1  0  0  0  0
 17 18  1  0  0  0  0
 17 41  1  0  0  0  0
 18 42  1  0  0  0  0
 18 43  1  0  0  0  0
 18 44  1  0  0  0  0
 19 20  1  0  0  0  0
 19 21  1  0  0  0  0
 20 45  1  0  0  0  0
 20 46  1  0  0  0  0
 20 47  1  0  0  0  0
M  END
> <s_m_source_file>
AV-unprocessed.smi

> <i_m_source_file_index>
1945

> <i_lp_mmshare_version>
43012

> <i_f3d_flags>
0

> <s_epik_input>
W0NIM11jMVtjSF1jKG4objEpW0NIM10pW05IXUMoPU8pW05IXVtDSDJdW0NIMl1PW0NAQEhdMltDSDJdW0NIMl1bQ0gyXVtDSDJdW0NASF0yW0NIM10=

> <s_epik_cmdline>
J2VwaWtfcHl0aG9uJywgJy1waCcsICc3LjAnLCAnLXRuJywgJzgnLCAnLW1hJywgJzIwMCcsICctbWV0YWxfYmluZGluZycsICctaW1hZScsICc8aW5maWxlLm1hZT4nLCAnLW9tYWUnLCAnPG91dGZpbGUubWFlPic=

> <r_lp_tautomer_probability>
1

> <r_epik_Ionization_Penalty>
9.47735e-05

> <r_epik_Ionization_Penalty_Charging>
0

> <r_epik_Ionization_Penalty_Neutral>
9.47735e-05

> <r_epik_State_Penalty>
-0

> <r_epik_Charging_Adjusted_Penalty>
0

> <i_epik_Tot_Q>
0

> <i_epik_Tot_abs_Q>
0

> <r_epik_Metal_State_Penalty>
-0

> <b_epik_Metal_Only>
0

> <s_lp_Force_Field>
OPLS_2005

> <r_lp_Energy>
12.3815

> <b_lp_Chiralities_Consistent>
1

> <s_lp_Variant>
AV-unprocessed.smi:1945-3

> <Gold.Version>
5.8.1

> <Gold.Id.Protein>
6NUR|6NUR_protein|mol2

> <Gold.PLP.Fitness>
41.4315

> <Gold.PLP.PLP>
-36.1478

> <Gold.PLP.part.hbond>
-1.9854

> <Gold.PLP.part.metal>
0.0000

> <Gold.PLP.part.buried>
-7.0957

> <Gold.PLP.part.nonpolar>
-27.9481

> <Gold.PLP.part.repulsive>
0.3110

> <Gold.PLP.ligand.clash>
0.0000

> <Gold.PLP.ligand.torsion>
0.2079

> <Gold.PLP.Chemscore.Hbond>
1.8960

> <Gold.PLP.Chemscore.CHOScore>
0.0000

> <Gold.PLP.Chemscore.Metal>
0.0000

> <Gold.Chemscore.Hbonds>
donor molecule, donor type, donor heavy atom, donor atom, acceptor molecule, acceptor atom, score
      L1  H     5    26       P1  8028  0.82
      L1  H     8    27       P1  8028  1.00

> <Gold.PLP.Chemscore.Internal.Correction>
0.0115

> <Gold.Rescore>
     Score         DG    S(hbond)    S(metal)    S(lipo)     H(rot)  DE(clash)    DE(int)     intcor
     14.43     -15.83       1.97        0.00      67.94       1.63       0.00       1.39       ----

> <Gold.Chemscore.Fitness>
14.4330

> <Gold.Chemscore.DG>
-15.8309

> <Gold.Chemscore.ZeroCoef>
-5.4800

> <Gold.Chemscore.Hbond>
1.9698

> <Gold.Chemscore.Metal>
0.0000

> <Gold.Chemscore.Lipo>
67.9378

> <Gold.Chemscore.Internal_Hbond>
0.0000

> <Gold.Chemscore.DEClash>
0.0029

> <Gold.Chemscore.DEInternal>
1.3950

> <Gold.Chemscore.Rot>
1.6316

> <Gold.Chemscore.Internal.Correction>
   9.000000E+99

> <Gold.Chemscore.Hbonds>
donor molecule, donor type, donor heavy atom, donor atom, acceptor molecule, acceptor atom, score
      L1  H     5    26       P1  8028  0.76
      L1  H     8    27       P1  8028  0.93

> <Gold.Chemscore.Hbond.Weighted>
-6.5790

> <Gold.Chemscore.Metal.Weighted>
-0.0000

> <Gold.Chemscore.Lipo.Weighted>
-7.9487

> <Gold.Chemscore.Internal_Hbond.Weighted>
0.0000

> <Gold.Chemscore.DEClash.Weighted>
0.0029

> <Gold.Chemscore.DEInternal.Weighted>
1.3950

> <Gold.Chemscore.Rot.Weighted>
4.1768

> <Gold.Chemscore.Internal.Correction.Weighted>
   9.000000E+99

> <Gold.Protein.RotatedTorsions>
[ 6907 6896 6895 6894 ] final -167.77 input  -60.11 | X-H torsion
[ 7974 7965 7964 7962 ] final   99.45 input  175.53 | X-H torsion
[ 8008 7997 7996 7995 ] final    8.93 input   59.86 | X-H torsion
[ 10167 10162 10161 10158 ] final -133.97 input  -65.29 | X-H torsion
[ 10718 10713 10712 10709 ] final   95.77 input   66.30 | X-H torsion
[ 10763 10752 10751 10750 ] final -154.49 input  -60.55 | X-H torsion
[ 11005 11000 10999 10996 ] final -102.47 input  -57.11 | X-H torsion

> <Gold.Protein.ActiveResidues>
 VAL166  LYS551  ARG553  GLY616  TRP617  ASP618  TYR619  PRO620  LYS621  CYS622 
 ASP623  PHE694  ASN695  SER759  ASP760  ASP761  ALA762  ILE779  LEU786  VAL792 
 PHE793  MET794  SER795  GLU796  ALA797  LYS798  CYS799  TRP800  GLU811  SER814 

> <Gold.Protein.RotatedAtoms>
  151.4648  133.3583  159.2814 H   0  0  0  0  0  0  0  0  0  0  0  0  # atno 6907 bound_to 6896
  150.9001  134.8414  159.7364 H   0  0  0  0  0  0  0  0  0  0  0  0  # atno 6908 bound_to 6896
  152.4874  134.4567  159.9644 H   0  0  0  0  0  0  0  0  0  0  0  0  # atno 6909 bound_to 6896
  145.3987  139.2351  143.3312 H   0  0  0  0  0  0  0  0  0  0  0  0  # atno 7974 bound_to 7965
  154.7733  140.2806  155.6121 H   0  0  0  0  0  0  0  0  0  0  0  0  # atno 8008 bound_to 7997
  156.2937  140.2637  156.2468 H   0  0  0  0  0  0  0  0  0  0  0  0  # atno 8009 bound_to 7997
  154.9873  140.0374  157.2294 H   0  0  0  0  0  0  0  0  0  0  0  0  # atno 8010 bound_to 7997
  139.8928  143.6701  152.2609 H   0  0  0  0  0  0  0  0  0  0  0  0  # atno 10167 bound_to 10162
  157.6935  131.0556  150.4390 H   0  0  0  0  0  0  0  0  0  0  0  0  # atno 10718 bound_to 10713
  154.7855  135.3189  154.7896 H   0  0  0  0  0  0  0  0  0  0  0  0  # atno 10763 bound_to 10752
  153.8597  135.6854  153.4788 H   0  0  0  0  0  0  0  0  0  0  0  0  # atno 10764 bound_to 10752
  153.1505  135.4701  154.9568 H   0  0  0  0  0  0  0  0  0  0  0  0  # atno 10765 bound_to 10752
  141.1187  133.8561  157.1364 H   0  0  0  0  0  0  0  0  0  0  0  0  # atno 11005 bound_to 11000
  146.2762  140.4681  142.8794 LP  0  0  0  0  0  0  0  0  0  0  0  0  # atno 17320 bound_to 7965
  144.8389  140.6826  143.6242 LP  0  0  0  0  0  0  0  0  0  0  0  0  # atno 17321 bound_to 7965
  139.7094  144.7622  151.1137 LP  0  0  0  0  0  0  0  0  0  0  0  0  # atno 17342 bound_to 10162
  140.7723  143.5351  150.9378 LP  0  0  0  0  0  0  0  0  0  0  0  0  # atno 17343 bound_to 10162
  156.4750  130.4061  149.6495 LP  0  0  0  0  0  0  0  0  0  0  0  0  # atno 17370 bound_to 10713
  156.3561  130.7457  151.2423 LP  0  0  0  0  0  0  0  0  0  0  0  0  # atno 17371 bound_to 10713
  140.0129  134.9980  157.0432 LP  0  0  0  0  0  0  0  0  0  0  0  0  # atno 17394 bound_to 11000
  140.4570  134.1524  155.7187 LP  0  0  0  0  0  0  0  0  0  0  0  0  # atno 17395 bound_to 11000

$$$$
