AV-unprocessed.smi:2739|AV-procd|sdf|10553|dock4
  -GOLD-   2272015 03D 1   1.00000     0.00000
 Structure written by MMmdl.
 35 35  0  0  0  0  0  0  0  0  1 V2000
  151.6245  144.3522  158.2744 C   0  0  0  0  0  0  0  0  0  0  0  0
  151.9447  143.6390  159.5960 C   0  0  0  0  0  0  0  0  0  0  0  0
  153.0468  142.5705  159.4713 C   0  0  1  0  0  0  0  0  0  0  0  0
  153.6170  142.1837  160.8453 C   0  0  0  0  0  0  0  0  0  0  0  0
  152.5244  141.3836  158.7994 N   0  0  0  0  0  0  0  0  0  0  0  0
  153.2560  140.3414  158.3734 C   0  0  0  0  0  0  0  0  0  0  0  0
  154.4802  140.2802  158.4830 O   0  0  0  0  0  0  0  0  0  0  0  0
  152.4875  139.1887  157.7244 C   0  0  0  0  0  0  0  0  0  0  0  0
  151.9334  139.5821  156.4409 N   0  0  0  0  0  0  0  0  0  0  0  0
  152.3644  139.2364  155.1781 C   0  0  0  0  0  0  0  0  0  0  0  0
  151.5435  139.8617  154.2843 C   0  0  0  0  0  0  0  0  0  0  0  0
  150.6226  140.5790  155.1025 C   0  0  0  0  0  0  0  0  0  0  0  0
  149.4847  141.4711  154.6795 C   0  0  1  0  0  0  0  0  0  0  0  0
  148.4586  140.7064  153.8321 C   0  0  0  0  0  0  0  0  0  0  0  0
  148.8118  142.0373  155.7852 O   0  0  0  0  0  0  0  0  0  0  0  0
  150.8623  140.4033  156.3940 N   0  0  0  0  0  0  0  0  0  0  0  0
  150.8717  145.1260  158.4258 H   0  0  0  0  0  0  0  0  0  0  0  0
  151.2377  143.6596  157.5266 H   0  0  0  0  0  0  0  0  0  0  0  0
  152.5131  144.8301  157.8610 H   0  0  0  0  0  0  0  0  0  0  0  0
  152.2530  144.3871  160.3274 H   0  0  0  0  0  0  0  0  0  0  0  0
  151.0340  143.1869  159.9915 H   0  0  0  0  0  0  0  0  0  0  0  0
  153.8560  142.9946  158.8738 H   0  0  0  0  0  0  0  0  0  0  0  0
  154.0267  143.0539  161.3586 H   0  0  0  0  0  0  0  0  0  0  0  0
  154.4208  141.4531  160.7486 H   0  0  0  0  0  0  0  0  0  0  0  0
  152.8487  141.7499  161.4864 H   0  0  0  0  0  0  0  0  0  0  0  0
  151.5250  141.3445  158.6626 H   0  0  0  0  0  0  0  0  0  0  0  0
  153.1526  138.3365  157.5784 H   0  0  0  0  0  0  0  0  0  0  0  0
  151.6791  138.8577  158.3784 H   0  0  0  0  0  0  0  0  0  0  0  0
  153.2131  138.5867  155.0225 H   0  0  0  0  0  0  0  0  0  0  0  0
  151.5957  139.8182  153.2065 H   0  0  0  0  0  0  0  0  0  0  0  0
  149.8747  142.3005  154.0881 H   0  0  0  0  0  0  0  0  0  0  0  0
  148.9203  140.2957  152.9334 H   0  0  0  0  0  0  0  0  0  0  0  0
  147.6451  141.3590  153.5141 H   0  0  0  0  0  0  0  0  0  0  0  0
  148.0228  139.8765  154.3899 H   0  0  0  0  0  0  0  0  0  0  0  0
  148.8141  142.9771  155.6862 H   0  0  0  0  0  0  0  0  0  0  0  0
  1  2  1  0  0  0  0
  1 17  1  0  0  0  0
  1 18  1  0  0  0  0
  1 19  1  0  0  0  0
  2  3  1  0  0  0  0
  2 20  1  0  0  0  0
  2 21  1  0  0  0  0
  3  4  1  0  0  0  0
  3  5  1  0  0  0  0
  3 22  1  0  0  0  0
  4 23  1  0  0  0  0
  4 24  1  0  0  0  0
  4 25  1  0  0  0  0
  5  6  1  0  0  0  0
  5 26  1  0  0  0  0
  6  7  2  0  0  0  0
  6  8  1  0  0  0  0
  8  9  1  0  0  0  0
  8 27  1  0  0  0  0
  8 28  1  0  0  0  0
  9 16  1  0  0  0  0
  9 10  1  0  0  0  0
 10 11  2  0  0  0  0
 10 29  1  0  0  0  0
 11 12  1  0  0  0  0
 11 30  1  0  0  0  0
 12 13  1  0  0  0  0
 12 16  2  0  0  0  0
 13 14  1  0  0  0  0
 13 15  1  0  0  0  0
 13 31  1  0  0  0  0
 14 32  1  0  0  0  0
 14 33  1  0  0  0  0
 14 34  1  0  0  0  0
 15 35  1  0  0  0  0
M  END
> <s_m_source_file>
AV-unprocessed.smi

> <i_m_source_file_index>
2739

> <i_lp_mmshare_version>
43012

> <i_f3d_flags>
0

> <s_epik_input>
W0NIM11bQ0gyXVtDQEhdKFtDSDNdKVtOSF1DKD1PKVtDSDJdbjFbY0hdW2NIXWMobjEpW0NASF0oW0NIM10pW09IXQ==

> <s_epik_cmdline>
J2VwaWtfcHl0aG9uJywgJy1waCcsICc3LjAnLCAnLXRuJywgJzgnLCAnLW1hJywgJzIwMCcsICctbWV0YWxfYmluZGluZycsICctaW1hZScsICc8aW5maWxlLm1hZT4nLCAnLW9tYWUnLCAnPG91dGZpbGUubWFlPic=

> <r_lp_tautomer_probability>
1

> <r_epik_Ionization_Penalty>
5.22246e-06

> <r_epik_Ionization_Penalty_Charging>
0

> <r_epik_Ionization_Penalty_Neutral>
5.22246e-06

> <r_epik_State_Penalty>
-0

> <r_epik_Charging_Adjusted_Penalty>
0

> <i_epik_Tot_Q>
0

> <i_epik_Tot_abs_Q>
0

> <r_epik_Metal_State_Penalty>
-0

> <b_epik_Metal_Only>
0

> <s_lp_Force_Field>
OPLS_2005

> <r_lp_Energy>
1.19937

> <b_lp_Chiralities_Consistent>
1

> <s_lp_Variant>
AV-unprocessed.smi:2739-4

> <Gold.Version>
5.8.1

> <Gold.Id.Protein>
6NUR|6NUR_protein|mol2

> <Gold.PLP.Fitness>
41.8358

> <Gold.PLP.PLP>
-36.6477

> <Gold.PLP.part.hbond>
-1.6221

> <Gold.PLP.part.metal>
0.0000

> <Gold.PLP.part.buried>
-1.0575

> <Gold.PLP.part.nonpolar>
-33.3771

> <Gold.PLP.part.repulsive>
0.1231

> <Gold.PLP.ligand.clash>
0.0000

> <Gold.PLP.ligand.torsion>
0.4253

> <Gold.PLP.Chemscore.Hbond>
2.0000

> <Gold.PLP.Chemscore.CHOScore>
0.0000

> <Gold.PLP.Chemscore.Metal>
0.0000

> <Gold.Chemscore.Hbonds>
donor molecule, donor type, donor heavy atom, donor atom, acceptor molecule, acceptor atom, score
      L1  H    15    35       P1  8028  1.00
      P1  H  7997  8009       L1     7  0.31

> <Gold.PLP.Chemscore.Internal.Correction>
0.0387

> <Gold.Rescore>
     Score         DG    S(hbond)    S(metal)    S(lipo)     H(rot)  DE(clash)    DE(int)     intcor
     15.55     -16.32       1.99        0.00      87.27       2.34       0.02       0.76       ----

> <Gold.Chemscore.Fitness>
15.5453

> <Gold.Chemscore.DG>
-16.3229

> <Gold.Chemscore.ZeroCoef>
-5.4800

> <Gold.Chemscore.Hbond>
1.9865

> <Gold.Chemscore.Metal>
0.0000

> <Gold.Chemscore.Lipo>
87.2725

> <Gold.Chemscore.Internal_Hbond>
0.0000

> <Gold.Chemscore.DEClash>
0.0201

> <Gold.Chemscore.DEInternal>
0.7576

> <Gold.Chemscore.Rot>
2.3448

> <Gold.Chemscore.Internal.Correction>
   9.000000E+99

> <Gold.Chemscore.Hbonds>
donor molecule, donor type, donor heavy atom, donor atom, acceptor molecule, acceptor atom, score
      L1  H    15    35       P1  8028  1.00
      P1  H  7997  8009       L1     7  0.05

> <Gold.Chemscore.Hbond.Weighted>
-6.6348

> <Gold.Chemscore.Metal.Weighted>
-0.0000

> <Gold.Chemscore.Lipo.Weighted>
-10.2109

> <Gold.Chemscore.Internal_Hbond.Weighted>
0.0000

> <Gold.Chemscore.DEClash.Weighted>
0.0201

> <Gold.Chemscore.DEInternal.Weighted>
0.7576

> <Gold.Chemscore.Rot.Weighted>
6.0027

> <Gold.Chemscore.Internal.Correction.Weighted>
   9.000000E+99

> <Gold.Protein.RotatedTorsions>
[ 6907 6896 6895 6894 ] final -150.80 input  -60.11 | X-H torsion
[ 7974 7965 7964 7962 ] final   13.39 input  175.53 | X-H torsion
[ 8008 7997 7996 7995 ] final  146.11 input   59.86 | X-H torsion
[ 10167 10162 10161 10158 ] final  -61.76 input  -65.29 | X-H torsion
[ 10718 10713 10712 10709 ] final  -67.08 input   66.30 | X-H torsion
[ 10763 10752 10751 10750 ] final -129.75 input  -60.55 | X-H torsion
[ 11005 11000 10999 10996 ] final   88.77 input  -57.11 | X-H torsion

> <Gold.Protein.ActiveResidues>
 VAL166  LYS551  ARG553  GLY616  TRP617  ASP618  TYR619  PRO620  LYS621  CYS622 
 ASP623  PHE694  ASN695  SER759  ASP760  ASP761  ALA762  ILE779  LEU786  VAL792 
 PHE793  MET794  SER795  GLU796  ALA797  LYS798  CYS799  TRP800  GLU811  SER814 

> <Gold.Protein.RotatedAtoms>
  151.2038  133.4595  159.2596 H   0  0  0  0  0  0  0  0  0  0  0  0  # atno 6907 bound_to 6896
  151.1044  134.9991  159.8474 H   0  0  0  0  0  0  0  0  0  0  0  0  # atno 6908 bound_to 6896
  152.5446  134.1962  159.8746 H   0  0  0  0  0  0  0  0  0  0  0  0  # atno 6909 bound_to 6896
  146.2330  139.9195  142.8512 H   0  0  0  0  0  0  0  0  0  0  0  0  # atno 7974 bound_to 7965
  156.2865  140.2191  156.5323 H   0  0  0  0  0  0  0  0  0  0  0  0  # atno 8008 bound_to 7997
  154.7438  140.0485  157.0856 H   0  0  0  0  0  0  0  0  0  0  0  0  # atno 8009 bound_to 7997
  155.0196  140.3122  155.4801 H   0  0  0  0  0  0  0  0  0  0  0  0  # atno 8010 bound_to 7997
  140.5984  143.2356  151.5983 H   0  0  0  0  0  0  0  0  0  0  0  0  # atno 10167 bound_to 10162
  156.0577  130.4272  150.1802 H   0  0  0  0  0  0  0  0  0  0  0  0  # atno 10718 bound_to 10713
  154.8757  135.3885  154.3971 H   0  0  0  0  0  0  0  0  0  0  0  0  # atno 10763 bound_to 10752
  153.4700  135.7030  153.6004 H   0  0  0  0  0  0  0  0  0  0  0  0  # atno 10764 bound_to 10752
  153.4466  135.3843  155.2227 H   0  0  0  0  0  0  0  0  0  0  0  0  # atno 10765 bound_to 10752
  139.8889  134.8509  156.3047 H   0  0  0  0  0  0  0  0  0  0  0  0  # atno 11005 bound_to 11000
  145.2150  140.9912  143.4078 LP  0  0  0  0  0  0  0  0  0  0  0  0  # atno 17320 bound_to 7965
  144.9658  139.3931  143.6333 LP  0  0  0  0  0  0  0  0  0  0  0  0  # atno 17321 bound_to 7965
  139.5274  144.3018  152.1067 LP  0  0  0  0  0  0  0  0  0  0  0  0  # atno 17342 bound_to 10162
  140.2194  144.4482  150.6349 LP  0  0  0  0  0  0  0  0  0  0  0  0  # atno 17343 bound_to 10162
  156.9875  130.9883  151.3422 LP  0  0  0  0  0  0  0  0  0  0  0  0  # atno 17370 bound_to 10713
  157.5561  130.8214  149.8206 LP  0  0  0  0  0  0  0  0  0  0  0  0  # atno 17371 bound_to 10713
  140.9890  133.7220  156.0785 LP  0  0  0  0  0  0  0  0  0  0  0  0  # atno 17394 bound_to 11000
  140.7650  134.3896  157.5518 LP  0  0  0  0  0  0  0  0  0  0  0  0  # atno 17395 bound_to 11000

$$$$
