AV-unprocessed.smi:2390|AV-procd|sdf|9478|dock9
  -GOLD-   2272013103D 1   1.00000     0.00000
 Structure written by MMmdl.
 46 47  0  0  0  0  0  0  0  0  2 V2000
  153.2650  141.8537  160.4282 C   0  0  0  0  0  0  0  0  0  0  0  0
  152.6722  142.7756  159.3835 C   0  0  0  0  0  0  0  0  0  0  0  0
  152.8770  144.1679  159.4452 C   0  0  0  0  0  0  0  0  0  0  0  0
  152.3028  144.9679  158.4412 C   0  0  0  0  0  0  0  0  0  0  0  0
  151.5546  144.3471  157.4227 C   0  0  0  0  0  0  0  0  0  0  0  0
  151.3956  142.9432  157.4347 C   0  0  0  0  0  0  0  0  0  0  0  0
  150.6326  142.4142  156.3601 N   0  0  0  0  0  0  0  0  0  0  0  0
  150.5883  141.1441  155.9219 C   0  0  0  0  0  0  0  0  0  0  0  0
  151.1702  140.1897  156.4391 O   0  0  0  0  0  0  0  0  0  0  0  0
  149.8144  141.0319  154.8319 N   0  0  0  0  0  0  0  0  0  0  0  0
  149.5454  139.7890  154.1087 C   0  0  1  0  0  0  0  0  0  0  0  0
  150.8609  139.0010  153.9782 C   0  0  0  0  0  0  0  0  0  0  0  0
  148.3932  138.9620  154.7669 C   0  0  2  0  0  0  0  0  0  0  0  0
  148.9277  138.0688  155.9156 C   0  0  0  0  0  0  0  0  0  0  0  0
  147.5934  138.1871  153.7585 N   0  3  0  0  0  0  0  0  0  0  0  0
  146.6306  137.2194  154.3567 C   0  0  0  0  0  0  0  0  0  0  0  0
  145.8516  136.4535  153.2740 C   0  0  0  0  0  0  0  0  0  0  0  0
  145.1812  137.3697  152.4236 O   0  0  0  0  0  0  0  0  0  0  0  0
  146.1024  138.2108  151.7484 C   0  0  0  0  0  0  0  0  0  0  0  0
  146.8842  139.0502  152.7722 C   0  0  0  0  0  0  0  0  0  0  0  0
  151.9531  142.1800  158.4076 N   0  0  0  0  0  0  0  0  0  0  0  0
  153.7011  142.4189  161.2524 H   0  0  0  0  0  0  0  0  0  0  0  0
  154.0473  141.2360  159.9862 H   0  0  0  0  0  0  0  0  0  0  0  0
  152.4971  141.1964  160.8374 H   0  0  0  0  0  0  0  0  0  0  0  0
  153.4586  144.6139  160.2386 H   0  0  0  0  0  0  0  0  0  0  0  0
  152.4348  146.0399  158.4503 H   0  0  0  0  0  0  0  0  0  0  0  0
  151.1084  144.9473  156.6429 H   0  0  0  0  0  0  0  0  0  0  0  0
  150.0690  143.0844  155.8585 H   0  0  0  0  0  0  0  0  0  0  0  0
  149.3733  141.8679  154.4766 H   0  0  0  0  0  0  0  0  0  0  0  0
  149.2528  140.1008  153.1069 H   0  0  0  0  0  0  0  0  0  0  0  0
  150.7283  138.0948  153.3872 H   0  0  0  0  0  0  0  0  0  0  0  0
  151.2558  138.7092  154.9516 H   0  0  0  0  0  0  0  0  0  0  0  0
  151.6255  139.5996  153.4814 H   0  0  0  0  0  0  0  0  0  0  0  0
  147.6989  139.6680  155.2250 H   0  0  0  0  0  0  0  0  0  0  0  0
  149.5797  138.6161  156.5953 H   0  0  0  0  0  0  0  0  0  0  0  0
  149.4933  137.2186  155.5338 H   0  0  0  0  0  0  0  0  0  0  0  0
  148.1211  137.6846  156.5400 H   0  0  0  0  0  0  0  0  0  0  0  0
  147.1480  136.4780  154.9635 H   0  0  0  0  0  0  0  0  0  0  0  0
  145.9377  137.7515  155.0104 H   0  0  0  0  0  0  0  0  0  0  0  0
  146.5182  135.8153  152.6917 H   0  0  0  0  0  0  0  0  0  0  0  0
  145.1125  135.7996  153.7370 H   0  0  0  0  0  0  0  0  0  0  0  0
  146.7792  137.6153  151.1333 H   0  0  0  0  0  0  0  0  0  0  0  0
  145.5511  138.8636  151.0715 H   0  0  0  0  0  0  0  0  0  0  0  0
  146.2053  139.7241  153.2973 H   0  0  0  0  0  0  0  0  0  0  0  0
  147.5828  139.6687  152.2130 H   0  0  0  0  0  0  0  0  0  0  0  0
  148.2566  137.6351  153.2334 H   0  0  0  0  0  0  0  0  0  0  0  0
  1  2  1  0  0  0  0
  1 22  1  0  0  0  0
  1 23  1  0  0  0  0
  1 24  1  0  0  0  0
  2 21  1  0  0  0  0
  2  3  2  0  0  0  0
  3  4  1  0  0  0  0
  3 25  1  0  0  0  0
  4  5  2  0  0  0  0
  4 26  1  0  0  0  0
  5  6  1  0  0  0  0
  5 27  1  0  0  0  0
  6  7  1  0  0  0  0
  6 21  2  0  0  0  0
  7  8  1  0  0  0  0
  7 28  1  0  0  0  0
  8  9  2  0  0  0  0
  8 10  1  0  0  0  0
 10 11  1  0  0  0  0
 10 29  1  0  0  0  0
 11 12  1  0  0  0  0
 11 13  1  0  0  0  0
 11 30  1  0  0  0  0
 12 31  1  0  0  0  0
 12 32  1  0  0  0  0
 12 33  1  0  0  0  0
 13 14  1  0  0  0  0
 13 15  1  0  0  0  0
 13 34  1  0  0  0  0
 14 35  1  0  0  0  0
 14 36  1  0  0  0  0
 14 37  1  0  0  0  0
 15 20  1  0  0  0  0
 15 16  1  0  0  0  0
 15 46  1  0  0  0  0
 16 17  1  0  0  0  0
 16 38  1  0  0  0  0
 16 39  1  0  0  0  0
 17 18  1  0  0  0  0
 17 40  1  0  0  0  0
 17 41  1  0  0  0  0
 18 19  1  0  0  0  0
 19 20  1  0  0  0  0
 19 42  1  0  0  0  0
 19 43  1  0  0  0  0
 20 44  1  0  0  0  0
 20 45  1  0  0  0  0
M  CHG  1  15   1
M  END
> <s_m_source_file>
AV-unprocessed.smi

> <i_m_source_file_index>
2390

> <i_lp_mmshare_version>
43012

> <i_f3d_flags>
0

> <s_epik_input>
W0NIM11jMVtjSF1bY0hdW2NIXWMobjEpW05IXUMoPU8pW05IXVtDQEhdKFtDSDNdKVtDQEhdKFtDSDNdKU4yW0NIMl1bQ0gyXU9bQ0gyXVtDSDJdMg==

> <s_epik_cmdline>
J2VwaWtfcHl0aG9uJywgJy1waCcsICc3LjAnLCAnLXRuJywgJzgnLCAnLW1hJywgJzIwMCcsICctbWV0YWxfYmluZGluZycsICctaW1hZScsICc8aW5maWxlLm1hZT4nLCAnLW9tYWUnLCAnPG91dGZpbGUubWFlPic=

> <r_epik_Ionization_Penalty>
0.60259

> <r_epik_Ionization_Penalty_Charging>
0.602531

> <r_epik_Ionization_Penalty_Neutral>
5.9516e-05

> <r_epik_State_Penalty>
0.617039

> <r_epik_Charging_Adjusted_Penalty>
1.21957

> <i_epik_Tot_Q>
1

> <i_epik_Tot_abs_Q>
1

> <r_epik_Metal_State_Penalty>
0.617047

> <b_epik_Metal_Only>
0

> <s_lp_Force_Field>
OPLS_2005

> <r_lp_Energy>
24.4942

> <b_lp_Chiralities_Consistent>
1

> <s_lp_Variant>
AV-unprocessed.smi:2390-6

> <Gold.Version>
5.8.1

> <Gold.Id.Protein>
6NUR|6NUR_protein|mol2

> <Gold.PLP.Fitness>
46.2056

> <Gold.PLP.PLP>
-39.2971

> <Gold.PLP.part.hbond>
-2.0000

> <Gold.PLP.part.metal>
0.0000

> <Gold.PLP.part.buried>
-0.9513

> <Gold.PLP.part.nonpolar>
-36.9664

> <Gold.PLP.part.repulsive>
0.8098

> <Gold.PLP.ligand.clash>
0.0000

> <Gold.PLP.ligand.torsion>
1.0887

> <Gold.PLP.Chemscore.Hbond>
2.9913

> <Gold.PLP.Chemscore.CHOScore>
0.0000

> <Gold.PLP.Chemscore.Metal>
0.0000

> <Gold.Chemscore.Hbonds>
donor molecule, donor type, donor heavy atom, donor atom, acceptor molecule, acceptor atom, score
      L1  H     7    28       P1  8028  1.00
      L1  H    15    46       P1  7948  1.79

> <Gold.PLP.Chemscore.Internal.Correction>
0.1121

> <Gold.Rescore>
     Score         DG    S(hbond)    S(metal)    S(lipo)     H(rot)  DE(clash)    DE(int)     intcor
     15.63     -20.11       1.82        0.00     105.61       1.48       0.56       3.92       ----

> <Gold.Chemscore.Fitness>
15.6283

> <Gold.Chemscore.DG>
-20.1106

> <Gold.Chemscore.ZeroCoef>
-5.4800

> <Gold.Chemscore.Hbond>
1.8185

> <Gold.Chemscore.Metal>
0.0000

> <Gold.Chemscore.Lipo>
105.6140

> <Gold.Chemscore.Internal_Hbond>
0.0000

> <Gold.Chemscore.DEClash>
0.5610

> <Gold.Chemscore.DEInternal>
3.9212

> <Gold.Chemscore.Rot>
1.4844

> <Gold.Chemscore.Internal.Correction>
   9.000000E+99

> <Gold.Chemscore.Hbonds>
donor molecule, donor type, donor heavy atom, donor atom, acceptor molecule, acceptor atom, score
      L1  H     7    28       P1  8028  0.92
      L1  H    15    46       P1  7948  0.87

> <Gold.Chemscore.Hbond.Weighted>
-6.0737

> <Gold.Chemscore.Metal.Weighted>
-0.0000

> <Gold.Chemscore.Lipo.Weighted>
-12.3568

> <Gold.Chemscore.Internal_Hbond.Weighted>
0.0000

> <Gold.Chemscore.DEClash.Weighted>
0.5610

> <Gold.Chemscore.DEInternal.Weighted>
3.9212

> <Gold.Chemscore.Rot.Weighted>
3.8000

> <Gold.Chemscore.Internal.Correction.Weighted>
   9.000000E+99

> <Gold.Protein.RotatedTorsions>
[ 6907 6896 6895 6894 ] final   97.31 input  -60.11 | X-H torsion
[ 7974 7965 7964 7962 ] final  160.43 input  175.53 | X-H torsion
[ 8008 7997 7996 7995 ] final  -58.54 input   59.86 | X-H torsion
[ 10167 10162 10161 10158 ] final   33.30 input  -65.29 | X-H torsion
[ 10718 10713 10712 10709 ] final   -3.84 input   66.30 | X-H torsion
[ 10763 10752 10751 10750 ] final -112.35 input  -60.55 | X-H torsion
[ 11005 11000 10999 10996 ] final   46.45 input  -57.11 | X-H torsion

> <Gold.Protein.ActiveResidues>
 VAL166  LYS551  ARG553  GLY616  TRP617  ASP618  TYR619  PRO620  LYS621  CYS622 
 ASP623  PHE694  ASN695  SER759  ASP760  ASP761  ALA762  ILE779  LEU786  VAL792 
 PHE793  MET794  SER795  GLU796  ALA797  LYS798  CYS799  TRP800  GLU811  SER814 

> <Gold.Protein.RotatedAtoms>
  152.5425  134.0753  159.8211 H   0  0  0  0  0  0  0  0  0  0  0  0  # atno 6907 bound_to 6896
  151.0862  133.5344  159.2625 H   0  0  0  0  0  0  0  0  0  0  0  0  # atno 6908 bound_to 6896
  151.2153  135.0506  159.8982 H   0  0  0  0  0  0  0  0  0  0  0  0  # atno 6909 bound_to 6896
  144.7737  139.7757  143.6287 H   0  0  0  0  0  0  0  0  0  0  0  0  # atno 7974 bound_to 7965
  154.4313  140.1082  156.5973 H   0  0  0  0  0  0  0  0  0  0  0  0  # atno 8008 bound_to 7997
  155.5948  140.3492  155.4558 H   0  0  0  0  0  0  0  0  0  0  0  0  # atno 8009 bound_to 7997
  156.0218  140.1241  157.0338 H   0  0  0  0  0  0  0  0  0  0  0  0  # atno 8010 bound_to 7997
  140.4420  144.1174  150.6175 H   0  0  0  0  0  0  0  0  0  0  0  0  # atno 10167 bound_to 10162
  156.7702  130.5297  149.5769 H   0  0  0  0  0  0  0  0  0  0  0  0  # atno 10718 bound_to 10713
  154.8345  135.4494  154.1180 H   0  0  0  0  0  0  0  0  0  0  0  0  # atno 10763 bound_to 10752
  153.2424  135.6918  153.7775 H   0  0  0  0  0  0  0  0  0  0  0  0  # atno 10764 bound_to 10752
  153.7118  135.3355  155.3224 H   0  0  0  0  0  0  0  0  0  0  0  0  # atno 10765 bound_to 10752
  140.1368  134.4635  155.8480 H   0  0  0  0  0  0  0  0  0  0  0  0  # atno 11005 bound_to 11000
  146.1902  139.5138  142.9810 LP  0  0  0  0  0  0  0  0  0  0  0  0  # atno 17320 bound_to 7965
  145.6248  141.0315  143.1895 LP  0  0  0  0  0  0  0  0  0  0  0  0  # atno 17321 bound_to 7965
  140.4307  143.2569  151.9598 LP  0  0  0  0  0  0  0  0  0  0  0  0  # atno 17342 bound_to 10162
  139.4790  144.5746  151.8033 LP  0  0  0  0  0  0  0  0  0  0  0  0  # atno 17343 bound_to 10162
  156.1283  130.6159  151.0296 LP  0  0  0  0  0  0  0  0  0  0  0  0  # atno 17370 bound_to 10713
  157.6695  131.0864  150.7648 LP  0  0  0  0  0  0  0  0  0  0  0  0  # atno 17371 bound_to 10713
  141.2179  133.6817  156.7172 LP  0  0  0  0  0  0  0  0  0  0  0  0  # atno 17394 bound_to 11000
  140.2773  134.8345  157.3901 LP  0  0  0  0  0  0  0  0  0  0  0  0  # atno 17395 bound_to 11000

$$$$
