AV-unprocessed.smi:914|AV-procd|sdf|4153|dock9
  -GOLD-   22720 2 53D 1   1.00000     0.00000
 Structure written by MMmdl.
 32 33  0  0  0  0  0  0  0  0  2 V2000
  150.2580  135.3991  154.7643 O   0  0  0  0  0  0  0  0  0  0  0  0
  150.2321  136.6024  155.0195 C   0  0  0  0  0  0  0  0  0  0  0  0
  151.2850  137.4327  154.7633 N   0  5  0  0  0  0  0  0  0  0  0  0
  151.2731  138.7745  155.0345 C   0  0  0  0  0  0  0  0  0  0  0  0
  152.2387  139.5003  154.7970 O   0  0  0  0  0  0  0  0  0  0  0  0
  150.1493  139.3240  155.5848 N   0  0  0  0  0  0  0  0  0  0  0  0
  150.0409  140.7532  155.9110 C   0  0  0  0  0  0  0  0  0  0  0  0
  149.8300  140.9796  157.4162 C   0  0  0  0  0  0  0  0  0  0  0  0
  150.9538  140.4987  158.1338 O   0  0  0  0  0  0  0  0  0  0  0  0
  151.9525  141.4853  158.3234 C   0  0  0  0  0  0  0  0  0  0  0  0
  151.8948  141.9705  159.7765 C   0  0  1  0  0  0  0  0  0  0  0  0
  153.2234  142.5130  160.2957 C   0  0  0  0  0  0  0  0  0  0  0  0
  152.7674  143.3766  161.4503 C   0  0  0  0  0  0  0  0  0  0  0  0
  151.4502  143.9527  160.9320 C   0  0  0  0  0  0  0  0  0  0  0  0
  151.0108  143.0800  159.8937 O   0  0  0  0  0  0  0  0  0  0  0  0
  149.0410  138.5113  155.8763 C   0  0  0  0  0  0  0  0  0  0  0  0
  149.0359  137.1888  155.6205 C   0  0  0  0  0  0  0  0  0  0  0  0
  147.6586  136.2143  155.9925 Cl  0  0  0  0  0  0  0  0  0  0  0  0
  150.9107  141.3148  155.5669 H   0  0  0  0  0  0  0  0  0  0  0  0
  149.1981  141.1778  155.3639 H   0  0  0  0  0  0  0  0  0  0  0  0
  149.7027  142.0457  157.6098 H   0  0  0  0  0  0  0  0  0  0  0  0
  148.9210  140.4783  157.7522 H   0  0  0  0  0  0  0  0  0  0  0  0
  152.9292  141.0449  158.1162 H   0  0  0  0  0  0  0  0  0  0  0  0
  151.8152  142.3227  157.6374 H   0  0  0  0  0  0  0  0  0  0  0  0
  151.5503  141.1712  160.4352 H   0  0  0  0  0  0  0  0  0  0  0  0
  153.9159  141.7267  160.5975 H   0  0  0  0  0  0  0  0  0  0  0  0
  153.7102  143.1282  159.5374 H   0  0  0  0  0  0  0  0  0  0  0  0
  152.5835  142.7553  162.3278 H   0  0  0  0  0  0  0  0  0  0  0  0
  153.4912  144.1450  161.7229 H   0  0  0  0  0  0  0  0  0  0  0  0
  150.7028  144.0295  161.7219 H   0  0  0  0  0  0  0  0  0  0  0  0
  151.5993  144.9468  160.5096 H   0  0  0  0  0  0  0  0  0  0  0  0
  148.2033  139.0272  156.3225 H   0  0  0  0  0  0  0  0  0  0  0  0
  1  2  2  0  0  0  0
  2 17  1  0  0  0  0
  2  3  1  0  0  0  0
  3  4  1  0  0  0  0
  4  5  2  0  0  0  0
  4  6  1  0  0  0  0
  6  7  1  0  0  0  0
  6 16  1  0  0  0  0
  7  8  1  0  0  0  0
  7 19  1  0  0  0  0
  7 20  1  0  0  0  0
  8  9  1  0  0  0  0
  8 21  1  0  0  0  0
  8 22  1  0  0  0  0
  9 10  1  0  0  0  0
 10 11  1  0  0  0  0
 10 23  1  0  0  0  0
 10 24  1  0  0  0  0
 11 15  1  0  0  0  0
 11 12  1  0  0  0  0
 11 25  1  0  0  0  0
 12 13  1  0  0  0  0
 12 26  1  0  0  0  0
 12 27  1  0  0  0  0
 13 14  1  0  0  0  0
 13 28  1  0  0  0  0
 13 29  1  0  0  0  0
 14 15  1  0  0  0  0
 14 30  1  0  0  0  0
 14 31  1  0  0  0  0
 16 17  2  0  0  0  0
 16 32  1  0  0  0  0
 17 18  1  0  0  0  0
M  CHG  1   3  -1
M  END
> <s_m_source_file>
AV-unprocessed.smi

> <i_m_source_file_index>
914

> <i_lp_mmshare_version>
43012

> <i_f3d_flags>
0

> <s_epik_input>
Tz1jMVtuSF1jKD1PKW4oW2NIXWMxQ2wpW0NIMl1bQ0gyXU9bQ0gyXVtDQEBIXTJbQ0gyXVtDSDJdW0NIMl1PMg==

> <s_epik_cmdline>
J2VwaWtfcHl0aG9uJywgJy1waCcsICc3LjAnLCAnLXRuJywgJzgnLCAnLW1hJywgJzIwMCcsICctbWV0YWxfYmluZGluZycsICctaW1hZScsICc8aW5maWxlLm1hZT4nLCAnLW9tYWUnLCAnPG91dGZpbGUubWFlPic=

> <r_epik_Ionization_Penalty>
1.76812

> <r_epik_Ionization_Penalty_Charging>
1.60097e-08

> <r_epik_Ionization_Penalty_Neutral>
1.76812

> <r_epik_State_Penalty>
1.87929

> <r_epik_Charging_Adjusted_Penalty>
1.87929

> <i_epik_Tot_Q>
-1

> <i_epik_Tot_abs_Q>
1

> <r_epik_Metal_State_Penalty>
0.0133872

> <b_epik_Metal_Only>
0

> <s_lp_Force_Field>
OPLS_2005

> <r_lp_Energy>
30.6138

> <b_lp_Chiralities_Consistent>
1

> <s_lp_Variant>
AV-unprocessed.smi:914-4

> <Gold.Version>
5.8.1

> <Gold.Id.Protein>
6NUR|6NUR_protein|mol2

> <Gold.PLP.Fitness>
41.4339

> <Gold.PLP.PLP>
-34.3623

> <Gold.PLP.part.hbond>
-2.0000

> <Gold.PLP.part.metal>
0.0000

> <Gold.PLP.part.buried>
-6.3089

> <Gold.PLP.part.nonpolar>
-26.7627

> <Gold.PLP.part.repulsive>
0.2941

> <Gold.PLP.ligand.clash>
0.0000

> <Gold.PLP.ligand.torsion>
0.8536

> <Gold.PLP.Chemscore.Hbond>
2.9200

> <Gold.PLP.Chemscore.CHOScore>
0.0000

> <Gold.PLP.Chemscore.Metal>
0.0000

> <Gold.Chemscore.Hbonds>
donor molecule, donor type, donor heavy atom, donor atom, acceptor molecule, acceptor atom, score
      P1  H  7989  7998       L1     5  0.78

> <Gold.PLP.Chemscore.Internal.Correction>
0.0188

> <Gold.Rescore>
     Score         DG    S(hbond)    S(metal)    S(lipo)     H(rot)  DE(clash)    DE(int)     intcor
     13.70     -14.48       1.73        0.00      72.66       2.07       0.05       0.73       ----

> <Gold.Chemscore.Fitness>
13.7006

> <Gold.Chemscore.DG>
-14.4776

> <Gold.Chemscore.ZeroCoef>
-5.4800

> <Gold.Chemscore.Hbond>
1.7335

> <Gold.Chemscore.Metal>
0.0000

> <Gold.Chemscore.Lipo>
72.6602

> <Gold.Chemscore.Internal_Hbond>
0.0000

> <Gold.Chemscore.DEClash>
0.0456

> <Gold.Chemscore.DEInternal>
0.7314

> <Gold.Chemscore.Rot>
2.0678

> <Gold.Chemscore.Internal.Correction>
   9.000000E+99

> <Gold.Chemscore.Hbonds>
donor molecule, donor type, donor heavy atom, donor atom, acceptor molecule, acceptor atom, score
      P1  H  7989  7998       L1     5  0.50

> <Gold.Chemscore.Hbond.Weighted>
-5.7899

> <Gold.Chemscore.Metal.Weighted>
-0.0000

> <Gold.Chemscore.Lipo.Weighted>
-8.5012

> <Gold.Chemscore.Internal_Hbond.Weighted>
0.0000

> <Gold.Chemscore.DEClash.Weighted>
0.0456

> <Gold.Chemscore.DEInternal.Weighted>
0.7314

> <Gold.Chemscore.Rot.Weighted>
5.2935

> <Gold.Chemscore.Internal.Correction.Weighted>
   9.000000E+99

> <Gold.Protein.RotatedTorsions>
[ 6907 6896 6895 6894 ] final   25.48 input  -60.11 | X-H torsion
[ 7974 7965 7964 7962 ] final   24.10 input  175.53 | X-H torsion
[ 8008 7997 7996 7995 ] final  -33.32 input   59.86 | X-H torsion
[ 10167 10162 10161 10158 ] final  -29.13 input  -65.29 | X-H torsion
[ 10718 10713 10712 10709 ] final -103.22 input   66.30 | X-H torsion
[ 10763 10752 10751 10750 ] final  -63.29 input  -60.55 | X-H torsion
[ 11005 11000 10999 10996 ] final  -81.10 input  -57.11 | X-H torsion

> <Gold.Protein.ActiveResidues>
 VAL166  LYS551  ARG553  GLY616  TRP617  ASP618  TYR619  PRO620  LYS621  CYS622 
 ASP623  PHE694  ASN695  SER759  ASP760  ASP761  ALA762  ILE779  LEU786  VAL792 
 PHE793  MET794  SER795  GLU796  ALA797  LYS798  CYS799  TRP800  GLU811  SER814 

> <Gold.Protein.RotatedAtoms>
  151.9732  135.0066  160.0553 H   0  0  0  0  0  0  0  0  0  0  0  0  # atno 6907 bound_to 6896
  152.1764  133.4673  159.4944 H   0  0  0  0  0  0  0  0  0  0  0  0  # atno 6908 bound_to 6896
  150.6910  134.1806  159.4290 H   0  0  0  0  0  0  0  0  0  0  0  0  # atno 6909 bound_to 6896
  146.1954  139.7652  142.8801 H   0  0  0  0  0  0  0  0  0  0  0  0  # atno 7974 bound_to 7965
  154.4152  140.1714  156.1870 H   0  0  0  0  0  0  0  0  0  0  0  0  # atno 8008 bound_to 7997
  155.9635  140.3391  155.6488 H   0  0  0  0  0  0  0  0  0  0  0  0  # atno 8009 bound_to 7997
  155.6718  140.0712  157.2508 H   0  0  0  0  0  0  0  0  0  0  0  0  # atno 8010 bound_to 7997
  140.7263  143.3953  151.1358 H   0  0  0  0  0  0  0  0  0  0  0  0  # atno 10167 bound_to 10162
  156.0257  130.5457  150.7221 H   0  0  0  0  0  0  0  0  0  0  0  0  # atno 10718 bound_to 10713
  154.3129  135.6212  153.5473 H   0  0  0  0  0  0  0  0  0  0  0  0  # atno 10763 bound_to 10752
  152.9827  135.5705  154.5157 H   0  0  0  0  0  0  0  0  0  0  0  0  # atno 10764 bound_to 10752
  154.4810  135.2863  155.1547 H   0  0  0  0  0  0  0  0  0  0  0  0  # atno 10765 bound_to 10752
  141.1667  133.7181  156.8372 H   0  0  0  0  0  0  0  0  0  0  0  0  # atno 11005 bound_to 11000
  145.3661  141.0334  143.3257 LP  0  0  0  0  0  0  0  0  0  0  0  0  # atno 17320 bound_to 7965
  144.8569  139.5236  143.6830 LP  0  0  0  0  0  0  0  0  0  0  0  0  # atno 17321 bound_to 7965
  139.7565  143.8700  152.3090 LP  0  0  0  0  0  0  0  0  0  0  0  0  # atno 17342 bound_to 10162
  139.8571  144.7136  150.9144 LP  0  0  0  0  0  0  0  0  0  0  0  0  # atno 17343 bound_to 10162
  157.4834  131.0904  151.0510 LP  0  0  0  0  0  0  0  0  0  0  0  0  # atno 17370 bound_to 10713
  157.0937  130.5953  149.5445 LP  0  0  0  0  0  0  0  0  0  0  0  0  # atno 17371 bound_to 10713
  140.2009  134.8897  157.3168 LP  0  0  0  0  0  0  0  0  0  0  0  0  # atno 17394 bound_to 11000
  140.2188  134.4048  155.7576 LP  0  0  0  0  0  0  0  0  0  0  0  0  # atno 17395 bound_to 11000

$$$$
