AV-unprocessed.smi:1124|AV-procd|sdf|4833|dock3
  -GOLD-   22720 3393D 1   1.00000     0.00000
 Structure written by MMmdl.
 52 53  0  0  0  0  0  0  0  0  2 V2000
  144.7074  135.9552  153.6440 C   0  0  0  0  0  0  0  0  0  0  0  0
  145.4107  134.6533  153.6138 N   0  3  0  0  0  0  0  0  0  0  0  0
  144.8009  133.7172  152.6437 C   0  0  0  0  0  0  0  0  0  0  0  0
  145.5913  134.0554  154.9639 C   0  0  0  0  0  0  0  0  0  0  0  0
  147.0078  133.4544  155.1794 C   0  0  0  0  0  0  0  0  0  0  0  0
  147.3462  132.4808  154.0303 C   0  0  0  0  0  0  0  0  0  0  0  0
  148.0725  134.5728  155.2265 C   0  0  0  0  0  0  0  0  0  0  0  0
  147.0478  132.6409  156.5022 C   0  0  0  0  0  0  0  0  0  0  0  0
  147.0666  133.4702  157.7059 N   0  0  0  0  0  0  0  0  0  0  0  0
  148.1476  134.0774  158.2219 C   0  0  0  0  0  0  0  0  0  0  0  0
  149.2714  134.0014  157.7243 O   0  0  0  0  0  0  0  0  0  0  0  0
  147.8906  134.8927  159.4624 C   0  0  0  0  0  0  0  0  0  0  0  0
  147.2300  134.2928  160.5600 C   0  0  0  0  0  0  0  0  0  0  0  0
  147.0299  135.0307  161.7396 C   0  0  0  0  0  0  0  0  0  0  0  0
  147.5075  136.3511  161.7860 C   0  0  0  0  0  0  0  0  0  0  0  0
  148.1423  136.9407  160.7535 N   0  0  0  0  0  0  0  0  0  0  0  0
  148.3379  136.2399  159.6087 C   0  0  0  0  0  0  0  0  0  0  0  0
  148.9698  136.9262  158.5520 N   0  0  0  0  0  0  0  0  0  0  0  0
  150.3722  137.2895  158.7290 C   0  0  0  0  0  0  0  0  0  0  0  0
  150.9498  137.8017  157.3985 C   0  0  0  0  0  0  0  0  0  0  0  0
  150.1608  138.8888  156.9225 O   0  0  0  0  0  0  0  0  0  0  0  0
  148.8092  138.5060  156.6824 C   0  0  0  0  0  0  0  0  0  0  0  0
  148.1711  138.0090  157.9908 C   0  0  0  0  0  0  0  0  0  0  0  0
  143.6785  135.8367  153.9864 H   0  0  0  0  0  0  0  0  0  0  0  0
  144.6871  136.4042  152.6504 H   0  0  0  0  0  0  0  0  0  0  0  0
  145.2119  136.6531  154.3127 H   0  0  0  0  0  0  0  0  0  0  0  0
  143.7846  133.4538  152.9396 H   0  0  0  0  0  0  0  0  0  0  0  0
  145.3870  132.8002  152.5735 H   0  0  0  0  0  0  0  0  0  0  0  0
  144.7633  134.1630  151.6491 H   0  0  0  0  0  0  0  0  0  0  0  0
  145.3820  134.8121  155.7210 H   0  0  0  0  0  0  0  0  0  0  0  0
  144.8452  133.2758  155.1283 H   0  0  0  0  0  0  0  0  0  0  0  0
  148.3142  132.0036  154.1873 H   0  0  0  0  0  0  0  0  0  0  0  0
  147.3941  132.9869  153.0657 H   0  0  0  0  0  0  0  0  0  0  0  0
  146.6010  131.6884  153.9489 H   0  0  0  0  0  0  0  0  0  0  0  0
  149.0593  134.1686  155.4551 H   0  0  0  0  0  0  0  0  0  0  0  0
  147.8403  135.3212  155.9851 H   0  0  0  0  0  0  0  0  0  0  0  0
  148.1529  135.0930  154.2719 H   0  0  0  0  0  0  0  0  0  0  0  0
  146.2162  131.9347  156.5393 H   0  0  0  0  0  0  0  0  0  0  0  0
  147.9499  132.0286  156.5294 H   0  0  0  0  0  0  0  0  0  0  0  0
  146.1830  133.6057  158.1760 H   0  0  0  0  0  0  0  0  0  0  0  0
  146.8850  133.2700  160.5108 H   0  0  0  0  0  0  0  0  0  0  0  0
  146.5290  134.5932  162.5907 H   0  0  0  0  0  0  0  0  0  0  0  0
  147.3769  136.9505  162.6749 H   0  0  0  0  0  0  0  0  0  0  0  0
  150.4602  138.0656  159.4907 H   0  0  0  0  0  0  0  0  0  0  0  0
  150.9393  136.4249  159.0760 H   0  0  0  0  0  0  0  0  0  0  0  0
  151.9761  138.1412  157.5395 H   0  0  0  0  0  0  0  0  0  0  0  0
  150.9766  137.0047  156.6533 H   0  0  0  0  0  0  0  0  0  0  0  0
  148.2590  139.3648  156.2981 H   0  0  0  0  0  0  0  0  0  0  0  0
  148.7702  137.7320  155.9138 H   0  0  0  0  0  0  0  0  0  0  0  0
  147.1488  137.6801  157.8032 H   0  0  0  0  0  0  0  0  0  0  0  0
  148.1160  138.8240  158.7136 H   0  0  0  0  0  0  0  0  0  0  0  0
  146.3410  134.8433  153.2696 H   0  0  0  0  0  0  0  0  0  0  0  0
  1  2  1  0  0  0  0
  1 24  1  0  0  0  0
  1 25  1  0  0  0  0
  1 26  1  0  0  0  0
  2  3  1  0  0  0  0
  2  4  1  0  0  0  0
  2 52  1  0  0  0  0
  3 27  1  0  0  0  0
  3 28  1  0  0  0  0
  3 29  1  0  0  0  0
  4  5  1  0  0  0  0
  4 30  1  0  0  0  0
  4 31  1  0  0  0  0
  5  6  1  0  0  0  0
  5  7  1  0  0  0  0
  5  8  1  0  0  0  0
  6 32  1  0  0  0  0
  6 33  1  0  0  0  0
  6 34  1  0  0  0  0
  7 35  1  0  0  0  0
  7 36  1  0  0  0  0
  7 37  1  0  0  0  0
  8  9  1  0  0  0  0
  8 38  1  0  0  0  0
  8 39  1  0  0  0  0
  9 10  1  0  0  0  0
  9 40  1  0  0  0  0
 10 11  2  0  0  0  0
 10 12  1  0  0  0  0
 12 17  1  0  0  0  0
 12 13  2  0  0  0  0
 13 14  1  0  0  0  0
 13 41  1  0  0  0  0
 14 15  2  0  0  0  0
 14 42  1  0  0  0  0
 15 16  1  0  0  0  0
 15 43  1  0  0  0  0
 16 17  2  0  0  0  0
 17 18  1  0  0  0  0
 18 23  1  0  0  0  0
 18 19  1  0  0  0  0
 19 20  1  0  0  0  0
 19 44  1  0  0  0  0
 19 45  1  0  0  0  0
 20 21  1  0  0  0  0
 20 46  1  0  0  0  0
 20 47  1  0  0  0  0
 21 22  1  0  0  0  0
 22 23  1  0  0  0  0
 22 48  1  0  0  0  0
 22 49  1  0  0  0  0
 23 50  1  0  0  0  0
 23 51  1  0  0  0  0
M  CHG  1   2   1
M  END
> <s_m_source_file>
AV-unprocessed.smi

> <i_m_source_file_index>
1124

> <i_lp_mmshare_version>
43012

> <i_f3d_flags>
0

> <s_epik_input>
W0NIM11OKFtDSDNdKVtDSDJdQyhbQ0gzXSkoW0NIM10pW0NIMl1bTkhdQyg9TyljMVtjSF1bY0hdW2NIXW5jMU4yW0NIMl1bQ0gyXU9bQ0gyXVtDSDJdMg==

> <s_epik_cmdline>
J2VwaWtfcHl0aG9uJywgJy1waCcsICc3LjAnLCAnLXRuJywgJzgnLCAnLW1hJywgJzIwMCcsICctbWV0YWxfYmluZGluZycsICctaW1hZScsICc8aW5maWxlLm1hZT4nLCAnLW9tYWUnLCAnPG91dGZpbGUubWFlPic=

> <r_lp_tautomer_probability>
1

> <r_epik_Ionization_Penalty>
0.000493047

> <r_epik_Ionization_Penalty_Charging>
0.000482013

> <r_epik_Ionization_Penalty_Neutral>
1.10333e-05

> <r_epik_State_Penalty>
0.000299147

> <r_epik_Charging_Adjusted_Penalty>
0.000781161

> <i_epik_Tot_Q>
1

> <i_epik_Tot_abs_Q>
1

> <r_epik_Metal_State_Penalty>
-0

> <b_epik_Metal_Only>
0

> <s_lp_Force_Field>
OPLS_2005

> <r_lp_Energy>
38.5131

> <b_lp_Chiralities_Consistent>
1

> <s_lp_Variant>
AV-unprocessed.smi:1124-1

> <Gold.Version>
5.8.1

> <Gold.Id.Protein>
6NUR|6NUR_protein|mol2

> <Gold.PLP.Fitness>
35.9919

> <Gold.PLP.PLP>
-26.4227

> <Gold.PLP.part.hbond>
-3.7363

> <Gold.PLP.part.metal>
0.0000

> <Gold.PLP.part.buried>
-4.6644

> <Gold.PLP.part.nonpolar>
-19.0675

> <Gold.PLP.part.repulsive>
0.0209

> <Gold.PLP.ligand.clash>
0.0000

> <Gold.PLP.ligand.torsion>
1.8938

> <Gold.PLP.Chemscore.Hbond>
4.1979

> <Gold.PLP.Chemscore.CHOScore>
0.0000

> <Gold.PLP.Chemscore.Metal>
0.0000

> <Gold.Chemscore.Hbonds>
donor molecule, donor type, donor heavy atom, donor atom, acceptor molecule, acceptor atom, score
      P1  H  6896  6909       L1    11  0.75
      P1  H  6931  6943       L1    16  0.67
      P1  H  6934  6947       L1    16  0.24

> <Gold.PLP.Chemscore.Internal.Correction>
0.7630

> <Gold.Rescore>
     Score         DG    S(hbond)    S(metal)    S(lipo)     H(rot)  DE(clash)    DE(int)     intcor
     14.41     -17.62       2.86        0.00      60.03       1.73       0.02       3.19       ----

> <Gold.Chemscore.Fitness>
14.4106

> <Gold.Chemscore.DG>
-17.6218

> <Gold.Chemscore.ZeroCoef>
-5.4800

> <Gold.Chemscore.Hbond>
2.8618

> <Gold.Chemscore.Metal>
0.0000

> <Gold.Chemscore.Lipo>
60.0344

> <Gold.Chemscore.Internal_Hbond>
0.0000

> <Gold.Chemscore.DEClash>
0.0222

> <Gold.Chemscore.DEInternal>
3.1890

> <Gold.Chemscore.Rot>
1.7347

> <Gold.Chemscore.Internal.Correction>
   9.000000E+99

> <Gold.Chemscore.Hbonds>
donor molecule, donor type, donor heavy atom, donor atom, acceptor molecule, acceptor atom, score
      P1  H  6896  6909       L1    11  0.49
      P1  H  6931  6943       L1    16  0.07
      P1  H  6934  6947       L1    16  0.06

> <Gold.Chemscore.Hbond.Weighted>
-9.5585

> <Gold.Chemscore.Metal.Weighted>
-0.0000

> <Gold.Chemscore.Lipo.Weighted>
-7.0240

> <Gold.Chemscore.Internal_Hbond.Weighted>
0.0000

> <Gold.Chemscore.DEClash.Weighted>
0.0222

> <Gold.Chemscore.DEInternal.Weighted>
3.1890

> <Gold.Chemscore.Rot.Weighted>
4.4408

> <Gold.Chemscore.Internal.Correction.Weighted>
   9.000000E+99

> <Gold.Protein.RotatedTorsions>
[ 6907 6896 6895 6894 ] final   14.09 input  -60.11 | X-H torsion
[ 7974 7965 7964 7962 ] final  -53.42 input  175.53 | X-H torsion
[ 8008 7997 7996 7995 ] final   31.26 input   59.86 | X-H torsion
[ 10167 10162 10161 10158 ] final   76.26 input  -65.29 | X-H torsion
[ 10718 10713 10712 10709 ] final   64.47 input   66.30 | X-H torsion
[ 10763 10752 10751 10750 ] final -123.72 input  -60.55 | X-H torsion
[ 11005 11000 10999 10996 ] final -169.45 input  -57.11 | X-H torsion

> <Gold.Protein.ActiveResidues>
 VAL166  LYS551  ARG553  GLY616  TRP617  ASP618  TYR619  PRO620  LYS621  CYS622 
 ASP623  PHE694  ASN695  SER759  ASP760  ASP761  ALA762  ILE779  LEU786  VAL792 
 PHE793  MET794  SER795  GLU796  ALA797  LYS798  CYS799  TRP800  GLU811  SER814 

> <Gold.Protein.RotatedAtoms>
  151.7967  135.0720  160.0394 H   0  0  0  0  0  0  0  0  0  0  0  0  # atno 6907 bound_to 6896
  152.3118  133.5756  159.5694 H   0  0  0  0  0  0  0  0  0  0  0  0  # atno 6908 bound_to 6896
  150.7324  134.0057  159.3695 H   0  0  0  0  0  0  0  0  0  0  0  0  # atno 6909 bound_to 6896
  145.8970  140.8025  142.9762 H   0  0  0  0  0  0  0  0  0  0  0  0  # atno 7974 bound_to 7965
  155.1036  140.3232  155.4540 H   0  0  0  0  0  0  0  0  0  0  0  0  # atno 8008 bound_to 7997
  156.2710  140.2056  156.6109 H   0  0  0  0  0  0  0  0  0  0  0  0  # atno 8009 bound_to 7997
  154.6810  140.0526  157.0253 H   0  0  0  0  0  0  0  0  0  0  0  0  # atno 8010 bound_to 7997
  139.9942  144.5734  150.7792 H   0  0  0  0  0  0  0  0  0  0  0  0  # atno 10167 bound_to 10162
  157.6042  130.9162  149.9850 H   0  0  0  0  0  0  0  0  0  0  0  0  # atno 10718 bound_to 10713
  154.8712  135.4088  154.2989 H   0  0  0  0  0  0  0  0  0  0  0  0  # atno 10763 bound_to 10752
  153.3852  135.7013  153.6541 H   0  0  0  0  0  0  0  0  0  0  0  0  # atno 10764 bound_to 10752
  153.5347  135.3660  155.2663 H   0  0  0  0  0  0  0  0  0  0  0  0  # atno 10765 bound_to 10752
  140.5305  134.5620  157.5073 H   0  0  0  0  0  0  0  0  0  0  0  0  # atno 11005 bound_to 11000
  144.6733  140.1618  143.7422 LP  0  0  0  0  0  0  0  0  0  0  0  0  # atno 17320 bound_to 7965
  145.8838  139.2337  143.1589 LP  0  0  0  0  0  0  0  0  0  0  0  0  # atno 17321 bound_to 7965
  140.7443  143.2859  151.3465 LP  0  0  0  0  0  0  0  0  0  0  0  0  # atno 17342 bound_to 10162
  139.6318  144.0706  152.2482 LP  0  0  0  0  0  0  0  0  0  0  0  0  # atno 17343 bound_to 10162
  156.1123  130.3649  150.0028 LP  0  0  0  0  0  0  0  0  0  0  0  0  # atno 17370 bound_to 10713
  156.8124  130.9329  151.3644 LP  0  0  0  0  0  0  0  0  0  0  0  0  # atno 17371 bound_to 10713
  139.9556  134.7540  156.0348 LP  0  0  0  0  0  0  0  0  0  0  0  0  # atno 17394 bound_to 11000
  141.1284  133.6593  156.3397 LP  0  0  0  0  0  0  0  0  0  0  0  0  # atno 17395 bound_to 11000

$$$$
