AV-unprocessed.smi:1410|AV-procd|sdf|5738|dock9
  -GOLD-   22720 5373D 1   1.00000     0.00000
 Structure written by MMmdl.
 40 41  0  0  0  0  0  0  0  0  4 V2000
  149.8602  134.1788  157.4548 N   0  5  0  0  0  0  0  0  0  0  0  0
  150.6586  134.7372  156.5227 C   0  0  0  0  0  0  0  0  0  0  0  0
  151.8061  135.1544  156.6620 O   0  0  0  0  0  0  0  0  0  0  0  0
  149.9793  134.8317  155.1525 C   0  0  0  0  0  0  0  0  0  0  0  0
  149.7832  136.2502  154.7572 N   0  3  2  0  0  0  0  0  0  0  0  0
  151.0698  136.9740  154.6004 C   0  0  0  0  0  0  0  0  0  0  0  0
  150.8466  138.3907  154.0428 C   0  0  0  0  0  0  0  0  0  0  0  0
  149.8663  139.2060  154.9099 C   0  0  2  0  0  0  0  0  0  0  0  0
  150.4518  139.5705  156.2001 N   0  0  0  0  0  0  0  0  0  0  0  0
  150.6954  140.8226  156.6147 C   0  0  0  0  0  0  0  0  0  0  0  0
  150.4553  141.8203  155.9356 O   0  0  0  0  0  0  0  0  0  0  0  0
  151.2484  140.8325  157.8400 N   0  0  0  0  0  0  0  0  0  0  0  0
  151.6565  141.9520  158.6155 C   0  0  0  0  0  0  0  0  0  0  0  0
  152.2984  141.6958  159.8475 C   0  0  0  0  0  0  0  0  0  0  0  0
  152.7071  142.7753  160.6569 C   0  0  0  0  0  0  0  0  0  0  0  0
  152.4737  144.0430  160.2550 N   0  3  0  0  0  0  0  0  0  0  0  0
  151.8507  144.3377  159.0939 C   0  0  0  0  0  0  0  0  0  0  0  0
  151.4192  143.2999  158.2428 C   0  0  0  0  0  0  0  0  0  0  0  0
  148.5688  138.4048  155.1139 C   0  0  0  0  0  0  0  0  0  0  0  0
  148.8420  136.9853  155.6445 C   0  0  0  0  0  0  0  0  0  0  0  0
  148.9228  133.8601  157.1828 H   0  0  0  0  0  0  0  0  0  0  0  0
  150.5622  134.3033  154.3963 H   0  0  0  0  0  0  0  0  0  0  0  0
  149.0181  134.3185  155.2176 H   0  0  0  0  0  0  0  0  0  0  0  0
  151.5845  137.0186  155.5615 H   0  0  0  0  0  0  0  0  0  0  0  0
  151.7198  136.4231  153.9194 H   0  0  0  0  0  0  0  0  0  0  0  0
  151.8010  138.9092  153.9457 H   0  0  0  0  0  0  0  0  0  0  0  0
  150.4455  138.3122  153.0314 H   0  0  0  0  0  0  0  0  0  0  0  0
  149.6142  140.1286  154.3836 H   0  0  0  0  0  0  0  0  0  0  0  0
  150.6779  138.8111  156.8257 H   0  0  0  0  0  0  0  0  0  0  0  0
  151.4610  139.9295  158.2381 H   0  0  0  0  0  0  0  0  0  0  0  0
  152.4842  140.6819  160.1713 H   0  0  0  0  0  0  0  0  0  0  0  0
  153.2080  142.6631  161.6073 H   0  0  0  0  0  0  0  0  0  0  0  0
  151.7104  145.3881  158.8840 H   0  0  0  0  0  0  0  0  0  0  0  0
  150.9052  143.5583  157.3295 H   0  0  0  0  0  0  0  0  0  0  0  0
  147.8969  138.9355  155.7898 H   0  0  0  0  0  0  0  0  0  0  0  0
  148.0418  138.3304  154.1616 H   0  0  0  0  0  0  0  0  0  0  0  0
  147.8955  136.4489  155.7168 H   0  0  0  0  0  0  0  0  0  0  0  0
  149.2524  137.0308  156.6544 H   0  0  0  0  0  0  0  0  0  0  0  0
  149.3594  136.2164  153.8403 H   0  0  0  0  0  0  0  0  0  0  0  0
  152.7760  144.8105  160.8559 H   0  0  0  0  0  0  0  0  0  0  0  0
  1  2  1  0  0  0  0
  1 21  1  0  0  0  0
  2  3  2  0  0  0  0
  2  4  1  0  0  0  0
  4  5  1  0  0  0  0
  4 22  1  0  0  0  0
  4 23  1  0  0  0  0
  5 20  1  0  0  0  0
  5  6  1  0  0  0  0
  5 39  1  0  0  0  0
  6  7  1  0  0  0  0
  6 24  1  0  0  0  0
  6 25  1  0  0  0  0
  7  8  1  0  0  0  0
  7 26  1  0  0  0  0
  7 27  1  0  0  0  0
  8  9  1  0  0  0  0
  8 19  1  0  0  0  0
  8 28  1  0  0  0  0
  9 10  1  0  0  0  0
  9 29  1  0  0  0  0
 10 11  2  0  0  0  0
 10 12  1  0  0  0  0
 12 13  1  0  0  0  0
 12 30  1  0  0  0  0
 13 18  1  0  0  0  0
 13 14  2  0  0  0  0
 14 15  1  0  0  0  0
 14 31  1  0  0  0  0
 15 16  2  0  0  0  0
 15 32  1  0  0  0  0
 16 17  1  0  0  0  0
 16 40  1  0  0  0  0
 17 18  2  0  0  0  0
 17 33  1  0  0  0  0
 18 34  1  0  0  0  0
 19 20  1  0  0  0  0
 19 35  1  0  0  0  0
 19 36  1  0  0  0  0
 20 37  1  0  0  0  0
 20 38  1  0  0  0  0
M  CHG  1   1  -1
M  CHG  1   5   1
M  CHG  1  16   1
M  END
> <s_m_source_file>
AV-unprocessed.smi

> <i_m_source_file_index>
1410

> <i_lp_mmshare_version>
43012

> <i_f3d_flags>
0

> <s_epik_input>
W05IMl1DKD1PKVtDSDJdTjFbQ0gyXVtDSDJdW0NIXShbQ0gyXVtDSDJdMSlbTkhdQyg9TylbTkhdYzJbY0hdW2NIXW5bY0hdW2NIXTI=

> <s_epik_cmdline>
J2VwaWtfcHl0aG9uJywgJy1waCcsICc3LjAnLCAnLXRuJywgJzgnLCAnLW1hJywgJzIwMCcsICctbWV0YWxfYmluZGluZycsICctaW1hZScsICc8aW5maWxlLm1hZT4nLCAnLW9tYWUnLCAnPG91dGZpbGUubWFlPic=

> <r_epik_Ionization_Penalty>
6.84067

> <r_epik_Ionization_Penalty_Charging>
6.84065

> <r_epik_Ionization_Penalty_Neutral>
1.84563e-05

> <r_epik_State_Penalty>
7.68217

> <r_epik_Charging_Adjusted_Penalty>
14.5228

> <i_epik_Tot_Q>
1

> <i_epik_Tot_abs_Q>
3

> <r_epik_Metal_State_Penalty>
3.74331

> <b_epik_Metal_Only>
1

> <s_lp_Force_Field>
OPLS_2005

> <r_lp_Energy>
20.5434

> <b_lp_Chiralities_Consistent>
1

> <s_lp_Variant>
AV-unprocessed.smi:1410-10

> <Gold.Version>
5.8.1

> <Gold.Id.Protein>
6NUR|6NUR_protein|mol2

> <Gold.PLP.Fitness>
47.4665

> <Gold.PLP.PLP>
-32.9594

> <Gold.PLP.part.hbond>
-3.0000

> <Gold.PLP.part.metal>
0.0000

> <Gold.PLP.part.buried>
-5.3146

> <Gold.PLP.part.nonpolar>
-25.9433

> <Gold.PLP.part.repulsive>
0.2743

> <Gold.PLP.ligand.clash>
0.0000

> <Gold.PLP.ligand.torsion>
0.0458

> <Gold.PLP.Chemscore.Hbond>
4.8560

> <Gold.PLP.Chemscore.CHOScore>
0.0000

> <Gold.PLP.Chemscore.Metal>
0.0000

> <Gold.Chemscore.Hbonds>
donor molecule, donor type, donor heavy atom, donor atom, acceptor molecule, acceptor atom, score
      L1  H     5    39       P1  7948  2.00
      P1  H  6896  6908       L1     1  1.81
      P1  H 10752 10763       L1     3  0.81

> <Gold.PLP.Chemscore.Internal.Correction>
0.0307

> <Gold.Rescore>
     Score         DG    S(hbond)    S(metal)    S(lipo)     H(rot)  DE(clash)    DE(int)     intcor
     16.51     -19.15       2.67        0.00      83.63       1.96       0.02       2.63       ----

> <Gold.Chemscore.Fitness>
16.5066

> <Gold.Chemscore.DG>
-19.1521

> <Gold.Chemscore.ZeroCoef>
-5.4800

> <Gold.Chemscore.Hbond>
2.6673

> <Gold.Chemscore.Metal>
0.0000

> <Gold.Chemscore.Lipo>
83.6263

> <Gold.Chemscore.Internal_Hbond>
0.0000

> <Gold.Chemscore.DEClash>
0.0202

> <Gold.Chemscore.DEInternal>
2.6253

> <Gold.Chemscore.Rot>
1.9612

> <Gold.Chemscore.Internal.Correction>
   9.000000E+99

> <Gold.Chemscore.Hbonds>
donor molecule, donor type, donor heavy atom, donor atom, acceptor molecule, acceptor atom, score
      L1  H     5    39       P1  7948  0.79
      P1  H  6896  6908       L1     1  0.73
      P1  H 10752 10763       L1     3  0.79

> <Gold.Chemscore.Hbond.Weighted>
-8.9086

> <Gold.Chemscore.Metal.Weighted>
-0.0000

> <Gold.Chemscore.Lipo.Weighted>
-9.7843

> <Gold.Chemscore.Internal_Hbond.Weighted>
0.0000

> <Gold.Chemscore.DEClash.Weighted>
0.0202

> <Gold.Chemscore.DEInternal.Weighted>
2.6253

> <Gold.Chemscore.Rot.Weighted>
5.0208

> <Gold.Chemscore.Internal.Correction.Weighted>
   9.000000E+99

> <Gold.Protein.RotatedTorsions>
[ 6907 6896 6895 6894 ] final  122.39 input  -60.11 | X-H torsion
[ 7974 7965 7964 7962 ] final   85.20 input  175.53 | X-H torsion
[ 8008 7997 7996 7995 ] final  174.61 input   59.86 | X-H torsion
[ 10167 10162 10161 10158 ] final -153.03 input  -65.29 | X-H torsion
[ 10718 10713 10712 10709 ] final  -78.45 input   66.30 | X-H torsion
[ 10763 10752 10751 10750 ] final  106.01 input  -60.55 | X-H torsion
[ 11005 11000 10999 10996 ] final -110.72 input  -57.11 | X-H torsion

> <Gold.Protein.ActiveResidues>
 VAL166  LYS551  ARG553  GLY616  TRP617  ASP618  TYR619  PRO620  LYS621  CYS622 
 ASP623  PHE694  ASN695  SER759  ASP760  ASP761  ALA762  ILE779  LEU786  VAL792 
 PHE793  MET794  SER795  GLU796  ALA797  LYS798  CYS799  TRP800  GLU811  SER814 

> <Gold.Protein.RotatedAtoms>
  152.4246  133.7174  159.6513 H   0  0  0  0  0  0  0  0  0  0  0  0  # atno 6907 bound_to 6896
  150.8123  133.8389  159.3182 H   0  0  0  0  0  0  0  0  0  0  0  0  # atno 6908 bound_to 6896
  151.6096  135.1043  160.0130 H   0  0  0  0  0  0  0  0  0  0  0  0  # atno 6909 bound_to 6896
  145.5886  139.2335  143.2312 H   0  0  0  0  0  0  0  0  0  0  0  0  # atno 7974 bound_to 7965
  156.0956  140.1430  156.9535 H   0  0  0  0  0  0  0  0  0  0  0  0  # atno 8008 bound_to 7997
  154.4669  140.0923  156.7090 H   0  0  0  0  0  0  0  0  0  0  0  0  # atno 8009 bound_to 7997
  155.4847  140.3446  155.4347 H   0  0  0  0  0  0  0  0  0  0  0  0  # atno 8010 bound_to 7997
  139.7131  143.9076  152.2476 H   0  0  0  0  0  0  0  0  0  0  0  0  # atno 10167 bound_to 10162
  156.0117  130.4518  150.3499 H   0  0  0  0  0  0  0  0  0  0  0  0  # atno 10718 bound_to 10713
  153.3872  135.3891  155.1898 H   0  0  0  0  0  0  0  0  0  0  0  0  # atno 10763 bound_to 10752
  154.8715  135.3739  154.4783 H   0  0  0  0  0  0  0  0  0  0  0  0  # atno 10764 bound_to 10752
  153.5266  135.7086  153.5765 H   0  0  0  0  0  0  0  0  0  0  0  0  # atno 10765 bound_to 10752
  141.0775  133.9275  157.2358 H   0  0  0  0  0  0  0  0  0  0  0  0  # atno 11005 bound_to 11000
  146.1663  140.6712  142.9254 LP  0  0  0  0  0  0  0  0  0  0  0  0  # atno 17320 bound_to 7965
  144.7361  140.4813  143.6902 LP  0  0  0  0  0  0  0  0  0  0  0  0  # atno 17321 bound_to 7965
  139.8951  144.6944  150.8727 LP  0  0  0  0  0  0  0  0  0  0  0  0  # atno 17342 bound_to 10162
  140.7738  143.3556  151.1927 LP  0  0  0  0  0  0  0  0  0  0  0  0  # atno 17343 bound_to 10162
  157.1591  131.0340  151.2849 LP  0  0  0  0  0  0  0  0  0  0  0  0  # atno 17370 bound_to 10713
  157.4326  130.7499  149.7003 LP  0  0  0  0  0  0  0  0  0  0  0  0  # atno 17371 bound_to 10713
  139.9588  135.0159  156.9203 LP  0  0  0  0  0  0  0  0  0  0  0  0  # atno 17394 bound_to 11000
  140.5540  134.0599  155.7378 LP  0  0  0  0  0  0  0  0  0  0  0  0  # atno 17395 bound_to 11000

$$$$
