AV-unprocessed.smi:1538|AV-procd|sdf|6193|dock5
  -GOLD-   22720 6363D 1   1.00000     0.00000
 Structure written by MMmdl.
 37 38  0  0  0  0  0  0  0  0  2 V2000
  152.6616  143.9632  162.0460 C   0  0  0  0  0  0  0  0  0  0  0  0
  152.4882  143.1076  160.8711 N   0  0  0  0  0  0  0  0  0  0  0  0
  151.5410  143.6170  159.8694 C   0  0  0  0  0  0  0  0  0  0  0  0
  151.0588  142.5479  158.8806 C   0  0  0  0  0  0  0  0  0  0  0  0
  152.2550  141.7544  158.3399 C   0  0  2  0  0  0  0  0  0  0  0  0
  151.7957  140.7258  157.2971 C   0  0  0  0  0  0  0  0  0  0  0  0
  152.4490  139.7003  157.1023 O   0  0  0  0  0  0  0  0  0  0  0  0
  150.6642  141.0074  156.6350 N   0  0  0  0  0  0  0  0  0  0  0  0
  150.0725  140.1456  155.6217 C   0  0  0  0  0  0  0  0  0  0  0  0
  149.6283  140.9662  154.4037 C   0  0  0  0  0  0  0  0  0  0  0  0
  148.1969  141.2708  154.4509 N   0  0  0  0  0  0  0  0  0  0  0  0
  147.5547  142.1090  155.3259 C   0  0  0  0  0  0  0  0  0  0  0  0
  146.2264  142.0844  154.9865 C   0  0  0  0  0  0  0  0  0  0  0  0
  146.1143  141.2330  153.9200 N   0  3  0  0  0  0  0  0  0  0  0  0
  147.3140  140.7399  153.5950 C   0  0  0  0  0  0  0  0  0  0  0  0
  152.9922  141.0703  159.5088 C   0  0  0  0  0  0  0  0  0  0  0  0
  153.2191  141.9750  160.7319 C   0  0  0  0  0  0  0  0  0  0  0  0
  154.0487  141.6174  161.5687 O   0  0  0  0  0  0  0  0  0  0  0  0
  153.7142  144.2035  162.2041 H   0  0  0  0  0  0  0  0  0  0  0  0
  152.2879  143.4604  162.9388 H   0  0  0  0  0  0  0  0  0  0  0  0
  152.1270  144.9089  161.9484 H   0  0  0  0  0  0  0  0  0  0  0  0
  150.6748  144.0592  160.3637 H   0  0  0  0  0  0  0  0  0  0  0  0
  152.0331  144.4225  159.3228 H   0  0  0  0  0  0  0  0  0  0  0  0
  150.3595  141.8785  159.3847 H   0  0  0  0  0  0  0  0  0  0  0  0
  150.5059  143.0204  158.0676 H   0  0  0  0  0  0  0  0  0  0  0  0
  152.9425  142.4531  157.8590 H   0  0  0  0  0  0  0  0  0  0  0  0
  150.1843  141.8693  156.8506 H   0  0  0  0  0  0  0  0  0  0  0  0
  150.7999  139.3901  155.3199 H   0  0  0  0  0  0  0  0  0  0  0  0
  149.2185  139.6188  156.0508 H   0  0  0  0  0  0  0  0  0  0  0  0
  150.1789  141.9067  154.3457 H   0  0  0  0  0  0  0  0  0  0  0  0
  149.8223  140.4213  153.4788 H   0  0  0  0  0  0  0  0  0  0  0  0
  148.0770  142.6478  156.1034 H   0  0  0  0  0  0  0  0  0  0  0  0
  145.3755  142.5963  155.4124 H   0  0  0  0  0  0  0  0  0  0  0  0
  147.5265  140.0499  152.7977 H   0  0  0  0  0  0  0  0  0  0  0  0
  152.4317  140.2014  159.8578 H   0  0  0  0  0  0  0  0  0  0  0  0
  153.9577  140.6958  159.1658 H   0  0  0  0  0  0  0  0  0  0  0  0
  145.2497  141.0083  153.4435 H   0  0  0  0  0  0  0  0  0  0  0  0
  1  2  1  0  0  0  0
  1 19  1  0  0  0  0
  1 20  1  0  0  0  0
  1 21  1  0  0  0  0
  2 17  1  0  0  0  0
  2  3  1  0  0  0  0
  3  4  1  0  0  0  0
  3 22  1  0  0  0  0
  3 23  1  0  0  0  0
  4  5  1  0  0  0  0
  4 24  1  0  0  0  0
  4 25  1  0  0  0  0
  5  6  1  0  0  0  0
  5 16  1  0  0  0  0
  5 26  1  0  0  0  0
  6  7  2  0  0  0  0
  6  8  1  0  0  0  0
  8  9  1  0  0  0  0
  8 27  1  0  0  0  0
  9 10  1  0  0  0  0
  9 28  1  0  0  0  0
  9 29  1  0  0  0  0
 10 11  1  0  0  0  0
 10 30  1  0  0  0  0
 10 31  1  0  0  0  0
 11 15  1  0  0  0  0
 11 12  1  0  0  0  0
 12 13  2  0  0  0  0
 12 32  1  0  0  0  0
 13 14  1  0  0  0  0
 13 33  1  0  0  0  0
 14 15  2  0  0  0  0
 14 37  1  0  0  0  0
 15 34  1  0  0  0  0
 16 17  1  0  0  0  0
 16 35  1  0  0  0  0
 16 36  1  0  0  0  0
 17 18  2  0  0  0  0
M  CHG  1  14   1
M  END
> <s_m_source_file>
AV-unprocessed.smi

> <i_m_source_file_index>
1538

> <i_lp_mmshare_version>
43012

> <i_f3d_flags>
0

> <s_epik_input>
W0NIM11OMVtDSDJdW0NIMl1bQ0BIXShbQ0gyXUMxPU8pQyg9TylbTkhdW0NIMl1bQ0gyXW4yW2NIXVtjSF1uW2NIXTI=

> <s_epik_cmdline>
J2VwaWtfcHl0aG9uJywgJy1waCcsICc3LjAnLCAnLXRuJywgJzgnLCAnLW1hJywgJzIwMCcsICctbWV0YWxfYmluZGluZycsICctaW1hZScsICc8aW5maWxlLm1hZT4nLCAnLW9tYWUnLCAnPG91dGZpbGUubWFlPic=

> <r_lp_tautomer_probability>
1

> <r_epik_Ionization_Penalty>
0.272873

> <r_epik_Ionization_Penalty_Charging>
0

> <r_epik_Ionization_Penalty_Neutral>
0.272873

> <r_epik_State_Penalty>
0.265096

> <r_epik_Charging_Adjusted_Penalty>
0.265096

> <i_epik_Tot_Q>
1

> <i_epik_Tot_abs_Q>
1

> <r_epik_Metal_State_Penalty>
0.549113

> <b_epik_Metal_Only>
0

> <s_lp_Force_Field>
OPLS_2005

> <r_lp_Energy>
17.9959

> <b_lp_Chiralities_Consistent>
1

> <s_lp_Variant>
AV-unprocessed.smi:1538-2

> <Gold.Version>
5.8.1

> <Gold.Id.Protein>
6NUR|6NUR_protein|mol2

> <Gold.PLP.Fitness>
48.7218

> <Gold.PLP.PLP>
-36.6546

> <Gold.PLP.part.hbond>
-2.3524

> <Gold.PLP.part.metal>
0.0000

> <Gold.PLP.part.buried>
-0.6753

> <Gold.PLP.part.nonpolar>
-32.2475

> <Gold.PLP.part.repulsive>
0.0867

> <Gold.PLP.ligand.clash>
0.0000

> <Gold.PLP.ligand.torsion>
1.1688

> <Gold.PLP.Chemscore.Hbond>
3.0000

> <Gold.PLP.Chemscore.CHOScore>
1.7954

> <Gold.PLP.Chemscore.Metal>
0.0000

> <Gold.Chemscore.Hbonds>
donor molecule, donor type, donor heavy atom, donor atom, acceptor molecule, acceptor atom, score
      L1  H    14    37       P1 10175  2.00
      P1  H  7997  8008       L1     7  1.00
      L1  C    12    32       P1  8028  0.77
      L1  C    15    34       P1  7957  0.72

> <Gold.PLP.Chemscore.Internal.Correction>
0.0186

> <Gold.Rescore>
     Score         DG    S(hbond)    S(metal)    S(lipo)     H(rot)  DE(clash)    DE(int)     intcor
     13.34     -14.85       1.91        0.00      70.37       2.05       0.53       0.98       ----

> <Gold.Chemscore.Fitness>
13.3441

> <Gold.Chemscore.DG>
-14.8544

> <Gold.Chemscore.ZeroCoef>
-5.4800

> <Gold.Chemscore.Hbond>
1.9111

> <Gold.Chemscore.Metal>
0.0000

> <Gold.Chemscore.Lipo>
70.3715

> <Gold.Chemscore.Internal_Hbond>
0.0000

> <Gold.Chemscore.DEClash>
0.5256

> <Gold.Chemscore.DEInternal>
0.9846

> <Gold.Chemscore.Rot>
2.0478

> <Gold.Chemscore.Internal.Correction>
   9.000000E+99

> <Gold.Chemscore.Hbonds>
donor molecule, donor type, donor heavy atom, donor atom, acceptor molecule, acceptor atom, score
      L1  H    14    37       P1 10175  0.60
      P1  H  7997  8008       L1     7  0.78

> <Gold.Chemscore.Hbond.Weighted>
-6.3832

> <Gold.Chemscore.Metal.Weighted>
-0.0000

> <Gold.Chemscore.Lipo.Weighted>
-8.2335

> <Gold.Chemscore.Internal_Hbond.Weighted>
0.0000

> <Gold.Chemscore.DEClash.Weighted>
0.5256

> <Gold.Chemscore.DEInternal.Weighted>
0.9846

> <Gold.Chemscore.Rot.Weighted>
5.2423

> <Gold.Chemscore.Internal.Correction.Weighted>
   9.000000E+99

> <Gold.Protein.RotatedTorsions>
[ 6907 6896 6895 6894 ] final -150.46 input  -60.11 | X-H torsion
[ 7974 7965 7964 7962 ] final  -98.80 input  175.53 | X-H torsion
[ 8008 7997 7996 7995 ] final  -58.53 input   59.86 | X-H torsion
[ 10167 10162 10161 10158 ] final   66.64 input  -65.29 | X-H torsion
[ 10718 10713 10712 10709 ] final  135.01 input   66.30 | X-H torsion
[ 10763 10752 10751 10750 ] final  -72.81 input  -60.55 | X-H torsion
[ 11005 11000 10999 10996 ] final  -69.69 input  -57.11 | X-H torsion

> <Gold.Protein.ActiveResidues>
 VAL166  LYS551  ARG553  GLY616  TRP617  ASP618  TYR619  PRO620  LYS621  CYS622 
 ASP623  PHE694  ASN695  SER759  ASP760  ASP761  ALA762  ILE779  LEU786  VAL792 
 PHE793  MET794  SER795  GLU796  ALA797  LYS798  CYS799  TRP800  GLU811  SER814 

> <Gold.Protein.RotatedAtoms>
  151.1988  133.4623  159.2595 H   0  0  0  0  0  0  0  0  0  0  0  0  # atno 6907 bound_to 6896
  151.1090  135.0015  159.8495 H   0  0  0  0  0  0  0  0  0  0  0  0  # atno 6908 bound_to 6896
  152.5449  134.1909  159.8726 H   0  0  0  0  0  0  0  0  0  0  0  0  # atno 6909 bound_to 6896
  145.3158  140.9411  143.2743 H   0  0  0  0  0  0  0  0  0  0  0  0  # atno 7974 bound_to 7965
  154.4313  140.1082  156.5971 H   0  0  0  0  0  0  0  0  0  0  0  0  # atno 8008 bound_to 7997
  155.5950  140.3492  155.4558 H   0  0  0  0  0  0  0  0  0  0  0  0  # atno 8009 bound_to 7997
  156.0217  140.1241  157.0340 H   0  0  0  0  0  0  0  0  0  0  0  0  # atno 8010 bound_to 7997
  140.0982  144.4927  150.7054 H   0  0  0  0  0  0  0  0  0  0  0  0  # atno 10167 bound_to 10162
  157.4614  131.1074  150.9915 H   0  0  0  0  0  0  0  0  0  0  0  0  # atno 10718 bound_to 10713
  154.4508  135.5918  153.6191 H   0  0  0  0  0  0  0  0  0  0  0  0  # atno 10763 bound_to 10752
  152.9813  135.6020  154.3606 H   0  0  0  0  0  0  0  0  0  0  0  0  # atno 10764 bound_to 10752
  154.3467  135.2841  155.2372 H   0  0  0  0  0  0  0  0  0  0  0  0  # atno 10765 bound_to 10752
  141.1559  133.6770  156.6637 H   0  0  0  0  0  0  0  0  0  0  0  0  # atno 11005 bound_to 11000
  144.8979  139.4688  143.6647 LP  0  0  0  0  0  0  0  0  0  0  0  0  # atno 17320 bound_to 7965
  146.3101  139.7715  142.9026 LP  0  0  0  0  0  0  0  0  0  0  0  0  # atno 17321 bound_to 7965
  140.6992  143.2423  151.4914 LP  0  0  0  0  0  0  0  0  0  0  0  0  # atno 17342 bound_to 10162
  139.5686  144.1983  152.1802 LP  0  0  0  0  0  0  0  0  0  0  0  0  # atno 17343 bound_to 10162
  157.0710  130.5864  149.5402 LP  0  0  0  0  0  0  0  0  0  0  0  0  # atno 17370 bound_to 10713
  156.0030  130.5113  150.7733 LP  0  0  0  0  0  0  0  0  0  0  0  0  # atno 17371 bound_to 10713
  140.3227  134.7994  157.4265 LP  0  0  0  0  0  0  0  0  0  0  0  0  # atno 17394 bound_to 11000
  140.1083  134.5380  155.8289 LP  0  0  0  0  0  0  0  0  0  0  0  0  # atno 17395 bound_to 11000

$$$$
