AV-unprocessed.smi:103|AV-procd|sdf|985|dock3
  -GOLD-   2262017553D 1   1.00000     0.00000
 Structure written by MMmdl.
 53 55  0  0  0  0  0  0  0  0  1 V2000
  149.9714  141.1782  156.2472 C   0  0  0  0  0  0  0  0  0  0  0  0
  150.4487  139.7896  155.8426 C   0  0  0  0  0  0  0  0  0  0  0  0
  151.2444  139.6284  154.9170 O   0  0  0  0  0  0  0  0  0  0  0  0
  149.9042  138.8201  156.6002 O   0  0  0  0  0  0  0  0  0  0  0  0
  150.2299  137.4557  156.3698 C   0  0  0  0  0  0  0  0  0  0  0  0
  149.2862  136.5249  157.1535 C   0  0  2  0  0  0  0  0  0  0  0  0
  147.9322  136.7617  156.7917 O   0  0  0  0  0  0  0  0  0  0  0  0
  147.0979  136.3398  157.8185 C   0  0  1  0  0  0  0  0  0  0  0  0
  146.7215  134.8918  157.5703 N   0  0  0  0  0  0  0  0  0  0  0  0
  145.4460  134.3732  157.4329 C   0  0  0  0  0  0  0  0  0  0  0  0
  143.9034  135.2710  157.5818 S   0  0  0  0  0  0  0  0  0  0  0  0
  143.7164  135.9877  155.8984 C   0  0  0  0  0  0  0  0  0  0  0  0
  142.8405  134.2810  157.8136 O   0  0  0  0  0  0  0  0  0  0  0  0
  144.1318  136.3579  158.5472 O   0  0  0  0  0  0  0  0  0  0  0  0
  145.3423  133.0834  157.2735 N   0  0  0  0  0  0  0  0  0  0  0  0
  146.6610  132.6706  157.1967 C   0  0  0  0  0  0  0  0  0  0  0  0
  147.2786  131.4100  156.9972 C   0  0  0  0  0  0  0  0  0  0  0  0
  146.5856  130.2739  156.8362 N   0  0  0  0  0  0  0  0  0  0  0  0
  148.6289  131.3479  156.9641 N   0  0  0  0  0  0  0  0  0  0  0  0
  149.3398  132.4675  157.1185 C   0  0  0  0  0  0  0  0  0  0  0  0
  148.9007  133.7121  157.3170 N   0  0  0  0  0  0  0  0  0  0  0  0
  147.5366  133.7852  157.3557 C   0  0  0  0  0  0  0  0  0  0  0  0
  147.8515  136.6363  159.1265 C   0  0  1  0  0  0  0  0  0  0  0  0
  147.6229  135.6813  160.1558 O   0  0  0  0  0  0  0  0  0  0  0  0
  147.3251  136.0855  161.4015 C   0  0  0  0  0  0  0  0  0  0  0  0
  147.1389  134.9181  162.3605 C   0  0  0  0  0  0  0  0  0  0  0  0
  147.1906  137.2517  161.7719 O   0  0  0  0  0  0  0  0  0  0  0  0
  149.3183  136.6876  158.6894 C   0  0  2  0  0  0  0  0  0  0  0  0
  149.8925  137.9303  159.0841 O   0  0  0  0  0  0  0  0  0  0  0  0
  151.2287  138.0630  159.1727 C   0  0  0  0  0  0  0  0  0  0  0  0
  151.6891  139.4946  158.9329 C   0  0  0  0  0  0  0  0  0  0  0  0
  152.0313  137.1640  159.4241 O   0  0  0  0  0  0  0  0  0  0  0  0
  148.8825  141.2248  156.2329 H   0  0  0  0  0  0  0  0  0  0  0  0
  150.3582  141.9315  155.5606 H   0  0  0  0  0  0  0  0  0  0  0  0
  150.3168  141.4182  157.2530 H   0  0  0  0  0  0  0  0  0  0  0  0
  150.1008  137.2782  155.3020 H   0  0  0  0  0  0  0  0  0  0  0  0
  151.2761  137.2440  156.5960 H   0  0  0  0  0  0  0  0  0  0  0  0
  149.5328  135.4943  156.9021 H   0  0  0  0  0  0  0  0  0  0  0  0
  146.1518  136.8738  157.7937 H   0  0  0  0  0  0  0  0  0  0  0  0
  142.8082  136.5887  155.8593 H   0  0  0  0  0  0  0  0  0  0  0  0
  143.6539  135.1887  155.1610 H   0  0  0  0  0  0  0  0  0  0  0  0
  144.5775  136.6176  155.6759 H   0  0  0  0  0  0  0  0  0  0  0  0
  145.5760  130.2943  156.8543 H   0  0  0  0  0  0  0  0  0  0  0  0
  147.0731  129.4015  156.6921 H   0  0  0  0  0  0  0  0  0  0  0  0
  150.4128  132.3503  157.0806 H   0  0  0  0  0  0  0  0  0  0  0  0
  147.5480  137.6311  159.4581 H   0  0  0  0  0  0  0  0  0  0  0  0
  147.8906  134.1497  162.1775 H   0  0  0  0  0  0  0  0  0  0  0  0
  146.1513  134.4761  162.2276 H   0  0  0  0  0  0  0  0  0  0  0  0
  147.2332  135.2534  163.3937 H   0  0  0  0  0  0  0  0  0  0  0  0
  149.8928  135.8646  159.1170 H   0  0  0  0  0  0  0  0  0  0  0  0
  151.0738  139.9732  158.1708 H   0  0  0  0  0  0  0  0  0  0  0  0
  152.7263  139.5102  158.5975 H   0  0  0  0  0  0  0  0  0  0  0  0
  151.6147  140.0734  159.8535 H   0  0  0  0  0  0  0  0  0  0  0  0
  1  2  1  0  0  0  0
  1 33  1  0  0  0  0
  1 34  1  0  0  0  0
  1 35  1  0  0  0  0
  2  3  2  0  0  0  0
  2  4  1  0  0  0  0
  4  5  1  0  0  0  0
  5  6  1  0  0  0  0
  5 36  1  0  0  0  0
  5 37  1  0  0  0  0
  6 28  1  0  0  0  0
  6  7  1  0  0  0  0
  6 38  1  0  0  0  0
  7  8  1  0  0  0  0
  8  9  1  0  0  0  0
  8 23  1  0  0  0  0
  8 39  1  0  0  0  0
  9 22  1  0  0  0  0
  9 10  1  0  0  0  0
 10 11  1  0  0  0  0
 10 15  2  0  0  0  0
 11 12  1  0  0  0  0
 11 13  2  0  0  0  0
 11 14  2  0  0  0  0
 12 40  1  0  0  0  0
 12 41  1  0  0  0  0
 12 42  1  0  0  0  0
 15 16  1  0  0  0  0
 16 22  2  0  0  0  0
 16 17  1  0  0  0  0
 17 18  1  0  0  0  0
 17 19  2  0  0  0  0
 18 43  1  0  0  0  0
 18 44  1  0  0  0  0
 19 20  1  0  0  0  0
 20 21  2  0  0  0  0
 20 45  1  0  0  0  0
 21 22  1  0  0  0  0
 23 24  1  0  0  0  0
 23 28  1  0  0  0  0
 23 46  1  0  0  0  0
 24 25  1  0  0  0  0
 25 26  1  0  0  0  0
 25 27  2  0  0  0  0
 26 47  1  0  0  0  0
 26 48  1  0  0  0  0
 26 49  1  0  0  0  0
 28 29  1  0  0  0  0
 28 50  1  0  0  0  0
 29 30  1  0  0  0  0
 30 31  1  0  0  0  0
 30 32  2  0  0  0  0
 31 51  1  0  0  0  0
 31 52  1  0  0  0  0
 31 53  1  0  0  0  0
M  END
> <s_m_source_file>
AV-unprocessed.smi

> <i_m_source_file_index>
103

> <i_lp_mmshare_version>
43012

> <i_f3d_flags>
0

> <s_epik_input>
W0NIM11DKD1PKU9bQ0gyXVtDQEBIXTFPW0NASF0oW0NAQEhdKE9DKD1PKVtDSDNdKVtDQEhdMU9DKD1PKVtDSDNdKW4oYyhuMilTKD1PKSg9TylbQ0gzXSljKGMyMyluW2NIXW5jM1tOSDJd

> <s_epik_cmdline>
J2VwaWtfcHl0aG9uJywgJy1waCcsICc3LjAnLCAnLXRuJywgJzgnLCAnLW1hJywgJzIwMCcsICctbWV0YWxfYmluZGluZycsICctaW1hZScsICc8aW5maWxlLm1hZT4nLCAnLW9tYWUnLCAnPG91dGZpbGUubWFlPic=

> <r_lp_tautomer_probability>
1

> <r_epik_Ionization_Penalty>
1.51338e-05

> <r_epik_Ionization_Penalty_Charging>
0

> <r_epik_Ionization_Penalty_Neutral>
1.51338e-05

> <r_epik_State_Penalty>
-0

> <r_epik_Charging_Adjusted_Penalty>
0

> <i_epik_Tot_Q>
0

> <i_epik_Tot_abs_Q>
0

> <r_epik_Metal_State_Penalty>
-0

> <b_epik_Metal_Only>
0

> <s_epik_Chemistry_Notes>
This compound has an ester and may undergo hydrolysis at high or low pH. This compound contains an acetal/aminal-like group ( X-CH(R)-Y where X, Y are N, S, or O) that may be acid/base labile, releasing an aldehyde.

> <s_lp_Force_Field>
OPLS_2005

> <r_lp_Energy>
17.8584

> <b_lp_Chiralities_Consistent>
1

> <s_lp_Variant>
AV-unprocessed.smi:103-9

> <Gold.Version>
5.8.1

> <Gold.Id.Protein>
6NUR|6NUR_protein|mol2

> <Gold.PLP.Fitness>
39.0187

> <Gold.PLP.PLP>
-27.4228

> <Gold.PLP.part.hbond>
-5.4435

> <Gold.PLP.part.metal>
0.0000

> <Gold.PLP.part.buried>
-5.9027

> <Gold.PLP.part.nonpolar>
-16.3090

> <Gold.PLP.part.repulsive>
0.1297

> <Gold.PLP.ligand.clash>
0.0000

> <Gold.PLP.ligand.torsion>
2.3623

> <Gold.PLP.Chemscore.Hbond>
4.6240

> <Gold.PLP.Chemscore.CHOScore>
0.0000

> <Gold.PLP.Chemscore.Metal>
0.0000

> <Gold.Chemscore.Hbonds>
donor molecule, donor type, donor heavy atom, donor atom, acceptor molecule, acceptor atom, score
      P1  H  6896  6909       L1    32  0.73
      P1  H  6931  6943       L1    27  0.70
      P1  H  6934  6947       L1    27  0.85
      P1  H  7989  7998       L1     3  1.00
      P1  H 11000 11005       L1    13  1.00

> <Gold.PLP.Chemscore.Internal.Correction>
2.4485

> <Gold.Rescore>
     Score         DG    S(hbond)    S(metal)    S(lipo)     H(rot)  DE(clash)    DE(int)     intcor
      8.06     -13.26       4.40        0.00      33.77       4.25       0.00       5.20       ----

> <Gold.Chemscore.Fitness>
8.0590

> <Gold.Chemscore.DG>
-13.2639

> <Gold.Chemscore.ZeroCoef>
-5.4800

> <Gold.Chemscore.Hbond>
4.4015

> <Gold.Chemscore.Metal>
0.0000

> <Gold.Chemscore.Lipo>
33.7733

> <Gold.Chemscore.Internal_Hbond>
0.0000

> <Gold.Chemscore.DEClash>
0.0000

> <Gold.Chemscore.DEInternal>
5.2048

> <Gold.Chemscore.Rot>
4.2456

> <Gold.Chemscore.Internal.Correction>
   9.000000E+99

> <Gold.Chemscore.Hbonds>
donor molecule, donor type, donor heavy atom, donor atom, acceptor molecule, acceptor atom, score
      P1  H  6896  6909       L1    32  0.71
      P1  H  6931  6943       L1    27  0.57
      P1  H  6934  6947       L1    27  0.84
      P1  H  7989  7998       L1     3  0.99
      P1  H 11000 11005       L1    13  0.95

> <Gold.Chemscore.Hbond.Weighted>
-14.7010

> <Gold.Chemscore.Metal.Weighted>
-0.0000

> <Gold.Chemscore.Lipo.Weighted>
-3.9515

> <Gold.Chemscore.Internal_Hbond.Weighted>
0.0000

> <Gold.Chemscore.DEClash.Weighted>
0.0000

> <Gold.Chemscore.DEInternal.Weighted>
5.2048

> <Gold.Chemscore.Rot.Weighted>
10.8687

> <Gold.Chemscore.Internal.Correction.Weighted>
   9.000000E+99

> <Gold.Protein.RotatedTorsions>
[ 6907 6896 6895 6894 ] final  137.50 input  -60.11 | X-H torsion
[ 7974 7965 7964 7962 ] final -131.99 input  175.53 | X-H torsion
[ 8008 7997 7996 7995 ] final  145.34 input   59.86 | X-H torsion
[ 10167 10162 10161 10158 ] final -162.89 input  -65.29 | X-H torsion
[ 10718 10713 10712 10709 ] final   68.06 input   66.30 | X-H torsion
[ 10763 10752 10751 10750 ] final  149.81 input  -60.55 | X-H torsion
[ 11005 11000 10999 10996 ] final -117.20 input  -57.11 | X-H torsion

> <Gold.Protein.ActiveResidues>
 VAL166  LYS551  ARG553  GLY616  TRP617  ASP618  TYR619  PRO620  LYS621  CYS622 
 ASP623  PHE694  ASN695  SER759  ASP760  ASP761  ALA762  ILE779  LEU786  VAL792 
 PHE793  MET794  SER795  GLU796  ALA797  LYS798  CYS799  TRP800  GLU811  SER814 

> <Gold.Protein.RotatedAtoms>
  152.2773  133.5438  159.5475 H   0  0  0  0  0  0  0  0  0  0  0  0  # atno 6907 bound_to 6896
  150.7182  134.0613  159.3841 H   0  0  0  0  0  0  0  0  0  0  0  0  # atno 6908 bound_to 6896
  151.8525  135.0553  160.0511 H   0  0  0  0  0  0  0  0  0  0  0  0  # atno 6909 bound_to 6896
  144.9328  140.7148  143.4895 H   0  0  0  0  0  0  0  0  0  0  0  0  # atno 7974 bound_to 7965
  156.2885  140.2211  156.5200 H   0  0  0  0  0  0  0  0  0  0  0  0  # atno 8008 bound_to 7997
  154.7537  140.0478  157.0937 H   0  0  0  0  0  0  0  0  0  0  0  0  # atno 8009 bound_to 7997
  155.0078  140.3109  155.4845 H   0  0  0  0  0  0  0  0  0  0  0  0  # atno 8010 bound_to 7997
  139.6360  144.0350  152.2054 H   0  0  0  0  0  0  0  0  0  0  0  0  # atno 10167 bound_to 10162
  157.6267  130.9354  150.0326 H   0  0  0  0  0  0  0  0  0  0  0  0  # atno 10718 bound_to 10713
  154.0773  135.2862  155.3297 H   0  0  0  0  0  0  0  0  0  0  0  0  # atno 10763 bound_to 10752
  154.6707  135.5300  153.8138 H   0  0  0  0  0  0  0  0  0  0  0  0  # atno 10764 bound_to 10752
  153.0462  135.6557  154.0950 H   0  0  0  0  0  0  0  0  0  0  0  0  # atno 10765 bound_to 10752
  141.0370  133.9893  157.3054 H   0  0  0  0  0  0  0  0  0  0  0  0  # atno 11005 bound_to 11000
  145.3115  139.1817  143.4636 LP  0  0  0  0  0  0  0  0  0  0  0  0  # atno 17320 bound_to 7965
  146.3254  140.3120  142.8627 LP  0  0  0  0  0  0  0  0  0  0  0  0  # atno 17321 bound_to 7965
  140.0027  144.6281  150.7715 LP  0  0  0  0  0  0  0  0  0  0  0  0  # atno 17342 bound_to 10162
  140.7465  143.2892  151.3378 LP  0  0  0  0  0  0  0  0  0  0  0  0  # atno 17343 bound_to 10162
  156.1444  130.3642  149.9533 LP  0  0  0  0  0  0  0  0  0  0  0  0  # atno 17370 bound_to 10713
  156.7567  130.9135  151.3640 LP  0  0  0  0  0  0  0  0  0  0  0  0  # atno 17371 bound_to 10713
  139.9248  135.0201  156.8195 LP  0  0  0  0  0  0  0  0  0  0  0  0  # atno 17394 bound_to 11000
  140.6303  133.9912  155.7659 LP  0  0  0  0  0  0  0  0  0  0  0  0  # atno 17395 bound_to 11000

$$$$
