AV-unprocessed.smi:2149|AV-procd|sdf|8755|dock5
  -GOLD-   2272011533D 1   1.00000     0.00000
 Structure written by MMmdl.
 43 44  0  0  0  0  0  0  0  0  2 V2000
  151.6963  138.4041  156.7794 C   0  0  0  0  0  0  0  0  0  0  0  0
  151.7815  138.5072  154.9438 S   0  0  0  0  0  0  0  0  0  0  0  0
  152.8713  139.4342  154.6016 O   0  0  0  0  0  0  0  0  0  0  0  0
  151.7706  137.1474  154.3834 O   0  0  0  0  0  0  0  0  0  0  0  0
  150.2815  139.2678  154.5176 N   0  0  0  0  0  0  0  0  0  0  0  0
  150.0370  140.6271  155.0411 C   0  0  0  0  0  0  0  0  0  0  0  0
  148.8981  141.3275  154.2833 C   0  0  0  0  0  0  0  0  0  0  0  0
  147.6236  140.4793  154.2945 C   0  0  0  0  0  0  0  0  0  0  0  0
  147.9273  139.0982  153.6920 C   0  0  2  0  0  0  0  0  0  0  0  0
  146.6739  138.2130  153.6827 C   0  0  0  0  0  0  0  0  0  0  0  0
  145.6485  138.5798  154.2578 O   0  0  0  0  0  0  0  0  0  0  0  0
  146.7693  137.0442  153.0298 N   0  0  0  0  0  0  0  0  0  0  0  0
  145.6995  136.0597  152.9198 C   0  0  0  0  0  0  0  0  0  0  0  0
  145.2561  135.8687  151.4592 C   0  0  0  0  0  0  0  0  0  0  0  0
  144.8760  134.4326  151.1564 C   0  0  0  0  0  0  0  0  0  0  0  0
  145.8186  133.3819  151.1866 C   0  0  0  0  0  0  0  0  0  0  0  0
  145.3955  132.0687  150.8922 C   0  0  0  0  0  0  0  0  0  0  0  0
  144.0418  131.8346  150.5725 C   0  0  0  0  0  0  0  0  0  0  0  0
  143.1437  132.9213  150.5553 C   0  0  0  0  0  0  0  0  0  0  0  0
  143.5872  134.1646  150.8443 N   0  3  0  0  0  0  0  0  0  0  0  0
  149.0757  138.4152  154.4660 C   0  0  0  0  0  0  0  0  0  0  0  0
  152.6384  138.0096  157.1595 H   0  0  0  0  0  0  0  0  0  0  0  0
  150.8868  137.7413  157.0816 H   0  0  0  0  0  0  0  0  0  0  0  0
  151.5295  139.3983  157.1927 H   0  0  0  0  0  0  0  0  0  0  0  0
  149.7969  140.5581  156.1030 H   0  0  0  0  0  0  0  0  0  0  0  0
  150.9442  141.2243  154.9628 H   0  0  0  0  0  0  0  0  0  0  0  0
  148.7000  142.3017  154.7309 H   0  0  0  0  0  0  0  0  0  0  0  0
  149.2057  141.5173  153.2541 H   0  0  0  0  0  0  0  0  0  0  0  0
  147.2581  140.3808  155.3181 H   0  0  0  0  0  0  0  0  0  0  0  0
  146.8393  140.9810  153.7261 H   0  0  0  0  0  0  0  0  0  0  0  0
  148.2538  139.2411  152.6599 H   0  0  0  0  0  0  0  0  0  0  0  0
  147.6465  136.8209  152.5816 H   0  0  0  0  0  0  0  0  0  0  0  0
  146.0226  135.1109  153.3520 H   0  0  0  0  0  0  0  0  0  0  0  0
  144.8581  136.4041  153.5217 H   0  0  0  0  0  0  0  0  0  0  0  0
  144.4074  136.5178  151.2397 H   0  0  0  0  0  0  0  0  0  0  0  0
  146.0545  136.1670  150.7780 H   0  0  0  0  0  0  0  0  0  0  0  0
  146.8527  133.5775  151.4315 H   0  0  0  0  0  0  0  0  0  0  0  0
  146.1011  131.2508  150.9115 H   0  0  0  0  0  0  0  0  0  0  0  0
  143.6978  130.8365  150.3437 H   0  0  0  0  0  0  0  0  0  0  0  0
  142.0925  132.8344  150.3215 H   0  0  0  0  0  0  0  0  0  0  0  0
  149.3182  137.4693  153.9817 H   0  0  0  0  0  0  0  0  0  0  0  0
  148.7738  138.1777  155.4874 H   0  0  0  0  0  0  0  0  0  0  0  0
  142.9201  134.9367  150.8270 H   0  0  0  0  0  0  0  0  0  0  0  0
  1  2  1  0  0  0  0
  1 22  1  0  0  0  0
  1 23  1  0  0  0  0
  1 24  1  0  0  0  0
  2  3  2  0  0  0  0
  2  4  2  0  0  0  0
  2  5  1  0  0  0  0
  5 21  1  0  0  0  0
  5  6  1  0  0  0  0
  6  7  1  0  0  0  0
  6 25  1  0  0  0  0
  6 26  1  0  0  0  0
  7  8  1  0  0  0  0
  7 27  1  0  0  0  0
  7 28  1  0  0  0  0
  8  9  1  0  0  0  0
  8 29  1  0  0  0  0
  8 30  1  0  0  0  0
  9 10  1  0  0  0  0
  9 21  1  0  0  0  0
  9 31  1  0  0  0  0
 10 11  2  0  0  0  0
 10 12  1  0  0  0  0
 12 13  1  0  0  0  0
 12 32  1  0  0  0  0
 13 14  1  0  0  0  0
 13 33  1  0  0  0  0
 13 34  1  0  0  0  0
 14 15  1  0  0  0  0
 14 35  1  0  0  0  0
 14 36  1  0  0  0  0
 15 20  1  0  0  0  0
 15 16  2  0  0  0  0
 16 17  1  0  0  0  0
 16 37  1  0  0  0  0
 17 18  2  0  0  0  0
 17 38  1  0  0  0  0
 18 19  1  0  0  0  0
 18 39  1  0  0  0  0
 19 20  2  0  0  0  0
 19 40  1  0  0  0  0
 20 43  1  0  0  0  0
 21 41  1  0  0  0  0
 21 42  1  0  0  0  0
M  CHG  1  20   1
M  END
> <s_m_source_file>
AV-unprocessed.smi

> <i_m_source_file_index>
2149

> <i_lp_mmshare_version>
43012

> <i_f3d_flags>
0

> <s_epik_input>
W0NIM11TKD1PKSg9TylOMVtDSDJdW0NIMl1bQ0gyXVtDQEhdKFtDSDJdMSlDKD1PKVtOSF1bQ0gyXVtDSDJdYzJbY0hdW2NIXVtjSF1bY0hdbjI=

> <s_epik_cmdline>
J2VwaWtfcHl0aG9uJywgJy1waCcsICc3LjAnLCAnLXRuJywgJzgnLCAnLW1hJywgJzIwMCcsICctbWV0YWxfYmluZGluZycsICctaW1hZScsICc8aW5maWxlLm1hZT4nLCAnLW9tYWUnLCAnPG91dGZpbGUubWFlPic=

> <r_epik_Ionization_Penalty>
1.83523

> <r_epik_Ionization_Penalty_Charging>
1.83523

> <r_epik_Ionization_Penalty_Neutral>
2.62835e-08

> <r_epik_State_Penalty>
1.95153

> <r_epik_Charging_Adjusted_Penalty>
3.78676

> <i_epik_Tot_Q>
1

> <i_epik_Tot_abs_Q>
1

> <r_epik_Metal_State_Penalty>
1.97791

> <b_epik_Metal_Only>
0

> <s_lp_Force_Field>
OPLS_2005

> <r_lp_Energy>
9.7414

> <b_lp_Chiralities_Consistent>
1

> <s_lp_Variant>
AV-unprocessed.smi:2149-4

> <Gold.Version>
5.8.1

> <Gold.Id.Protein>
6NUR|6NUR_protein|mol2

> <Gold.PLP.Fitness>
46.3191

> <Gold.PLP.PLP>
-37.3438

> <Gold.PLP.part.hbond>
-4.4322

> <Gold.PLP.part.metal>
0.0000

> <Gold.PLP.part.buried>
-5.2068

> <Gold.PLP.part.nonpolar>
-28.9642

> <Gold.PLP.part.repulsive>
0.4341

> <Gold.PLP.ligand.clash>
0.0000

> <Gold.PLP.ligand.torsion>
0.8162

> <Gold.PLP.Chemscore.Hbond>
3.2847

> <Gold.PLP.Chemscore.CHOScore>
0.0000

> <Gold.PLP.Chemscore.Metal>
0.0000

> <Gold.Chemscore.Hbonds>
donor molecule, donor type, donor heavy atom, donor atom, acceptor molecule, acceptor atom, score
      L1  H    12    32       P1  7948  1.00
      L1  H    20    43       P1 10186  0.08
      P1  H  7989  7998       L1     3  0.29
      P1  H  7997  8008       L1     3  0.62
      P1  H 10752 10765       L1     4  1.00

> <Gold.PLP.Chemscore.Internal.Correction>
0.7538

> <Gold.Rescore>
     Score         DG    S(hbond)    S(metal)    S(lipo)     H(rot)  DE(clash)    DE(int)     intcor
     19.22     -20.17       2.95        0.00      83.95       1.95       0.01       0.94       ----

> <Gold.Chemscore.Fitness>
19.2231

> <Gold.Chemscore.DG>
-20.1729

> <Gold.Chemscore.ZeroCoef>
-5.4800

> <Gold.Chemscore.Hbond>
2.9502

> <Gold.Chemscore.Metal>
0.0000

> <Gold.Chemscore.Lipo>
83.9516

> <Gold.Chemscore.Internal_Hbond>
0.0000

> <Gold.Chemscore.DEClash>
0.0133

> <Gold.Chemscore.DEInternal>
0.9365

> <Gold.Chemscore.Rot>
1.9466

> <Gold.Chemscore.Internal.Correction>
   9.000000E+99

> <Gold.Chemscore.Hbonds>
donor molecule, donor type, donor heavy atom, donor atom, acceptor molecule, acceptor atom, score
      L1  H    12    32       P1  7948  0.99
      P1  H  7989  7998       L1     3  0.06
      P1  H  7997  8008       L1     3  0.63
      P1  H 10752 10765       L1     4  0.97

> <Gold.Chemscore.Hbond.Weighted>
-9.8538

> <Gold.Chemscore.Metal.Weighted>
-0.0000

> <Gold.Chemscore.Lipo.Weighted>
-9.8223

> <Gold.Chemscore.Internal_Hbond.Weighted>
0.0000

> <Gold.Chemscore.DEClash.Weighted>
0.0133

> <Gold.Chemscore.DEInternal.Weighted>
0.9365

> <Gold.Chemscore.Rot.Weighted>
4.9832

> <Gold.Chemscore.Internal.Correction.Weighted>
   9.000000E+99

> <Gold.Protein.RotatedTorsions>
[ 6907 6896 6895 6894 ] final -119.70 input  -60.11 | X-H torsion
[ 7974 7965 7964 7962 ] final  -56.41 input  175.53 | X-H torsion
[ 8008 7997 7996 7995 ] final  -18.87 input   59.86 | X-H torsion
[ 10167 10162 10161 10158 ] final  174.80 input  -65.29 | X-H torsion
[ 10718 10713 10712 10709 ] final  125.51 input   66.30 | X-H torsion
[ 10763 10752 10751 10750 ] final  170.02 input  -60.55 | X-H torsion
[ 11005 11000 10999 10996 ] final   61.67 input  -57.11 | X-H torsion

> <Gold.Protein.ActiveResidues>
 VAL166  LYS551  ARG553  GLY616  TRP617  ASP618  TYR619  PRO620  LYS621  CYS622 
 ASP623  PHE694  ASN695  SER759  ASP760  ASP761  ALA762  ILE779  LEU786  VAL792 
 PHE793  MET794  SER795  GLU796  ALA797  LYS798  CYS799  TRP800  GLU811  SER814 

> <Gold.Protein.RotatedAtoms>
  150.8328  133.8063  159.3091 H   0  0  0  0  0  0  0  0  0  0  0  0  # atno 6907 bound_to 6896
  151.5788  135.1058  160.0022 H   0  0  0  0  0  0  0  0  0  0  0  0  # atno 6908 bound_to 6896
  152.4405  133.7397  159.6690 H   0  0  0  0  0  0  0  0  0  0  0  0  # atno 6909 bound_to 6896
  145.8630  140.8272  142.9927 H   0  0  0  0  0  0  0  0  0  0  0  0  # atno 7974 bound_to 7965
  154.4876  140.2104  155.9621 H   0  0  0  0  0  0  0  0  0  0  0  0  # atno 8008 bound_to 7997
  156.1258  140.3205  155.8245 H   0  0  0  0  0  0  0  0  0  0  0  0  # atno 8009 bound_to 7997
  155.4385  140.0508  157.3003 H   0  0  0  0  0  0  0  0  0  0  0  0  # atno 8010 bound_to 7997
  139.5154  144.3105  152.0296 H   0  0  0  0  0  0  0  0  0  0  0  0  # atno 10167 bound_to 10162
  157.5497  131.1094  150.8722 H   0  0  0  0  0  0  0  0  0  0  0  0  # atno 10718 bound_to 10713
  154.3916  135.2754  155.2151 H   0  0  0  0  0  0  0  0  0  0  0  0  # atno 10763 bound_to 10752
  154.4215  135.5999  153.6016 H   0  0  0  0  0  0  0  0  0  0  0  0  # atno 10764 bound_to 10752
  152.9832  135.5973  154.4172 H   0  0  0  0  0  0  0  0  0  0  0  0  # atno 10765 bound_to 10752
  140.0145  134.6246  155.9731 H   0  0  0  0  0  0  0  0  0  0  0  0  # atno 11005 bound_to 11000
  144.6726  140.1123  143.7454 LP  0  0  0  0  0  0  0  0  0  0  0  0  # atno 17320 bound_to 7965
  145.9226  139.2555  143.1372 LP  0  0  0  0  0  0  0  0  0  0  0  0  # atno 17321 bound_to 7965
  140.2549  144.4129  150.6207 LP  0  0  0  0  0  0  0  0  0  0  0  0  # atno 17342 bound_to 10162
  140.6198  143.2175  151.6717 LP  0  0  0  0  0  0  0  0  0  0  0  0  # atno 17343 bound_to 10162
  156.9251  130.5329  149.5279 LP  0  0  0  0  0  0  0  0  0  0  0  0  # atno 17370 bound_to 10713
  156.0566  130.5626  150.9105 LP  0  0  0  0  0  0  0  0  0  0  0  0  # atno 17371 bound_to 10713
  141.1733  133.6538  156.4734 LP  0  0  0  0  0  0  0  0  0  0  0  0  # atno 17394 bound_to 11000
  140.4496  134.6941  157.5033 LP  0  0  0  0  0  0  0  0  0  0  0  0  # atno 17395 bound_to 11000

$$$$
