AV-unprocessed.smi:1401|AV-procd|sdf|5693|dock5
  -GOLD-   22720 5323D 1   1.00000     0.00000
 Structure written by MMmdl.
 48 50  0  0  0  0  0  0  0  0  1 V2000
  147.7723  136.4369  161.2297 C   0  0  0  0  0  0  0  0  0  0  0  0
  148.5402  136.6643  159.9555 C   0  0  0  0  0  0  0  0  0  0  0  0
  149.6901  137.2441  160.0666 N   0  0  0  0  0  0  0  0  0  0  0  0
  150.4733  137.5054  158.9592 N   0  0  0  0  0  0  0  0  0  0  0  0
  151.7256  138.2133  159.2593 C   0  0  0  0  0  0  0  0  0  0  0  0
  151.9122  139.4468  158.3670 C   0  0  0  0  0  0  0  0  0  0  0  0
  152.8723  139.5145  157.5992 O   0  0  0  0  0  0  0  0  0  0  0  0
  150.9878  140.4128  158.4876 N   0  0  0  0  0  0  0  0  0  0  0  0
  150.9947  141.6975  157.7902 C   0  0  1  0  0  0  0  0  0  0  0  0
  149.7326  141.7746  156.9154 C   0  0  0  0  0  0  0  0  0  0  0  0
  151.0750  142.8684  158.8049 C   0  0  2  0  0  0  0  0  0  0  0  0
  151.1423  144.2600  158.1282 C   0  0  0  0  0  0  0  0  0  0  0  0
  152.3949  144.9011  158.7517 C   0  0  1  0  0  0  0  0  0  0  0  0
  152.1234  145.2300  160.2306 C   0  0  0  0  0  0  0  0  0  0  0  0
  152.1121  143.8378  160.8876 C   0  0  0  0  0  0  0  0  0  0  0  0
  152.3486  142.8951  159.6924 C   0  0  2  0  0  0  0  0  0  0  0  0
  153.3321  143.7053  158.8559 C   0  0  0  0  0  0  0  0  0  0  0  0
  150.1435  137.1704  157.6779 C   0  0  0  0  0  0  0  0  0  0  0  0
  150.8820  137.4064  156.7200 O   0  0  0  0  0  0  0  0  0  0  0  0
  148.8386  136.5172  157.5595 C   0  0  0  0  0  0  0  0  0  0  0  0
  148.4490  136.1633  156.2327 C   0  0  0  0  0  0  0  0  0  0  0  0
  148.1263  135.8592  155.1633 N   0  0  0  0  0  0  0  0  0  0  0  0
  148.0531  136.2696  158.6374 C   0  0  0  0  0  0  0  0  0  0  0  0
  146.6897  135.5958  158.5665 C   0  0  0  0  0  0  0  0  0  0  0  0
  147.5270  135.3818  161.3518 H   0  0  0  0  0  0  0  0  0  0  0  0
  146.8409  137.0034  161.2251 H   0  0  0  0  0  0  0  0  0  0  0  0
  148.3411  136.7460  162.1081 H   0  0  0  0  0  0  0  0  0  0  0  0
  151.7386  138.5429  160.2996 H   0  0  0  0  0  0  0  0  0  0  0  0
  152.5748  137.5347  159.1558 H   0  0  0  0  0  0  0  0  0  0  0  0
  150.2369  140.2620  159.1456 H   0  0  0  0  0  0  0  0  0  0  0  0
  151.8572  141.7489  157.1238 H   0  0  0  0  0  0  0  0  0  0  0  0
  149.7065  142.6906  156.3253 H   0  0  0  0  0  0  0  0  0  0  0  0
  148.8268  141.7464  157.5221 H   0  0  0  0  0  0  0  0  0  0  0  0
  149.6897  140.9394  156.2155 H   0  0  0  0  0  0  0  0  0  0  0  0
  150.1949  142.8145  159.4480 H   0  0  0  0  0  0  0  0  0  0  0  0
  151.2745  144.1754  157.0490 H   0  0  0  0  0  0  0  0  0  0  0  0
  150.2422  144.8502  158.3040 H   0  0  0  0  0  0  0  0  0  0  0  0
  152.7851  145.7435  158.1800 H   0  0  0  0  0  0  0  0  0  0  0  0
  152.9232  145.8439  160.6471 H   0  0  0  0  0  0  0  0  0  0  0  0
  151.1830  145.7646  160.3694 H   0  0  0  0  0  0  0  0  0  0  0  0
  152.9225  143.7513  161.6127 H   0  0  0  0  0  0  0  0  0  0  0  0
  151.1773  143.6275  161.4084 H   0  0  0  0  0  0  0  0  0  0  0  0
  152.7153  141.9192  160.0055 H   0  0  0  0  0  0  0  0  0  0  0  0
  153.5650  143.2483  157.8929 H   0  0  0  0  0  0  0  0  0  0  0  0
  154.2634  143.9293  159.3792 H   0  0  0  0  0  0  0  0  0  0  0  0
  146.3666  135.4264  157.5400 H   0  0  0  0  0  0  0  0  0  0  0  0
  145.9289  136.2116  159.0473 H   0  0  0  0  0  0  0  0  0  0  0  0
  146.7170  134.6282  159.0681 H   0  0  0  0  0  0  0  0  0  0  0  0
  1  2  1  0  0  0  0
  1 25  1  0  0  0  0
  1 26  1  0  0  0  0
  1 27  1  0  0  0  0
  2 23  1  0  0  0  0
  2  3  2  0  0  0  0
  3  4  1  0  0  0  0
  4  5  1  0  0  0  0
  4 18  1  0  0  0  0
  5  6  1  0  0  0  0
  5 28  1  0  0  0  0
  5 29  1  0  0  0  0
  6  7  2  0  0  0  0
  6  8  1  0  0  0  0
  8  9  1  0  0  0  0
  8 30  1  0  0  0  0
  9 10  1  0  0  0  0
  9 11  1  0  0  0  0
  9 31  1  0  0  0  0
 10 32  1  0  0  0  0
 10 33  1  0  0  0  0
 10 34  1  0  0  0  0
 11 16  1  0  0  0  0
 11 12  1  0  0  0  0
 11 35  1  0  0  0  0
 12 13  1  0  0  0  0
 12 36  1  0  0  0  0
 12 37  1  0  0  0  0
 13 17  1  0  0  0  0
 13 14  1  0  0  0  0
 13 38  1  0  0  0  0
 14 15  1  0  0  0  0
 14 39  1  0  0  0  0
 14 40  1  0  0  0  0
 15 16  1  0  0  0  0
 15 41  1  0  0  0  0
 15 42  1  0  0  0  0
 16 17  1  0  0  0  0
 16 43  1  0  0  0  0
 17 44  1  0  0  0  0
 17 45  1  0  0  0  0
 18 19  2  0  0  0  0
 18 20  1  0  0  0  0
 20 21  1  0  0  0  0
 20 23  2  0  0  0  0
 21 22  3  0  0  0  0
 23 24  1  0  0  0  0
 24 46  1  0  0  0  0
 24 47  1  0  0  0  0
 24 48  1  0  0  0  0
M  END
> <s_m_source_file>
AV-unprocessed.smi

> <i_m_source_file_index>
1401

> <i_lp_mmshare_version>
43012

> <i_f3d_flags>
0

> <s_epik_input>
TiNDYyhjMVtDSDNdKWMoPU8pbihuYzFbQ0gzXSlbQ0gyXUMoPU8pW05IXVtDQEhdKFtDSDNdKVtDQEhdKFtDSDJdW0NASF0yMylbQ0BIXShbQ0gyXTMpW0NIMl1bQ0gyXTI=

> <s_epik_cmdline>
J2VwaWtfcHl0aG9uJywgJy1waCcsICc3LjAnLCAnLXRuJywgJzgnLCAnLW1hJywgJzIwMCcsICctbWV0YWxfYmluZGluZycsICctaW1hZScsICc8aW5maWxlLm1hZT4nLCAnLW9tYWUnLCAnPG91dGZpbGUubWFlPic=

> <r_lp_tautomer_probability>
1

> <r_epik_Ionization_Penalty>
2.16501e-08

> <r_epik_Ionization_Penalty_Charging>
2.29436e-11

> <r_epik_Ionization_Penalty_Neutral>
2.16271e-08

> <r_epik_State_Penalty>
-0

> <r_epik_Charging_Adjusted_Penalty>
2.29436e-11

> <i_epik_Tot_Q>
0

> <i_epik_Tot_abs_Q>
0

> <r_epik_Metal_State_Penalty>
-0

> <b_epik_Metal_Only>
0

> <s_lp_Force_Field>
OPLS_2005

> <r_lp_Energy>
65.2014

> <b_lp_Chiralities_Consistent>
1

> <s_lp_Variant>
AV-unprocessed.smi:1401-6

> <Gold.Version>
5.8.1

> <Gold.Id.Protein>
6NUR|6NUR_protein|mol2

> <Gold.PLP.Fitness>
47.0511

> <Gold.PLP.PLP>
-43.9544

> <Gold.PLP.part.hbond>
-2.0000

> <Gold.PLP.part.metal>
0.0000

> <Gold.PLP.part.buried>
-6.4879

> <Gold.PLP.part.nonpolar>
-36.3526

> <Gold.PLP.part.repulsive>
0.2667

> <Gold.PLP.ligand.clash>
0.0000

> <Gold.PLP.ligand.torsion>
0.0979

> <Gold.PLP.Chemscore.Hbond>
1.0902

> <Gold.PLP.Chemscore.CHOScore>
0.0000

> <Gold.PLP.Chemscore.Metal>
0.0000

> <Gold.Chemscore.Hbonds>
donor molecule, donor type, donor heavy atom, donor atom, acceptor molecule, acceptor atom, score
      P1  H  6931  6943       L1     3  0.12
      P1  H  7997  8009       L1     7  1.00

> <Gold.PLP.Chemscore.Internal.Correction>
0.0219

> <Gold.Rescore>
     Score         DG    S(hbond)    S(metal)    S(lipo)     H(rot)  DE(clash)    DE(int)     intcor
     17.45     -18.69       1.00        0.00     119.96       1.63       0.03       1.22       ----

> <Gold.Chemscore.Fitness>
17.4456

> <Gold.Chemscore.DG>
-18.6926

> <Gold.Chemscore.ZeroCoef>
-5.4800

> <Gold.Chemscore.Hbond>
1.0015

> <Gold.Chemscore.Metal>
0.0000

> <Gold.Chemscore.Lipo>
119.9596

> <Gold.Chemscore.Internal_Hbond>
0.0000

> <Gold.Chemscore.DEClash>
0.0298

> <Gold.Chemscore.DEInternal>
1.2172

> <Gold.Chemscore.Rot>
1.6281

> <Gold.Chemscore.Internal.Correction>
   9.000000E+99

> <Gold.Chemscore.Hbonds>
donor molecule, donor type, donor heavy atom, donor atom, acceptor molecule, acceptor atom, score
      P1  H  6931  6943       L1     3  0.01
      P1  H  7997  8009       L1     7  1.00

> <Gold.Chemscore.Hbond.Weighted>
-3.3452

> <Gold.Chemscore.Metal.Weighted>
-0.0000

> <Gold.Chemscore.Lipo.Weighted>
-14.0353

> <Gold.Chemscore.Internal_Hbond.Weighted>
0.0000

> <Gold.Chemscore.DEClash.Weighted>
0.0298

> <Gold.Chemscore.DEInternal.Weighted>
1.2172

> <Gold.Chemscore.Rot.Weighted>
4.1678

> <Gold.Chemscore.Internal.Correction.Weighted>
   9.000000E+99

> <Gold.Protein.RotatedTorsions>
[ 6907 6896 6895 6894 ] final   48.93 input  -60.11 | X-H torsion
[ 7974 7965 7964 7962 ] final  -72.35 input  175.53 | X-H torsion
[ 8008 7997 7996 7995 ] final  175.24 input   59.86 | X-H torsion
[ 10167 10162 10161 10158 ] final  171.89 input  -65.29 | X-H torsion
[ 10718 10713 10712 10709 ] final -141.65 input   66.30 | X-H torsion
[ 10763 10752 10751 10750 ] final   81.45 input  -60.55 | X-H torsion
[ 11005 11000 10999 10996 ] final  129.16 input  -57.11 | X-H torsion

> <Gold.Protein.ActiveResidues>
 VAL166  LYS551  ARG553  GLY616  TRP617  ASP618  TYR619  PRO620  LYS621  CYS622 
 ASP623  PHE694  ASN695  SER759  ASP760  ASP761  ALA762  ILE779  LEU786  VAL792 
 PHE793  MET794  SER795  GLU796  ALA797  LYS798  CYS799  TRP800  GLU811  SER814 

> <Gold.Protein.RotatedAtoms>
  152.2850  134.7786  160.0388 H   0  0  0  0  0  0  0  0  0  0  0  0  # atno 6907 bound_to 6896
  151.8351  133.3409  159.3634 H   0  0  0  0  0  0  0  0  0  0  0  0  # atno 6908 bound_to 6896
  150.7206  134.5374  159.5774 H   0  0  0  0  0  0  0  0  0  0  0  0  # atno 6909 bound_to 6896
  145.6663  140.9236  143.0907 H   0  0  0  0  0  0  0  0  0  0  0  0  # atno 7974 bound_to 7965
  156.0891  140.1414  156.9615 H   0  0  0  0  0  0  0  0  0  0  0  0  # atno 8008 bound_to 7997
  154.4631  140.0936  156.6994 H   0  0  0  0  0  0  0  0  0  0  0  0  # atno 8009 bound_to 7997
  155.4949  140.3449  155.4363 H   0  0  0  0  0  0  0  0  0  0  0  0  # atno 8010 bound_to 7997
  139.5060  144.3435  151.9995 H   0  0  0  0  0  0  0  0  0  0  0  0  # atno 10167 bound_to 10162
  156.3366  130.7614  151.1743 H   0  0  0  0  0  0  0  0  0  0  0  0  # atno 10718 bound_to 10713
  153.1118  135.4765  154.9047 H   0  0  0  0  0  0  0  0  0  0  0  0  # atno 10763 bound_to 10752
  154.7488  135.3100  154.8598 H   0  0  0  0  0  0  0  0  0  0  0  0  # atno 10764 bound_to 10752
  153.9186  135.6857  153.4802 H   0  0  0  0  0  0  0  0  0  0  0  0  # atno 10765 bound_to 10752
  139.9600  134.9604  156.9108 H   0  0  0  0  0  0  0  0  0  0  0  0  # atno 11005 bound_to 11000
  144.7072  139.8514  143.7426 LP  0  0  0  0  0  0  0  0  0  0  0  0  # atno 17320 bound_to 7965
  146.1083  139.4085  143.0303 LP  0  0  0  0  0  0  0  0  0  0  0  0  # atno 17321 bound_to 7965
  140.2872  144.3794  150.6100 LP  0  0  0  0  0  0  0  0  0  0  0  0  # atno 17342 bound_to 10162
  140.5973  143.2167  151.7139 LP  0  0  0  0  0  0  0  0  0  0  0  0  # atno 17343 bound_to 10162
  157.7440  131.0466  150.4903 LP  0  0  0  0  0  0  0  0  0  0  0  0  # atno 17370 bound_to 10713
  156.5077  130.4132  149.6318 LP  0  0  0  0  0  0  0  0  0  0  0  0  # atno 17371 bound_to 10713
  140.5521  134.0617  155.7372 LP  0  0  0  0  0  0  0  0  0  0  0  0  # atno 17394 bound_to 11000
  141.1276  133.9356  157.2602 LP  0  0  0  0  0  0  0  0  0  0  0  0  # atno 17395 bound_to 11000

$$$$
