AV-unprocessed.smi:1968|AV-procd|sdf|7956|dock4
  -GOLD-   2272010123D 1   1.00000     0.00000
 Structure written by MMmdl.
 42 43  0  0  0  0  0  0  0  0  1 V2000
  143.2064  145.2681  156.9728 C   0  0  0  0  0  0  0  0  0  0  0  0
  143.4333  144.8830  155.5090 C   0  0  0  0  0  0  0  0  0  0  0  0
  143.2085  145.7320  154.6462 O   0  0  0  0  0  0  0  0  0  0  0  0
  143.8659  143.6338  155.2120 N   0  0  0  0  0  0  0  0  0  0  0  0
  144.2031  143.1483  153.8682 C   0  0  0  0  0  0  0  0  0  0  0  0
  145.7302  142.9856  153.7696 C   0  0  0  0  0  0  0  0  0  0  0  0
  146.2694  142.0499  154.8772 C   0  0  0  0  0  0  0  0  0  0  0  0
  147.7288  142.0662  154.9011 N   0  0  0  0  0  0  0  0  0  0  0  0
  148.5079  141.1151  155.4378 C   0  0  0  0  0  0  0  0  0  0  0  0
  148.0607  140.0979  155.9697 O   0  0  0  0  0  0  0  0  0  0  0  0
  150.0216  141.3523  155.3341 C   0  0  0  0  0  0  0  0  0  0  0  0
  150.6929  141.4356  156.6423 N   0  0  0  0  0  0  0  0  0  0  0  0
  150.8129  142.7145  157.2212 C   0  0  0  0  0  0  0  0  0  0  0  0
  151.3976  142.9263  158.4160 C   0  0  0  0  0  0  0  0  0  0  0  0
  151.5686  144.3250  158.9885 C   0  0  0  0  0  0  0  0  0  0  0  0
  150.3874  144.9180  159.1637 F   0  0  0  0  0  0  0  0  0  0  0  0
  152.2000  144.2937  160.1628 F   0  0  0  0  0  0  0  0  0  0  0  0
  152.2871  145.0717  158.1512 F   0  0  0  0  0  0  0  0  0  0  0  0
  151.9400  141.7599  159.0843 C   0  0  0  0  0  0  0  0  0  0  0  0
  151.8446  140.5314  158.5389 C   0  0  0  0  0  0  0  0  0  0  0  0
  151.1894  140.3149  157.2470 C   0  0  0  0  0  0  0  0  0  0  0  0
  151.0940  139.1969  156.7398 O   0  0  0  0  0  0  0  0  0  0  0  0
  145.7270  142.4492  156.2670 C   0  0  0  0  0  0  0  0  0  0  0  0
  144.2001  142.6432  156.2416 C   0  0  0  0  0  0  0  0  0  0  0  0
  142.4726  144.6094  157.4381 H   0  0  0  0  0  0  0  0  0  0  0  0
  142.8304  146.2890  157.0480 H   0  0  0  0  0  0  0  0  0  0  0  0
  144.1392  145.2149  157.5344 H   0  0  0  0  0  0  0  0  0  0  0  0
  143.7164  142.1861  153.7021 H   0  0  0  0  0  0  0  0  0  0  0  0
  143.8458  143.7944  153.0676 H   0  0  0  0  0  0  0  0  0  0  0  0
  145.9962  142.5986  152.7853 H   0  0  0  0  0  0  0  0  0  0  0  0
  146.1997  143.9672  153.8527 H   0  0  0  0  0  0  0  0  0  0  0  0
  145.9277  141.0342  154.6679 H   0  0  0  0  0  0  0  0  0  0  0  0
  148.1804  142.8660  154.4815 H   0  0  0  0  0  0  0  0  0  0  0  0
  150.4515  140.5476  154.7356 H   0  0  0  0  0  0  0  0  0  0  0  0
  150.2049  142.2623  154.7591 H   0  0  0  0  0  0  0  0  0  0  0  0
  150.4062  143.5174  156.6231 H   0  0  0  0  0  0  0  0  0  0  0  0
  152.4292  141.8726  160.0407 H   0  0  0  0  0  0  0  0  0  0  0  0
  152.2596  139.6847  159.0659 H   0  0  0  0  0  0  0  0  0  0  0  0
  145.9930  141.6915  157.0051 H   0  0  0  0  0  0  0  0  0  0  0  0
  146.1965  143.3782  156.5953 H   0  0  0  0  0  0  0  0  0  0  0  0
  143.8450  142.9276  157.2330 H   0  0  0  0  0  0  0  0  0  0  0  0
  143.7054  141.6988  156.0100 H   0  0  0  0  0  0  0  0  0  0  0  0
  1  2  1  0  0  0  0
  1 25  1  0  0  0  0
  1 26  1  0  0  0  0
  1 27  1  0  0  0  0
  2  3  2  0  0  0  0
  2  4  1  0  0  0  0
  4 24  1  0  0  0  0
  4  5  1  0  0  0  0
  5  6  1  0  0  0  0
  5 28  1  0  0  0  0
  5 29  1  0  0  0  0
  6  7  1  0  0  0  0
  6 30  1  0  0  0  0
  6 31  1  0  0  0  0
  7  8  1  0  0  0  0
  7 23  1  0  0  0  0
  7 32  1  0  0  0  0
  8  9  1  0  0  0  0
  8 33  1  0  0  0  0
  9 10  2  0  0  0  0
  9 11  1  0  0  0  0
 11 12  1  0  0  0  0
 11 34  1  0  0  0  0
 11 35  1  0  0  0  0
 12 21  1  0  0  0  0
 12 13  1  0  0  0  0
 13 14  2  0  0  0  0
 13 36  1  0  0  0  0
 14 15  1  0  0  0  0
 14 19  1  0  0  0  0
 15 16  1  0  0  0  0
 15 17  1  0  0  0  0
 15 18  1  0  0  0  0
 19 20  2  0  0  0  0
 19 37  1  0  0  0  0
 20 21  1  0  0  0  0
 20 38  1  0  0  0  0
 21 22  2  0  0  0  0
 23 24  1  0  0  0  0
 23 39  1  0  0  0  0
 23 40  1  0  0  0  0
 24 41  1  0  0  0  0
 24 42  1  0  0  0  0
M  END
> <s_m_source_file>
AV-unprocessed.smi

> <i_m_source_file_index>
1968

> <i_lp_mmshare_version>
43012

> <i_f3d_flags>
0

> <s_epik_input>
W0NIM11DKD1PKU4xW0NIMl1bQ0gyXVtDSF0oW0NIMl1bQ0gyXTEpW05IXUMoPU8pW0NIMl1uMltjSF1jKEMoRikoRilGKVtjSF1bY0hdYzI9Tw==

> <s_epik_cmdline>
J2VwaWtfcHl0aG9uJywgJy1waCcsICc3LjAnLCAnLXRuJywgJzgnLCAnLW1hJywgJzIwMCcsICctbWV0YWxfYmluZGluZycsICctaW1hZScsICc8aW5maWxlLm1hZT4nLCAnLW9tYWUnLCAnPG91dGZpbGUubWFlPic=

> <r_lp_tautomer_probability>
1

> <r_epik_Ionization_Penalty>
1.143e-06

> <r_epik_Ionization_Penalty_Charging>
1.89481e-08

> <r_epik_Ionization_Penalty_Neutral>
1.12405e-06

> <r_epik_State_Penalty>
-0

> <r_epik_Charging_Adjusted_Penalty>
1.89481e-08

> <i_epik_Tot_Q>
0

> <i_epik_Tot_abs_Q>
0

> <r_epik_Metal_State_Penalty>
-0

> <b_epik_Metal_Only>
0

> <s_lp_Force_Field>
OPLS_2005

> <r_lp_Energy>
33.7668

> <b_lp_Chiralities_Consistent>
1

> <s_lp_Variant>
AV-unprocessed.smi:1968-1

> <Gold.Version>
5.8.1

> <Gold.Id.Protein>
6NUR|6NUR_protein|mol2

> <Gold.PLP.Fitness>
52.2757

> <Gold.PLP.PLP>
-49.3045

> <Gold.PLP.part.hbond>
-2.0000

> <Gold.PLP.part.metal>
0.0000

> <Gold.PLP.part.buried>
-5.5420

> <Gold.PLP.part.nonpolar>
-42.7122

> <Gold.PLP.part.repulsive>
0.1862

> <Gold.PLP.ligand.clash>
0.0000

> <Gold.PLP.ligand.torsion>
0.6675

> <Gold.PLP.Chemscore.Hbond>
0.4160

> <Gold.PLP.Chemscore.CHOScore>
1.0000

> <Gold.PLP.Chemscore.Metal>
0.0000

> <Gold.Chemscore.Hbonds>
donor molecule, donor type, donor heavy atom, donor atom, acceptor molecule, acceptor atom, score
      L1  H     8    33       P1  8028  0.19
      L1  C    13    36       P1  8028  1.00

> <Gold.PLP.Chemscore.Internal.Correction>
0.0582

> <Gold.Rescore>
     Score         DG    S(hbond)    S(metal)    S(lipo)     H(rot)  DE(clash)    DE(int)     intcor
     11.63     -12.17       0.47        0.00      79.68       1.64       0.04       0.49       ----

> <Gold.Chemscore.Fitness>
11.6328

> <Gold.Chemscore.DG>
-12.1710

> <Gold.Chemscore.ZeroCoef>
-5.4800

> <Gold.Chemscore.Hbond>
0.4717

> <Gold.Chemscore.Metal>
0.0000

> <Gold.Chemscore.Lipo>
79.6830

> <Gold.Chemscore.Internal_Hbond>
0.0000

> <Gold.Chemscore.DEClash>
0.0450

> <Gold.Chemscore.DEInternal>
0.4933

> <Gold.Chemscore.Rot>
1.6435

> <Gold.Chemscore.Internal.Correction>
   9.000000E+99

> <Gold.Chemscore.Hbonds>
donor molecule, donor type, donor heavy atom, donor atom, acceptor molecule, acceptor atom, score
      L1  H     8    33       P1  8028  0.20

> <Gold.Chemscore.Hbond.Weighted>
-1.5755

> <Gold.Chemscore.Metal.Weighted>
-0.0000

> <Gold.Chemscore.Lipo.Weighted>
-9.3229

> <Gold.Chemscore.Internal_Hbond.Weighted>
0.0000

> <Gold.Chemscore.DEClash.Weighted>
0.0450

> <Gold.Chemscore.DEInternal.Weighted>
0.4933

> <Gold.Chemscore.Rot.Weighted>
4.2074

> <Gold.Chemscore.Internal.Correction.Weighted>
   9.000000E+99

> <Gold.Protein.RotatedTorsions>
[ 6907 6896 6895 6894 ] final  -47.63 input  -60.11 | X-H torsion
[ 7974 7965 7964 7962 ] final   40.46 input  175.53 | X-H torsion
[ 8008 7997 7996 7995 ] final  149.45 input   59.86 | X-H torsion
[ 10167 10162 10161 10158 ] final -177.33 input  -65.29 | X-H torsion
[ 10718 10713 10712 10709 ] final   66.82 input   66.30 | X-H torsion
[ 10763 10752 10751 10750 ] final   77.40 input  -60.55 | X-H torsion
[ 11005 11000 10999 10996 ] final  151.15 input  -57.11 | X-H torsion

> <Gold.Protein.ActiveResidues>
 VAL166  LYS551  ARG553  GLY616  TRP617  ASP618  TYR619  PRO620  LYS621  CYS622 
 ASP623  PHE694  ASN695  SER759  ASP760  ASP761  ALA762  ILE779  LEU786  VAL792 
 PHE793  MET794  SER795  GLU796  ALA797  LYS798  CYS799  TRP800  GLU811  SER814 

> <Gold.Protein.RotatedAtoms>
  150.8988  134.8399  159.7345 H   0  0  0  0  0  0  0  0  0  0  0  0  # atno 6907 bound_to 6896
  152.4880  134.4534  159.9591 H   0  0  0  0  0  0  0  0  0  0  0  0  # atno 6908 bound_to 6896
  151.4588  133.3559  159.2841 H   0  0  0  0  0  0  0  0  0  0  0  0  # atno 6909 bound_to 6896
  146.0902  139.5530  142.9480 H   0  0  0  0  0  0  0  0  0  0  0  0  # atno 7974 bound_to 7965
  156.2754  140.2101  156.5859 H   0  0  0  0  0  0  0  0  0  0  0  0  # atno 8008 bound_to 7997
  154.7021  140.0520  157.0491 H   0  0  0  0  0  0  0  0  0  0  0  0  # atno 8009 bound_to 7997
  155.0721  140.3178  155.4630 H   0  0  0  0  0  0  0  0  0  0  0  0  # atno 8010 bound_to 7997
  139.5485  144.2171  152.1034 H   0  0  0  0  0  0  0  0  0  0  0  0  # atno 10167 bound_to 10162
  157.6193  130.9288  150.0160 H   0  0  0  0  0  0  0  0  0  0  0  0  # atno 10718 bound_to 10713
  153.0796  135.4915  154.8475 H   0  0  0  0  0  0  0  0  0  0  0  0  # atno 10763 bound_to 10752
  154.7133  135.3024  154.9165 H   0  0  0  0  0  0  0  0  0  0  0  0  # atno 10764 bound_to 10752
  153.9852  135.6785  153.4804 H   0  0  0  0  0  0  0  0  0  0  0  0  # atno 10765 bound_to 10752
  140.1194  134.8873  157.2050 H   0  0  0  0  0  0  0  0  0  0  0  0  # atno 11005 bound_to 11000
  145.6053  141.0349  143.1996 LP  0  0  0  0  0  0  0  0  0  0  0  0  # atno 17320 bound_to 7965
  144.7355  139.7599  143.7331 LP  0  0  0  0  0  0  0  0  0  0  0  0  # atno 17321 bound_to 7965
  140.1662  144.4979  150.6605 LP  0  0  0  0  0  0  0  0  0  0  0  0  # atno 17342 bound_to 10162
  140.6741  143.2298  151.5551 LP  0  0  0  0  0  0  0  0  0  0  0  0  # atno 17343 bound_to 10162
  156.1330  130.3643  149.9702 LP  0  0  0  0  0  0  0  0  0  0  0  0  # atno 17370 bound_to 10713
  156.7759  130.9203  151.3645 LP  0  0  0  0  0  0  0  0  0  0  0  0  # atno 17371 bound_to 10713
  140.2986  134.3158  155.7296 LP  0  0  0  0  0  0  0  0  0  0  0  0  # atno 17394 bound_to 11000
  141.2148  133.7578  156.9607 LP  0  0  0  0  0  0  0  0  0  0  0  0  # atno 17395 bound_to 11000

$$$$
