AV-unprocessed.smi:910|AV-procd|sdf|4116|dock1
  -GOLD-   22720 2 13D 1   1.00000     0.00000
 Structure written by MMmdl.
 46 47  0  0  0  0  0  0  0  0  1 V2000
  147.2985  133.5311  161.0616 C   0  0  0  0  0  0  0  0  0  0  0  0
  147.5979  134.9783  160.8273 C   0  0  0  0  0  0  0  0  0  0  0  0
  147.8973  135.4762  159.5670 N   0  0  0  0  0  0  0  0  0  0  0  0
  148.1009  136.7803  159.7616 C   0  0  0  0  0  0  0  0  0  0  0  0
  148.4349  137.7395  158.7734 N   0  0  0  0  0  0  0  0  0  0  0  0
  149.5597  138.4686  158.6883 C   0  0  0  0  0  0  0  0  0  0  0  0
  150.4900  138.4370  159.4943 O   0  0  0  0  0  0  0  0  0  0  0  0
  149.5544  139.2418  157.5933 N   0  0  0  0  0  0  0  0  0  0  0  0
  150.6578  140.0908  157.1559 C   0  0  0  0  0  0  0  0  0  0  0  0
  150.9306  141.2225  158.1578 C   0  0  0  0  0  0  0  0  0  0  0  0
  152.1973  141.7922  157.8621 O   0  0  0  0  0  0  0  0  0  0  0  0
  152.7319  142.6135  158.8913 C   0  0  2  0  0  0  0  0  0  0  0  0
  152.7511  141.8268  160.2176 C   0  0  0  0  0  0  0  0  0  0  0  0
  153.1860  142.7152  161.3925 C   0  0  0  0  0  0  0  0  0  0  0  0
  152.2924  143.9588  161.5032 C   0  0  0  0  0  0  0  0  0  0  0  0
  152.2799  144.7493  160.1858 C   0  0  0  0  0  0  0  0  0  0  0  0
  151.8412  143.8716  158.9964 C   0  0  1  0  0  0  0  0  0  0  0  0
  151.8484  144.6824  157.6893 C   0  0  0  0  0  0  0  0  0  0  0  0
  147.9571  137.1727  161.0551 O   0  0  0  0  0  0  0  0  0  0  0  0
  147.6387  136.0189  161.7206 C   0  0  0  0  0  0  0  0  0  0  0  0
  147.4093  136.1050  163.1913 C   0  0  0  0  0  0  0  0  0  0  0  0
  146.5089  133.4068  161.8028 H   0  0  0  0  0  0  0  0  0  0  0  0
  148.1802  133.0032  161.4253 H   0  0  0  0  0  0  0  0  0  0  0  0
  146.9706  133.0376  160.1461 H   0  0  0  0  0  0  0  0  0  0  0  0
  147.7531  137.8681  158.0408 H   0  0  0  0  0  0  0  0  0  0  0  0
  148.7466  139.2051  156.9891 H   0  0  0  0  0  0  0  0  0  0  0  0
  151.5465  139.4681  157.0510 H   0  0  0  0  0  0  0  0  0  0  0  0
  150.4446  140.5011  156.1678 H   0  0  0  0  0  0  0  0  0  0  0  0
  150.1489  141.9793  158.0894 H   0  0  0  0  0  0  0  0  0  0  0  0
  150.9144  140.8303  159.1758 H   0  0  0  0  0  0  0  0  0  0  0  0
  153.7450  142.9334  158.6400 H   0  0  0  0  0  0  0  0  0  0  0  0
  151.7579  141.4229  160.4171 H   0  0  0  0  0  0  0  0  0  0  0  0
  153.4224  140.9714  160.1431 H   0  0  0  0  0  0  0  0  0  0  0  0
  153.1494  142.1467  162.3222 H   0  0  0  0  0  0  0  0  0  0  0  0
  154.2240  143.0208  161.2560 H   0  0  0  0  0  0  0  0  0  0  0  0
  151.2756  143.6585  161.7596 H   0  0  0  0  0  0  0  0  0  0  0  0
  152.6415  144.5960  162.3163 H   0  0  0  0  0  0  0  0  0  0  0  0
  151.6130  145.6067  160.2827 H   0  0  0  0  0  0  0  0  0  0  0  0
  153.2756  145.1540  159.9975 H   0  0  0  0  0  0  0  0  0  0  0  0
  150.8156  143.5475  159.1802 H   0  0  0  0  0  0  0  0  0  0  0  0
  152.8536  145.0236  157.4398 H   0  0  0  0  0  0  0  0  0  0  0  0
  151.2088  145.5618  157.7692 H   0  0  0  0  0  0  0  0  0  0  0  0
  151.4827  144.0895  156.8505 H   0  0  0  0  0  0  0  0  0  0  0  0
  147.8627  135.2567  163.7042 H   0  0  0  0  0  0  0  0  0  0  0  0
  146.3425  136.1048  163.4151 H   0  0  0  0  0  0  0  0  0  0  0  0
  147.8412  137.0176  163.6026 H   0  0  0  0  0  0  0  0  0  0  0  0
  1  2  1  0  0  0  0
  1 22  1  0  0  0  0
  1 23  1  0  0  0  0
  1 24  1  0  0  0  0
  2 20  2  0  0  0  0
  2  3  1  0  0  0  0
  3  4  2  0  0  0  0
  4  5  1  0  0  0  0
  4 19  1  0  0  0  0
  5  6  1  0  0  0  0
  5 25  1  0  0  0  0
  6  7  2  0  0  0  0
  6  8  1  0  0  0  0
  8  9  1  0  0  0  0
  8 26  1  0  0  0  0
  9 10  1  0  0  0  0
  9 27  1  0  0  0  0
  9 28  1  0  0  0  0
 10 11  1  0  0  0  0
 10 29  1  0  0  0  0
 10 30  1  0  0  0  0
 11 12  1  0  0  0  0
 12 17  1  0  0  0  0
 12 13  1  0  0  0  0
 12 31  1  0  0  0  0
 13 14  1  0  0  0  0
 13 32  1  0  0  0  0
 13 33  1  0  0  0  0
 14 15  1  0  0  0  0
 14 34  1  0  0  0  0
 14 35  1  0  0  0  0
 15 16  1  0  0  0  0
 15 36  1  0  0  0  0
 15 37  1  0  0  0  0
 16 17  1  0  0  0  0
 16 38  1  0  0  0  0
 16 39  1  0  0  0  0
 17 18  1  0  0  0  0
 17 40  1  0  0  0  0
 18 41  1  0  0  0  0
 18 42  1  0  0  0  0
 18 43  1  0  0  0  0
 19 20  1  0  0  0  0
 20 21  1  0  0  0  0
 21 44  1  0  0  0  0
 21 45  1  0  0  0  0
 21 46  1  0  0  0  0
M  END
> <s_m_source_file>
AV-unprocessed.smi

> <i_m_source_file_index>
910

> <i_lp_mmshare_version>
43012

> <i_f3d_flags>
0

> <s_epik_input>
W0NIM11jMW5jKG9jMVtDSDNdKVtOSF1DKD1PKVtOSF1bQ0gyXVtDSDJdT1tDQEBIXTJbQ0gyXVtDSDJdW0NIMl1bQ0gyXVtDQEhdMltDSDNd

> <s_epik_cmdline>
J2VwaWtfcHl0aG9uJywgJy1waCcsICc3LjAnLCAnLXRuJywgJzgnLCAnLW1hJywgJzIwMCcsICctbWV0YWxfYmluZGluZycsICctaW1hZScsICc8aW5maWxlLm1hZT4nLCAnLW9tYWUnLCAnPG91dGZpbGUubWFlPic=

> <r_lp_tautomer_probability>
0.785861

> <r_epik_Ionization_Penalty>
4.15957e-05

> <r_epik_Ionization_Penalty_Charging>
0

> <r_epik_Ionization_Penalty_Neutral>
4.15957e-05

> <r_epik_State_Penalty>
0.0240523

> <r_epik_Charging_Adjusted_Penalty>
0.0240523

> <i_epik_Tot_Q>
0

> <i_epik_Tot_abs_Q>
0

> <r_epik_Metal_State_Penalty>
0.057053

> <b_epik_Metal_Only>
0

> <s_lp_Force_Field>
OPLS_2005

> <r_lp_Energy>
8.24802

> <b_lp_Chiralities_Consistent>
1

> <s_lp_Variant>
AV-unprocessed.smi:910-1

> <Gold.Version>
5.8.1

> <Gold.Id.Protein>
6NUR|6NUR_protein|mol2

> <Gold.PLP.Fitness>
48.1795

> <Gold.PLP.PLP>
-45.3120

> <Gold.PLP.part.hbond>
-2.9125

> <Gold.PLP.part.metal>
0.0000

> <Gold.PLP.part.buried>
-3.4986

> <Gold.PLP.part.nonpolar>
-38.7529

> <Gold.PLP.part.repulsive>
0.2226

> <Gold.PLP.ligand.clash>
0.0000

> <Gold.PLP.ligand.torsion>
0.7456

> <Gold.PLP.Chemscore.Hbond>
1.4290

> <Gold.PLP.Chemscore.CHOScore>
0.0000

> <Gold.PLP.Chemscore.Metal>
0.0000

> <Gold.Chemscore.Hbonds>
donor molecule, donor type, donor heavy atom, donor atom, acceptor molecule, acceptor atom, score
      P1  H  6931  6943       L1    19  0.96
      P1  H  6934  6947       L1    19  0.75

> <Gold.PLP.Chemscore.Internal.Correction>
0.0717

> <Gold.Rescore>
     Score         DG    S(hbond)    S(metal)    S(lipo)     H(rot)  DE(clash)    DE(int)     intcor
     18.81     -20.59       1.46        0.00     123.75       1.66       0.47       1.31       ----

> <Gold.Chemscore.Fitness>
18.8076

> <Gold.Chemscore.DG>
-20.5891

> <Gold.Chemscore.ZeroCoef>
-5.4800

> <Gold.Chemscore.Hbond>
1.4593

> <Gold.Chemscore.Metal>
0.0000

> <Gold.Chemscore.Lipo>
123.7494

> <Gold.Chemscore.Internal_Hbond>
0.0000

> <Gold.Chemscore.DEClash>
0.4692

> <Gold.Chemscore.DEInternal>
1.3123

> <Gold.Chemscore.Rot>
1.6576

> <Gold.Chemscore.Internal.Correction>
   9.000000E+99

> <Gold.Chemscore.Hbonds>
donor molecule, donor type, donor heavy atom, donor atom, acceptor molecule, acceptor atom, score
      P1  H  6931  6943       L1    19  0.85
      P1  H  6934  6947       L1    19  0.36

> <Gold.Chemscore.Hbond.Weighted>
-4.8739

> <Gold.Chemscore.Metal.Weighted>
-0.0000

> <Gold.Chemscore.Lipo.Weighted>
-14.4787

> <Gold.Chemscore.Internal_Hbond.Weighted>
0.0000

> <Gold.Chemscore.DEClash.Weighted>
0.4692

> <Gold.Chemscore.DEInternal.Weighted>
1.3123

> <Gold.Chemscore.Rot.Weighted>
4.2436

> <Gold.Chemscore.Internal.Correction.Weighted>
   9.000000E+99

> <Gold.Protein.RotatedTorsions>
[ 6907 6896 6895 6894 ] final  -68.42 input  -60.11 | X-H torsion
[ 7974 7965 7964 7962 ] final   56.43 input  175.53 | X-H torsion
[ 8008 7997 7996 7995 ] final   23.29 input   59.86 | X-H torsion
[ 10167 10162 10161 10158 ] final  -62.33 input  -65.29 | X-H torsion
[ 10718 10713 10712 10709 ] final  177.63 input   66.30 | X-H torsion
[ 10763 10752 10751 10750 ] final   68.14 input  -60.55 | X-H torsion
[ 11005 11000 10999 10996 ] final -140.44 input  -57.11 | X-H torsion

> <Gold.Protein.ActiveResidues>
 VAL166  LYS551  ARG553  GLY616  TRP617  ASP618  TYR619  PRO620  LYS621  CYS622 
 ASP623  PHE694  ASN695  SER759  ASP760  ASP761  ALA762  ILE779  LEU786  VAL792 
 PHE793  MET794  SER795  GLU796  ALA797  LYS798  CYS799  TRP800  GLU811  SER814 

> <Gold.Protein.RotatedAtoms>
  150.7357  134.5742  159.5905 H   0  0  0  0  0  0  0  0  0  0  0  0  # atno 6907 bound_to 6896
  152.3173  134.7421  160.0331 H   0  0  0  0  0  0  0  0  0  0  0  0  # atno 6908 bound_to 6896
  151.7949  133.3327  159.3546 H   0  0  0  0  0  0  0  0  0  0  0  0  # atno 6909 bound_to 6896
  145.9398  139.3879  143.0370 H   0  0  0  0  0  0  0  0  0  0  0  0  # atno 7974 bound_to 7965
  154.9787  140.3099  155.4956 H   0  0  0  0  0  0  0  0  0  0  0  0  # atno 8008 bound_to 7997
  156.2956  140.2270  156.4824 H   0  0  0  0  0  0  0  0  0  0  0  0  # atno 8009 bound_to 7997
  154.7809  140.0446  157.1115 H   0  0  0  0  0  0  0  0  0  0  0  0  # atno 8010 bound_to 7997
  140.5946  143.2348  151.6063 H   0  0  0  0  0  0  0  0  0  0  0  0  # atno 10167 bound_to 10162
  156.9026  130.9883  151.3033 H   0  0  0  0  0  0  0  0  0  0  0  0  # atno 10718 bound_to 10713
  153.0220  135.5258  154.7088 H   0  0  0  0  0  0  0  0  0  0  0  0  # atno 10763 bound_to 10752
  154.6176  135.2885  155.0364 H   0  0  0  0  0  0  0  0  0  0  0  0  # atno 10764 bound_to 10752
  154.1363  135.6585  153.4985 H   0  0  0  0  0  0  0  0  0  0  0  0  # atno 10765 bound_to 10752
  140.8423  134.2387  157.4804 H   0  0  0  0  0  0  0  0  0  0  0  0  # atno 11005 bound_to 11000
  145.8314  140.9628  143.0847 LP  0  0  0  0  0  0  0  0  0  0  0  0  # atno 17320 bound_to 7965
  144.6777  140.0168  143.7484 LP  0  0  0  0  0  0  0  0  0  0  0  0  # atno 17321 bound_to 7965
  139.5250  144.3088  152.1011 LP  0  0  0  0  0  0  0  0  0  0  0  0  # atno 17342 bound_to 10162
  140.2258  144.4420  150.6322 LP  0  0  0  0  0  0  0  0  0  0  0  0  # atno 17343 bound_to 10162
  157.6017  130.8517  149.8812 LP  0  0  0  0  0  0  0  0  0  0  0  0  # atno 17370 bound_to 10713
  156.0575  130.3706  150.1058 LP  0  0  0  0  0  0  0  0  0  0  0  0  # atno 17371 bound_to 10713
  139.8703  134.9641  156.4485 LP  0  0  0  0  0  0  0  0  0  0  0  0  # atno 17394 bound_to 11000
  140.8882  133.7868  155.9542 LP  0  0  0  0  0  0  0  0  0  0  0  0  # atno 17395 bound_to 11000

$$$$
