AV-unprocessed.smi:155|AV-procd|sdf|1270|dock3
  -GOLD-   2262018523D 1   1.00000     0.00000
 Structure written by MMmdl.
 63 66  0  0  0  0  0  0  0  0  2 V2000
  145.1643  132.0344  149.9618 C   0  0  0  0  0  0  0  0  0  0  0  0
  144.9047  133.3204  150.5954 N   0  0  0  0  0  0  0  0  0  0  0  0
  143.6349  133.2260  151.3083 C   0  0  0  0  0  0  0  0  0  0  0  0
  146.0094  133.6409  151.4999 C   0  0  0  0  0  0  0  0  0  0  0  0
  145.9993  132.7615  152.7676 C   0  0  0  0  0  0  0  0  0  0  0  0
  147.0212  133.2041  153.7521 N   0  3  1  0  0  0  0  0  0  0  0  0
  148.4032  132.9733  153.2622 C   0  0  0  0  0  0  0  0  0  0  0  0
  149.4752  133.1600  154.3493 C   0  0  0  0  0  0  0  0  0  0  0  0
  149.7443  134.6326  154.6954 C   0  0  0  0  0  0  0  0  0  0  0  0
  148.7814  135.2004  155.6413 N   0  0  0  0  0  0  0  0  0  0  0  0
  149.1473  136.3024  156.3495 C   0  0  0  0  0  0  0  0  0  0  0  0
  148.9432  136.3147  157.6939 N   0  0  0  0  0  0  0  0  0  0  0  0
  149.2915  137.3778  158.4238 C   0  0  0  0  0  0  0  0  0  0  0  0
  149.8504  138.5189  158.0196 N   0  0  0  0  0  0  0  0  0  0  0  0
  150.0563  138.5192  156.6718 C   0  0  0  0  0  0  0  0  0  0  0  0
  149.7303  137.4672  155.7682 C   0  0  0  0  0  0  0  0  0  0  0  0
  150.0556  137.8470  154.4703 N   0  0  0  0  0  0  0  0  0  0  0  0
  150.5549  139.0452  154.6019 C   0  0  0  0  0  0  0  0  0  0  0  0
  150.6111  139.5196  155.8926 N   0  0  0  0  0  0  0  0  0  0  0  0
  151.1161  140.8147  156.3202 C   0  0  0  0  0  0  0  0  0  0  0  0
  151.8134  140.8215  157.7042 C   0  0  1  0  0  0  0  0  0  0  0  0
  152.8537  139.8668  157.7601 O   0  0  0  0  0  0  0  0  0  0  0  0
  152.3594  142.1720  158.2249 C   0  0  2  0  0  0  0  0  0  0  0  0
  152.8505  142.1403  159.6713 C   0  0  0  0  0  0  0  0  0  0  0  0
  152.8879  143.6143  160.0082 C   0  0  0  0  0  0  0  0  0  0  0  0
  151.6728  144.1547  159.2557 C   0  0  0  0  0  0  0  0  0  0  0  0
  151.3919  143.2165  158.2189 O   0  0  0  0  0  0  0  0  0  0  0  0
  147.3705  134.8108  155.6388 C   0  0  0  0  0  0  0  0  0  0  0  0
  146.7940  134.5922  154.2314 C   0  0  0  0  0  0  0  0  0  0  0  0
  146.0909  132.0680  149.3875 H   0  0  0  0  0  0  0  0  0  0  0  0
  144.3602  131.7762  149.2713 H   0  0  0  0  0  0  0  0  0  0  0  0
  145.2495  131.2361  150.7010 H   0  0  0  0  0  0  0  0  0  0  0  0
  143.3511  134.1785  151.7535 H   0  0  0  0  0  0  0  0  0  0  0  0
  143.6775  132.4769  152.1003 H   0  0  0  0  0  0  0  0  0  0  0  0
  142.8347  132.9454  150.6224 H   0  0  0  0  0  0  0  0  0  0  0  0
  146.9576  133.5270  150.9720 H   0  0  0  0  0  0  0  0  0  0  0  0
  145.9493  134.6904  151.7889 H   0  0  0  0  0  0  0  0  0  0  0  0
  145.0036  132.7605  153.2099 H   0  0  0  0  0  0  0  0  0  0  0  0
  146.1908  131.7212  152.4997 H   0  0  0  0  0  0  0  0  0  0  0  0
  148.4756  131.9442  152.9075 H   0  0  0  0  0  0  0  0  0  0  0  0
  148.6087  133.6118  152.4015 H   0  0  0  0  0  0  0  0  0  0  0  0
  149.2396  132.5804  155.2429 H   0  0  0  0  0  0  0  0  0  0  0  0
  150.4051  132.7410  153.9632 H   0  0  0  0  0  0  0  0  0  0  0  0
  150.7369  134.6920  155.1447 H   0  0  0  0  0  0  0  0  0  0  0  0
  149.7773  135.2401  153.7901 H   0  0  0  0  0  0  0  0  0  0  0  0
  149.0957  137.3027  159.4833 H   0  0  0  0  0  0  0  0  0  0  0  0
  150.9091  139.6168  153.7563 H   0  0  0  0  0  0  0  0  0  0  0  0
  151.7974  141.1854  155.5546 H   0  0  0  0  0  0  0  0  0  0  0  0
  150.2776  141.5122  156.3304 H   0  0  0  0  0  0  0  0  0  0  0  0
  151.0768  140.4759  158.4303 H   0  0  0  0  0  0  0  0  0  0  0  0
  153.2249  139.8761  158.6291 H   0  0  0  0  0  0  0  0  0  0  0  0
  153.1934  142.4927  157.5972 H   0  0  0  0  0  0  0  0  0  0  0  0
  152.1366  141.6323  160.3198 H   0  0  0  0  0  0  0  0  0  0  0  0
  153.8202  141.6536  159.7808 H   0  0  0  0  0  0  0  0  0  0  0  0
  152.8484  143.8102  161.0801 H   0  0  0  0  0  0  0  0  0  0  0  0
  153.8014  144.0616  159.6135 H   0  0  0  0  0  0  0  0  0  0  0  0
  150.8046  144.2155  159.9124 H   0  0  0  0  0  0  0  0  0  0  0  0
  151.8574  145.1484  158.8465 H   0  0  0  0  0  0  0  0  0  0  0  0
  147.2288  133.9272  156.2622 H   0  0  0  0  0  0  0  0  0  0  0  0
  146.7790  135.6039  156.0970 H   0  0  0  0  0  0  0  0  0  0  0  0
  147.1671  135.3280  153.5169 H   0  0  0  0  0  0  0  0  0  0  0  0
  145.7206  134.7669  154.3001 H   0  0  0  0  0  0  0  0  0  0  0  0
  146.9013  132.5952  154.5493 H   0  0  0  0  0  0  0  0  0  0  0  0
  1  2  1  0  0  0  0
  1 30  1  0  0  0  0
  1 31  1  0  0  0  0
  1 32  1  0  0  0  0
  2  3  1  0  0  0  0
  2  4  1  0  0  0  0
  3 33  1  0  0  0  0
  3 34  1  0  0  0  0
  3 35  1  0  0  0  0
  4  5  1  0  0  0  0
  4 36  1  0  0  0  0
  4 37  1  0  0  0  0
  5  6  1  0  0  0  0
  5 38  1  0  0  0  0
  5 39  1  0  0  0  0
  6 29  1  0  0  0  0
  6  7  1  0  0  0  0
  6 63  1  0  0  0  0
  7  8  1  0  0  0  0
  7 40  1  0  0  0  0
  7 41  1  0  0  0  0
  8  9  1  0  0  0  0
  8 42  1  0  0  0  0
  8 43  1  0  0  0  0
  9 10  1  0  0  0  0
  9 44  1  0  0  0  0
  9 45  1  0  0  0  0
 10 11  1  0  0  0  0
 10 28  1  0  0  0  0
 11 16  1  0  0  0  0
 11 12  2  0  0  0  0
 12 13  1  0  0  0  0
 13 14  2  0  0  0  0
 13 46  1  0  0  0  0
 14 15  1  0  0  0  0
 15 19  1  0  0  0  0
 15 16  2  0  0  0  0
 16 17  1  0  0  0  0
 17 18  2  0  0  0  0
 18 19  1  0  0  0  0
 18 47  1  0  0  0  0
 19 20  1  0  0  0  0
 20 21  1  0  0  0  0
 20 48  1  0  0  0  0
 20 49  1  0  0  0  0
 21 22  1  0  0  0  0
 21 23  1  0  0  0  0
 21 50  1  0  0  0  0
 22 51  1  0  0  0  0
 23 27  1  0  0  0  0
 23 24  1  0  0  0  0
 23 52  1  0  0  0  0
 24 25  1  0  0  0  0
 24 53  1  0  0  0  0
 24 54  1  0  0  0  0
 25 26  1  0  0  0  0
 25 55  1  0  0  0  0
 25 56  1  0  0  0  0
 26 27  1  0  0  0  0
 26 57  1  0  0  0  0
 26 58  1  0  0  0  0
 28 29  1  0  0  0  0
 28 59  1  0  0  0  0
 28 60  1  0  0  0  0
 29 61  1  0  0  0  0
 29 62  1  0  0  0  0
M  CHG  1   6   1
M  END
> <s_m_source_file>
AV-unprocessed.smi

> <i_m_source_file_index>
155

> <i_lp_mmshare_version>
43012

> <i_f3d_flags>
0

> <s_epik_input>
W0NIM11OKFtDSDNdKVtDSDJdW0NIMl1OMVtDSDJdW0NIMl1bQ0gyXU4oW0NIMl1bQ0gyXTEpYyhuW2NIXW4yKWMoYzIzKW5bY0hdbjNbQ0gyXVtDQEhdKFtPSF0pW0NAQEhdNFtDSDJdW0NIMl1bQ0gyXU80

> <s_epik_cmdline>
J2VwaWtfcHl0aG9uJywgJy1waCcsICc3LjAnLCAnLXRuJywgJzgnLCAnLW1hJywgJzIwMCcsICctbWV0YWxfYmluZGluZycsICctaW1hZScsICc8aW5maWxlLm1hZT4nLCAnLW9tYWUnLCAnPG91dGZpbGUubWFlPic=

> <r_epik_Ionization_Penalty>
0.0619615

> <r_epik_Ionization_Penalty_Charging>
0.0161638

> <r_epik_Ionization_Penalty_Neutral>
0.0457976

> <r_epik_State_Penalty>
0.403408

> <r_epik_Charging_Adjusted_Penalty>
0.419572

> <i_epik_Tot_Q>
1

> <i_epik_Tot_abs_Q>
1

> <r_epik_Metal_State_Penalty>
0.404222

> <b_epik_Metal_Only>
0

> <s_lp_Force_Field>
OPLS_2005

> <r_lp_Energy>
53.2961

> <b_lp_Chiralities_Consistent>
1

> <s_lp_Variant>
AV-unprocessed.smi:155-4

> <Gold.Version>
5.8.1

> <Gold.Id.Protein>
6NUR|6NUR_protein|mol2

> <Gold.PLP.Fitness>
47.1584

> <Gold.PLP.PLP>
-46.8739

> <Gold.PLP.part.hbond>
-1.0000

> <Gold.PLP.part.metal>
0.0000

> <Gold.PLP.part.buried>
-8.3165

> <Gold.PLP.part.nonpolar>
-38.0721

> <Gold.PLP.part.repulsive>
0.7213

> <Gold.PLP.ligand.clash>
0.0000

> <Gold.PLP.ligand.torsion>
1.4981

> <Gold.PLP.Chemscore.Hbond>
1.0000

> <Gold.PLP.Chemscore.CHOScore>
0.0000

> <Gold.PLP.Chemscore.Metal>
0.0000

> <Gold.Chemscore.Hbonds>
donor molecule, donor type, donor heavy atom, donor atom, acceptor molecule, acceptor atom, score
      P1  H  7997  8010       L1    22  0.80
      L1  C    18    47       P1  7957  0.03

> <Gold.PLP.Chemscore.Internal.Correction>
0.2807

> <Gold.Rescore>
     Score         DG    S(hbond)    S(metal)    S(lipo)     H(rot)  DE(clash)    DE(int)     intcor
     13.77     -15.13       0.95        0.00     113.00       2.63       0.01       1.35       ----

> <Gold.Chemscore.Fitness>
13.7736

> <Gold.Chemscore.DG>
-15.1309

> <Gold.Chemscore.ZeroCoef>
-5.4800

> <Gold.Chemscore.Hbond>
0.9489

> <Gold.Chemscore.Metal>
0.0000

> <Gold.Chemscore.Lipo>
112.9960

> <Gold.Chemscore.Internal_Hbond>
0.0000

> <Gold.Chemscore.DEClash>
0.0082

> <Gold.Chemscore.DEInternal>
1.3490

> <Gold.Chemscore.Rot>
2.6324

> <Gold.Chemscore.Internal.Correction>
   9.000000E+99

> <Gold.Chemscore.Hbonds>
donor molecule, donor type, donor heavy atom, donor atom, acceptor molecule, acceptor atom, score
      P1  H  7997  8010       L1    22  0.12

> <Gold.Chemscore.Hbond.Weighted>
-3.1692

> <Gold.Chemscore.Metal.Weighted>
-0.0000

> <Gold.Chemscore.Lipo.Weighted>
-13.2205

> <Gold.Chemscore.Internal_Hbond.Weighted>
0.0000

> <Gold.Chemscore.DEClash.Weighted>
0.0082

> <Gold.Chemscore.DEInternal.Weighted>
1.3490

> <Gold.Chemscore.Rot.Weighted>
6.7389

> <Gold.Chemscore.Internal.Correction.Weighted>
   9.000000E+99

> <Gold.Protein.RotatedTorsions>
[ 6907 6896 6895 6894 ] final  -39.54 input  -60.11 | X-H torsion
[ 7974 7965 7964 7962 ] final  163.38 input  175.53 | X-H torsion
[ 8008 7997 7996 7995 ] final   46.44 input   59.86 | X-H torsion
[ 10167 10162 10161 10158 ] final   39.26 input  -65.29 | X-H torsion
[ 10718 10713 10712 10709 ] final -123.10 input   66.30 | X-H torsion
[ 10763 10752 10751 10750 ] final  -60.01 input  -60.55 | X-H torsion
[ 11005 11000 10999 10996 ] final  101.71 input  -57.11 | X-H torsion

> <Gold.Protein.ActiveResidues>
 VAL166  LYS551  ARG553  GLY616  TRP617  ASP618  TYR619  PRO620  LYS621  CYS622 
 ASP623  PHE694  ASN695  SER759  ASP760  ASP761  ALA762  ILE779  LEU786  VAL792 
 PHE793  MET794  SER795  GLU796  ALA797  LYS798  CYS799  TRP800  GLU811  SER814 

> <Gold.Protein.RotatedAtoms>
  150.9891  134.9230  159.7888 H   0  0  0  0  0  0  0  0  0  0  0  0  # atno 6907 bound_to 6896
  152.5245  134.3306  159.9191 H   0  0  0  0  0  0  0  0  0  0  0  0  # atno 6908 bound_to 6896
  151.3312  133.3958  159.2697 H   0  0  0  0  0  0  0  0  0  0  0  0  # atno 6909 bound_to 6896
  144.7592  139.8175  143.6339 H   0  0  0  0  0  0  0  0  0  0  0  0  # atno 7974 bound_to 7965
  155.3525  140.3414  155.4239 H   0  0  0  0  0  0  0  0  0  0  0  0  # atno 8008 bound_to 7997
  156.1756  140.1646  156.8403 H   0  0  0  0  0  0  0  0  0  0  0  0  # atno 8009 bound_to 7997
  154.5279  140.0752  156.8274 H   0  0  0  0  0  0  0  0  0  0  0  0  # atno 8010 bound_to 7997
  140.3857  144.1920  150.6130 H   0  0  0  0  0  0  0  0  0  0  0  0  # atno 10167 bound_to 10162
  156.1474  130.6510  150.9862 H   0  0  0  0  0  0  0  0  0  0  0  0  # atno 10718 bound_to 10713
  154.2626  135.6305  153.5280 H   0  0  0  0  0  0  0  0  0  0  0  0  # atno 10763 bound_to 10752
  152.9893  135.5591  154.5688 H   0  0  0  0  0  0  0  0  0  0  0  0  # atno 10764 bound_to 10752
  154.5240  135.2884  155.1213 H   0  0  0  0  0  0  0  0  0  0  0  0  # atno 10765 bound_to 10752
  139.8774  134.9194  156.4948 H   0  0  0  0  0  0  0  0  0  0  0  0  # atno 11005 bound_to 11000
  146.1637  139.4761  142.9972 LP  0  0  0  0  0  0  0  0  0  0  0  0  # atno 17320 bound_to 7965
  145.6675  141.0225  143.1675 LP  0  0  0  0  0  0  0  0  0  0  0  0  # atno 17321 bound_to 7965
  140.4891  143.2353  151.8844 LP  0  0  0  0  0  0  0  0  0  0  0  0  # atno 17342 bound_to 10162
  139.4792  144.5185  151.8834 LP  0  0  0  0  0  0  0  0  0  0  0  0  # atno 17343 bound_to 10162
  157.6628  131.0877  150.7798 LP  0  0  0  0  0  0  0  0  0  0  0  0  # atno 17370 bound_to 10713
  156.7869  130.4877  149.5391 LP  0  0  0  0  0  0  0  0  0  0  0  0  # atno 17371 bound_to 10713
  140.8632  133.8044  155.9287 LP  0  0  0  0  0  0  0  0  0  0  0  0  # atno 17394 bound_to 11000
  140.9028  134.2358  157.5032 LP  0  0  0  0  0  0  0  0  0  0  0  0  # atno 17395 bound_to 11000

$$$$
