AV-unprocessed.smi:3068|AV-procd|sdf|11706|dock3
  -GOLD-   2272017113D 1   1.00000     0.00000
 Structure written by MMmdl.
 39 41  0  0  0  0  0  0  0  0  1 V2000
  153.9614  138.0394  157.8674 N   0  0  0  0  0  0  0  0  0  0  0  0
  153.2045  138.1444  156.9983 C   0  0  0  0  0  0  0  0  0  0  0  0
  152.2516  138.2773  155.9035 C   0  0  0  0  0  0  0  0  0  0  0  0
  151.8638  137.1331  155.2940 N   0  0  0  0  0  0  0  0  0  0  0  0
  150.9790  137.2417  154.2802 C   0  0  0  0  0  0  0  0  0  0  0  0
  150.4788  138.4920  153.8684 C   0  0  0  0  0  0  0  0  0  0  0  0
  150.8616  139.6383  154.4694 N   0  0  0  0  0  0  0  0  0  0  0  0
  151.7474  139.5438  155.4929 C   0  0  0  0  0  0  0  0  0  0  0  0
  152.1561  140.7300  156.1309 N   0  0  0  0  0  0  0  0  0  0  0  0
  151.1989  141.6291  156.7650 C   0  0  0  0  0  0  0  0  0  0  0  0
  151.8284  142.4522  157.9010 C   0  0  2  0  0  0  0  0  0  0  0  0
  152.1381  141.5779  159.1296 C   0  0  0  0  0  0  0  0  0  0  0  0
  152.6662  142.3649  160.2366 N   0  0  0  0  0  0  0  0  0  0  0  0
  152.9524  141.5246  161.3980 C   0  0  0  0  0  0  0  0  0  0  0  0
  153.5430  142.3254  162.5694 C   0  0  0  0  0  0  0  0  0  0  0  0
  152.5985  143.4708  162.9609 C   0  0  0  0  0  0  0  0  0  0  0  0
  152.2592  144.3197  161.7260 C   0  0  0  0  0  0  0  0  0  0  0  0
  151.7258  143.4363  160.5791 C   0  0  1  0  0  0  0  0  0  0  0  0
  151.3940  144.2933  159.3404 C   0  0  0  0  0  0  0  0  0  0  0  0
  150.9026  143.4628  158.2932 O   0  0  0  0  0  0  0  0  0  0  0  0
  150.6686  136.3278  153.7953 H   0  0  0  0  0  0  0  0  0  0  0  0
  149.7713  138.5724  153.0563 H   0  0  0  0  0  0  0  0  0  0  0  0
  153.1357  140.8597  156.3406 H   0  0  0  0  0  0  0  0  0  0  0  0
  150.7984  142.2981  156.0033 H   0  0  0  0  0  0  0  0  0  0  0  0
  150.3505  141.0540  157.1377 H   0  0  0  0  0  0  0  0  0  0  0  0
  152.7517  142.9200  157.5548 H   0  0  0  0  0  0  0  0  0  0  0  0
  151.2307  141.0599  159.4446 H   0  0  0  0  0  0  0  0  0  0  0  0
  152.8574  140.8064  158.8526 H   0  0  0  0  0  0  0  0  0  0  0  0
  152.0403  141.0231  161.7255 H   0  0  0  0  0  0  0  0  0  0  0  0
  153.6532  140.7380  161.1162 H   0  0  0  0  0  0  0  0  0  0  0  0
  153.7157  141.6708  163.4239 H   0  0  0  0  0  0  0  0  0  0  0  0
  154.5150  142.7303  162.2839 H   0  0  0  0  0  0  0  0  0  0  0  0
  151.6817  143.0599  163.3857 H   0  0  0  0  0  0  0  0  0  0  0  0
  153.0525  144.0903  163.7348 H   0  0  0  0  0  0  0  0  0  0  0  0
  151.5230  145.0788  161.9922 H   0  0  0  0  0  0  0  0  0  0  0  0
  153.1510  144.8545  161.3961 H   0  0  0  0  0  0  0  0  0  0  0  0
  150.7937  142.9809  160.9187 H   0  0  0  0  0  0  0  0  0  0  0  0
  150.6339  145.0361  159.5832 H   0  0  0  0  0  0  0  0  0  0  0  0
  152.2741  144.8380  158.9948 H   0  0  0  0  0  0  0  0  0  0  0  0
  1  2  3  0  0  0  0
  2  3  1  0  0  0  0
  3  8  1  0  0  0  0
  3  4  2  0  0  0  0
  4  5  1  0  0  0  0
  5  6  2  0  0  0  0
  5 21  1  0  0  0  0
  6  7  1  0  0  0  0
  6 22  1  0  0  0  0
  7  8  2  0  0  0  0
  8  9  1  0  0  0  0
  9 10  1  0  0  0  0
  9 23  1  0  0  0  0
 10 11  1  0  0  0  0
 10 24  1  0  0  0  0
 10 25  1  0  0  0  0
 11 20  1  0  0  0  0
 11 12  1  0  0  0  0
 11 26  1  0  0  0  0
 12 13  1  0  0  0  0
 12 27  1  0  0  0  0
 12 28  1  0  0  0  0
 13 18  1  0  0  0  0
 13 14  1  0  0  0  0
 14 15  1  0  0  0  0
 14 29  1  0  0  0  0
 14 30  1  0  0  0  0
 15 16  1  0  0  0  0
 15 31  1  0  0  0  0
 15 32  1  0  0  0  0
 16 17  1  0  0  0  0
 16 33  1  0  0  0  0
 16 34  1  0  0  0  0
 17 18  1  0  0  0  0
 17 35  1  0  0  0  0
 17 36  1  0  0  0  0
 18 19  1  0  0  0  0
 18 37  1  0  0  0  0
 19 20  1  0  0  0  0
 19 38  1  0  0  0  0
 19 39  1  0  0  0  0
M  END
> <s_m_source_file>
AV-unprocessed.smi

> <i_m_source_file_index>
3068

> <i_lp_mmshare_version>
43012

> <i_f3d_flags>
0

> <s_epik_input>
TiNDYzFuW2NIXVtjSF1uYzFbTkhdW0NIMl1bQ0BIXShbQ0gyXTIpT1tDSDJdW0NAQEhdKE4yMylbQ0gyXVtDSDJdW0NIMl1bQ0gyXTM=

> <s_epik_cmdline>
J2VwaWtfcHl0aG9uJywgJy1waCcsICc3LjAnLCAnLXRuJywgJzgnLCAnLW1hJywgJzIwMCcsICctbWV0YWxfYmluZGluZycsICctaW1hZScsICc8aW5maWxlLm1hZT4nLCAnLW9tYWUnLCAnPG91dGZpbGUubWFlPic=

> <r_epik_Ionization_Penalty>
1.22359

> <r_epik_Ionization_Penalty_Charging>
0

> <r_epik_Ionization_Penalty_Neutral>
1.22359

> <r_epik_State_Penalty>
1.29103

> <r_epik_Charging_Adjusted_Penalty>
1.29103

> <i_epik_Tot_Q>
0

> <i_epik_Tot_abs_Q>
0

> <r_epik_Metal_State_Penalty>
1.29103

> <b_epik_Metal_Only>
0

> <s_lp_Force_Field>
OPLS_2005

> <r_lp_Energy>
45.8422

> <b_lp_Chiralities_Consistent>
1

> <s_lp_Variant>
AV-unprocessed.smi:3068-9

> <Gold.Version>
5.8.1

> <Gold.Id.Protein>
6NUR|6NUR_protein|mol2

> <Gold.PLP.Fitness>
46.2626

> <Gold.PLP.PLP>
-34.4411

> <Gold.PLP.part.hbond>
-3.0000

> <Gold.PLP.part.metal>
0.0000

> <Gold.PLP.part.buried>
1.7603

> <Gold.PLP.part.nonpolar>
-32.3172

> <Gold.PLP.part.repulsive>
0.4880

> <Gold.PLP.ligand.clash>
0.0000

> <Gold.PLP.ligand.torsion>
0.7833

> <Gold.PLP.Chemscore.Hbond>
2.2732

> <Gold.PLP.Chemscore.CHOScore>
2.1873

> <Gold.PLP.Chemscore.Metal>
0.0000

> <Gold.Chemscore.Hbonds>
donor molecule, donor type, donor heavy atom, donor atom, acceptor molecule, acceptor atom, score
      P1  H  7989  7998       L1     7  1.00
      P1  H  7997  8010       L1     1  0.17
      P1  H 10752 10764       L1     4  1.00
      L1  C     5    21       P1  7948  0.22
      L1  C     5    21       P1  7949  0.48
      L1  C     6    22       P1  7948  0.42
      L1  C     6    22       P1  7957  1.00

> <Gold.PLP.Chemscore.Internal.Correction>
0.0067

> <Gold.Rescore>
     Score         DG    S(hbond)    S(metal)    S(lipo)     H(rot)  DE(clash)    DE(int)     intcor
     16.80     -18.61       0.88        0.00     115.62       1.30       1.23       0.58       ----

> <Gold.Chemscore.Fitness>
16.7952

> <Gold.Chemscore.DG>
-18.6057

> <Gold.Chemscore.ZeroCoef>
-5.4800

> <Gold.Chemscore.Hbond>
0.8775

> <Gold.Chemscore.Metal>
0.0000

> <Gold.Chemscore.Lipo>
115.6216

> <Gold.Chemscore.Internal_Hbond>
0.0000

> <Gold.Chemscore.DEClash>
1.2305

> <Gold.Chemscore.DEInternal>
0.5800

> <Gold.Chemscore.Rot>
1.3019

> <Gold.Chemscore.Internal.Correction>
   9.000000E+99

> <Gold.Chemscore.Hbonds>
donor molecule, donor type, donor heavy atom, donor atom, acceptor molecule, acceptor atom, score
      P1  H  7989  7998       L1     7  0.29
      P1  H  7997  8010       L1     1  0.01
      P1  H 10752 10764       L1     4  0.32

> <Gold.Chemscore.Hbond.Weighted>
-2.9307

> <Gold.Chemscore.Metal.Weighted>
-0.0000

> <Gold.Chemscore.Lipo.Weighted>
-13.5277

> <Gold.Chemscore.Internal_Hbond.Weighted>
0.0000

> <Gold.Chemscore.DEClash.Weighted>
1.2305

> <Gold.Chemscore.DEInternal.Weighted>
0.5800

> <Gold.Chemscore.Rot.Weighted>
3.3327

> <Gold.Chemscore.Internal.Correction.Weighted>
   9.000000E+99

> <Gold.Protein.RotatedTorsions>
[ 6907 6896 6895 6894 ] final  129.83 input  -60.11 | X-H torsion
[ 7974 7965 7964 7962 ] final  -32.11 input  175.53 | X-H torsion
[ 8008 7997 7996 7995 ] final    5.37 input   59.86 | X-H torsion
[ 10167 10162 10161 10158 ] final -169.67 input  -65.29 | X-H torsion
[ 10718 10713 10712 10709 ] final  -13.97 input   66.30 | X-H torsion
[ 10763 10752 10751 10750 ] final  -52.57 input  -60.55 | X-H torsion
[ 11005 11000 10999 10996 ] final   87.00 input  -57.11 | X-H torsion

> <Gold.Protein.ActiveResidues>
 VAL166  LYS551  ARG553  GLY616  TRP617  ASP618  TYR619  PRO620  LYS621  CYS622 
 ASP623  PHE694  ASN695  SER759  ASP760  ASP761  ALA762  ILE779  LEU786  VAL792 
 PHE793  MET794  SER795  GLU796  ALA797  LYS798  CYS799  TRP800  GLU811  SER814 

> <Gold.Protein.RotatedAtoms>
  152.3586  133.6268  159.5997 H   0  0  0  0  0  0  0  0  0  0  0  0  # atno 6907 bound_to 6896
  150.7585  133.9460  159.3480 H   0  0  0  0  0  0  0  0  0  0  0  0  # atno 6908 bound_to 6896
  151.7301  135.0877  160.0350 H   0  0  0  0  0  0  0  0  0  0  0  0  # atno 6909 bound_to 6896
  146.1016  140.5751  142.8818 H   0  0  0  0  0  0  0  0  0  0  0  0  # atno 7974 bound_to 7965
  154.7275  140.2724  155.6485 H   0  0  0  0  0  0  0  0  0  0  0  0  # atno 8008 bound_to 7997
  156.2841  140.2722  156.1891 H   0  0  0  0  0  0  0  0  0  0  0  0  # atno 8009 bound_to 7997
  155.0425  140.0371  157.2504 H   0  0  0  0  0  0  0  0  0  0  0  0  # atno 8010 bound_to 7997
  139.5908  144.1217  152.1632 H   0  0  0  0  0  0  0  0  0  0  0  0  # atno 10167 bound_to 10162
  156.6226  130.4879  149.6159 H   0  0  0  0  0  0  0  0  0  0  0  0  # atno 10718 bound_to 10713
  154.1448  135.6499  153.4950 H   0  0  0  0  0  0  0  0  0  0  0  0  # atno 10763 bound_to 10752
  153.0155  135.5324  154.6868 H   0  0  0  0  0  0  0  0  0  0  0  0  # atno 10764 bound_to 10752
  154.6139  135.2957  155.0372 H   0  0  0  0  0  0  0  0  0  0  0  0  # atno 10765 bound_to 10752
  139.8930  134.8393  156.2799 H   0  0  0  0  0  0  0  0  0  0  0  0  # atno 11005 bound_to 11000
  144.7437  140.5011  143.6851 LP  0  0  0  0  0  0  0  0  0  0  0  0  # atno 17320 bound_to 7965
  145.5844  139.1491  143.3217 LP  0  0  0  0  0  0  0  0  0  0  0  0  # atno 17321 bound_to 7965
  140.0791  144.5716  150.7135 LP  0  0  0  0  0  0  0  0  0  0  0  0  # atno 17342 bound_to 10162
  140.7171  143.2555  151.4398 LP  0  0  0  0  0  0  0  0  0  0  0  0  # atno 17343 bound_to 10162
  156.2299  130.6788  151.1453 LP  0  0  0  0  0  0  0  0  0  0  0  0  # atno 17370 bound_to 10713
  157.7223  131.0673  150.6083 LP  0  0  0  0  0  0  0  0  0  0  0  0  # atno 17371 bound_to 10713
  141.0045  133.7131  156.1013 LP  0  0  0  0  0  0  0  0  0  0  0  0  # atno 17394 bound_to 11000
  140.7452  134.4106  157.5549 LP  0  0  0  0  0  0  0  0  0  0  0  0  # atno 17395 bound_to 11000

$$$$
