AV-unprocessed.smi:2453|AV-procd|sdf|9694|dock2
  -GOLD-   2272013333D 1   1.00000     0.00000
 Structure written by MMmdl.
 41 42  0  0  0  0  0  0  0  0  2 V2000
  150.2362  138.9720  154.3491 C   0  0  0  0  0  0  0  0  0  0  0  0
  149.1160  139.9965  154.3033 C   0  0  0  0  0  0  0  0  0  0  0  0
  149.3526  141.3065  154.7743 C   0  0  0  0  0  0  0  0  0  0  0  0
  148.3676  142.2286  154.7382 N   0  3  0  0  0  0  0  0  0  0  0  0
  147.1351  141.9606  154.2595 C   0  0  0  0  0  0  0  0  0  0  0  0
  146.8346  140.6730  153.7731 C   0  0  0  0  0  0  0  0  0  0  0  0
  147.8311  139.6636  153.8020 C   0  0  0  0  0  0  0  0  0  0  0  0
  147.6144  138.3460  153.3072 N   0  0  0  0  0  0  0  0  0  0  0  0
  146.5036  137.5926  153.3791 C   0  0  0  0  0  0  0  0  0  0  0  0
  145.4585  137.9190  153.9413 O   0  0  0  0  0  0  0  0  0  0  0  0
  146.6787  136.4131  152.7663 N   0  0  0  0  0  0  0  0  0  0  0  0
  145.6732  135.3570  152.6615 C   0  0  1  0  0  0  0  0  0  0  0  0
  144.8231  135.5731  151.3911 C   0  0  0  0  0  0  0  0  0  0  0  0
  143.7927  134.4513  151.1991 C   0  0  0  0  0  0  0  0  0  0  0  0
  144.4762  133.0781  151.1609 C   0  0  0  0  0  0  0  0  0  0  0  0
  145.3077  132.8422  152.4306 C   0  0  0  0  0  0  0  0  0  0  0  0
  146.3495  133.9605  152.6518 C   0  0  2  0  0  0  0  0  0  0  0  0
  147.2243  133.6837  153.8955 C   0  0  0  0  0  0  0  0  0  0  0  0
  148.3115  134.5824  153.9816 O   0  0  0  0  0  0  0  0  0  0  0  0
  151.1439  139.3956  154.7801 H   0  0  0  0  0  0  0  0  0  0  0  0
  150.4729  138.6199  153.3447 H   0  0  0  0  0  0  0  0  0  0  0  0
  149.9440  138.1147  154.9565 H   0  0  0  0  0  0  0  0  0  0  0  0
  150.2968  141.6455  155.1755 H   0  0  0  0  0  0  0  0  0  0  0  0
  146.4322  142.7808  154.2723 H   0  0  0  0  0  0  0  0  0  0  0  0
  145.8485  140.4903  153.3747 H   0  0  0  0  0  0  0  0  0  0  0  0
  148.4212  137.9030  152.8930 H   0  0  0  0  0  0  0  0  0  0  0  0
  147.5724  136.2289  152.3344 H   0  0  0  0  0  0  0  0  0  0  0  0
  145.0117  135.4091  153.5287 H   0  0  0  0  0  0  0  0  0  0  0  0
  144.3067  136.5324  151.4417 H   0  0  0  0  0  0  0  0  0  0  0  0
  145.4725  135.6194  150.5157 H   0  0  0  0  0  0  0  0  0  0  0  0
  143.0669  134.4775  152.0128 H   0  0  0  0  0  0  0  0  0  0  0  0
  143.2321  134.6145  150.2784 H   0  0  0  0  0  0  0  0  0  0  0  0
  143.7270  132.2927  151.0559 H   0  0  0  0  0  0  0  0  0  0  0  0
  145.1194  133.0118  150.2824 H   0  0  0  0  0  0  0  0  0  0  0  0
  144.6386  132.7821  153.2899 H   0  0  0  0  0  0  0  0  0  0  0  0
  145.8073  131.8754  152.3621 H   0  0  0  0  0  0  0  0  0  0  0  0
  147.0221  133.9346  151.7925 H   0  0  0  0  0  0  0  0  0  0  0  0
  146.6271  133.7730  154.8034 H   0  0  0  0  0  0  0  0  0  0  0  0
  147.6131  132.6654  153.8804 H   0  0  0  0  0  0  0  0  0  0  0  0
  148.2553  135.1933  153.2628 H   0  0  0  0  0  0  0  0  0  0  0  0
  148.5646  143.1686  155.0829 H   0  0  0  0  0  0  0  0  0  0  0  0
  1  2  1  0  0  0  0
  1 20  1  0  0  0  0
  1 21  1  0  0  0  0
  1 22  1  0  0  0  0
  2  7  1  0  0  0  0
  2  3  2  0  0  0  0
  3  4  1  0  0  0  0
  3 23  1  0  0  0  0
  4  5  2  0  0  0  0
  4 41  1  0  0  0  0
  5  6  1  0  0  0  0
  5 24  1  0  0  0  0
  6  7  2  0  0  0  0
  6 25  1  0  0  0  0
  7  8  1  0  0  0  0
  8  9  1  0  0  0  0
  8 26  1  0  0  0  0
  9 10  2  0  0  0  0
  9 11  1  0  0  0  0
 11 12  1  0  0  0  0
 11 27  1  0  0  0  0
 12 17  1  0  0  0  0
 12 13  1  0  0  0  0
 12 28  1  0  0  0  0
 13 14  1  0  0  0  0
 13 29  1  0  0  0  0
 13 30  1  0  0  0  0
 14 15  1  0  0  0  0
 14 31  1  0  0  0  0
 14 32  1  0  0  0  0
 15 16  1  0  0  0  0
 15 33  1  0  0  0  0
 15 34  1  0  0  0  0
 16 17  1  0  0  0  0
 16 35  1  0  0  0  0
 16 36  1  0  0  0  0
 17 18  1  0  0  0  0
 17 37  1  0  0  0  0
 18 19  1  0  0  0  0
 18 38  1  0  0  0  0
 18 39  1  0  0  0  0
 19 40  1  0  0  0  0
M  CHG  1   4   1
M  END
> <s_m_source_file>
AV-unprocessed.smi

> <i_m_source_file_index>
2453

> <i_lp_mmshare_version>
43012

> <i_f3d_flags>
0

> <s_epik_input>
W0NIM11jMVtjSF1uW2NIXVtjSF1jMVtOSF1DKD1PKVtOSF1bQ0BASF0yW0NIMl1bQ0gyXVtDSDJdW0NIMl1bQ0BIXTJbQ0gyXVtPSF0=

> <s_epik_cmdline>
J2VwaWtfcHl0aG9uJywgJy1waCcsICc3LjAnLCAnLXRuJywgJzgnLCAnLW1hJywgJzIwMCcsICctbWV0YWxfYmluZGluZycsICctaW1hZScsICc8aW5maWxlLm1hZT4nLCAnLW9tYWUnLCAnPG91dGZpbGUubWFlPic=

> <r_epik_Ionization_Penalty>
0.71493

> <r_epik_Ionization_Penalty_Charging>
0.714909

> <r_epik_Ionization_Penalty_Neutral>
2.10174e-05

> <r_epik_State_Penalty>
0.738815

> <r_epik_Charging_Adjusted_Penalty>
1.45372

> <i_epik_Tot_Q>
1

> <i_epik_Tot_abs_Q>
1

> <r_epik_Metal_State_Penalty>
0.896004

> <b_epik_Metal_Only>
0

> <s_lp_Force_Field>
OPLS_2005

> <r_lp_Energy>
25.5942

> <b_lp_Chiralities_Consistent>
1

> <s_lp_Variant>
AV-unprocessed.smi:2453-8

> <Gold.Version>
5.8.1

> <Gold.Id.Protein>
6NUR|6NUR_protein|mol2

> <Gold.PLP.Fitness>
44.4672

> <Gold.PLP.PLP>
-31.6833

> <Gold.PLP.part.hbond>
-3.7752

> <Gold.PLP.part.metal>
0.0000

> <Gold.PLP.part.buried>
-4.0653

> <Gold.PLP.part.nonpolar>
-25.7752

> <Gold.PLP.part.repulsive>
0.4067

> <Gold.PLP.ligand.clash>
0.0000

> <Gold.PLP.ligand.torsion>
0.6563

> <Gold.PLP.Chemscore.Hbond>
4.6930

> <Gold.PLP.Chemscore.CHOScore>
0.0000

> <Gold.PLP.Chemscore.Metal>
0.0000

> <Gold.Chemscore.Hbonds>
donor molecule, donor type, donor heavy atom, donor atom, acceptor molecule, acceptor atom, score
      L1  H     4    41       P1  8028  2.00
      L1  H     8    26       P1  7948  0.85
      L1  H    11    27       P1  7948  0.80
      L1  H    19    40       P1  7948  1.00

> <Gold.PLP.Chemscore.Internal.Correction>
0.0175

> <Gold.Rescore>
     Score         DG    S(hbond)    S(metal)    S(lipo)     H(rot)  DE(clash)    DE(int)     intcor
     19.24     -21.98       3.73        0.00      73.24       1.77       0.06       2.68       ----

> <Gold.Chemscore.Fitness>
19.2391

> <Gold.Chemscore.DG>
-21.9783

> <Gold.Chemscore.ZeroCoef>
-5.4800

> <Gold.Chemscore.Hbond>
3.7338

> <Gold.Chemscore.Metal>
0.0000

> <Gold.Chemscore.Lipo>
73.2412

> <Gold.Chemscore.Internal_Hbond>
0.0000

> <Gold.Chemscore.DEClash>
0.0584

> <Gold.Chemscore.DEInternal>
2.6808

> <Gold.Chemscore.Rot>
1.7742

> <Gold.Chemscore.Internal.Correction>
   9.000000E+99

> <Gold.Chemscore.Hbonds>
donor molecule, donor type, donor heavy atom, donor atom, acceptor molecule, acceptor atom, score
      L1  H     4    41       P1  8028  1.00
      L1  H     8    26       P1  7948  0.79
      L1  H    11    27       P1  7948  0.79
      L1  H    19    40       P1  7948  0.95

> <Gold.Chemscore.Hbond.Weighted>
-12.4710

> <Gold.Chemscore.Metal.Weighted>
-0.0000

> <Gold.Chemscore.Lipo.Weighted>
-8.5692

> <Gold.Chemscore.Internal_Hbond.Weighted>
0.0000

> <Gold.Chemscore.DEClash.Weighted>
0.0584

> <Gold.Chemscore.DEInternal.Weighted>
2.6808

> <Gold.Chemscore.Rot.Weighted>
4.5419

> <Gold.Chemscore.Internal.Correction.Weighted>
   9.000000E+99

> <Gold.Protein.RotatedTorsions>
[ 6907 6896 6895 6894 ] final -132.07 input  -60.11 | X-H torsion
[ 7974 7965 7964 7962 ] final  156.01 input  175.53 | X-H torsion
[ 8008 7997 7996 7995 ] final   72.98 input   59.86 | X-H torsion
[ 10167 10162 10161 10158 ] final   52.59 input  -65.29 | X-H torsion
[ 10718 10713 10712 10709 ] final  171.83 input   66.30 | X-H torsion
[ 10763 10752 10751 10750 ] final   98.57 input  -60.55 | X-H torsion
[ 11005 11000 10999 10996 ] final -164.95 input  -57.11 | X-H torsion

> <Gold.Protein.ActiveResidues>
 VAL166  LYS551  ARG553  GLY616  TRP617  ASP618  TYR619  PRO620  LYS621  CYS622 
 ASP623  PHE694  ASN695  SER759  ASP760  ASP761  ALA762  ILE779  LEU786  VAL792 
 PHE793  MET794  SER795  GLU796  ALA797  LYS798  CYS799  TRP800  GLU811  SER814 

> <Gold.Protein.RotatedAtoms>
  150.9581  133.6475  159.2759 H   0  0  0  0  0  0  0  0  0  0  0  0  # atno 6907 bound_to 6896
  151.3807  135.0938  159.9505 H   0  0  0  0  0  0  0  0  0  0  0  0  # atno 6908 bound_to 6896
  152.5137  133.9116  159.7545 H   0  0  0  0  0  0  0  0  0  0  0  0  # atno 6909 bound_to 6896
  144.7989  139.7146  143.6190 H   0  0  0  0  0  0  0  0  0  0  0  0  # atno 7974 bound_to 7965
  155.7769  140.3483  155.5276 H   0  0  0  0  0  0  0  0  0  0  0  0  # atno 8008 bound_to 7997
  155.8767  140.0995  157.1534 H   0  0  0  0  0  0  0  0  0  0  0  0  # atno 8009 bound_to 7997
  154.4021  140.1330  156.4133 H   0  0  0  0  0  0  0  0  0  0  0  0  # atno 8010 bound_to 7997
  140.2498  144.3492  150.6352 H   0  0  0  0  0  0  0  0  0  0  0  0  # atno 10167 bound_to 10162
  156.9878  131.0138  151.2864 H   0  0  0  0  0  0  0  0  0  0  0  0  # atno 10718 bound_to 10713
  153.2907  135.4143  155.1164 H   0  0  0  0  0  0  0  0  0  0  0  0  # atno 10763 bound_to 10752
  154.8519  135.3517  154.5985 H   0  0  0  0  0  0  0  0  0  0  0  0  # atno 10764 bound_to 10752
  153.6407  135.7057  153.5300 H   0  0  0  0  0  0  0  0  0  0  0  0  # atno 10765 bound_to 10752
  140.5812  134.5140  157.5178 H   0  0  0  0  0  0  0  0  0  0  0  0  # atno 11005 bound_to 11000
  146.2265  139.5733  142.9583 LP  0  0  0  0  0  0  0  0  0  0  0  0  # atno 17320 bound_to 7965
  145.5603  141.0405  143.2230 LP  0  0  0  0  0  0  0  0  0  0  0  0  # atno 17321 bound_to 7965
  140.6049  143.2167  151.6999 LP  0  0  0  0  0  0  0  0  0  0  0  0  # atno 17342 bound_to 10162
  139.5050  144.3734  152.0448 LP  0  0  0  0  0  0  0  0  0  0  0  0  # atno 17343 bound_to 10162
  157.5480  130.8163  149.8110 LP  0  0  0  0  0  0  0  0  0  0  0  0  # atno 17370 bound_to 10713
  156.0219  130.3792  150.1937 LP  0  0  0  0  0  0  0  0  0  0  0  0  # atno 17371 bound_to 10713
  139.9316  134.7952  156.0914 LP  0  0  0  0  0  0  0  0  0  0  0  0  # atno 17394 bound_to 11000
  141.0995  133.6682  156.2722 LP  0  0  0  0  0  0  0  0  0  0  0  0  # atno 17395 bound_to 11000

$$$$
