AV-unprocessed.smi:1316|AV-procd|sdf|5455|dock4
  -GOLD-   22720 5 23D 1   1.00000     0.00000
 Structure written by MMmdl.
 21 21  0  0  0  0  0  0  0  0  1 V2000
  147.7529  127.5243  151.0655 C   0  0  0  0  0  0  0  0  0  0  0  0
  147.5845  128.9289  151.4055 N   0  0  0  0  0  0  0  0  0  0  0  0
  146.4965  129.4347  152.0032 C   0  0  0  0  0  0  0  0  0  0  0  0
  145.5259  128.7457  152.3218 O   0  0  0  0  0  0  0  0  0  0  0  0
  146.5232  130.9459  152.2681 C   0  0  0  0  0  0  0  0  0  0  0  0
  145.6029  131.6872  151.4205 N   0  0  0  0  0  0  0  0  0  0  0  0
  144.3215  131.3435  151.0410 C   0  0  0  0  0  0  0  0  0  0  0  0
  143.8485  132.3510  150.2501 C   0  0  0  0  0  0  0  0  0  0  0  0
  142.5793  132.4206  149.6455 N   0  0  0  0  0  0  0  0  0  0  0  0
  144.9278  133.2775  150.1993 C   0  0  0  0  0  0  0  0  0  0  0  0
  145.9769  132.8767  150.8995 N   0  0  0  0  0  0  0  0  0  0  0  0
  148.7064  127.3754  150.5593 H   0  0  0  0  0  0  0  0  0  0  0  0
  146.9575  127.1868  150.3997 H   0  0  0  0  0  0  0  0  0  0  0  0
  147.7426  126.9044  151.9631 H   0  0  0  0  0  0  0  0  0  0  0  0
  148.3416  129.5553  151.1729 H   0  0  0  0  0  0  0  0  0  0  0  0
  146.2821  131.1384  153.3149 H   0  0  0  0  0  0  0  0  0  0  0  0
  147.5314  131.3240  152.0955 H   0  0  0  0  0  0  0  0  0  0  0  0
  143.8590  130.4236  151.3672 H   0  0  0  0  0  0  0  0  0  0  0  0
  141.8931  131.6885  149.7621 H   0  0  0  0  0  0  0  0  0  0  0  0
  142.3287  133.1691  149.0154 H   0  0  0  0  0  0  0  0  0  0  0  0
  144.9801  134.2228  149.6792 H   0  0  0  0  0  0  0  0  0  0  0  0
  1  2  1  0  0  0  0
  1 12  1  0  0  0  0
  1 13  1  0  0  0  0
  1 14  1  0  0  0  0
  2  3  1  0  0  0  0
  2 15  1  0  0  0  0
  3  4  2  0  0  0  0
  3  5  1  0  0  0  0
  5  6  1  0  0  0  0
  5 16  1  0  0  0  0
  5 17  1  0  0  0  0
  6 11  1  0  0  0  0
  6  7  1  0  0  0  0
  7  8  2  0  0  0  0
  7 18  1  0  0  0  0
  8  9  1  0  0  0  0
  8 10  1  0  0  0  0
  9 19  1  0  0  0  0
  9 20  1  0  0  0  0
 10 11  2  0  0  0  0
 10 21  1  0  0  0  0
M  END
> <s_m_source_file>
AV-unprocessed.smi

> <i_m_source_file_index>
1316

> <i_lp_mmshare_version>
43012

> <i_f3d_flags>
0

> <s_epik_input>
W0NIM11bTkhdQyg9TylbQ0gyXW4xW2NIXWMoW05IMl0pW2NIXW4x

> <s_epik_cmdline>
J2VwaWtfcHl0aG9uJywgJy1waCcsICc3LjAnLCAnLXRuJywgJzgnLCAnLW1hJywgJzIwMCcsICctbWV0YWxfYmluZGluZycsICctaW1hZScsICc8aW5maWxlLm1hZT4nLCAnLW9tYWUnLCAnPG91dGZpbGUubWFlPic=

> <r_epik_Ionization_Penalty>
0.000718132

> <r_epik_Ionization_Penalty_Charging>
0

> <r_epik_Ionization_Penalty_Neutral>
0.000718132

> <r_epik_State_Penalty>
0.00299677

> <r_epik_Charging_Adjusted_Penalty>
0.00299677

> <i_epik_Tot_Q>
0

> <i_epik_Tot_abs_Q>
0

> <r_epik_Metal_State_Penalty>
-0

> <b_epik_Metal_Only>
0

> <s_lp_Force_Field>
OPLS_2005

> <r_lp_Energy>
5.45355

> <b_lp_Chiralities_Consistent>
1

> <s_lp_Variant>
AV-unprocessed.smi:1316-1

> <Gold.Version>
5.8.1

> <Gold.Id.Protein>
6NUR|6NUR_protein|mol2

> <Gold.PLP.Fitness>
34.9743

> <Gold.PLP.PLP>
-25.5790

> <Gold.PLP.part.hbond>
-3.0000

> <Gold.PLP.part.metal>
0.0000

> <Gold.PLP.part.buried>
-4.4918

> <Gold.PLP.part.nonpolar>
-18.0827

> <Gold.PLP.part.repulsive>
0.4999

> <Gold.PLP.ligand.clash>
0.0000

> <Gold.PLP.ligand.torsion>
0.3785

> <Gold.PLP.Chemscore.Hbond>
2.3840

> <Gold.PLP.Chemscore.CHOScore>
1.0000

> <Gold.PLP.Chemscore.Metal>
0.0000

> <Gold.Chemscore.Hbonds>
donor molecule, donor type, donor heavy atom, donor atom, acceptor molecule, acceptor atom, score
      L1  H     2    15       P1 10747  1.00
      L1  H     9    19       P1 10952  1.00
      L1  H     9    20       P1 10186  0.40
      L1  C    10    21       P1  7921  1.00

> <Gold.PLP.Chemscore.Internal.Correction>
0.0003

> <Gold.Rescore>
     Score         DG    S(hbond)    S(metal)    S(lipo)     H(rot)  DE(clash)    DE(int)     intcor
     14.41     -15.05       2.39        0.00      45.02       1.44       0.13       0.50       ----

> <Gold.Chemscore.Fitness>
14.4132

> <Gold.Chemscore.DG>
-15.0454

> <Gold.Chemscore.ZeroCoef>
-5.4800

> <Gold.Chemscore.Hbond>
2.3882

> <Gold.Chemscore.Metal>
0.0000

> <Gold.Chemscore.Lipo>
45.0230

> <Gold.Chemscore.Internal_Hbond>
0.0000

> <Gold.Chemscore.DEClash>
0.1341

> <Gold.Chemscore.DEInternal>
0.4982

> <Gold.Chemscore.Rot>
1.4371

> <Gold.Chemscore.Internal.Correction>
   9.000000E+99

> <Gold.Chemscore.Hbonds>
donor molecule, donor type, donor heavy atom, donor atom, acceptor molecule, acceptor atom, score
      L1  H     2    15       P1 10747  0.33
      L1  H     9    19       P1 10952  0.98
      L1  H     9    20       P1 10186  0.40

> <Gold.Chemscore.Hbond.Weighted>
-7.9766

> <Gold.Chemscore.Metal.Weighted>
-0.0000

> <Gold.Chemscore.Lipo.Weighted>
-5.2677

> <Gold.Chemscore.Internal_Hbond.Weighted>
0.0000

> <Gold.Chemscore.DEClash.Weighted>
0.1341

> <Gold.Chemscore.DEInternal.Weighted>
0.4982

> <Gold.Chemscore.Rot.Weighted>
3.6789

> <Gold.Chemscore.Internal.Correction.Weighted>
   9.000000E+99

> <Gold.Protein.RotatedTorsions>
[ 6907 6896 6895 6894 ] final  110.67 input  -60.11 | X-H torsion
[ 7974 7965 7964 7962 ] final  -41.66 input  175.53 | X-H torsion
[ 8008 7997 7996 7995 ] final   45.84 input   59.86 | X-H torsion
[ 10167 10162 10161 10158 ] final  173.91 input  -65.29 | X-H torsion
[ 10718 10713 10712 10709 ] final  -54.94 input   66.30 | X-H torsion
[ 10763 10752 10751 10750 ] final -139.54 input  -60.55 | X-H torsion
[ 11005 11000 10999 10996 ] final  -50.93 input  -57.11 | X-H torsion

> <Gold.Protein.ActiveResidues>
 VAL166  LYS551  ARG553  GLY616  TRP617  ASP618  TYR619  PRO620  LYS621  CYS622 
 ASP623  PHE694  ASN695  SER759  ASP760  ASP761  ALA762  ILE779  LEU786  VAL792 
 PHE793  MET794  SER795  GLU796  ALA797  LYS798  CYS799  TRP800  GLU811  SER814 

> <Gold.Protein.RotatedAtoms>
  152.5008  133.8767  159.7325 H   0  0  0  0  0  0  0  0  0  0  0  0  # atno 6907 bound_to 6896
  150.9240  133.6837  159.2832 H   0  0  0  0  0  0  0  0  0  0  0  0  # atno 6908 bound_to 6896
  151.4205  135.1001  159.9665 H   0  0  0  0  0  0  0  0  0  0  0  0  # atno 6909 bound_to 6896
  146.0190  140.6873  142.9188 H   0  0  0  0  0  0  0  0  0  0  0  0  # atno 7974 bound_to 7965
  155.3426  140.3409  155.4239 H   0  0  0  0  0  0  0  0  0  0  0  0  # atno 8008 bound_to 7997
  156.1805  140.1662  156.8318 H   0  0  0  0  0  0  0  0  0  0  0  0  # atno 8009 bound_to 7997
  154.5329  140.0741  156.8359 H   0  0  0  0  0  0  0  0  0  0  0  0  # atno 8010 bound_to 7997
  139.5124  144.3207  152.0205 H   0  0  0  0  0  0  0  0  0  0  0  0  # atno 10167 bound_to 10162
  156.1409  130.4154  150.0105 H   0  0  0  0  0  0  0  0  0  0  0  0  # atno 10718 bound_to 10713
  154.8606  135.3579  154.5562 H   0  0  0  0  0  0  0  0  0  0  0  0  # atno 10763 bound_to 10752
  153.6179  135.7007  153.5326 H   0  0  0  0  0  0  0  0  0  0  0  0  # atno 10764 bound_to 10752
  153.3154  135.4166  155.1332 H   0  0  0  0  0  0  0  0  0  0  0  0  # atno 10765 bound_to 10752
  141.0843  133.6646  156.3804 H   0  0  0  0  0  0  0  0  0  0  0  0  # atno 11005 bound_to 11000
  144.6982  140.3531  143.7178 LP  0  0  0  0  0  0  0  0  0  0  0  0  # atno 17320 bound_to 7965
  145.7224  139.1713  143.2477 LP  0  0  0  0  0  0  0  0  0  0  0  0  # atno 17321 bound_to 7965
  140.2649  144.4027  150.6172 LP  0  0  0  0  0  0  0  0  0  0  0  0  # atno 17342 bound_to 10162
  140.6130  143.2170  151.6847 LP  0  0  0  0  0  0  0  0  0  0  0  0  # atno 17343 bound_to 10162
  156.7990  130.9284  151.3646 LP  0  0  0  0  0  0  0  0  0  0  0  0  # atno 17370 bound_to 10713
  157.6575  130.8937  149.9759 LP  0  0  0  0  0  0  0  0  0  0  0  0  # atno 17371 bound_to 10713
  140.5397  134.6132  157.5376 LP  0  0  0  0  0  0  0  0  0  0  0  0  # atno 17394 bound_to 11000
  139.9660  134.7372  156.0138 LP  0  0  0  0  0  0  0  0  0  0  0  0  # atno 17395 bound_to 11000

$$$$
