AV-unprocessed.smi:1929|AV-procd|sdf|7804|dock1
  -GOLD-   22720 9543D 1   1.00000     0.00000
 Structure written by MMmdl.
 44 45  0  0  0  0  0  0  0  0  3 V2000
  148.2761  132.8945  152.6254 C   0  0  0  0  0  0  0  0  0  0  0  0
  148.9929  133.8686  153.4346 N   0  0  0  0  0  0  0  0  0  0  0  0
  149.7977  133.5510  154.4581 C   0  0  0  0  0  0  0  0  0  0  0  0
  150.0169  132.3912  154.8096 O   0  0  0  0  0  0  0  0  0  0  0  0
  150.4689  134.7219  155.1831 C   0  0  0  0  0  0  0  0  0  0  0  0
  150.0091  136.0470  154.6933 N   0  3  2  0  0  0  0  0  0  0  0  0
  151.0975  137.0598  154.6467 C   0  0  0  0  0  0  0  0  0  0  0  0
  150.6095  138.3679  154.0008 C   0  0  0  0  0  0  0  0  0  0  0  0
  149.3689  138.9386  154.7171 C   0  0  2  0  0  0  0  0  0  0  0  0
  149.6936  139.4660  156.0427 N   0  0  0  0  0  0  0  0  0  0  0  0
  150.4070  140.5766  156.2812 C   0  0  0  0  0  0  0  0  0  0  0  0
  150.9002  141.2674  155.3906 O   0  0  0  0  0  0  0  0  0  0  0  0
  150.5187  140.8105  157.6006 N   0  0  0  0  0  0  0  0  0  0  0  0
  151.1748  141.8846  158.2633 C   0  0  0  0  0  0  0  0  0  0  0  0
  151.8655  141.5858  159.4591 C   0  0  0  0  0  0  0  0  0  0  0  0
  152.5195  142.6179  160.1624 C   0  0  0  0  0  0  0  0  0  0  0  0
  152.4748  143.8836  159.6945 N   0  3  0  0  0  0  0  0  0  0  0  0
  151.8175  144.2206  158.5645 C   0  0  0  0  0  0  0  0  0  0  0  0
  151.1444  143.2315  157.8187 C   0  0  0  0  0  0  0  0  0  0  0  0
  148.2857  137.8507  154.8206 C   0  0  0  0  0  0  0  0  0  0  0  0
  148.8274  136.5488  155.4400 C   0  0  0  0  0  0  0  0  0  0  0  0
  147.6709  133.4058  151.8769 H   0  0  0  0  0  0  0  0  0  0  0  0
  147.6127  132.2876  153.2431 H   0  0  0  0  0  0  0  0  0  0  0  0
  148.9720  132.2328  152.1078 H   0  0  0  0  0  0  0  0  0  0  0  0
  148.8678  134.8431  153.2002 H   0  0  0  0  0  0  0  0  0  0  0  0
  150.2215  134.6149  156.2400 H   0  0  0  0  0  0  0  0  0  0  0  0
  151.5554  134.6507  155.1067 H   0  0  0  0  0  0  0  0  0  0  0  0
  151.4634  137.2504  155.6568 H   0  0  0  0  0  0  0  0  0  0  0  0
  151.9437  136.6768  154.0755 H   0  0  0  0  0  0  0  0  0  0  0  0
  151.4174  139.1002  153.9823 H   0  0  0  0  0  0  0  0  0  0  0  0
  150.3591  138.1741  152.9568 H   0  0  0  0  0  0  0  0  0  0  0  0
  148.9659  139.7597  154.1213 H   0  0  0  0  0  0  0  0  0  0  0  0
  149.3257  138.9606  156.8356 H   0  0  0  0  0  0  0  0  0  0  0  0
  150.1204  140.1097  158.2081 H   0  0  0  0  0  0  0  0  0  0  0  0
  151.9006  140.5739  159.8364 H   0  0  0  0  0  0  0  0  0  0  0  0
  153.0714  142.4700  161.0792 H   0  0  0  0  0  0  0  0  0  0  0  0
  151.8439  145.2664  158.2948 H   0  0  0  0  0  0  0  0  0  0  0  0
  150.6106  143.5312  156.9304 H   0  0  0  0  0  0  0  0  0  0  0  0
  147.4354  138.2163  155.3978 H   0  0  0  0  0  0  0  0  0  0  0  0
  147.9019  137.6348  153.8224 H   0  0  0  0  0  0  0  0  0  0  0  0
  148.0387  135.7955  155.4282 H   0  0  0  0  0  0  0  0  0  0  0  0
  149.0965  136.7068  156.4856 H   0  0  0  0  0  0  0  0  0  0  0  0
  149.7025  135.9008  153.7416 H   0  0  0  0  0  0  0  0  0  0  0  0
  152.9535  144.6164  160.2189 H   0  0  0  0  0  0  0  0  0  0  0  0
  1  2  1  0  0  0  0
  1 22  1  0  0  0  0
  1 23  1  0  0  0  0
  1 24  1  0  0  0  0
  2  3  1  0  0  0  0
  2 25  1  0  0  0  0
  3  4  2  0  0  0  0
  3  5  1  0  0  0  0
  5  6  1  0  0  0  0
  5 26  1  0  0  0  0
  5 27  1  0  0  0  0
  6 21  1  0  0  0  0
  6  7  1  0  0  0  0
  6 43  1  0  0  0  0
  7  8  1  0  0  0  0
  7 28  1  0  0  0  0
  7 29  1  0  0  0  0
  8  9  1  0  0  0  0
  8 30  1  0  0  0  0
  8 31  1  0  0  0  0
  9 10  1  0  0  0  0
  9 20  1  0  0  0  0
  9 32  1  0  0  0  0
 10 11  1  0  0  0  0
 10 33  1  0  0  0  0
 11 12  2  0  0  0  0
 11 13  1  0  0  0  0
 13 14  1  0  0  0  0
 13 34  1  0  0  0  0
 14 19  1  0  0  0  0
 14 15  2  0  0  0  0
 15 16  1  0  0  0  0
 15 35  1  0  0  0  0
 16 17  2  0  0  0  0
 16 36  1  0  0  0  0
 17 18  1  0  0  0  0
 17 44  1  0  0  0  0
 18 19  2  0  0  0  0
 18 37  1  0  0  0  0
 19 38  1  0  0  0  0
 20 21  1  0  0  0  0
 20 39  1  0  0  0  0
 20 40  1  0  0  0  0
 21 41  1  0  0  0  0
 21 42  1  0  0  0  0
M  CHG  1   6   1
M  CHG  1  17   1
M  END
> <s_m_source_file>
AV-unprocessed.smi

> <i_m_source_file_index>
1929

> <i_lp_mmshare_version>
43012

> <i_f3d_flags>
0

> <s_epik_input>
W0NIM11bTkhdQyg9TylbQ0gyXU4xW0NIMl1bQ0gyXVtDSF0oW0NIMl1bQ0gyXTEpW05IXUMoPU8pW05IXWMyW2NIXVtjSF1uW2NIXVtjSF0y

> <s_epik_cmdline>
J2VwaWtfcHl0aG9uJywgJy1waCcsICc3LjAnLCAnLXRuJywgJzgnLCAnLW1hJywgJzIwMCcsICctbWV0YWxfYmluZGluZycsICctaW1hZScsICc8aW5maWxlLm1hZT4nLCAnLW9tYWUnLCAnPG91dGZpbGUubWFlPic=

> <r_epik_Ionization_Penalty>
1.97435

> <r_epik_Ionization_Penalty_Charging>
1.97431

> <r_epik_Ionization_Penalty_Neutral>
3.89585e-05

> <r_epik_State_Penalty>
2.00691

> <r_epik_Charging_Adjusted_Penalty>
3.98122

> <i_epik_Tot_Q>
2

> <i_epik_Tot_abs_Q>
2

> <r_epik_Metal_State_Penalty>
2.11022

> <b_epik_Metal_Only>
0

> <s_lp_Force_Field>
OPLS_2005

> <r_lp_Energy>
26.8992

> <b_lp_Chiralities_Consistent>
1

> <s_lp_Variant>
AV-unprocessed.smi:1929-6

> <Gold.Version>
5.8.1

> <Gold.Id.Protein>
6NUR|6NUR_protein|mol2

> <Gold.PLP.Fitness>
45.3074

> <Gold.PLP.PLP>
-36.3337

> <Gold.PLP.part.hbond>
-3.0000

> <Gold.PLP.part.metal>
0.0000

> <Gold.PLP.part.buried>
-3.5185

> <Gold.PLP.part.nonpolar>
-29.9241

> <Gold.PLP.part.repulsive>
0.1979

> <Gold.PLP.ligand.clash>
0.0000

> <Gold.PLP.ligand.torsion>
0.8822

> <Gold.PLP.Chemscore.Hbond>
3.5680

> <Gold.PLP.Chemscore.CHOScore>
0.0000

> <Gold.PLP.Chemscore.Metal>
0.0000

> <Gold.Chemscore.Hbonds>
donor molecule, donor type, donor heavy atom, donor atom, acceptor molecule, acceptor atom, score
      L1  H     2    25       P1  7948  0.88
      L1  H     6    43       P1  7948  1.90
      P1  H  7989  7998       L1    12  0.54

> <Gold.PLP.Chemscore.Internal.Correction>
0.0340

> <Gold.Rescore>
     Score         DG    S(hbond)    S(metal)    S(lipo)     H(rot)  DE(clash)    DE(int)     intcor
     16.81     -17.90       2.05        0.00      85.22       1.71       0.12       0.97       ----

> <Gold.Chemscore.Fitness>
16.8108

> <Gold.Chemscore.DG>
-17.9028

> <Gold.Chemscore.ZeroCoef>
-5.4800

> <Gold.Chemscore.Hbond>
2.0465

> <Gold.Chemscore.Metal>
0.0000

> <Gold.Chemscore.Lipo>
85.2243

> <Gold.Chemscore.Internal_Hbond>
0.0000

> <Gold.Chemscore.DEClash>
0.1229

> <Gold.Chemscore.DEInternal>
0.9691

> <Gold.Chemscore.Rot>
1.7124

> <Gold.Chemscore.Internal.Correction>
   9.000000E+99

> <Gold.Chemscore.Hbonds>
donor molecule, donor type, donor heavy atom, donor atom, acceptor molecule, acceptor atom, score
      L1  H     2    25       P1  7948  0.19
      L1  H     6    43       P1  7948  0.21
      P1  H  7989  7998       L1    12  0.50

> <Gold.Chemscore.Hbond.Weighted>
-6.8354

> <Gold.Chemscore.Metal.Weighted>
-0.0000

> <Gold.Chemscore.Lipo.Weighted>
-9.9712

> <Gold.Chemscore.Internal_Hbond.Weighted>
0.0000

> <Gold.Chemscore.DEClash.Weighted>
0.1229

> <Gold.Chemscore.DEInternal.Weighted>
0.9691

> <Gold.Chemscore.Rot.Weighted>
4.3838

> <Gold.Chemscore.Internal.Correction.Weighted>
   9.000000E+99

> <Gold.Protein.RotatedTorsions>
[ 6907 6896 6895 6894 ] final   57.29 input  -60.11 | X-H torsion
[ 7974 7965 7964 7962 ] final  116.44 input  175.53 | X-H torsion
[ 8008 7997 7996 7995 ] final  120.87 input   59.86 | X-H torsion
[ 10167 10162 10161 10158 ] final  -45.64 input  -65.29 | X-H torsion
[ 10718 10713 10712 10709 ] final   18.69 input   66.30 | X-H torsion
[ 10763 10752 10751 10750 ] final -175.96 input  -60.55 | X-H torsion
[ 11005 11000 10999 10996 ] final   83.50 input  -57.11 | X-H torsion

> <Gold.Protein.ActiveResidues>
 VAL166  LYS551  ARG553  GLY616  TRP617  ASP618  TYR619  PRO620  LYS621  CYS622 
 ASP623  PHE694  ASN695  SER759  ASP760  ASP761  ALA762  ILE779  LEU786  VAL792 
 PHE793  MET794  SER795  GLU796  ALA797  LYS798  CYS799  TRP800  GLU811  SER814 

> <Gold.Protein.RotatedAtoms>
  152.3717  134.6724  160.0173 H   0  0  0  0  0  0  0  0  0  0  0  0  # atno 6907 bound_to 6896
  151.7015  133.3306  159.3276 H   0  0  0  0  0  0  0  0  0  0  0  0  # atno 6908 bound_to 6896
  150.7678  134.6546  159.6351 H   0  0  0  0  0  0  0  0  0  0  0  0  # atno 6909 bound_to 6896
  145.1796  139.3057  143.4425 H   0  0  0  0  0  0  0  0  0  0  0  0  # atno 7974 bound_to 7965
  156.2662  140.2821  156.1218 H   0  0  0  0  0  0  0  0  0  0  0  0  # atno 8008 bound_to 7997
  155.1147  140.0391  157.2751 H   0  0  0  0  0  0  0  0  0  0  0  0  # atno 8009 bound_to 7997
  154.6716  140.2589  155.7008 H   0  0  0  0  0  0  0  0  0  0  0  0  # atno 8010 bound_to 7997
  140.6850  143.2870  151.3668 H   0  0  0  0  0  0  0  0  0  0  0  0  # atno 10167 bound_to 10162
  157.0998  130.6463  149.5869 H   0  0  0  0  0  0  0  0  0  0  0  0  # atno 10718 bound_to 10713
  154.5781  135.2834  155.0760 H   0  0  0  0  0  0  0  0  0  0  0  0  # atno 10763 bound_to 10752
  154.2107  135.6408  153.5118 H   0  0  0  0  0  0  0  0  0  0  0  0  # atno 10764 bound_to 10752
  153.0079  135.5491  154.6426 H   0  0  0  0  0  0  0  0  0  0  0  0  # atno 10765 bound_to 10752
  139.9029  134.8149  156.2317 H   0  0  0  0  0  0  0  0  0  0  0  0  # atno 11005 bound_to 11000
  146.3455  140.1970  142.8589 LP  0  0  0  0  0  0  0  0  0  0  0  0  # atno 17320 bound_to 7965
  145.0150  140.8746  143.5201 LP  0  0  0  0  0  0  0  0  0  0  0  0  # atno 17321 bound_to 7965
  139.6201  144.0924  152.2383 LP  0  0  0  0  0  0  0  0  0  0  0  0  # atno 17342 bound_to 10162
  140.0366  144.6040  150.7445 LP  0  0  0  0  0  0  0  0  0  0  0  0  # atno 17343 bound_to 10162
  155.9876  130.4916  150.7134 LP  0  0  0  0  0  0  0  0  0  0  0  0  # atno 17370 bound_to 10713
  157.4650  131.0887  151.0704 LP  0  0  0  0  0  0  0  0  0  0  0  0  # atno 17371 bound_to 10713
  141.0341  133.6973  156.1481 LP  0  0  0  0  0  0  0  0  0  0  0  0  # atno 17394 bound_to 11000
  140.7053  134.4520  157.5584 LP  0  0  0  0  0  0  0  0  0  0  0  0  # atno 17395 bound_to 11000

$$$$
