AV-unprocessed.smi:2106|AV-procd|sdf|8594|dock7
  -GOLD-   2272011333D 1   1.00000     0.00000
 Structure written by MMmdl.
 47 48  0  0  0  0  0  0  0  0  1 V2000
  146.5333  138.0794  155.6527 C   0  0  0  0  0  0  0  0  0  0  0  0
  147.9032  137.5544  155.3397 C   0  0  0  0  0  0  0  0  0  0  0  0
  148.4116  136.2411  155.5424 C   0  0  0  0  0  0  0  0  0  0  0  0
  149.6999  136.3046  155.0910 C   0  0  0  0  0  0  0  0  0  0  0  0
  150.7551  135.2491  155.0375 C   0  0  0  0  0  0  0  0  0  0  0  0
  149.9092  137.6014  154.6551 N   0  0  0  0  0  0  0  0  0  0  0  0
  151.1085  138.1968  154.0823 C   0  0  0  0  0  0  0  0  0  0  0  0
  151.6408  139.3722  154.9115 C   0  0  0  0  0  0  0  0  0  0  0  0
  152.8508  139.5388  155.0728 O   0  0  0  0  0  0  0  0  0  0  0  0
  150.7127  140.1851  155.4386 N   0  0  0  0  0  0  0  0  0  0  0  0
  150.9946  141.3578  156.2574 C   0  0  0  0  0  0  0  0  0  0  0  0
  151.3475  140.9592  157.7027 C   0  0  0  0  0  0  0  0  0  0  0  0
  151.8808  142.0402  158.5297 N   0  0  0  0  0  0  0  0  0  0  0  0
  152.6159  141.5466  159.6904 C   0  0  0  0  0  0  0  0  0  0  0  0
  153.1750  142.6949  160.5503 C   0  0  2  0  0  0  0  0  0  0  0  0
  153.8638  142.1812  161.8191 C   0  0  0  0  0  0  0  0  0  0  0  0
  152.1106  143.5591  160.9442 O   0  0  0  0  0  0  0  0  0  0  0  0
  151.3162  144.0724  159.8739 C   0  0  1  0  0  0  0  0  0  0  0  0
  152.0564  145.1671  159.0864 C   0  0  0  0  0  0  0  0  0  0  0  0
  150.8086  142.9175  158.9879 C   0  0  0  0  0  0  0  0  0  0  0  0
  148.8038  138.3632  154.8064 N   0  0  0  0  0  0  0  0  0  0  0  0
  145.8716  137.2804  155.9875 H   0  0  0  0  0  0  0  0  0  0  0  0
  146.0784  138.5408  154.7757 H   0  0  0  0  0  0  0  0  0  0  0  0
  146.5730  138.8297  156.4425 H   0  0  0  0  0  0  0  0  0  0  0  0
  147.9060  135.3819  155.9573 H   0  0  0  0  0  0  0  0  0  0  0  0
  150.3662  134.2917  155.3844 H   0  0  0  0  0  0  0  0  0  0  0  0
  151.6022  135.5152  155.6698 H   0  0  0  0  0  0  0  0  0  0  0  0
  151.1198  135.1126  154.0195 H   0  0  0  0  0  0  0  0  0  0  0  0
  151.8718  137.4225  153.9964 H   0  0  0  0  0  0  0  0  0  0  0  0
  150.8933  138.5441  153.0705 H   0  0  0  0  0  0  0  0  0  0  0  0
  149.7409  139.9757  155.2611 H   0  0  0  0  0  0  0  0  0  0  0  0
  151.7947  141.9355  155.7936 H   0  0  0  0  0  0  0  0  0  0  0  0
  150.1083  141.9928  156.2547 H   0  0  0  0  0  0  0  0  0  0  0  0
  150.4381  140.5781  158.1698 H   0  0  0  0  0  0  0  0  0  0  0  0
  152.0500  140.1246  157.6947 H   0  0  0  0  0  0  0  0  0  0  0  0
  151.9644  140.9177  160.2993 H   0  0  0  0  0  0  0  0  0  0  0  0
  153.4473  140.9187  159.3724 H   0  0  0  0  0  0  0  0  0  0  0  0
  153.9046  143.2609  159.9706 H   0  0  0  0  0  0  0  0  0  0  0  0
  154.6987  141.5246  161.5738 H   0  0  0  0  0  0  0  0  0  0  0  0
  153.1700  141.6208  162.4462 H   0  0  0  0  0  0  0  0  0  0  0  0
  154.2548  143.0082  162.4122 H   0  0  0  0  0  0  0  0  0  0  0  0
  150.4488  144.5450  160.3356 H   0  0  0  0  0  0  0  0  0  0  0  0
  151.3978  145.6247  158.3478 H   0  0  0  0  0  0  0  0  0  0  0  0
  152.9212  144.7747  158.5520 H   0  0  0  0  0  0  0  0  0  0  0  0
  152.4049  145.9566  159.7526 H   0  0  0  0  0  0  0  0  0  0  0  0
  150.2684  143.3259  158.1329 H   0  0  0  0  0  0  0  0  0  0  0  0
  150.0833  142.3333  159.5565 H   0  0  0  0  0  0  0  0  0  0  0  0
  1  2  1  0  0  0  0
  1 22  1  0  0  0  0
  1 23  1  0  0  0  0
  1 24  1  0  0  0  0
  2 21  2  0  0  0  0
  2  3  1  0  0  0  0
  3  4  2  0  0  0  0
  3 25  1  0  0  0  0
  4  5  1  0  0  0  0
  4  6  1  0  0  0  0
  5 26  1  0  0  0  0
  5 27  1  0  0  0  0
  5 28  1  0  0  0  0
  6  7  1  0  0  0  0
  6 21  1  0  0  0  0
  7  8  1  0  0  0  0
  7 29  1  0  0  0  0
  7 30  1  0  0  0  0
  8  9  2  0  0  0  0
  8 10  1  0  0  0  0
 10 11  1  0  0  0  0
 10 31  1  0  0  0  0
 11 12  1  0  0  0  0
 11 32  1  0  0  0  0
 11 33  1  0  0  0  0
 12 13  1  0  0  0  0
 12 34  1  0  0  0  0
 12 35  1  0  0  0  0
 13 20  1  0  0  0  0
 13 14  1  0  0  0  0
 14 15  1  0  0  0  0
 14 36  1  0  0  0  0
 14 37  1  0  0  0  0
 15 16  1  0  0  0  0
 15 17  1  0  0  0  0
 15 38  1  0  0  0  0
 16 39  1  0  0  0  0
 16 40  1  0  0  0  0
 16 41  1  0  0  0  0
 17 18  1  0  0  0  0
 18 19  1  0  0  0  0
 18 20  1  0  0  0  0
 18 42  1  0  0  0  0
 19 43  1  0  0  0  0
 19 44  1  0  0  0  0
 19 45  1  0  0  0  0
 20 46  1  0  0  0  0
 20 47  1  0  0  0  0
M  END
> <s_m_source_file>
AV-unprocessed.smi

> <i_m_source_file_index>
2106

> <i_lp_mmshare_version>
43012

> <i_f3d_flags>
0

> <s_epik_input>
W0NIM11jMVtjSF1jKFtDSDNdKW4objEpW0NIMl1DKD1PKVtOSF1bQ0gyXVtDSDJdTjJbQ0gyXVtDQEBIXShbQ0gzXSlPW0NAQEhdKFtDSDNdKVtDSDJdMg==

> <s_epik_cmdline>
J2VwaWtfcHl0aG9uJywgJy1waCcsICc3LjAnLCAnLXRuJywgJzgnLCAnLW1hJywgJzIwMCcsICctbWV0YWxfYmluZGluZycsICctaW1hZScsICc8aW5maWxlLm1hZT4nLCAnLW9tYWUnLCAnPG91dGZpbGUubWFlPic=

> <r_lp_tautomer_probability>
1

> <r_epik_Ionization_Penalty>
0.197284

> <r_epik_Ionization_Penalty_Charging>
0

> <r_epik_Ionization_Penalty_Neutral>
0.197284

> <r_epik_State_Penalty>
0.186684

> <r_epik_Charging_Adjusted_Penalty>
0.186684

> <i_epik_Tot_Q>
0

> <i_epik_Tot_abs_Q>
0

> <r_epik_Metal_State_Penalty>
0.186634

> <b_epik_Metal_Only>
0

> <s_lp_Force_Field>
OPLS_2005

> <r_lp_Energy>
21.9362

> <b_lp_Chiralities_Consistent>
1

> <s_lp_Variant>
AV-unprocessed.smi:2106-2

> <Gold.Version>
5.8.1

> <Gold.Id.Protein>
6NUR|6NUR_protein|mol2

> <Gold.PLP.Fitness>
43.0986

> <Gold.PLP.PLP>
-41.3163

> <Gold.PLP.part.hbond>
-1.0000

> <Gold.PLP.part.metal>
0.0000

> <Gold.PLP.part.buried>
-8.1762

> <Gold.PLP.part.nonpolar>
-32.9522

> <Gold.PLP.part.repulsive>
0.4313

> <Gold.PLP.ligand.clash>
0.0000

> <Gold.PLP.ligand.torsion>
0.6194

> <Gold.PLP.Chemscore.Hbond>
1.0000

> <Gold.PLP.Chemscore.CHOScore>
0.0000

> <Gold.PLP.Chemscore.Metal>
0.0000

> <Gold.Chemscore.Hbonds>
donor molecule, donor type, donor heavy atom, donor atom, acceptor molecule, acceptor atom, score
      P1  H  7997  8010       L1     9  0.90

> <Gold.PLP.Chemscore.Internal.Correction>
0.0212

> <Gold.Rescore>
     Score         DG    S(hbond)    S(metal)    S(lipo)     H(rot)  DE(clash)    DE(int)     intcor
     14.17     -16.15       0.98        0.00      99.75       1.67       0.04       1.93       ----

> <Gold.Chemscore.Fitness>
14.1736

> <Gold.Chemscore.DG>
-16.1452

> <Gold.Chemscore.ZeroCoef>
-5.4800

> <Gold.Chemscore.Hbond>
0.9755

> <Gold.Chemscore.Metal>
0.0000

> <Gold.Chemscore.Lipo>
99.7538

> <Gold.Chemscore.Internal_Hbond>
0.0000

> <Gold.Chemscore.DEClash>
0.0386

> <Gold.Chemscore.DEInternal>
1.9330

> <Gold.Chemscore.Rot>
1.6657

> <Gold.Chemscore.Internal.Correction>
   9.000000E+99

> <Gold.Chemscore.Hbonds>
donor molecule, donor type, donor heavy atom, donor atom, acceptor molecule, acceptor atom, score
      P1  H  7997  8010       L1     9  0.81

> <Gold.Chemscore.Hbond.Weighted>
-3.2581

> <Gold.Chemscore.Metal.Weighted>
-0.0000

> <Gold.Chemscore.Lipo.Weighted>
-11.6712

> <Gold.Chemscore.Internal_Hbond.Weighted>
0.0000

> <Gold.Chemscore.DEClash.Weighted>
0.0386

> <Gold.Chemscore.DEInternal.Weighted>
1.9330

> <Gold.Chemscore.Rot.Weighted>
4.2641

> <Gold.Chemscore.Internal.Correction.Weighted>
   9.000000E+99

> <Gold.Protein.RotatedTorsions>
[ 6907 6896 6895 6894 ] final   13.26 input  -60.11 | X-H torsion
[ 7974 7965 7964 7962 ] final  -19.50 input  175.53 | X-H torsion
[ 8008 7997 7996 7995 ] final   76.08 input   59.86 | X-H torsion
[ 10167 10162 10161 10158 ] final -119.18 input  -65.29 | X-H torsion
[ 10718 10713 10712 10709 ] final -111.02 input   66.30 | X-H torsion
[ 10763 10752 10751 10750 ] final  -12.70 input  -60.55 | X-H torsion
[ 11005 11000 10999 10996 ] final   94.55 input  -57.11 | X-H torsion

> <Gold.Protein.ActiveResidues>
 VAL166  LYS551  ARG553  GLY616  TRP617  ASP618  TYR619  PRO620  LYS621  CYS622 
 ASP623  PHE694  ASN695  SER759  ASP760  ASP761  ALA762  ILE779  LEU786  VAL792 
 PHE793  MET794  SER795  GLU796  ALA797  LYS798  CYS799  TRP800  GLU811  SER814 

> <Gold.Protein.RotatedAtoms>
  151.7835  135.0755  160.0376 H   0  0  0  0  0  0  0  0  0  0  0  0  # atno 6907 bound_to 6896
  152.3206  133.5845  159.5750 H   0  0  0  0  0  0  0  0  0  0  0  0  # atno 6908 bound_to 6896
  150.7368  133.9932  159.3656 H   0  0  0  0  0  0  0  0  0  0  0  0  # atno 6909 bound_to 6896
  146.1838  140.4070  142.8484 H   0  0  0  0  0  0  0  0  0  0  0  0  # atno 7974 bound_to 7965
  155.8221  140.3469  155.5521 H   0  0  0  0  0  0  0  0  0  0  0  0  # atno 8008 bound_to 7997
  155.8331  140.0930  157.1800 H   0  0  0  0  0  0  0  0  0  0  0  0  # atno 8009 bound_to 7997
  154.4004  140.1408  156.3625 H   0  0  0  0  0  0  0  0  0  0  0  0  # atno 8010 bound_to 7997
  140.0494  143.5075  152.2090 H   0  0  0  0  0  0  0  0  0  0  0  0  # atno 10167 bound_to 10162
  156.0623  130.5846  150.8317 H   0  0  0  0  0  0  0  0  0  0  0  0  # atno 10718 bound_to 10713
  153.5023  135.7017  153.5825 H   0  0  0  0  0  0  0  0  0  0  0  0  # atno 10763 bound_to 10752
  153.3951  135.3886  155.1950 H   0  0  0  0  0  0  0  0  0  0  0  0  # atno 10764 bound_to 10752
  154.8710  135.3868  154.4495 H   0  0  0  0  0  0  0  0  0  0  0  0  # atno 10765 bound_to 10752
  139.8797  134.8851  156.3881 H   0  0  0  0  0  0  0  0  0  0  0  0  # atno 11005 bound_to 11000
  144.8361  140.6784  143.6259 LP  0  0  0  0  0  0  0  0  0  0  0  0  # atno 17320 bound_to 7965
  145.3999  139.1600  143.4183 LP  0  0  0  0  0  0  0  0  0  0  0  0  # atno 17321 bound_to 7965
  139.5963  144.7568  151.3279 LP  0  0  0  0  0  0  0  0  0  0  0  0  # atno 17342 bound_to 10162
  140.7224  143.7099  150.7777 LP  0  0  0  0  0  0  0  0  0  0  0  0  # atno 17343 bound_to 10162
  157.5641  131.0946  150.9515 LP  0  0  0  0  0  0  0  0  0  0  0  0  # atno 17370 bound_to 10713
  156.9746  130.5504  149.5292 LP  0  0  0  0  0  0  0  0  0  0  0  0  # atno 17371 bound_to 10713
  140.9352  133.7552  156.0076 LP  0  0  0  0  0  0  0  0  0  0  0  0  # atno 17394 bound_to 11000
  140.8284  134.3207  157.5357 LP  0  0  0  0  0  0  0  0  0  0  0  0  # atno 17395 bound_to 11000

$$$$
