AV-unprocessed.smi:1010|AV-procd|sdf|4415|dock8
  -GOLD-   22720 2363D 1   1.00000     0.00000
 Structure written by MMmdl.
 55 57  0  0  0  0  0  0  0  0  2 V2000
  146.5914  135.4318  157.8936 C   0  0  0  0  0  0  0  0  0  0  0  0
  146.1340  136.1214  159.1265 N   0  3  0  0  0  0  0  0  0  0  0  0
  144.6502  136.2124  159.1418 C   0  0  0  0  0  0  0  0  0  0  0  0
  146.7665  135.6826  160.4275 C   0  0  0  0  0  0  0  0  0  0  0  0
  148.3193  135.8094  160.2854 C   0  0  0  0  0  0  0  0  0  0  0  0
  148.7423  136.9230  159.4371 N   0  0  0  0  0  0  0  0  0  0  0  0
  149.6139  136.8577  158.4218 C   0  0  0  0  0  0  0  0  0  0  0  0
  150.1795  135.8214  158.0751 O   0  0  0  0  0  0  0  0  0  0  0  0
  149.8017  138.0671  157.8704 N   0  0  0  0  0  0  0  0  0  0  0  0
  150.7444  138.4348  156.8708 C   0  0  0  0  0  0  0  0  0  0  0  0
  151.0843  137.5563  155.8134 C   0  0  0  0  0  0  0  0  0  0  0  0
  151.9695  137.9928  154.8127 C   0  0  0  0  0  0  0  0  0  0  0  0
  152.4730  139.3017  154.8956 C   0  0  0  0  0  0  0  0  0  0  0  0
  152.1478  140.1544  155.8878 N   0  0  0  0  0  0  0  0  0  0  0  0
  151.3055  139.7439  156.8673 C   0  0  0  0  0  0  0  0  0  0  0  0
  151.0113  140.6741  157.8905 N   0  0  0  0  0  0  0  0  0  0  0  0
  150.3896  141.9546  157.5696 C   0  0  0  0  0  0  0  0  0  0  0  0
  150.5894  142.8129  158.8153 C   0  0  0  0  0  0  0  0  0  0  0  0
  151.9631  142.3623  159.3025 C   0  0  0  0  0  0  0  0  0  0  0  0
  152.0059  140.8734  158.9410 C   0  0  0  0  0  0  0  0  0  0  0  0
  146.2656  136.5547  161.6126 C   0  0  0  0  0  0  0  0  0  0  0  0
  146.7068  136.0192  162.9900 C   0  0  0  0  0  0  0  0  0  0  0  0
  146.3042  134.6659  163.1539 O   0  0  0  0  0  0  0  0  0  0  0  0
  146.8757  133.7942  162.1876 C   0  0  0  0  0  0  0  0  0  0  0  0
  146.3954  134.2090  160.7862 C   0  0  0  0  0  0  0  0  0  0  0  0
  146.4429  134.3537  157.9620 H   0  0  0  0  0  0  0  0  0  0  0  0
  147.6417  135.6353  157.6862 H   0  0  0  0  0  0  0  0  0  0  0  0
  146.0378  135.7885  157.0242 H   0  0  0  0  0  0  0  0  0  0  0  0
  144.1900  135.2239  159.1256 H   0  0  0  0  0  0  0  0  0  0  0  0
  144.2993  136.7516  158.2614 H   0  0  0  0  0  0  0  0  0  0  0  0
  144.2713  136.7508  160.0084 H   0  0  0  0  0  0  0  0  0  0  0  0
  148.8079  135.8789  161.2570 H   0  0  0  0  0  0  0  0  0  0  0  0
  148.7485  134.9154  159.8383 H   0  0  0  0  0  0  0  0  0  0  0  0
  148.3293  137.8221  159.6405 H   0  0  0  0  0  0  0  0  0  0  0  0
  149.3207  138.8377  158.3111 H   0  0  0  0  0  0  0  0  0  0  0  0
  150.6630  136.5651  155.7418 H   0  0  0  0  0  0  0  0  0  0  0  0
  152.2446  137.3443  153.9943 H   0  0  0  0  0  0  0  0  0  0  0  0
  153.1499  139.6772  154.1426 H   0  0  0  0  0  0  0  0  0  0  0  0
  150.8879  142.4264  156.7220 H   0  0  0  0  0  0  0  0  0  0  0  0
  149.3340  141.8339  157.3241 H   0  0  0  0  0  0  0  0  0  0  0  0
  150.5372  143.8820  158.6078 H   0  0  0  0  0  0  0  0  0  0  0  0
  149.8314  142.5727  159.5621 H   0  0  0  0  0  0  0  0  0  0  0  0
  152.7382  142.8965  158.7512 H   0  0  0  0  0  0  0  0  0  0  0  0
  152.1203  142.5459  160.3656 H   0  0  0  0  0  0  0  0  0  0  0  0
  151.7264  140.2736  159.8075 H   0  0  0  0  0  0  0  0  0  0  0  0
  153.0047  140.5690  158.6249 H   0  0  0  0  0  0  0  0  0  0  0  0
  146.6137  137.5833  161.5157 H   0  0  0  0  0  0  0  0  0  0  0  0
  145.1760  136.5980  161.6003 H   0  0  0  0  0  0  0  0  0  0  0  0
  147.7840  136.1089  163.1311 H   0  0  0  0  0  0  0  0  0  0  0  0
  146.2455  136.6130  163.7791 H   0  0  0  0  0  0  0  0  0  0  0  0
  147.9626  133.7867  162.2678 H   0  0  0  0  0  0  0  0  0  0  0  0
  146.5443  132.7785  162.4043 H   0  0  0  0  0  0  0  0  0  0  0  0
  145.3145  134.0747  160.8071 H   0  0  0  0  0  0  0  0  0  0  0  0
  146.7717  133.5109  160.0379 H   0  0  0  0  0  0  0  0  0  0  0  0
  146.4468  137.0750  159.0087 H   0  0  0  0  0  0  0  0  0  0  0  0
  1  2  1  0  0  0  0
  1 26  1  0  0  0  0
  1 27  1  0  0  0  0
  1 28  1  0  0  0  0
  2  3  1  0  0  0  0
  2  4  1  0  0  0  0
  2 55  1  0  0  0  0
  3 29  1  0  0  0  0
  3 30  1  0  0  0  0
  3 31  1  0  0  0  0
  4 25  1  0  0  0  0
  4  5  1  0  0  0  0
  4 21  1  0  0  0  0
  5  6  1  0  0  0  0
  5 32  1  0  0  0  0
  5 33  1  0  0  0  0
  6  7  1  0  0  0  0
  6 34  1  0  0  0  0
  7  8  2  0  0  0  0
  7  9  1  0  0  0  0
  9 10  1  0  0  0  0
  9 35  1  0  0  0  0
 10 15  1  0  0  0  0
 10 11  2  0  0  0  0
 11 12  1  0  0  0  0
 11 36  1  0  0  0  0
 12 13  2  0  0  0  0
 12 37  1  0  0  0  0
 13 14  1  0  0  0  0
 13 38  1  0  0  0  0
 14 15  2  0  0  0  0
 15 16  1  0  0  0  0
 16 20  1  0  0  0  0
 16 17  1  0  0  0  0
 17 18  1  0  0  0  0
 17 39  1  0  0  0  0
 17 40  1  0  0  0  0
 18 19  1  0  0  0  0
 18 41  1  0  0  0  0
 18 42  1  0  0  0  0
 19 20  1  0  0  0  0
 19 43  1  0  0  0  0
 19 44  1  0  0  0  0
 20 45  1  0  0  0  0
 20 46  1  0  0  0  0
 21 22  1  0  0  0  0
 21 47  1  0  0  0  0
 21 48  1  0  0  0  0
 22 23  1  0  0  0  0
 22 49  1  0  0  0  0
 22 50  1  0  0  0  0
 23 24  1  0  0  0  0
 24 25  1  0  0  0  0
 24 51  1  0  0  0  0
 24 52  1  0  0  0  0
 25 53  1  0  0  0  0
 25 54  1  0  0  0  0
M  CHG  1   2   1
M  END
> <s_m_source_file>
AV-unprocessed.smi

> <i_m_source_file_index>
1010

> <i_lp_mmshare_version>
43012

> <i_f3d_flags>
0

> <s_epik_input>
W0NIMl0xW0NIMl1PW0NIMl1bQ0gyXUMxKE4oW0NIM10pW0NIM10pW0NIMl1bTkhdQyg9TylbTkhdYzJbY0hdW2NIXVtjSF1uYzJOM1tDSDJdW0NIMl1bQ0gyXVtDSDJdMw==

> <s_epik_cmdline>
J2VwaWtfcHl0aG9uJywgJy1waCcsICc3LjAnLCAnLXRuJywgJzgnLCAnLW1hJywgJzIwMCcsICctbWV0YWxfYmluZGluZycsICctaW1hZScsICc8aW5maWxlLm1hZT4nLCAnLW9tYWUnLCAnPG91dGZpbGUubWFlPic=

> <r_lp_tautomer_probability>
1

> <r_epik_Ionization_Penalty>
0.0977718

> <r_epik_Ionization_Penalty_Charging>
0.0128317

> <r_epik_Ionization_Penalty_Neutral>
0.0849401

> <r_epik_State_Penalty>
0.0837778

> <r_epik_Charging_Adjusted_Penalty>
0.0966095

> <i_epik_Tot_Q>
1

> <i_epik_Tot_abs_Q>
1

> <r_epik_Metal_State_Penalty>
0.0755623

> <b_epik_Metal_Only>
0

> <s_lp_Force_Field>
OPLS_2005

> <r_lp_Energy>
58.4563

> <b_lp_Chiralities_Consistent>
1

> <s_lp_Variant>
AV-unprocessed.smi:1010-1

> <Gold.Version>
5.8.1

> <Gold.Id.Protein>
6NUR|6NUR_protein|mol2

> <Gold.PLP.Fitness>
41.3834

> <Gold.PLP.PLP>
-37.6848

> <Gold.PLP.part.hbond>
-3.0000

> <Gold.PLP.part.metal>
0.0000

> <Gold.PLP.part.buried>
-5.2140

> <Gold.PLP.part.nonpolar>
-31.0303

> <Gold.PLP.part.repulsive>
0.4365

> <Gold.PLP.ligand.clash>
0.0000

> <Gold.PLP.ligand.torsion>
1.0502

> <Gold.PLP.Chemscore.Hbond>
1.7865

> <Gold.PLP.Chemscore.CHOScore>
0.0000

> <Gold.PLP.Chemscore.Metal>
0.0000

> <Gold.Chemscore.Hbonds>
donor molecule, donor type, donor heavy atom, donor atom, acceptor molecule, acceptor atom, score
      P1  H  6896  6907       L1     8  0.82
      P1  H  7997  8009       L1    14  0.14

> <Gold.PLP.Chemscore.Internal.Correction>
0.4395

> <Gold.Rescore>
     Score         DG    S(hbond)    S(metal)    S(lipo)     H(rot)  DE(clash)    DE(int)     intcor
     14.69     -16.58       1.12        0.00      98.00       1.60       0.10       1.79       ----

> <Gold.Chemscore.Fitness>
14.6922

> <Gold.Chemscore.DG>
-16.5801

> <Gold.Chemscore.ZeroCoef>
-5.4800

> <Gold.Chemscore.Hbond>
1.1195

> <Gold.Chemscore.Metal>
0.0000

> <Gold.Chemscore.Lipo>
97.9971

> <Gold.Chemscore.Internal_Hbond>
0.0000

> <Gold.Chemscore.DEClash>
0.1020

> <Gold.Chemscore.DEInternal>
1.7859

> <Gold.Chemscore.Rot>
1.6033

> <Gold.Chemscore.Internal.Correction>
   9.000000E+99

> <Gold.Chemscore.Hbonds>
donor molecule, donor type, donor heavy atom, donor atom, acceptor molecule, acceptor atom, score
      P1  H  6896  6907       L1     8  0.74

> <Gold.Chemscore.Hbond.Weighted>
-3.7390

> <Gold.Chemscore.Metal.Weighted>
-0.0000

> <Gold.Chemscore.Lipo.Weighted>
-11.4657

> <Gold.Chemscore.Internal_Hbond.Weighted>
0.0000

> <Gold.Chemscore.DEClash.Weighted>
0.1020

> <Gold.Chemscore.DEInternal.Weighted>
1.7859

> <Gold.Chemscore.Rot.Weighted>
4.1046

> <Gold.Chemscore.Internal.Correction.Weighted>
   9.000000E+99

> <Gold.Protein.RotatedTorsions>
[ 6907 6896 6895 6894 ] final  -71.03 input  -60.11 | X-H torsion
[ 7974 7965 7964 7962 ] final  143.09 input  175.53 | X-H torsion
[ 8008 7997 7996 7995 ] final -167.12 input   59.86 | X-H torsion
[ 10167 10162 10161 10158 ] final   91.45 input  -65.29 | X-H torsion
[ 10718 10713 10712 10709 ] final  -73.01 input   66.30 | X-H torsion
[ 10763 10752 10751 10750 ] final  -23.95 input  -60.55 | X-H torsion
[ 11005 11000 10999 10996 ] final -114.11 input  -57.11 | X-H torsion

> <Gold.Protein.ActiveResidues>
 VAL166  LYS551  ARG553  GLY616  TRP617  ASP618  TYR619  PRO620  LYS621  CYS622 
 ASP623  PHE694  ASN695  SER759  ASP760  ASP761  ALA762  ILE779  LEU786  VAL792 
 PHE793  MET794  SER795  GLU796  ALA797  LYS798  CYS799  TRP800  GLU811  SER814 

> <Gold.Protein.RotatedAtoms>
  150.7230  134.5367  159.5726 H   0  0  0  0  0  0  0  0  0  0  0  0  # atno 6907 bound_to 6896
  152.2887  134.7743  160.0391 H   0  0  0  0  0  0  0  0  0  0  0  0  # atno 6908 bound_to 6896
  151.8364  133.3381  159.3666 H   0  0  0  0  0  0  0  0  0  0  0  0  # atno 6909 bound_to 6896
  144.8951  139.5502  143.5780 H   0  0  0  0  0  0  0  0  0  0  0  0  # atno 7974 bound_to 7965
  155.8733  140.0997  157.1535 H   0  0  0  0  0  0  0  0  0  0  0  0  # atno 8008 bound_to 7997
  154.3999  140.1343  156.4168 H   0  0  0  0  0  0  0  0  0  0  0  0  # atno 8009 bound_to 7997
  155.7726  140.3460  155.5257 H   0  0  0  0  0  0  0  0  0  0  0  0  # atno 8010 bound_to 7997
  139.8373  144.6658  150.9326 H   0  0  0  0  0  0  0  0  0  0  0  0  # atno 10167 bound_to 10162
  156.0297  130.4385  150.2678 H   0  0  0  0  0  0  0  0  0  0  0  0  # atno 10718 bound_to 10713
  153.6760  135.6969  153.5132 H   0  0  0  0  0  0  0  0  0  0  0  0  # atno 10763 bound_to 10752
  153.2521  135.4271  155.0807 H   0  0  0  0  0  0  0  0  0  0  0  0  # atno 10764 bound_to 10752
  154.8413  135.3534  154.6304 H   0  0  0  0  0  0  0  0  0  0  0  0  # atno 10765 bound_to 10752
  141.0572  133.9593  157.2732 H   0  0  0  0  0  0  0  0  0  0  0  0  # atno 11005 bound_to 11000
  146.3076  139.7635  142.9044 LP  0  0  0  0  0  0  0  0  0  0  0  0  # atno 17320 bound_to 7965
  145.3714  141.0343  143.3229 LP  0  0  0  0  0  0  0  0  0  0  0  0  # atno 17321 bound_to 7965
  140.7801  143.3945  151.1253 LP  0  0  0  0  0  0  0  0  0  0  0  0  # atno 17342 bound_to 10162
  139.7594  143.8658  152.3096 LP  0  0  0  0  0  0  0  0  0  0  0  0  # atno 17343 bound_to 10162
  157.0781  131.0135  151.3166 LP  0  0  0  0  0  0  0  0  0  0  0  0  # atno 17370 bound_to 10713
  157.4948  130.7844  149.7544 LP  0  0  0  0  0  0  0  0  0  0  0  0  # atno 17371 bound_to 10713
  139.9401  135.0192  156.8680 LP  0  0  0  0  0  0  0  0  0  0  0  0  # atno 17394 bound_to 11000
  140.5940  134.0235  155.7510 LP  0  0  0  0  0  0  0  0  0  0  0  0  # atno 17395 bound_to 11000

$$$$
