AV-unprocessed.smi:2822|AV-procd|sdf|10861|dock10
  -GOLD-   2272015303D 1   1.00000     0.00000
 Structure written by MMmdl.
 41 43  0  0  0  0  0  0  0  0  3 V2000
  145.1132  130.1185  151.6329 Cl  0  0  0  0  0  0  0  0  0  0  0  0
  144.9036  131.8047  151.3136 C   0  0  0  0  0  0  0  0  0  0  0  0
  143.7037  132.2497  150.7212 C   0  0  0  0  0  0  0  0  0  0  0  0
  143.5224  133.5628  150.4667 N   0  3  0  0  0  0  0  0  0  0  0  0
  144.4536  134.4962  150.7553 C   0  0  0  0  0  0  0  0  0  0  0  0
  145.6737  134.1132  151.3491 C   0  0  0  0  0  0  0  0  0  0  0  0
  145.9117  132.7460  151.6378 C   0  0  0  0  0  0  0  0  0  0  0  0
  147.1050  132.2992  152.2264 N   0  0  0  0  0  0  0  0  0  0  0  0
  148.2028  133.2132  152.5032 C   0  0  0  0  0  0  0  0  0  0  0  0
  148.7399  133.0305  153.9372 C   0  0  1  0  0  0  0  0  0  0  0  0
  150.0321  133.8252  154.2079 C   0  0  0  0  0  0  0  0  0  0  0  0
  149.7643  135.2787  154.3185 N   0  3  2  0  0  0  0  0  0  0  0  0
  151.0060  136.0606  154.5486 C   0  0  0  0  0  0  0  0  0  0  0  0
  150.7162  137.5696  154.5742 C   0  0  0  0  0  0  0  0  0  0  0  0
  149.6578  137.9013  155.6329 C   0  0  0  0  0  0  0  0  0  0  0  0
  148.3943  137.0661  155.3886 C   0  0  0  0  0  0  0  0  0  0  0  0
  148.7155  135.5586  155.3361 C   0  0  1  0  0  0  0  0  0  0  0  0
  147.4505  134.7365  155.0272 C   0  0  0  0  0  0  0  0  0  0  0  0
  147.7673  133.3522  154.9318 O   0  0  0  0  0  0  0  0  0  0  0  0
  142.8882  131.5972  150.4449 H   0  0  0  0  0  0  0  0  0  0  0  0
  144.1975  135.5150  150.5029 H   0  0  0  0  0  0  0  0  0  0  0  0
  146.4075  134.8743  151.5686 H   0  0  0  0  0  0  0  0  0  0  0  0
  147.1391  131.3710  152.6253 H   0  0  0  0  0  0  0  0  0  0  0  0
  149.0066  133.0100  151.7945 H   0  0  0  0  0  0  0  0  0  0  0  0
  147.8829  134.2403  152.3286 H   0  0  0  0  0  0  0  0  0  0  0  0
  148.9748  131.9729  154.0643 H   0  0  0  0  0  0  0  0  0  0  0  0
  150.4841  133.4768  155.1380 H   0  0  0  0  0  0  0  0  0  0  0  0
  150.7599  133.6395  153.4168 H   0  0  0  0  0  0  0  0  0  0  0  0
  151.4634  135.7520  155.4900 H   0  0  0  0  0  0  0  0  0  0  0  0
  151.7264  135.8415  153.7596 H   0  0  0  0  0  0  0  0  0  0  0  0
  151.6337  138.1224  154.7787 H   0  0  0  0  0  0  0  0  0  0  0  0
  150.3705  137.8957  153.5922 H   0  0  0  0  0  0  0  0  0  0  0  0
  150.0522  137.6932  156.6282 H   0  0  0  0  0  0  0  0  0  0  0  0
  149.4180  138.9648  155.6068 H   0  0  0  0  0  0  0  0  0  0  0  0
  147.6651  137.2656  156.1750 H   0  0  0  0  0  0  0  0  0  0  0  0
  147.9306  137.3789  154.4518 H   0  0  0  0  0  0  0  0  0  0  0  0
  149.0990  135.2488  156.3101 H   0  0  0  0  0  0  0  0  0  0  0  0
  146.7194  134.8645  155.8259 H   0  0  0  0  0  0  0  0  0  0  0  0
  146.9678  135.0824  154.1128 H   0  0  0  0  0  0  0  0  0  0  0  0
  149.3936  135.5778  153.4280 H   0  0  0  0  0  0  0  0  0  0  0  0
  142.6460  133.8617  150.0375 H   0  0  0  0  0  0  0  0  0  0  0  0
  1  2  1  0  0  0  0
  2  7  1  0  0  0  0
  2  3  2  0  0  0  0
  3  4  1  0  0  0  0
  3 20  1  0  0  0  0
  4  5  2  0  0  0  0
  4 41  1  0  0  0  0
  5  6  1  0  0  0  0
  5 21  1  0  0  0  0
  6  7  2  0  0  0  0
  6 22  1  0  0  0  0
  7  8  1  0  0  0  0
  8  9  1  0  0  0  0
  8 23  1  0  0  0  0
  9 10  1  0  0  0  0
  9 24  1  0  0  0  0
  9 25  1  0  0  0  0
 10 19  1  0  0  0  0
 10 11  1  0  0  0  0
 10 26  1  0  0  0  0
 11 12  1  0  0  0  0
 11 27  1  0  0  0  0
 11 28  1  0  0  0  0
 12 17  1  0  0  0  0
 12 13  1  0  0  0  0
 12 40  1  0  0  0  0
 13 14  1  0  0  0  0
 13 29  1  0  0  0  0
 13 30  1  0  0  0  0
 14 15  1  0  0  0  0
 14 31  1  0  0  0  0
 14 32  1  0  0  0  0
 15 16  1  0  0  0  0
 15 33  1  0  0  0  0
 15 34  1  0  0  0  0
 16 17  1  0  0  0  0
 16 35  1  0  0  0  0
 16 36  1  0  0  0  0
 17 18  1  0  0  0  0
 17 37  1  0  0  0  0
 18 19  1  0  0  0  0
 18 38  1  0  0  0  0
 18 39  1  0  0  0  0
M  CHG  1   4   1
M  CHG  1  12   1
M  END
> <s_m_source_file>
AV-unprocessed.smi

> <i_m_source_file_index>
2822

> <i_lp_mmshare_version>
43012

> <i_f3d_flags>
0

> <s_epik_input>
Q2xjMVtjSF1uW2NIXVtjSF1jMVtOSF1bQ0gyXVtDQEhdKFtDSDJdMilPW0NIMl1bQ0BASF0oTjIzKVtDSDJdW0NIMl1bQ0gyXVtDSDJdMw==

> <s_epik_cmdline>
J2VwaWtfcHl0aG9uJywgJy1waCcsICc3LjAnLCAnLXRuJywgJzgnLCAnLW1hJywgJzIwMCcsICctbWV0YWxfYmluZGluZycsICctaW1hZScsICc8aW5maWxlLm1hZT4nLCAnLW9tYWUnLCAnPG91dGZpbGUubWFlPic=

> <r_lp_tautomer_probability>
1

> <r_epik_Ionization_Penalty>
0.254999

> <r_epik_Ionization_Penalty_Charging>
0.254956

> <r_epik_Ionization_Penalty_Neutral>
4.33524e-05

> <r_epik_State_Penalty>
0.230978

> <r_epik_Charging_Adjusted_Penalty>
0.485934

> <i_epik_Tot_Q>
2

> <i_epik_Tot_abs_Q>
2

> <r_epik_Metal_State_Penalty>
3.47007

> <b_epik_Metal_Only>
0

> <s_lp_Force_Field>
OPLS_2005

> <r_lp_Energy>
41.9056

> <b_lp_Chiralities_Consistent>
1

> <s_lp_Variant>
AV-unprocessed.smi:2822-2

> <Gold.Version>
5.8.1

> <Gold.Id.Protein>
6NUR|6NUR_protein|mol2

> <Gold.PLP.Fitness>
44.2890

> <Gold.PLP.PLP>
-32.4654

> <Gold.PLP.part.hbond>
-2.9501

> <Gold.PLP.part.metal>
0.0000

> <Gold.PLP.part.buried>
-4.6199

> <Gold.PLP.part.nonpolar>
-24.7837

> <Gold.PLP.part.repulsive>
0.0974

> <Gold.PLP.ligand.clash>
0.0000

> <Gold.PLP.ligand.torsion>
0.0914

> <Gold.PLP.Chemscore.Hbond>
4.0000

> <Gold.PLP.Chemscore.CHOScore>
0.0000

> <Gold.PLP.Chemscore.Metal>
0.0000

> <Gold.Chemscore.Hbonds>
donor molecule, donor type, donor heavy atom, donor atom, acceptor molecule, acceptor atom, score
      L1  H     4    41       P1 10186  2.00
      L1  H    12    40       P1  7948  2.00

> <Gold.PLP.Chemscore.Internal.Correction>
0.0064

> <Gold.Rescore>
     Score         DG    S(hbond)    S(metal)    S(lipo)     H(rot)  DE(clash)    DE(int)     intcor
     18.07     -18.17       1.84        0.00      82.00       1.20       0.03       0.08       ----

> <Gold.Chemscore.Fitness>
18.0659

> <Gold.Chemscore.DG>
-18.1715

> <Gold.Chemscore.ZeroCoef>
-5.4800

> <Gold.Chemscore.Hbond>
1.8443

> <Gold.Chemscore.Metal>
0.0000

> <Gold.Chemscore.Lipo>
81.9996

> <Gold.Chemscore.Internal_Hbond>
0.0000

> <Gold.Chemscore.DEClash>
0.0281

> <Gold.Chemscore.DEInternal>
0.0776

> <Gold.Chemscore.Rot>
1.1962

> <Gold.Chemscore.Internal.Correction>
   9.000000E+99

> <Gold.Chemscore.Hbonds>
donor molecule, donor type, donor heavy atom, donor atom, acceptor molecule, acceptor atom, score
      L1  H     4    41       P1 10186  1.00
      L1  H    12    40       P1  7948  0.26

> <Gold.Chemscore.Hbond.Weighted>
-6.1599

> <Gold.Chemscore.Metal.Weighted>
-0.0000

> <Gold.Chemscore.Lipo.Weighted>
-9.5940

> <Gold.Chemscore.Internal_Hbond.Weighted>
0.0000

> <Gold.Chemscore.DEClash.Weighted>
0.0281

> <Gold.Chemscore.DEInternal.Weighted>
0.0776

> <Gold.Chemscore.Rot.Weighted>
3.0623

> <Gold.Chemscore.Internal.Correction.Weighted>
   9.000000E+99

> <Gold.Protein.RotatedTorsions>
[ 6907 6896 6895 6894 ] final   54.47 input  -60.11 | X-H torsion
[ 7974 7965 7964 7962 ] final -140.67 input  175.53 | X-H torsion
[ 8008 7997 7996 7995 ] final -138.64 input   59.86 | X-H torsion
[ 10167 10162 10161 10158 ] final   57.05 input  -65.29 | X-H torsion
[ 10718 10713 10712 10709 ] final   63.14 input   66.30 | X-H torsion
[ 10763 10752 10751 10750 ] final -156.67 input  -60.55 | X-H torsion
[ 11005 11000 10999 10996 ] final  -16.22 input  -57.11 | X-H torsion

> <Gold.Protein.ActiveResidues>
 VAL166  LYS551  ARG553  GLY616  TRP617  ASP618  TYR619  PRO620  LYS621  CYS622 
 ASP623  PHE694  ASN695  SER759  ASP760  ASP761  ALA762  ILE779  LEU786  VAL792 
 PHE793  MET794  SER795  GLU796  ALA797  LYS798  CYS799  TRP800  GLU811  SER814 

> <Gold.Protein.RotatedAtoms>
  152.3442  134.7093  160.0254 H   0  0  0  0  0  0  0  0  0  0  0  0  # atno 6907 bound_to 6896
  151.7468  133.3319  159.3388 H   0  0  0  0  0  0  0  0  0  0  0  0  # atno 6908 bound_to 6896
  150.7499  134.6161  159.6156 H   0  0  0  0  0  0  0  0  0  0  0  0  # atno 6909 bound_to 6896
  144.8579  140.6172  143.5347 H   0  0  0  0  0  0  0  0  0  0  0  0  # atno 7974 bound_to 7965
  155.4317  140.0525  157.3018 H   0  0  0  0  0  0  0  0  0  0  0  0  # atno 8008 bound_to 7997
  154.4857  140.2099  155.9620 H   0  0  0  0  0  0  0  0  0  0  0  0  # atno 8009 bound_to 7997
  156.1271  140.3178  155.8298 H   0  0  0  0  0  0  0  0  0  0  0  0  # atno 8010 bound_to 7997
  140.2022  144.3976  150.6524 H   0  0  0  0  0  0  0  0  0  0  0  0  # atno 10167 bound_to 10162
  157.5950  130.9089  149.9678 H   0  0  0  0  0  0  0  0  0  0  0  0  # atno 10718 bound_to 10713
  154.7695  135.3141  154.8218 H   0  0  0  0  0  0  0  0  0  0  0  0  # atno 10763 bound_to 10752
  153.8958  135.6821  153.4762 H   0  0  0  0  0  0  0  0  0  0  0  0  # atno 10764 bound_to 10752
  153.1306  135.4782  154.9277 H   0  0  0  0  0  0  0  0  0  0  0  0  # atno 10765 bound_to 10752
  140.8045  133.8188  155.9502 H   0  0  0  0  0  0  0  0  0  0  0  0  # atno 11005 bound_to 11000
  145.4370  139.1541  143.3991 LP  0  0  0  0  0  0  0  0  0  0  0  0  # atno 17320 bound_to 7965
  146.2837  140.4490  142.8766 LP  0  0  0  0  0  0  0  0  0  0  0  0  # atno 17321 bound_to 7965
  140.6383  143.2199  151.6347 LP  0  0  0  0  0  0  0  0  0  0  0  0  # atno 17342 bound_to 10162
  139.5213  144.3198  152.0921 LP  0  0  0  0  0  0  0  0  0  0  0  0  # atno 17343 bound_to 10162
  156.1012  130.3655  150.0216 LP  0  0  0  0  0  0  0  0  0  0  0  0  # atno 17370 bound_to 10713
  156.8331  130.9399  151.3636 LP  0  0  0  0  0  0  0  0  0  0  0  0  # atno 17371 bound_to 10713
  140.9261  134.2081  157.4895 LP  0  0  0  0  0  0  0  0  0  0  0  0  # atno 17394 bound_to 11000
  139.8719  134.9813  156.5110 LP  0  0  0  0  0  0  0  0  0  0  0  0  # atno 17395 bound_to 11000

$$$$
