AV-unprocessed.smi:2523|AV-procd|sdf|9920|dock4
  -GOLD-   2272013553D 1   1.00000     0.00000
 Structure written by MMmdl.
 34 36  0  0  0  0  0  0  0  0  1 V2000
  145.0723  142.8213  157.5406 C   0  0  0  0  0  0  0  0  0  0  0  0
  146.1350  142.3963  156.6325 N   0  0  0  0  0  0  0  0  0  0  0  0
  145.8454  142.5616  155.2730 N   0  0  0  0  0  0  0  0  0  0  0  0
  146.6980  142.2242  154.3568 C   0  0  0  0  0  0  0  0  0  0  0  0
  147.9777  141.6622  154.7773 C   0  0  0  0  0  0  0  0  0  0  0  0
  149.1358  141.1801  154.1076 C   0  0  0  0  0  0  0  0  0  0  0  0
  150.0645  140.7529  154.9610 N   0  0  0  0  0  0  0  0  0  0  0  0
  149.5435  140.9444  156.2004 N   0  0  0  0  0  0  0  0  0  0  0  0
  150.3198  140.5656  157.3711 C   0  0  0  0  0  0  0  0  0  0  0  0
  151.7827  141.0492  157.2973 C   0  0  2  0  0  0  0  0  0  0  0  0
  152.6525  139.9526  157.0904 O   0  0  0  0  0  0  0  0  0  0  0  0
  152.1640  141.8488  158.5328 C   0  0  0  0  0  0  0  0  0  0  0  0
  152.9824  141.2706  159.5268 C   0  0  0  0  0  0  0  0  0  0  0  0
  153.3401  142.0114  160.6701 C   0  0  0  0  0  0  0  0  0  0  0  0
  152.8844  143.3347  160.8244 C   0  0  0  0  0  0  0  0  0  0  0  0
  152.0699  143.9181  159.8346 C   0  0  0  0  0  0  0  0  0  0  0  0
  151.5133  145.5404  160.0207 Cl  0  0  0  0  0  0  0  0  0  0  0  0
  151.7103  143.1767  158.6920 C   0  0  0  0  0  0  0  0  0  0  0  0
  148.2815  141.4943  156.0881 C   0  0  0  0  0  0  0  0  0  0  0  0
  147.3004  141.8828  157.1300 C   0  0  0  0  0  0  0  0  0  0  0  0
  147.5353  141.7457  158.3305 O   0  0  0  0  0  0  0  0  0  0  0  0
  145.4301  143.6038  158.2112 H   0  0  0  0  0  0  0  0  0  0  0  0
  144.7280  141.9824  158.1471 H   0  0  0  0  0  0  0  0  0  0  0  0
  144.2089  143.2170  157.0034 H   0  0  0  0  0  0  0  0  0  0  0  0
  146.4708  142.3537  153.2987 H   0  0  0  0  0  0  0  0  0  0  0  0
  149.3308  141.1238  153.0469 H   0  0  0  0  0  0  0  0  0  0  0  0
  149.8356  140.9887  158.2526 H   0  0  0  0  0  0  0  0  0  0  0  0
  150.2726  139.4843  157.4954 H   0  0  0  0  0  0  0  0  0  0  0  0
  151.8881  141.6951  156.4245 H   0  0  0  0  0  0  0  0  0  0  0  0
  152.1937  139.1593  157.3205 H   0  0  0  0  0  0  0  0  0  0  0  0
  153.3395  140.2570  159.4170 H   0  0  0  0  0  0  0  0  0  0  0  0
  153.9652  141.5647  161.4290 H   0  0  0  0  0  0  0  0  0  0  0  0
  153.1613  143.9012  161.7013 H   0  0  0  0  0  0  0  0  0  0  0  0
  151.0869  143.6295  157.9346 H   0  0  0  0  0  0  0  0  0  0  0  0
  1  2  1  0  0  0  0
  1 22  1  0  0  0  0
  1 23  1  0  0  0  0
  1 24  1  0  0  0  0
  2 20  1  0  0  0  0
  2  3  1  0  0  0  0
  3  4  2  0  0  0  0
  4  5  1  0  0  0  0
  4 25  1  0  0  0  0
  5 19  2  0  0  0  0
  5  6  1  0  0  0  0
  6  7  2  0  0  0  0
  6 26  1  0  0  0  0
  7  8  1  0  0  0  0
  8  9  1  0  0  0  0
  8 19  1  0  0  0  0
  9 10  1  0  0  0  0
  9 27  1  0  0  0  0
  9 28  1  0  0  0  0
 10 11  1  0  0  0  0
 10 12  1  0  0  0  0
 10 29  1  0  0  0  0
 11 30  1  0  0  0  0
 12 18  1  0  0  0  0
 12 13  2  0  0  0  0
 13 14  1  0  0  0  0
 13 31  1  0  0  0  0
 14 15  2  0  0  0  0
 14 32  1  0  0  0  0
 15 16  1  0  0  0  0
 15 33  1  0  0  0  0
 16 17  1  0  0  0  0
 16 18  2  0  0  0  0
 18 34  1  0  0  0  0
 19 20  1  0  0  0  0
 20 21  2  0  0  0  0
M  END
> <s_m_source_file>
AV-unprocessed.smi

> <i_m_source_file_index>
2523

> <i_lp_mmshare_version>
43012

> <i_f3d_flags>
0

> <s_epik_input>
W2NIXTFubihbQ0gzXSljKD1PKWMoYzEyKW4obltjSF0yKVtDSDJdW0NASF0oW09IXSljM1tjSF1bY0hdW2NIXWMoQ2wpW2NIXTM=

> <s_epik_cmdline>
J2VwaWtfcHl0aG9uJywgJy1waCcsICc3LjAnLCAnLXRuJywgJzgnLCAnLW1hJywgJzIwMCcsICctbWV0YWxfYmluZGluZycsICctaW1hZScsICc8aW5maWxlLm1hZT4nLCAnLW9tYWUnLCAnPG91dGZpbGUubWFlPic=

> <r_lp_tautomer_probability>
1

> <r_epik_Ionization_Penalty>
8.52698e-06

> <r_epik_Ionization_Penalty_Charging>
1.65421e-10

> <r_epik_Ionization_Penalty_Neutral>
8.52681e-06

> <r_epik_State_Penalty>
-0

> <r_epik_Charging_Adjusted_Penalty>
1.65421e-10

> <i_epik_Tot_Q>
0

> <i_epik_Tot_abs_Q>
0

> <r_epik_Metal_State_Penalty>
-0

> <b_epik_Metal_Only>
0

> <s_lp_Force_Field>
OPLS_2005

> <r_lp_Energy>
27.0285

> <b_lp_Chiralities_Consistent>
1

> <s_lp_Variant>
AV-unprocessed.smi:2523-1

> <Gold.Version>
5.8.1

> <Gold.Id.Protein>
6NUR|6NUR_protein|mol2

> <Gold.PLP.Fitness>
47.3413

> <Gold.PLP.PLP>
-42.9293

> <Gold.PLP.part.hbond>
-2.3830

> <Gold.PLP.part.metal>
0.0000

> <Gold.PLP.part.buried>
-3.3800

> <Gold.PLP.part.nonpolar>
-35.8599

> <Gold.PLP.part.repulsive>
0.3600

> <Gold.PLP.ligand.clash>
0.0000

> <Gold.PLP.ligand.torsion>
1.3423

> <Gold.PLP.Chemscore.Hbond>
1.3580

> <Gold.PLP.Chemscore.CHOScore>
1.0000

> <Gold.PLP.Chemscore.Metal>
0.0000

> <Gold.Chemscore.Hbonds>
donor molecule, donor type, donor heavy atom, donor atom, acceptor molecule, acceptor atom, score
      P1  H  7989  7998       L1     7  0.39
      P1  H  7997  8010       L1    11  1.00
      L1  C     6    26       P1  7957  1.00

> <Gold.PLP.Chemscore.Internal.Correction>
0.0226

> <Gold.Rescore>
     Score         DG    S(hbond)    S(metal)    S(lipo)     H(rot)  DE(clash)    DE(int)     intcor
     16.22     -17.47       1.15        0.00     111.84       1.93       0.12       1.13       ----

> <Gold.Chemscore.Fitness>
16.2230

> <Gold.Chemscore.DG>
-17.4742

> <Gold.Chemscore.ZeroCoef>
-5.4800

> <Gold.Chemscore.Hbond>
1.1500

> <Gold.Chemscore.Metal>
0.0000

> <Gold.Chemscore.Lipo>
111.8384

> <Gold.Chemscore.Internal_Hbond>
0.0000

> <Gold.Chemscore.DEClash>
0.1196

> <Gold.Chemscore.DEInternal>
1.1315

> <Gold.Chemscore.Rot>
1.9265

> <Gold.Chemscore.Internal.Correction>
   9.000000E+99

> <Gold.Chemscore.Hbonds>
donor molecule, donor type, donor heavy atom, donor atom, acceptor molecule, acceptor atom, score
      P1  H  7989  7998       L1     7  0.03
      P1  H  7997  8010       L1    11  0.94

> <Gold.Chemscore.Hbond.Weighted>
-3.8408

> <Gold.Chemscore.Metal.Weighted>
-0.0000

> <Gold.Chemscore.Lipo.Weighted>
-13.0851

> <Gold.Chemscore.Internal_Hbond.Weighted>
0.0000

> <Gold.Chemscore.DEClash.Weighted>
0.1196

> <Gold.Chemscore.DEInternal.Weighted>
1.1315

> <Gold.Chemscore.Rot.Weighted>
4.9317

> <Gold.Chemscore.Internal.Correction.Weighted>
   9.000000E+99

> <Gold.Protein.RotatedTorsions>
[ 6907 6896 6895 6894 ] final -116.82 input  -60.11 | X-H torsion
[ 7974 7965 7964 7962 ] final  -99.47 input  175.53 | X-H torsion
[ 8008 7997 7996 7995 ] final   75.83 input   59.86 | X-H torsion
[ 10167 10162 10161 10158 ] final  -41.51 input  -65.29 | X-H torsion
[ 10718 10713 10712 10709 ] final   -4.48 input   66.30 | X-H torsion
[ 10763 10752 10751 10750 ] final  -76.35 input  -60.55 | X-H torsion
[ 11005 11000 10999 10996 ] final  -64.48 input  -57.11 | X-H torsion

> <Gold.Protein.ActiveResidues>
 VAL166  LYS551  ARG553  GLY616  TRP617  ASP618  TYR619  PRO620  LYS621  CYS622 
 ASP623  PHE694  ASN695  SER759  ASP760  ASP761  ALA762  ILE779  LEU786  VAL792 
 PHE793  MET794  SER795  GLU796  ALA797  LYS798  CYS799  TRP800  GLU811  SER814 

> <Gold.Protein.RotatedAtoms>
  150.8086  133.8463  159.3192 H   0  0  0  0  0  0  0  0  0  0  0  0  # atno 6907 bound_to 6896
  151.6255  135.1026  160.0120 H   0  0  0  0  0  0  0  0  0  0  0  0  # atno 6908 bound_to 6896
  152.4178  133.7026  159.6489 H   0  0  0  0  0  0  0  0  0  0  0  0  # atno 6909 bound_to 6896
  145.3071  140.9391  143.2790 H   0  0  0  0  0  0  0  0  0  0  0  0  # atno 7974 bound_to 7965
  155.8186  140.3470  155.5500 H   0  0  0  0  0  0  0  0  0  0  0  0  # atno 8008 bound_to 7997
  155.8366  140.0935  157.1780 H   0  0  0  0  0  0  0  0  0  0  0  0  # atno 8009 bound_to 7997
  154.4004  140.1402  156.3665 H   0  0  0  0  0  0  0  0  0  0  0  0  # atno 8010 bound_to 7997
  140.7000  143.3090  151.3077 H   0  0  0  0  0  0  0  0  0  0  0  0  # atno 10167 bound_to 10162
  156.7607  130.5269  149.5785 H   0  0  0  0  0  0  0  0  0  0  0  0  # atno 10718 bound_to 10713
  154.4986  135.5801  153.6514 H   0  0  0  0  0  0  0  0  0  0  0  0  # atno 10763 bound_to 10752
  152.9874  135.6130  154.3032 H   0  0  0  0  0  0  0  0  0  0  0  0  # atno 10764 bound_to 10752
  154.2937  135.2848  155.2622 H   0  0  0  0  0  0  0  0  0  0  0  0  # atno 10765 bound_to 10752
  141.1426  133.6666  156.5840 H   0  0  0  0  0  0  0  0  0  0  0  0  # atno 11005 bound_to 11000
  144.9046  139.4606  143.6616 LP  0  0  0  0  0  0  0  0  0  0  0  0  # atno 17320 bound_to 7965
  146.3131  139.7819  142.9004 LP  0  0  0  0  0  0  0  0  0  0  0  0  # atno 17321 bound_to 7965
  139.6506  144.0369  152.2624 LP  0  0  0  0  0  0  0  0  0  0  0  0  # atno 17342 bound_to 10162
  139.9904  144.6366  150.7820 LP  0  0  0  0  0  0  0  0  0  0  0  0  # atno 17343 bound_to 10162
  156.1341  130.6198  151.0375 LP  0  0  0  0  0  0  0  0  0  0  0  0  # atno 17370 bound_to 10713
  157.6736  131.0856  150.7552 LP  0  0  0  0  0  0  0  0  0  0  0  0  # atno 17371 bound_to 10713
  140.3815  134.7519  157.4664 LP  0  0  0  0  0  0  0  0  0  0  0  0  # atno 17394 bound_to 11000
  140.0634  134.5964  155.8723 LP  0  0  0  0  0  0  0  0  0  0  0  0  # atno 17395 bound_to 11000

$$$$
