AV-unprocessed.smi:244|AV-procd|sdf|1874|dock1
  -GOLD-   2262020513D 1   1.00000     0.00000
 Structure written by MMmdl.
 56 60  0  0  0  0  0  0  0  0  1 V2000
  150.6961  137.2614  154.3564 C   0  0  0  0  0  0  0  0  0  0  0  0
  151.8346  137.2135  155.2670 N   0  0  0  0  0  0  0  0  0  0  0  0
  152.6320  138.4417  155.2532 C   0  0  0  0  0  0  0  0  0  0  0  0
  151.9054  139.6279  155.9185 C   0  0  0  0  0  0  0  0  0  0  0  0
  151.4543  139.2907  157.3466 C   0  0  2  0  0  0  0  0  0  0  0  0
  152.5950  139.1915  158.1964 O   0  0  0  0  0  0  0  0  0  0  0  0
  152.2319  138.9539  159.5519 C   0  0  0  0  0  0  0  0  0  0  0  0
  151.4821  137.6170  159.6609 C   0  0  0  0  0  0  0  0  0  0  0  0
  150.3433  137.5999  158.7426 N   0  0  0  0  0  0  0  0  0  0  0  0
  149.4139  136.6198  158.8980 C   0  0  0  0  0  0  0  0  0  0  0  0
  149.0611  135.8513  157.8324 N   0  0  0  0  0  0  0  0  0  0  0  0
  148.1342  134.8980  157.9615 C   0  0  0  0  0  0  0  0  0  0  0  0
  147.4464  134.5454  159.0484 N   0  0  0  0  0  0  0  0  0  0  0  0
  147.8036  135.3008  160.1257 C   0  0  0  0  0  0  0  0  0  0  0  0
  148.7670  136.3498  160.1386 C   0  0  0  0  0  0  0  0  0  0  0  0
  148.8636  136.8820  161.4195 N   0  0  0  0  0  0  0  0  0  0  0  0
  147.9992  136.1988  162.1177 C   0  0  0  0  0  0  0  0  0  0  0  0
  147.3258  135.2208  161.4222 N   0  0  0  0  0  0  0  0  0  0  0  0
  146.3211  134.3113  161.9518 C   0  0  0  0  0  0  0  0  0  0  0  0
  144.8665  134.8242  161.8056 C   0  0  0  0  0  0  0  0  0  0  0  0
  144.5485  134.8370  160.4249 O   0  0  0  0  0  0  0  0  0  0  0  0
  143.8410  133.9260  162.5318 C   0  0  0  0  0  0  0  0  0  0  0  0
  142.4367  134.5553  162.5583 C   0  0  0  0  0  0  0  0  0  0  0  0
  142.4922  135.8554  163.1325 O   0  0  0  0  0  0  0  0  0  0  0  0
  143.2925  136.7564  162.3768 C   0  0  0  0  0  0  0  0  0  0  0  0
  144.7501  136.2640  162.3452 C   0  0  0  0  0  0  0  0  0  0  0  0
  150.6692  137.9619  157.3612 C   0  0  2  0  0  0  0  0  0  0  0  0
  151.4549  136.8418  156.6305 C   0  0  0  0  0  0  0  0  0  0  0  0
  151.0341  137.4649  153.3400 H   0  0  0  0  0  0  0  0  0  0  0  0
  149.9730  138.0286  154.6310 H   0  0  0  0  0  0  0  0  0  0  0  0
  150.1802  136.3009  154.3466 H   0  0  0  0  0  0  0  0  0  0  0  0
  153.5663  138.2486  155.7818 H   0  0  0  0  0  0  0  0  0  0  0  0
  152.9054  138.6906  154.2273 H   0  0  0  0  0  0  0  0  0  0  0  0
  152.5590  140.5004  155.9343 H   0  0  0  0  0  0  0  0  0  0  0  0
  151.0398  139.9147  155.3213 H   0  0  0  0  0  0  0  0  0  0  0  0
  150.8195  140.1007  157.7105 H   0  0  0  0  0  0  0  0  0  0  0  0
  153.1340  138.9300  160.1631 H   0  0  0  0  0  0  0  0  0  0  0  0
  151.6175  139.7750  159.9245 H   0  0  0  0  0  0  0  0  0  0  0  0
  152.1560  136.7904  159.4323 H   0  0  0  0  0  0  0  0  0  0  0  0
  151.1396  137.4780  160.6871 H   0  0  0  0  0  0  0  0  0  0  0  0
  147.9106  134.3388  157.0651 H   0  0  0  0  0  0  0  0  0  0  0  0
  147.8353  136.3833  163.1695 H   0  0  0  0  0  0  0  0  0  0  0  0
  146.4325  133.3559  161.4379 H   0  0  0  0  0  0  0  0  0  0  0  0
  146.5515  134.1186  163.0005 H   0  0  0  0  0  0  0  0  0  0  0  0
  145.2677  135.2286  159.9536 H   0  0  0  0  0  0  0  0  0  0  0  0
  143.7881  132.9404  162.0678 H   0  0  0  0  0  0  0  0  0  0  0  0
  144.1691  133.7646  163.5595 H   0  0  0  0  0  0  0  0  0  0  0  0
  142.0106  134.6062  161.5551 H   0  0  0  0  0  0  0  0  0  0  0  0
  141.7641  133.9377  163.1540 H   0  0  0  0  0  0  0  0  0  0  0  0
  142.8897  136.8626  161.3682 H   0  0  0  0  0  0  0  0  0  0  0  0
  143.2435  137.7420  162.8401 H   0  0  0  0  0  0  0  0  0  0  0  0
  145.1466  136.3017  163.3608 H   0  0  0  0  0  0  0  0  0  0  0  0
  145.3629  136.9455  161.7538 H   0  0  0  0  0  0  0  0  0  0  0  0
  149.7433  138.1389  156.8187 H   0  0  0  0  0  0  0  0  0  0  0  0
  150.8719  135.9204  156.6014 H   0  0  0  0  0  0  0  0  0  0  0  0
  152.3687  136.6088  157.1777 H   0  0  0  0  0  0  0  0  0  0  0  0
  1  2  1  0  0  0  0
  1 29  1  0  0  0  0
  1 30  1  0  0  0  0
  1 31  1  0  0  0  0
  2 28  1  0  0  0  0
  2  3  1  0  0  0  0
  3  4  1  0  0  0  0
  3 32  1  0  0  0  0
  3 33  1  0  0  0  0
  4  5  1  0  0  0  0
  4 34  1  0  0  0  0
  4 35  1  0  0  0  0
  5 27  1  0  0  0  0
  5  6  1  0  0  0  0
  5 36  1  0  0  0  0
  6  7  1  0  0  0  0
  7  8  1  0  0  0  0
  7 37  1  0  0  0  0
  7 38  1  0  0  0  0
  8  9  1  0  0  0  0
  8 39  1  0  0  0  0
  8 40  1  0  0  0  0
  9 10  1  0  0  0  0
  9 27  1  0  0  0  0
 10 15  1  0  0  0  0
 10 11  2  0  0  0  0
 11 12  1  0  0  0  0
 12 13  2  0  0  0  0
 12 41  1  0  0  0  0
 13 14  1  0  0  0  0
 14 18  1  0  0  0  0
 14 15  2  0  0  0  0
 15 16  1  0  0  0  0
 16 17  2  0  0  0  0
 17 18  1  0  0  0  0
 17 42  1  0  0  0  0
 18 19  1  0  0  0  0
 19 20  1  0  0  0  0
 19 43  1  0  0  0  0
 19 44  1  0  0  0  0
 20 26  1  0  0  0  0
 20 21  1  0  0  0  0
 20 22  1  0  0  0  0
 21 45  1  0  0  0  0
 22 23  1  0  0  0  0
 22 46  1  0  0  0  0
 22 47  1  0  0  0  0
 23 24  1  0  0  0  0
 23 48  1  0  0  0  0
 23 49  1  0  0  0  0
 24 25  1  0  0  0  0
 25 26  1  0  0  0  0
 25 50  1  0  0  0  0
 25 51  1  0  0  0  0
 26 52  1  0  0  0  0
 26 53  1  0  0  0  0
 27 28  1  0  0  0  0
 27 54  1  0  0  0  0
 28 55  1  0  0  0  0
 28 56  1  0  0  0  0
M  END
> <s_m_source_file>
AV-unprocessed.smi

> <i_m_source_file_index>
244

> <i_lp_mmshare_version>
43012

> <i_f3d_flags>
0

> <s_epik_input>
W0NIMl0xW0NIMl1OKFtDSDNdKVtDSDJdW0NAQEhdKFtDQEhdMTIpTihbQ0gyXVtDSDJdTzIpYyhuW2NIXW4zKWMoYzM0KW5bY0hdbjRbQ0gyXUM1KFtPSF0pW0NIMl1bQ0gyXU9bQ0gyXVtDSDJdNQ==

> <s_epik_cmdline>
J2VwaWtfcHl0aG9uJywgJy1waCcsICc3LjAnLCAnLXRuJywgJzgnLCAnLW1hJywgJzIwMCcsICctbWV0YWxfYmluZGluZycsICctaW1hZScsICc8aW5maWxlLm1hZT4nLCAnLW9tYWUnLCAnPG91dGZpbGUubWFlPic=

> <r_lp_tautomer_probability>
1

> <r_epik_Ionization_Penalty>
2.27765

> <r_epik_Ionization_Penalty_Charging>
0

> <r_epik_Ionization_Penalty_Neutral>
2.27765

> <r_epik_State_Penalty>
2.4114

> <r_epik_Charging_Adjusted_Penalty>
2.4114

> <i_epik_Tot_Q>
0

> <i_epik_Tot_abs_Q>
0

> <r_epik_Metal_State_Penalty>
2.39769

> <b_epik_Metal_Only>
0

> <s_lp_Force_Field>
OPLS_2005

> <r_lp_Energy>
43.9701

> <b_lp_Chiralities_Consistent>
1

> <s_lp_Variant>
AV-unprocessed.smi:244-11

> <Gold.Version>
5.8.1

> <Gold.Id.Protein>
6NUR|6NUR_protein|mol2

> <Gold.PLP.Fitness>
42.4235

> <Gold.PLP.PLP>
-37.8565

> <Gold.PLP.part.hbond>
-1.6565

> <Gold.PLP.part.metal>
0.0000

> <Gold.PLP.part.buried>
-4.0299

> <Gold.PLP.part.nonpolar>
-33.0908

> <Gold.PLP.part.repulsive>
0.1670

> <Gold.PLP.ligand.clash>
0.0000

> <Gold.PLP.ligand.torsion>
0.6424

> <Gold.PLP.Chemscore.Hbond>
1.8045

> <Gold.PLP.Chemscore.CHOScore>
0.0000

> <Gold.PLP.Chemscore.Metal>
0.0000

> <Gold.Chemscore.Hbonds>
donor molecule, donor type, donor heavy atom, donor atom, acceptor molecule, acceptor atom, score
      P1  H  6931  6943       L1    16  0.80
      P1  H 10752 10765       L1     2  0.93

> <Gold.PLP.Chemscore.Internal.Correction>
0.4383

> <Gold.Rescore>
     Score         DG    S(hbond)    S(metal)    S(lipo)     H(rot)  DE(clash)    DE(int)     intcor
     11.74     -13.75       1.03        0.00      86.39       2.06       0.07       1.94       ----

> <Gold.Chemscore.Fitness>
11.7367

> <Gold.Chemscore.DG>
-13.7461

> <Gold.Chemscore.ZeroCoef>
-5.4800

> <Gold.Chemscore.Hbond>
1.0284

> <Gold.Chemscore.Metal>
0.0000

> <Gold.Chemscore.Lipo>
86.3920

> <Gold.Chemscore.Internal_Hbond>
0.0000

> <Gold.Chemscore.DEClash>
0.0710

> <Gold.Chemscore.DEInternal>
1.9383

> <Gold.Chemscore.Rot>
2.0611

> <Gold.Chemscore.Internal.Correction>
   9.000000E+99

> <Gold.Chemscore.Hbonds>
donor molecule, donor type, donor heavy atom, donor atom, acceptor molecule, acceptor atom, score
      P1  H  6931  6943       L1    16  0.69
      P1  H 10752 10765       L1     2  0.13

> <Gold.Chemscore.Hbond.Weighted>
-3.4347

> <Gold.Chemscore.Metal.Weighted>
-0.0000

> <Gold.Chemscore.Lipo.Weighted>
-10.1079

> <Gold.Chemscore.Internal_Hbond.Weighted>
0.0000

> <Gold.Chemscore.DEClash.Weighted>
0.0710

> <Gold.Chemscore.DEInternal.Weighted>
1.9383

> <Gold.Chemscore.Rot.Weighted>
5.2765

> <Gold.Chemscore.Internal.Correction.Weighted>
   9.000000E+99

> <Gold.Protein.RotatedTorsions>
[ 6907 6896 6895 6894 ] final  165.69 input  -60.11 | X-H torsion
[ 7974 7965 7964 7962 ] final  179.00 input  175.53 | X-H torsion
[ 8008 7997 7996 7995 ] final   58.32 input   59.86 | X-H torsion
[ 10167 10162 10161 10158 ] final  -81.53 input  -65.29 | X-H torsion
[ 10718 10713 10712 10709 ] final  -65.97 input   66.30 | X-H torsion
[ 10763 10752 10751 10750 ] final -177.55 input  -60.55 | X-H torsion
[ 11005 11000 10999 10996 ] final  -40.71 input  -57.11 | X-H torsion

> <Gold.Protein.ActiveResidues>
 VAL166  LYS551  ARG553  GLY616  TRP617  ASP618  TYR619  PRO620  LYS621  CYS622 
 ASP623  PHE694  ASN695  SER759  ASP760  ASP761  ALA762  ILE779  LEU786  VAL792 
 PHE793  MET794  SER795  GLU796  ALA797  LYS798  CYS799  TRP800  GLU811  SER814 

> <Gold.Protein.RotatedAtoms>
  151.8905  133.3515  159.3796 H   0  0  0  0  0  0  0  0  0  0  0  0  # atno 6907 bound_to 6896
  150.7104  134.4928  159.5533 H   0  0  0  0  0  0  0  0  0  0  0  0  # atno 6908 bound_to 6896
  152.2498  134.8145  160.0498 H   0  0  0  0  0  0  0  0  0  0  0  0  # atno 6909 bound_to 6896
  144.7150  140.0482  143.6436 H   0  0  0  0  0  0  0  0  0  0  0  0  # atno 7974 bound_to 7965
  155.5481  140.3486  155.4462 H   0  0  0  0  0  0  0  0  0  0  0  0  # atno 8008 bound_to 7997
  156.0603  140.1338  156.9975 H   0  0  0  0  0  0  0  0  0  0  0  0  # atno 8009 bound_to 7997
  154.4476  140.0986  156.6492 H   0  0  0  0  0  0  0  0  0  0  0  0  # atno 8010 bound_to 7997
  140.4404  143.2517  151.8634 H   0  0  0  0  0  0  0  0  0  0  0  0  # atno 10167 bound_to 10162
  156.0639  130.4255  150.1641 H   0  0  0  0  0  0  0  0  0  0  0  0  # atno 10718 bound_to 10713
  154.5587  135.2818  155.0940 H   0  0  0  0  0  0  0  0  0  0  0  0  # atno 10763 bound_to 10752
  154.2358  135.6366  153.5194 H   0  0  0  0  0  0  0  0  0  0  0  0  # atno 10764 bound_to 10752
  153.0023  135.5548  154.6174 H   0  0  0  0  0  0  0  0  0  0  0  0  # atno 10765 bound_to 10752
  141.0194  133.6870  156.2358 H   0  0  0  0  0  0  0  0  0  0  0  0  # atno 11005 bound_to 11000
  145.9966  139.3057  143.0953 LP  0  0  0  0  0  0  0  0  0  0  0  0  # atno 17320 bound_to 7965
  145.8841  140.9344  143.0586 LP  0  0  0  0  0  0  0  0  0  0  0  0  # atno 17321 bound_to 7965
  139.4789  144.5235  151.8767 LP  0  0  0  0  0  0  0  0  0  0  0  0  # atno 17342 bound_to 10162
  140.4325  144.2096  150.5888 LP  0  0  0  0  0  0  0  0  0  0  0  0  # atno 17343 bound_to 10162
  156.9704  130.9833  151.3460 LP  0  0  0  0  0  0  0  0  0  0  0  0  # atno 17370 bound_to 10713
  157.5667  130.8282  149.8337 LP  0  0  0  0  0  0  0  0  0  0  0  0  # atno 17371 bound_to 10713
  140.6599  134.4979  157.5583 LP  0  0  0  0  0  0  0  0  0  0  0  0  # atno 17394 bound_to 11000
  139.9137  134.8291  156.1440 LP  0  0  0  0  0  0  0  0  0  0  0  0  # atno 17395 bound_to 11000

$$$$
