AV-unprocessed.smi:2504|AV-procd|sdf|9850|dock6
  -GOLD-   2272013483D 1   1.00000     0.00000
 Structure written by MMmdl.
 47 49  0  0  0  0  0  0  0  0  2 V2000
  150.6756  141.9168  159.2793 O   0  0  0  0  0  0  0  0  0  0  0  0
  151.7786  141.4213  159.5130 C   0  0  0  0  0  0  0  0  0  0  0  0
  152.9832  142.3128  159.8806 C   0  0  0  0  0  0  0  0  0  0  0  0
  153.6649  141.8778  161.1891 C   0  0  0  0  0  0  0  0  0  0  0  0
  153.0263  142.7002  162.3195 C   0  0  0  0  0  0  0  0  0  0  0  0
  152.2008  143.8066  161.6485 C   0  0  0  0  0  0  0  0  0  0  0  0
  152.5657  143.7636  160.1618 C   0  0  0  0  0  0  0  0  0  0  0  0
  152.0031  140.0484  159.3739 N   0  0  0  0  0  0  0  0  0  0  0  0
  151.1595  139.2334  158.5126 C   0  0  0  0  0  0  0  0  0  0  0  0
  152.3918  138.3376  158.3440 C   0  0  0  0  0  0  0  0  0  0  0  0
  152.6804  137.8396  156.5886 S   0  0  0  0  0  0  0  0  0  0  0  0
  153.3990  138.9297  155.9111 O   0  0  0  0  0  0  0  0  0  0  0  0
  153.2117  136.4693  156.5346 O   0  0  0  0  0  0  0  0  0  0  0  0
  151.0754  137.7929  155.9548 N   0  0  0  0  0  0  0  0  0  0  0  0
  150.6829  138.7717  154.9377 C   0  0  0  0  0  0  0  0  0  0  0  0
  149.3296  138.4078  154.3028 C   0  0  0  0  0  0  0  0  0  0  0  0
  148.3614  139.5748  154.2399 C   0  0  0  0  0  0  0  0  0  0  0  0
  148.7570  140.8582  154.6777 C   0  0  0  0  0  0  0  0  0  0  0  0
  147.8325  141.9219  154.6266 C   0  0  0  0  0  0  0  0  0  0  0  0
  146.5323  141.6781  154.1395 C   0  0  0  0  0  0  0  0  0  0  0  0
  146.1899  140.4376  153.7278 N   0  3  0  0  0  0  0  0  0  0  0  0
  147.0468  139.3935  153.7580 C   0  0  0  0  0  0  0  0  0  0  0  0
  153.2430  139.5211  158.8237 C   0  0  0  0  0  0  0  0  0  0  0  0
  153.7097  142.2752  159.0678 H   0  0  0  0  0  0  0  0  0  0  0  0
  153.5864  140.8055  161.3748 H   0  0  0  0  0  0  0  0  0  0  0  0
  154.7295  142.1076  161.1317 H   0  0  0  0  0  0  0  0  0  0  0  0
  152.3848  142.0751  162.9417 H   0  0  0  0  0  0  0  0  0  0  0  0
  153.7962  143.1204  162.9674 H   0  0  0  0  0  0  0  0  0  0  0  0
  151.1382  143.5932  161.7715 H   0  0  0  0  0  0  0  0  0  0  0  0
  152.3878  144.7872  162.0870 H   0  0  0  0  0  0  0  0  0  0  0  0
  153.4124  144.4247  159.9719 H   0  0  0  0  0  0  0  0  0  0  0  0
  151.7427  144.1074  159.5339 H   0  0  0  0  0  0  0  0  0  0  0  0
  150.3219  138.7631  159.0283 H   0  0  0  0  0  0  0  0  0  0  0  0
  150.8577  139.7405  157.5935 H   0  0  0  0  0  0  0  0  0  0  0  0
  152.3919  137.4786  159.0170 H   0  0  0  0  0  0  0  0  0  0  0  0
  150.8184  136.8464  155.6738 H   0  0  0  0  0  0  0  0  0  0  0  0
  150.6509  139.7714  155.3732 H   0  0  0  0  0  0  0  0  0  0  0  0
  151.4550  138.7915  154.1682 H   0  0  0  0  0  0  0  0  0  0  0  0
  149.4930  138.0393  153.2894 H   0  0  0  0  0  0  0  0  0  0  0  0
  148.8687  137.5851  154.8514 H   0  0  0  0  0  0  0  0  0  0  0  0
  149.7556  141.0255  155.0548 H   0  0  0  0  0  0  0  0  0  0  0  0
  148.1160  142.9095  154.9598 H   0  0  0  0  0  0  0  0  0  0  0  0
  145.7614  142.4316  154.0683 H   0  0  0  0  0  0  0  0  0  0  0  0
  146.6536  138.4495  153.4100 H   0  0  0  0  0  0  0  0  0  0  0  0
  153.6570  140.1345  158.0228 H   0  0  0  0  0  0  0  0  0  0  0  0
  153.9864  139.2631  159.5783 H   0  0  0  0  0  0  0  0  0  0  0  0
  145.2432  140.2828  153.3804 H   0  0  0  0  0  0  0  0  0  0  0  0
  1  2  2  0  0  0  0
  2  3  1  0  0  0  0
  2  8  1  0  0  0  0
  3  7  1  0  0  0  0
  3  4  1  0  0  0  0
  3 24  1  0  0  0  0
  4  5  1  0  0  0  0
  4 25  1  0  0  0  0
  4 26  1  0  0  0  0
  5  6  1  0  0  0  0
  5 27  1  0  0  0  0
  5 28  1  0  0  0  0
  6  7  1  0  0  0  0
  6 29  1  0  0  0  0
  6 30  1  0  0  0  0
  7 31  1  0  0  0  0
  7 32  1  0  0  0  0
  8 23  1  0  0  0  0
  8  9  1  0  0  0  0
  9 10  1  0  0  0  0
  9 33  1  0  0  0  0
  9 34  1  0  0  0  0
 10 11  1  0  0  0  0
 10 23  1  0  0  0  0
 10 35  1  0  0  0  0
 11 12  2  0  0  0  0
 11 13  2  0  0  0  0
 11 14  1  0  0  0  0
 14 15  1  0  0  0  0
 14 36  1  0  0  0  0
 15 16  1  0  0  0  0
 15 37  1  0  0  0  0
 15 38  1  0  0  0  0
 16 17  1  0  0  0  0
 16 39  1  0  0  0  0
 16 40  1  0  0  0  0
 17 22  1  0  0  0  0
 17 18  2  0  0  0  0
 18 19  1  0  0  0  0
 18 41  1  0  0  0  0
 19 20  2  0  0  0  0
 19 42  1  0  0  0  0
 20 21  1  0  0  0  0
 20 43  1  0  0  0  0
 21 22  2  0  0  0  0
 21 47  1  0  0  0  0
 22 44  1  0  0  0  0
 23 45  1  0  0  0  0
 23 46  1  0  0  0  0
M  CHG  1  21   1
M  END
> <s_m_source_file>
AV-unprocessed.smi

> <i_m_source_file_index>
2504

> <i_lp_mmshare_version>
43012

> <i_f3d_flags>
0

> <s_epik_input>
W0NIMl0xW0NIMl1bQ0gyXVtDSDJdW0NIXTFDKD1PKU4yW0NIMl1bQ0hdKFtDSDJdMilTKD1PKSg9TylbTkhdW0NIMl1bQ0gyXWMzW2NIXVtjSF1bY0hdbltjSF0z

> <s_epik_cmdline>
J2VwaWtfcHl0aG9uJywgJy1waCcsICc3LjAnLCAnLXRuJywgJzgnLCAnLW1hJywgJzIwMCcsICctbWV0YWxfYmluZGluZycsICctaW1hZScsICc8aW5maWxlLm1hZT4nLCAnLW9tYWUnLCAnPG91dGZpbGUubWFlPic=

> <r_epik_Ionization_Penalty>
2.38216

> <r_epik_Ionization_Penalty_Charging>
2.38209

> <r_epik_Ionization_Penalty_Neutral>
6.7549e-05

> <r_epik_State_Penalty>
2.53866

> <r_epik_Charging_Adjusted_Penalty>
4.92075

> <i_epik_Tot_Q>
1

> <i_epik_Tot_abs_Q>
1

> <r_epik_Metal_State_Penalty>
2.64273

> <b_epik_Metal_Only>
0

> <s_lp_Force_Field>
OPLS_2005

> <r_lp_Energy>
40.9078

> <b_lp_Chiralities_Consistent>
1

> <s_lp_Variant>
AV-unprocessed.smi:2504-2

> <Gold.Version>
5.8.1

> <Gold.Id.Protein>
6NUR|6NUR_protein|mol2

> <Gold.PLP.Fitness>
60.1317

> <Gold.PLP.PLP>
-49.7603

> <Gold.PLP.part.hbond>
-3.6812

> <Gold.PLP.part.metal>
0.0000

> <Gold.PLP.part.buried>
-2.9113

> <Gold.PLP.part.nonpolar>
-43.6442

> <Gold.PLP.part.repulsive>
0.0249

> <Gold.PLP.ligand.clash>
0.0000

> <Gold.PLP.ligand.torsion>
1.6437

> <Gold.PLP.Chemscore.Hbond>
4.0000

> <Gold.PLP.Chemscore.CHOScore>
0.0000

> <Gold.PLP.Chemscore.Metal>
0.0000

> <Gold.Chemscore.Hbonds>
donor molecule, donor type, donor heavy atom, donor atom, acceptor molecule, acceptor atom, score
      L1  H    21    47       P1 10175  2.00
      P1  H  7997  8008       L1    12  1.00
      P1  H 10752 10765       L1    13  1.00

> <Gold.PLP.Chemscore.Internal.Correction>
1.6588

> <Gold.Rescore>
     Score         DG    S(hbond)    S(metal)    S(lipo)     H(rot)  DE(clash)    DE(int)     intcor
     22.89     -24.57       2.91        0.00     123.23       1.97       0.08       1.60       ----

> <Gold.Chemscore.Fitness>
22.8871

> <Gold.Chemscore.DG>
-24.5698

> <Gold.Chemscore.ZeroCoef>
-5.4800

> <Gold.Chemscore.Hbond>
2.9124

> <Gold.Chemscore.Metal>
0.0000

> <Gold.Chemscore.Lipo>
123.2319

> <Gold.Chemscore.Internal_Hbond>
0.0000

> <Gold.Chemscore.DEClash>
0.0836

> <Gold.Chemscore.DEInternal>
1.5991

> <Gold.Chemscore.Rot>
1.9749

> <Gold.Chemscore.Internal.Correction>
   9.000000E+99

> <Gold.Chemscore.Hbonds>
donor molecule, donor type, donor heavy atom, donor atom, acceptor molecule, acceptor atom, score
      L1  H    21    47       P1 10175  1.00
      P1  H  7997  8008       L1    12  0.92
      P1  H 10752 10765       L1    13  0.95

> <Gold.Chemscore.Hbond.Weighted>
-9.7273

> <Gold.Chemscore.Metal.Weighted>
-0.0000

> <Gold.Chemscore.Lipo.Weighted>
-14.4181

> <Gold.Chemscore.Internal_Hbond.Weighted>
0.0000

> <Gold.Chemscore.DEClash.Weighted>
0.0836

> <Gold.Chemscore.DEInternal.Weighted>
1.5991

> <Gold.Chemscore.Rot.Weighted>
5.0556

> <Gold.Chemscore.Internal.Correction.Weighted>
   9.000000E+99

> <Gold.Protein.RotatedTorsions>
[ 6907 6896 6895 6894 ] final  141.88 input  -60.11 | X-H torsion
[ 7974 7965 7964 7962 ] final -166.09 input  175.53 | X-H torsion
[ 8008 7997 7996 7995 ] final  -34.86 input   59.86 | X-H torsion
[ 10167 10162 10161 10158 ] final -167.09 input  -65.29 | X-H torsion
[ 10718 10713 10712 10709 ] final    9.91 input   66.30 | X-H torsion
[ 10763 10752 10751 10750 ] final -125.93 input  -60.55 | X-H torsion
[ 11005 11000 10999 10996 ] final -146.38 input  -57.11 | X-H torsion

> <Gold.Protein.ActiveResidues>
 VAL166  LYS551  ARG553  GLY616  TRP617  ASP618  TYR619  PRO620  LYS621  CYS622 
 ASP623  PHE694  ASN695  SER759  ASP760  ASP761  ALA762  ILE779  LEU786  VAL792 
 PHE793  MET794  SER795  GLU796  ALA797  LYS798  CYS799  TRP800  GLU811  SER814 

> <Gold.Protein.RotatedAtoms>
  152.2255  133.5017  159.5186 H   0  0  0  0  0  0  0  0  0  0  0  0  # atno 6907 bound_to 6896
  150.7024  134.1285  159.4070 H   0  0  0  0  0  0  0  0  0  0  0  0  # atno 6908 bound_to 6896
  151.9206  135.0299  160.0572 H   0  0  0  0  0  0  0  0  0  0  0  0  # atno 6909 bound_to 6896
  144.7253  140.2717  143.6249 H   0  0  0  0  0  0  0  0  0  0  0  0  # atno 7974 bound_to 7965
  154.4110  140.1672  156.2119 H   0  0  0  0  0  0  0  0  0  0  0  0  # atno 8008 bound_to 7997
  155.9437  140.3406  155.6326 H   0  0  0  0  0  0  0  0  0  0  0  0  # atno 8009 bound_to 7997
  155.6957  140.0739  157.2421 H   0  0  0  0  0  0  0  0  0  0  0  0  # atno 8010 bound_to 7997
  139.6072  144.0888  152.1805 H   0  0  0  0  0  0  0  0  0  0  0  0  # atno 10167 bound_to 10162
  156.9733  130.5977  149.5670 H   0  0  0  0  0  0  0  0  0  0  0  0  # atno 10718 bound_to 10713
  154.8741  135.4013  154.3348 H   0  0  0  0  0  0  0  0  0  0  0  0  # atno 10763 bound_to 10752
  153.4156  135.7022  153.6334 H   0  0  0  0  0  0  0  0  0  0  0  0  # atno 10764 bound_to 10752
  153.5018  135.3726  155.2514 H   0  0  0  0  0  0  0  0  0  0  0  0  # atno 10765 bound_to 10752
  140.7826  134.3061  157.5040 H   0  0  0  0  0  0  0  0  0  0  0  0  # atno 11005 bound_to 11000
  145.8036  139.1974  143.2034 LP  0  0  0  0  0  0  0  0  0  0  0  0  # atno 17320 bound_to 7965
  146.0655  140.7925  142.9713 LP  0  0  0  0  0  0  0  0  0  0  0  0  # atno 17321 bound_to 7965
  140.0499  144.5941  150.7345 LP  0  0  0  0  0  0  0  0  0  0  0  0  # atno 17342 bound_to 10162
  140.7293  143.2671  151.4008 LP  0  0  0  0  0  0  0  0  0  0  0  0  # atno 17343 bound_to 10162
  156.0274  130.5367  150.8443 LP  0  0  0  0  0  0  0  0  0  0  0  0  # atno 17370 bound_to 10713
  157.5577  131.0945  150.9604 LP  0  0  0  0  0  0  0  0  0  0  0  0  # atno 17371 bound_to 10713
  139.8740  134.9327  156.3562 LP  0  0  0  0  0  0  0  0  0  0  0  0  # atno 17394 bound_to 11000
  140.9468  133.7478  156.0218 LP  0  0  0  0  0  0  0  0  0  0  0  0  # atno 17395 bound_to 11000

$$$$
