AV-unprocessed.smi:326|AV-procd|sdf|2344|dock3
  -GOLD-   2262022253D 1   1.00000     0.00000
 Structure written by MMmdl.
 44 45  0  0  0  0  0  0  0  0  1 V2000
  156.2061  139.4207  164.9553 C   0  0  0  0  0  0  0  0  0  0  0  0
  155.6248  138.4070  164.1549 O   0  0  0  0  0  0  0  0  0  0  0  0
  155.0486  137.3667  164.9266 C   0  0  0  0  0  0  0  0  0  0  0  0
  154.0417  136.5794  164.0724 C   0  0  0  0  0  0  0  0  0  0  0  0
  154.3370  136.6957  162.6397 N   0  0  0  0  0  0  0  0  0  0  0  0
  154.1845  137.9782  162.1388 N   0  0  0  0  0  0  0  0  0  0  0  0
  154.4292  138.2235  160.8921 C   0  0  0  0  0  0  0  0  0  0  0  0
  154.2789  139.5885  160.3162 C   0  0  0  0  0  0  0  0  0  0  0  0
  154.6038  139.8440  159.1554 O   0  0  0  0  0  0  0  0  0  0  0  0
  153.7684  140.5120  161.1507 N   0  0  0  0  0  0  0  0  0  0  0  0
  153.5218  141.9112  160.8166 C   0  0  2  0  0  0  0  0  0  0  0  0
  152.7630  142.6212  161.9559 C   0  0  0  0  0  0  0  0  0  0  0  0
  152.4329  144.0769  161.5880 C   0  0  0  0  0  0  0  0  0  0  0  0
  151.6395  144.1657  160.2703 C   0  0  1  0  0  0  0  0  0  0  0  0
  151.3212  145.6221  159.9033 C   0  0  0  0  0  0  0  0  0  0  0  0
  152.4009  143.4527  159.1362 C   0  0  0  0  0  0  0  0  0  0  0  0
  152.7254  141.9955  159.5020 C   0  0  0  0  0  0  0  0  0  0  0  0
  154.8647  137.1650  159.9971 C   0  0  0  0  0  0  0  0  0  0  0  0
  155.0101  135.9195  160.4998 C   0  0  0  0  0  0  0  0  0  0  0  0
  154.7427  135.6150  161.9064 C   0  0  0  0  0  0  0  0  0  0  0  0
  154.8735  134.4892  162.3858 O   0  0  0  0  0  0  0  0  0  0  0  0
  156.6395  140.1887  164.3148 H   0  0  0  0  0  0  0  0  0  0  0  0
  157.0009  139.0195  165.5854 H   0  0  0  0  0  0  0  0  0  0  0  0
  155.4590  139.8958  165.5924 H   0  0  0  0  0  0  0  0  0  0  0  0
  155.8364  136.6952  165.2705 H   0  0  0  0  0  0  0  0  0  0  0  0
  154.5598  137.7730  165.8137 H   0  0  0  0  0  0  0  0  0  0  0  0
  154.0069  135.5371  164.3942 H   0  0  0  0  0  0  0  0  0  0  0  0
  153.0392  136.9681  164.2582 H   0  0  0  0  0  0  0  0  0  0  0  0
  153.5290  140.2188  162.0872 H   0  0  0  0  0  0  0  0  0  0  0  0
  154.4805  142.4110  160.6641 H   0  0  0  0  0  0  0  0  0  0  0  0
  151.8390  142.0846  162.1760 H   0  0  0  0  0  0  0  0  0  0  0  0
  153.3543  142.6042  162.8722 H   0  0  0  0  0  0  0  0  0  0  0  0
  151.8651  144.5368  162.3977 H   0  0  0  0  0  0  0  0  0  0  0  0
  153.3593  144.6463  161.5001 H   0  0  0  0  0  0  0  0  0  0  0  0
  150.6896  143.6486  160.4148 H   0  0  0  0  0  0  0  0  0  0  0  0
  152.2323  146.1969  159.7333 H   0  0  0  0  0  0  0  0  0  0  0  0
  150.7605  146.1143  160.6984 H   0  0  0  0  0  0  0  0  0  0  0  0
  150.7197  145.6758  158.9953 H   0  0  0  0  0  0  0  0  0  0  0  0
  151.8119  143.4754  158.2185 H   0  0  0  0  0  0  0  0  0  0  0  0
  153.3277  143.9866  158.9206 H   0  0  0  0  0  0  0  0  0  0  0  0
  153.2899  141.5318  158.6920 H   0  0  0  0  0  0  0  0  0  0  0  0
  151.7960  141.4312  159.5937 H   0  0  0  0  0  0  0  0  0  0  0  0
  155.0700  137.3608  158.9546 H   0  0  0  0  0  0  0  0  0  0  0  0
  155.3339  135.1233  159.8461 H   0  0  0  0  0  0  0  0  0  0  0  0
  1  2  1  0  0  0  0
  1 22  1  0  0  0  0
  1 23  1  0  0  0  0
  1 24  1  0  0  0  0
  2  3  1  0  0  0  0
  3  4  1  0  0  0  0
  3 25  1  0  0  0  0
  3 26  1  0  0  0  0
  4  5  1  0  0  0  0
  4 27  1  0  0  0  0
  4 28  1  0  0  0  0
  5 20  1  0  0  0  0
  5  6  1  0  0  0  0
  6  7  2  0  0  0  0
  7  8  1  0  0  0  0
  7 18  1  0  0  0  0
  8  9  2  0  0  0  0
  8 10  1  0  0  0  0
 10 11  1  0  0  0  0
 10 29  1  0  0  0  0
 11 17  1  0  0  0  0
 11 12  1  0  0  0  0
 11 30  1  0  0  0  0
 12 13  1  0  0  0  0
 12 31  1  0  0  0  0
 12 32  1  0  0  0  0
 13 14  1  0  0  0  0
 13 33  1  0  0  0  0
 13 34  1  0  0  0  0
 14 15  1  0  0  0  0
 14 16  1  0  0  0  0
 14 35  1  0  0  0  0
 15 36  1  0  0  0  0
 15 37  1  0  0  0  0
 15 38  1  0  0  0  0
 16 17  1  0  0  0  0
 16 39  1  0  0  0  0
 16 40  1  0  0  0  0
 17 41  1  0  0  0  0
 17 42  1  0  0  0  0
 18 19  2  0  0  0  0
 18 43  1  0  0  0  0
 19 20  1  0  0  0  0
 19 44  1  0  0  0  0
 20 21  2  0  0  0  0
M  END
> <s_m_source_file>
AV-unprocessed.smi

> <i_m_source_file_index>
326

> <i_lp_mmshare_version>
43012

> <i_f3d_flags>
0

> <s_epik_input>
W0NIM11PW0NIMl1bQ0gyXW4xbmMoW2NIXVtjSF1jMT1PKUMoPU8pW05IXVtDQEBIXTJbQ0gyXVtDSDJdW0NAQEhdKFtDSDNdKVtDSDJdW0NIMl0y

> <s_epik_cmdline>
J2VwaWtfcHl0aG9uJywgJy1waCcsICc3LjAnLCAnLXRuJywgJzgnLCAnLW1hJywgJzIwMCcsICctbWV0YWxfYmluZGluZycsICctaW1hZScsICc8aW5maWxlLm1hZT4nLCAnLW9tYWUnLCAnPG91dGZpbGUubWFlPic=

> <r_lp_tautomer_probability>
1

> <r_epik_Ionization_Penalty>
6.47102e-07

> <r_epik_Ionization_Penalty_Charging>
6.8576e-09

> <r_epik_Ionization_Penalty_Neutral>
6.40245e-07

> <r_epik_State_Penalty>
-0

> <r_epik_Charging_Adjusted_Penalty>
6.8576e-09

> <i_epik_Tot_Q>
0

> <i_epik_Tot_abs_Q>
0

> <r_epik_Metal_State_Penalty>
-0

> <b_epik_Metal_Only>
0

> <s_lp_Force_Field>
OPLS_2005

> <r_lp_Energy>
29.5472

> <b_lp_Chiralities_Consistent>
1

> <s_lp_Variant>
AV-unprocessed.smi:326-1

> <Gold.Version>
5.8.1

> <Gold.Id.Protein>
6NUR|6NUR_protein|mol2

> <Gold.PLP.Fitness>
49.1348

> <Gold.PLP.PLP>
-47.0102

> <Gold.PLP.part.hbond>
-1.0000

> <Gold.PLP.part.metal>
0.0000

> <Gold.PLP.part.buried>
-5.0710

> <Gold.PLP.part.nonpolar>
-40.3890

> <Gold.PLP.part.repulsive>
0.0591

> <Gold.PLP.ligand.clash>
0.0000

> <Gold.PLP.ligand.torsion>
0.4529

> <Gold.PLP.Chemscore.Hbond>
1.0000

> <Gold.PLP.Chemscore.CHOScore>
0.0000

> <Gold.PLP.Chemscore.Metal>
0.0000

> <Gold.Chemscore.Hbonds>
donor molecule, donor type, donor heavy atom, donor atom, acceptor molecule, acceptor atom, score
      P1  H  7997  8010       L1     9  1.00

> <Gold.PLP.Chemscore.Internal.Correction>
0.0304

> <Gold.Rescore>
     Score         DG    S(hbond)    S(metal)    S(lipo)     H(rot)  DE(clash)    DE(int)     intcor
     15.28     -18.48       1.00        0.00     116.51       1.55       0.01       3.19       ----

> <Gold.Chemscore.Fitness>
15.2783

> <Gold.Chemscore.DG>
-18.4850

> <Gold.Chemscore.ZeroCoef>
-5.4800

> <Gold.Chemscore.Hbond>
0.9986

> <Gold.Chemscore.Metal>
0.0000

> <Gold.Chemscore.Lipo>
116.5119

> <Gold.Chemscore.Internal_Hbond>
0.0000

> <Gold.Chemscore.DEClash>
0.0149

> <Gold.Chemscore.DEInternal>
3.1918

> <Gold.Chemscore.Rot>
1.5478

> <Gold.Chemscore.Internal.Correction>
   9.000000E+99

> <Gold.Chemscore.Hbonds>
donor molecule, donor type, donor heavy atom, donor atom, acceptor molecule, acceptor atom, score
      P1  H  7997  8010       L1     9  0.98

> <Gold.Chemscore.Hbond.Weighted>
-3.3353

> <Gold.Chemscore.Metal.Weighted>
-0.0000

> <Gold.Chemscore.Lipo.Weighted>
-13.6319

> <Gold.Chemscore.Internal_Hbond.Weighted>
0.0000

> <Gold.Chemscore.DEClash.Weighted>
0.0149

> <Gold.Chemscore.DEInternal.Weighted>
3.1918

> <Gold.Chemscore.Rot.Weighted>
3.9623

> <Gold.Chemscore.Internal.Correction.Weighted>
   9.000000E+99

> <Gold.Protein.RotatedTorsions>
[ 6907 6896 6895 6894 ] final -149.19 input  -60.11 | X-H torsion
[ 7974 7965 7964 7962 ] final   11.56 input  175.53 | X-H torsion
[ 8008 7997 7996 7995 ] final    8.09 input   59.86 | X-H torsion
[ 10167 10162 10161 10158 ] final   60.64 input  -65.29 | X-H torsion
[ 10718 10713 10712 10709 ] final   50.83 input   66.30 | X-H torsion
[ 10763 10752 10751 10750 ] final  142.03 input  -60.55 | X-H torsion
[ 11005 11000 10999 10996 ] final -126.77 input  -57.11 | X-H torsion

> <Gold.Protein.ActiveResidues>
 VAL166  LYS551  ARG553  GLY616  TRP617  ASP618  TYR619  PRO620  LYS621  CYS622 
 ASP623  PHE694  ASN695  SER759  ASP760  ASP761  ALA762  ILE779  LEU786  VAL792 
 PHE793  MET794  SER795  GLU796  ALA797  LYS798  CYS799  TRP800  GLU811  SER814 

> <Gold.Protein.RotatedAtoms>
  151.1806  133.4727  159.2593 H   0  0  0  0  0  0  0  0  0  0  0  0  # atno 6907 bound_to 6896
  151.1263  135.0106  159.8572 H   0  0  0  0  0  0  0  0  0  0  0  0  # atno 6908 bound_to 6896
  152.5458  134.1713  159.8651 H   0  0  0  0  0  0  0  0  0  0  0  0  # atno 6909 bound_to 6896
  146.2368  139.9467  142.8476 H   0  0  0  0  0  0  0  0  0  0  0  0  # atno 7974 bound_to 7965
  154.7622  140.2787  155.6204 H   0  0  0  0  0  0  0  0  0  0  0  0  # atno 8008 bound_to 7997
  156.2918  140.2657  156.2331 H   0  0  0  0  0  0  0  0  0  0  0  0  # atno 8009 bound_to 7997
  155.0003  140.0373  157.2347 H   0  0  0  0  0  0  0  0  0  0  0  0  # atno 8010 bound_to 7997
  140.1634  144.4348  150.6697 H   0  0  0  0  0  0  0  0  0  0  0  0  # atno 10167 bound_to 10162
  157.4922  130.8383  149.8216 H   0  0  0  0  0  0  0  0  0  0  0  0  # atno 10718 bound_to 10713
  153.9490  135.2972  155.3439 H   0  0  0  0  0  0  0  0  0  0  0  0  # atno 10763 bound_to 10752
  154.7436  135.5013  153.9169 H   0  0  0  0  0  0  0  0  0  0  0  0  # atno 10764 bound_to 10752
  153.1003  135.6732  153.9793 H   0  0  0  0  0  0  0  0  0  0  0  0  # atno 10765 bound_to 10752
  140.9654  134.0879  157.3925 H   0  0  0  0  0  0  0  0  0  0  0  0  # atno 11005 bound_to 11000
  145.1900  140.9807  143.4216 LP  0  0  0  0  0  0  0  0  0  0  0  0  # atno 17320 bound_to 7965
  144.9865  139.3731  143.6236 LP  0  0  0  0  0  0  0  0  0  0  0  0  # atno 17321 bound_to 7965
  140.6628  143.2258  151.5814 LP  0  0  0  0  0  0  0  0  0  0  0  0  # atno 17342 bound_to 10162
  139.5370  144.2752  152.1273 LP  0  0  0  0  0  0  0  0  0  0  0  0  # atno 17343 bound_to 10162
  156.0180  130.3806  150.2050 LP  0  0  0  0  0  0  0  0  0  0  0  0  # atno 17370 bound_to 10713
  157.0239  130.9987  151.3332 LP  0  0  0  0  0  0  0  0  0  0  0  0  # atno 17371 bound_to 10713
  139.8893  135.0104  156.6669 LP  0  0  0  0  0  0  0  0  0  0  0  0  # atno 17394 bound_to 11000
  140.7407  133.8980  155.8276 LP  0  0  0  0  0  0  0  0  0  0  0  0  # atno 17395 bound_to 11000

$$$$
