AV-unprocessed.smi:2608|AV-procd|sdf|10204|dock7
  -GOLD-   2272014213D 1   1.00000     0.00000
 Structure written by MMmdl.
 40 41  0  0  0  0  0  0  0  0  1 V2000
  152.0701  144.6080  159.0409 C   0  0  0  0  0  0  0  0  0  0  0  0
  151.9580  143.1435  159.4913 C   0  0  0  0  0  0  0  0  0  0  0  0
  153.0505  142.8172  160.5259 C   0  0  0  0  0  0  0  0  0  0  0  0
  151.9726  142.1979  158.2681 C   0  0  0  0  0  0  0  0  0  0  0  0
  150.6539  142.1772  157.4885 C   0  0  0  0  0  0  0  0  0  0  0  0
  149.6802  142.7938  157.9201 O   0  0  0  0  0  0  0  0  0  0  0  0
  150.6622  141.4563  156.3530 N   0  0  0  0  0  0  0  0  0  0  0  0
  149.6092  141.2633  155.4144 C   0  0  0  0  0  0  0  0  0  0  0  0
  148.7175  142.2950  155.0331 C   0  0  0  0  0  0  0  0  0  0  0  0
  147.6902  142.0083  154.1155 C   0  0  0  0  0  0  0  0  0  0  0  0
  147.5834  140.6971  153.6182 C   0  0  0  0  0  0  0  0  0  0  0  0
  148.4141  139.6992  153.9829 N   0  0  0  0  0  0  0  0  0  0  0  0
  149.4051  139.9713  154.8659 C   0  0  0  0  0  0  0  0  0  0  0  0
  150.2552  138.9126  155.2274 N   0  0  0  0  0  0  0  0  0  0  0  0
  149.7177  137.5927  154.9237 C   0  0  0  0  0  0  0  0  0  0  0  0
  150.6478  136.5069  155.4915 C   0  0  0  0  0  0  0  0  0  0  0  0
  151.9639  136.6891  154.9766 O   0  0  0  0  0  0  0  0  0  0  0  0
  152.5107  137.9549  155.3374 C   0  0  0  0  0  0  0  0  0  0  0  0
  151.6284  139.0797  154.7690 C   0  0  0  0  0  0  0  0  0  0  0  0
  153.0171  144.7948  158.5336 H   0  0  0  0  0  0  0  0  0  0  0  0
  152.0077  145.2877  159.8913 H   0  0  0  0  0  0  0  0  0  0  0  0
  151.2663  144.8716  158.3529 H   0  0  0  0  0  0  0  0  0  0  0  0
  150.9926  143.0367  159.9885 H   0  0  0  0  0  0  0  0  0  0  0  0
  154.0433  142.8490  160.0762 H   0  0  0  0  0  0  0  0  0  0  0  0
  152.9129  141.8285  160.9629 H   0  0  0  0  0  0  0  0  0  0  0  0
  153.0367  143.5325  161.3487 H   0  0  0  0  0  0  0  0  0  0  0  0
  152.7739  142.4899  157.5872 H   0  0  0  0  0  0  0  0  0  0  0  0
  152.2075  141.1809  158.5851 H   0  0  0  0  0  0  0  0  0  0  0  0
  151.5564  141.0743  156.0803 H   0  0  0  0  0  0  0  0  0  0  0  0
  148.7921  143.2926  155.4375 H   0  0  0  0  0  0  0  0  0  0  0  0
  146.9969  142.7754  153.8046 H   0  0  0  0  0  0  0  0  0  0  0  0
  146.8060  140.4402  152.9141 H   0  0  0  0  0  0  0  0  0  0  0  0
  148.7188  137.4925  155.3500 H   0  0  0  0  0  0  0  0  0  0  0  0
  149.6234  137.4712  153.8437 H   0  0  0  0  0  0  0  0  0  0  0  0
  150.6650  136.5408  156.5823 H   0  0  0  0  0  0  0  0  0  0  0  0
  150.2884  135.5173  155.2087 H   0  0  0  0  0  0  0  0  0  0  0  0
  152.5887  138.0326  156.4230 H   0  0  0  0  0  0  0  0  0  0  0  0
  153.5223  138.0321  154.9389 H   0  0  0  0  0  0  0  0  0  0  0  0
  151.6589  139.0581  153.6786 H   0  0  0  0  0  0  0  0  0  0  0  0
  152.0089  140.0519  155.0849 H   0  0  0  0  0  0  0  0  0  0  0  0
  1  2  1  0  0  0  0
  1 20  1  0  0  0  0
  1 21  1  0  0  0  0
  1 22  1  0  0  0  0
  2  3  1  0  0  0  0
  2  4  1  0  0  0  0
  2 23  1  0  0  0  0
  3 24  1  0  0  0  0
  3 25  1  0  0  0  0
  3 26  1  0  0  0  0
  4  5  1  0  0  0  0
  4 27  1  0  0  0  0
  4 28  1  0  0  0  0
  5  6  2  0  0  0  0
  5  7  1  0  0  0  0
  7  8  1  0  0  0  0
  7 29  1  0  0  0  0
  8 13  1  0  0  0  0
  8  9  2  0  0  0  0
  9 10  1  0  0  0  0
  9 30  1  0  0  0  0
 10 11  2  0  0  0  0
 10 31  1  0  0  0  0
 11 12  1  0  0  0  0
 11 32  1  0  0  0  0
 12 13  2  0  0  0  0
 13 14  1  0  0  0  0
 14 19  1  0  0  0  0
 14 15  1  0  0  0  0
 15 16  1  0  0  0  0
 15 33  1  0  0  0  0
 15 34  1  0  0  0  0
 16 17  1  0  0  0  0
 16 35  1  0  0  0  0
 16 36  1  0  0  0  0
 17 18  1  0  0  0  0
 18 19  1  0  0  0  0
 18 37  1  0  0  0  0
 18 38  1  0  0  0  0
 19 39  1  0  0  0  0
 19 40  1  0  0  0  0
M  END
> <s_m_source_file>
AV-unprocessed.smi

> <i_m_source_file_index>
2608

> <i_lp_mmshare_version>
43012

> <i_f3d_flags>
0

> <s_epik_input>
W0NIM11bQ0hdKFtDSDNdKVtDSDJdQyg9TylbTkhdYzFbY0hdW2NIXVtjSF1uYzFOMltDSDJdW0NIMl1PW0NIMl1bQ0gyXTI=

> <s_epik_cmdline>
J2VwaWtfcHl0aG9uJywgJy1waCcsICc3LjAnLCAnLXRuJywgJzgnLCAnLW1hJywgJzIwMCcsICctbWV0YWxfYmluZGluZycsICctaW1hZScsICc8aW5maWxlLm1hZT4nLCAnLW9tYWUnLCAnPG91dGZpbGUubWFlPic=

> <r_lp_tautomer_probability>
1

> <r_epik_Ionization_Penalty>
0.0006373

> <r_epik_Ionization_Penalty_Charging>
0

> <r_epik_Ionization_Penalty_Neutral>
0.0006373

> <r_epik_State_Penalty>
0.000394234

> <r_epik_Charging_Adjusted_Penalty>
0.000394234

> <i_epik_Tot_Q>
0

> <i_epik_Tot_abs_Q>
0

> <r_epik_Metal_State_Penalty>
-0

> <b_epik_Metal_Only>
0

> <s_lp_Force_Field>
OPLS_2005

> <r_lp_Energy>
24.3939

> <b_lp_Chiralities_Consistent>
1

> <s_lp_Variant>
AV-unprocessed.smi:2608-1

> <Gold.Version>
5.8.1

> <Gold.Id.Protein>
6NUR|6NUR_protein|mol2

> <Gold.PLP.Fitness>
36.0471

> <Gold.PLP.PLP>
-34.4570

> <Gold.PLP.part.hbond>
-0.8551

> <Gold.PLP.part.metal>
0.0000

> <Gold.PLP.part.buried>
-0.4776

> <Gold.PLP.part.nonpolar>
-35.2627

> <Gold.PLP.part.repulsive>
1.5976

> <Gold.PLP.ligand.clash>
0.0000

> <Gold.PLP.ligand.torsion>
0.7731

> <Gold.PLP.Chemscore.Hbond>
1.0000

> <Gold.PLP.Chemscore.CHOScore>
0.0000

> <Gold.PLP.Chemscore.Metal>
0.0000

> <Gold.Chemscore.Hbonds>
donor molecule, donor type, donor heavy atom, donor atom, acceptor molecule, acceptor atom, score
      P1  H 10752 10764       L1    17  0.94

> <Gold.PLP.Chemscore.Internal.Correction>
0.1363

> <Gold.Rescore>
     Score         DG    S(hbond)    S(metal)    S(lipo)     H(rot)  DE(clash)    DE(int)     intcor
     12.59     -16.78       0.88        0.00     100.21       1.31       1.83       2.36       ----

> <Gold.Chemscore.Fitness>
12.5938

> <Gold.Chemscore.DG>
-16.7824

> <Gold.Chemscore.ZeroCoef>
-5.4800

> <Gold.Chemscore.Hbond>
0.8794

> <Gold.Chemscore.Metal>
0.0000

> <Gold.Chemscore.Lipo>
100.2087

> <Gold.Chemscore.Internal_Hbond>
0.0000

> <Gold.Chemscore.DEClash>
1.8317

> <Gold.Chemscore.DEInternal>
2.3568

> <Gold.Chemscore.Rot>
1.3122

> <Gold.Chemscore.Internal.Correction>
   9.000000E+99

> <Gold.Chemscore.Hbonds>
donor molecule, donor type, donor heavy atom, donor atom, acceptor molecule, acceptor atom, score
      P1  H 10752 10764       L1    17  0.84

> <Gold.Chemscore.Hbond.Weighted>
-2.9372

> <Gold.Chemscore.Metal.Weighted>
-0.0000

> <Gold.Chemscore.Lipo.Weighted>
-11.7244

> <Gold.Chemscore.Internal_Hbond.Weighted>
0.0000

> <Gold.Chemscore.DEClash.Weighted>
1.8317

> <Gold.Chemscore.DEInternal.Weighted>
2.3568

> <Gold.Chemscore.Rot.Weighted>
3.3592

> <Gold.Chemscore.Internal.Correction.Weighted>
   9.000000E+99

> <Gold.Protein.RotatedTorsions>
[ 6907 6896 6895 6894 ] final -150.43 input  -60.11 | X-H torsion
[ 7974 7965 7964 7962 ] final -110.17 input  175.53 | X-H torsion
[ 8008 7997 7996 7995 ] final  102.39 input   59.86 | X-H torsion
[ 10167 10162 10161 10158 ] final   -8.40 input  -65.29 | X-H torsion
[ 10718 10713 10712 10709 ] final   23.90 input   66.30 | X-H torsion
[ 10763 10752 10751 10750 ] final  -61.08 input  -60.55 | X-H torsion
[ 11005 11000 10999 10996 ] final -118.74 input  -57.11 | X-H torsion

> <Gold.Protein.ActiveResidues>
 VAL166  LYS551  ARG553  GLY616  TRP617  ASP618  TYR619  PRO620  LYS621  CYS622 
 ASP623  PHE694  ASN695  SER759  ASP760  ASP761  ALA762  ILE779  LEU786  VAL792 
 PHE793  MET794  SER795  GLU796  ALA797  LYS798  CYS799  TRP800  GLU811  SER814 

> <Gold.Protein.RotatedAtoms>
  151.1984  133.4625  159.2595 H   0  0  0  0  0  0  0  0  0  0  0  0  # atno 6907 bound_to 6896
  151.1094  135.0018  159.8497 H   0  0  0  0  0  0  0  0  0  0  0  0  # atno 6908 bound_to 6896
  152.5449  134.1904  159.8725 H   0  0  0  0  0  0  0  0  0  0  0  0  # atno 6909 bound_to 6896
  145.1716  140.8928  143.3532 H   0  0  0  0  0  0  0  0  0  0  0  0  # atno 7974 bound_to 7965
  156.1388  140.3182  155.8463 H   0  0  0  0  0  0  0  0  0  0  0  0  # atno 8008 bound_to 7997
  155.4193  140.0511  157.3044 H   0  0  0  0  0  0  0  0  0  0  0  0  # atno 8009 bound_to 7997
  154.4959  140.2110  155.9461 H   0  0  0  0  0  0  0  0  0  0  0  0  # atno 8010 bound_to 7997
  140.7058  143.5973  150.8833 H   0  0  0  0  0  0  0  0  0  0  0  0  # atno 10167 bound_to 10162
  157.1724  130.6766  149.6083 H   0  0  0  0  0  0  0  0  0  0  0  0  # atno 10718 bound_to 10713
  154.2791  135.6275  153.5340 H   0  0  0  0  0  0  0  0  0  0  0  0  # atno 10763 bound_to 10752
  152.9868  135.5628  154.5515 H   0  0  0  0  0  0  0  0  0  0  0  0  # atno 10764 bound_to 10752
  154.5102  135.2876  155.1325 H   0  0  0  0  0  0  0  0  0  0  0  0  # atno 10765 bound_to 10752
  141.0264  134.0047  157.3207 H   0  0  0  0  0  0  0  0  0  0  0  0  # atno 11005 bound_to 11000
  145.0227  139.3410  143.6064 LP  0  0  0  0  0  0  0  0  0  0  0  0  # atno 17320 bound_to 7965
  146.3467  139.9534  142.8726 LP  0  0  0  0  0  0  0  0  0  0  0  0  # atno 17321 bound_to 7965
  139.9698  143.6070  152.2977 LP  0  0  0  0  0  0  0  0  0  0  0  0  # atno 17342 bound_to 10162
  139.6652  144.7662  151.1886 LP  0  0  0  0  0  0  0  0  0  0  0  0  # atno 17343 bound_to 10162
  155.9736  130.4674  150.6324 LP  0  0  0  0  0  0  0  0  0  0  0  0  # atno 17370 bound_to 10713
  157.4030  131.0812  151.1291 LP  0  0  0  0  0  0  0  0  0  0  0  0  # atno 17371 bound_to 10713
  139.9179  135.0198  156.7952 LP  0  0  0  0  0  0  0  0  0  0  0  0  # atno 17394 bound_to 11000
  140.6483  133.9755  155.7742 LP  0  0  0  0  0  0  0  0  0  0  0  0  # atno 17395 bound_to 11000

$$$$
