AV-unprocessed.smi:106|AV-procd|sdf|1012|dock6
  -GOLD-   2262018 13D 1   1.00000     0.00000
 Structure written by MMmdl.
 51 54  0  0  0  0  0  0  0  0  1 V2000
  148.5359  139.2810  155.8831 O   0  0  0  0  0  0  0  0  0  0  0  0
  149.5724  139.0985  156.5252 C   0  0  0  0  0  0  0  0  0  0  0  0
  149.9715  137.6566  156.9105 C   0  0  0  0  0  0  0  0  0  0  0  0
  148.9032  136.9140  157.6163 N   0  0  0  0  0  0  0  0  0  0  0  0
  147.7006  136.6312  156.9223 C   0  0  0  0  0  0  0  0  0  0  0  0
  147.5380  136.9885  155.7546 O   0  0  0  0  0  0  0  0  0  0  0  0
  146.6894  135.9062  157.6832 C   0  0  0  0  0  0  0  0  0  0  0  0
  145.5231  135.5823  157.0996 F   0  0  0  0  0  0  0  0  0  0  0  0
  146.9060  135.5525  158.9667 C   0  0  0  0  0  0  0  0  0  0  0  0
  148.0780  135.8513  159.6383 N   0  0  0  0  0  0  0  0  0  0  0  0
  148.3006  135.4576  161.0833 C   0  0  1  0  0  0  0  0  0  0  0  0
  147.3108  136.1952  162.0044 C   0  0  0  0  0  0  0  0  0  0  0  0
  146.7124  135.0689  162.8234 C   0  0  0  0  0  0  0  0  0  0  0  0
  146.7992  133.8969  161.8574 C   0  0  0  0  0  0  0  0  0  0  0  0
  148.0678  134.0871  161.2445 O   0  0  0  0  0  0  0  0  0  0  0  0
  149.1096  136.5423  158.9665 C   0  0  0  0  0  0  0  0  0  0  0  0
  150.1602  136.8214  159.5486 O   0  0  0  0  0  0  0  0  0  0  0  0
  150.3749  140.1206  156.9106 N   0  0  0  0  0  0  0  0  0  0  0  0
  150.0960  141.5263  156.5754 C   0  0  0  0  0  0  0  0  0  0  0  0
  151.2362  142.4979  156.9509 C   0  0  0  0  0  0  0  0  0  0  0  0
  151.7229  142.3131  158.3287 N   0  0  0  0  0  0  0  0  0  0  0  0
  152.2877  143.3489  159.0004 C   0  0  0  0  0  0  0  0  0  0  0  0
  152.5086  144.4356  158.4623 O   0  0  0  0  0  0  0  0  0  0  0  0
  152.6465  143.1774  160.4307 C   0  0  0  0  0  0  0  0  0  0  0  0
  152.3305  143.8879  161.5639 C   0  0  0  0  0  0  0  0  0  0  0  0
  152.9497  143.3741  162.7412 C   0  0  0  0  0  0  0  0  0  0  0  0
  153.7534  142.2941  162.4916 C   0  0  0  0  0  0  0  0  0  0  0  0
  153.7766  141.8932  160.7966 S   0  0  0  0  0  0  0  0  0  0  0  0
  151.7034  140.9294  158.8301 C   0  0  0  0  0  0  0  0  0  0  0  0
  151.5939  139.8959  157.6970 C   0  0  0  0  0  0  0  0  0  0  0  0
  150.2756  137.1160  156.0130 H   0  0  0  0  0  0  0  0  0  0  0  0
  150.8743  137.6931  157.5212 H   0  0  0  0  0  0  0  0  0  0  0  0
  146.1181  135.0148  159.4712 H   0  0  0  0  0  0  0  0  0  0  0  0
  149.3503  135.6722  161.2911 H   0  0  0  0  0  0  0  0  0  0  0  0
  147.8230  136.9430  162.6104 H   0  0  0  0  0  0  0  0  0  0  0  0
  146.5375  136.6874  161.4123 H   0  0  0  0  0  0  0  0  0  0  0  0
  147.3281  134.8750  163.7028 H   0  0  0  0  0  0  0  0  0  0  0  0
  145.6944  135.2752  163.1546 H   0  0  0  0  0  0  0  0  0  0  0  0
  146.7361  132.9305  162.3578 H   0  0  0  0  0  0  0  0  0  0  0  0
  146.0065  133.9513  161.1101 H   0  0  0  0  0  0  0  0  0  0  0  0
  149.8961  141.6301  155.5085 H   0  0  0  0  0  0  0  0  0  0  0  0
  149.1898  141.8319  157.1007 H   0  0  0  0  0  0  0  0  0  0  0  0
  152.0778  142.3603  156.2703 H   0  0  0  0  0  0  0  0  0  0  0  0
  150.8755  143.5154  156.7902 H   0  0  0  0  0  0  0  0  0  0  0  0
  151.6864  144.7535  161.5947 H   0  0  0  0  0  0  0  0  0  0  0  0
  152.7926  143.8143  163.7149 H   0  0  0  0  0  0  0  0  0  0  0  0
  154.3398  141.7197  163.1936 H   0  0  0  0  0  0  0  0  0  0  0  0
  152.6090  140.7128  159.3986 H   0  0  0  0  0  0  0  0  0  0  0  0
  150.8577  140.8076  159.5073 H   0  0  0  0  0  0  0  0  0  0  0  0
  151.6238  138.9008  158.1430 H   0  0  0  0  0  0  0  0  0  0  0  0
  152.4604  139.9582  157.0371 H   0  0  0  0  0  0  0  0  0  0  0  0
  1  2  2  0  0  0  0
  2  3  1  0  0  0  0
  2 18  1  0  0  0  0
  3  4  1  0  0  0  0
  3 31  1  0  0  0  0
  3 32  1  0  0  0  0
  4 16  1  0  0  0  0
  4  5  1  0  0  0  0
  5  6  2  0  0  0  0
  5  7  1  0  0  0  0
  7  8  1  0  0  0  0
  7  9  2  0  0  0  0
  9 10  1  0  0  0  0
  9 33  1  0  0  0  0
 10 11  1  0  0  0  0
 10 16  1  0  0  0  0
 11 15  1  0  0  0  0
 11 12  1  0  0  0  0
 11 34  1  0  0  0  0
 12 13  1  0  0  0  0
 12 35  1  0  0  0  0
 12 36  1  0  0  0  0
 13 14  1  0  0  0  0
 13 37  1  0  0  0  0
 13 38  1  0  0  0  0
 14 15  1  0  0  0  0
 14 39  1  0  0  0  0
 14 40  1  0  0  0  0
 16 17  2  0  0  0  0
 18 30  1  0  0  0  0
 18 19  1  0  0  0  0
 19 20  1  0  0  0  0
 19 41  1  0  0  0  0
 19 42  1  0  0  0  0
 20 21  1  0  0  0  0
 20 43  1  0  0  0  0
 20 44  1  0  0  0  0
 21 22  1  0  0  0  0
 21 29  1  0  0  0  0
 22 23  2  0  0  0  0
 22 24  1  0  0  0  0
 24 28  1  0  0  0  0
 24 25  2  0  0  0  0
 25 26  1  0  0  0  0
 25 45  1  0  0  0  0
 26 27  2  0  0  0  0
 26 46  1  0  0  0  0
 27 28  1  0  0  0  0
 27 47  1  0  0  0  0
 29 30  1  0  0  0  0
 29 48  1  0  0  0  0
 29 49  1  0  0  0  0
 30 50  1  0  0  0  0
 30 51  1  0  0  0  0
M  END
> <s_m_source_file>
AV-unprocessed.smi

> <i_m_source_file_index>
106

> <i_lp_mmshare_version>
43012

> <i_f3d_flags>
0

> <s_epik_input>
czFbY0hdW2NIXVtjSF1jMUMoPU8pTihbQ0gyXVtDSDJdMilbQ0gyXVtDSDJdTjJDKD1PKVtDSDJdbjNjKD1PKWMoRilbY0hdbihjMz1PKVtDQEBIXTRbQ0gyXVtDSDJdW0NIMl1PNA==

> <s_epik_cmdline>
J2VwaWtfcHl0aG9uJywgJy1waCcsICc3LjAnLCAnLXRuJywgJzgnLCAnLW1hJywgJzIwMCcsICctbWV0YWxfYmluZGluZycsICctaW1hZScsICc8aW5maWxlLm1hZT4nLCAnLW9tYWUnLCAnPG91dGZpbGUubWFlPic=

> <r_lp_tautomer_probability>
1

> <r_epik_Ionization_Penalty>
4.82844e-09

> <r_epik_Ionization_Penalty_Charging>
4.20153e-09

> <r_epik_Ionization_Penalty_Neutral>
6.26919e-10

> <r_epik_State_Penalty>
-0

> <r_epik_Charging_Adjusted_Penalty>
4.20153e-09

> <i_epik_Tot_Q>
0

> <i_epik_Tot_abs_Q>
0

> <r_epik_Metal_State_Penalty>
-0

> <b_epik_Metal_Only>
0

> <s_epik_Chemistry_Notes>
This compound contains an acetal/aminal-like group ( X-CH(R)-Y where X, Y are N, S, or O) that may be acid/base labile, releasing an aldehyde.

> <s_lp_Force_Field>
OPLS_2005

> <r_lp_Energy>
72.1787

> <b_lp_Chiralities_Consistent>
1

> <s_lp_Variant>
AV-unprocessed.smi:106-2

> <Gold.Version>
5.8.1

> <Gold.Id.Protein>
6NUR|6NUR_protein|mol2

> <Gold.PLP.Fitness>
52.7866

> <Gold.PLP.PLP>
-51.6337

> <Gold.PLP.part.hbond>
-0.9441

> <Gold.PLP.part.metal>
0.0000

> <Gold.PLP.part.buried>
-6.1319

> <Gold.PLP.part.nonpolar>
-42.9842

> <Gold.PLP.part.repulsive>
0.0626

> <Gold.PLP.ligand.clash>
0.0000

> <Gold.PLP.ligand.torsion>
1.2265

> <Gold.PLP.Chemscore.Hbond>
0.9913

> <Gold.PLP.Chemscore.CHOScore>
0.0000

> <Gold.PLP.Chemscore.Metal>
0.0000

> <Gold.Chemscore.Hbonds>
donor molecule, donor type, donor heavy atom, donor atom, acceptor molecule, acceptor atom, score
      P1  H  6896  6909       L1    17  1.00

> <Gold.PLP.Chemscore.Internal.Correction>
0.6321

> <Gold.Rescore>
     Score         DG    S(hbond)    S(metal)    S(lipo)     H(rot)  DE(clash)    DE(int)     intcor
     12.30     -17.46       0.89        0.00     112.55       1.63       0.15       5.01       ----

> <Gold.Chemscore.Fitness>
12.2967

> <Gold.Chemscore.DG>
-17.4556

> <Gold.Chemscore.ZeroCoef>
-5.4800

> <Gold.Chemscore.Hbond>
0.8886

> <Gold.Chemscore.Metal>
0.0000

> <Gold.Chemscore.Lipo>
112.5476

> <Gold.Chemscore.Internal_Hbond>
0.0000

> <Gold.Chemscore.DEClash>
0.1452

> <Gold.Chemscore.DEInternal>
5.0137

> <Gold.Chemscore.Rot>
1.6252

> <Gold.Chemscore.Internal.Correction>
   9.000000E+99

> <Gold.Chemscore.Hbonds>
donor molecule, donor type, donor heavy atom, donor atom, acceptor molecule, acceptor atom, score
      P1  H  6896  6909       L1    17  0.38

> <Gold.Chemscore.Hbond.Weighted>
-2.9680

> <Gold.Chemscore.Metal.Weighted>
-0.0000

> <Gold.Chemscore.Lipo.Weighted>
-13.1681

> <Gold.Chemscore.Internal_Hbond.Weighted>
0.0000

> <Gold.Chemscore.DEClash.Weighted>
0.1452

> <Gold.Chemscore.DEInternal.Weighted>
5.0137

> <Gold.Chemscore.Rot.Weighted>
4.1605

> <Gold.Chemscore.Internal.Correction.Weighted>
   9.000000E+99

> <Gold.Protein.RotatedTorsions>
[ 6907 6896 6895 6894 ] final   85.63 input  -60.11 | X-H torsion
[ 7974 7965 7964 7962 ] final  -64.10 input  175.53 | X-H torsion
[ 8008 7997 7996 7995 ] final  -58.69 input   59.86 | X-H torsion
[ 10167 10162 10161 10158 ] final  -61.79 input  -65.29 | X-H torsion
[ 10718 10713 10712 10709 ] final  162.48 input   66.30 | X-H torsion
[ 10763 10752 10751 10750 ] final -145.11 input  -60.55 | X-H torsion
[ 11005 11000 10999 10996 ] final  -51.77 input  -57.11 | X-H torsion

> <Gold.Protein.ActiveResidues>
 VAL166  LYS551  ARG553  GLY616  TRP617  ASP618  TYR619  PRO620  LYS621  CYS622 
 ASP623  PHE694  ASN695  SER759  ASP760  ASP761  ALA762  ILE779  LEU786  VAL792 
 PHE793  MET794  SER795  GLU796  ALA797  LYS798  CYS799  TRP800  GLU811  SER814 

> <Gold.Protein.RotatedAtoms>
  152.5378  134.2556  159.8915 H   0  0  0  0  0  0  0  0  0  0  0  0  # atno 6907 bound_to 6896
  151.2518  133.4340  159.2619 H   0  0  0  0  0  0  0  0  0  0  0  0  # atno 6908 bound_to 6896
  151.0532  134.9701  159.8279 H   0  0  0  0  0  0  0  0  0  0  0  0  # atno 6909 bound_to 6896
  145.7709  140.8813  143.0381 H   0  0  0  0  0  0  0  0  0  0  0  0  # atno 7974 bound_to 7965
  154.4320  140.1078  156.5997 H   0  0  0  0  0  0  0  0  0  0  0  0  # atno 8008 bound_to 7997
  155.5924  140.3492  155.4551 H   0  0  0  0  0  0  0  0  0  0  0  0  # atno 8009 bound_to 7997
  156.0236  140.1245  157.0321 H   0  0  0  0  0  0  0  0  0  0  0  0  # atno 8010 bound_to 7997
  140.5982  143.2355  151.5987 H   0  0  0  0  0  0  0  0  0  0  0  0  # atno 10167 bound_to 10162
  157.1219  131.0494  151.2411 H   0  0  0  0  0  0  0  0  0  0  0  0  # atno 10718 bound_to 10713
  154.8398  135.3422  154.6452 H   0  0  0  0  0  0  0  0  0  0  0  0  # atno 10763 bound_to 10752
  153.7064  135.6966  153.5054 H   0  0  0  0  0  0  0  0  0  0  0  0  # atno 10764 bound_to 10752
  153.2484  135.4361  155.0726 H   0  0  0  0  0  0  0  0  0  0  0  0  # atno 10765 bound_to 10752
  141.0889  133.6637  156.3926 H   0  0  0  0  0  0  0  0  0  0  0  0  # atno 11005 bound_to 11000
  144.6813  139.9854  143.7484 LP  0  0  0  0  0  0  0  0  0  0  0  0  # atno 17320 bound_to 7965
  146.0171  139.3219  143.0835 LP  0  0  0  0  0  0  0  0  0  0  0  0  # atno 17321 bound_to 7965
  139.5273  144.3021  152.1064 LP  0  0  0  0  0  0  0  0  0  0  0  0  # atno 17342 bound_to 10162
  140.2197  144.4479  150.6347 LP  0  0  0  0  0  0  0  0  0  0  0  0  # atno 17343 bound_to 10162
  157.4469  130.7576  149.7117 LP  0  0  0  0  0  0  0  0  0  0  0  0  # atno 17370 bound_to 10713
  155.9826  130.4007  150.3405 LP  0  0  0  0  0  0  0  0  0  0  0  0  # atno 17371 bound_to 10713
  140.5299  134.6223  157.5346 LP  0  0  0  0  0  0  0  0  0  0  0  0  # atno 17394 bound_to 11000
  139.9711  134.7291  156.0039 LP  0  0  0  0  0  0  0  0  0  0  0  0  # atno 17395 bound_to 11000

$$$$
