AV-unprocessed.smi:3318|AV-procd|sdf|12765|dock3
  -GOLD-   2272019103D 1   1.00000     0.00000
 Structure written by MMmdl.
 44 45  0  0  0  0  0  0  0  0  2 V2000
  146.4859  132.6051  149.9502 C   0  0  0  0  0  0  0  0  0  0  0  0
  145.4065  132.0136  150.8636 C   0  0  0  0  0  0  0  0  0  0  0  0
  146.0041  131.2006  152.0249 C   0  0  0  0  0  0  0  0  0  0  0  0
  146.7348  129.9943  151.5593 N   0  3  2  0  0  0  0  0  0  0  0  0
  145.9654  129.1810  150.5804 C   0  0  0  0  0  0  0  0  0  0  0  0
  146.8097  128.0162  150.0361 C   0  0  0  0  0  0  0  0  0  0  0  0
  147.3346  127.1285  151.1813 C   0  0  1  0  0  0  0  0  0  0  0  0
  148.2423  126.1024  150.6832 N   0  0  0  0  0  0  0  0  0  0  0  0
  147.7068  125.4181  149.5151 C   0  0  0  0  0  0  0  0  0  0  0  0
  148.2485  126.0709  148.2362 C   0  0  0  0  0  0  0  0  0  0  0  0
  147.5292  125.5701  146.9981 C   0  0  0  0  0  0  0  0  0  0  0  0
  146.1518  125.2659  147.0380 C   0  0  0  0  0  0  0  0  0  0  0  0
  145.5290  124.8190  145.8566 C   0  0  0  0  0  0  0  0  0  0  0  0
  146.3031  124.6949  144.6868 C   0  0  0  0  0  0  0  0  0  0  0  0
  147.6717  125.0243  144.7510 C   0  0  0  0  0  0  0  0  0  0  0  0
  148.2786  125.4543  145.8783 N   0  0  0  0  0  0  0  0  0  0  0  0
  148.0976  128.0028  152.1892 C   0  0  0  0  0  0  0  0  0  0  0  0
  147.2219  129.1626  152.6899 C   0  0  0  0  0  0  0  0  0  0  0  0
  146.0363  133.1776  149.1386 H   0  0  0  0  0  0  0  0  0  0  0  0
  147.0981  131.8215  149.5034 H   0  0  0  0  0  0  0  0  0  0  0  0
  147.1467  133.2738  150.5025 H   0  0  0  0  0  0  0  0  0  0  0  0
  144.7903  132.8282  151.2425 H   0  0  0  0  0  0  0  0  0  0  0  0
  144.7488  131.3766  150.2713 H   0  0  0  0  0  0  0  0  0  0  0  0
  146.6961  131.8488  152.5642 H   0  0  0  0  0  0  0  0  0  0  0  0
  145.2299  130.9157  152.7390 H   0  0  0  0  0  0  0  0  0  0  0  0
  145.0614  128.7964  151.0554 H   0  0  0  0  0  0  0  0  0  0  0  0
  145.6420  129.7982  149.7433 H   0  0  0  0  0  0  0  0  0  0  0  0
  146.2034  127.4346  149.3416 H   0  0  0  0  0  0  0  0  0  0  0  0
  147.6457  128.4142  149.4585 H   0  0  0  0  0  0  0  0  0  0  0  0
  146.4986  126.6538  151.6979 H   0  0  0  0  0  0  0  0  0  0  0  0
  149.1456  126.5027  150.4721 H   0  0  0  0  0  0  0  0  0  0  0  0
  147.9911  124.3654  149.5440 H   0  0  0  0  0  0  0  0  0  0  0  0
  146.6179  125.4643  149.5157 H   0  0  0  0  0  0  0  0  0  0  0  0
  148.1413  127.1555  148.2915 H   0  0  0  0  0  0  0  0  0  0  0  0
  149.3166  125.8717  148.1358 H   0  0  0  0  0  0  0  0  0  0  0  0
  145.5832  125.3748  147.9500 H   0  0  0  0  0  0  0  0  0  0  0  0
  144.4765  124.5777  145.8476 H   0  0  0  0  0  0  0  0  0  0  0  0
  145.8589  124.3564  143.7626 H   0  0  0  0  0  0  0  0  0  0  0  0
  148.2953  124.9418  143.8732 H   0  0  0  0  0  0  0  0  0  0  0  0
  148.4246  127.3988  153.0368 H   0  0  0  0  0  0  0  0  0  0  0  0
  149.0015  128.4060  151.7292 H   0  0  0  0  0  0  0  0  0  0  0  0
  147.8056  129.7771  153.3762 H   0  0  0  0  0  0  0  0  0  0  0  0
  146.3709  128.7769  153.2539 H   0  0  0  0  0  0  0  0  0  0  0  0
  147.5600  130.3278  151.0817 H   0  0  0  0  0  0  0  0  0  0  0  0
  1  2  1  0  0  0  0
  1 19  1  0  0  0  0
  1 20  1  0  0  0  0
  1 21  1  0  0  0  0
  2  3  1  0  0  0  0
  2 22  1  0  0  0  0
  2 23  1  0  0  0  0
  3  4  1  0  0  0  0
  3 24  1  0  0  0  0
  3 25  1  0  0  0  0
  4 18  1  0  0  0  0
  4  5  1  0  0  0  0
  4 44  1  0  0  0  0
  5  6  1  0  0  0  0
  5 26  1  0  0  0  0
  5 27  1  0  0  0  0
  6  7  1  0  0  0  0
  6 28  1  0  0  0  0
  6 29  1  0  0  0  0
  7  8  1  0  0  0  0
  7 17  1  0  0  0  0
  7 30  1  0  0  0  0
  8  9  1  0  0  0  0
  8 31  1  0  0  0  0
  9 10  1  0  0  0  0
  9 32  1  0  0  0  0
  9 33  1  0  0  0  0
 10 11  1  0  0  0  0
 10 34  1  0  0  0  0
 10 35  1  0  0  0  0
 11 16  1  0  0  0  0
 11 12  2  0  0  0  0
 12 13  1  0  0  0  0
 12 36  1  0  0  0  0
 13 14  2  0  0  0  0
 13 37  1  0  0  0  0
 14 15  1  0  0  0  0
 14 38  1  0  0  0  0
 15 16  2  0  0  0  0
 15 39  1  0  0  0  0
 17 18  1  0  0  0  0
 17 40  1  0  0  0  0
 17 41  1  0  0  0  0
 18 42  1  0  0  0  0
 18 43  1  0  0  0  0
M  CHG  1   4   1
M  END
> <s_m_source_file>
AV-unprocessed.smi

> <i_m_source_file_index>
3318

> <i_lp_mmshare_version>
43012

> <i_f3d_flags>
0

> <s_epik_input>
W0NIM11bQ0gyXVtDSDJdTjFbQ0gyXVtDSDJdW0NIXShbQ0gyXVtDSDJdMSlbTkhdW0NIMl1bQ0gyXWMyW2NIXVtjSF1bY0hdW2NIXW4y

> <s_epik_cmdline>
J2VwaWtfcHl0aG9uJywgJy1waCcsICc3LjAnLCAnLXRuJywgJzgnLCAnLW1hJywgJzIwMCcsICctbWV0YWxfYmluZGluZycsICctaW1hZScsICc8aW5maWxlLm1hZT4nLCAnLW9tYWUnLCAnPG91dGZpbGUubWFlPic=

> <r_epik_Ionization_Penalty>
2.30703

> <r_epik_Ionization_Penalty_Charging>
0.000286176

> <r_epik_Ionization_Penalty_Neutral>
2.30674

> <r_epik_State_Penalty>
2.39905

> <r_epik_Charging_Adjusted_Penalty>
2.39933

> <i_epik_Tot_Q>
1

> <i_epik_Tot_abs_Q>
1

> <r_epik_Metal_State_Penalty>
2.30906

> <b_epik_Metal_Only>
0

> <s_lp_Force_Field>
OPLS_2005

> <r_lp_Energy>
18.8506

> <b_lp_Chiralities_Consistent>
1

> <s_lp_Variant>
AV-unprocessed.smi:3318-4

> <Gold.Version>
5.8.1

> <Gold.Id.Protein>
6NUR|6NUR_protein|mol2

> <Gold.PLP.Fitness>
46.8576

> <Gold.PLP.PLP>
-42.2664

> <Gold.PLP.part.hbond>
-2.0000

> <Gold.PLP.part.metal>
0.0000

> <Gold.PLP.part.buried>
-6.6266

> <Gold.PLP.part.nonpolar>
-34.4596

> <Gold.PLP.part.repulsive>
0.2317

> <Gold.PLP.ligand.clash>
0.0000

> <Gold.PLP.ligand.torsion>
0.7379

> <Gold.PLP.Chemscore.Hbond>
1.9920

> <Gold.PLP.Chemscore.CHOScore>
0.0000

> <Gold.PLP.Chemscore.Metal>
0.0000

> <Gold.Chemscore.Hbonds>
donor molecule, donor type, donor heavy atom, donor atom, acceptor molecule, acceptor atom, score
      L1  H     4    44       P1 10747  1.00

> <Gold.PLP.Chemscore.Internal.Correction>
0.0911

> <Gold.Rescore>
     Score         DG    S(hbond)    S(metal)    S(lipo)     H(rot)  DE(clash)    DE(int)     intcor
     21.24     -22.21       1.88        0.00     121.83       1.48       0.06       0.90       ----

> <Gold.Chemscore.Fitness>
21.2391

> <Gold.Chemscore.DG>
-22.2053

> <Gold.Chemscore.ZeroCoef>
-5.4800

> <Gold.Chemscore.Hbond>
1.8751

> <Gold.Chemscore.Metal>
0.0000

> <Gold.Chemscore.Lipo>
121.8296

> <Gold.Chemscore.Internal_Hbond>
0.0000

> <Gold.Chemscore.DEClash>
0.0624

> <Gold.Chemscore.DEInternal>
0.9038

> <Gold.Chemscore.Rot>
1.4811

> <Gold.Chemscore.Internal.Correction>
   9.000000E+99

> <Gold.Chemscore.Hbonds>
donor molecule, donor type, donor heavy atom, donor atom, acceptor molecule, acceptor atom, score
      L1  H     4    44       P1 10747  1.00

> <Gold.Chemscore.Hbond.Weighted>
-6.2630

> <Gold.Chemscore.Metal.Weighted>
-0.0000

> <Gold.Chemscore.Lipo.Weighted>
-14.2541

> <Gold.Chemscore.Internal_Hbond.Weighted>
0.0000

> <Gold.Chemscore.DEClash.Weighted>
0.0624

> <Gold.Chemscore.DEInternal.Weighted>
0.9038

> <Gold.Chemscore.Rot.Weighted>
3.7917

> <Gold.Chemscore.Internal.Correction.Weighted>
   9.000000E+99

> <Gold.Protein.RotatedTorsions>
[ 6907 6896 6895 6894 ] final -112.77 input  -60.11 | X-H torsion
[ 7974 7965 7964 7962 ] final  166.48 input  175.53 | X-H torsion
[ 8008 7997 7996 7995 ] final  167.17 input   59.86 | X-H torsion
[ 10167 10162 10161 10158 ] final -163.97 input  -65.29 | X-H torsion
[ 10718 10713 10712 10709 ] final   69.85 input   66.30 | X-H torsion
[ 10763 10752 10751 10750 ] final  174.35 input  -60.55 | X-H torsion
[ 11005 11000 10999 10996 ] final   80.23 input  -57.11 | X-H torsion

> <Gold.Protein.ActiveResidues>
 VAL166  LYS551  ARG553  GLY616  TRP617  ASP618  TYR619  PRO620  LYS621  CYS622 
 ASP623  PHE694  ASN695  SER759  ASP760  ASP761  ALA762  ILE779  LEU786  VAL792 
 PHE793  MET794  SER795  GLU796  ALA797  LYS798  CYS799  TRP800  GLU811  SER814 

> <Gold.Protein.RotatedAtoms>
  150.7782  133.9041  159.3349 H   0  0  0  0  0  0  0  0  0  0  0  0  # atno 6907 bound_to 6896
  151.6910  135.0944  160.0243 H   0  0  0  0  0  0  0  0  0  0  0  0  # atno 6908 bound_to 6896
  152.3825  133.6527  159.6208 H   0  0  0  0  0  0  0  0  0  0  0  0  # atno 6909 bound_to 6896
  144.7461  139.8621  143.6381 H   0  0  0  0  0  0  0  0  0  0  0  0  # atno 7974 bound_to 7965
  156.1656  140.1624  156.8537 H   0  0  0  0  0  0  0  0  0  0  0  0  # atno 8008 bound_to 7997
  154.5204  140.0779  156.8196 H   0  0  0  0  0  0  0  0  0  0  0  0  # atno 8009 bound_to 7997
  155.3618  140.3395  155.4243 H   0  0  0  0  0  0  0  0  0  0  0  0  # atno 8010 bound_to 7997
  139.6283  144.0488  152.1994 H   0  0  0  0  0  0  0  0  0  0  0  0  # atno 10167 bound_to 10162
  157.6368  130.9447  150.0569 H   0  0  0  0  0  0  0  0  0  0  0  0  # atno 10718 bound_to 10713
  154.4527  135.2765  155.1769 H   0  0  0  0  0  0  0  0  0  0  0  0  # atno 10763 bound_to 10752
  154.3589  135.6133  153.5684 H   0  0  0  0  0  0  0  0  0  0  0  0  # atno 10764 bound_to 10752
  152.9848  135.5829  154.4875 H   0  0  0  0  0  0  0  0  0  0  0  0  # atno 10765 bound_to 10752
  139.9142  134.7904  156.1882 H   0  0  0  0  0  0  0  0  0  0  0  0  # atno 11005 bound_to 11000
  146.1341  139.4382  143.0150 LP  0  0  0  0  0  0  0  0  0  0  0  0  # atno 17320 bound_to 7965
  145.7118  141.0103  143.1449 LP  0  0  0  0  0  0  0  0  0  0  0  0  # atno 17321 bound_to 7965
  140.0147  144.6197  150.7617 LP  0  0  0  0  0  0  0  0  0  0  0  0  # atno 17342 bound_to 10162
  140.7424  143.2832  151.3539 LP  0  0  0  0  0  0  0  0  0  0  0  0  # atno 17343 bound_to 10162
  156.1614  130.3644  149.9294 LP  0  0  0  0  0  0  0  0  0  0  0  0  # atno 17370 bound_to 10713
  156.7291  130.9036  151.3624 LP  0  0  0  0  0  0  0  0  0  0  0  0  # atno 17371 bound_to 10713
  141.0600  133.6846  156.1934 LP  0  0  0  0  0  0  0  0  0  0  0  0  # atno 17394 bound_to 11000
  140.6676  134.4902  157.5586 LP  0  0  0  0  0  0  0  0  0  0  0  0  # atno 17395 bound_to 11000

$$$$
