AV-unprocessed.smi:1254|AV-procd|sdf|5271|dock5
  -GOLD-   22720 4383D 1   1.00000     0.00000
 Structure written by MMmdl.
 46 47  0  0  0  0  0  0  0  0  2 V2000
  153.9369  141.8815  160.7964 C   0  0  0  0  0  0  0  0  0  0  0  0
  153.0979  142.4946  159.7284 C   0  0  0  0  0  0  0  0  0  0  0  0
  152.3506  141.9659  158.7135 C   0  0  0  0  0  0  0  0  0  0  0  0
  151.8182  143.1178  158.0755 C   0  0  0  0  0  0  0  0  0  0  0  0
  150.9722  142.9985  156.9436 N   0  0  0  0  0  0  0  0  0  0  0  0
  150.6663  141.8793  156.2658 C   0  0  0  0  0  0  0  0  0  0  0  0
  151.0998  140.7544  156.5176 O   0  0  0  0  0  0  0  0  0  0  0  0
  149.8101  142.1319  155.2656 N   0  0  0  0  0  0  0  0  0  0  0  0
  149.2729  141.1274  154.3540 C   0  0  0  0  0  0  0  0  0  0  0  0
  147.9818  140.4900  154.8986 C   0  0  2  0  0  0  0  0  0  0  0  0
  146.9433  140.2494  153.7837 C   0  0  0  0  0  0  0  0  0  0  0  0
  145.6831  139.6924  154.3338 N   0  3  1  0  0  0  0  0  0  0  0  0
  145.7667  138.2441  154.6653 C   0  0  0  0  0  0  0  0  0  0  0  0
  146.5243  137.4242  153.5988 C   0  0  0  0  0  0  0  0  0  0  0  0
  146.0732  137.8301  152.1877 C   0  0  0  0  0  0  0  0  0  0  0  0
  146.3442  135.9107  153.8040 C   0  0  0  0  0  0  0  0  0  0  0  0
  145.1724  140.5533  155.4314 C   0  0  0  0  0  0  0  0  0  0  0  0
  146.2607  140.8302  156.4868 C   0  0  0  0  0  0  0  0  0  0  0  0
  147.4135  141.3763  155.8579 O   0  0  0  0  0  0  0  0  0  0  0  0
  152.2044  144.2470  158.6492 N   0  0  0  0  0  0  0  0  0  0  0  0
  153.0260  143.8532  159.7118 O   0  0  0  0  0  0  0  0  0  0  0  0
  153.9361  140.7943  160.7172 H   0  0  0  0  0  0  0  0  0  0  0  0
  153.5612  142.1489  161.7841 H   0  0  0  0  0  0  0  0  0  0  0  0
  154.9689  142.2248  160.7218 H   0  0  0  0  0  0  0  0  0  0  0  0
  152.2117  140.9232  158.4693 H   0  0  0  0  0  0  0  0  0  0  0  0
  150.5458  143.8553  156.6236 H   0  0  0  0  0  0  0  0  0  0  0  0
  149.5020  143.0835  155.1279 H   0  0  0  0  0  0  0  0  0  0  0  0
  149.0806  141.6028  153.3918 H   0  0  0  0  0  0  0  0  0  0  0  0
  150.0280  140.3602  154.1745 H   0  0  0  0  0  0  0  0  0  0  0  0
  148.2263  139.5411  155.3787 H   0  0  0  0  0  0  0  0  0  0  0  0
  146.7136  141.1944  153.2894 H   0  0  0  0  0  0  0  0  0  0  0  0
  147.3448  139.5920  153.0115 H   0  0  0  0  0  0  0  0  0  0  0  0
  146.2846  138.1191  155.6174 H   0  0  0  0  0  0  0  0  0  0  0  0
  144.7662  137.8387  154.8158 H   0  0  0  0  0  0  0  0  0  0  0  0
  147.5889  137.6464  153.6640 H   0  0  0  0  0  0  0  0  0  0  0  0
  145.0116  137.6302  152.0370 H   0  0  0  0  0  0  0  0  0  0  0  0
  146.6263  137.2825  151.4242 H   0  0  0  0  0  0  0  0  0  0  0  0
  146.2390  138.8934  152.0117 H   0  0  0  0  0  0  0  0  0  0  0  0
  145.2934  135.6245  153.7465 H   0  0  0  0  0  0  0  0  0  0  0  0
  146.7244  135.5900  154.7741 H   0  0  0  0  0  0  0  0  0  0  0  0
  146.8833  135.3457  153.0428 H   0  0  0  0  0  0  0  0  0  0  0  0
  144.8516  141.5003  154.9950 H   0  0  0  0  0  0  0  0  0  0  0  0
  144.2878  140.1209  155.8968 H   0  0  0  0  0  0  0  0  0  0  0  0
  145.8921  141.5460  157.2216 H   0  0  0  0  0  0  0  0  0  0  0  0
  146.5254  139.9269  157.0375 H   0  0  0  0  0  0  0  0  0  0  0  0
  145.0085  139.7487  153.5840 H   0  0  0  0  0  0  0  0  0  0  0  0
  1  2  1  0  0  0  0
  1 22  1  0  0  0  0
  1 23  1  0  0  0  0
  1 24  1  0  0  0  0
  2 21  1  0  0  0  0
  2  3  2  0  0  0  0
  3  4  1  0  0  0  0
  3 25  1  0  0  0  0
  4  5  1  0  0  0  0
  4 20  2  0  0  0  0
  5  6  1  0  0  0  0
  5 26  1  0  0  0  0
  6  7  2  0  0  0  0
  6  8  1  0  0  0  0
  8  9  1  0  0  0  0
  8 27  1  0  0  0  0
  9 10  1  0  0  0  0
  9 28  1  0  0  0  0
  9 29  1  0  0  0  0
 10 19  1  0  0  0  0
 10 11  1  0  0  0  0
 10 30  1  0  0  0  0
 11 12  1  0  0  0  0
 11 31  1  0  0  0  0
 11 32  1  0  0  0  0
 12 13  1  0  0  0  0
 12 17  1  0  0  0  0
 12 46  1  0  0  0  0
 13 14  1  0  0  0  0
 13 33  1  0  0  0  0
 13 34  1  0  0  0  0
 14 15  1  0  0  0  0
 14 16  1  0  0  0  0
 14 35  1  0  0  0  0
 15 36  1  0  0  0  0
 15 37  1  0  0  0  0
 15 38  1  0  0  0  0
 16 39  1  0  0  0  0
 16 40  1  0  0  0  0
 16 41  1  0  0  0  0
 17 18  1  0  0  0  0
 17 42  1  0  0  0  0
 17 43  1  0  0  0  0
 18 19  1  0  0  0  0
 18 44  1  0  0  0  0
 18 45  1  0  0  0  0
 20 21  1  0  0  0  0
M  CHG  1  12   1
M  END
> <s_m_source_file>
AV-unprocessed.smi

> <i_m_source_file_index>
1254

> <i_lp_mmshare_version>
43012

> <i_f3d_flags>
0

> <s_epik_input>
W0NIM11jMVtjSF1jKG5vMSlbTkhdQyg9TylbTkhdW0NIMl1bQ0BASF0yW0NIMl1OKFtDSDJdW0NIMl1PMilbQ0gyXVtDSF0oW0NIM10pW0NIM10=

> <s_epik_cmdline>
J2VwaWtfcHl0aG9uJywgJy1waCcsICc3LjAnLCAnLXRuJywgJzgnLCAnLW1hJywgJzIwMCcsICctbWV0YWxfYmluZGluZycsICctaW1hZScsICc8aW5maWxlLm1hZT4nLCAnLW9tYWUnLCAnPG91dGZpbGUubWFlPic=

> <r_epik_Ionization_Penalty>
0.0986825

> <r_epik_Ionization_Penalty_Charging>
0.0986478

> <r_epik_Ionization_Penalty_Neutral>
3.46838e-05

> <r_epik_State_Penalty>
0.0887259

> <r_epik_Charging_Adjusted_Penalty>
0.187374

> <i_epik_Tot_Q>
1

> <i_epik_Tot_abs_Q>
1

> <r_epik_Metal_State_Penalty>
0.103424

> <b_epik_Metal_Only>
0

> <s_lp_Force_Field>
OPLS_2005

> <r_lp_Energy>
16.7856

> <b_lp_Chiralities_Consistent>
1

> <s_lp_Variant>
AV-unprocessed.smi:1254-3

> <Gold.Version>
5.8.1

> <Gold.Id.Protein>
6NUR|6NUR_protein|mol2

> <Gold.PLP.Fitness>
40.7362

> <Gold.PLP.PLP>
-30.6921

> <Gold.PLP.part.hbond>
-3.0000

> <Gold.PLP.part.metal>
0.0000

> <Gold.PLP.part.buried>
-5.8490

> <Gold.PLP.part.nonpolar>
-23.5958

> <Gold.PLP.part.repulsive>
0.3809

> <Gold.PLP.ligand.clash>
0.0000

> <Gold.PLP.ligand.torsion>
0.9360

> <Gold.PLP.Chemscore.Hbond>
3.9440

> <Gold.PLP.Chemscore.CHOScore>
0.0000

> <Gold.PLP.Chemscore.Metal>
0.0000

> <Gold.Chemscore.Hbonds>
donor molecule, donor type, donor heavy atom, donor atom, acceptor molecule, acceptor atom, score
      L1  H     5    26       P1  8028  0.81
      L1  H     8    27       P1  8028  1.00
      L1  H    12    46       P1 10175  2.00

> <Gold.PLP.Chemscore.Internal.Correction>
0.0842

> <Gold.Rescore>
     Score         DG    S(hbond)    S(metal)    S(lipo)     H(rot)  DE(clash)    DE(int)     intcor
     16.30     -18.65       2.89        0.00      67.94       1.73       0.10       2.25       ----

> <Gold.Chemscore.Fitness>
16.2990

> <Gold.Chemscore.DG>
-18.6507

> <Gold.Chemscore.ZeroCoef>
-5.4800

> <Gold.Chemscore.Hbond>
2.8887

> <Gold.Chemscore.Metal>
0.0000

> <Gold.Chemscore.Lipo>
67.9398

> <Gold.Chemscore.Internal_Hbond>
0.0000

> <Gold.Chemscore.DEClash>
0.1027

> <Gold.Chemscore.DEInternal>
2.2490

> <Gold.Chemscore.Rot>
1.7291

> <Gold.Chemscore.Internal.Correction>
   9.000000E+99

> <Gold.Chemscore.Hbonds>
donor molecule, donor type, donor heavy atom, donor atom, acceptor molecule, acceptor atom, score
      L1  H     5    26       P1  8028  0.76
      L1  H     8    27       P1  8028  0.99
      L1  H    12    46       P1 10175  0.99

> <Gold.Chemscore.Hbond.Weighted>
-9.6483

> <Gold.Chemscore.Metal.Weighted>
-0.0000

> <Gold.Chemscore.Lipo.Weighted>
-7.9490

> <Gold.Chemscore.Internal_Hbond.Weighted>
0.0000

> <Gold.Chemscore.DEClash.Weighted>
0.1027

> <Gold.Chemscore.DEInternal.Weighted>
2.2490

> <Gold.Chemscore.Rot.Weighted>
4.4265

> <Gold.Chemscore.Internal.Correction.Weighted>
   9.000000E+99

> <Gold.Protein.RotatedTorsions>
[ 6907 6896 6895 6894 ] final   80.33 input  -60.11 | X-H torsion
[ 7974 7965 7964 7962 ] final -124.21 input  175.53 | X-H torsion
[ 8008 7997 7996 7995 ] final -132.14 input   59.86 | X-H torsion
[ 10167 10162 10161 10158 ] final   80.19 input  -65.29 | X-H torsion
[ 10718 10713 10712 10709 ] final -131.39 input   66.30 | X-H torsion
[ 10763 10752 10751 10750 ] final  110.46 input  -60.55 | X-H torsion
[ 11005 11000 10999 10996 ] final  125.36 input  -57.11 | X-H torsion

> <Gold.Protein.ActiveResidues>
 VAL166  LYS551  ARG553  GLY616  TRP617  ASP618  TYR619  PRO620  LYS621  CYS622 
 ASP623  PHE694  ASN695  SER759  ASP760  ASP761  ALA762  ILE779  LEU786  VAL792 
 PHE793  MET794  SER795  GLU796  ALA797  LYS798  CYS799  TRP800  GLU811  SER814 

> <Gold.Protein.RotatedAtoms>
  152.5231  134.3375  159.9204 H   0  0  0  0  0  0  0  0  0  0  0  0  # atno 6907 bound_to 6896
  151.3324  133.3989  159.2671 H   0  0  0  0  0  0  0  0  0  0  0  0  # atno 6908 bound_to 6896
  150.9870  134.9231  159.7935 H   0  0  0  0  0  0  0  0  0  0  0  0  # atno 6909 bound_to 6896
  145.0105  140.7901  143.4441 H   0  0  0  0  0  0  0  0  0  0  0  0  # atno 7974 bound_to 7965
  155.3240  140.0463  157.3040 H   0  0  0  0  0  0  0  0  0  0  0  0  # atno 8008 bound_to 7997
  154.5364  140.2274  155.8681 H   0  0  0  0  0  0  0  0  0  0  0  0  # atno 8009 bound_to 7997
  156.1839  140.3067  155.9208 H   0  0  0  0  0  0  0  0  0  0  0  0  # atno 8010 bound_to 7997
  139.9523  144.6017  150.8149 H   0  0  0  0  0  0  0  0  0  0  0  0  # atno 10167 bound_to 10162
  156.2240  130.6996  151.0786 H   0  0  0  0  0  0  0  0  0  0  0  0  # atno 10718 bound_to 10713
  153.4493  135.3748  155.2274 H   0  0  0  0  0  0  0  0  0  0  0  0  # atno 10763 bound_to 10752
  154.8756  135.3882  154.4058 H   0  0  0  0  0  0  0  0  0  0  0  0  # atno 10764 bound_to 10752
  153.4615  135.7086  153.6111 H   0  0  0  0  0  0  0  0  0  0  0  0  # atno 10765 bound_to 10752
  139.9403  134.9636  156.8547 H   0  0  0  0  0  0  0  0  0  0  0  0  # atno 11005 bound_to 11000
  145.2029  139.2243  143.5183 LP  0  0  0  0  0  0  0  0  0  0  0  0  # atno 17320 bound_to 7965
  146.3469  140.1851  142.8589 LP  0  0  0  0  0  0  0  0  0  0  0  0  # atno 17321 bound_to 7965
  140.7579  143.3096  151.2878 LP  0  0  0  0  0  0  0  0  0  0  0  0  # atno 17342 bound_to 10162
  139.6618  144.0175  152.2697 LP  0  0  0  0  0  0  0  0  0  0  0  0  # atno 17343 bound_to 10162
  157.7101  131.0738  150.6530 LP  0  0  0  0  0  0  0  0  0  0  0  0  # atno 17370 bound_to 10713
  156.6594  130.4508  149.5692 LP  0  0  0  0  0  0  0  0  0  0  0  0  # atno 17371 bound_to 10713
  140.5969  134.0208  155.7521 LP  0  0  0  0  0  0  0  0  0  0  0  0  # atno 17394 bound_to 11000
  141.1034  133.9731  157.3039 LP  0  0  0  0  0  0  0  0  0  0  0  0  # atno 17395 bound_to 11000

$$$$
