AV-unprocessed.smi:213|AV-procd|sdf|1638|dock2
  -GOLD-   2262020 03D 1   1.00000     0.00000
 Structure written by MMmdl.
 59 62  0  0  0  0  0  0  0  0  2 V2000
  150.5590  134.2509  155.3541 C   0  0  0  0  0  0  0  0  0  0  0  0
  149.2274  134.7387  154.7542 C   0  0  1  0  0  0  0  0  0  0  0  0
  148.3805  133.5819  154.1777 C   0  0  0  0  0  0  0  0  0  0  0  0
  147.4879  134.0148  153.0721 N   0  3  0  0  0  0  0  0  0  0  0  0
  147.0816  132.8888  152.1974 C   0  0  0  0  0  0  0  0  0  0  0  0
  146.2105  133.3958  151.0355 C   0  0  0  0  0  0  0  0  0  0  0  0
  145.0775  134.0819  151.5528 O   0  0  0  0  0  0  0  0  0  0  0  0
  145.4497  135.2174  152.3237 C   0  0  0  0  0  0  0  0  0  0  0  0
  146.2946  134.7703  153.5287 C   0  0  0  0  0  0  0  0  0  0  0  0
  148.4667  135.5158  155.7409 N   0  0  0  0  0  0  0  0  0  0  0  0
  147.3170  134.9306  156.4254 C   0  0  0  0  0  0  0  0  0  0  0  0
  149.0877  136.5717  156.3281 C   0  0  0  0  0  0  0  0  0  0  0  0
  149.4890  136.4326  157.6191 N   0  0  0  0  0  0  0  0  0  0  0  0
  150.1135  137.4334  158.2462 C   0  0  0  0  0  0  0  0  0  0  0  0
  150.4311  138.6414  157.7786 N   0  0  0  0  0  0  0  0  0  0  0  0
  150.0278  138.7917  156.4850 C   0  0  0  0  0  0  0  0  0  0  0  0
  149.3579  137.8184  155.6890 C   0  0  0  0  0  0  0  0  0  0  0  0
  149.1019  138.3458  154.4271 N   0  0  0  0  0  0  0  0  0  0  0  0
  149.5964  139.5526  154.4733 C   0  0  0  0  0  0  0  0  0  0  0  0
  150.1686  139.9031  155.6741 N   0  0  0  0  0  0  0  0  0  0  0  0
  150.7848  141.1744  156.0107 C   0  0  0  0  0  0  0  0  0  0  0  0
  150.3900  141.6624  157.4186 C   0  0  2  0  0  0  0  0  0  0  0  0
  149.1618  142.3614  157.3404 O   0  0  0  0  0  0  0  0  0  0  0  0
  151.4522  142.5900  158.0366 C   0  0  1  0  0  0  0  0  0  0  0  0
  151.4832  144.0016  157.4450 C   0  0  0  0  0  0  0  0  0  0  0  0
  152.0267  144.8621  158.5763 C   0  0  0  0  0  0  0  0  0  0  0  0
  151.9642  143.9495  159.8031 C   0  0  0  0  0  0  0  0  0  0  0  0
  151.1583  142.8522  159.4001 O   0  0  0  0  0  0  0  0  0  0  0  0
  151.1800  133.7674  154.6000 H   0  0  0  0  0  0  0  0  0  0  0  0
  150.3996  133.5336  156.1595 H   0  0  0  0  0  0  0  0  0  0  0  0
  151.1333  135.0847  155.7596 H   0  0  0  0  0  0  0  0  0  0  0  0
  149.4900  135.3972  153.9282 H   0  0  0  0  0  0  0  0  0  0  0  0
  149.0501  132.8070  153.8037 H   0  0  0  0  0  0  0  0  0  0  0  0
  147.7811  133.1171  154.9626 H   0  0  0  0  0  0  0  0  0  0  0  0
  147.9654  132.3894  151.7988 H   0  0  0  0  0  0  0  0  0  0  0  0
  146.5314  132.1503  152.7829 H   0  0  0  0  0  0  0  0  0  0  0  0
  146.7815  134.0540  150.3783 H   0  0  0  0  0  0  0  0  0  0  0  0
  145.8690  132.5575  150.4280 H   0  0  0  0  0  0  0  0  0  0  0  0
  145.9988  135.9291  151.7048 H   0  0  0  0  0  0  0  0  0  0  0  0
  144.5465  135.7235  152.6651 H   0  0  0  0  0  0  0  0  0  0  0  0
  145.6948  134.1436  154.1905 H   0  0  0  0  0  0  0  0  0  0  0  0
  146.5902  135.6479  154.1021 H   0  0  0  0  0  0  0  0  0  0  0  0
  146.7263  135.6996  156.9243 H   0  0  0  0  0  0  0  0  0  0  0  0
  147.6396  134.2049  157.1722 H   0  0  0  0  0  0  0  0  0  0  0  0
  146.6567  134.4225  155.7243 H   0  0  0  0  0  0  0  0  0  0  0  0
  150.4010  137.2382  159.2689 H   0  0  0  0  0  0  0  0  0  0  0  0
  149.5502  140.2261  153.6297 H   0  0  0  0  0  0  0  0  0  0  0  0
  151.8664  141.0526  155.9405 H   0  0  0  0  0  0  0  0  0  0  0  0
  150.5047  141.9112  155.2564 H   0  0  0  0  0  0  0  0  0  0  0  0
  150.2446  140.8000  158.0707 H   0  0  0  0  0  0  0  0  0  0  0  0
  149.2891  143.1325  156.8094 H   0  0  0  0  0  0  0  0  0  0  0  0
  152.4433  142.1361  157.9713 H   0  0  0  0  0  0  0  0  0  0  0  0
  152.0882  144.0618  156.5399 H   0  0  0  0  0  0  0  0  0  0  0  0
  150.4734  144.3292  157.1937 H   0  0  0  0  0  0  0  0  0  0  0  0
  153.0507  145.1845  158.3846 H   0  0  0  0  0  0  0  0  0  0  0  0
  151.4128  145.7535  158.7095 H   0  0  0  0  0  0  0  0  0  0  0  0
  152.9600  143.5865  160.0621 H   0  0  0  0  0  0  0  0  0  0  0  0
  151.5459  144.4483  160.6776 H   0  0  0  0  0  0  0  0  0  0  0  0
  148.0312  134.6397  152.4935 H   0  0  0  0  0  0  0  0  0  0  0  0
  1  2  1  0  0  0  0
  1 29  1  0  0  0  0
  1 30  1  0  0  0  0
  1 31  1  0  0  0  0
  2  3  1  0  0  0  0
  2 10  1  0  0  0  0
  2 32  1  0  0  0  0
  3  4  1  0  0  0  0
  3 33  1  0  0  0  0
  3 34  1  0  0  0  0
  4  9  1  0  0  0  0
  4  5  1  0  0  0  0
  4 59  1  0  0  0  0
  5  6  1  0  0  0  0
  5 35  1  0  0  0  0
  5 36  1  0  0  0  0
  6  7  1  0  0  0  0
  6 37  1  0  0  0  0
  6 38  1  0  0  0  0
  7  8  1  0  0  0  0
  8  9  1  0  0  0  0
  8 39  1  0  0  0  0
  8 40  1  0  0  0  0
  9 41  1  0  0  0  0
  9 42  1  0  0  0  0
 10 11  1  0  0  0  0
 10 12  1  0  0  0  0
 11 43  1  0  0  0  0
 11 44  1  0  0  0  0
 11 45  1  0  0  0  0
 12 17  1  0  0  0  0
 12 13  2  0  0  0  0
 13 14  1  0  0  0  0
 14 15  2  0  0  0  0
 14 46  1  0  0  0  0
 15 16  1  0  0  0  0
 16 20  1  0  0  0  0
 16 17  2  0  0  0  0
 17 18  1  0  0  0  0
 18 19  2  0  0  0  0
 19 20  1  0  0  0  0
 19 47  1  0  0  0  0
 20 21  1  0  0  0  0
 21 22  1  0  0  0  0
 21 48  1  0  0  0  0
 21 49  1  0  0  0  0
 22 23  1  0  0  0  0
 22 24  1  0  0  0  0
 22 50  1  0  0  0  0
 23 51  1  0  0  0  0
 24 28  1  0  0  0  0
 24 25  1  0  0  0  0
 24 52  1  0  0  0  0
 25 26  1  0  0  0  0
 25 53  1  0  0  0  0
 25 54  1  0  0  0  0
 26 27  1  0  0  0  0
 26 55  1  0  0  0  0
 26 56  1  0  0  0  0
 27 28  1  0  0  0  0
 27 57  1  0  0  0  0
 27 58  1  0  0  0  0
M  CHG  1   4   1
M  END
> <s_m_source_file>
AV-unprocessed.smi

> <i_m_source_file_index>
213

> <i_lp_mmshare_version>
43012

> <i_f3d_flags>
0

> <s_epik_input>
W0NIMl0xW0NIMl1PW0NIMl1bQ0gyXU4xW0NIMl1bQ0BASF0oW0NIM10pTihbQ0gzXSljKG5bY0hdbjIpYyhjMjMpbltjSF1uM1tDSDJdW0NASF0oW09IXSlbQ0BASF00W0NIMl1bQ0gyXVtDSDJdTzQ=

> <s_epik_cmdline>
J2VwaWtfcHl0aG9uJywgJy1waCcsICc3LjAnLCAnLXRuJywgJzgnLCAnLW1hJywgJzIwMCcsICctbWV0YWxfYmluZGluZycsICctaW1hZScsICc8aW5maWxlLm1hZT4nLCAnLW9tYWUnLCAnPG91dGZpbGUubWFlPic=

> <r_lp_tautomer_probability>
1

> <r_epik_Ionization_Penalty>
0.399679

> <r_epik_Ionization_Penalty_Charging>
0.399433

> <r_epik_Ionization_Penalty_Neutral>
0.000246213

> <r_epik_State_Penalty>
0.286032

> <r_epik_Charging_Adjusted_Penalty>
0.685465

> <i_epik_Tot_Q>
1

> <i_epik_Tot_abs_Q>
1

> <r_epik_Metal_State_Penalty>
0.286072

> <b_epik_Metal_Only>
0

> <s_lp_Force_Field>
OPLS_2005

> <r_lp_Energy>
45.5564

> <b_lp_Chiralities_Consistent>
1

> <s_lp_Variant>
AV-unprocessed.smi:213-6

> <Gold.Version>
5.8.1

> <Gold.Id.Protein>
6NUR|6NUR_protein|mol2

> <Gold.PLP.Fitness>
51.0997

> <Gold.PLP.PLP>
-43.3235

> <Gold.PLP.part.hbond>
-2.0000

> <Gold.PLP.part.metal>
0.0000

> <Gold.PLP.part.buried>
-4.7992

> <Gold.PLP.part.nonpolar>
-36.5489

> <Gold.PLP.part.repulsive>
0.3566

> <Gold.PLP.ligand.clash>
0.0000

> <Gold.PLP.ligand.torsion>
2.5573

> <Gold.PLP.Chemscore.Hbond>
3.0000

> <Gold.PLP.Chemscore.CHOScore>
1.0000

> <Gold.PLP.Chemscore.Metal>
0.0000

> <Gold.Chemscore.Hbonds>
donor molecule, donor type, donor heavy atom, donor atom, acceptor molecule, acceptor atom, score
      L1  H     4    59       P1  7948  2.00
      L1  H    23    51       P1  8028  1.00
      L1  C    19    47       P1  7957  1.00

> <Gold.PLP.Chemscore.Internal.Correction>
0.8909

> <Gold.Rescore>
     Score         DG    S(hbond)    S(metal)    S(lipo)     H(rot)  DE(clash)    DE(int)     intcor
     13.55     -15.97       1.91        0.00      96.98       2.83       0.05       2.36       ----

> <Gold.Chemscore.Fitness>
13.5507

> <Gold.Chemscore.DG>
-15.9669

> <Gold.Chemscore.ZeroCoef>
-5.4800

> <Gold.Chemscore.Hbond>
1.9082

> <Gold.Chemscore.Metal>
0.0000

> <Gold.Chemscore.Lipo>
96.9786

> <Gold.Chemscore.Internal_Hbond>
0.0000

> <Gold.Chemscore.DEClash>
0.0527

> <Gold.Chemscore.DEInternal>
2.3635

> <Gold.Chemscore.Rot>
2.8254

> <Gold.Chemscore.Internal.Correction>
   9.000000E+99

> <Gold.Chemscore.Hbonds>
donor molecule, donor type, donor heavy atom, donor atom, acceptor molecule, acceptor atom, score
      L1  H     4    59       P1  7948  0.55
      L1  H    23    51       P1  8028  0.95

> <Gold.Chemscore.Hbond.Weighted>
-6.3733

> <Gold.Chemscore.Metal.Weighted>
-0.0000

> <Gold.Chemscore.Lipo.Weighted>
-11.3465

> <Gold.Chemscore.Internal_Hbond.Weighted>
0.0000

> <Gold.Chemscore.DEClash.Weighted>
0.0527

> <Gold.Chemscore.DEInternal.Weighted>
2.3635

> <Gold.Chemscore.Rot.Weighted>
7.2330

> <Gold.Chemscore.Internal.Correction.Weighted>
   9.000000E+99

> <Gold.Protein.RotatedTorsions>
[ 6907 6896 6895 6894 ] final  167.83 input  -60.11 | X-H torsion
[ 7974 7965 7964 7962 ] final   94.49 input  175.53 | X-H torsion
[ 8008 7997 7996 7995 ] final   22.41 input   59.86 | X-H torsion
[ 10167 10162 10161 10158 ] final -166.03 input  -65.29 | X-H torsion
[ 10718 10713 10712 10709 ] final    7.28 input   66.30 | X-H torsion
[ 10763 10752 10751 10750 ] final -174.24 input  -60.55 | X-H torsion
[ 11005 11000 10999 10996 ] final   81.32 input  -57.11 | X-H torsion

> <Gold.Protein.ActiveResidues>
 VAL166  LYS551  ARG553  GLY616  TRP617  ASP618  TYR619  PRO620  LYS621  CYS622 
 ASP623  PHE694  ASN695  SER759  ASP760  ASP761  ALA762  ILE779  LEU786  VAL792 
 PHE793  MET794  SER795  GLU796  ALA797  LYS798  CYS799  TRP800  GLU811  SER814 

> <Gold.Protein.RotatedAtoms>
  151.8571  133.3450  159.3691 H   0  0  0  0  0  0  0  0  0  0  0  0  # atno 6907 bound_to 6896
  150.7189  134.5242  159.5678 H   0  0  0  0  0  0  0  0  0  0  0  0  # atno 6908 bound_to 6896
  152.2748  134.7894  160.0458 H   0  0  0  0  0  0  0  0  0  0  0  0  # atno 6909 bound_to 6896
  145.4648  139.2285  143.2967 H   0  0  0  0  0  0  0  0  0  0  0  0  # atno 7974 bound_to 7965
  154.9653  140.3083  155.5012 H   0  0  0  0  0  0  0  0  0  0  0  0  # atno 8008 bound_to 7997
  156.2972  140.2294  156.4680 H   0  0  0  0  0  0  0  0  0  0  0  0  # atno 8009 bound_to 7997
  154.7927  140.0439  157.1202 H   0  0  0  0  0  0  0  0  0  0  0  0  # atno 8010 bound_to 7997
  139.6142  144.0753  152.1872 H   0  0  0  0  0  0  0  0  0  0  0  0  # atno 10167 bound_to 10162
  156.9345  130.5838  149.5650 H   0  0  0  0  0  0  0  0  0  0  0  0  # atno 10718 bound_to 10713
  154.5985  135.2852  155.0560 H   0  0  0  0  0  0  0  0  0  0  0  0  # atno 10763 bound_to 10752
  154.1834  135.6453  153.5044 H   0  0  0  0  0  0  0  0  0  0  0  0  # atno 10764 bound_to 10752
  153.0148  135.5429  154.6696 H   0  0  0  0  0  0  0  0  0  0  0  0  # atno 10765 bound_to 10752
  139.9102  134.7987  156.2025 H   0  0  0  0  0  0  0  0  0  0  0  0  # atno 11005 bound_to 11000
  146.2430  140.5421  142.8926 LP  0  0  0  0  0  0  0  0  0  0  0  0  # atno 17320 bound_to 7965
  144.7980  140.6160  143.6497 LP  0  0  0  0  0  0  0  0  0  0  0  0  # atno 17321 bound_to 7965
  140.0379  144.6030  150.7435 LP  0  0  0  0  0  0  0  0  0  0  0  0  # atno 17342 bound_to 10162
  140.7340  143.2723  151.3848 LP  0  0  0  0  0  0  0  0  0  0  0  0  # atno 17343 bound_to 10162
  156.0432  130.5512  150.8819 LP  0  0  0  0  0  0  0  0  0  0  0  0  # atno 17370 bound_to 10713
  157.5825  131.0946  150.9248 LP  0  0  0  0  0  0  0  0  0  0  0  0  # atno 17371 bound_to 10713
  141.0516  133.6886  156.1782 LP  0  0  0  0  0  0  0  0  0  0  0  0  # atno 17394 bound_to 11000
  140.6802  134.4775  157.5589 LP  0  0  0  0  0  0  0  0  0  0  0  0  # atno 17395 bound_to 11000

$$$$
