AV-unprocessed.smi:8|AV-procd|sdf|48|dock2
  -GOLD-   2262015163D 1   1.00000     0.00000
 Structure written by MMmdl.
 34 35  0  0  0  0  0  0  0  0  3 V2000
  150.5561  136.3128  155.0669 C   0  0  0  0  0  0  0  0  0  0  0  0
  150.1697  135.3545  156.2023 C   0  0  0  0  0  0  0  0  0  0  0  0
  149.7966  134.0314  155.6848 N   0  0  0  0  0  0  0  0  0  0  0  0
  149.0083  133.9880  154.5227 C   0  0  0  0  0  0  0  0  0  0  0  0
  148.6160  132.8286  153.9553 C   0  0  0  0  0  0  0  0  0  0  0  0
  147.7436  132.7876  152.7100 C   0  0  0  0  0  0  0  0  0  0  0  0
  146.4372  133.4023  152.9119 N   0  0  0  0  0  0  0  0  0  0  0  0
  145.6570  133.7268  151.7929 C   0  0  0  0  0  0  0  0  0  0  0  0
  145.2616  135.0081  151.6151 N   0  0  0  0  0  0  0  0  0  0  0  0
  144.5223  135.3289  150.5468 C   0  0  0  0  0  0  0  0  0  0  0  0
  144.1470  134.4323  149.6231 N   0  3  0  0  0  0  0  0  0  0  0  0
  144.5224  133.1374  149.7584 C   0  0  0  0  0  0  0  0  0  0  0  0
  145.3015  132.7297  150.8596 C   0  0  0  0  0  0  0  0  0  0  0  0
  145.7237  131.2805  151.0201 C   0  0  0  0  0  0  0  0  0  0  0  0
  149.0302  131.5847  154.6145 C   0  0  0  0  0  0  0  0  0  0  0  0
  148.6796  130.5007  154.1485 O   0  0  0  0  0  0  0  0  0  0  0  0
  149.8035  131.6807  155.7348 N   0  5  0  0  0  0  0  0  0  0  0  0
  150.1997  132.8709  156.2806 C   0  0  0  0  0  0  0  0  0  0  0  0
  150.9062  132.9309  157.2874 O   0  0  0  0  0  0  0  0  0  0  0  0
  150.8166  137.2949  155.4616 H   0  0  0  0  0  0  0  0  0  0  0  0
  149.7328  136.4440  154.3642 H   0  0  0  0  0  0  0  0  0  0  0  0
  151.4164  135.9404  154.5100 H   0  0  0  0  0  0  0  0  0  0  0  0
  150.9913  135.2732  156.9157 H   0  0  0  0  0  0  0  0  0  0  0  0
  149.3422  135.7808  156.7709 H   0  0  0  0  0  0  0  0  0  0  0  0
  148.7463  134.9550  154.1187 H   0  0  0  0  0  0  0  0  0  0  0  0
  148.2651  133.2945  151.8969 H   0  0  0  0  0  0  0  0  0  0  0  0
  147.6080  131.7489  152.4057 H   0  0  0  0  0  0  0  0  0  0  0  0
  146.3550  134.0164  153.7100 H   0  0  0  0  0  0  0  0  0  0  0  0
  144.1994  136.3483  150.3949 H   0  0  0  0  0  0  0  0  0  0  0  0
  144.1856  132.4696  148.9789 H   0  0  0  0  0  0  0  0  0  0  0  0
  145.3425  130.6653  150.2045 H   0  0  0  0  0  0  0  0  0  0  0  0
  145.3419  130.8749  151.9578 H   0  0  0  0  0  0  0  0  0  0  0  0
  146.8109  131.1989  151.0264 H   0  0  0  0  0  0  0  0  0  0  0  0
  143.5828  134.7141  148.8210 H   0  0  0  0  0  0  0  0  0  0  0  0
  1  2  1  0  0  0  0
  1 20  1  0  0  0  0
  1 21  1  0  0  0  0
  1 22  1  0  0  0  0
  2  3  1  0  0  0  0
  2 23  1  0  0  0  0
  2 24  1  0  0  0  0
  3 18  1  0  0  0  0
  3  4  1  0  0  0  0
  4  5  2  0  0  0  0
  4 25  1  0  0  0  0
  5  6  1  0  0  0  0
  5 15  1  0  0  0  0
  6  7  1  0  0  0  0
  6 26  1  0  0  0  0
  6 27  1  0  0  0  0
  7  8  1  0  0  0  0
  7 28  1  0  0  0  0
  8 13  1  0  0  0  0
  8  9  2  0  0  0  0
  9 10  1  0  0  0  0
 10 11  2  0  0  0  0
 10 29  1  0  0  0  0
 11 12  1  0  0  0  0
 11 34  1  0  0  0  0
 12 13  2  0  0  0  0
 12 30  1  0  0  0  0
 13 14  1  0  0  0  0
 14 31  1  0  0  0  0
 14 32  1  0  0  0  0
 14 33  1  0  0  0  0
 15 16  2  0  0  0  0
 15 17  1  0  0  0  0
 17 18  1  0  0  0  0
 18 19  2  0  0  0  0
M  CHG  1  11   1
M  CHG  1  17  -1
M  END
> <s_m_source_file>
AV-unprocessed.smi

> <i_m_source_file_index>
8

> <i_lp_mmshare_version>
43012

> <i_f3d_flags>
0

> <s_epik_input>
W0NIM11bQ0gyXW4xW2NIXWMoYyg9TylbbkhdYzE9TylbQ0gyXVtOSF1jMm5bY0hdbltjSF1jMltDSDNd

> <s_epik_cmdline>
J2VwaWtfcHl0aG9uJywgJy1waCcsICc3LjAnLCAnLXRuJywgJzgnLCAnLW1hJywgJzIwMCcsICctbWV0YWxfYmluZGluZycsICctaW1hZScsICc8aW5maWxlLm1hZT4nLCAnLW9tYWUnLCAnPG91dGZpbGUubWFlPic=

> <r_lp_tautomer_probability>
0.998874

> <r_epik_Ionization_Penalty>
7.33654

> <r_epik_Ionization_Penalty_Charging>
3.33717

> <r_epik_Ionization_Penalty_Neutral>
3.99937

> <r_epik_State_Penalty>
6.31594

> <r_epik_Charging_Adjusted_Penalty>
9.65311

> <i_epik_Tot_Q>
0

> <i_epik_Tot_abs_Q>
2

> <r_epik_Metal_State_Penalty>
2.94778

> <b_epik_Metal_Only>
1

> <s_lp_Force_Field>
OPLS_2005

> <r_lp_Energy>
21.5879

> <b_lp_Chiralities_Consistent>
1

> <s_lp_Variant>
AV-unprocessed.smi:8-4

> <Gold.Version>
5.8.1

> <Gold.Id.Protein>
6NUR|6NUR_protein|mol2

> <Gold.PLP.Fitness>
41.0938

> <Gold.PLP.PLP>
-34.1418

> <Gold.PLP.part.hbond>
-2.8083

> <Gold.PLP.part.metal>
0.0000

> <Gold.PLP.part.buried>
-6.2667

> <Gold.PLP.part.nonpolar>
-26.4016

> <Gold.PLP.part.repulsive>
0.2953

> <Gold.PLP.ligand.clash>
0.0000

> <Gold.PLP.ligand.torsion>
0.8882

> <Gold.PLP.Chemscore.Hbond>
0.9048

> <Gold.PLP.Chemscore.CHOScore>
2.0000

> <Gold.PLP.Chemscore.Metal>
0.0000

> <Gold.Chemscore.Hbonds>
donor molecule, donor type, donor heavy atom, donor atom, acceptor molecule, acceptor atom, score
      P1  H  6896  6907       L1    19  1.00
      L1  C     4    25       P1  7948  0.89
      L1  C    10    29       P1 10171  1.00

> <Gold.PLP.Chemscore.Internal.Correction>
0.0139

> <Gold.Rescore>
     Score         DG    S(hbond)    S(metal)    S(lipo)     H(rot)  DE(clash)    DE(int)     intcor
      9.77     -10.67       0.97        0.00      54.56       1.73       0.02       0.87       ----

> <Gold.Chemscore.Fitness>
9.7736

> <Gold.Chemscore.DG>
-10.6711

> <Gold.Chemscore.ZeroCoef>
-5.4800

> <Gold.Chemscore.Hbond>
0.9681

> <Gold.Chemscore.Metal>
0.0000

> <Gold.Chemscore.Lipo>
54.5630

> <Gold.Chemscore.Internal_Hbond>
0.0000

> <Gold.Chemscore.DEClash>
0.0243

> <Gold.Chemscore.DEInternal>
0.8732

> <Gold.Chemscore.Rot>
1.7290

> <Gold.Chemscore.Internal.Correction>
   9.000000E+99

> <Gold.Chemscore.Hbonds>
donor molecule, donor type, donor heavy atom, donor atom, acceptor molecule, acceptor atom, score
      P1  H  6896  6907       L1    19  0.92

> <Gold.Chemscore.Hbond.Weighted>
-3.2335

> <Gold.Chemscore.Metal.Weighted>
-0.0000

> <Gold.Chemscore.Lipo.Weighted>
-6.3839

> <Gold.Chemscore.Internal_Hbond.Weighted>
0.0000

> <Gold.Chemscore.DEClash.Weighted>
0.0243

> <Gold.Chemscore.DEInternal.Weighted>
0.8732

> <Gold.Chemscore.Rot.Weighted>
4.4263

> <Gold.Chemscore.Internal.Correction.Weighted>
   9.000000E+99

> <Gold.Protein.RotatedTorsions>
[ 6907 6896 6895 6894 ] final -152.41 input  -60.11 | X-H torsion
[ 7974 7965 7964 7962 ] final  -99.40 input  175.53 | X-H torsion
[ 8008 7997 7996 7995 ] final  138.35 input   59.86 | X-H torsion
[ 10167 10162 10161 10158 ] final -146.31 input  -65.29 | X-H torsion
[ 10718 10713 10712 10709 ] final  -69.58 input   66.30 | X-H torsion
[ 10763 10752 10751 10750 ] final    0.46 input  -60.55 | X-H torsion
[ 11005 11000 10999 10996 ] final  173.93 input  -57.11 | X-H torsion

> <Gold.Protein.ActiveResidues>
 VAL166  LYS551  ARG553  GLY616  TRP617  ASP618  TYR619  PRO620  LYS621  CYS622 
 ASP623  PHE694  ASN695  SER759  ASP760  ASP761  ALA762  ILE779  LEU786  VAL792 
 PHE793  MET794  SER795  GLU796  ALA797  LYS798  CYS799  TRP800  GLU811  SER814 

> <Gold.Protein.RotatedAtoms>
  151.2274  133.4469  159.2602 H   0  0  0  0  0  0  0  0  0  0  0  0  # atno 6907 bound_to 6896
  151.0827  134.9868  159.8374 H   0  0  0  0  0  0  0  0  0  0  0  0  # atno 6908 bound_to 6896
  152.5426  134.2212  159.8841 H   0  0  0  0  0  0  0  0  0  0  0  0  # atno 6909 bound_to 6896
  145.3081  140.9394  143.2785 H   0  0  0  0  0  0  0  0  0  0  0  0  # atno 7974 bound_to 7965
  156.2998  140.2396  156.4059 H   0  0  0  0  0  0  0  0  0  0  0  0  # atno 8008 bound_to 7997
  154.8485  140.0425  157.1608 H   0  0  0  0  0  0  0  0  0  0  0  0  # atno 8009 bound_to 7997
  154.9024  140.2979  155.5314 H   0  0  0  0  0  0  0  0  0  0  0  0  # atno 8010 bound_to 7997
  139.7725  143.8218  152.2626 H   0  0  0  0  0  0  0  0  0  0  0  0  # atno 10167 bound_to 10162
  156.0448  130.4315  150.2169 H   0  0  0  0  0  0  0  0  0  0  0  0  # atno 10718 bound_to 10713
  153.3204  135.6969  153.7035 H   0  0  0  0  0  0  0  0  0  0  0  0  # atno 10763 bound_to 10752
  153.5877  135.3486  155.2900 H   0  0  0  0  0  0  0  0  0  0  0  0  # atno 10764 bound_to 10752
  154.8596  135.4310  154.2367 H   0  0  0  0  0  0  0  0  0  0  0  0  # atno 10765 bound_to 10752
  140.3459  134.7237  157.4234 H   0  0  0  0  0  0  0  0  0  0  0  0  # atno 11005 bound_to 11000
  144.9038  139.4615  143.6620 LP  0  0  0  0  0  0  0  0  0  0  0  0  # atno 17320 bound_to 7965
  146.3128  139.7807  142.9007 LP  0  0  0  0  0  0  0  0  0  0  0  0  # atno 17321 bound_to 7965
  139.8256  144.7276  150.9516 LP  0  0  0  0  0  0  0  0  0  0  0  0  # atno 17342 bound_to 10162
  140.7814  143.4118  151.0981 LP  0  0  0  0  0  0  0  0  0  0  0  0  # atno 17343 bound_to 10162
  157.0260  130.9993  151.3326 LP  0  0  0  0  0  0  0  0  0  0  0  0  # atno 17370 bound_to 10713
  157.5311  130.8059  149.7918 LP  0  0  0  0  0  0  0  0  0  0  0  0  # atno 17371 bound_to 10713
  140.0743  134.5819  155.8608 LP  0  0  0  0  0  0  0  0  0  0  0  0  # atno 17394 bound_to 11000
  141.2026  133.6626  156.6014 LP  0  0  0  0  0  0  0  0  0  0  0  0  # atno 17395 bound_to 11000

$$$$
