AV-unprocessed.smi:658|AV-procd|sdf|3237|dock9
  -GOLD-   22720 0183D 1   1.00000     0.00000
 Structure written by MMmdl.
 37 37  0  0  0  0  0  0  0  0  3 V2000
  144.2430  136.1436  152.2056 C   0  0  0  0  0  0  0  0  0  0  0  0
  145.6983  136.0226  151.7132 C   0  0  1  0  0  0  0  0  0  0  0  0
  146.5990  136.8914  152.5072 N   0  3  0  0  0  0  0  0  0  0  0  0
  146.4080  138.3444  152.3242 C   0  0  0  0  0  0  0  0  0  0  0  0
  147.3276  139.1320  153.2628 C   0  0  0  0  0  0  0  0  0  0  0  0
  147.2592  140.6455  153.0164 C   0  0  0  0  0  0  0  0  0  0  0  0
  148.2071  141.5859  154.2893 S   0  0  0  0  0  0  0  0  0  0  0  0
  147.8085  143.1008  153.9013 N   0  5  0  0  0  0  0  0  0  0  0  0
  147.6626  141.1877  155.5964 O   0  0  0  0  0  0  0  0  0  0  0  0
  149.6244  141.3000  154.0206 O   0  0  0  0  0  0  0  0  0  0  0  0
  146.1994  134.5545  151.7165 C   0  0  1  0  0  0  0  0  0  0  0  0
  146.1727  133.9133  153.1158 C   0  0  0  0  0  0  0  0  0  0  0  0
  145.5191  133.7181  150.7313 N   0  0  0  0  0  0  0  0  0  0  0  0
  145.8406  132.4464  150.2958 C   0  0  0  0  0  0  0  0  0  0  0  0
  144.8915  132.0704  149.3897 C   0  0  0  0  0  0  0  0  0  0  0  0
  144.0132  133.1877  149.3372 C   0  0  0  0  0  0  0  0  0  0  0  0
  144.3878  134.1674  150.1434 N   0  0  0  0  0  0  0  0  0  0  0  0
  143.5902  135.4595  151.6630 H   0  0  0  0  0  0  0  0  0  0  0  0
  143.8473  137.1475  152.0539 H   0  0  0  0  0  0  0  0  0  0  0  0
  144.1560  135.9114  153.2676 H   0  0  0  0  0  0  0  0  0  0  0  0
  145.7307  136.3683  150.6788 H   0  0  0  0  0  0  0  0  0  0  0  0
  146.4934  136.6649  153.4859 H   0  0  0  0  0  0  0  0  0  0  0  0
  146.6205  138.6101  151.2879 H   0  0  0  0  0  0  0  0  0  0  0  0
  145.3698  138.6102  152.5223 H   0  0  0  0  0  0  0  0  0  0  0  0
  147.0541  138.9215  154.2976 H   0  0  0  0  0  0  0  0  0  0  0  0
  148.3548  138.7876  153.1375 H   0  0  0  0  0  0  0  0  0  0  0  0
  147.6947  140.8825  152.0456 H   0  0  0  0  0  0  0  0  0  0  0  0
  146.2324  141.0121  153.0118 H   0  0  0  0  0  0  0  0  0  0  0  0
  148.2061  143.7278  154.6111 H   0  0  0  0  0  0  0  0  0  0  0  0
  147.2522  134.5838  151.4290 H   0  0  0  0  0  0  0  0  0  0  0  0
  146.7611  134.4973  153.8238 H   0  0  0  0  0  0  0  0  0  0  0  0
  146.5953  132.9081  153.0916 H   0  0  0  0  0  0  0  0  0  0  0  0
  145.1605  133.8363  153.5132 H   0  0  0  0  0  0  0  0  0  0  0  0
  146.7084  131.9172  150.6608 H   0  0  0  0  0  0  0  0  0  0  0  0
  144.8324  131.1381  148.8476 H   0  0  0  0  0  0  0  0  0  0  0  0
  143.1195  133.3142  148.7441 H   0  0  0  0  0  0  0  0  0  0  0  0
  147.5474  136.6804  152.2314 H   0  0  0  0  0  0  0  0  0  0  0  0
  1  2  1  0  0  0  0
  1 18  1  0  0  0  0
  1 19  1  0  0  0  0
  1 20  1  0  0  0  0
  2  3  1  0  0  0  0
  2 11  1  0  0  0  0
  2 21  1  0  0  0  0
  3  4  1  0  0  0  0
  3 22  1  0  0  0  0
  3 37  1  0  0  0  0
  4  5  1  0  0  0  0
  4 23  1  0  0  0  0
  4 24  1  0  0  0  0
  5  6  1  0  0  0  0
  5 25  1  0  0  0  0
  5 26  1  0  0  0  0
  6  7  1  0  0  0  0
  6 27  1  0  0  0  0
  6 28  1  0  0  0  0
  7  8  1  0  0  0  0
  7  9  2  0  0  0  0
  7 10  2  0  0  0  0
  8 29  1  0  0  0  0
 11 12  1  0  0  0  0
 11 13  1  0  0  0  0
 11 30  1  0  0  0  0
 12 31  1  0  0  0  0
 12 32  1  0  0  0  0
 12 33  1  0  0  0  0
 13 17  1  0  0  0  0
 13 14  1  0  0  0  0
 14 15  2  0  0  0  0
 14 34  1  0  0  0  0
 15 16  1  0  0  0  0
 15 35  1  0  0  0  0
 16 17  2  0  0  0  0
 16 36  1  0  0  0  0
M  CHG  1   3   1
M  CHG  1   8  -1
M  END
> <s_m_source_file>
AV-unprocessed.smi

> <i_m_source_file_index>
658

> <i_lp_mmshare_version>
43012

> <i_f3d_flags>
0

> <s_epik_input>
bjFbY0hdW2NIXVtjSF1uMVtDQEBIXShbQ0gzXSlbQ0BIXShbQ0gzXSlbTkhdW0NIMl1bQ0gyXVtDSDJdUyg9TykoPU8pW05IMl0=

> <s_epik_cmdline>
J2VwaWtfcHl0aG9uJywgJy1waCcsICc3LjAnLCAnLXRuJywgJzgnLCAnLW1hJywgJzIwMCcsICctbWV0YWxfYmluZGluZycsICctaW1hZScsICc8aW5maWxlLm1hZT4nLCAnLW9tYWUnLCAnPG91dGZpbGUubWFlPic=

> <r_lp_tautomer_probability>
1

> <r_epik_Ionization_Penalty>
4.63642

> <r_epik_Ionization_Penalty_Charging>
4.63641

> <r_epik_Ionization_Penalty_Neutral>
1.08396e-05

> <r_epik_State_Penalty>
4.63466

> <r_epik_Charging_Adjusted_Penalty>
9.27106

> <i_epik_Tot_Q>
0

> <i_epik_Tot_abs_Q>
2

> <r_epik_Metal_State_Penalty>
0.890424

> <b_epik_Metal_Only>
1

> <s_lp_Force_Field>
OPLS_2005

> <r_lp_Energy>
1.41706

> <b_lp_Chiralities_Consistent>
1

> <s_lp_Variant>
AV-unprocessed.smi:658-8

> <Gold.Version>
5.8.1

> <Gold.Id.Protein>
6NUR|6NUR_protein|mol2

> <Gold.PLP.Fitness>
49.5131

> <Gold.PLP.PLP>
-32.5466

> <Gold.PLP.part.hbond>
-5.6616

> <Gold.PLP.part.metal>
0.0000

> <Gold.PLP.part.buried>
-0.6759

> <Gold.PLP.part.nonpolar>
-27.0157

> <Gold.PLP.part.repulsive>
0.5015

> <Gold.PLP.ligand.clash>
0.0000

> <Gold.PLP.ligand.torsion>
0.3867

> <Gold.PLP.Chemscore.Hbond>
3.8502

> <Gold.PLP.Chemscore.CHOScore>
1.9775

> <Gold.PLP.Chemscore.Metal>
0.0000

> <Gold.Chemscore.Hbonds>
donor molecule, donor type, donor heavy atom, donor atom, acceptor molecule, acceptor atom, score
      L1  H     3    37       P1  7948  1.89
      L1  H     8    29       P1  8028  1.00
      P1  H  7989  7998       L1    10  0.28
      P1  H  8011  8017       L1    10  0.68
      L1  C    14    34       P1 10747  1.00
      L1  C    16    36       P1 10186  0.91

> <Gold.PLP.Chemscore.Internal.Correction>
0.2567

> <Gold.Rescore>
     Score         DG    S(hbond)    S(metal)    S(lipo)     H(rot)  DE(clash)    DE(int)     intcor
     12.55     -14.86       2.79        0.00      67.07       3.04       0.49       1.82       ----

> <Gold.Chemscore.Fitness>
12.5489

> <Gold.Chemscore.DG>
-14.8582

> <Gold.Chemscore.ZeroCoef>
-5.4800

> <Gold.Chemscore.Hbond>
2.7893

> <Gold.Chemscore.Metal>
0.0000

> <Gold.Chemscore.Lipo>
67.0655

> <Gold.Chemscore.Internal_Hbond>
0.0000

> <Gold.Chemscore.DEClash>
0.4923

> <Gold.Chemscore.DEInternal>
1.8170

> <Gold.Chemscore.Rot>
3.0409

> <Gold.Chemscore.Internal.Correction>
   9.000000E+99

> <Gold.Chemscore.Hbonds>
donor molecule, donor type, donor heavy atom, donor atom, acceptor molecule, acceptor atom, score
      L1  H     3    37       P1  7948  0.90
      L1  H     8    29       P1  8028  0.81
      P1  H  7989  7998       L1    10  0.27
      P1  H  8011  8017       L1    10  0.12

> <Gold.Chemscore.Hbond.Weighted>
-9.3164

> <Gold.Chemscore.Metal.Weighted>
-0.0000

> <Gold.Chemscore.Lipo.Weighted>
-7.8467

> <Gold.Chemscore.Internal_Hbond.Weighted>
0.0000

> <Gold.Chemscore.DEClash.Weighted>
0.4923

> <Gold.Chemscore.DEInternal.Weighted>
1.8170

> <Gold.Chemscore.Rot.Weighted>
7.7848

> <Gold.Chemscore.Internal.Correction.Weighted>
   9.000000E+99

> <Gold.Protein.RotatedTorsions>
[ 6907 6896 6895 6894 ] final -136.05 input  -60.11 | X-H torsion
[ 7974 7965 7964 7962 ] final  167.42 input  175.53 | X-H torsion
[ 8008 7997 7996 7995 ] final  173.93 input   59.86 | X-H torsion
[ 10167 10162 10161 10158 ] final  138.45 input  -65.29 | X-H torsion
[ 10718 10713 10712 10709 ] final   26.52 input   66.30 | X-H torsion
[ 10763 10752 10751 10750 ] final -160.26 input  -60.55 | X-H torsion
[ 11005 11000 10999 10996 ] final  118.95 input  -57.11 | X-H torsion

> <Gold.Protein.ActiveResidues>
 VAL166  LYS551  ARG553  GLY616  TRP617  ASP618  TYR619  PRO620  LYS621  CYS622 
 ASP623  PHE694  ASN695  SER759  ASP760  ASP761  ALA762  ILE779  LEU786  VAL792 
 PHE793  MET794  SER795  GLU796  ALA797  LYS798  CYS799  TRP800  GLU811  SER814 

> <Gold.Protein.RotatedAtoms>
  151.0053  133.6017  159.2689 H   0  0  0  0  0  0  0  0  0  0  0  0  # atno 6907 bound_to 6896
  151.3189  135.0812  159.9308 H   0  0  0  0  0  0  0  0  0  0  0  0  # atno 6908 bound_to 6896
  152.5285  133.9704  159.7813 H   0  0  0  0  0  0  0  0  0  0  0  0  # atno 6909 bound_to 6896
  144.7425  139.8758  143.6392 H   0  0  0  0  0  0  0  0  0  0  0  0  # atno 7974 bound_to 7965
  156.1025  140.1447  156.9448 H   0  0  0  0  0  0  0  0  0  0  0  0  # atno 8008 bound_to 7997
  154.4712  140.0909  156.7194 H   0  0  0  0  0  0  0  0  0  0  0  0  # atno 8009 bound_to 7997
  155.4735  140.3442  155.4331 H   0  0  0  0  0  0  0  0  0  0  0  0  # atno 8010 bound_to 7997
  139.5110  144.6353  151.5713 H   0  0  0  0  0  0  0  0  0  0  0  0  # atno 10167 bound_to 10162
  157.2079  130.6920  149.6216 H   0  0  0  0  0  0  0  0  0  0  0  0  # atno 10718 bound_to 10713
  154.7405  135.3067  154.8736 H   0  0  0  0  0  0  0  0  0  0  0  0  # atno 10763 bound_to 10752
  153.9551  135.6759  153.4748 H   0  0  0  0  0  0  0  0  0  0  0  0  # atno 10764 bound_to 10752
  153.1005  135.4914  154.8782 H   0  0  0  0  0  0  0  0  0  0  0  0  # atno 10765 bound_to 10752
  139.9128  134.9624  156.7582 H   0  0  0  0  0  0  0  0  0  0  0  0  # atno 11005 bound_to 11000
  146.1247  139.4271  143.0206 LP  0  0  0  0  0  0  0  0  0  0  0  0  # atno 17320 bound_to 7965
  145.7252  141.0061  143.1381 LP  0  0  0  0  0  0  0  0  0  0  0  0  # atno 17321 bound_to 7965
  140.6099  143.9455  150.6446 LP  0  0  0  0  0  0  0  0  0  0  0  0  # atno 17342 bound_to 10162
  140.2694  143.3467  152.1252 LP  0  0  0  0  0  0  0  0  0  0  0  0  # atno 17343 bound_to 10162
  155.9693  130.4561  150.5912 LP  0  0  0  0  0  0  0  0  0  0  0  0  # atno 17370 bound_to 10713
  157.3702  131.0764  151.1564 LP  0  0  0  0  0  0  0  0  0  0  0  0  # atno 17371 bound_to 10713
  140.6719  133.9552  155.7861 LP  0  0  0  0  0  0  0  0  0  0  0  0  # atno 17394 bound_to 11000
  141.0571  134.0400  157.3707 LP  0  0  0  0  0  0  0  0  0  0  0  0  # atno 17395 bound_to 11000

$$$$
