AV-unprocessed.smi:40|AV-procd|sdf|380|dock9
  -GOLD-   2262016233D 1   1.00000     0.00000
 Structure written by MMmdl.
 47 48  0  0  0  0  0  0  0  0  1 V2000
  152.1627  144.8644  159.9547 C   0  0  0  0  0  0  0  0  0  0  0  0
  151.8440  143.9135  161.1135 C   0  0  0  0  0  0  0  0  0  0  0  0
  152.5682  142.5666  160.9831 C   0  0  0  0  0  0  0  0  0  0  0  0
  152.2377  141.8409  159.6687 C   0  0  0  0  0  0  0  0  0  0  0  0
  152.8592  140.4404  159.5815 C   0  0  0  0  0  0  0  0  0  0  0  0
  152.5583  139.8755  158.3164 O   0  0  0  0  0  0  0  0  0  0  0  0
  151.9575  138.6760  158.2256 C   0  0  0  0  0  0  0  0  0  0  0  0
  151.6851  137.9675  159.1945 O   0  0  0  0  0  0  0  0  0  0  0  0
  151.6407  138.3400  156.8465 N   0  0  0  0  0  0  0  0  0  0  0  0
  151.0394  137.2299  156.3500 C   0  0  0  0  0  0  0  0  0  0  0  0
  150.4825  136.3109  157.1211 N   0  0  0  0  0  0  0  0  0  0  0  0
  149.8554  135.1866  156.6558 C   0  0  0  0  0  0  0  0  0  0  0  0
  149.4481  134.3473  157.4568 O   0  0  0  0  0  0  0  0  0  0  0  0
  149.7198  135.0446  155.2470 N   0  0  0  0  0  0  0  0  0  0  0  0
  149.0919  133.7921  154.6342 C   0  0  1  0  0  0  0  0  0  0  0  0
  148.0789  134.1524  153.7360 O   0  0  0  0  0  0  0  0  0  0  0  0
  148.5871  134.2030  152.4133 C   0  0  2  0  0  0  0  0  0  0  0  0
  147.4612  134.2805  151.3715 C   0  0  0  0  0  0  0  0  0  0  0  0
  149.4683  132.9565  152.3805 C   0  0  2  0  0  0  0  0  0  0  0  0
  148.6852  131.7918  152.1744 O   0  0  0  0  0  0  0  0  0  0  0  0
  150.1131  133.0026  153.7657 C   0  0  2  0  0  0  0  0  0  0  0  0
  150.4075  131.7145  154.2739 O   0  0  0  0  0  0  0  0  0  0  0  0
  150.3529  135.9733  154.4278 C   0  0  0  0  0  0  0  0  0  0  0  0
  150.9836  137.0629  154.9161 C   0  0  0  0  0  0  0  0  0  0  0  0
  151.5545  137.9548  154.0877 F   0  0  0  0  0  0  0  0  0  0  0  0
  148.6877  133.2393  155.4831 H   0  0  0  0  0  0  0  0  0  0  0  0
  149.2158  135.0910  152.3235 H   0  0  0  0  0  0  0  0  0  0  0  0
  150.2144  133.0096  151.5869 H   0  0  0  0  0  0  0  0  0  0  0  0
  151.0408  133.5634  153.6582 H   0  0  0  0  0  0  0  0  0  0  0  0
  151.6338  145.8105  160.0717 H   0  0  0  0  0  0  0  0  0  0  0  0
  151.8646  144.4328  158.9986 H   0  0  0  0  0  0  0  0  0  0  0  0
  153.2297  145.0830  159.9068 H   0  0  0  0  0  0  0  0  0  0  0  0
  152.1180  144.3882  162.0563 H   0  0  0  0  0  0  0  0  0  0  0  0
  150.7667  143.7469  161.1525 H   0  0  0  0  0  0  0  0  0  0  0  0
  153.6432  142.7368  161.0473 H   0  0  0  0  0  0  0  0  0  0  0  0
  152.3076  141.9279  161.8277 H   0  0  0  0  0  0  0  0  0  0  0  0
  151.1555  141.7532  159.5699 H   0  0  0  0  0  0  0  0  0  0  0  0
  152.5754  142.4386  158.8213 H   0  0  0  0  0  0  0  0  0  0  0  0
  153.9400  140.4919  159.7190 H   0  0  0  0  0  0  0  0  0  0  0  0
  152.4560  139.8076  160.3736 H   0  0  0  0  0  0  0  0  0  0  0  0
  151.9264  139.0399  156.1774 H   0  0  0  0  0  0  0  0  0  0  0  0
  147.8629  134.2478  150.3585 H   0  0  0  0  0  0  0  0  0  0  0  0
  146.9035  135.2109  151.4783 H   0  0  0  0  0  0  0  0  0  0  0  0
  146.7514  133.4603  151.4799 H   0  0  0  0  0  0  0  0  0  0  0  0
  149.0181  131.3409  151.4134 H   0  0  0  0  0  0  0  0  0  0  0  0
  149.6483  131.1639  154.1581 H   0  0  0  0  0  0  0  0  0  0  0  0
  150.3628  135.8388  153.3565 H   0  0  0  0  0  0  0  0  0  0  0  0
  1  2  1  0  0  0  0
  1 30  1  0  0  0  0
  1 31  1  0  0  0  0
  1 32  1  0  0  0  0
  2  3  1  0  0  0  0
  2 33  1  0  0  0  0
  2 34  1  0  0  0  0
  3  4  1  0  0  0  0
  3 35  1  0  0  0  0
  3 36  1  0  0  0  0
  4  5  1  0  0  0  0
  4 37  1  0  0  0  0
  4 38  1  0  0  0  0
  5  6  1  0  0  0  0
  5 39  1  0  0  0  0
  5 40  1  0  0  0  0
  6  7  1  0  0  0  0
  7  8  2  0  0  0  0
  7  9  1  0  0  0  0
  9 10  1  0  0  0  0
  9 41  1  0  0  0  0
 10 24  1  0  0  0  0
 10 11  2  0  0  0  0
 11 12  1  0  0  0  0
 12 13  2  0  0  0  0
 12 14  1  0  0  0  0
 14 15  1  0  0  0  0
 14 23  1  0  0  0  0
 15 26  1  0  0  0  0
 15 21  1  0  0  0  0
 15 16  1  0  0  0  0
 16 17  1  0  0  0  0
 17 27  1  0  0  0  0
 17 18  1  0  0  0  0
 17 19  1  0  0  0  0
 18 42  1  0  0  0  0
 18 43  1  0  0  0  0
 18 44  1  0  0  0  0
 19 28  1  0  0  0  0
 19 20  1  0  0  0  0
 19 21  1  0  0  0  0
 20 45  1  0  0  0  0
 21 29  1  0  0  0  0
 21 22  1  0  0  0  0
 22 46  1  0  0  0  0
 23 24  2  0  0  0  0
 23 47  1  0  0  0  0
 24 25  1  0  0  0  0
M  END
> <s_m_source_file>
AV-unprocessed.smi

> <i_m_source_file_index>
40

> <i_lp_mmshare_version>
43012

> <i_f3d_flags>
0

> <s_epik_input>
W0NIM11bQ0gyXVtDSDJdW0NIMl1bQ0gyXU9DKD1PKVtOSF1jMW5jKD1PKW4oW2NIXWMxRilbQ0BASF0yT1tDQEhdKFtDSDNdKVtDQEBIXShbT0hdKVtDQEhdMltPSF0=

> <s_epik_cmdline>
J2VwaWtfcHl0aG9uJywgJy1waCcsICc3LjAnLCAnLXRuJywgJzgnLCAnLW1hJywgJzIwMCcsICctbWV0YWxfYmluZGluZycsICctaW1hZScsICc8aW5maWxlLm1hZT4nLCAnLW9tYWUnLCAnPG91dGZpbGUubWFlPic=

> <r_lp_tautomer_probability>
1

> <r_epik_Ionization_Penalty>
2.29506e-06

> <r_epik_Ionization_Penalty_Charging>
8.26867e-09

> <r_epik_Ionization_Penalty_Neutral>
2.2868e-06

> <r_epik_State_Penalty>
-0

> <r_epik_Charging_Adjusted_Penalty>
8.26867e-09

> <i_epik_Tot_Q>
0

> <i_epik_Tot_abs_Q>
0

> <r_epik_Metal_State_Penalty>
-0

> <b_epik_Metal_Only>
0

> <s_epik_Chemistry_Notes>
This compound has an ester and may undergo hydrolysis at high or low pH. This compound contains an acetal/aminal-like group ( X-CH(R)-Y where X, Y are N, S, or O) that may be acid/base labile, releasing an aldehyde.

> <s_lp_Force_Field>
OPLS_2005

> <r_lp_Energy>
41.2702

> <b_lp_Chiralities_Consistent>
1

> <s_lp_Variant>
AV-unprocessed.smi:40-14

> <Gold.Version>
5.8.1

> <Gold.Id.Protein>
6NUR|6NUR_protein|mol2

> <Gold.PLP.Fitness>
45.9742

> <Gold.PLP.PLP>
-37.8028

> <Gold.PLP.part.hbond>
-2.2462

> <Gold.PLP.part.metal>
0.0000

> <Gold.PLP.part.buried>
-3.1848

> <Gold.PLP.part.nonpolar>
-32.2265

> <Gold.PLP.part.repulsive>
0.0910

> <Gold.PLP.ligand.clash>
0.0000

> <Gold.PLP.ligand.torsion>
0.4716

> <Gold.PLP.Chemscore.Hbond>
1.9913

> <Gold.PLP.Chemscore.CHOScore>
0.9993

> <Gold.PLP.Chemscore.Metal>
0.0000

> <Gold.Chemscore.Hbonds>
donor molecule, donor type, donor heavy atom, donor atom, acceptor molecule, acceptor atom, score
      L1  H    20    45       P1 10747  0.19
      P1  H  6896  6909       L1    13  0.42

> <Gold.PLP.Chemscore.Internal.Correction>
0.1431

> <Gold.Rescore>
     Score         DG    S(hbond)    S(metal)    S(lipo)     H(rot)  DE(clash)    DE(int)     intcor
      9.56     -12.58       1.95        0.00      85.94       3.70       1.28       1.74       ----

> <Gold.Chemscore.Fitness>
9.5568

> <Gold.Chemscore.DG>
-12.5782

> <Gold.Chemscore.ZeroCoef>
-5.4800

> <Gold.Chemscore.Hbond>
1.9474

> <Gold.Chemscore.Metal>
0.0000

> <Gold.Chemscore.Lipo>
85.9404

> <Gold.Chemscore.Internal_Hbond>
0.0000

> <Gold.Chemscore.DEClash>
1.2774

> <Gold.Chemscore.DEInternal>
1.7440

> <Gold.Chemscore.Rot>
3.6957

> <Gold.Chemscore.Internal.Correction>
   9.000000E+99

> <Gold.Chemscore.Hbonds>
donor molecule, donor type, donor heavy atom, donor atom, acceptor molecule, acceptor atom, score
      L1  H    20    45       P1 10747  0.16
      P1  H  6896  6909       L1    13  0.37

> <Gold.Chemscore.Hbond.Weighted>
-6.5042

> <Gold.Chemscore.Metal.Weighted>
-0.0000

> <Gold.Chemscore.Lipo.Weighted>
-10.0550

> <Gold.Chemscore.Internal_Hbond.Weighted>
0.0000

> <Gold.Chemscore.DEClash.Weighted>
1.2774

> <Gold.Chemscore.DEInternal.Weighted>
1.7440

> <Gold.Chemscore.Rot.Weighted>
9.4610

> <Gold.Chemscore.Internal.Correction.Weighted>
   9.000000E+99

> <Gold.Protein.RotatedTorsions>
[ 6907 6896 6895 6894 ] final   23.34 input  -60.11 | X-H torsion
[ 7974 7965 7964 7962 ] final  -79.06 input  175.53 | X-H torsion
[ 8008 7997 7996 7995 ] final  -48.21 input   59.86 | X-H torsion
[ 10167 10162 10161 10158 ] final  -13.37 input  -65.29 | X-H torsion
[ 10718 10713 10712 10709 ] final  161.34 input   66.30 | X-H torsion
[ 10763 10752 10751 10750 ] final   89.36 input  -60.55 | X-H torsion
[ 11005 11000 10999 10996 ] final  -70.32 input  -57.11 | X-H torsion

> <Gold.Protein.ActiveResidues>
 VAL166  LYS551  ARG553  GLY616  TRP617  ASP618  TYR619  PRO620  LYS621  CYS622 
 ASP623  PHE694  ASN695  SER759  ASP760  ASP761  ALA762  ILE779  LEU786  VAL792 
 PHE793  MET794  SER795  GLU796  ALA797  LYS798  CYS799  TRP800  GLU811  SER814 

> <Gold.Protein.RotatedAtoms>
  151.9409  135.0214  160.0535 H   0  0  0  0  0  0  0  0  0  0  0  0  # atno 6907 bound_to 6896
  152.2037  133.4855  159.5081 H   0  0  0  0  0  0  0  0  0  0  0  0  # atno 6908 bound_to 6896
  150.6960  134.1474  159.4170 H   0  0  0  0  0  0  0  0  0  0  0  0  # atno 6909 bound_to 6896
  145.5782  140.9453  143.1358 H   0  0  0  0  0  0  0  0  0  0  0  0  # atno 7974 bound_to 7965
  154.4026  140.1327  156.4301 H   0  0  0  0  0  0  0  0  0  0  0  0  # atno 8008 bound_to 7997
  155.7559  140.3487  155.5153 H   0  0  0  0  0  0  0  0  0  0  0  0  # atno 8009 bound_to 7997
  155.8905  140.1002  157.1412 H   0  0  0  0  0  0  0  0  0  0  0  0  # atno 8010 bound_to 7997
  140.7181  143.5433  150.9384 H   0  0  0  0  0  0  0  0  0  0  0  0  # atno 10167 bound_to 10162
  157.1378  131.0533  151.2341 H   0  0  0  0  0  0  0  0  0  0  0  0  # atno 10718 bound_to 10713
  153.1863  135.4473  155.0092 H   0  0  0  0  0  0  0  0  0  0  0  0  # atno 10763 bound_to 10752
  154.8062  135.3275  154.7427 H   0  0  0  0  0  0  0  0  0  0  0  0  # atno 10764 bound_to 10752
  153.7886  135.6972  153.4930 H   0  0  0  0  0  0  0  0  0  0  0  0  # atno 10765 bound_to 10752
  141.1572  133.6787  156.6734 H   0  0  0  0  0  0  0  0  0  0  0  0  # atno 11005 bound_to 11000
  144.7406  139.7460  143.7312 LP  0  0  0  0  0  0  0  0  0  0  0  0  # atno 17320 bound_to 7965
  146.1735  139.4896  142.9912 LP  0  0  0  0  0  0  0  0  0  0  0  0  # atno 17321 bound_to 7965
  139.9156  143.6667  152.3107 LP  0  0  0  0  0  0  0  0  0  0  0  0  # atno 17342 bound_to 10162
  139.7066  144.7627  151.1183 LP  0  0  0  0  0  0  0  0  0  0  0  0  # atno 17343 bound_to 10162
  157.4334  130.7503  149.7009 LP  0  0  0  0  0  0  0  0  0  0  0  0  # atno 17370 bound_to 10713
  155.9794  130.4040  150.3586 LP  0  0  0  0  0  0  0  0  0  0  0  0  # atno 17371 bound_to 10713
  140.3157  134.8049  157.4212 LP  0  0  0  0  0  0  0  0  0  0  0  0  # atno 17394 bound_to 11000
  140.1140  134.5308  155.8241 LP  0  0  0  0  0  0  0  0  0  0  0  0  # atno 17395 bound_to 11000

$$$$
