AV-unprocessed.smi:1901|AV-procd|sdf|7717|dock2
  -GOLD-   22720 9453D 1   1.00000     0.00000
 Structure written by MMmdl.
 28 29  0  0  0  0  0  0  0  0  1 V2000
  150.9983  140.6765  155.4888 O   0  0  0  0  0  0  0  0  0  0  0  0
  150.1391  141.5265  155.7248 C   0  0  0  0  0  0  0  0  0  0  0  0
  150.3889  142.6710  156.3774 N   0  0  0  0  0  0  0  0  0  0  0  0
  151.6890  143.0842  156.8969 C   0  0  0  0  0  0  0  0  0  0  0  0
  151.6029  143.5397  158.3657 C   0  0  1  0  0  0  0  0  0  0  0  0
  152.2232  144.8976  158.6218 C   0  0  0  0  0  0  0  0  0  0  0  0
  151.6091  145.2798  159.9653 C   0  0  0  0  0  0  0  0  0  0  0  0
  150.3263  144.6609  159.9984 O   0  0  0  0  0  0  0  0  0  0  0  0
  150.1866  143.7680  158.8975 C   0  0  0  0  0  0  0  0  0  0  0  0
  148.8448  141.4425  155.3706 N   0  0  0  0  0  0  0  0  0  0  0  0
  148.1968  140.4042  154.6516 C   0  0  0  0  0  0  0  0  0  0  0  0
  146.9840  140.5130  154.0964 N   0  0  0  0  0  0  0  0  0  0  0  0
  146.5948  139.3362  153.4516 C   0  0  0  0  0  0  0  0  0  0  0  0
  147.5297  138.3337  153.5270 C   0  0  0  0  0  0  0  0  0  0  0  0
  148.9447  138.8311  154.4160 S   0  0  0  0  0  0  0  0  0  0  0  0
  149.6204  143.3084  156.5263 H   0  0  0  0  0  0  0  0  0  0  0  0
  152.3591  142.2276  156.8219 H   0  0  0  0  0  0  0  0  0  0  0  0
  152.1265  143.8670  156.2746 H   0  0  0  0  0  0  0  0  0  0  0  0
  152.1031  142.8078  159.0024 H   0  0  0  0  0  0  0  0  0  0  0  0
  153.3132  144.8744  158.6456 H   0  0  0  0  0  0  0  0  0  0  0  0
  151.9133  145.6084  157.8544 H   0  0  0  0  0  0  0  0  0  0  0  0
  152.2070  144.8794  160.7849 H   0  0  0  0  0  0  0  0  0  0  0  0
  151.5357  146.3596  160.0958 H   0  0  0  0  0  0  0  0  0  0  0  0
  149.5638  144.2502  158.1428 H   0  0  0  0  0  0  0  0  0  0  0  0
  149.6966  142.8416  159.1978 H   0  0  0  0  0  0  0  0  0  0  0  0
  148.2545  142.2153  155.6405 H   0  0  0  0  0  0  0  0  0  0  0  0
  145.6328  139.2990  152.9624 H   0  0  0  0  0  0  0  0  0  0  0  0
  147.4718  137.3374  153.1149 H   0  0  0  0  0  0  0  0  0  0  0  0
  1  2  2  0  0  0  0
  2  3  1  0  0  0  0
  2 10  1  0  0  0  0
  3  4  1  0  0  0  0
  3 16  1  0  0  0  0
  4  5  1  0  0  0  0
  4 17  1  0  0  0  0
  4 18  1  0  0  0  0
  5  9  1  0  0  0  0
  5  6  1  0  0  0  0
  5 19  1  0  0  0  0
  6  7  1  0  0  0  0
  6 20  1  0  0  0  0
  6 21  1  0  0  0  0
  7  8  1  0  0  0  0
  7 22  1  0  0  0  0
  7 23  1  0  0  0  0
  8  9  1  0  0  0  0
  9 24  1  0  0  0  0
  9 25  1  0  0  0  0
 10 11  1  0  0  0  0
 10 26  1  0  0  0  0
 11 15  1  0  0  0  0
 11 12  2  0  0  0  0
 12 13  1  0  0  0  0
 13 14  2  0  0  0  0
 13 27  1  0  0  0  0
 14 15  1  0  0  0  0
 14 28  1  0  0  0  0
M  END
> <s_m_source_file>
AV-unprocessed.smi

> <i_m_source_file_index>
1901

> <i_lp_mmshare_version>
43012

> <i_f3d_flags>
0

> <s_epik_input>
czFbY0hdW2NIXW5jMVtOSF1DKD1PKVtOSF1bQ0gyXVtDQEBIXTJbQ0gyXVtDSDJdT1tDSDJdMg==

> <s_epik_cmdline>
J2VwaWtfcHl0aG9uJywgJy1waCcsICc3LjAnLCAnLXRuJywgJzgnLCAnLW1hJywgJzIwMCcsICctbWV0YWxfYmluZGluZycsICctaW1hZScsICc8aW5maWxlLm1hZT4nLCAnLW9tYWUnLCAnPG91dGZpbGUubWFlPic=

> <r_lp_tautomer_probability>
0.999

> <r_epik_Ionization_Penalty>
0.000365592

> <r_epik_Ionization_Penalty_Charging>
0

> <r_epik_Ionization_Penalty_Neutral>
0.000365592

> <r_epik_State_Penalty>
0.000177984

> <r_epik_Charging_Adjusted_Penalty>
0.000177984

> <i_epik_Tot_Q>
0

> <i_epik_Tot_abs_Q>
0

> <r_epik_Metal_State_Penalty>
0.00682492

> <b_epik_Metal_Only>
0

> <s_lp_Force_Field>
OPLS_2005

> <r_lp_Energy>
17.1136

> <b_lp_Chiralities_Consistent>
1

> <s_lp_Variant>
AV-unprocessed.smi:1901-2

> <Gold.Version>
5.8.1

> <Gold.Id.Protein>
6NUR|6NUR_protein|mol2

> <Gold.PLP.Fitness>
40.3568

> <Gold.PLP.PLP>
-28.1649

> <Gold.PLP.part.hbond>
-3.0000

> <Gold.PLP.part.metal>
0.0000

> <Gold.PLP.part.buried>
-1.1467

> <Gold.PLP.part.nonpolar>
-23.2870

> <Gold.PLP.part.repulsive>
0.6855

> <Gold.PLP.ligand.clash>
0.0000

> <Gold.PLP.ligand.torsion>
0.7887

> <Gold.PLP.Chemscore.Hbond>
2.5880

> <Gold.PLP.Chemscore.CHOScore>
1.9995

> <Gold.PLP.Chemscore.Metal>
0.0000

> <Gold.Chemscore.Hbonds>
donor molecule, donor type, donor heavy atom, donor atom, acceptor molecule, acceptor atom, score
      L1  H     3    16       P1  8028  0.74
      P1  H  7989  7998       L1     1  0.72
      L1  C    13    27       P1 10175  1.00
      L1  C    14    28       P1  7948  0.98

> <Gold.PLP.Chemscore.Internal.Correction>
0.0067

> <Gold.Rescore>
     Score         DG    S(hbond)    S(metal)    S(lipo)     H(rot)  DE(clash)    DE(int)     intcor
     14.23     -17.85       1.97        0.00      78.16       1.32       1.63       1.99       ----

> <Gold.Chemscore.Fitness>
14.2253

> <Gold.Chemscore.DG>
-17.8472

> <Gold.Chemscore.ZeroCoef>
-5.4800

> <Gold.Chemscore.Hbond>
1.9739

> <Gold.Chemscore.Metal>
0.0000

> <Gold.Chemscore.Lipo>
78.1554

> <Gold.Chemscore.Internal_Hbond>
0.0000

> <Gold.Chemscore.DEClash>
1.6319

> <Gold.Chemscore.DEInternal>
1.9900

> <Gold.Chemscore.Rot>
1.3163

> <Gold.Chemscore.Internal.Correction>
   9.000000E+99

> <Gold.Chemscore.Hbonds>
donor molecule, donor type, donor heavy atom, donor atom, acceptor molecule, acceptor atom, score
      L1  H     3    16       P1  8028  0.74
      P1  H  7989  7998       L1     1  0.49

> <Gold.Chemscore.Hbond.Weighted>
-6.5929

> <Gold.Chemscore.Metal.Weighted>
-0.0000

> <Gold.Chemscore.Lipo.Weighted>
-9.1442

> <Gold.Chemscore.Internal_Hbond.Weighted>
0.0000

> <Gold.Chemscore.DEClash.Weighted>
1.6319

> <Gold.Chemscore.DEInternal.Weighted>
1.9900

> <Gold.Chemscore.Rot.Weighted>
3.3698

> <Gold.Chemscore.Internal.Correction.Weighted>
   9.000000E+99

> <Gold.Protein.RotatedTorsions>
[ 6907 6896 6895 6894 ] final  -83.75 input  -60.11 | X-H torsion
[ 7974 7965 7964 7962 ] final   95.20 input  175.53 | X-H torsion
[ 8008 7997 7996 7995 ] final  -56.84 input   59.86 | X-H torsion
[ 10167 10162 10161 10158 ] final -154.50 input  -65.29 | X-H torsion
[ 10718 10713 10712 10709 ] final   60.89 input   66.30 | X-H torsion
[ 10763 10752 10751 10750 ] final  -33.53 input  -60.55 | X-H torsion
[ 11005 11000 10999 10996 ] final  -70.05 input  -57.11 | X-H torsion

> <Gold.Protein.ActiveResidues>
 VAL166  LYS551  ARG553  GLY616  TRP617  ASP618  TYR619  PRO620  LYS621  CYS622 
 ASP623  PHE694  ASN695  SER759  ASP760  ASP761  ALA762  ILE779  LEU786  VAL792 
 PHE793  MET794  SER795  GLU796  ALA797  LYS798  CYS799  TRP800  GLU811  SER814 

> <Gold.Protein.RotatedAtoms>
  150.6882  134.3464  159.4889 H   0  0  0  0  0  0  0  0  0  0  0  0  # atno 6907 bound_to 6896
  152.1311  134.9131  160.0568 H   0  0  0  0  0  0  0  0  0  0  0  0  # atno 6908 bound_to 6896
  152.0301  133.3899  159.4330 H   0  0  0  0  0  0  0  0  0  0  0  0  # atno 6909 bound_to 6896
  145.4554  139.2290  143.3017 H   0  0  0  0  0  0  0  0  0  0  0  0  # atno 7974 bound_to 7965
  154.4245  140.1120  156.5702 H   0  0  0  0  0  0  0  0  0  0  0  0  # atno 8008 bound_to 7997
  155.6220  140.3495  155.4636 H   0  0  0  0  0  0  0  0  0  0  0  0  # atno 8009 bound_to 7997
  156.0016  140.1200  157.0531 H   0  0  0  0  0  0  0  0  0  0  0  0  # atno 8010 bound_to 7997
  139.7008  143.9266  152.2428 H   0  0  0  0  0  0  0  0  0  0  0  0  # atno 10167 bound_to 10162
  157.5787  130.8964  149.9392 H   0  0  0  0  0  0  0  0  0  0  0  0  # atno 10718 bound_to 10713
  153.8317  135.6865  153.4813 H   0  0  0  0  0  0  0  0  0  0  0  0  # atno 10763 bound_to 10752
  153.1507  135.4619  154.9630 H   0  0  0  0  0  0  0  0  0  0  0  0  # atno 10764 bound_to 10752
  154.7883  135.3293  154.7780 H   0  0  0  0  0  0  0  0  0  0  0  0  # atno 10765 bound_to 10752
  141.1566  133.6780  156.6694 H   0  0  0  0  0  0  0  0  0  0  0  0  # atno 11005 bound_to 11000
  146.2481  140.5317  142.8905 LP  0  0  0  0  0  0  0  0  0  0  0  0  # atno 17320 bound_to 7965
  144.8035  140.6258  143.6462 LP  0  0  0  0  0  0  0  0  0  0  0  0  # atno 17321 bound_to 7965
  139.9108  144.6857  150.8564 LP  0  0  0  0  0  0  0  0  0  0  0  0  # atno 17342 bound_to 10162
  140.7709  143.3445  151.2140 LP  0  0  0  0  0  0  0  0  0  0  0  0  # atno 17343 bound_to 10162
  156.0832  130.3671  150.0540 LP  0  0  0  0  0  0  0  0  0  0  0  0  # atno 17370 bound_to 10713
  156.8682  130.9515  151.3612 LP  0  0  0  0  0  0  0  0  0  0  0  0  # atno 17371 bound_to 10713
  140.3187  134.8026  157.4235 LP  0  0  0  0  0  0  0  0  0  0  0  0  # atno 17394 bound_to 11000
  140.1116  134.5338  155.8261 LP  0  0  0  0  0  0  0  0  0  0  0  0  # atno 17395 bound_to 11000

$$$$
