AV-unprocessed.smi:1900|AV-procd|sdf|7713|dock10
  -GOLD-   22720 9453D 1   1.00000     0.00000
 Structure written by MMmdl.
 43 44  0  0  0  0  0  0  0  0  1 V2000
  152.2667  138.4893  154.7642 C   0  0  0  0  0  0  0  0  0  0  0  0
  150.9332  139.1106  155.1921 C   0  0  2  0  0  0  0  0  0  0  0  0
  149.7311  138.4167  154.5262 C   0  0  0  0  0  0  0  0  0  0  0  0
  148.4724  139.0650  154.8679 N   0  0  0  0  0  0  0  0  0  0  0  0
  147.3348  138.3584  154.2787 C   0  0  0  0  0  0  0  0  0  0  0  0
  147.0911  138.6348  152.7838 C   0  0  0  0  0  0  0  0  0  0  0  0
  146.0916  137.6534  152.1456 C   0  0  0  0  0  0  0  0  0  0  0  0
  144.7145  138.0982  152.3240 N   0  0  0  0  0  0  0  0  0  0  0  0
  143.7142  137.3252  152.7715 C   0  0  0  0  0  0  0  0  0  0  0  0
  143.8569  136.1441  153.0888 O   0  0  0  0  0  0  0  0  0  0  0  0
  142.5576  138.0054  152.8269 N   0  0  0  0  0  0  0  0  0  0  0  0
  141.2958  137.5174  153.2495 C   0  0  0  0  0  0  0  0  0  0  0  0
  140.0093  138.1214  153.1335 C   0  0  0  0  0  0  0  0  0  0  0  0
  139.0672  137.3468  153.6530 N   0  0  0  0  0  0  0  0  0  0  0  0
  139.7365  136.2595  154.0974 N   0  0  0  0  0  0  0  0  0  0  0  0
  141.0941  136.3223  153.8728 C   0  0  0  0  0  0  0  0  0  0  0  0
  148.5367  140.4696  154.4699 C   0  0  0  0  0  0  0  0  0  0  0  0
  149.7415  141.2052  155.0884 C   0  0  1  0  0  0  0  0  0  0  0  0
  149.5653  141.4987  156.5882 C   0  0  0  0  0  0  0  0  0  0  0  0
  150.9495  140.4890  154.8245 O   0  0  0  0  0  0  0  0  0  0  0  0
  139.2577  135.4919  154.5467 H   0  0  0  0  0  0  0  0  0  0  0  0
  152.3111  137.4328  155.0296 H   0  0  0  0  0  0  0  0  0  0  0  0
  153.1033  138.9901  155.2516 H   0  0  0  0  0  0  0  0  0  0  0  0
  152.4115  138.5706  153.6866 H   0  0  0  0  0  0  0  0  0  0  0  0
  150.8476  139.0262  156.2758 H   0  0  0  0  0  0  0  0  0  0  0  0
  149.8628  138.4154  153.4428 H   0  0  0  0  0  0  0  0  0  0  0  0
  149.7038  137.3720  154.8378 H   0  0  0  0  0  0  0  0  0  0  0  0
  147.4569  137.2847  154.4283 H   0  0  0  0  0  0  0  0  0  0  0  0
  146.4275  138.6321  154.8191 H   0  0  0  0  0  0  0  0  0  0  0  0
  146.7621  139.6632  152.6372 H   0  0  0  0  0  0  0  0  0  0  0  0
  148.0431  138.5581  152.2577 H   0  0  0  0  0  0  0  0  0  0  0  0
  146.2886  137.5650  151.0771 H   0  0  0  0  0  0  0  0  0  0  0  0
  146.2094  136.6526  152.5649 H   0  0  0  0  0  0  0  0  0  0  0  0
  144.5096  139.0577  152.0868 H   0  0  0  0  0  0  0  0  0  0  0  0
  142.5820  138.9721  152.5376 H   0  0  0  0  0  0  0  0  0  0  0  0
  139.7242  139.0696  152.7031 H   0  0  0  0  0  0  0  0  0  0  0  0
  141.7732  135.5357  154.1667 H   0  0  0  0  0  0  0  0  0  0  0  0
  148.6013  140.5353  153.3828 H   0  0  0  0  0  0  0  0  0  0  0  0
  147.6256  140.9931  154.7572 H   0  0  0  0  0  0  0  0  0  0  0  0
  149.8401  142.1678  154.5859 H   0  0  0  0  0  0  0  0  0  0  0  0
  148.6984  142.1377  156.7579 H   0  0  0  0  0  0  0  0  0  0  0  0
  150.4387  142.0124  156.9900 H   0  0  0  0  0  0  0  0  0  0  0  0
  149.4150  140.5888  157.1688 H   0  0  0  0  0  0  0  0  0  0  0  0
  1  2  1  0  0  0  0
  1 22  1  0  0  0  0
  1 23  1  0  0  0  0
  1 24  1  0  0  0  0
  2 20  1  0  0  0  0
  2  3  1  0  0  0  0
  2 25  1  0  0  0  0
  3  4  1  0  0  0  0
  3 26  1  0  0  0  0
  3 27  1  0  0  0  0
  4  5  1  0  0  0  0
  4 17  1  0  0  0  0
  5  6  1  0  0  0  0
  5 28  1  0  0  0  0
  5 29  1  0  0  0  0
  6  7  1  0  0  0  0
  6 30  1  0  0  0  0
  6 31  1  0  0  0  0
  7  8  1  0  0  0  0
  7 32  1  0  0  0  0
  7 33  1  0  0  0  0
  8  9  1  0  0  0  0
  8 34  1  0  0  0  0
  9 10  2  0  0  0  0
  9 11  1  0  0  0  0
 11 12  1  0  0  0  0
 11 35  1  0  0  0  0
 12 16  2  0  0  0  0
 12 13  1  0  0  0  0
 13 14  2  0  0  0  0
 13 36  1  0  0  0  0
 14 15  1  0  0  0  0
 15 21  1  0  0  0  0
 15 16  1  0  0  0  0
 16 37  1  0  0  0  0
 17 18  1  0  0  0  0
 17 38  1  0  0  0  0
 17 39  1  0  0  0  0
 18 19  1  0  0  0  0
 18 20  1  0  0  0  0
 18 40  1  0  0  0  0
 19 41  1  0  0  0  0
 19 42  1  0  0  0  0
 19 43  1  0  0  0  0
M  END
> <s_m_source_file>
AV-unprocessed.smi

> <i_m_source_file_index>
1900

> <i_lp_mmshare_version>
43012

> <i_f3d_flags>
0

> <s_epik_input>
W0NIM11bQ0BASF0xW0NIMl1OKFtDSDJdW0NASF0oTzEpW0NIM10pW0NIMl1bQ0gyXVtDSDJdW05IXUMoPU8pW05IXWMyW2NIXW5bbkhdW2NIXTI=

> <s_epik_cmdline>
J2VwaWtfcHl0aG9uJywgJy1waCcsICc3LjAnLCAnLXRuJywgJzgnLCAnLW1hJywgJzIwMCcsICctbWV0YWxfYmluZGluZycsICctaW1hZScsICc8aW5maWxlLm1hZT4nLCAnLW9tYWUnLCAnPG91dGZpbGUubWFlPic=

> <r_lp_tautomer_probability>
0.5

> <r_epik_Ionization_Penalty>
0.594715

> <r_epik_Ionization_Penalty_Charging>
0

> <r_epik_Ionization_Penalty_Neutral>
0.594715

> <r_epik_State_Penalty>
0.608529

> <r_epik_Charging_Adjusted_Penalty>
0.608529

> <i_epik_Tot_Q>
0

> <i_epik_Tot_abs_Q>
0

> <r_epik_Metal_State_Penalty>
0.608528

> <b_epik_Metal_Only>
0

> <s_lp_Force_Field>
OPLS_2005

> <r_lp_Energy>
27.7437

> <b_lp_Chiralities_Consistent>
1

> <s_lp_Variant>
AV-unprocessed.smi:1900-5

> <Gold.Version>
5.8.1

> <Gold.Id.Protein>
6NUR|6NUR_protein|mol2

> <Gold.PLP.Fitness>
45.4045

> <Gold.PLP.PLP>
-34.4669

> <Gold.PLP.part.hbond>
-3.9089

> <Gold.PLP.part.metal>
0.0000

> <Gold.PLP.part.buried>
-2.9269

> <Gold.PLP.part.nonpolar>
-27.6915

> <Gold.PLP.part.repulsive>
0.5731

> <Gold.PLP.ligand.clash>
0.0000

> <Gold.PLP.ligand.torsion>
0.4132

> <Gold.PLP.Chemscore.Hbond>
2.9120

> <Gold.PLP.Chemscore.CHOScore>
0.9992

> <Gold.PLP.Chemscore.Metal>
0.0000

> <Gold.Chemscore.Hbonds>
donor molecule, donor type, donor heavy atom, donor atom, acceptor molecule, acceptor atom, score
      L1  H     8    34       P1 10175  0.96
      L1  H    11    35       P1 10175  0.90
      P1  H  7989  7998       L1    20  1.00
      L1  C    13    36       P1 10160  1.00

> <Gold.PLP.Chemscore.Internal.Correction>
0.0303

> <Gold.Rescore>
     Score         DG    S(hbond)    S(metal)    S(lipo)     H(rot)  DE(clash)    DE(int)     intcor
     17.00     -18.69       2.70        0.00      76.95       1.88       0.02       1.68       ----

> <Gold.Chemscore.Fitness>
16.9964

> <Gold.Chemscore.DG>
-18.6942

> <Gold.Chemscore.ZeroCoef>
-5.4800

> <Gold.Chemscore.Hbond>
2.7017

> <Gold.Chemscore.Metal>
0.0000

> <Gold.Chemscore.Lipo>
76.9486

> <Gold.Chemscore.Internal_Hbond>
0.0000

> <Gold.Chemscore.DEClash>
0.0192

> <Gold.Chemscore.DEInternal>
1.6786

> <Gold.Chemscore.Rot>
1.8799

> <Gold.Chemscore.Internal.Correction>
   9.000000E+99

> <Gold.Chemscore.Hbonds>
donor molecule, donor type, donor heavy atom, donor atom, acceptor molecule, acceptor atom, score
      L1  H     8    34       P1 10175  0.92
      L1  H    11    35       P1 10175  0.87
      P1  H  7989  7998       L1    20  0.77

> <Gold.Chemscore.Hbond.Weighted>
-9.0238

> <Gold.Chemscore.Metal.Weighted>
-0.0000

> <Gold.Chemscore.Lipo.Weighted>
-9.0030

> <Gold.Chemscore.Internal_Hbond.Weighted>
0.0000

> <Gold.Chemscore.DEClash.Weighted>
0.0192

> <Gold.Chemscore.DEInternal.Weighted>
1.6786

> <Gold.Chemscore.Rot.Weighted>
4.8126

> <Gold.Chemscore.Internal.Correction.Weighted>
   9.000000E+99

> <Gold.Protein.RotatedTorsions>
[ 6907 6896 6895 6894 ] final -100.67 input  -60.11 | X-H torsion
[ 7974 7965 7964 7962 ] final -138.65 input  175.53 | X-H torsion
[ 8008 7997 7996 7995 ] final -111.88 input   59.86 | X-H torsion
[ 10167 10162 10161 10158 ] final   44.03 input  -65.29 | X-H torsion
[ 10718 10713 10712 10709 ] final   98.89 input   66.30 | X-H torsion
[ 10763 10752 10751 10750 ] final -134.03 input  -60.55 | X-H torsion
[ 11005 11000 10999 10996 ] final  -14.31 input  -57.11 | X-H torsion

> <Gold.Protein.ActiveResidues>
 VAL166  LYS551  ARG553  GLY616  TRP617  ASP618  TYR619  PRO620  LYS621  CYS622 
 ASP623  PHE694  ASN695  SER759  ASP760  ASP761  ALA762  ILE779  LEU786  VAL792 
 PHE793  MET794  SER795  GLU796  ALA797  LYS798  CYS799  TRP800  GLU811  SER814 

> <Gold.Protein.RotatedAtoms>
  150.7124  134.0852  159.3911 H   0  0  0  0  0  0  0  0  0  0  0  0  # atno 6907 bound_to 6896
  151.8837  135.0441  160.0500 H   0  0  0  0  0  0  0  0  0  0  0  0  # atno 6908 bound_to 6896
  152.2547  133.5210  159.5383 H   0  0  0  0  0  0  0  0  0  0  0  0  # atno 6909 bound_to 6896
  144.8741  140.6411  143.5248 H   0  0  0  0  0  0  0  0  0  0  0  0  # atno 7974 bound_to 7965
  154.9967  140.0394  157.2343 H   0  0  0  0  0  0  0  0  0  0  0  0  # atno 8008 bound_to 7997
  154.7580  140.2779  155.6215 H   0  0  0  0  0  0  0  0  0  0  0  0  # atno 8009 bound_to 7997
  156.2898  140.2634  156.2351 H   0  0  0  0  0  0  0  0  0  0  0  0  # atno 8010 bound_to 7997
  140.3384  144.2501  150.6159 H   0  0  0  0  0  0  0  0  0  0  0  0  # atno 10167 bound_to 10162
  157.6887  131.0653  150.4865 H   0  0  0  0  0  0  0  0  0  0  0  0  # atno 10718 bound_to 10713
  154.8725  135.3747  154.4669 H   0  0  0  0  0  0  0  0  0  0  0  0  # atno 10763 bound_to 10752
  153.5332  135.7027  153.5678 H   0  0  0  0  0  0  0  0  0  0  0  0  # atno 10764 bound_to 10752
  153.3873  135.3981  155.1863 H   0  0  0  0  0  0  0  0  0  0  0  0  # atno 10765 bound_to 10752
  140.7851  133.8332  155.9328 H   0  0  0  0  0  0  0  0  0  0  0  0  # atno 11005 bound_to 11000
  145.4075  139.1586  143.4144 LP  0  0  0  0  0  0  0  0  0  0  0  0  # atno 17320 bound_to 7965
  146.2951  140.4177  142.8725 LP  0  0  0  0  0  0  0  0  0  0  0  0  # atno 17321 bound_to 7965
  140.5332  143.2239  151.8205 LP  0  0  0  0  0  0  0  0  0  0  0  0  # atno 17342 bound_to 10162
  139.4844  144.4694  151.9444 LP  0  0  0  0  0  0  0  0  0  0  0  0  # atno 17343 bound_to 10162
  156.5194  130.4158  149.6258 LP  0  0  0  0  0  0  0  0  0  0  0  0  # atno 17370 bound_to 10713
  156.3168  130.7259  151.2163 LP  0  0  0  0  0  0  0  0  0  0  0  0  # atno 17371 bound_to 10713
  140.9444  134.1859  157.4774 LP  0  0  0  0  0  0  0  0  0  0  0  0  # atno 17394 bound_to 11000
  139.8738  134.9885  156.5414 LP  0  0  0  0  0  0  0  0  0  0  0  0  # atno 17395 bound_to 11000

$$$$
