AV-unprocessed.smi:3331|AV-procd|sdf|12826|dock4
  -GOLD-   2272019203D 1   1.00000     0.00000
 Structure written by MMmdl.
 46 47  0  0  0  0  0  0  0  0  1 V2000
  152.8580  142.6468  159.6617 C   0  0  0  0  0  0  0  0  0  0  0  0
  152.2032  141.7758  158.5809 C   0  0  2  0  0  0  0  0  0  0  0  0
  150.7323  142.1849  158.3401 C   0  0  0  0  0  0  0  0  0  0  0  0
  149.9990  141.2437  157.3582 C   0  0  1  0  0  0  0  0  0  0  0  0
  150.3863  141.5164  155.8938 C   0  0  0  0  0  0  0  0  0  0  0  0
  150.2224  139.7719  157.7704 C   0  0  0  0  0  0  0  0  0  0  0  0
  151.6641  139.4925  157.8585 N   0  0  0  0  0  0  0  0  0  0  0  0
  152.3820  138.6960  157.0246 C   0  0  0  0  0  0  0  0  0  0  0  0
  153.5971  138.5420  157.1624 O   0  0  0  0  0  0  0  0  0  0  0  0
  151.6697  137.9501  155.8757 C   0  0  1  0  0  0  0  0  0  0  0  0
  152.1797  138.4159  154.4936 C   0  0  0  0  0  0  0  0  0  0  0  0
  151.8378  136.4976  156.0477 N   0  0  0  0  0  0  0  0  0  0  0  0
  150.6540  135.7394  155.6616 C   0  0  0  0  0  0  0  0  0  0  0  0
  150.8912  134.2357  155.8801 C   0  0  0  0  0  0  0  0  0  0  0  0
  150.0467  133.4137  155.0310 N   0  0  0  0  0  0  0  0  0  0  0  0
  149.1910  133.8172  154.0277 C   0  0  0  0  0  0  0  0  0  0  0  0
  148.6126  132.6937  153.5101 C   0  0  0  0  0  0  0  0  0  0  0  0
  149.1824  131.6378  154.2751 C   0  0  0  0  0  0  0  0  0  0  0  0
  150.0381  132.0719  155.1863 N   0  0  0  0  0  0  0  0  0  0  0  0
  152.2894  140.2761  158.9328 C   0  0  0  0  0  0  0  0  0  0  0  0
  152.3543  142.5326  160.6219 H   0  0  0  0  0  0  0  0  0  0  0  0
  152.8228  143.7020  159.3895 H   0  0  0  0  0  0  0  0  0  0  0  0
  153.9054  142.3775  159.8011 H   0  0  0  0  0  0  0  0  0  0  0  0
  152.7583  141.9359  157.6554 H   0  0  0  0  0  0  0  0  0  0  0  0
  150.2035  142.1652  159.2941 H   0  0  0  0  0  0  0  0  0  0  0  0
  150.6770  143.2162  157.9894 H   0  0  0  0  0  0  0  0  0  0  0  0
  148.9312  141.4509  157.4408 H   0  0  0  0  0  0  0  0  0  0  0  0
  151.4459  141.3378  155.7108 H   0  0  0  0  0  0  0  0  0  0  0  0
  150.1750  142.5503  155.6200 H   0  0  0  0  0  0  0  0  0  0  0  0
  149.8211  140.8766  155.2157 H   0  0  0  0  0  0  0  0  0  0  0  0
  149.7771  139.5987  158.7513 H   0  0  0  0  0  0  0  0  0  0  0  0
  149.6796  139.1080  157.1010 H   0  0  0  0  0  0  0  0  0  0  0  0
  150.6113  138.2059  155.9215 H   0  0  0  0  0  0  0  0  0  0  0  0
  152.1735  139.5038  154.4143 H   0  0  0  0  0  0  0  0  0  0  0  0
  151.5514  138.0449  153.6845 H   0  0  0  0  0  0  0  0  0  0  0  0
  153.1985  138.0743  154.3050 H   0  0  0  0  0  0  0  0  0  0  0  0
  152.0580  136.2703  157.0071 H   0  0  0  0  0  0  0  0  0  0  0  0
  149.8075  136.0602  156.2702 H   0  0  0  0  0  0  0  0  0  0  0  0
  150.3914  135.9229  154.6202 H   0  0  0  0  0  0  0  0  0  0  0  0
  151.9390  133.9816  155.7097 H   0  0  0  0  0  0  0  0  0  0  0  0
  150.6745  133.9764  156.9169 H   0  0  0  0  0  0  0  0  0  0  0  0
  149.0691  134.8583  153.7668 H   0  0  0  0  0  0  0  0  0  0  0  0
  147.8926  132.6349  152.7077 H   0  0  0  0  0  0  0  0  0  0  0  0
  148.9996  130.5763  154.1970 H   0  0  0  0  0  0  0  0  0  0  0  0
  153.3287  139.9958  159.1095 H   0  0  0  0  0  0  0  0  0  0  0  0
  151.7708  140.0781  159.8722 H   0  0  0  0  0  0  0  0  0  0  0  0
  1  2  1  0  0  0  0
  1 21  1  0  0  0  0
  1 22  1  0  0  0  0
  1 23  1  0  0  0  0
  2 20  1  0  0  0  0
  2  3  1  0  0  0  0
  2 24  1  0  0  0  0
  3  4  1  0  0  0  0
  3 25  1  0  0  0  0
  3 26  1  0  0  0  0
  4  5  1  0  0  0  0
  4  6  1  0  0  0  0
  4 27  1  0  0  0  0
  5 28  1  0  0  0  0
  5 29  1  0  0  0  0
  5 30  1  0  0  0  0
  6  7  1  0  0  0  0
  6 31  1  0  0  0  0
  6 32  1  0  0  0  0
  7  8  1  0  0  0  0
  7 20  1  0  0  0  0
  8  9  2  0  0  0  0
  8 10  1  0  0  0  0
 10 11  1  0  0  0  0
 10 12  1  0  0  0  0
 10 33  1  0  0  0  0
 11 34  1  0  0  0  0
 11 35  1  0  0  0  0
 11 36  1  0  0  0  0
 12 13  1  0  0  0  0
 12 37  1  0  0  0  0
 13 14  1  0  0  0  0
 13 38  1  0  0  0  0
 13 39  1  0  0  0  0
 14 15  1  0  0  0  0
 14 40  1  0  0  0  0
 14 41  1  0  0  0  0
 15 19  1  0  0  0  0
 15 16  1  0  0  0  0
 16 17  2  0  0  0  0
 16 42  1  0  0  0  0
 17 18  1  0  0  0  0
 17 43  1  0  0  0  0
 18 19  2  0  0  0  0
 18 44  1  0  0  0  0
 20 45  1  0  0  0  0
 20 46  1  0  0  0  0
M  END
> <s_m_source_file>
AV-unprocessed.smi

> <i_m_source_file_index>
3331

> <i_lp_mmshare_version>
43012

> <i_f3d_flags>
0

> <s_epik_input>
W0NIM11bQ0BASF0xW0NIMl1bQ0BASF0oW0NIM10pW0NIMl1OKFtDSDJdMSlDKD1PKVtDQEhdKFtDSDNdKVtOSF1bQ0gyXVtDSDJdbjJbY0hdW2NIXVtjSF1uMg==

> <s_epik_cmdline>
J2VwaWtfcHl0aG9uJywgJy1waCcsICc3LjAnLCAnLXRuJywgJzgnLCAnLW1hJywgJzIwMCcsICctbWV0YWxfYmluZGluZycsICctaW1hZScsICc8aW5maWxlLm1hZT4nLCAnLW9tYWUnLCAnPG91dGZpbGUubWFlPic=

> <r_lp_tautomer_probability>
1

> <r_epik_Ionization_Penalty>
0.767994

> <r_epik_Ionization_Penalty_Charging>
0

> <r_epik_Ionization_Penalty_Neutral>
0.767994

> <r_epik_State_Penalty>
0.795453

> <r_epik_Charging_Adjusted_Penalty>
0.795453

> <i_epik_Tot_Q>
0

> <i_epik_Tot_abs_Q>
0

> <r_epik_Metal_State_Penalty>
0.794784

> <b_epik_Metal_Only>
0

> <s_lp_Force_Field>
OPLS_2005

> <r_lp_Energy>
31.6007

> <b_lp_Chiralities_Consistent>
1

> <s_lp_Variant>
AV-unprocessed.smi:3331-10

> <Gold.Version>
5.8.1

> <Gold.Id.Protein>
6NUR|6NUR_protein|mol2

> <Gold.PLP.Fitness>
45.4690

> <Gold.PLP.PLP>
-38.1133

> <Gold.PLP.part.hbond>
-2.0000

> <Gold.PLP.part.metal>
0.0000

> <Gold.PLP.part.buried>
-5.6313

> <Gold.PLP.part.nonpolar>
-30.7720

> <Gold.PLP.part.repulsive>
0.0000

> <Gold.PLP.ligand.clash>
0.0000

> <Gold.PLP.ligand.torsion>
0.6580

> <Gold.PLP.Chemscore.Hbond>
1.8760

> <Gold.PLP.Chemscore.CHOScore>
1.0000

> <Gold.PLP.Chemscore.Metal>
0.0000

> <Gold.Chemscore.Hbonds>
donor molecule, donor type, donor heavy atom, donor atom, acceptor molecule, acceptor atom, score
      P1  H  7997  8009       L1     9  0.98
      P1  H 10752 10764       L1    12  0.90
      L1  C    16    42       P1  7948  1.00

> <Gold.PLP.Chemscore.Internal.Correction>
0.0437

> <Gold.Rescore>
     Score         DG    S(hbond)    S(metal)    S(lipo)     H(rot)  DE(clash)    DE(int)     intcor
     14.73     -15.27       0.98        0.00      92.10       1.66       0.00       0.54       ----

> <Gold.Chemscore.Fitness>
14.7264

> <Gold.Chemscore.DG>
-15.2707

> <Gold.Chemscore.ZeroCoef>
-5.4800

> <Gold.Chemscore.Hbond>
0.9813

> <Gold.Chemscore.Metal>
0.0000

> <Gold.Chemscore.Lipo>
92.0970

> <Gold.Chemscore.Internal_Hbond>
0.0000

> <Gold.Chemscore.DEClash>
0.0015

> <Gold.Chemscore.DEInternal>
0.5428

> <Gold.Chemscore.Rot>
1.6649

> <Gold.Chemscore.Internal.Correction>
   9.000000E+99

> <Gold.Chemscore.Hbonds>
donor molecule, donor type, donor heavy atom, donor atom, acceptor molecule, acceptor atom, score
      P1  H  7997  8009       L1     9  0.77
      P1  H 10752 10764       L1    12  0.08

> <Gold.Chemscore.Hbond.Weighted>
-3.2774

> <Gold.Chemscore.Metal.Weighted>
-0.0000

> <Gold.Chemscore.Lipo.Weighted>
-10.7754

> <Gold.Chemscore.Internal_Hbond.Weighted>
0.0000

> <Gold.Chemscore.DEClash.Weighted>
0.0015

> <Gold.Chemscore.DEInternal.Weighted>
0.5428

> <Gold.Chemscore.Rot.Weighted>
4.2621

> <Gold.Chemscore.Internal.Correction.Weighted>
   9.000000E+99

> <Gold.Protein.RotatedTorsions>
[ 6907 6896 6895 6894 ] final  -44.02 input  -60.11 | X-H torsion
[ 7974 7965 7964 7962 ] final -137.20 input  175.53 | X-H torsion
[ 8008 7997 7996 7995 ] final  165.67 input   59.86 | X-H torsion
[ 10167 10162 10161 10158 ] final  -77.53 input  -65.29 | X-H torsion
[ 10718 10713 10712 10709 ] final  132.79 input   66.30 | X-H torsion
[ 10763 10752 10751 10750 ] final  -31.34 input  -60.55 | X-H torsion
[ 11005 11000 10999 10996 ] final -159.66 input  -57.11 | X-H torsion

> <Gold.Protein.ActiveResidues>
 VAL166  LYS551  ARG553  GLY616  TRP617  ASP618  TYR619  PRO620  LYS621  CYS622 
 ASP623  PHE694  ASN695  SER759  ASP760  ASP761  ALA762  ILE779  LEU786  VAL792 
 PHE793  MET794  SER795  GLU796  ALA797  LYS798  CYS799  TRP800  GLU811  SER814 

> <Gold.Protein.RotatedAtoms>
  150.9374  134.8786  159.7590 H   0  0  0  0  0  0  0  0  0  0  0  0  # atno 6907 bound_to 6896
  152.5065  134.3990  159.9420 H   0  0  0  0  0  0  0  0  0  0  0  0  # atno 6908 bound_to 6896
  151.4013  133.3716  159.2767 H   0  0  0  0  0  0  0  0  0  0  0  0  # atno 6909 bound_to 6896
  144.8862  140.6578  143.5174 H   0  0  0  0  0  0  0  0  0  0  0  0  # atno 7974 bound_to 7965
  156.1781  140.1664  156.8325 H   0  0  0  0  0  0  0  0  0  0  0  0  # atno 8008 bound_to 7997
  154.5329  140.0753  156.8411 H   0  0  0  0  0  0  0  0  0  0  0  0  # atno 8009 bound_to 7997
  155.3369  140.3382  155.4241 H   0  0  0  0  0  0  0  0  0  0  0  0  # atno 8010 bound_to 7997
  140.4762  143.2414  151.8129 H   0  0  0  0  0  0  0  0  0  0  0  0  # atno 10167 bound_to 10162
  157.4836  131.1087  150.9649 H   0  0  0  0  0  0  0  0  0  0  0  0  # atno 10718 bound_to 10713
  153.7957  135.6894  153.4864 H   0  0  0  0  0  0  0  0  0  0  0  0  # atno 10763 bound_to 10752
  153.1720  135.4539  154.9914 H   0  0  0  0  0  0  0  0  0  0  0  0  # atno 10764 bound_to 10752
  154.8026  135.3344  154.7450 H   0  0  0  0  0  0  0  0  0  0  0  0  # atno 10765 bound_to 10752
  140.6401  134.4560  157.5233 H   0  0  0  0  0  0  0  0  0  0  0  0  # atno 11005 bound_to 11000
  145.3864  139.1626  143.4252 LP  0  0  0  0  0  0  0  0  0  0  0  0  # atno 17320 bound_to 7965
  146.3026  140.3950  142.8698 LP  0  0  0  0  0  0  0  0  0  0  0  0  # atno 17321 bound_to 7965
  139.4826  144.4830  151.9282 LP  0  0  0  0  0  0  0  0  0  0  0  0  # atno 17342 bound_to 10162
  140.3916  144.2609  150.5899 LP  0  0  0  0  0  0  0  0  0  0  0  0  # atno 17343 bound_to 10162
  157.0373  130.5735  149.5351 LP  0  0  0  0  0  0  0  0  0  0  0  0  # atno 17370 bound_to 10713
  156.0135  130.5228  150.8062 LP  0  0  0  0  0  0  0  0  0  0  0  0  # atno 17371 bound_to 10713
  139.9083  134.8400  156.1621 LP  0  0  0  0  0  0  0  0  0  0  0  0  # atno 17394 bound_to 11000
  141.0613  133.6840  156.1958 LP  0  0  0  0  0  0  0  0  0  0  0  0  # atno 17395 bound_to 11000

$$$$
