AV-unprocessed.smi:1180|AV-procd|sdf|4964|dock2
  -GOLD-   22720 3553D 1   1.00000     0.00000
 Structure written by MMmdl.
 37 38  0  0  0  0  0  0  0  0  2 V2000
  149.9565  134.7115  155.0993 C   0  0  0  0  0  0  0  0  0  0  0  0
  150.3045  136.1421  155.4515 C   0  0  0  0  0  0  0  0  0  0  0  0
  151.2742  136.7151  154.8465 N   0  0  0  0  0  0  0  0  0  0  0  0
  151.6059  138.0412  155.1718 C   0  0  0  0  0  0  0  0  0  0  0  0
  152.7738  138.6389  154.4073 C   0  0  0  0  0  0  0  0  0  0  0  0
  150.9105  138.7295  156.1221 C   0  0  0  0  0  0  0  0  0  0  0  0
  151.2313  140.1711  156.5183 C   0  0  0  0  0  0  0  0  0  0  0  0
  151.9448  140.3676  157.8586 C   0  0  0  0  0  0  0  0  0  0  0  0
  152.3795  139.4046  158.4913 O   0  0  0  0  0  0  0  0  0  0  0  0
  152.0556  141.6355  158.2823 N   0  0  0  0  0  0  0  0  0  0  0  0
  152.6998  142.0524  159.5230 C   0  0  0  0  0  0  0  0  0  0  0  0
  152.6161  143.5761  159.7372 C   0  0  2  0  0  0  0  0  0  0  0  0
  151.5206  144.0044  160.7075 C   0  0  0  0  0  0  0  0  0  0  0  0
  150.9271  145.2706  160.0809 C   0  0  0  0  0  0  0  0  0  0  0  0
  151.7917  145.5986  159.0028 O   0  0  0  0  0  0  0  0  0  0  0  0
  152.2895  144.3798  158.4788 C   0  0  0  0  0  0  0  0  0  0  0  0
  149.7953  138.0358  156.7905 C   0  0  0  0  0  0  0  0  0  0  0  0
  149.1257  138.6171  157.6436 O   0  0  0  0  0  0  0  0  0  0  0  0
  149.5414  136.7466  156.4254 N   0  5  0  0  0  0  0  0  0  0  0  0
  150.4064  134.4217  154.1488 H   0  0  0  0  0  0  0  0  0  0  0  0
  148.8761  134.5893  155.0140 H   0  0  0  0  0  0  0  0  0  0  0  0
  150.3215  134.0360  155.8732 H   0  0  0  0  0  0  0  0  0  0  0  0
  153.6078  138.8373  155.0806 H   0  0  0  0  0  0  0  0  0  0  0  0
  152.4829  139.5739  153.9283 H   0  0  0  0  0  0  0  0  0  0  0  0
  153.1246  137.9605  153.6288 H   0  0  0  0  0  0  0  0  0  0  0  0
  151.8152  140.6550  155.7341 H   0  0  0  0  0  0  0  0  0  0  0  0
  150.3011  140.7378  156.5571 H   0  0  0  0  0  0  0  0  0  0  0  0
  151.6712  142.3643  157.6988 H   0  0  0  0  0  0  0  0  0  0  0  0
  152.2105  141.5319  160.3467 H   0  0  0  0  0  0  0  0  0  0  0  0
  153.7412  141.7265  159.5287 H   0  0  0  0  0  0  0  0  0  0  0  0
  153.5680  143.9392  160.1285 H   0  0  0  0  0  0  0  0  0  0  0  0
  150.7482  143.2423  160.8174 H   0  0  0  0  0  0  0  0  0  0  0  0
  151.9353  144.2006  161.6968 H   0  0  0  0  0  0  0  0  0  0  0  0
  149.9280  145.0716  159.6907 H   0  0  0  0  0  0  0  0  0  0  0  0
  150.8561  146.0951  160.7906 H   0  0  0  0  0  0  0  0  0  0  0  0
  153.1612  144.5426  157.8442 H   0  0  0  0  0  0  0  0  0  0  0  0
  151.5143  143.8933  157.8842 H   0  0  0  0  0  0  0  0  0  0  0  0
  1  2  1  0  0  0  0
  1 20  1  0  0  0  0
  1 21  1  0  0  0  0
  1 22  1  0  0  0  0
  2 19  1  0  0  0  0
  2  3  2  0  0  0  0
  3  4  1  0  0  0  0
  4  5  1  0  0  0  0
  4  6  2  0  0  0  0
  5 23  1  0  0  0  0
  5 24  1  0  0  0  0
  5 25  1  0  0  0  0
  6  7  1  0  0  0  0
  6 17  1  0  0  0  0
  7  8  1  0  0  0  0
  7 26  1  0  0  0  0
  7 27  1  0  0  0  0
  8  9  2  0  0  0  0
  8 10  1  0  0  0  0
 10 11  1  0  0  0  0
 10 28  1  0  0  0  0
 11 12  1  0  0  0  0
 11 29  1  0  0  0  0
 11 30  1  0  0  0  0
 12 16  1  0  0  0  0
 12 13  1  0  0  0  0
 12 31  1  0  0  0  0
 13 14  1  0  0  0  0
 13 32  1  0  0  0  0
 13 33  1  0  0  0  0
 14 15  1  0  0  0  0
 14 34  1  0  0  0  0
 14 35  1  0  0  0  0
 15 16  1  0  0  0  0
 16 36  1  0  0  0  0
 16 37  1  0  0  0  0
 17 18  2  0  0  0  0
 17 19  1  0  0  0  0
M  CHG  1  19  -1
M  END
> <s_m_source_file>
AV-unprocessed.smi

> <i_m_source_file_index>
1180

> <i_lp_mmshare_version>
43012

> <i_f3d_flags>
0

> <s_epik_input>
W0NIM11jMW5jKFtDSDNdKWMoYyg9TylbbkhdMSlbQ0gyXUMoPU8pW05IXVtDSDJdW0NAQEhdMltDSDJdW0NIMl1PW0NIMl0y

> <s_epik_cmdline>
J2VwaWtfcHl0aG9uJywgJy1waCcsICc3LjAnLCAnLXRuJywgJzgnLCAnLW1hJywgJzIwMCcsICctbWV0YWxfYmluZGluZycsICctaW1hZScsICc8aW5maWxlLm1hZT4nLCAnLW9tYWUnLCAnPG91dGZpbGUubWFlPic=

> <r_lp_tautomer_probability>
0.839158

> <r_epik_Ionization_Penalty>
6.60319

> <r_epik_Ionization_Penalty_Charging>
6.85407e-08

> <r_epik_Ionization_Penalty_Neutral>
6.60319

> <r_epik_State_Penalty>
4.42883

> <r_epik_Charging_Adjusted_Penalty>
4.42883

> <i_epik_Tot_Q>
-1

> <i_epik_Tot_abs_Q>
1

> <r_epik_Metal_State_Penalty>
0.797578

> <b_epik_Metal_Only>
1

> <s_lp_Force_Field>
OPLS_2005

> <r_lp_Energy>
24.7937

> <b_lp_Chiralities_Consistent>
1

> <s_lp_Variant>
AV-unprocessed.smi:1180-5

> <Gold.Version>
5.8.1

> <Gold.Id.Protein>
6NUR|6NUR_protein|mol2

> <Gold.PLP.Fitness>
38.2560

> <Gold.PLP.PLP>
-36.9312

> <Gold.PLP.part.hbond>
-1.9272

> <Gold.PLP.part.metal>
0.0000

> <Gold.PLP.part.buried>
-5.5979

> <Gold.PLP.part.nonpolar>
-30.7266

> <Gold.PLP.part.repulsive>
0.3361

> <Gold.PLP.ligand.clash>
0.0000

> <Gold.PLP.ligand.torsion>
0.8501

> <Gold.PLP.Chemscore.Hbond>
1.0000

> <Gold.PLP.Chemscore.CHOScore>
0.0000

> <Gold.PLP.Chemscore.Metal>
0.0000

> <Gold.Chemscore.Hbonds>
donor molecule, donor type, donor heavy atom, donor atom, acceptor molecule, acceptor atom, score
      P1  H 10752 10763       L1     3  1.00

> <Gold.PLP.Chemscore.Internal.Correction>
0.0251

> <Gold.Rescore>
     Score         DG    S(hbond)    S(metal)    S(lipo)     H(rot)  DE(clash)    DE(int)     intcor
     14.12     -14.77       0.87        0.00      92.93       1.76       0.01       0.64       ----

> <Gold.Chemscore.Fitness>
14.1178

> <Gold.Chemscore.DG>
-14.7691

> <Gold.Chemscore.ZeroCoef>
-5.4800

> <Gold.Chemscore.Hbond>
0.8732

> <Gold.Chemscore.Metal>
0.0000

> <Gold.Chemscore.Lipo>
92.9260

> <Gold.Chemscore.Internal_Hbond>
0.0000

> <Gold.Chemscore.DEClash>
0.0141

> <Gold.Chemscore.DEInternal>
0.6372

> <Gold.Chemscore.Rot>
1.7577

> <Gold.Chemscore.Internal.Correction>
   9.000000E+99

> <Gold.Chemscore.Hbonds>
donor molecule, donor type, donor heavy atom, donor atom, acceptor molecule, acceptor atom, score
      P1  H 10752 10763       L1     3  0.72

> <Gold.Chemscore.Hbond.Weighted>
-2.9165

> <Gold.Chemscore.Metal.Weighted>
-0.0000

> <Gold.Chemscore.Lipo.Weighted>
-10.8723

> <Gold.Chemscore.Internal_Hbond.Weighted>
0.0000

> <Gold.Chemscore.DEClash.Weighted>
0.0141

> <Gold.Chemscore.DEInternal.Weighted>
0.6372

> <Gold.Chemscore.Rot.Weighted>
4.4998

> <Gold.Chemscore.Internal.Correction.Weighted>
   9.000000E+99

> <Gold.Protein.RotatedTorsions>
[ 6907 6896 6895 6894 ] final -162.03 input  -60.11 | X-H torsion
[ 7974 7965 7964 7962 ] final -109.20 input  175.53 | X-H torsion
[ 8008 7997 7996 7995 ] final  145.67 input   59.86 | X-H torsion
[ 10167 10162 10161 10158 ] final  -22.66 input  -65.29 | X-H torsion
[ 10718 10713 10712 10709 ] final -122.69 input   66.30 | X-H torsion
[ 10763 10752 10751 10750 ] final   48.99 input  -60.55 | X-H torsion
[ 11005 11000 10999 10996 ] final  -69.48 input  -57.11 | X-H torsion

> <Gold.Protein.ActiveResidues>
 VAL166  LYS551  ARG553  GLY616  TRP617  ASP618  TYR619  PRO620  LYS621  CYS622 
 ASP623  PHE694  ASN695  SER759  ASP760  ASP761  ALA762  ILE779  LEU786  VAL792 
 PHE793  MET794  SER795  GLU796  ALA797  LYS798  CYS799  TRP800  GLU811  SER814 

> <Gold.Protein.RotatedAtoms>
  151.3739  133.3845  159.2702 H   0  0  0  0  0  0  0  0  0  0  0  0  # atno 6907 bound_to 6896
  150.9630  134.9016  159.7752 H   0  0  0  0  0  0  0  0  0  0  0  0  # atno 6908 bound_to 6896
  152.5156  134.3698  159.9366 H   0  0  0  0  0  0  0  0  0  0  0  0  # atno 6909 bound_to 6896
  145.1835  140.8982  143.3466 H   0  0  0  0  0  0  0  0  0  0  0  0  # atno 7974 bound_to 7965
  156.2877  140.2203  156.5253 H   0  0  0  0  0  0  0  0  0  0  0  0  # atno 8008 bound_to 7997
  154.7494  140.0481  157.0902 H   0  0  0  0  0  0  0  0  0  0  0  0  # atno 8009 bound_to 7997
  155.0129  140.3115  155.4826 H   0  0  0  0  0  0  0  0  0  0  0  0  # atno 8010 bound_to 7997
  140.7286  143.4514  151.0511 H   0  0  0  0  0  0  0  0  0  0  0  0  # atno 10167 bound_to 10162
  156.1440  130.6486  150.9814 H   0  0  0  0  0  0  0  0  0  0  0  0  # atno 10718 bound_to 10713
  152.9789  135.5926  154.4017 H   0  0  0  0  0  0  0  0  0  0  0  0  # atno 10763 bound_to 10752
  154.3661  135.2767  155.2294 H   0  0  0  0  0  0  0  0  0  0  0  0  # atno 10764 bound_to 10752
  154.4270  135.6045  153.6100 H   0  0  0  0  0  0  0  0  0  0  0  0  # atno 10765 bound_to 10752
  141.1555  133.6765  156.6606 H   0  0  0  0  0  0  0  0  0  0  0  0  # atno 11005 bound_to 11000
  145.0113  139.3508  143.6119 LP  0  0  0  0  0  0  0  0  0  0  0  0  # atno 17320 bound_to 7965
  146.3449  139.9376  142.8745 LP  0  0  0  0  0  0  0  0  0  0  0  0  # atno 17321 bound_to 7965
  139.8190  143.7846  152.3176 LP  0  0  0  0  0  0  0  0  0  0  0  0  # atno 17342 bound_to 10162
  139.7922  144.7406  150.9940 LP  0  0  0  0  0  0  0  0  0  0  0  0  # atno 17343 bound_to 10162
  157.6600  131.0882  150.7860 LP  0  0  0  0  0  0  0  0  0  0  0  0  # atno 17370 bound_to 10713
  156.7933  130.4897  149.5381 LP  0  0  0  0  0  0  0  0  0  0  0  0  # atno 17371 bound_to 10713
  140.3250  134.7976  157.4282 LP  0  0  0  0  0  0  0  0  0  0  0  0  # atno 17394 bound_to 11000
  140.1065  134.5403  155.8305 LP  0  0  0  0  0  0  0  0  0  0  0  0  # atno 17395 bound_to 11000

$$$$
