AV-unprocessed.smi:1896|AV-procd|sdf|7682|dock5
  -GOLD-   22720 9423D 1   1.00000     0.00000
 Structure written by MMmdl.
 47 48  0  0  0  0  0  0  0  0  2 V2000
  151.2786  144.7328  159.5870 C   0  0  0  0  0  0  0  0  0  0  0  0
  152.1258  143.8308  160.4386 C   0  0  0  0  0  0  0  0  0  0  0  0
  152.3360  144.1458  161.7057 N   0  0  0  0  0  0  0  0  0  0  0  0
  153.1239  143.1601  162.1799 N   0  0  0  0  0  0  0  0  0  0  0  0
  153.5507  143.1950  163.5654 C   0  0  0  0  0  0  0  0  0  0  0  0
  153.4118  142.2198  161.2102 C   0  0  0  0  0  0  0  0  0  0  0  0
  154.2709  141.0283  161.4874 C   0  0  0  0  0  0  0  0  0  0  0  0
  152.7826  142.6223  160.0621 C   0  0  0  0  0  0  0  0  0  0  0  0
  152.7797  141.9588  158.7085 C   0  0  0  0  0  0  0  0  0  0  0  0
  151.3545  141.5406  158.3488 C   0  0  0  0  0  0  0  0  0  0  0  0
  150.6660  140.9330  159.1683 O   0  0  0  0  0  0  0  0  0  0  0  0
  150.9256  141.8697  157.1197 N   0  0  0  0  0  0  0  0  0  0  0  0
  149.6239  141.5234  156.5548 C   0  0  0  0  0  0  0  0  0  0  0  0
  149.7281  140.7106  155.2379 C   0  0  2  0  0  0  0  0  0  0  0  0
  148.3390  140.4990  154.5935 C   0  0  0  0  0  0  0  0  0  0  0  0
  150.4111  139.4072  155.4866 N   0  3  0  0  0  0  0  0  0  0  0  0
  150.1030  138.3203  154.5309 C   0  0  0  0  0  0  0  0  0  0  0  0
  151.2423  137.3203  154.6881 C   0  0  0  0  0  0  0  0  0  0  0  0
  152.4544  138.2165  154.9108 C   0  0  0  0  0  0  0  0  0  0  0  0
  151.8919  139.4760  155.5844 C   0  0  0  0  0  0  0  0  0  0  0  0
  151.8918  145.2758  158.8680 H   0  0  0  0  0  0  0  0  0  0  0  0
  150.7412  145.4680  160.1871 H   0  0  0  0  0  0  0  0  0  0  0  0
  150.5380  144.1612  159.0280 H   0  0  0  0  0  0  0  0  0  0  0  0
  153.0820  142.3772  164.1127 H   0  0  0  0  0  0  0  0  0  0  0  0
  153.2694  144.1404  164.0312 H   0  0  0  0  0  0  0  0  0  0  0  0
  154.6341  143.0865  163.6206 H   0  0  0  0  0  0  0  0  0  0  0  0
  154.3707  140.3974  160.6043 H   0  0  0  0  0  0  0  0  0  0  0  0
  153.8451  140.4207  162.2858 H   0  0  0  0  0  0  0  0  0  0  0  0
  155.2721  141.3350  161.7908 H   0  0  0  0  0  0  0  0  0  0  0  0
  153.1592  142.6286  157.9359 H   0  0  0  0  0  0  0  0  0  0  0  0
  153.4299  141.0834  158.6884 H   0  0  0  0  0  0  0  0  0  0  0  0
  151.5647  142.3702  156.5185 H   0  0  0  0  0  0  0  0  0  0  0  0
  149.1068  140.9486  157.3226 H   0  0  0  0  0  0  0  0  0  0  0  0
  149.0189  142.4180  156.3965 H   0  0  0  0  0  0  0  0  0  0  0  0
  150.3388  141.2750  154.5310 H   0  0  0  0  0  0  0  0  0  0  0  0
  147.8444  141.4462  154.3816 H   0  0  0  0  0  0  0  0  0  0  0  0
  147.6837  139.9230  155.2476 H   0  0  0  0  0  0  0  0  0  0  0  0
  148.4018  139.9783  153.6385 H   0  0  0  0  0  0  0  0  0  0  0  0
  149.1326  137.8639  154.7286 H   0  0  0  0  0  0  0  0  0  0  0  0
  150.0969  138.7136  153.5128 H   0  0  0  0  0  0  0  0  0  0  0  0
  151.0723  136.6988  155.5685 H   0  0  0  0  0  0  0  0  0  0  0  0
  151.3523  136.6619  153.8258 H   0  0  0  0  0  0  0  0  0  0  0  0
  153.2276  137.7308  155.5070 H   0  0  0  0  0  0  0  0  0  0  0  0
  152.8960  138.4812  153.9490 H   0  0  0  0  0  0  0  0  0  0  0  0
  152.2899  140.3627  155.0884 H   0  0  0  0  0  0  0  0  0  0  0  0
  152.1791  139.5256  156.6352 H   0  0  0  0  0  0  0  0  0  0  0  0
  150.0903  139.0757  156.3854 H   0  0  0  0  0  0  0  0  0  0  0  0
  1  2  1  0  0  0  0
  1 21  1  0  0  0  0
  1 22  1  0  0  0  0
  1 23  1  0  0  0  0
  2  8  1  0  0  0  0
  2  3  2  0  0  0  0
  3  4  1  0  0  0  0
  4  5  1  0  0  0  0
  4  6  1  0  0  0  0
  5 24  1  0  0  0  0
  5 25  1  0  0  0  0
  5 26  1  0  0  0  0
  6  7  1  0  0  0  0
  6  8  2  0  0  0  0
  7 27  1  0  0  0  0
  7 28  1  0  0  0  0
  7 29  1  0  0  0  0
  8  9  1  0  0  0  0
  9 10  1  0  0  0  0
  9 30  1  0  0  0  0
  9 31  1  0  0  0  0
 10 11  2  0  0  0  0
 10 12  1  0  0  0  0
 12 13  1  0  0  0  0
 12 32  1  0  0  0  0
 13 14  1  0  0  0  0
 13 33  1  0  0  0  0
 13 34  1  0  0  0  0
 14 15  1  0  0  0  0
 14 16  1  0  0  0  0
 14 35  1  0  0  0  0
 15 36  1  0  0  0  0
 15 37  1  0  0  0  0
 15 38  1  0  0  0  0
 16 20  1  0  0  0  0
 16 17  1  0  0  0  0
 16 47  1  0  0  0  0
 17 18  1  0  0  0  0
 17 39  1  0  0  0  0
 17 40  1  0  0  0  0
 18 19  1  0  0  0  0
 18 41  1  0  0  0  0
 18 42  1  0  0  0  0
 19 20  1  0  0  0  0
 19 43  1  0  0  0  0
 19 44  1  0  0  0  0
 20 45  1  0  0  0  0
 20 46  1  0  0  0  0
M  CHG  1  16   1
M  END
> <s_m_source_file>
AV-unprocessed.smi

> <i_m_source_file_index>
1896

> <i_lp_mmshare_version>
43012

> <i_f3d_flags>
0

> <s_epik_input>
W0NIM11jMW5uKFtDSDNdKWMoW0NIM10pYzFbQ0gyXUMoPU8pW05IXVtDSDJdW0NASF0oW0NIM10pTjJbQ0gyXVtDSDJdW0NIMl1bQ0gyXTI=

> <s_epik_cmdline>
J2VwaWtfcHl0aG9uJywgJy1waCcsICc3LjAnLCAnLXRuJywgJzgnLCAnLW1hJywgJzIwMCcsICctbWV0YWxfYmluZGluZycsICctaW1hZScsICc8aW5maWxlLm1hZT4nLCAnLW9tYWUnLCAnPG91dGZpbGUubWFlPic=

> <r_lp_tautomer_probability>
1

> <r_epik_Ionization_Penalty>
0.00723064

> <r_epik_Ionization_Penalty_Charging>
0.0050435

> <r_epik_Ionization_Penalty_Neutral>
0.00218714

> <r_epik_State_Penalty>
-0

> <r_epik_Charging_Adjusted_Penalty>
0.0050435

> <i_epik_Tot_Q>
1

> <i_epik_Tot_abs_Q>
1

> <r_epik_Metal_State_Penalty>
-0

> <b_epik_Metal_Only>
0

> <s_lp_Force_Field>
OPLS_2005

> <r_lp_Energy>
25.1325

> <b_lp_Chiralities_Consistent>
1

> <s_lp_Variant>
AV-unprocessed.smi:1896-1

> <Gold.Version>
5.8.1

> <Gold.Id.Protein>
6NUR|6NUR_protein|mol2

> <Gold.PLP.Fitness>
48.9737

> <Gold.PLP.PLP>
-50.2528

> <Gold.PLP.part.hbond>
-0.4708

> <Gold.PLP.part.metal>
0.0000

> <Gold.PLP.part.buried>
-4.5646

> <Gold.PLP.part.nonpolar>
-43.9279

> <Gold.PLP.part.repulsive>
0.3081

> <Gold.PLP.ligand.clash>
0.0000

> <Gold.PLP.ligand.torsion>
0.6697

> <Gold.PLP.Chemscore.Hbond>
0.0000

> <Gold.PLP.Chemscore.CHOScore>
0.0000

> <Gold.PLP.Chemscore.Metal>
0.0000

> <Gold.PLP.Chemscore.Internal.Correction>
0.0603

> <Gold.Rescore>
     Score         DG    S(hbond)    S(metal)    S(lipo)     H(rot)  DE(clash)    DE(int)     intcor
     13.89     -16.07       0.00        0.00     126.63       1.65       0.38       1.80       ----

> <Gold.Chemscore.Fitness>
13.8892

> <Gold.Chemscore.DG>
-16.0733

> <Gold.Chemscore.ZeroCoef>
-5.4800

> <Gold.Chemscore.Hbond>
0.0000

> <Gold.Chemscore.Metal>
0.0000

> <Gold.Chemscore.Lipo>
126.6327

> <Gold.Chemscore.Internal_Hbond>
0.0000

> <Gold.Chemscore.DEClash>
0.3825

> <Gold.Chemscore.DEInternal>
1.8016

> <Gold.Chemscore.Rot>
1.6495

> <Gold.Chemscore.Internal.Correction>
   9.000000E+99

> <Gold.Chemscore.Hbond.Weighted>
-0.0000

> <Gold.Chemscore.Metal.Weighted>
-0.0000

> <Gold.Chemscore.Lipo.Weighted>
-14.8160

> <Gold.Chemscore.Internal_Hbond.Weighted>
0.0000

> <Gold.Chemscore.DEClash.Weighted>
0.3825

> <Gold.Chemscore.DEInternal.Weighted>
1.8016

> <Gold.Chemscore.Rot.Weighted>
4.2227

> <Gold.Chemscore.Internal.Correction.Weighted>
   9.000000E+99

> <Gold.Protein.RotatedTorsions>
[ 6907 6896 6895 6894 ] final -133.83 input  -60.11 | X-H torsion
[ 7974 7965 7964 7962 ] final -121.40 input  175.53 | X-H torsion
[ 8008 7997 7996 7995 ] final  175.10 input   59.86 | X-H torsion
[ 10167 10162 10161 10158 ] final -149.60 input  -65.29 | X-H torsion
[ 10718 10713 10712 10709 ] final -125.89 input   66.30 | X-H torsion
[ 10763 10752 10751 10750 ] final  128.13 input  -60.55 | X-H torsion
[ 11005 11000 10999 10996 ] final -126.77 input  -57.11 | X-H torsion

> <Gold.Protein.ActiveResidues>
 VAL166  LYS551  ARG553  GLY616  TRP617  ASP618  TYR619  PRO620  LYS621  CYS622 
 ASP623  PHE694  ASN695  SER759  ASP760  ASP761  ALA762  ILE779  LEU786  VAL792 
 PHE793  MET794  SER795  GLU796  ALA797  LYS798  CYS799  TRP800  GLU811  SER814 

> <Gold.Protein.RotatedAtoms>
  150.9787  133.6268  159.2725 H   0  0  0  0  0  0  0  0  0  0  0  0  # atno 6907 bound_to 6896
  151.3531  135.0887  159.9419 H   0  0  0  0  0  0  0  0  0  0  0  0  # atno 6908 bound_to 6896
  152.5208  133.9376  159.7665 H   0  0  0  0  0  0  0  0  0  0  0  0  # atno 6909 bound_to 6896
  145.0407  140.8142  143.4268 H   0  0  0  0  0  0  0  0  0  0  0  0  # atno 7974 bound_to 7965
  156.0906  140.1417  156.9597 H   0  0  0  0  0  0  0  0  0  0  0  0  # atno 8008 bound_to 7997
  154.4639  140.0933  156.7015 H   0  0  0  0  0  0  0  0  0  0  0  0  # atno 8009 bound_to 7997
  155.4926  140.3448  155.4360 H   0  0  0  0  0  0  0  0  0  0  0  0  # atno 8010 bound_to 7997
  139.7428  143.8636  152.2567 H   0  0  0  0  0  0  0  0  0  0  0  0  # atno 10167 bound_to 10162
  156.1716  130.6671  151.0187 H   0  0  0  0  0  0  0  0  0  0  0  0  # atno 10718 bound_to 10713
  153.7205  135.3254  155.3265 H   0  0  0  0  0  0  0  0  0  0  0  0  # atno 10763 bound_to 10752
  154.8357  135.4498  154.1222 H   0  0  0  0  0  0  0  0  0  0  0  0  # atno 10764 bound_to 10752
  153.2341  135.6963  153.7936 H   0  0  0  0  0  0  0  0  0  0  0  0  # atno 10765 bound_to 10752
  140.9654  134.0879  157.3925 H   0  0  0  0  0  0  0  0  0  0  0  0  # atno 11005 bound_to 11000
  145.1651  139.2436  143.5371 LP  0  0  0  0  0  0  0  0  0  0  0  0  # atno 17320 bound_to 7965
  146.3509  140.1388  142.8595 LP  0  0  0  0  0  0  0  0  0  0  0  0  # atno 17321 bound_to 7965
  139.8592  144.7126  150.9120 LP  0  0  0  0  0  0  0  0  0  0  0  0  # atno 17342 bound_to 10162
  140.7788  143.3832  151.1439 LP  0  0  0  0  0  0  0  0  0  0  0  0  # atno 17343 bound_to 10162
  157.6807  131.0839  150.7378 LP  0  0  0  0  0  0  0  0  0  0  0  0  # atno 17370 bound_to 10713
  156.7437  130.4747  149.5472 LP  0  0  0  0  0  0  0  0  0  0  0  0  # atno 17371 bound_to 10713
  139.8893  135.0104  156.6669 LP  0  0  0  0  0  0  0  0  0  0  0  0  # atno 17394 bound_to 11000
  140.7407  133.8980  155.8276 LP  0  0  0  0  0  0  0  0  0  0  0  0  # atno 17395 bound_to 11000

$$$$
