AV-unprocessed.smi:2499|AV-procd|sdf|9837|dock1
  -GOLD-   2272013463D 1   1.00000     0.00000
 Structure written by MMmdl.
 27 28  0  0  0  0  0  0  0  0  1 V2000
  153.7058  141.3152  159.7493 C   0  0  0  0  0  0  0  0  0  0  0  0
  152.3896  142.0925  159.6130 C   0  0  2  0  0  0  0  0  0  0  0  0
  151.8162  141.8108  158.3007 N   0  0  0  0  0  0  0  0  0  0  0  0
  151.5479  140.5938  157.8039 C   0  0  0  0  0  0  0  0  0  0  0  0
  151.7882  139.5636  158.4416 O   0  0  0  0  0  0  0  0  0  0  0  0
  151.0221  140.7055  156.5253 N   0  0  0  0  0  0  0  0  0  0  0  0
  150.9066  139.6460  155.7847 C   0  0  0  0  0  0  0  0  0  0  0  0
  151.2367  138.3081  155.9854 N   0  0  0  0  0  0  0  0  0  0  0  0
  150.9050  137.6134  154.8561 C   0  0  0  0  0  0  0  0  0  0  0  0
  150.3886  138.4714  153.9815 C   0  0  0  0  0  0  0  0  0  0  0  0
  150.3770  139.7225  154.5213 O   0  0  0  0  0  0  0  0  0  0  0  0
  152.6062  143.5742  159.8715 C   0  0  0  0  0  0  0  0  0  0  0  0
  152.0072  144.2459  161.0845 C   0  0  0  0  0  0  0  0  0  0  0  0
  151.4873  144.5752  159.7041 C   0  0  0  0  0  0  0  0  0  0  0  0
  154.1432  141.4534  160.7385 H   0  0  0  0  0  0  0  0  0  0  0  0
  154.4398  141.6435  159.0124 H   0  0  0  0  0  0  0  0  0  0  0  0
  153.5478  140.2454  159.6087 H   0  0  0  0  0  0  0  0  0  0  0  0
  151.7112  141.7112  160.3788 H   0  0  0  0  0  0  0  0  0  0  0  0
  151.6015  142.6093  157.7206 H   0  0  0  0  0  0  0  0  0  0  0  0
  151.6498  137.8818  156.8026 H   0  0  0  0  0  0  0  0  0  0  0  0
  151.0795  136.5492  154.7976 H   0  0  0  0  0  0  0  0  0  0  0  0
  150.0020  138.3548  152.9799 H   0  0  0  0  0  0  0  0  0  0  0  0
  153.5983  143.9223  159.5896 H   0  0  0  0  0  0  0  0  0  0  0  0
  151.3673  143.6488  161.7313 H   0  0  0  0  0  0  0  0  0  0  0  0
  152.6084  144.9990  161.5897 H   0  0  0  0  0  0  0  0  0  0  0  0
  151.7430  145.5473  159.2872 H   0  0  0  0  0  0  0  0  0  0  0  0
  150.5018  144.1984  159.4381 H   0  0  0  0  0  0  0  0  0  0  0  0
  1  2  1  0  0  0  0
  1 15  1  0  0  0  0
  1 16  1  0  0  0  0
  1 17  1  0  0  0  0
  2  3  1  0  0  0  0
  2 12  1  0  0  0  0
  2 18  1  0  0  0  0
  3 19  1  0  0  0  0
  3  4  1  0  0  0  0
  4  6  1  0  0  0  0
  4  5  2  0  0  0  0
  6  7  2  0  0  0  0
  7 11  1  0  0  0  0
  7  8  1  0  0  0  0
  8 20  1  0  0  0  0
  8  9  1  0  0  0  0
  9 21  1  0  0  0  0
  9 10  2  0  0  0  0
 10 22  1  0  0  0  0
 10 11  1  0  0  0  0
 12 14  1  0  0  0  0
 12 13  1  0  0  0  0
 12 23  1  0  0  0  0
 13 14  1  0  0  0  0
 13 24  1  0  0  0  0
 13 25  1  0  0  0  0
 14 26  1  0  0  0  0
 14 27  1  0  0  0  0
M  END
> <s_m_source_file>
AV-unprocessed.smi

> <i_m_source_file_index>
2499

> <i_lp_mmshare_version>
43012

> <i_f3d_flags>
0

> <s_epik_input>
W0NIMl0xW0NIMl1bQ0hdMVtDQEhdKFtDSDNdKVtOSF1DKD1PKVtOSF1jMm5bY0hdW2NIXW8y

> <s_epik_cmdline>
J2VwaWtfcHl0aG9uJywgJy1waCcsICc3LjAnLCAnLXRuJywgJzgnLCAnLW1hJywgJzIwMCcsICctbWV0YWxfYmluZGluZycsICctaW1hZScsICc8aW5maWxlLm1hZT4nLCAnLW9tYWUnLCAnPG91dGZpbGUubWFlPic=

> <r_lp_tautomer_probability>
0.107061

> <r_epik_Ionization_Penalty>
1.51515

> <r_epik_Ionization_Penalty_Charging>
1.51478

> <r_epik_Ionization_Penalty_Neutral>
0.000369309

> <r_epik_State_Penalty>
2.62718

> <r_epik_Charging_Adjusted_Penalty>
4.14196

> <i_epik_Tot_Q>
0

> <i_epik_Tot_abs_Q>
0

> <r_epik_Metal_State_Penalty>
3.5378

> <b_epik_Metal_Only>
0

> <s_lp_Force_Field>
OPLS_2005

> <r_lp_Energy>
36.8038

> <b_lp_Chiralities_Consistent>
1

> <s_lp_Variant>
AV-unprocessed.smi:2499-7

> <Gold.Version>
5.8.1

> <Gold.Id.Protein>
6NUR|6NUR_protein|mol2

> <Gold.PLP.Fitness>
37.8041

> <Gold.PLP.PLP>
-29.3476

> <Gold.PLP.part.hbond>
-1.0000

> <Gold.PLP.part.metal>
0.0000

> <Gold.PLP.part.buried>
-5.3574

> <Gold.PLP.part.nonpolar>
-24.4555

> <Gold.PLP.part.repulsive>
0.2604

> <Gold.PLP.ligand.clash>
0.0000

> <Gold.PLP.ligand.torsion>
0.7898

> <Gold.PLP.Chemscore.Hbond>
1.0000

> <Gold.PLP.Chemscore.CHOScore>
1.9898

> <Gold.PLP.Chemscore.Metal>
0.0000

> <Gold.Chemscore.Hbonds>
donor molecule, donor type, donor heavy atom, donor atom, acceptor molecule, acceptor atom, score
      P1  H  7989  7998       L1    11  1.00
      L1  C    10    22       P1  7948  0.90
      L1  C    10    22       P1  7957  1.00

> <Gold.PLP.Chemscore.Internal.Correction>
1.0666

> <Gold.Rescore>
     Score         DG    S(hbond)    S(metal)    S(lipo)     H(rot)  DE(clash)    DE(int)     intcor
     13.27     -13.98       0.99        0.00      72.67       1.29       0.00       0.71       ----

> <Gold.Chemscore.Fitness>
13.2686

> <Gold.Chemscore.DG>
-13.9769

> <Gold.Chemscore.ZeroCoef>
-5.4800

> <Gold.Chemscore.Hbond>
0.9882

> <Gold.Chemscore.Metal>
0.0000

> <Gold.Chemscore.Lipo>
72.6703

> <Gold.Chemscore.Internal_Hbond>
0.0000

> <Gold.Chemscore.DEClash>
0.0009

> <Gold.Chemscore.DEInternal>
0.7074

> <Gold.Chemscore.Rot>
1.2915

> <Gold.Chemscore.Internal.Correction>
   9.000000E+99

> <Gold.Chemscore.Hbonds>
donor molecule, donor type, donor heavy atom, donor atom, acceptor molecule, acceptor atom, score
      P1  H  7989  7998       L1    11  0.35

> <Gold.Chemscore.Hbond.Weighted>
-3.3007

> <Gold.Chemscore.Metal.Weighted>
-0.0000

> <Gold.Chemscore.Lipo.Weighted>
-8.5024

> <Gold.Chemscore.Internal_Hbond.Weighted>
0.0000

> <Gold.Chemscore.DEClash.Weighted>
0.0009

> <Gold.Chemscore.DEInternal.Weighted>
0.7074

> <Gold.Chemscore.Rot.Weighted>
3.3062

> <Gold.Chemscore.Internal.Correction.Weighted>
   9.000000E+99

> <Gold.Protein.RotatedTorsions>
[ 6907 6896 6895 6894 ] final   57.04 input  -60.11 | X-H torsion
[ 7974 7965 7964 7962 ] final   32.50 input  175.53 | X-H torsion
[ 8008 7997 7996 7995 ] final  -57.35 input   59.86 | X-H torsion
[ 10167 10162 10161 10158 ] final -161.87 input  -65.29 | X-H torsion
[ 10718 10713 10712 10709 ] final -115.02 input   66.30 | X-H torsion
[ 10763 10752 10751 10750 ] final  -93.58 input  -60.55 | X-H torsion
[ 11005 11000 10999 10996 ] final -160.18 input  -57.11 | X-H torsion

> <Gold.Protein.ActiveResidues>
 VAL166  LYS551  ARG553  GLY616  TRP617  ASP618  TYR619  PRO620  LYS621  CYS622 
 ASP623  PHE694  ASN695  SER759  ASP760  ASP761  ALA762  ILE779  LEU786  VAL792 
 PHE793  MET794  SER795  GLU796  ALA797  LYS798  CYS799  TRP800  GLU811  SER814 

> <Gold.Protein.RotatedAtoms>
  152.3693  134.6757  160.0181 H   0  0  0  0  0  0  0  0  0  0  0  0  # atno 6907 bound_to 6896
  151.7055  133.3306  159.3285 H   0  0  0  0  0  0  0  0  0  0  0  0  # atno 6908 bound_to 6896
  150.7662  134.6513  159.6334 H   0  0  0  0  0  0  0  0  0  0  0  0  # atno 6909 bound_to 6896
  146.1482  139.6518  142.9116 H   0  0  0  0  0  0  0  0  0  0  0  0  # atno 7974 bound_to 7965
  154.4265  140.1109  156.5784 H   0  0  0  0  0  0  0  0  0  0  0  0  # atno 8008 bound_to 7997
  155.6138  140.3494  155.4612 H   0  0  0  0  0  0  0  0  0  0  0  0  # atno 8009 bound_to 7997
  156.0078  140.1212  157.0473 H   0  0  0  0  0  0  0  0  0  0  0  0  # atno 8010 bound_to 7997
  139.6433  144.0219  152.2108 H   0  0  0  0  0  0  0  0  0  0  0  0  # atno 10167 bound_to 10162
  156.0868  130.6058  150.8851 H   0  0  0  0  0  0  0  0  0  0  0  0  # atno 10718 bound_to 10713
  154.6973  135.5189  153.8477 H   0  0  0  0  0  0  0  0  0  0  0  0  # atno 10763 bound_to 10752
  153.0677  135.6590  154.0326 H   0  0  0  0  0  0  0  0  0  0  0  0  # atno 10764 bound_to 10752
  154.0191  135.2995  155.3363 H   0  0  0  0  0  0  0  0  0  0  0  0  # atno 10765 bound_to 10752
  140.6343  134.4618  157.5231 H   0  0  0  0  0  0  0  0  0  0  0  0  # atno 11005 bound_to 11000
  145.4886  141.0438  143.2606 LP  0  0  0  0  0  0  0  0  0  0  0  0  # atno 17320 bound_to 7965
  144.7872  139.6402  143.7129 LP  0  0  0  0  0  0  0  0  0  0  0  0  # atno 17321 bound_to 7965
  139.9914  144.6359  150.7811 LP  0  0  0  0  0  0  0  0  0  0  0  0  # atno 17342 bound_to 10162
  140.7502  143.2951  151.3226 LP  0  0  0  0  0  0  0  0  0  0  0  0  # atno 17343 bound_to 10162
  157.6005  131.0941  150.8968 LP  0  0  0  0  0  0  0  0  0  0  0  0  # atno 17370 bound_to 10713
  156.9126  130.5286  149.5280 LP  0  0  0  0  0  0  0  0  0  0  0  0  # atno 17371 bound_to 10713
  139.9104  134.8357  156.1550 LP  0  0  0  0  0  0  0  0  0  0  0  0  # atno 17394 bound_to 11000
  141.0652  133.6822  156.2031 LP  0  0  0  0  0  0  0  0  0  0  0  0  # atno 17395 bound_to 11000

$$$$
