AV-unprocessed.smi:3045|AV-procd|sdf|11609|dock9
  -GOLD-   2272016593D 1   1.00000     0.00000
 Structure written by MMmdl.
 35 36  0  0  0  0  0  0  0  0  1 V2000
  149.3673  138.3014  154.1798 C   0  0  0  0  0  0  0  0  0  0  0  0
  149.5867  139.3051  155.2123 N   0  0  0  0  0  0  0  0  0  0  0  0
  149.7165  138.9282  156.6091 C   0  0  0  0  0  0  0  0  0  0  0  0
  150.0920  140.2270  157.3561 C   0  0  1  0  0  0  0  0  0  0  0  0
  151.5348  140.1993  157.8842 C   0  0  0  0  0  0  0  0  0  0  0  0
  152.4773  140.0386  157.1077 O   0  0  0  0  0  0  0  0  0  0  0  0
  151.6914  140.3510  159.2082 N   0  0  0  0  0  0  0  0  0  0  0  0
  152.9720  140.3420  159.9045 C   0  0  0  0  0  0  0  0  0  0  0  0
  153.8481  141.5355  159.4908 C   0  0  0  0  0  0  0  0  0  0  0  0
  153.0959  142.8489  159.5687 C   0  0  0  0  0  0  0  0  0  0  0  0
  152.5234  143.2827  160.7822 C   0  0  0  0  0  0  0  0  0  0  0  0
  151.8363  144.5115  160.8065 C   0  0  0  0  0  0  0  0  0  0  0  0
  151.7516  145.2562  159.6129 C   0  0  0  0  0  0  0  0  0  0  0  0
  152.2972  144.8512  158.4458 N   0  0  0  0  0  0  0  0  0  0  0  0
  152.9538  143.6714  158.4310 C   0  0  0  0  0  0  0  0  0  0  0  0
  149.8863  141.3577  156.3271 C   0  0  0  0  0  0  0  0  0  0  0  0
  149.6422  140.6253  155.0184 C   0  0  0  0  0  0  0  0  0  0  0  0
  149.5236  141.2053  153.9402 O   0  0  0  0  0  0  0  0  0  0  0  0
  148.3721  138.4108  153.7479 H   0  0  0  0  0  0  0  0  0  0  0  0
  149.4514  137.2935  154.5869 H   0  0  0  0  0  0  0  0  0  0  0  0
  150.1027  138.4047  153.3813 H   0  0  0  0  0  0  0  0  0  0  0  0
  148.7633  138.5371  156.9671 H   0  0  0  0  0  0  0  0  0  0  0  0
  150.4607  138.1378  156.7238 H   0  0  0  0  0  0  0  0  0  0  0  0
  149.4096  140.3701  158.1959 H   0  0  0  0  0  0  0  0  0  0  0  0
  150.8647  140.4786  159.7739 H   0  0  0  0  0  0  0  0  0  0  0  0
  152.8102  140.3403  160.9839 H   0  0  0  0  0  0  0  0  0  0  0  0
  153.4799  139.4073  159.6651 H   0  0  0  0  0  0  0  0  0  0  0  0
  154.7305  141.5916  160.1297 H   0  0  0  0  0  0  0  0  0  0  0  0
  154.2148  141.4032  158.4720 H   0  0  0  0  0  0  0  0  0  0  0  0
  152.6101  142.6865  161.6787 H   0  0  0  0  0  0  0  0  0  0  0  0
  151.3850  144.8749  161.7178 H   0  0  0  0  0  0  0  0  0  0  0  0
  151.2324  146.2030  159.5956 H   0  0  0  0  0  0  0  0  0  0  0  0
  153.3797  143.3768  157.4829 H   0  0  0  0  0  0  0  0  0  0  0  0
  149.0120  141.9603  156.5747 H   0  0  0  0  0  0  0  0  0  0  0  0
  150.7417  142.0290  156.2340 H   0  0  0  0  0  0  0  0  0  0  0  0
  1  2  1  0  0  0  0
  1 19  1  0  0  0  0
  1 20  1  0  0  0  0
  1 21  1  0  0  0  0
  2 17  1  0  0  0  0
  2  3  1  0  0  0  0
  3  4  1  0  0  0  0
  3 22  1  0  0  0  0
  3 23  1  0  0  0  0
  4  5  1  0  0  0  0
  4 16  1  0  0  0  0
  4 24  1  0  0  0  0
  5  6  2  0  0  0  0
  5  7  1  0  0  0  0
  7  8  1  0  0  0  0
  7 25  1  0  0  0  0
  8  9  1  0  0  0  0
  8 26  1  0  0  0  0
  8 27  1  0  0  0  0
  9 10  1  0  0  0  0
  9 28  1  0  0  0  0
  9 29  1  0  0  0  0
 10 15  1  0  0  0  0
 10 11  2  0  0  0  0
 11 12  1  0  0  0  0
 11 30  1  0  0  0  0
 12 13  2  0  0  0  0
 12 31  1  0  0  0  0
 13 14  1  0  0  0  0
 13 32  1  0  0  0  0
 14 15  2  0  0  0  0
 15 33  1  0  0  0  0
 16 17  1  0  0  0  0
 16 34  1  0  0  0  0
 16 35  1  0  0  0  0
 17 18  2  0  0  0  0
M  END
> <s_m_source_file>
AV-unprocessed.smi

> <i_m_source_file_index>
3045

> <i_lp_mmshare_version>
43012

> <i_f3d_flags>
0

> <s_epik_input>
W0NIM11OMVtDSDJdW0NASF0oW0NIMl1DMT1PKUMoPU8pW05IXVtDSDJdW0NIMl1jMltjSF1bY0hdW2NIXW5bY0hdMg==

> <s_epik_cmdline>
J2VwaWtfcHl0aG9uJywgJy1waCcsICc3LjAnLCAnLXRuJywgJzgnLCAnLW1hJywgJzIwMCcsICctbWV0YWxfYmluZGluZycsICctaW1hZScsICc8aW5maWxlLm1hZT4nLCAnLW9tYWUnLCAnPG91dGZpbGUubWFlPic=

> <r_epik_Ionization_Penalty>
0.0130932

> <r_epik_Ionization_Penalty_Charging>
0

> <r_epik_Ionization_Penalty_Neutral>
0.0130932

> <r_epik_State_Penalty>
0.0101714

> <r_epik_Charging_Adjusted_Penalty>
0.0101714

> <i_epik_Tot_Q>
0

> <i_epik_Tot_abs_Q>
0

> <r_epik_Metal_State_Penalty>
0.00995082

> <b_epik_Metal_Only>
0

> <s_lp_Force_Field>
OPLS_2005

> <r_lp_Energy>
9.14953

> <b_lp_Chiralities_Consistent>
1

> <s_lp_Variant>
AV-unprocessed.smi:3045-1

> <Gold.Version>
5.8.1

> <Gold.Id.Protein>
6NUR|6NUR_protein|mol2

> <Gold.PLP.Fitness>
43.8966

> <Gold.PLP.PLP>
-38.7000

> <Gold.PLP.part.hbond>
-3.0000

> <Gold.PLP.part.metal>
0.0000

> <Gold.PLP.part.buried>
-4.4662

> <Gold.PLP.part.nonpolar>
-31.4792

> <Gold.PLP.part.repulsive>
0.4077

> <Gold.PLP.ligand.clash>
0.0000

> <Gold.PLP.ligand.torsion>
0.0445

> <Gold.PLP.Chemscore.Hbond>
1.7585

> <Gold.PLP.Chemscore.CHOScore>
0.0000

> <Gold.PLP.Chemscore.Metal>
0.0000

> <Gold.Chemscore.Hbonds>
donor molecule, donor type, donor heavy atom, donor atom, acceptor molecule, acceptor atom, score
      P1  H  7989  7998       L1    18  0.14
      P1  H  7997  8010       L1     6  1.00
      P1  H  8011  8017       L1    18  0.83

> <Gold.PLP.Chemscore.Internal.Correction>
0.0102

> <Gold.Rescore>
     Score         DG    S(hbond)    S(metal)    S(lipo)     H(rot)  DE(clash)    DE(int)     intcor
     18.30     -18.82       1.77        0.00      98.99       1.62       0.48       0.04       ----

> <Gold.Chemscore.Fitness>
18.3034

> <Gold.Chemscore.DG>
-18.8219

> <Gold.Chemscore.ZeroCoef>
-5.4800

> <Gold.Chemscore.Hbond>
1.7693

> <Gold.Chemscore.Metal>
0.0000

> <Gold.Chemscore.Lipo>
98.9934

> <Gold.Chemscore.Internal_Hbond>
0.0000

> <Gold.Chemscore.DEClash>
0.4763

> <Gold.Chemscore.DEInternal>
0.0422

> <Gold.Chemscore.Rot>
1.6210

> <Gold.Chemscore.Internal.Correction>
   9.000000E+99

> <Gold.Chemscore.Hbonds>
donor molecule, donor type, donor heavy atom, donor atom, acceptor molecule, acceptor atom, score
      P1  H  7989  7998       L1    18  0.01
      P1  H  7997  8010       L1     6  0.97
      P1  H  8011  8017       L1    18  0.76

> <Gold.Chemscore.Hbond.Weighted>
-5.9094

> <Gold.Chemscore.Metal.Weighted>
-0.0000

> <Gold.Chemscore.Lipo.Weighted>
-11.5822

> <Gold.Chemscore.Internal_Hbond.Weighted>
0.0000

> <Gold.Chemscore.DEClash.Weighted>
0.4763

> <Gold.Chemscore.DEInternal.Weighted>
0.0422

> <Gold.Chemscore.Rot.Weighted>
4.1498

> <Gold.Chemscore.Internal.Correction.Weighted>
   9.000000E+99

> <Gold.Protein.RotatedTorsions>
[ 6907 6896 6895 6894 ] final  -81.83 input  -60.11 | X-H torsion
[ 7974 7965 7964 7962 ] final -174.06 input  175.53 | X-H torsion
[ 8008 7997 7996 7995 ] final   55.00 input   59.86 | X-H torsion
[ 10167 10162 10161 10158 ] final -117.02 input  -65.29 | X-H torsion
[ 10718 10713 10712 10709 ] final  175.04 input   66.30 | X-H torsion
[ 10763 10752 10751 10750 ] final  137.03 input  -60.55 | X-H torsion
[ 11005 11000 10999 10996 ] final  -41.16 input  -57.11 | X-H torsion

> <Gold.Protein.ActiveResidues>
 VAL166  LYS551  ARG553  GLY616  TRP617  ASP618  TYR619  PRO620  LYS621  CYS622 
 ASP623  PHE694  ASN695  SER759  ASP760  ASP761  ALA762  ILE779  LEU786  VAL792 
 PHE793  MET794  SER795  GLU796  ALA797  LYS798  CYS799  TRP800  GLU811  SER814 

> <Gold.Protein.RotatedAtoms>
  150.6906  134.3758  159.5011 H   0  0  0  0  0  0  0  0  0  0  0  0  # atno 6907 bound_to 6896
  152.1567  134.8942  160.0553 H   0  0  0  0  0  0  0  0  0  0  0  0  # atno 6908 bound_to 6896
  152.0019  133.3794  159.4222 H   0  0  0  0  0  0  0  0  0  0  0  0  # atno 6909 bound_to 6896
  144.7134  140.1528  143.6382 H   0  0  0  0  0  0  0  0  0  0  0  0  # atno 7974 bound_to 7965
  155.4940  140.3472  155.4360 H   0  0  0  0  0  0  0  0  0  0  0  0  # atno 8008 bound_to 7997
  156.0958  140.1422  156.9561 H   0  0  0  0  0  0  0  0  0  0  0  0  # atno 8009 bound_to 7997
  154.4662  140.0916  156.7005 H   0  0  0  0  0  0  0  0  0  0  0  0  # atno 8010 bound_to 7997
  140.0729  143.4860  152.1969 H   0  0  0  0  0  0  0  0  0  0  0  0  # atno 10167 bound_to 10162
  156.9407  131.0000  151.2969 H   0  0  0  0  0  0  0  0  0  0  0  0  # atno 10718 bound_to 10713
  153.8663  135.3061  155.3440 H   0  0  0  0  0  0  0  0  0  0  0  0  # atno 10763 bound_to 10752
  154.7826  135.4827  153.9879 H   0  0  0  0  0  0  0  0  0  0  0  0  # atno 10764 bound_to 10752
  153.1432  135.6828  153.9090 H   0  0  0  0  0  0  0  0  0  0  0  0  # atno 10765 bound_to 10752
  141.0226  133.6856  156.2419 H   0  0  0  0  0  0  0  0  0  0  0  0  # atno 11005 bound_to 11000
  145.9100  139.2481  143.1443 LP  0  0  0  0  0  0  0  0  0  0  0  0  # atno 17320 bound_to 7965
  145.9725  140.8748  143.0155 LP  0  0  0  0  0  0  0  0  0  0  0  0  # atno 17321 bound_to 7965
  139.5825  144.7517  151.3603 LP  0  0  0  0  0  0  0  0  0  0  0  0  # atno 17342 bound_to 10162
  140.7116  143.7374  150.7578 LP  0  0  0  0  0  0  0  0  0  0  0  0  # atno 17343 bound_to 10162
  157.5786  130.8361  149.8491 LP  0  0  0  0  0  0  0  0  0  0  0  0  # atno 17370 bound_to 10713
  156.0405  130.3740  150.1447 LP  0  0  0  0  0  0  0  0  0  0  0  0  # atno 17371 bound_to 10713
  140.6547  134.5031  157.5580 LP  0  0  0  0  0  0  0  0  0  0  0  0  # atno 17394 bound_to 11000
  139.9155  134.8254  156.1379 LP  0  0  0  0  0  0  0  0  0  0  0  0  # atno 17395 bound_to 11000

$$$$
