AV-unprocessed.smi:300|AV-procd|sdf|2269|dock9
  -GOLD-   2262022163D 1   1.00000     0.00000
 Structure written by MMmdl.
 45 46  0  0  0  0  0  0  0  0  1 V2000
  147.0378  134.3270  162.5531 C   0  0  0  0  0  0  0  0  0  0  0  0
  147.5744  134.4442  161.2131 N   0  0  0  0  0  0  0  0  0  0  0  0
  147.8087  133.2668  160.4624 C   0  0  0  0  0  0  0  0  0  0  0  0
  147.5712  132.1411  160.9010 O   0  0  0  0  0  0  0  0  0  0  0  0
  148.3619  133.4992  159.1335 C   0  0  0  0  0  0  0  0  0  0  0  0
  148.6210  134.7517  158.6984 C   0  0  0  0  0  0  0  0  0  0  0  0
  148.3917  135.8852  159.4568 N   0  0  0  0  0  0  0  0  0  0  0  0
  148.7181  137.2075  158.9073 C   0  0  0  0  0  0  0  0  0  0  0  0
  150.1424  137.2923  158.3418 C   0  0  0  0  0  0  0  0  0  0  0  0
  151.0014  136.4717  158.6685 O   0  0  0  0  0  0  0  0  0  0  0  0
  150.3704  138.2863  157.4705 N   0  0  0  0  0  0  0  0  0  0  0  0
  151.6433  138.5428  156.8085 C   0  0  0  0  0  0  0  0  0  0  0  0
  151.8620  140.0486  156.5701 C   0  0  0  0  0  0  0  0  0  0  0  0
  151.7999  140.8038  157.8301 N   0  0  0  0  0  0  0  0  0  0  0  0
  150.7514  141.8330  157.9065 C   0  0  0  0  0  0  0  0  0  0  0  0
  151.3248  143.2587  158.0223 C   0  0  0  0  0  0  0  0  0  0  0  0
  151.7452  143.6499  159.4467 C   0  0  0  0  0  0  0  0  0  0  0  0
  152.8888  142.8040  160.0251 C   0  0  0  0  0  0  0  0  0  0  0  0
  152.5346  141.3138  160.1583 C   0  0  0  0  0  0  0  0  0  0  0  0
  152.6738  140.5522  158.8341 C   0  0  0  0  0  0  0  0  0  0  0  0
  153.5747  139.7177  158.7363 O   0  0  0  0  0  0  0  0  0  0  0  0
  147.8592  135.7502  160.7568 C   0  0  0  0  0  0  0  0  0  0  0  0
  147.6585  136.7431  161.4610 O   0  0  0  0  0  0  0  0  0  0  0  0
  146.6558  133.3229  162.7358 H   0  0  0  0  0  0  0  0  0  0  0  0
  146.2138  135.0368  162.6479 H   0  0  0  0  0  0  0  0  0  0  0  0
  147.8498  134.5635  163.2422 H   0  0  0  0  0  0  0  0  0  0  0  0
  148.5693  132.6566  158.4904 H   0  0  0  0  0  0  0  0  0  0  0  0
  149.0344  134.8699  157.7074 H   0  0  0  0  0  0  0  0  0  0  0  0
  148.0205  137.4595  158.1075 H   0  0  0  0  0  0  0  0  0  0  0  0
  148.5780  137.9743  159.6715 H   0  0  0  0  0  0  0  0  0  0  0  0
  149.6082  138.9120  157.2526 H   0  0  0  0  0  0  0  0  0  0  0  0
  152.4359  138.1399  157.4395 H   0  0  0  0  0  0  0  0  0  0  0  0
  151.6908  137.9948  155.8658 H   0  0  0  0  0  0  0  0  0  0  0  0
  152.8157  140.2144  156.0681 H   0  0  0  0  0  0  0  0  0  0  0  0
  151.1138  140.4246  155.8695 H   0  0  0  0  0  0  0  0  0  0  0  0
  150.1273  141.8020  157.0131 H   0  0  0  0  0  0  0  0  0  0  0  0
  150.0730  141.6186  158.7334 H   0  0  0  0  0  0  0  0  0  0  0  0
  152.1581  143.3887  157.3303 H   0  0  0  0  0  0  0  0  0  0  0  0
  150.5580  143.9627  157.6975 H   0  0  0  0  0  0  0  0  0  0  0  0
  152.0513  144.6964  159.4459 H   0  0  0  0  0  0  0  0  0  0  0  0
  150.8800  143.5933  160.1085 H   0  0  0  0  0  0  0  0  0  0  0  0
  153.7874  142.9291  159.4190 H   0  0  0  0  0  0  0  0  0  0  0  0
  153.1409  143.1924  161.0123 H   0  0  0  0  0  0  0  0  0  0  0  0
  153.2144  140.8569  160.8788 H   0  0  0  0  0  0  0  0  0  0  0  0
  151.5343  141.1799  160.5714 H   0  0  0  0  0  0  0  0  0  0  0  0
  1  2  1  0  0  0  0
  1 24  1  0  0  0  0
  1 25  1  0  0  0  0
  1 26  1  0  0  0  0
  2 22  1  0  0  0  0
  2  3  1  0  0  0  0
  3  4  2  0  0  0  0
  3  5  1  0  0  0  0
  5  6  2  0  0  0  0
  5 27  1  0  0  0  0
  6  7  1  0  0  0  0
  6 28  1  0  0  0  0
  7  8  1  0  0  0  0
  7 22  1  0  0  0  0
  8  9  1  0  0  0  0
  8 29  1  0  0  0  0
  8 30  1  0  0  0  0
  9 10  2  0  0  0  0
  9 11  1  0  0  0  0
 11 12  1  0  0  0  0
 11 31  1  0  0  0  0
 12 13  1  0  0  0  0
 12 32  1  0  0  0  0
 12 33  1  0  0  0  0
 13 14  1  0  0  0  0
 13 34  1  0  0  0  0
 13 35  1  0  0  0  0
 14 20  1  0  0  0  0
 14 15  1  0  0  0  0
 15 16  1  0  0  0  0
 15 36  1  0  0  0  0
 15 37  1  0  0  0  0
 16 17  1  0  0  0  0
 16 38  1  0  0  0  0
 16 39  1  0  0  0  0
 17 18  1  0  0  0  0
 17 40  1  0  0  0  0
 17 41  1  0  0  0  0
 18 19  1  0  0  0  0
 18 42  1  0  0  0  0
 18 43  1  0  0  0  0
 19 20  1  0  0  0  0
 19 44  1  0  0  0  0
 19 45  1  0  0  0  0
 20 21  2  0  0  0  0
 22 23  2  0  0  0  0
M  END
> <s_m_source_file>
AV-unprocessed.smi

> <i_m_source_file_index>
300

> <i_lp_mmshare_version>
43012

> <i_f3d_flags>
0

> <s_epik_input>
W0NIM11uMWMoPU8pW2NIXVtjSF1uKGMxPU8pW0NIMl1DKD1PKVtOSF1bQ0gyXVtDSDJdTjJbQ0gyXVtDSDJdW0NIMl1bQ0gyXVtDSDJdQzI9Tw==

> <s_epik_cmdline>
J2VwaWtfcHl0aG9uJywgJy1waCcsICc3LjAnLCAnLXRuJywgJzgnLCAnLW1hJywgJzIwMCcsICctbWV0YWxfYmluZGluZycsICctaW1hZScsICc8aW5maWxlLm1hZT4nLCAnLW9tYWUnLCAnPG91dGZpbGUubWFlPic=

> <r_lp_tautomer_probability>
1

> <r_epik_Ionization_Penalty>
6.11943e-08

> <r_epik_Ionization_Penalty_Charging>
1.13819e-08

> <r_epik_Ionization_Penalty_Neutral>
4.98124e-08

> <r_epik_State_Penalty>
-0

> <r_epik_Charging_Adjusted_Penalty>
1.13819e-08

> <i_epik_Tot_Q>
0

> <i_epik_Tot_abs_Q>
0

> <r_epik_Metal_State_Penalty>
-0

> <b_epik_Metal_Only>
0

> <s_lp_Force_Field>
OPLS_2005

> <r_lp_Energy>
25.2871

> <b_lp_Chiralities_Consistent>
1

> <s_lp_Variant>
AV-unprocessed.smi:300-1

> <Gold.Version>
5.8.1

> <Gold.Id.Protein>
6NUR|6NUR_protein|mol2

> <Gold.PLP.Fitness>
54.6408

> <Gold.PLP.PLP>
-44.4685

> <Gold.PLP.part.hbond>
-4.0000

> <Gold.PLP.part.metal>
0.0000

> <Gold.PLP.part.buried>
-5.1330

> <Gold.PLP.part.nonpolar>
-35.2502

> <Gold.PLP.part.repulsive>
0.0273

> <Gold.PLP.ligand.clash>
0.0000

> <Gold.PLP.ligand.torsion>
0.5373

> <Gold.PLP.Chemscore.Hbond>
3.7360

> <Gold.PLP.Chemscore.CHOScore>
0.0000

> <Gold.PLP.Chemscore.Metal>
0.0000

> <Gold.Chemscore.Hbonds>
donor molecule, donor type, donor heavy atom, donor atom, acceptor molecule, acceptor atom, score
      P1  H  6896  6907       L1    10  0.86
      P1  H  6931  6943       L1    23  0.86
      P1  H  6934  6947       L1    23  0.10
      P1  H  7997  8008       L1    21  1.00

> <Gold.PLP.Chemscore.Internal.Correction>
0.0389

> <Gold.Rescore>
     Score         DG    S(hbond)    S(metal)    S(lipo)     H(rot)  DE(clash)    DE(int)     intcor
     19.20     -21.03       3.57        0.00      78.70       2.18       0.03       1.79       ----

> <Gold.Chemscore.Fitness>
19.2050

> <Gold.Chemscore.DG>
-21.0262

> <Gold.Chemscore.ZeroCoef>
-5.4800

> <Gold.Chemscore.Hbond>
3.5702

> <Gold.Chemscore.Metal>
0.0000

> <Gold.Chemscore.Lipo>
78.6979

> <Gold.Chemscore.Internal_Hbond>
0.0000

> <Gold.Chemscore.DEClash>
0.0308

> <Gold.Chemscore.DEInternal>
1.7904

> <Gold.Chemscore.Rot>
2.1820

> <Gold.Chemscore.Internal.Correction>
   9.000000E+99

> <Gold.Chemscore.Hbonds>
donor molecule, donor type, donor heavy atom, donor atom, acceptor molecule, acceptor atom, score
      P1  H  6896  6907       L1    10  0.85
      P1  H  6931  6943       L1    23  0.83
      P1  H  6934  6947       L1    23  0.12
      P1  H  7997  8008       L1    21  0.83

> <Gold.Chemscore.Hbond.Weighted>
-11.9245

> <Gold.Chemscore.Metal.Weighted>
-0.0000

> <Gold.Chemscore.Lipo.Weighted>
-9.2077

> <Gold.Chemscore.Internal_Hbond.Weighted>
0.0000

> <Gold.Chemscore.DEClash.Weighted>
0.0308

> <Gold.Chemscore.DEInternal.Weighted>
1.7904

> <Gold.Chemscore.Rot.Weighted>
5.5860

> <Gold.Chemscore.Internal.Correction.Weighted>
   9.000000E+99

> <Gold.Protein.RotatedTorsions>
[ 6907 6896 6895 6894 ] final  -27.54 input  -60.11 | X-H torsion
[ 7974 7965 7964 7962 ] final  -78.21 input  175.53 | X-H torsion
[ 8008 7997 7996 7995 ] final  -97.80 input   59.86 | X-H torsion
[ 10167 10162 10161 10158 ] final -127.02 input  -65.29 | X-H torsion
[ 10718 10713 10712 10709 ] final   91.71 input   66.30 | X-H torsion
[ 10763 10752 10751 10750 ] final  -24.31 input  -60.55 | X-H torsion
[ 11005 11000 10999 10996 ] final  138.18 input  -57.11 | X-H torsion

> <Gold.Protein.ActiveResidues>
 VAL166  LYS551  ARG553  GLY616  TRP617  ASP618  TYR619  PRO620  LYS621  CYS622 
 ASP623  PHE694  ASN695  SER759  ASP760  ASP761  ALA762  ILE779  LEU786  VAL792 
 PHE793  MET794  SER795  GLU796  ALA797  LYS798  CYS799  TRP800  GLU811  SER814 

> <Gold.Protein.RotatedAtoms>
  151.1455  135.0201  159.8644 H   0  0  0  0  0  0  0  0  0  0  0  0  # atno 6907 bound_to 6896
  152.5453  134.1449  159.8504 H   0  0  0  0  0  0  0  0  0  0  0  0  # atno 6908 bound_to 6896
  151.1529  133.4850  159.2628 H   0  0  0  0  0  0  0  0  0  0  0  0  # atno 6909 bound_to 6896
  145.5895  140.9432  143.1300 H   0  0  0  0  0  0  0  0  0  0  0  0  # atno 7974 bound_to 7965
  154.7926  140.0460  157.1212 H   0  0  0  0  0  0  0  0  0  0  0  0  # atno 8008 bound_to 7997
  154.9573  140.3073  155.5027 H   0  0  0  0  0  0  0  0  0  0  0  0  # atno 8009 bound_to 7997
  156.2952  140.2277  156.4656 H   0  0  0  0  0  0  0  0  0  0  0  0  # atno 8010 bound_to 7997
  139.9652  143.5905  152.2431 H   0  0  0  0  0  0  0  0  0  0  0  0  # atno 10167 bound_to 10162
  157.6960  131.0417  150.3771 H   0  0  0  0  0  0  0  0  0  0  0  0  # atno 10718 bound_to 10713
  153.6817  135.6966  153.5116 H   0  0  0  0  0  0  0  0  0  0  0  0  # atno 10763 bound_to 10752
  153.2480  135.4284  155.0767 H   0  0  0  0  0  0  0  0  0  0  0  0  # atno 10764 bound_to 10752
  154.8398  135.3524  154.6360 H   0  0  0  0  0  0  0  0  0  0  0  0  # atno 10765 bound_to 10752
  140.0166  134.9415  157.0388 H   0  0  0  0  0  0  0  0  0  0  0  0  # atno 11005 bound_to 11000
  144.7357  139.7592  143.7330 LP  0  0  0  0  0  0  0  0  0  0  0  0  # atno 17320 bound_to 7965
  146.1657  139.4788  142.9960 LP  0  0  0  0  0  0  0  0  0  0  0  0  # atno 17321 bound_to 7965
  139.6523  144.7661  151.2124 LP  0  0  0  0  0  0  0  0  0  0  0  0  # atno 17342 bound_to 10162
  140.7540  143.6141  150.8576 LP  0  0  0  0  0  0  0  0  0  0  0  0  # atno 17343 bound_to 10162
  156.4189  130.3949  149.6839 LP  0  0  0  0  0  0  0  0  0  0  0  0  # atno 17370 bound_to 10713
  156.4097  130.7715  151.2728 LP  0  0  0  0  0  0  0  0  0  0  0  0  # atno 17371 bound_to 10713
  140.4461  134.1631  155.7177 LP  0  0  0  0  0  0  0  0  0  0  0  0  # atno 17394 bound_to 11000
  141.1746  133.8539  157.1461 LP  0  0  0  0  0  0  0  0  0  0  0  0  # atno 17395 bound_to 11000

$$$$
