AV-unprocessed.smi:3348|AV-procd|sdf|12927|dock8
  -GOLD-   2272019353D 1   1.00000     0.00000
 Structure written by MMmdl.
 46 47  0  0  0  0  0  0  0  0  1 V2000
  146.2051  134.5962  153.5336 C   0  0  0  0  0  0  0  0  0  0  0  0
  145.7147  135.5435  152.4250 C   0  0  2  0  0  0  0  0  0  0  0  0
  145.9025  134.9478  151.0080 C   0  0  0  0  0  0  0  0  0  0  0  0
  145.2829  133.6439  150.8506 N   0  0  0  0  0  0  0  0  0  0  0  0
  145.8919  132.4110  150.7424 C   0  0  0  0  0  0  0  0  0  0  0  0
  144.9025  131.4806  150.5998 C   0  0  0  0  0  0  0  0  0  0  0  0
  143.7068  132.2518  150.6274 C   0  0  0  0  0  0  0  0  0  0  0  0
  143.9378  133.5464  150.7733 N   0  0  0  0  0  0  0  0  0  0  0  0
  146.3896  136.8372  152.5678 N   0  0  0  0  0  0  0  0  0  0  0  0
  146.2290  137.4925  153.8658 C   0  0  0  0  0  0  0  0  0  0  0  0
  147.5597  137.5427  154.6234 C   0  0  0  0  0  0  0  0  0  0  0  0
  147.8889  138.9005  154.8754 O   0  0  0  0  0  0  0  0  0  0  0  0
  148.8199  139.4668  153.9591 C   0  0  2  0  0  0  0  0  0  0  0  0
  150.2058  138.8075  154.1257 C   0  0  0  0  0  0  0  0  0  0  0  0
  150.8147  139.1030  155.5064 C   0  0  0  0  0  0  0  0  0  0  0  0
  150.8884  140.6146  155.7704 C   0  0  0  0  0  0  0  0  0  0  0  0
  149.5116  141.2787  155.6089 C   0  0  0  0  0  0  0  0  0  0  0  0
  148.9025  140.9870  154.2225 C   0  0  2  0  0  0  0  0  0  0  0  0
  147.5427  141.6783  154.0376 C   0  0  0  0  0  0  0  0  0  0  0  0
  145.6484  133.6590  153.5382 H   0  0  0  0  0  0  0  0  0  0  0  0
  146.0796  135.0467  154.5188 H   0  0  0  0  0  0  0  0  0  0  0  0
  147.2617  134.3558  153.4097 H   0  0  0  0  0  0  0  0  0  0  0  0
  144.6464  135.6934  152.5868 H   0  0  0  0  0  0  0  0  0  0  0  0
  145.4782  135.6029  150.2469 H   0  0  0  0  0  0  0  0  0  0  0  0
  146.9649  134.8510  150.7802 H   0  0  0  0  0  0  0  0  0  0  0  0
  146.9657  132.2997  150.7774 H   0  0  0  0  0  0  0  0  0  0  0  0
  145.0153  130.4121  150.4911 H   0  0  0  0  0  0  0  0  0  0  0  0
  142.6850  131.9121  150.5447 H   0  0  0  0  0  0  0  0  0  0  0  0
  147.3778  136.7289  152.3636 H   0  0  0  0  0  0  0  0  0  0  0  0
  145.8354  138.5027  153.7554 H   0  0  0  0  0  0  0  0  0  0  0  0
  145.5072  136.9356  154.4641 H   0  0  0  0  0  0  0  0  0  0  0  0
  147.4539  137.0045  155.5653 H   0  0  0  0  0  0  0  0  0  0  0  0
  148.3478  137.0488  154.0525 H   0  0  0  0  0  0  0  0  0  0  0  0
  148.4683  139.3171  152.9364 H   0  0  0  0  0  0  0  0  0  0  0  0
  150.1469  137.7309  153.9684 H   0  0  0  0  0  0  0  0  0  0  0  0
  150.8761  139.1853  153.3525 H   0  0  0  0  0  0  0  0  0  0  0  0
  150.2144  138.6246  156.2814 H   0  0  0  0  0  0  0  0  0  0  0  0
  151.8112  138.6654  155.5738 H   0  0  0  0  0  0  0  0  0  0  0  0
  151.2745  140.7986  156.7735 H   0  0  0  0  0  0  0  0  0  0  0  0
  151.5971  141.0715  155.0784 H   0  0  0  0  0  0  0  0  0  0  0  0
  148.8402  140.9223  156.3914 H   0  0  0  0  0  0  0  0  0  0  0  0
  149.6082  142.3550  155.7546 H   0  0  0  0  0  0  0  0  0  0  0  0
  149.5760  141.4105  153.4758 H   0  0  0  0  0  0  0  0  0  0  0  0
  146.8118  141.3234  154.7650 H   0  0  0  0  0  0  0  0  0  0  0  0
  147.1393  141.4904  153.0421 H   0  0  0  0  0  0  0  0  0  0  0  0
  147.6325  142.7581  154.1580 H   0  0  0  0  0  0  0  0  0  0  0  0
  1  2  1  0  0  0  0
  1 20  1  0  0  0  0
  1 21  1  0  0  0  0
  1 22  1  0  0  0  0
  2  3  1  0  0  0  0
  2  9  1  0  0  0  0
  2 23  1  0  0  0  0
  3  4  1  0  0  0  0
  3 24  1  0  0  0  0
  3 25  1  0  0  0  0
  4  8  1  0  0  0  0
  4  5  1  0  0  0  0
  5  6  2  0  0  0  0
  5 26  1  0  0  0  0
  6  7  1  0  0  0  0
  6 27  1  0  0  0  0
  7  8  2  0  0  0  0
  7 28  1  0  0  0  0
  9 10  1  0  0  0  0
  9 29  1  0  0  0  0
 10 11  1  0  0  0  0
 10 30  1  0  0  0  0
 10 31  1  0  0  0  0
 11 12  1  0  0  0  0
 11 32  1  0  0  0  0
 11 33  1  0  0  0  0
 12 13  1  0  0  0  0
 13 18  1  0  0  0  0
 13 14  1  0  0  0  0
 13 34  1  0  0  0  0
 14 15  1  0  0  0  0
 14 35  1  0  0  0  0
 14 36  1  0  0  0  0
 15 16  1  0  0  0  0
 15 37  1  0  0  0  0
 15 38  1  0  0  0  0
 16 17  1  0  0  0  0
 16 39  1  0  0  0  0
 16 40  1  0  0  0  0
 17 18  1  0  0  0  0
 17 41  1  0  0  0  0
 17 42  1  0  0  0  0
 18 19  1  0  0  0  0
 18 43  1  0  0  0  0
 19 44  1  0  0  0  0
 19 45  1  0  0  0  0
 19 46  1  0  0  0  0
M  END
> <s_m_source_file>
AV-unprocessed.smi

> <i_m_source_file_index>
3348

> <i_lp_mmshare_version>
43012

> <i_f3d_flags>
0

> <s_epik_input>
bjFbY0hdW2NIXVtjSF1uMVtDSDJdW0NAQEhdKFtDSDNdKVtOSF1bQ0gyXVtDSDJdT1tDQEBIXTJbQ0gyXVtDSDJdW0NIMl1bQ0gyXVtDQEhdMltDSDNd

> <s_epik_cmdline>
J2VwaWtfcHl0aG9uJywgJy1waCcsICc3LjAnLCAnLXRuJywgJzgnLCAnLW1hJywgJzIwMCcsICctbWV0YWxfYmluZGluZycsICctaW1hZScsICc8aW5maWxlLm1hZT4nLCAnLW9tYWUnLCAnPG91dGZpbGUubWFlPic=

> <r_lp_tautomer_probability>
1

> <r_epik_Ionization_Penalty>
2.46945

> <r_epik_Ionization_Penalty_Charging>
0

> <r_epik_Ionization_Penalty_Neutral>
2.46945

> <r_epik_State_Penalty>
2.6322

> <r_epik_Charging_Adjusted_Penalty>
2.6322

> <i_epik_Tot_Q>
0

> <i_epik_Tot_abs_Q>
0

> <r_epik_Metal_State_Penalty>
2.63217

> <b_epik_Metal_Only>
0

> <s_lp_Force_Field>
OPLS_2005

> <r_lp_Energy>
16.5117

> <b_lp_Chiralities_Consistent>
1

> <s_lp_Variant>
AV-unprocessed.smi:3348-13

> <Gold.Version>
5.8.1

> <Gold.Id.Protein>
6NUR|6NUR_protein|mol2

> <Gold.PLP.Fitness>
41.0556

> <Gold.PLP.PLP>
-34.9520

> <Gold.PLP.part.hbond>
-1.0000

> <Gold.PLP.part.metal>
0.0000

> <Gold.PLP.part.buried>
-3.8355

> <Gold.PLP.part.nonpolar>
-31.6876

> <Gold.PLP.part.repulsive>
0.2615

> <Gold.PLP.ligand.clash>
0.0000

> <Gold.PLP.ligand.torsion>
1.1868

> <Gold.PLP.Chemscore.Hbond>
1.0000

> <Gold.PLP.Chemscore.CHOScore>
1.7857

> <Gold.PLP.Chemscore.Metal>
0.0000

> <Gold.Chemscore.Hbonds>
donor molecule, donor type, donor heavy atom, donor atom, acceptor molecule, acceptor atom, score
      L1  H     9    29       P1  7948  1.00
      L1  C     5    26       P1 10747  1.00
      L1  C     7    28       P1 10952  0.79

> <Gold.PLP.Chemscore.Internal.Correction>
0.1199

> <Gold.Rescore>
     Score         DG    S(hbond)    S(metal)    S(lipo)     H(rot)  DE(clash)    DE(int)     intcor
     14.03     -15.23       1.00        0.00      92.60       1.72       0.03       1.17       ----

> <Gold.Chemscore.Fitness>
14.0295

> <Gold.Chemscore.DG>
-15.2312

> <Gold.Chemscore.ZeroCoef>
-5.4800

> <Gold.Chemscore.Hbond>
0.9968

> <Gold.Chemscore.Metal>
0.0000

> <Gold.Chemscore.Lipo>
92.6039

> <Gold.Chemscore.Internal_Hbond>
0.0000

> <Gold.Chemscore.DEClash>
0.0343

> <Gold.Chemscore.DEInternal>
1.1674

> <Gold.Chemscore.Rot>
1.7237

> <Gold.Chemscore.Internal.Correction>
   9.000000E+99

> <Gold.Chemscore.Hbonds>
donor molecule, donor type, donor heavy atom, donor atom, acceptor molecule, acceptor atom, score
      L1  H     9    29       P1  7948  1.00

> <Gold.Chemscore.Hbond.Weighted>
-3.3292

> <Gold.Chemscore.Metal.Weighted>
-0.0000

> <Gold.Chemscore.Lipo.Weighted>
-10.8347

> <Gold.Chemscore.Internal_Hbond.Weighted>
0.0000

> <Gold.Chemscore.DEClash.Weighted>
0.0343

> <Gold.Chemscore.DEInternal.Weighted>
1.1674

> <Gold.Chemscore.Rot.Weighted>
4.4126

> <Gold.Chemscore.Internal.Correction.Weighted>
   9.000000E+99

> <Gold.Protein.RotatedTorsions>
[ 6907 6896 6895 6894 ] final   21.94 input  -60.11 | X-H torsion
[ 7974 7965 7964 7962 ] final -168.90 input  175.53 | X-H torsion
[ 8008 7997 7996 7995 ] final  135.53 input   59.86 | X-H torsion
[ 10167 10162 10161 10158 ] final -101.09 input  -65.29 | X-H torsion
[ 10718 10713 10712 10709 ] final  -90.18 input   66.30 | X-H torsion
[ 10763 10752 10751 10750 ] final  -53.55 input  -60.55 | X-H torsion
[ 11005 11000 10999 10996 ] final   11.99 input  -57.11 | X-H torsion

> <Gold.Protein.ActiveResidues>
 VAL166  LYS551  ARG553  GLY616  TRP617  ASP618  TYR619  PRO620  LYS621  CYS622 
 ASP623  PHE694  ASN695  SER759  ASP760  ASP761  ALA762  ILE779  LEU786  VAL792 
 PHE793  MET794  SER795  GLU796  ALA797  LYS798  CYS799  TRP800  GLU811  SER814 

> <Gold.Protein.RotatedAtoms>
  151.9195  135.0304  160.0520 H   0  0  0  0  0  0  0  0  0  0  0  0  # atno 6907 bound_to 6896
  152.2211  133.4980  159.5171 H   0  0  0  0  0  0  0  0  0  0  0  0  # atno 6908 bound_to 6896
  150.7000  134.1257  159.4094 H   0  0  0  0  0  0  0  0  0  0  0  0  # atno 6909 bound_to 6896
  144.7195  140.2302  143.6305 H   0  0  0  0  0  0  0  0  0  0  0  0  # atno 7974 bound_to 7965
  156.3003  140.2468  156.3596 H   0  0  0  0  0  0  0  0  0  0  0  0  # atno 8008 bound_to 7997
  154.8889  140.0410  157.1846 H   0  0  0  0  0  0  0  0  0  0  0  0  # atno 8009 bound_to 7997
  154.8618  140.2922  155.5538 H   0  0  0  0  0  0  0  0  0  0  0  0  # atno 8010 bound_to 7997
  140.2450  143.3512  152.0767 H   0  0  0  0  0  0  0  0  0  0  0  0  # atno 10167 bound_to 10162
  155.9987  130.4900  150.5284 H   0  0  0  0  0  0  0  0  0  0  0  0  # atno 10718 bound_to 10713
  154.1607  135.6475  153.4985 H   0  0  0  0  0  0  0  0  0  0  0  0  # atno 10763 bound_to 10752
  153.0111  135.5360  154.6714 H   0  0  0  0  0  0  0  0  0  0  0  0  # atno 10764 bound_to 10752
  154.6026  135.2945  155.0490 H   0  0  0  0  0  0  0  0  0  0  0  0  # atno 10765 bound_to 10752
  140.4971  134.0783  155.7784 H   0  0  0  0  0  0  0  0  0  0  0  0  # atno 11005 bound_to 11000
  145.8418  139.2133  143.1823 LP  0  0  0  0  0  0  0  0  0  0  0  0  # atno 17320 bound_to 7965
  146.0339  140.8231  142.9862 LP  0  0  0  0  0  0  0  0  0  0  0  0  # atno 17321 bound_to 7965
  139.5065  144.6814  151.5998 LP  0  0  0  0  0  0  0  0  0  0  0  0  # atno 17342 bound_to 10162
  140.6084  143.9481  150.6435 LP  0  0  0  0  0  0  0  0  0  0  0  0  # atno 17343 bound_to 10162
  157.3236  131.0686  151.1913 LP  0  0  0  0  0  0  0  0  0  0  0  0  # atno 17370 bound_to 10713
  157.2818  130.6754  149.6070 LP  0  0  0  0  0  0  0  0  0  0  0  0  # atno 17371 bound_to 10713
  141.1455  133.9063  157.2226 LP  0  0  0  0  0  0  0  0  0  0  0  0  # atno 17394 bound_to 11000
  139.9735  135.0121  156.9572 LP  0  0  0  0  0  0  0  0  0  0  0  0  # atno 17395 bound_to 11000

$$$$
