AV-unprocessed.smi:252|AV-procd|sdf|1938|dock1
  -GOLD-   2262021 63D 1   1.00000     0.00000
 Structure written by MMmdl.
 56 59  0  0  0  0  0  0  0  0  1 V2000
  152.1035  145.1678  159.4363 C   0  0  0  0  0  0  0  0  0  0  0  0
  151.2893  144.8615  158.1691 C   0  0  0  0  0  0  0  0  0  0  0  0
  151.3163  143.3856  157.7583 C   0  0  0  0  0  0  0  0  0  0  0  0
  152.0160  142.5707  158.3610 O   0  0  0  0  0  0  0  0  0  0  0  0
  150.5377  143.0570  156.7164 N   0  0  0  0  0  0  0  0  0  0  0  0
  150.3938  141.7158  156.1596 C   0  0  2  0  0  0  0  0  0  0  0  0
  149.2989  141.6875  155.0742 C   0  0  0  0  0  0  0  0  0  0  0  0
  149.0795  140.2527  154.5713 C   0  0  0  0  0  0  0  0  0  0  0  0
  148.7760  139.2995  155.7382 C   0  0  0  0  0  0  0  0  0  0  0  0
  149.8188  139.3843  156.7617 N   0  0  0  0  0  0  0  0  0  0  0  0
  149.8801  138.3927  157.6858 C   0  0  0  0  0  0  0  0  0  0  0  0
  151.0554  138.1212  158.3144 N   0  0  0  0  0  0  0  0  0  0  0  0
  151.1255  137.1419  159.2207 C   0  0  0  0  0  0  0  0  0  0  0  0
  150.1588  136.3252  159.6433 N   0  0  0  0  0  0  0  0  0  0  0  0
  148.9761  136.5932  159.0195 C   0  0  0  0  0  0  0  0  0  0  0  0
  148.7504  137.6022  158.0405 C   0  0  0  0  0  0  0  0  0  0  0  0
  147.4162  137.5925  157.6508 N   0  0  0  0  0  0  0  0  0  0  0  0
  146.8858  136.6304  158.3544 C   0  0  0  0  0  0  0  0  0  0  0  0
  147.7534  135.9677  159.1931 N   0  0  0  0  0  0  0  0  0  0  0  0
  147.4269  134.8669  160.0871 C   0  0  0  0  0  0  0  0  0  0  0  0
  146.8149  135.3005  161.4472 C   0  0  2  0  0  0  0  0  0  0  0  0
  147.0798  134.2870  162.4013 O   0  0  0  0  0  0  0  0  0  0  0  0
  145.3104  135.5485  161.4017 C   0  0  0  0  0  0  0  0  0  0  0  0
  145.2369  136.9943  160.9385 C   0  0  0  0  0  0  0  0  0  0  0  0
  146.2956  137.6202  161.6467 O   0  0  0  0  0  0  0  0  0  0  0  0
  147.3544  136.6897  161.8792 C   0  0  1  0  0  0  0  0  0  0  0  0
  147.7485  136.8277  163.3597 C   0  0  0  0  0  0  0  0  0  0  0  0
  150.0599  140.7261  157.2908 C   0  0  0  0  0  0  0  0  0  0  0  0
  152.0530  146.2296  159.6776 H   0  0  0  0  0  0  0  0  0  0  0  0
  153.1553  144.9098  159.3069 H   0  0  0  0  0  0  0  0  0  0  0  0
  151.7236  144.6172  160.2978 H   0  0  0  0  0  0  0  0  0  0  0  0
  150.2516  145.1597  158.3227 H   0  0  0  0  0  0  0  0  0  0  0  0
  151.6690  145.4611  157.3410 H   0  0  0  0  0  0  0  0  0  0  0  0
  149.9970  143.7899  156.2806 H   0  0  0  0  0  0  0  0  0  0  0  0
  151.3429  141.4100  155.7145 H   0  0  0  0  0  0  0  0  0  0  0  0
  148.3639  142.0776  155.4790 H   0  0  0  0  0  0  0  0  0  0  0  0
  149.5716  142.3335  154.2390 H   0  0  0  0  0  0  0  0  0  0  0  0
  148.2638  140.2293  153.8484 H   0  0  0  0  0  0  0  0  0  0  0  0
  149.9716  139.9114  154.0444 H   0  0  0  0  0  0  0  0  0  0  0  0
  147.8125  139.5513  156.1835 H   0  0  0  0  0  0  0  0  0  0  0  0
  148.7016  138.2785  155.3612 H   0  0  0  0  0  0  0  0  0  0  0  0
  152.0955  136.9904  159.6708 H   0  0  0  0  0  0  0  0  0  0  0  0
  145.8397  136.3716  158.2772 H   0  0  0  0  0  0  0  0  0  0  0  0
  146.7393  134.1992  159.5659 H   0  0  0  0  0  0  0  0  0  0  0  0
  148.3375  134.2887  160.2483 H   0  0  0  0  0  0  0  0  0  0  0  0
  146.3190  134.1885  162.9531 H   0  0  0  0  0  0  0  0  0  0  0  0
  144.7522  134.8640  160.7648 H   0  0  0  0  0  0  0  0  0  0  0  0
  144.8831  135.4797  162.4036 H   0  0  0  0  0  0  0  0  0  0  0  0
  145.4168  137.0722  159.8656 H   0  0  0  0  0  0  0  0  0  0  0  0
  144.2765  137.4603  161.1601 H   0  0  0  0  0  0  0  0  0  0  0  0
  148.2089  136.9756  161.2641 H   0  0  0  0  0  0  0  0  0  0  0  0
  148.5844  136.1744  163.6117 H   0  0  0  0  0  0  0  0  0  0  0  0
  146.9148  136.5816  164.0180 H   0  0  0  0  0  0  0  0  0  0  0  0
  148.0547  137.8498  163.5833 H   0  0  0  0  0  0  0  0  0  0  0  0
  150.8689  140.7257  158.0208 H   0  0  0  0  0  0  0  0  0  0  0  0
  149.1636  141.0522  157.8209 H   0  0  0  0  0  0  0  0  0  0  0  0
  1  2  1  0  0  0  0
  1 29  1  0  0  0  0
  1 30  1  0  0  0  0
  1 31  1  0  0  0  0
  2  3  1  0  0  0  0
  2 32  1  0  0  0  0
  2 33  1  0  0  0  0
  3  4  2  0  0  0  0
  3  5  1  0  0  0  0
  5  6  1  0  0  0  0
  5 34  1  0  0  0  0
  6 28  1  0  0  0  0
  6  7  1  0  0  0  0
  6 35  1  0  0  0  0
  7  8  1  0  0  0  0
  7 36  1  0  0  0  0
  7 37  1  0  0  0  0
  8  9  1  0  0  0  0
  8 38  1  0  0  0  0
  8 39  1  0  0  0  0
  9 10  1  0  0  0  0
  9 40  1  0  0  0  0
  9 41  1  0  0  0  0
 10 11  1  0  0  0  0
 10 28  1  0  0  0  0
 11 16  1  0  0  0  0
 11 12  2  0  0  0  0
 12 13  1  0  0  0  0
 13 14  2  0  0  0  0
 13 42  1  0  0  0  0
 14 15  1  0  0  0  0
 15 19  1  0  0  0  0
 15 16  2  0  0  0  0
 16 17  1  0  0  0  0
 17 18  2  0  0  0  0
 18 19  1  0  0  0  0
 18 43  1  0  0  0  0
 19 20  1  0  0  0  0
 20 21  1  0  0  0  0
 20 44  1  0  0  0  0
 20 45  1  0  0  0  0
 21 26  1  0  0  0  0
 21 22  1  0  0  0  0
 21 23  1  0  0  0  0
 22 46  1  0  0  0  0
 23 24  1  0  0  0  0
 23 47  1  0  0  0  0
 23 48  1  0  0  0  0
 24 25  1  0  0  0  0
 24 49  1  0  0  0  0
 24 50  1  0  0  0  0
 25 26  1  0  0  0  0
 26 27  1  0  0  0  0
 26 51  1  0  0  0  0
 27 52  1  0  0  0  0
 27 53  1  0  0  0  0
 27 54  1  0  0  0  0
 28 55  1  0  0  0  0
 28 56  1  0  0  0  0
M  END
> <s_m_source_file>
AV-unprocessed.smi

> <i_m_source_file_index>
252

> <i_lp_mmshare_version>
43012

> <i_f3d_flags>
0

> <s_epik_input>
W0NIM11bQ0gyXUMoPU8pW05IXVtDQEBIXTFbQ0gyXVtDSDJdW0NIMl1OKFtDSDJdMSljKG5bY0hdbjIpYyhjMjMpbltjSF1uM1tDSDJdW0NAQF00KFtPSF0pW0NIMl1bQ0gyXU9bQ0BIXTRbQ0gzXQ==

> <s_epik_cmdline>
J2VwaWtfcHl0aG9uJywgJy1waCcsICc3LjAnLCAnLXRuJywgJzgnLCAnLW1hJywgJzIwMCcsICctbWV0YWxfYmluZGluZycsICctaW1hZScsICc8aW5maWxlLm1hZT4nLCAnLW9tYWUnLCAnPG91dGZpbGUubWFlPic=

> <r_lp_tautomer_probability>
1

> <r_epik_Ionization_Penalty>
0.00182575

> <r_epik_Ionization_Penalty_Charging>
0

> <r_epik_Ionization_Penalty_Neutral>
0.00182575

> <r_epik_State_Penalty>
0.00104524

> <r_epik_Charging_Adjusted_Penalty>
0.00104524

> <i_epik_Tot_Q>
0

> <i_epik_Tot_abs_Q>
0

> <r_epik_Metal_State_Penalty>
-0

> <b_epik_Metal_Only>
0

> <s_lp_Force_Field>
OPLS_2005

> <r_lp_Energy>
36.3421

> <b_lp_Chiralities_Consistent>
1

> <s_lp_Variant>
AV-unprocessed.smi:252-3

> <Gold.Version>
5.8.1

> <Gold.Id.Protein>
6NUR|6NUR_protein|mol2

> <Gold.PLP.Fitness>
46.2841

> <Gold.PLP.PLP>
-39.4417

> <Gold.PLP.part.hbond>
-3.0000

> <Gold.PLP.part.metal>
0.0000

> <Gold.PLP.part.buried>
-4.5160

> <Gold.PLP.part.nonpolar>
-33.6497

> <Gold.PLP.part.repulsive>
0.0629

> <Gold.PLP.ligand.clash>
0.0000

> <Gold.PLP.ligand.torsion>
1.2282

> <Gold.PLP.Chemscore.Hbond>
2.9600

> <Gold.PLP.Chemscore.CHOScore>
0.0000

> <Gold.PLP.Chemscore.Metal>
0.0000

> <Gold.Chemscore.Hbonds>
donor molecule, donor type, donor heavy atom, donor atom, acceptor molecule, acceptor atom, score
      L1  H     5    34       P1  8028  1.00
      P1  H  6896  6908       L1    14  1.00
      P1  H  6934  6947       L1    25  0.94

> <Gold.PLP.Chemscore.Internal.Correction>
0.4189

> <Gold.Rescore>
     Score         DG    S(hbond)    S(metal)    S(lipo)     H(rot)  DE(clash)    DE(int)     intcor
     12.25     -16.12       1.88        0.00      96.45       2.70       0.14       3.73       ----

> <Gold.Chemscore.Fitness>
12.2524

> <Gold.Chemscore.DG>
-16.1204

> <Gold.Chemscore.ZeroCoef>
-5.4800

> <Gold.Chemscore.Hbond>
1.8797

> <Gold.Chemscore.Metal>
0.0000

> <Gold.Chemscore.Lipo>
96.4490

> <Gold.Chemscore.Internal_Hbond>
0.0000

> <Gold.Chemscore.DEClash>
0.1425

> <Gold.Chemscore.DEInternal>
3.7255

> <Gold.Chemscore.Rot>
2.7041

> <Gold.Chemscore.Internal.Correction>
   9.000000E+99

> <Gold.Chemscore.Hbonds>
donor molecule, donor type, donor heavy atom, donor atom, acceptor molecule, acceptor atom, score
      L1  H     5    34       P1  8028  0.97
      P1  H  6896  6908       L1    14  0.53
      P1  H  6934  6947       L1    25  0.35

> <Gold.Chemscore.Hbond.Weighted>
-6.2783

> <Gold.Chemscore.Metal.Weighted>
-0.0000

> <Gold.Chemscore.Lipo.Weighted>
-11.2845

> <Gold.Chemscore.Internal_Hbond.Weighted>
0.0000

> <Gold.Chemscore.DEClash.Weighted>
0.1425

> <Gold.Chemscore.DEInternal.Weighted>
3.7255

> <Gold.Chemscore.Rot.Weighted>
6.9225

> <Gold.Chemscore.Internal.Correction.Weighted>
   9.000000E+99

> <Gold.Protein.RotatedTorsions>
[ 6907 6896 6895 6894 ] final -172.75 input  -60.11 | X-H torsion
[ 7974 7965 7964 7962 ] final   39.17 input  175.53 | X-H torsion
[ 8008 7997 7996 7995 ] final -147.66 input   59.86 | X-H torsion
[ 10167 10162 10161 10158 ] final -150.71 input  -65.29 | X-H torsion
[ 10718 10713 10712 10709 ] final -154.96 input   66.30 | X-H torsion
[ 10763 10752 10751 10750 ] final  110.27 input  -60.55 | X-H torsion
[ 11005 11000 10999 10996 ] final -165.25 input  -57.11 | X-H torsion

> <Gold.Protein.ActiveResidues>
 VAL166  LYS551  ARG553  GLY616  TRP617  ASP618  TYR619  PRO620  LYS621  CYS622 
 ASP623  PHE694  ASN695  SER759  ASP760  ASP761  ALA762  ILE779  LEU786  VAL792 
 PHE793  MET794  SER795  GLU796  ALA797  LYS798  CYS799  TRP800  GLU811  SER814 

> <Gold.Protein.RotatedAtoms>
  151.5450  133.3426  159.2942 H   0  0  0  0  0  0  0  0  0  0  0  0  # atno 6907 bound_to 6896
  150.8513  134.7841  159.7022 H   0  0  0  0  0  0  0  0  0  0  0  0  # atno 6908 bound_to 6896
  152.4558  134.5302  159.9860 H   0  0  0  0  0  0  0  0  0  0  0  0  # atno 6909 bound_to 6896
  146.1005  139.5684  142.9417 H   0  0  0  0  0  0  0  0  0  0  0  0  # atno 7974 bound_to 7965
  155.5791  140.0641  157.2787 H   0  0  0  0  0  0  0  0  0  0  0  0  # atno 8008 bound_to 7997
  154.4338  140.1855  156.1005 H   0  0  0  0  0  0  0  0  0  0  0  0  # atno 8009 bound_to 7997
  156.0318  140.3305  155.7152 H   0  0  0  0  0  0  0  0  0  0  0  0  # atno 8010 bound_to 7997
  139.7331  143.8778  152.2540 H   0  0  0  0  0  0  0  0  0  0  0  0  # atno 10167 bound_to 10162
  156.5063  130.8414  151.2629 H   0  0  0  0  0  0  0  0  0  0  0  0  # atno 10718 bound_to 10713
  153.4466  135.3753  155.2259 H   0  0  0  0  0  0  0  0  0  0  0  0  # atno 10763 bound_to 10752
  154.8755  135.3875  154.4088 H   0  0  0  0  0  0  0  0  0  0  0  0  # atno 10764 bound_to 10752
  153.4642  135.7087  153.6096 H   0  0  0  0  0  0  0  0  0  0  0  0  # atno 10765 bound_to 10752
  140.5778  134.5172  157.5173 H   0  0  0  0  0  0  0  0  0  0  0  0  # atno 11005 bound_to 11000
  145.5863  141.0376  143.2094 LP  0  0  0  0  0  0  0  0  0  0  0  0  # atno 17320 bound_to 7965
  144.7429  139.7399  143.7304 LP  0  0  0  0  0  0  0  0  0  0  0  0  # atno 17321 bound_to 7965
  139.8707  144.7070  150.8991 LP  0  0  0  0  0  0  0  0  0  0  0  0  # atno 17342 bound_to 10162
  140.7774  143.3741  151.1596 LP  0  0  0  0  0  0  0  0  0  0  0  0  # atno 17343 bound_to 10162
  157.7456  130.9965  150.2781 LP  0  0  0  0  0  0  0  0  0  0  0  0  # atno 17370 bound_to 10713
  156.3284  130.3796  149.7513 LP  0  0  0  0  0  0  0  0  0  0  0  0  # atno 17371 bound_to 10713
  139.9331  134.7925  156.0875 LP  0  0  0  0  0  0  0  0  0  0  0  0  # atno 17394 bound_to 11000
  141.1016  133.6675  156.2766 LP  0  0  0  0  0  0  0  0  0  0  0  0  # atno 17395 bound_to 11000

$$$$
