AV-unprocessed.smi:1487|AV-procd|sdf|6011|dock4
  -GOLD-   22720 6113D 1   1.00000     0.00000
 Structure written by MMmdl.
 48 50  0  0  0  0  0  0  0  0  2 V2000
  153.7007  143.1494  163.7080 C   0  0  0  0  0  0  0  0  0  0  0  0
  153.2020  142.9221  162.2918 C   0  0  0  0  0  0  0  0  0  0  0  0
  152.3436  143.8782  161.7042 C   0  0  0  0  0  0  0  0  0  0  0  0
  151.8590  143.7051  160.3894 C   0  0  0  0  0  0  0  0  0  0  0  0
  151.0206  144.5020  159.6288 N   0  0  0  0  0  0  0  0  0  0  0  0
  150.9450  143.8085  158.4972 C   0  0  0  0  0  0  0  0  0  0  0  0
  151.6317  142.6515  158.4357 N   0  0  0  0  0  0  0  0  0  0  0  0
  151.6944  141.7342  157.3116 C   0  0  0  0  0  0  0  0  0  0  0  0
  150.2970  141.3036  156.8269 C   0  0  2  0  0  0  0  0  0  0  0  0
  149.6312  140.6183  157.8704 O   0  0  0  0  0  0  0  0  0  0  0  0
  150.3784  140.3720  155.6020 C   0  0  0  0  0  0  0  0  0  0  0  0
  149.0483  140.1295  154.9874 N   0  3  1  0  0  0  0  0  0  0  0  0
  148.5507  141.2815  154.1904 C   0  0  0  0  0  0  0  0  0  0  0  0
  147.1037  141.0469  153.7308 C   0  0  0  0  0  0  0  0  0  0  0  0
  146.9880  139.7460  152.9232 C   0  0  0  0  0  0  0  0  0  0  0  0
  147.5796  138.5579  153.7005 C   0  0  2  0  0  0  0  0  0  0  0  0
  146.7462  138.2160  154.7902 O   0  0  0  0  0  0  0  0  0  0  0  0
  149.0015  138.8611  154.2129 C   0  0  0  0  0  0  0  0  0  0  0  0
  152.2590  142.5395  159.6724 C   0  0  0  0  0  0  0  0  0  0  0  0
  153.1109  141.5799  160.2473 C   0  0  0  0  0  0  0  0  0  0  0  0
  153.5868  141.7689  161.5617 C   0  0  0  0  0  0  0  0  0  0  0  0
  154.5090  140.7288  162.1728 C   0  0  0  0  0  0  0  0  0  0  0  0
  153.3473  144.1007  164.1069 H   0  0  0  0  0  0  0  0  0  0  0  0
  154.7905  143.1617  163.7334 H   0  0  0  0  0  0  0  0  0  0  0  0
  153.3467  142.3572  164.3681 H   0  0  0  0  0  0  0  0  0  0  0  0
  152.0495  144.7561  162.2606 H   0  0  0  0  0  0  0  0  0  0  0  0
  150.3530  144.1599  157.6647 H   0  0  0  0  0  0  0  0  0  0  0  0
  152.2385  142.2257  156.5038 H   0  0  0  0  0  0  0  0  0  0  0  0
  152.2865  140.8643  157.5995 H   0  0  0  0  0  0  0  0  0  0  0  0
  149.7230  142.1983  156.5873 H   0  0  0  0  0  0  0  0  0  0  0  0
  148.7239  140.8851  157.8759 H   0  0  0  0  0  0  0  0  0  0  0  0
  151.0513  140.7838  154.8482 H   0  0  0  0  0  0  0  0  0  0  0  0
  150.8226  139.4266  155.9182 H   0  0  0  0  0  0  0  0  0  0  0  0
  148.5898  142.1973  154.7791 H   0  0  0  0  0  0  0  0  0  0  0  0
  149.1988  141.4360  153.3259 H   0  0  0  0  0  0  0  0  0  0  0  0
  146.4459  141.0042  154.5999 H   0  0  0  0  0  0  0  0  0  0  0  0
  146.7629  141.8891  153.1280 H   0  0  0  0  0  0  0  0  0  0  0  0
  145.9478  139.5532  152.6576 H   0  0  0  0  0  0  0  0  0  0  0  0
  147.5283  139.8619  151.9827 H   0  0  0  0  0  0  0  0  0  0  0  0
  147.6162  137.6864  153.0461 H   0  0  0  0  0  0  0  0  0  0  0  0
  146.5130  139.0075  155.2521 H   0  0  0  0  0  0  0  0  0  0  0  0
  149.6899  138.9357  153.3694 H   0  0  0  0  0  0  0  0  0  0  0  0
  149.3508  138.0317  154.8301 H   0  0  0  0  0  0  0  0  0  0  0  0
  153.3961  140.7051  159.6818 H   0  0  0  0  0  0  0  0  0  0  0  0
  154.6742  139.8941  161.4910 H   0  0  0  0  0  0  0  0  0  0  0  0
  154.0804  140.3296  163.0923 H   0  0  0  0  0  0  0  0  0  0  0  0
  155.4791  141.1687  162.4049 H   0  0  0  0  0  0  0  0  0  0  0  0
  148.4052  140.0021  155.7566 H   0  0  0  0  0  0  0  0  0  0  0  0
  1  2  1  0  0  0  0
  1 23  1  0  0  0  0
  1 24  1  0  0  0  0
  1 25  1  0  0  0  0
  2 21  1  0  0  0  0
  2  3  2  0  0  0  0
  3  4  1  0  0  0  0
  3 26  1  0  0  0  0
  4 19  2  0  0  0  0
  4  5  1  0  0  0  0
  5  6  2  0  0  0  0
  6  7  1  0  0  0  0
  6 27  1  0  0  0  0
  7  8  1  0  0  0  0
  7 19  1  0  0  0  0
  8  9  1  0  0  0  0
  8 28  1  0  0  0  0
  8 29  1  0  0  0  0
  9 10  1  0  0  0  0
  9 11  1  0  0  0  0
  9 30  1  0  0  0  0
 10 31  1  0  0  0  0
 11 12  1  0  0  0  0
 11 32  1  0  0  0  0
 11 33  1  0  0  0  0
 12 18  1  0  0  0  0
 12 13  1  0  0  0  0
 12 48  1  0  0  0  0
 13 14  1  0  0  0  0
 13 34  1  0  0  0  0
 13 35  1  0  0  0  0
 14 15  1  0  0  0  0
 14 36  1  0  0  0  0
 14 37  1  0  0  0  0
 15 16  1  0  0  0  0
 15 38  1  0  0  0  0
 15 39  1  0  0  0  0
 16 17  1  0  0  0  0
 16 18  1  0  0  0  0
 16 40  1  0  0  0  0
 17 41  1  0  0  0  0
 18 42  1  0  0  0  0
 18 43  1  0  0  0  0
 19 20  1  0  0  0  0
 20 21  2  0  0  0  0
 20 44  1  0  0  0  0
 21 22  1  0  0  0  0
 22 45  1  0  0  0  0
 22 46  1  0  0  0  0
 22 47  1  0  0  0  0
M  CHG  1  12   1
M  END
> <s_m_source_file>
AV-unprocessed.smi

> <i_m_source_file_index>
1487

> <i_lp_mmshare_version>
43012

> <i_f3d_flags>
0

> <s_epik_input>
W0NIM11jKFtjSF0xKWMoW0NIM10pW2NIXWMoYzEyKW4oW2NIXW4yKVtDSDJdW0NASF0oW09IXSlbQ0gyXU4zW0NIMl1bQ0gyXVtDSDJdW0NAQEhdKFtPSF0pW0NIMl0z

> <s_epik_cmdline>
J2VwaWtfcHl0aG9uJywgJy1waCcsICc3LjAnLCAnLXRuJywgJzgnLCAnLW1hJywgJzIwMCcsICctbWV0YWxfYmluZGluZycsICctaW1hZScsICc8aW5maWxlLm1hZT4nLCAnLW9tYWUnLCAnPG91dGZpbGUubWFlPic=

> <r_epik_Ionization_Penalty>
0.0940186

> <r_epik_Ionization_Penalty_Charging>
0.00679686

> <r_epik_Ionization_Penalty_Neutral>
0.0872218

> <r_epik_State_Penalty>
0.0799311

> <r_epik_Charging_Adjusted_Penalty>
0.086728

> <i_epik_Tot_Q>
1

> <i_epik_Tot_abs_Q>
1

> <r_epik_Metal_State_Penalty>
7.95545e-05

> <b_epik_Metal_Only>
0

> <s_lp_Force_Field>
OPLS_2005

> <r_lp_Energy>
22.5409

> <b_lp_Chiralities_Consistent>
1

> <s_lp_Variant>
AV-unprocessed.smi:1487-5

> <Gold.Version>
5.8.1

> <Gold.Id.Protein>
6NUR|6NUR_protein|mol2

> <Gold.PLP.Fitness>
52.5252

> <Gold.PLP.PLP>
-50.0180

> <Gold.PLP.part.hbond>
0.0000

> <Gold.PLP.part.metal>
0.0000

> <Gold.PLP.part.buried>
-3.3577

> <Gold.PLP.part.nonpolar>
-45.3331

> <Gold.PLP.part.repulsive>
0.2078

> <Gold.PLP.ligand.clash>
0.0000

> <Gold.PLP.ligand.torsion>
0.2690

> <Gold.PLP.Chemscore.Hbond>
0.0000

> <Gold.PLP.Chemscore.CHOScore>
1.0000

> <Gold.PLP.Chemscore.Metal>
0.0000

> <Gold.Chemscore.Hbonds>
donor molecule, donor type, donor heavy atom, donor atom, acceptor molecule, acceptor atom, score
      L1  C     6    27       P1  8028  1.00

> <Gold.PLP.Chemscore.Internal.Correction>
0.0451

> <Gold.Rescore>
     Score         DG    S(hbond)    S(metal)    S(lipo)     H(rot)  DE(clash)    DE(int)     intcor
     15.25     -15.60       0.00        0.00     144.94       2.67       0.16       0.19       ----

> <Gold.Chemscore.Fitness>
15.2503

> <Gold.Chemscore.DG>
-15.6001

> <Gold.Chemscore.ZeroCoef>
-5.4800

> <Gold.Chemscore.Hbond>
0.0000

> <Gold.Chemscore.Metal>
0.0000

> <Gold.Chemscore.Lipo>
144.9437

> <Gold.Chemscore.Internal_Hbond>
0.0000

> <Gold.Chemscore.DEClash>
0.1563

> <Gold.Chemscore.DEInternal>
0.1935

> <Gold.Chemscore.Rot>
2.6712

> <Gold.Chemscore.Internal.Correction>
   9.000000E+99

> <Gold.Chemscore.Hbond.Weighted>
-0.0000

> <Gold.Chemscore.Metal.Weighted>
-0.0000

> <Gold.Chemscore.Lipo.Weighted>
-16.9584

> <Gold.Chemscore.Internal_Hbond.Weighted>
0.0000

> <Gold.Chemscore.DEClash.Weighted>
0.1563

> <Gold.Chemscore.DEInternal.Weighted>
0.1935

> <Gold.Chemscore.Rot.Weighted>
6.8383

> <Gold.Chemscore.Internal.Correction.Weighted>
   9.000000E+99

> <Gold.Protein.RotatedTorsions>
[ 6907 6896 6895 6894 ] final    2.18 input  -60.11 | X-H torsion
[ 7974 7965 7964 7962 ] final   97.36 input  175.53 | X-H torsion
[ 8008 7997 7996 7995 ] final    4.17 input   59.86 | X-H torsion
[ 10167 10162 10161 10158 ] final -162.35 input  -65.29 | X-H torsion
[ 10718 10713 10712 10709 ] final   31.83 input   66.30 | X-H torsion
[ 10763 10752 10751 10750 ] final   71.44 input  -60.55 | X-H torsion
[ 11005 11000 10999 10996 ] final  139.78 input  -57.11 | X-H torsion

> <Gold.Protein.ActiveResidues>
 VAL166  LYS551  ARG553  GLY616  TRP617  ASP618  TYR619  PRO620  LYS621  CYS622 
 ASP623  PHE694  ASN695  SER759  ASP760  ASP761  ALA762  ILE779  LEU786  VAL792 
 PHE793  MET794  SER795  GLU796  ALA797  LYS798  CYS799  TRP800  GLU811  SER814 

> <Gold.Protein.RotatedAtoms>
  151.6047  135.1045  160.0067 H   0  0  0  0  0  0  0  0  0  0  0  0  # atno 6907 bound_to 6896
  152.4239  133.7159  159.6516 H   0  0  0  0  0  0  0  0  0  0  0  0  # atno 6908 bound_to 6896
  150.8128  133.8319  159.3196 H   0  0  0  0  0  0  0  0  0  0  0  0  # atno 6909 bound_to 6896
  145.4266  139.2315  143.3167 H   0  0  0  0  0  0  0  0  0  0  0  0  # atno 7974 bound_to 7965
  154.7126  140.2695  155.6615 H   0  0  0  0  0  0  0  0  0  0  0  0  # atno 8008 bound_to 7997
  156.2800  140.2750  156.1696 H   0  0  0  0  0  0  0  0  0  0  0  0  # atno 8009 bound_to 7997
  155.0615  140.0371  157.2568 H   0  0  0  0  0  0  0  0  0  0  0  0  # atno 8010 bound_to 7997
  139.6398  144.0281  152.2083 H   0  0  0  0  0  0  0  0  0  0  0  0  # atno 10167 bound_to 10162
  157.2775  130.7238  149.6538 H   0  0  0  0  0  0  0  0  0  0  0  0  # atno 10718 bound_to 10713
  153.0399  135.5137  154.7593 H   0  0  0  0  0  0  0  0  0  0  0  0  # atno 10763 bound_to 10752
  154.6539  135.2929  154.9954 H   0  0  0  0  0  0  0  0  0  0  0  0  # atno 10764 bound_to 10752
  154.0829  135.6661  153.4893 H   0  0  0  0  0  0  0  0  0  0  0  0  # atno 10765 bound_to 10752
  140.0280  134.9365  157.0606 H   0  0  0  0  0  0  0  0  0  0  0  0  # atno 11005 bound_to 11000
  146.2629  140.4997  142.8846 LP  0  0  0  0  0  0  0  0  0  0  0  0  # atno 17320 bound_to 7965
  144.8210  140.6550  143.6353 LP  0  0  0  0  0  0  0  0  0  0  0  0  # atno 17321 bound_to 7965
  139.9967  144.6322  150.7766 LP  0  0  0  0  0  0  0  0  0  0  0  0  # atno 17342 bound_to 10162
  140.7485  143.2923  151.3298 LP  0  0  0  0  0  0  0  0  0  0  0  0  # atno 17343 bound_to 10162
  155.9664  130.4348  150.5066 LP  0  0  0  0  0  0  0  0  0  0  0  0  # atno 17370 bound_to 10713
  157.3003  131.0644  151.2073 LP  0  0  0  0  0  0  0  0  0  0  0  0  # atno 17371 bound_to 10713
  140.4274  134.1816  155.7166 LP  0  0  0  0  0  0  0  0  0  0  0  0  # atno 17394 bound_to 11000
  141.1814  133.8406  157.1244 LP  0  0  0  0  0  0  0  0  0  0  0  0  # atno 17395 bound_to 11000

$$$$
