AV-unprocessed.smi:1978|AV-procd|sdf|8002|dock10
  -GOLD-   2272010183D 1   1.00000     0.00000
 Structure written by MMmdl.
 44 45  0  0  0  0  0  0  0  0  3 V2000
  146.3680  136.0832  162.8586 C   0  0  0  0  0  0  0  0  0  0  0  0
  147.1755  135.8778  161.6228 C   0  0  0  0  0  0  0  0  0  0  0  0
  147.4752  134.7683  160.8845 C   0  0  0  0  0  0  0  0  0  0  0  0
  148.2917  135.2836  159.8409 C   0  0  0  0  0  0  0  0  0  0  0  0
  148.8346  134.5733  158.8400 N   0  5  0  0  0  0  0  0  0  0  0  0
  148.0465  134.0386  157.8803 C   0  0  0  0  0  0  0  0  0  0  0  0
  147.4873  132.9402  157.9194 O   0  0  0  0  0  0  0  0  0  0  0  0
  147.9004  134.8234  156.8032 N   0  0  0  0  0  0  0  0  0  0  0  0
  147.1278  134.4913  155.6111 C   0  0  0  0  0  0  0  0  0  0  0  0
  147.4726  135.4136  154.4141 C   0  0  2  0  0  0  0  0  0  0  0  0
  147.0614  136.8799  154.6607 C   0  0  0  0  0  0  0  0  0  0  0  0
  146.9401  134.9034  153.1098 N   0  3  2  0  0  0  0  0  0  0  0  0
  145.5283  135.3037  152.8372 C   0  0  0  0  0  0  0  0  0  0  0  0
  145.1284  134.9969  151.3867 C   0  0  0  0  0  0  0  0  0  0  0  0
  145.3194  133.5104  151.0775 C   0  0  0  0  0  0  0  0  0  0  0  0
  146.7618  133.1002  151.3911 C   0  0  0  0  0  0  0  0  0  0  0  0
  147.1536  133.4407  152.8456 C   0  0  1  0  0  0  0  0  0  0  0  0
  148.5989  132.9668  153.1009 C   0  0  0  0  0  0  0  0  0  0  0  0
  148.4581  136.5926  159.9283 N   0  0  0  0  0  0  0  0  0  0  0  0
  147.7504  136.9806  161.0721 O   0  0  0  0  0  0  0  0  0  0  0  0
  145.3025  136.0369  162.6342 H   0  0  0  0  0  0  0  0  0  0  0  0
  146.5777  137.0539  163.3084 H   0  0  0  0  0  0  0  0  0  0  0  0
  146.5921  135.3140  163.5978 H   0  0  0  0  0  0  0  0  0  0  0  0
  147.1638  133.7501  161.0632 H   0  0  0  0  0  0  0  0  0  0  0  0
  148.3726  135.7157  156.8119 H   0  0  0  0  0  0  0  0  0  0  0  0
  147.2919  133.4417  155.3644 H   0  0  0  0  0  0  0  0  0  0  0  0
  146.0748  134.5843  155.8752 H   0  0  0  0  0  0  0  0  0  0  0  0
  148.5557  135.4645  154.3253 H   0  0  0  0  0  0  0  0  0  0  0  0
  147.6495  137.3193  155.4670 H   0  0  0  0  0  0  0  0  0  0  0  0
  146.0142  136.9744  154.9464 H   0  0  0  0  0  0  0  0  0  0  0  0
  147.2284  137.4915  153.7737 H   0  0  0  0  0  0  0  0  0  0  0  0
  144.8553  134.7821  153.5188 H   0  0  0  0  0  0  0  0  0  0  0  0
  145.3831  136.3690  153.0064 H   0  0  0  0  0  0  0  0  0  0  0  0
  144.0892  135.2812  151.2181 H   0  0  0  0  0  0  0  0  0  0  0  0
  145.7298  135.5980  150.7033 H   0  0  0  0  0  0  0  0  0  0  0  0
  144.6266  132.9147  151.6734 H   0  0  0  0  0  0  0  0  0  0  0  0
  145.0878  133.3088  150.0313 H   0  0  0  0  0  0  0  0  0  0  0  0
  146.8767  132.0304  151.2119 H   0  0  0  0  0  0  0  0  0  0  0  0
  147.4405  133.6015  150.6993 H   0  0  0  0  0  0  0  0  0  0  0  0
  146.4968  132.8739  153.5067 H   0  0  0  0  0  0  0  0  0  0  0  0
  148.7378  131.9400  152.7615 H   0  0  0  0  0  0  0  0  0  0  0  0
  148.8512  132.9713  154.1610 H   0  0  0  0  0  0  0  0  0  0  0  0
  149.3230  133.5880  152.5726 H   0  0  0  0  0  0  0  0  0  0  0  0
  147.4943  135.3764  152.4107 H   0  0  0  0  0  0  0  0  0  0  0  0
  1  2  1  0  0  0  0
  1 21  1  0  0  0  0
  1 22  1  0  0  0  0
  1 23  1  0  0  0  0
  2 20  1  0  0  0  0
  2  3  2  0  0  0  0
  3  4  1  0  0  0  0
  3 24  1  0  0  0  0
  4  5  1  0  0  0  0
  4 19  2  0  0  0  0
  5  6  1  0  0  0  0
  6  7  2  0  0  0  0
  6  8  1  0  0  0  0
  8  9  1  0  0  0  0
  8 25  1  0  0  0  0
  9 10  1  0  0  0  0
  9 26  1  0  0  0  0
  9 27  1  0  0  0  0
 10 11  1  0  0  0  0
 10 12  1  0  0  0  0
 10 28  1  0  0  0  0
 11 29  1  0  0  0  0
 11 30  1  0  0  0  0
 11 31  1  0  0  0  0
 12 17  1  0  0  0  0
 12 13  1  0  0  0  0
 12 44  1  0  0  0  0
 13 14  1  0  0  0  0
 13 32  1  0  0  0  0
 13 33  1  0  0  0  0
 14 15  1  0  0  0  0
 14 34  1  0  0  0  0
 14 35  1  0  0  0  0
 15 16  1  0  0  0  0
 15 36  1  0  0  0  0
 15 37  1  0  0  0  0
 16 17  1  0  0  0  0
 16 38  1  0  0  0  0
 16 39  1  0  0  0  0
 17 18  1  0  0  0  0
 17 40  1  0  0  0  0
 18 41  1  0  0  0  0
 18 42  1  0  0  0  0
 18 43  1  0  0  0  0
 19 20  1  0  0  0  0
M  CHG  1   5  -1
M  CHG  1  12   1
M  END
> <s_m_source_file>
AV-unprocessed.smi

> <i_m_source_file_index>
1978

> <i_lp_mmshare_version>
43012

> <i_f3d_flags>
0

> <s_epik_input>
W0NIM11jMVtjSF1jKG5vMSlbTkhdQyg9TylbTkhdW0NIMl1bQ0BIXShbQ0gzXSlOMltDSDJdW0NIMl1bQ0gyXVtDSDJdW0NASF0yW0NIM10=

> <s_epik_cmdline>
J2VwaWtfcHl0aG9uJywgJy1waCcsICc3LjAnLCAnLXRuJywgJzgnLCAnLW1hJywgJzIwMCcsICctbWV0YWxfYmluZGluZycsICctaW1hZScsICc8aW5maWxlLm1hZT4nLCAnLW9tYWUnLCAnPG91dGZpbGUubWFlPic=

> <r_epik_Ionization_Penalty>
6.22372

> <r_epik_Ionization_Penalty_Charging>
6.22362

> <r_epik_Ionization_Penalty_Neutral>
9.65074e-05

> <r_epik_State_Penalty>
6.22363

> <r_epik_Charging_Adjusted_Penalty>
12.4472

> <i_epik_Tot_Q>
0

> <i_epik_Tot_abs_Q>
2

> <r_epik_Metal_State_Penalty>
2.16675

> <b_epik_Metal_Only>
1

> <s_lp_Force_Field>
OPLS_2005

> <r_lp_Energy>
9.77909

> <b_lp_Chiralities_Consistent>
1

> <s_lp_Variant>
AV-unprocessed.smi:1978-11

> <Gold.Version>
5.8.1

> <Gold.Id.Protein>
6NUR|6NUR_protein|mol2

> <Gold.PLP.Fitness>
39.6518

> <Gold.PLP.PLP>
-25.7399

> <Gold.PLP.part.hbond>
-4.0268

> <Gold.PLP.part.metal>
0.0000

> <Gold.PLP.part.buried>
-2.9378

> <Gold.PLP.part.nonpolar>
-19.0357

> <Gold.PLP.part.repulsive>
0.0074

> <Gold.PLP.ligand.clash>
0.0000

> <Gold.PLP.ligand.torsion>
1.8366

> <Gold.PLP.Chemscore.Hbond>
5.8080

> <Gold.PLP.Chemscore.CHOScore>
0.0000

> <Gold.PLP.Chemscore.Metal>
0.0000

> <Gold.Chemscore.Hbonds>
donor molecule, donor type, donor heavy atom, donor atom, acceptor molecule, acceptor atom, score
      L1  H    12    44       P1  7948  2.00
      P1  H  6896  6907       L1     5  2.00
      P1  H  6931  6943       L1    20  1.00
      P1  H  6934  6947       L1    20  0.69

> <Gold.PLP.Chemscore.Internal.Correction>
0.1612

> <Gold.Rescore>
     Score         DG    S(hbond)    S(metal)    S(lipo)     H(rot)  DE(clash)    DE(int)     intcor
     15.91     -18.03       2.86        0.00      58.86       1.52       0.28       1.84       ----

> <Gold.Chemscore.Fitness>
15.9083

> <Gold.Chemscore.DG>
-18.0258

> <Gold.Chemscore.ZeroCoef>
-5.4800

> <Gold.Chemscore.Hbond>
2.8586

> <Gold.Chemscore.Metal>
0.0000

> <Gold.Chemscore.Lipo>
58.8605

> <Gold.Chemscore.Internal_Hbond>
0.0000

> <Gold.Chemscore.DEClash>
0.2766

> <Gold.Chemscore.DEInternal>
1.8409

> <Gold.Chemscore.Rot>
1.5190

> <Gold.Chemscore.Internal.Correction>
   9.000000E+99

> <Gold.Chemscore.Hbonds>
donor molecule, donor type, donor heavy atom, donor atom, acceptor molecule, acceptor atom, score
      L1  H    12    44       P1  7948  0.98
      P1  H  6896  6907       L1     5  0.40
      P1  H  6931  6943       L1    20  0.28
      P1  H  6934  6947       L1    20  0.49

> <Gold.Chemscore.Hbond.Weighted>
-9.5478

> <Gold.Chemscore.Metal.Weighted>
-0.0000

> <Gold.Chemscore.Lipo.Weighted>
-6.8867

> <Gold.Chemscore.Internal_Hbond.Weighted>
0.0000

> <Gold.Chemscore.DEClash.Weighted>
0.2766

> <Gold.Chemscore.DEInternal.Weighted>
1.8409

> <Gold.Chemscore.Rot.Weighted>
3.8886

> <Gold.Chemscore.Internal.Correction.Weighted>
   9.000000E+99

> <Gold.Protein.RotatedTorsions>
[ 6907 6896 6895 6894 ] final  -87.56 input  -60.11 | X-H torsion
[ 7974 7965 7964 7962 ] final  138.26 input  175.53 | X-H torsion
[ 8008 7997 7996 7995 ] final   57.15 input   59.86 | X-H torsion
[ 10167 10162 10161 10158 ] final -174.63 input  -65.29 | X-H torsion
[ 10718 10713 10712 10709 ] final   58.98 input   66.30 | X-H torsion
[ 10763 10752 10751 10750 ] final -161.87 input  -60.55 | X-H torsion
[ 11005 11000 10999 10996 ] final   92.82 input  -57.11 | X-H torsion

> <Gold.Protein.ActiveResidues>
 VAL166  LYS551  ARG553  GLY616  TRP617  ASP618  TYR619  PRO620  LYS621  CYS622 
 ASP623  PHE694  ASN695  SER759  ASP760  ASP761  ALA762  ILE779  LEU786  VAL792 
 PHE793  MET794  SER795  GLU796  ALA797  LYS798  CYS799  TRP800  GLU811  SER814 

> <Gold.Protein.RotatedAtoms>
  150.6866  134.2877  159.4653 H   0  0  0  0  0  0  0  0  0  0  0  0  # atno 6907 bound_to 6896
  152.0785  134.9484  160.0583 H   0  0  0  0  0  0  0  0  0  0  0  0  # atno 6908 bound_to 6896
  152.0846  133.4135  159.4553 H   0  0  0  0  0  0  0  0  0  0  0  0  # atno 6909 bound_to 6896
  144.9389  139.4955  143.5581 H   0  0  0  0  0  0  0  0  0  0  0  0  # atno 7974 bound_to 7965
  155.5291  140.3481  155.4422 H   0  0  0  0  0  0  0  0  0  0  0  0  # atno 8008 bound_to 7997
  156.0731  140.1368  156.9831 H   0  0  0  0  0  0  0  0  0  0  0  0  # atno 8009 bound_to 7997
  154.4538  140.0961  156.6673 H   0  0  0  0  0  0  0  0  0  0  0  0  # atno 8010 bound_to 7997
  139.5624  144.1838  152.1259 H   0  0  0  0  0  0  0  0  0  0  0  0  # atno 10167 bound_to 10162
  157.5639  130.8856  149.9156 H   0  0  0  0  0  0  0  0  0  0  0  0  # atno 10718 bound_to 10713
  154.7265  135.3037  154.8963 H   0  0  0  0  0  0  0  0  0  0  0  0  # atno 10763 bound_to 10752
  153.9818  135.6729  153.4754 H   0  0  0  0  0  0  0  0  0  0  0  0  # atno 10764 bound_to 10752
  153.0879  135.4974  154.8553 H   0  0  0  0  0  0  0  0  0  0  0  0  # atno 10765 bound_to 10752
  139.8818  134.8755  156.3628 H   0  0  0  0  0  0  0  0  0  0  0  0  # atno 11005 bound_to 11000
  146.3278  139.8393  142.8893 LP  0  0  0  0  0  0  0  0  0  0  0  0  # atno 17320 bound_to 7965
  145.3023  141.0197  143.3602 LP  0  0  0  0  0  0  0  0  0  0  0  0  # atno 17321 bound_to 7965
  140.1354  144.5250  150.6776 LP  0  0  0  0  0  0  0  0  0  0  0  0  # atno 17342 bound_to 10162
  140.6904  143.2373  151.5145 LP  0  0  0  0  0  0  0  0  0  0  0  0  # atno 17343 bound_to 10162
  156.0689  130.3688  150.0818 LP  0  0  0  0  0  0  0  0  0  0  0  0  # atno 17370 bound_to 10713
  156.8979  130.9610  151.3580 LP  0  0  0  0  0  0  0  0  0  0  0  0  # atno 17371 bound_to 10713
  140.9518  133.7446  156.0282 LP  0  0  0  0  0  0  0  0  0  0  0  0  # atno 17394 bound_to 11000
  140.8097  134.3414  157.5415 LP  0  0  0  0  0  0  0  0  0  0  0  0  # atno 17395 bound_to 11000

$$$$
