AV-unprocessed.smi:67|AV-procd|sdf|638|dock5
  -GOLD-   2262016533D 1   1.00000     0.00000
 Structure written by MMmdl.
 48 50  0  0  0  0  0  0  0  0  2 V2000
  146.1768  135.4713  151.0779 O   0  0  0  0  0  0  0  0  0  0  0  0
  145.5112  134.4972  151.8586 C   0  0  2  0  0  0  0  0  0  0  0  0
  145.9652  134.6251  153.3373 C   0  0  0  0  0  0  0  0  0  0  0  0
  147.4402  134.5764  153.5493 N   0  3  2  0  0  0  0  0  0  0  0  0
  147.9681  133.1932  153.4062 C   0  0  0  0  0  0  0  0  0  0  0  0
  149.5036  133.1560  153.4898 C   0  0  0  0  0  0  0  0  0  0  0  0
  150.0163  133.7911  154.7964 C   0  0  2  0  0  0  0  0  0  0  0  0
  149.6020  133.0415  155.9368 O   0  0  0  0  0  0  0  0  0  0  0  0
  150.3959  132.0217  156.4208 C   0  0  0  0  0  0  0  0  0  0  0  0
  149.9759  131.4129  157.6207 C   0  0  0  0  0  0  0  0  0  0  0  0
  150.7187  130.3659  158.1964 C   0  0  0  0  0  0  0  0  0  0  0  0
  151.8981  129.9154  157.5764 C   0  0  0  0  0  0  0  0  0  0  0  0
  152.3407  130.5140  156.3775 C   0  0  0  0  0  0  0  0  0  0  0  0
  153.6100  130.0365  155.6876 C   0  0  0  0  0  0  0  0  0  0  0  0
  154.4937  131.0322  155.6145 F   0  0  0  0  0  0  0  0  0  0  0  0
  154.1760  129.0224  156.3428 F   0  0  0  0  0  0  0  0  0  0  0  0
  153.3125  129.6351  154.4524 F   0  0  0  0  0  0  0  0  0  0  0  0
  151.5862  131.5603  155.8037 C   0  0  0  0  0  0  0  0  0  0  0  0
  149.4294  135.2027  154.9303 C   0  0  0  0  0  0  0  0  0  0  0  0
  147.8947  135.1999  154.8213 C   0  0  0  0  0  0  0  0  0  0  0  0
  145.6878  133.0847  151.2648 C   0  0  0  0  0  0  0  0  0  0  0  0
  144.3264  132.7375  150.6658 C   0  0  0  0  0  0  0  0  0  0  0  0
  143.3676  133.4932  151.4530 N   0  0  0  0  0  0  0  0  0  0  0  0
  144.0014  134.7786  151.7043 C   0  0  0  0  0  0  0  0  0  0  0  0
  147.0255  135.6378  151.4596 H   0  0  0  0  0  0  0  0  0  0  0  0
  145.5470  135.5193  153.8027 H   0  0  0  0  0  0  0  0  0  0  0  0
  145.5299  133.7815  153.8756 H   0  0  0  0  0  0  0  0  0  0  0  0
  147.5340  132.5565  154.1788 H   0  0  0  0  0  0  0  0  0  0  0  0
  147.6601  132.7776  152.4460 H   0  0  0  0  0  0  0  0  0  0  0  0
  149.8503  132.1276  153.3934 H   0  0  0  0  0  0  0  0  0  0  0  0
  149.9224  133.6958  152.6394 H   0  0  0  0  0  0  0  0  0  0  0  0
  151.1016  133.8919  154.7791 H   0  0  0  0  0  0  0  0  0  0  0  0
  149.0723  131.7524  158.1057 H   0  0  0  0  0  0  0  0  0  0  0  0
  150.3828  129.9074  159.1148 H   0  0  0  0  0  0  0  0  0  0  0  0
  152.4563  129.1085  158.0274 H   0  0  0  0  0  0  0  0  0  0  0  0
  151.9447  131.9907  154.8820 H   0  0  0  0  0  0  0  0  0  0  0  0
  149.7350  135.6446  155.8794 H   0  0  0  0  0  0  0  0  0  0  0  0
  149.8436  135.8421  154.1493 H   0  0  0  0  0  0  0  0  0  0  0  0
  147.5600  136.2329  154.8832 H   0  0  0  0  0  0  0  0  0  0  0  0
  147.4539  134.6712  155.6679 H   0  0  0  0  0  0  0  0  0  0  0  0
  146.4894  133.0249  150.5274 H   0  0  0  0  0  0  0  0  0  0  0  0
  145.9135  132.3594  152.0472 H   0  0  0  0  0  0  0  0  0  0  0  0
  144.2878  133.0643  149.6256 H   0  0  0  0  0  0  0  0  0  0  0  0
  144.1195  131.6673  150.6864 H   0  0  0  0  0  0  0  0  0  0  0  0
  143.2363  133.0189  152.3406 H   0  0  0  0  0  0  0  0  0  0  0  0
  143.5704  135.2740  152.5746 H   0  0  0  0  0  0  0  0  0  0  0  0
  143.8186  135.4310  150.8484 H   0  0  0  0  0  0  0  0  0  0  0  0
  147.8513  135.1132  152.7989 H   0  0  0  0  0  0  0  0  0  0  0  0
  1  2  1  0  0  0  0
  1 25  1  0  0  0  0
  2 24  1  0  0  0  0
  2  3  1  0  0  0  0
  2 21  1  0  0  0  0
  3  4  1  0  0  0  0
  3 26  1  0  0  0  0
  3 27  1  0  0  0  0
  4 20  1  0  0  0  0
  4  5  1  0  0  0  0
  4 48  1  0  0  0  0
  5  6  1  0  0  0  0
  5 28  1  0  0  0  0
  5 29  1  0  0  0  0
  6  7  1  0  0  0  0
  6 30  1  0  0  0  0
  6 31  1  0  0  0  0
  7  8  1  0  0  0  0
  7 19  1  0  0  0  0
  7 32  1  0  0  0  0
  8  9  1  0  0  0  0
  9 18  1  0  0  0  0
  9 10  2  0  0  0  0
 10 11  1  0  0  0  0
 10 33  1  0  0  0  0
 11 12  2  0  0  0  0
 11 34  1  0  0  0  0
 12 13  1  0  0  0  0
 12 35  1  0  0  0  0
 13 14  1  0  0  0  0
 13 18  2  0  0  0  0
 14 15  1  0  0  0  0
 14 16  1  0  0  0  0
 14 17  1  0  0  0  0
 18 36  1  0  0  0  0
 19 20  1  0  0  0  0
 19 37  1  0  0  0  0
 19 38  1  0  0  0  0
 20 39  1  0  0  0  0
 20 40  1  0  0  0  0
 21 22  1  0  0  0  0
 21 41  1  0  0  0  0
 21 42  1  0  0  0  0
 22 23  1  0  0  0  0
 22 43  1  0  0  0  0
 22 44  1  0  0  0  0
 23 24  1  0  0  0  0
 23 45  1  0  0  0  0
 24 46  1  0  0  0  0
 24 47  1  0  0  0  0
M  CHG  1   4   1
M  END
> <s_m_source_file>
AV-unprocessed.smi

> <i_m_source_file_index>
67

> <i_lp_mmshare_version>
43012

> <i_f3d_flags>
0

> <s_epik_input>
W0NIMl0xW05IXVtDSDJdW0NIMl1bQ0BAXTEoW09IXSlbQ0gyXU4yW0NIMl1bQ0gyXVtDSF0oW0NIMl1bQ0gyXTIpT2MzW2NIXVtjSF1bY0hdYyhDKEYpKEYpRilbY0hdMw==

> <s_epik_cmdline>
J2VwaWtfcHl0aG9uJywgJy1waCcsICc3LjAnLCAnLXRuJywgJzgnLCAnLW1hJywgJzIwMCcsICctbWV0YWxfYmluZGluZycsICctaW1hZScsICc8aW5maWxlLm1hZT4nLCAnLW9tYWUnLCAnPG91dGZpbGUubWFlPic=

> <r_epik_Ionization_Penalty>
2.37709

> <r_epik_Ionization_Penalty_Charging>
0.0305656

> <r_epik_Ionization_Penalty_Neutral>
2.34653

> <r_epik_State_Penalty>
2.56959

> <r_epik_Charging_Adjusted_Penalty>
2.60016

> <i_epik_Tot_Q>
1

> <i_epik_Tot_abs_Q>
1

> <r_epik_Metal_State_Penalty>
2.56925

> <b_epik_Metal_Only>
0

> <s_lp_Force_Field>
OPLS_2005

> <r_lp_Energy>
52.4549

> <b_lp_Chiralities_Consistent>
1

> <s_lp_Variant>
AV-unprocessed.smi:67-10

> <Gold.Version>
5.8.1

> <Gold.Id.Protein>
6NUR|6NUR_protein|mol2

> <Gold.PLP.Fitness>
41.8569

> <Gold.PLP.PLP>
-33.8403

> <Gold.PLP.part.hbond>
-2.9369

> <Gold.PLP.part.metal>
0.0000

> <Gold.PLP.part.buried>
-4.4584

> <Gold.PLP.part.nonpolar>
-25.6459

> <Gold.PLP.part.repulsive>
0.0000

> <Gold.PLP.ligand.clash>
0.3604

> <Gold.PLP.ligand.torsion>
0.6371

> <Gold.PLP.Chemscore.Hbond>
3.0000

> <Gold.PLP.Chemscore.CHOScore>
0.0000

> <Gold.PLP.Chemscore.Metal>
0.0000

> <Gold.Chemscore.Hbonds>
donor molecule, donor type, donor heavy atom, donor atom, acceptor molecule, acceptor atom, score
      L1  H     1    25       P1  7948  1.00
      L1  H     4    48       P1  7948  2.00

> <Gold.PLP.Chemscore.Internal.Correction>
0.6513

> <Gold.Rescore>
     Score         DG    S(hbond)    S(metal)    S(lipo)     H(rot)  DE(clash)    DE(int)     intcor
     14.92     -15.60       1.98        0.00      77.50       2.17       0.01       0.67       ----

> <Gold.Chemscore.Fitness>
14.9213

> <Gold.Chemscore.DG>
-15.5961

> <Gold.Chemscore.ZeroCoef>
-5.4800

> <Gold.Chemscore.Hbond>
1.9799

> <Gold.Chemscore.Metal>
0.0000

> <Gold.Chemscore.Lipo>
77.4969

> <Gold.Chemscore.Internal_Hbond>
0.0000

> <Gold.Chemscore.DEClash>
0.0058

> <Gold.Chemscore.DEInternal>
0.6690

> <Gold.Chemscore.Rot>
2.1734

> <Gold.Chemscore.Internal.Correction>
   9.000000E+99

> <Gold.Chemscore.Hbonds>
donor molecule, donor type, donor heavy atom, donor atom, acceptor molecule, acceptor atom, score
      L1  H     1    25       P1  7948  0.95
      L1  H     4    48       P1  7948  0.99

> <Gold.Chemscore.Hbond.Weighted>
-6.6130

> <Gold.Chemscore.Metal.Weighted>
-0.0000

> <Gold.Chemscore.Lipo.Weighted>
-9.0671

> <Gold.Chemscore.Internal_Hbond.Weighted>
0.0000

> <Gold.Chemscore.DEClash.Weighted>
0.0058

> <Gold.Chemscore.DEInternal.Weighted>
0.6690

> <Gold.Chemscore.Rot.Weighted>
5.5640

> <Gold.Chemscore.Internal.Correction.Weighted>
   9.000000E+99

> <Gold.Protein.RotatedTorsions>
[ 6907 6896 6895 6894 ] final  109.30 input  -60.11 | X-H torsion
[ 7974 7965 7964 7962 ] final  139.53 input  175.53 | X-H torsion
[ 8008 7997 7996 7995 ] final   58.08 input   59.86 | X-H torsion
[ 10167 10162 10161 10158 ] final  -78.76 input  -65.29 | X-H torsion
[ 10718 10713 10712 10709 ] final   78.89 input   66.30 | X-H torsion
[ 10763 10752 10751 10750 ] final -179.39 input  -60.55 | X-H torsion
[ 11005 11000 10999 10996 ] final  -75.47 input  -57.11 | X-H torsion

> <Gold.Protein.ActiveResidues>
 VAL166  LYS551  ARG553  GLY616  TRP617  ASP618  TYR619  PRO620  LYS621  CYS622 
 ASP623  PHE694  ASN695  SER759  ASP760  ASP761  ALA762  ILE779  LEU786  VAL792 
 PHE793  MET794  SER795  GLU796  ALA797  LYS798  CYS799  TRP800  GLU811  SER814 

> <Gold.Protein.RotatedAtoms>
  152.5073  133.8963  159.7418 H   0  0  0  0  0  0  0  0  0  0  0  0  # atno 6907 bound_to 6896
  150.9390  133.6670  159.2801 H   0  0  0  0  0  0  0  0  0  0  0  0  # atno 6908 bound_to 6896
  151.3988  135.0972  159.9602 H   0  0  0  0  0  0  0  0  0  0  0  0  # atno 6909 bound_to 6896
  144.9270  139.5095  143.5636 H   0  0  0  0  0  0  0  0  0  0  0  0  # atno 7974 bound_to 7965
  155.5443  140.3485  155.4454 H   0  0  0  0  0  0  0  0  0  0  0  0  # atno 8008 bound_to 7997
  156.0629  140.1344  156.9946 H   0  0  0  0  0  0  0  0  0  0  0  0  # atno 8009 bound_to 7997
  154.4489  140.0981  156.6529 H   0  0  0  0  0  0  0  0  0  0  0  0  # atno 8010 bound_to 7997
  140.4654  143.2441  151.8286 H   0  0  0  0  0  0  0  0  0  0  0  0  # atno 10167 bound_to 10162
  157.6759  130.9889  150.1852 H   0  0  0  0  0  0  0  0  0  0  0  0  # atno 10718 bound_to 10713
  154.5357  135.2802  155.1140 H   0  0  0  0  0  0  0  0  0  0  0  0  # atno 10763 bound_to 10752
  154.2643  135.6316  153.5290 H   0  0  0  0  0  0  0  0  0  0  0  0  # atno 10764 bound_to 10752
  152.9967  135.5613  154.5883 H   0  0  0  0  0  0  0  0  0  0  0  0  # atno 10765 bound_to 10752
  141.1645  133.6948  156.7522 H   0  0  0  0  0  0  0  0  0  0  0  0  # atno 11005 bound_to 11000
  146.3230  139.8193  142.8930 LP  0  0  0  0  0  0  0  0  0  0  0  0  # atno 17320 bound_to 7965
  145.3203  141.0242  143.3504 LP  0  0  0  0  0  0  0  0  0  0  0  0  # atno 17321 bound_to 7965
  139.4811  144.4957  151.9127 LP  0  0  0  0  0  0  0  0  0  0  0  0  # atno 17342 bound_to 10162
  140.4042  144.2453  150.5891 LP  0  0  0  0  0  0  0  0  0  0  0  0  # atno 17343 bound_to 10162
  156.2575  130.3707  149.8165 LP  0  0  0  0  0  0  0  0  0  0  0  0  # atno 17370 bound_to 10713
  156.5920  130.8510  151.3410 LP  0  0  0  0  0  0  0  0  0  0  0  0  # atno 17371 bound_to 10713
  140.2596  134.8477  157.3745 LP  0  0  0  0  0  0  0  0  0  0  0  0  # atno 17394 bound_to 11000
  140.1624  134.4711  155.7885 LP  0  0  0  0  0  0  0  0  0  0  0  0  # atno 17395 bound_to 11000

$$$$
