AV-unprocessed.smi:995|AV-procd|sdf|4345|dock9
  -GOLD-   22720 2243D 1   1.00000     0.00000
 Structure written by MMmdl.
 37 38  0  0  0  0  0  0  0  0  1 V2000
  151.5161  136.4184  155.8536 O   0  0  0  0  0  0  0  0  0  0  0  0
  150.8410  137.4249  155.6400 C   0  0  0  0  0  0  0  0  0  0  0  0
  149.6375  137.6698  156.1918 N   0  0  0  0  0  0  0  0  0  0  0  0
  148.8909  136.8840  157.1123 C   0  0  0  0  0  0  0  0  0  0  0  0
  147.6318  137.2464  157.6490 C   0  0  0  0  0  0  0  0  0  0  0  0
  147.0030  136.3739  158.5581 C   0  0  0  0  0  0  0  0  0  0  0  0
  147.6501  135.1734  158.9112 C   0  0  0  0  0  0  0  0  0  0  0  0
  147.0233  134.3212  159.7970 O   0  0  0  0  0  0  0  0  0  0  0  0
  145.7485  134.6944  160.3139 C   0  0  0  0  0  0  0  0  0  0  0  0
  145.8965  135.0888  161.7909 C   0  0  0  0  0  0  0  0  0  0  0  0
  146.5414  134.1209  162.4437 F   0  0  0  0  0  0  0  0  0  0  0  0
  146.6064  136.2163  161.8502 F   0  0  0  0  0  0  0  0  0  0  0  0
  144.5401  135.3383  162.4699 C   0  0  0  0  0  0  0  0  0  0  0  0
  143.8624  136.3056  161.8512 F   0  0  0  0  0  0  0  0  0  0  0  0
  143.8079  134.2243  162.4856 F   0  0  0  0  0  0  0  0  0  0  0  0
  148.8628  134.8275  158.4140 N   0  0  0  0  0  0  0  0  0  0  0  0
  149.4589  135.6668  157.5420 C   0  0  0  0  0  0  0  0  0  0  0  0
  151.3576  138.5202  154.6871 C   0  0  2  0  0  0  0  0  0  0  0  0
  152.8204  138.9569  154.9386 C   0  0  0  0  0  0  0  0  0  0  0  0
  152.9144  139.7054  156.1451 O   0  0  0  0  0  0  0  0  0  0  0  0
  152.0956  140.8654  156.1021 C   0  0  0  0  0  0  0  0  0  0  0  0
  150.6305  140.4379  155.9220 C   0  0  0  0  0  0  0  0  0  0  0  0
  150.5117  139.6730  154.7243 O   0  0  0  0  0  0  0  0  0  0  0  0
  149.2300  138.5649  155.9622 H   0  0  0  0  0  0  0  0  0  0  0  0
  147.1381  138.1710  157.3961 H   0  0  0  0  0  0  0  0  0  0  0  0
  146.0399  136.6227  158.9790 H   0  0  0  0  0  0  0  0  0  0  0  0
  145.3434  135.5380  159.7522 H   0  0  0  0  0  0  0  0  0  0  0  0
  145.0506  133.8609  160.2179 H   0  0  0  0  0  0  0  0  0  0  0  0
  144.6687  135.6528  163.5060 H   0  0  0  0  0  0  0  0  0  0  0  0
  150.4234  135.3513  157.1713 H   0  0  0  0  0  0  0  0  0  0  0  0
  151.2941  138.1057  153.6804 H   0  0  0  0  0  0  0  0  0  0  0  0
  153.4837  138.0932  154.9990 H   0  0  0  0  0  0  0  0  0  0  0  0
  153.1810  139.5618  154.1052 H   0  0  0  0  0  0  0  0  0  0  0  0
  152.2158  141.4208  157.0323 H   0  0  0  0  0  0  0  0  0  0  0  0
  152.4130  141.5230  155.2913 H   0  0  0  0  0  0  0  0  0  0  0  0
  150.2826  139.8715  156.7868 H   0  0  0  0  0  0  0  0  0  0  0  0
  149.9892  141.3157  155.8439 H   0  0  0  0  0  0  0  0  0  0  0  0
  1  2  2  0  0  0  0
  2  3  1  0  0  0  0
  2 18  1  0  0  0  0
  3  4  1  0  0  0  0
  3 24  1  0  0  0  0
  4 17  1  0  0  0  0
  4  5  2  0  0  0  0
  5  6  1  0  0  0  0
  5 25  1  0  0  0  0
  6  7  2  0  0  0  0
  6 26  1  0  0  0  0
  7  8  1  0  0  0  0
  7 16  1  0  0  0  0
  8  9  1  0  0  0  0
  9 10  1  0  0  0  0
  9 27  1  0  0  0  0
  9 28  1  0  0  0  0
 10 11  1  0  0  0  0
 10 12  1  0  0  0  0
 10 13  1  0  0  0  0
 13 14  1  0  0  0  0
 13 15  1  0  0  0  0
 13 29  1  0  0  0  0
 16 17  2  0  0  0  0
 17 30  1  0  0  0  0
 18 23  1  0  0  0  0
 18 19  1  0  0  0  0
 18 31  1  0  0  0  0
 19 20  1  0  0  0  0
 19 32  1  0  0  0  0
 19 33  1  0  0  0  0
 20 21  1  0  0  0  0
 21 22  1  0  0  0  0
 21 34  1  0  0  0  0
 21 35  1  0  0  0  0
 22 23  1  0  0  0  0
 22 36  1  0  0  0  0
 22 37  1  0  0  0  0
M  END
> <s_m_source_file>
AV-unprocessed.smi

> <i_m_source_file_index>
995

> <i_lp_mmshare_version>
43012

> <i_f3d_flags>
0

> <s_epik_input>
TzFbQ0gyXVtDSDJdT1tDSDJdW0NASF0xQyg9TylbTkhdYzJbY0hdW2NIXWMobltjSF0yKU9bQ0gyXUMoRikoRilbQ0hdKEYpRg==

> <s_epik_cmdline>
J2VwaWtfcHl0aG9uJywgJy1waCcsICc3LjAnLCAnLXRuJywgJzgnLCAnLW1hJywgJzIwMCcsICctbWV0YWxfYmluZGluZycsICctaW1hZScsICc8aW5maWxlLm1hZT4nLCAnLW9tYWUnLCAnPG91dGZpbGUubWFlPic=

> <r_lp_tautomer_probability>
1

> <r_epik_Ionization_Penalty>
2.54436e-06

> <r_epik_Ionization_Penalty_Charging>
0

> <r_epik_Ionization_Penalty_Neutral>
2.54436e-06

> <r_epik_State_Penalty>
-0

> <r_epik_Charging_Adjusted_Penalty>
0

> <i_epik_Tot_Q>
0

> <i_epik_Tot_abs_Q>
0

> <r_epik_Metal_State_Penalty>
-0

> <b_epik_Metal_Only>
0

> <s_lp_Force_Field>
OPLS_2005

> <r_lp_Energy>
9.34037

> <b_lp_Chiralities_Consistent>
1

> <s_lp_Variant>
AV-unprocessed.smi:995-1

> <Gold.Version>
5.8.1

> <Gold.Id.Protein>
6NUR|6NUR_protein|mol2

> <Gold.PLP.Fitness>
40.0619

> <Gold.PLP.PLP>
-32.7728

> <Gold.PLP.part.hbond>
-3.7703

> <Gold.PLP.part.metal>
0.0000

> <Gold.PLP.part.buried>
-3.8177

> <Gold.PLP.part.nonpolar>
-24.0077

> <Gold.PLP.part.repulsive>
0.1578

> <Gold.PLP.ligand.clash>
2.1134

> <Gold.PLP.ligand.torsion>
0.5778

> <Gold.PLP.Chemscore.Hbond>
3.4848

> <Gold.PLP.Chemscore.CHOScore>
0.0000

> <Gold.PLP.Chemscore.Metal>
0.0000

> <Gold.Chemscore.Hbonds>
donor molecule, donor type, donor heavy atom, donor atom, acceptor molecule, acceptor atom, score
      P1  H  6896  6909       L1    16  0.62
      P1  H  7989  7998       L1    23  0.82
      P1  H  7997  8008       L1    20  0.91
      P1  H 10752 10765       L1     1  1.00

> <Gold.PLP.Chemscore.Internal.Correction>
0.1038

> <Gold.Rescore>
     Score         DG    S(hbond)    S(metal)    S(lipo)     H(rot)  DE(clash)    DE(int)     intcor
      8.17     -14.67       2.44        0.00      55.18       2.12       1.77       4.73       ----

> <Gold.Chemscore.Fitness>
8.1719

> <Gold.Chemscore.DG>
-14.6659

> <Gold.Chemscore.ZeroCoef>
-5.4800

> <Gold.Chemscore.Hbond>
2.4400

> <Gold.Chemscore.Metal>
0.0000

> <Gold.Chemscore.Lipo>
55.1830

> <Gold.Chemscore.Internal_Hbond>
0.0000

> <Gold.Chemscore.DEClash>
1.7686

> <Gold.Chemscore.DEInternal>
4.7255

> <Gold.Chemscore.Rot>
2.1172

> <Gold.Chemscore.Internal.Correction>
   9.000000E+99

> <Gold.Chemscore.Hbonds>
donor molecule, donor type, donor heavy atom, donor atom, acceptor molecule, acceptor atom, score
      P1  H  6896  6909       L1    16  0.11
      P1  H  7989  7998       L1    23  0.04
      P1  H  7997  8008       L1    20  0.34
      P1  H 10752 10765       L1     1  0.94

> <Gold.Chemscore.Hbond.Weighted>
-8.1495

> <Gold.Chemscore.Metal.Weighted>
-0.0000

> <Gold.Chemscore.Lipo.Weighted>
-6.4564

> <Gold.Chemscore.Internal_Hbond.Weighted>
0.0000

> <Gold.Chemscore.DEClash.Weighted>
1.7686

> <Gold.Chemscore.DEInternal.Weighted>
4.7255

> <Gold.Chemscore.Rot.Weighted>
5.4200

> <Gold.Chemscore.Internal.Correction.Weighted>
   9.000000E+99

> <Gold.Protein.RotatedTorsions>
[ 6907 6896 6895 6894 ] final   21.52 input  -60.11 | X-H torsion
[ 7974 7965 7964 7962 ] final   92.23 input  175.53 | X-H torsion
[ 8008 7997 7996 7995 ] final  -38.86 input   59.86 | X-H torsion
[ 10167 10162 10161 10158 ] final -118.45 input  -65.29 | X-H torsion
[ 10718 10713 10712 10709 ] final -127.63 input   66.30 | X-H torsion
[ 10763 10752 10751 10750 ] final -155.71 input  -60.55 | X-H torsion
[ 11005 11000 10999 10996 ] final  109.05 input  -57.11 | X-H torsion

> <Gold.Protein.ActiveResidues>
 VAL166  LYS551  ARG553  GLY616  TRP617  ASP618  TYR619  PRO620  LYS621  CYS622 
 ASP623  PHE694  ASN695  SER759  ASP760  ASP761  ALA762  ILE779  LEU786  VAL792 
 PHE793  MET794  SER795  GLU796  ALA797  LYS798  CYS799  TRP800  GLU811  SER814 

> <Gold.Protein.RotatedAtoms>
  151.9130  135.0330  160.0515 H   0  0  0  0  0  0  0  0  0  0  0  0  # atno 6907 bound_to 6896
  152.2263  133.5018  159.5199 H   0  0  0  0  0  0  0  0  0  0  0  0  # atno 6908 bound_to 6896
  150.7013  134.1192  159.4071 H   0  0  0  0  0  0  0  0  0  0  0  0  # atno 6909 bound_to 6896
  145.4951  139.2276  143.2808 H   0  0  0  0  0  0  0  0  0  0  0  0  # atno 7974 bound_to 7965
  154.4031  140.1566  156.2769 H   0  0  0  0  0  0  0  0  0  0  0  0  # atno 8008 bound_to 7997
  155.8904  140.3439  155.5930 H   0  0  0  0  0  0  0  0  0  0  0  0  # atno 8009 bound_to 7997
  155.7565  140.0812  157.2166 H   0  0  0  0  0  0  0  0  0  0  0  0  # atno 8010 bound_to 7997
  140.0574  143.5001  152.2050 H   0  0  0  0  0  0  0  0  0  0  0  0  # atno 10167 bound_to 10162
  156.1875  130.6773  151.0382 H   0  0  0  0  0  0  0  0  0  0  0  0  # atno 10718 bound_to 10713
  154.7767  135.3162  154.8076 H   0  0  0  0  0  0  0  0  0  0  0  0  # atno 10763 bound_to 10752
  153.8798  135.6836  153.4772 H   0  0  0  0  0  0  0  0  0  0  0  0  # atno 10764 bound_to 10752
  153.1393  135.4746  154.9407 H   0  0  0  0  0  0  0  0  0  0  0  0  # atno 10765 bound_to 10752
  139.8855  134.9448  156.6067 H   0  0  0  0  0  0  0  0  0  0  0  0  # atno 11005 bound_to 11000
  146.2260  140.5748  142.8996 LP  0  0  0  0  0  0  0  0  0  0  0  0  # atno 17320 bound_to 7965
  144.7812  140.5843  143.6604 LP  0  0  0  0  0  0  0  0  0  0  0  0  # atno 17321 bound_to 7965
  139.5915  144.7552  151.3389 LP  0  0  0  0  0  0  0  0  0  0  0  0  # atno 17342 bound_to 10162
  140.7188  143.7193  150.7708 LP  0  0  0  0  0  0  0  0  0  0  0  0  # atno 17343 bound_to 10162
  157.6908  131.0810  150.7113 LP  0  0  0  0  0  0  0  0  0  0  0  0  # atno 17370 bound_to 10713
  156.7170  130.4669  149.5532 LP  0  0  0  0  0  0  0  0  0  0  0  0  # atno 17371 bound_to 10713
  140.7843  133.8634  155.8593 LP  0  0  0  0  0  0  0  0  0  0  0  0  # atno 17394 bound_to 11000
  140.9733  134.1502  157.4557 LP  0  0  0  0  0  0  0  0  0  0  0  0  # atno 17395 bound_to 11000

$$$$
