AV-unprocessed.smi:2119|AV-procd|sdf|8630|dock4
  -GOLD-   2272011373D 1   1.00000     0.00000
 Structure written by MMmdl.
 47 49  0  0  0  0  0  0  0  0  1 V2000
  145.9700  134.1430  154.2628 O   0  0  0  0  0  0  0  0  0  0  0  0
  146.7834  134.4571  153.3942 C   0  0  0  0  0  0  0  0  0  0  0  0
  147.9252  135.1092  153.6538 N   0  0  0  0  0  0  0  0  0  0  0  0
  148.3656  135.5386  154.9789 C   0  0  0  0  0  0  0  0  0  0  0  0
  149.9013  135.8052  155.0738 C   0  0  2  0  0  0  0  0  0  0  0  0
  150.5483  134.7203  156.0012 C   0  0  2  0  0  0  0  0  0  0  0  0
  150.5834  133.3059  155.4352 C   0  0  0  0  0  0  0  0  0  0  0  0
  150.7726  132.4214  156.6728 C   0  0  0  0  0  0  0  0  0  0  0  0
  150.6639  133.2898  157.7963 O   0  0  0  0  0  0  0  0  0  0  0  0
  149.9651  134.4537  157.3887 C   0  0  0  0  0  0  0  0  0  0  0  0
  150.2760  137.1962  155.4374 N   0  0  0  0  0  0  0  0  0  0  0  0
  151.7169  137.4329  155.2779 C   0  0  0  0  0  0  0  0  0  0  0  0
  152.1331  138.8349  155.7519 C   0  0  0  0  0  0  0  0  0  0  0  0
  151.4149  139.8129  155.0099 O   0  0  0  0  0  0  0  0  0  0  0  0
  150.0061  139.6594  155.1306 C   0  0  0  0  0  0  0  0  0  0  0  0
  149.5913  138.2475  154.6774 C   0  0  0  0  0  0  0  0  0  0  0  0
  146.6496  134.2216  152.0778 N   0  0  0  0  0  0  0  0  0  0  0  0
  145.5958  133.5551  151.3956 C   0  0  0  0  0  0  0  0  0  0  0  0
  144.2252  133.6662  151.7345 C   0  0  0  0  0  0  0  0  0  0  0  0
  143.2791  132.9376  150.9878 C   0  0  0  0  0  0  0  0  0  0  0  0
  143.7367  132.1201  149.9363 C   0  0  0  0  0  0  0  0  0  0  0  0
  145.0403  131.9949  149.6102 N   0  0  0  0  0  0  0  0  0  0  0  0
  145.9413  132.6965  150.3304 C   0  0  0  0  0  0  0  0  0  0  0  0
  148.5333  135.3318  152.8794 H   0  0  0  0  0  0  0  0  0  0  0  0
  147.7945  136.4337  155.2290 H   0  0  0  0  0  0  0  0  0  0  0  0
  148.0643  134.7740  155.6954 H   0  0  0  0  0  0  0  0  0  0  0  0
  150.2850  135.6236  154.0687 H   0  0  0  0  0  0  0  0  0  0  0  0
  151.5817  135.0178  156.1849 H   0  0  0  0  0  0  0  0  0  0  0  0
  149.6380  133.0639  154.9474 H   0  0  0  0  0  0  0  0  0  0  0  0
  151.3824  133.1674  154.7064 H   0  0  0  0  0  0  0  0  0  0  0  0
  150.0037  131.6494  156.7199 H   0  0  0  0  0  0  0  0  0  0  0  0
  151.7468  131.9321  156.6799 H   0  0  0  0  0  0  0  0  0  0  0  0
  150.1146  135.2793  158.0849 H   0  0  0  0  0  0  0  0  0  0  0  0
  148.9059  134.1976  157.3507 H   0  0  0  0  0  0  0  0  0  0  0  0
  152.3162  136.6965  155.8022 H   0  0  0  0  0  0  0  0  0  0  0  0
  151.9874  137.3257  154.2260 H   0  0  0  0  0  0  0  0  0  0  0  0
  151.9415  138.9571  156.8190 H   0  0  0  0  0  0  0  0  0  0  0  0
  153.2015  138.9862  155.5973 H   0  0  0  0  0  0  0  0  0  0  0  0
  149.7030  139.8358  156.1639 H   0  0  0  0  0  0  0  0  0  0  0  0
  149.5121  140.4142  154.5190 H   0  0  0  0  0  0  0  0  0  0  0  0
  149.7959  138.1327  153.6117 H   0  0  0  0  0  0  0  0  0  0  0  0
  148.5123  138.1704  154.8080 H   0  0  0  0  0  0  0  0  0  0  0  0
  147.3677  134.6102  151.4841 H   0  0  0  0  0  0  0  0  0  0  0  0
  143.8812  134.2787  152.5528 H   0  0  0  0  0  0  0  0  0  0  0  0
  142.2261  133.0007  151.2192 H   0  0  0  0  0  0  0  0  0  0  0  0
  143.0376  131.5471  149.3452 H   0  0  0  0  0  0  0  0  0  0  0  0
  146.9749  132.5701  150.0423 H   0  0  0  0  0  0  0  0  0  0  0  0
  1  2  2  0  0  0  0
  2  3  1  0  0  0  0
  2 17  1  0  0  0  0
  3  4  1  0  0  0  0
  3 24  1  0  0  0  0
  4  5  1  0  0  0  0
  4 25  1  0  0  0  0
  4 26  1  0  0  0  0
  5  6  1  0  0  0  0
  5 11  1  0  0  0  0
  5 27  1  0  0  0  0
  6 10  1  0  0  0  0
  6  7  1  0  0  0  0
  6 28  1  0  0  0  0
  7  8  1  0  0  0  0
  7 29  1  0  0  0  0
  7 30  1  0  0  0  0
  8  9  1  0  0  0  0
  8 31  1  0  0  0  0
  8 32  1  0  0  0  0
  9 10  1  0  0  0  0
 10 33  1  0  0  0  0
 10 34  1  0  0  0  0
 11 16  1  0  0  0  0
 11 12  1  0  0  0  0
 12 13  1  0  0  0  0
 12 35  1  0  0  0  0
 12 36  1  0  0  0  0
 13 14  1  0  0  0  0
 13 37  1  0  0  0  0
 13 38  1  0  0  0  0
 14 15  1  0  0  0  0
 15 16  1  0  0  0  0
 15 39  1  0  0  0  0
 15 40  1  0  0  0  0
 16 41  1  0  0  0  0
 16 42  1  0  0  0  0
 17 18  1  0  0  0  0
 17 43  1  0  0  0  0
 18 23  1  0  0  0  0
 18 19  2  0  0  0  0
 19 20  1  0  0  0  0
 19 44  1  0  0  0  0
 20 21  2  0  0  0  0
 20 45  1  0  0  0  0
 21 22  1  0  0  0  0
 21 46  1  0  0  0  0
 22 23  2  0  0  0  0
 23 47  1  0  0  0  0
M  END
> <s_m_source_file>
AV-unprocessed.smi

> <i_m_source_file_index>
2119

> <i_lp_mmshare_version>
43012

> <i_f3d_flags>
0

> <s_epik_input>
W2NIXTFuW2NIXVtjSF1bY0hdYzFbTkhdQyg9TylbTkhdW0NIMl1bQ0BIXShbQ0BASF0yW0NIMl1bQ0gyXU9bQ0gyXTIpTjNbQ0gyXVtDSDJdT1tDSDJdW0NIMl0z

> <s_epik_cmdline>
J2VwaWtfcHl0aG9uJywgJy1waCcsICc3LjAnLCAnLXRuJywgJzgnLCAnLW1hJywgJzIwMCcsICctbWV0YWxfYmluZGluZycsICctaW1hZScsICc8aW5maWxlLm1hZT4nLCAnLW9tYWUnLCAnPG91dGZpbGUubWFlPic=

> <r_epik_Ionization_Penalty>
0.129787

> <r_epik_Ionization_Penalty_Charging>
0

> <r_epik_Ionization_Penalty_Neutral>
0.129787

> <r_epik_State_Penalty>
0.121311

> <r_epik_Charging_Adjusted_Penalty>
0.121311

> <i_epik_Tot_Q>
0

> <i_epik_Tot_abs_Q>
0

> <r_epik_Metal_State_Penalty>
0.117931

> <b_epik_Metal_Only>
0

> <s_lp_Force_Field>
OPLS_2005

> <r_lp_Energy>
59.4027

> <b_lp_Chiralities_Consistent>
1

> <s_lp_Variant>
AV-unprocessed.smi:2119-1

> <Gold.Version>
5.8.1

> <Gold.Id.Protein>
6NUR|6NUR_protein|mol2

> <Gold.PLP.Fitness>
41.3901

> <Gold.PLP.PLP>
-29.5418

> <Gold.PLP.part.hbond>
-3.0877

> <Gold.PLP.part.metal>
0.0000

> <Gold.PLP.part.buried>
-0.9539

> <Gold.PLP.part.nonpolar>
-26.6309

> <Gold.PLP.part.repulsive>
0.3848

> <Gold.PLP.ligand.clash>
0.0000

> <Gold.PLP.ligand.torsion>
1.4502

> <Gold.PLP.Chemscore.Hbond>
2.8903

> <Gold.PLP.Chemscore.CHOScore>
1.9690

> <Gold.PLP.Chemscore.Metal>
0.0000

> <Gold.Chemscore.Hbonds>
donor molecule, donor type, donor heavy atom, donor atom, acceptor molecule, acceptor atom, score
      L1  H     3    24       P1  7948  0.67
      L1  H    17    43       P1  7948  0.32
      P1  H  6896  6908       L1     9  0.78
      P1  H  7989  7998       L1    14  1.00
      L1  C    21    46       P1 10952  1.00
      L1  C    23    47       P1 10747  0.75

> <Gold.PLP.Chemscore.Internal.Correction>
0.1708

> <Gold.Rescore>
     Score         DG    S(hbond)    S(metal)    S(lipo)     H(rot)  DE(clash)    DE(int)     intcor
     17.42     -19.81       2.36        0.00      91.29       1.65       0.92       1.46       ----

> <Gold.Chemscore.Fitness>
17.4244

> <Gold.Chemscore.DG>
-19.8112

> <Gold.Chemscore.ZeroCoef>
-5.4800

> <Gold.Chemscore.Hbond>
2.3582

> <Gold.Chemscore.Metal>
0.0000

> <Gold.Chemscore.Lipo>
91.2899

> <Gold.Chemscore.Internal_Hbond>
0.0000

> <Gold.Chemscore.DEClash>
0.9223

> <Gold.Chemscore.DEInternal>
1.4645

> <Gold.Chemscore.Rot>
1.6508

> <Gold.Chemscore.Internal.Correction>
   9.000000E+99

> <Gold.Chemscore.Hbonds>
donor molecule, donor type, donor heavy atom, donor atom, acceptor molecule, acceptor atom, score
      L1  H     3    24       P1  7948  0.57
      L1  H    17    43       P1  7948  0.12
      P1  H  6896  6908       L1     9  0.65
      P1  H  7989  7998       L1    14  0.50

> <Gold.Chemscore.Hbond.Weighted>
-7.8765

> <Gold.Chemscore.Metal.Weighted>
-0.0000

> <Gold.Chemscore.Lipo.Weighted>
-10.6809

> <Gold.Chemscore.Internal_Hbond.Weighted>
0.0000

> <Gold.Chemscore.DEClash.Weighted>
0.9223

> <Gold.Chemscore.DEInternal.Weighted>
1.4645

> <Gold.Chemscore.Rot.Weighted>
4.2262

> <Gold.Chemscore.Internal.Correction.Weighted>
   9.000000E+99

> <Gold.Protein.RotatedTorsions>
[ 6907 6896 6895 6894 ] final   79.82 input  -60.11 | X-H torsion
[ 7974 7965 7964 7962 ] final -136.65 input  175.53 | X-H torsion
[ 8008 7997 7996 7995 ] final  102.55 input   59.86 | X-H torsion
[ 10167 10162 10161 10158 ] final -101.25 input  -65.29 | X-H torsion
[ 10718 10713 10712 10709 ] final   65.92 input   66.30 | X-H torsion
[ 10763 10752 10751 10750 ] final -117.23 input  -60.55 | X-H torsion
[ 11005 11000 10999 10996 ] final   47.00 input  -57.11 | X-H torsion

> <Gold.Protein.ActiveResidues>
 VAL166  LYS551  ARG553  GLY616  TRP617  ASP618  TYR619  PRO620  LYS621  CYS622 
 ASP623  PHE694  ASN695  SER759  ASP760  ASP761  ALA762  ILE779  LEU786  VAL792 
 PHE793  MET794  SER795  GLU796  ALA797  LYS798  CYS799  TRP800  GLU811  SER814 

> <Gold.Protein.RotatedAtoms>
  152.5213  134.3452  159.9231 H   0  0  0  0  0  0  0  0  0  0  0  0  # atno 6907 bound_to 6896
  151.3402  133.3959  159.2678 H   0  0  0  0  0  0  0  0  0  0  0  0  # atno 6908 bound_to 6896
  150.9810  134.9183  159.7902 H   0  0  0  0  0  0  0  0  0  0  0  0  # atno 6909 bound_to 6896
  144.8909  140.6641  143.5146 H   0  0  0  0  0  0  0  0  0  0  0  0  # atno 7974 bound_to 7965
  156.1403  140.3179  155.8485 H   0  0  0  0  0  0  0  0  0  0  0  0  # atno 8008 bound_to 7997
  155.4167  140.0509  157.3045 H   0  0  0  0  0  0  0  0  0  0  0  0  # atno 8009 bound_to 7997
  154.4971  140.2115  155.9437 H   0  0  0  0  0  0  0  0  0  0  0  0  # atno 8010 bound_to 7997
  140.2433  143.3524  152.0782 H   0  0  0  0  0  0  0  0  0  0  0  0  # atno 10167 bound_to 10162
  157.6136  130.9240  150.0040 H   0  0  0  0  0  0  0  0  0  0  0  0  # atno 10718 bound_to 10713
  154.8547  135.4317  154.1946 H   0  0  0  0  0  0  0  0  0  0  0  0  # atno 10763 bound_to 10752
  153.3007  135.6968  153.7212 H   0  0  0  0  0  0  0  0  0  0  0  0  # atno 10764 bound_to 10752
  153.6343  135.3479  155.3026 H   0  0  0  0  0  0  0  0  0  0  0  0  # atno 10765 bound_to 10752
  140.1318  134.4696  155.8516 H   0  0  0  0  0  0  0  0  0  0  0  0  # atno 11005 bound_to 11000
  145.3785  139.1642  143.4294 LP  0  0  0  0  0  0  0  0  0  0  0  0  # atno 17320 bound_to 7965
  146.3053  140.3863  142.8689 LP  0  0  0  0  0  0  0  0  0  0  0  0  # atno 17321 bound_to 7965
  139.5070  144.6824  151.5974 LP  0  0  0  0  0  0  0  0  0  0  0  0  # atno 17342 bound_to 10162
  140.6097  143.9459  150.6444 LP  0  0  0  0  0  0  0  0  0  0  0  0  # atno 17343 bound_to 10162
  156.1249  130.3645  149.9826 LP  0  0  0  0  0  0  0  0  0  0  0  0  # atno 17370 bound_to 10713
  156.7899  130.9252  151.3646 LP  0  0  0  0  0  0  0  0  0  0  0  0  # atno 17371 bound_to 10713
  141.2171  133.6799  156.7083 LP  0  0  0  0  0  0  0  0  0  0  0  0  # atno 17394 bound_to 11000
  140.2833  134.8299  157.3952 LP  0  0  0  0  0  0  0  0  0  0  0  0  # atno 17395 bound_to 11000

$$$$
