AV-unprocessed.smi:2390|AV-procd|sdf|9479|dock7
  -GOLD-   2272013113D 1   1.00000     0.00000
 Structure written by MMmdl.
 46 47  0  0  0  0  0  0  0  0  2 V2000
  153.5772  141.7576  160.9473 C   0  0  0  0  0  0  0  0  0  0  0  0
  152.6852  142.8442  160.3842 C   0  0  0  0  0  0  0  0  0  0  0  0
  152.5982  144.1061  161.0042 C   0  0  0  0  0  0  0  0  0  0  0  0
  151.7508  145.0703  160.4296 C   0  0  0  0  0  0  0  0  0  0  0  0
  151.0294  144.7353  159.2674 C   0  0  0  0  0  0  0  0  0  0  0  0
  151.1751  143.4464  158.7069 C   0  0  0  0  0  0  0  0  0  0  0  0
  150.4009  143.2035  157.5412 N   0  0  0  0  0  0  0  0  0  0  0  0
  150.1730  142.0281  156.9300 C   0  0  0  0  0  0  0  0  0  0  0  0
  150.6752  140.9508  157.2502 O   0  0  0  0  0  0  0  0  0  0  0  0
  149.3048  142.1662  155.9160 N   0  0  0  0  0  0  0  0  0  0  0  0
  148.8347  141.1004  155.0261 C   0  0  2  0  0  0  0  0  0  0  0  0
  150.0696  140.4163  154.4159 C   0  0  0  0  0  0  0  0  0  0  0  0
  147.8533  141.6557  153.9538 C   0  0  1  0  0  0  0  0  0  0  0  0
  147.2093  140.5506  153.0883 C   0  0  0  0  0  0  0  0  0  0  0  0
  146.8371  142.5650  154.5634 N   0  3  0  0  0  0  0  0  0  0  0  0
  145.8368  143.0969  153.6079 C   0  0  0  0  0  0  0  0  0  0  0  0
  144.9749  144.1692  154.2977 C   0  0  0  0  0  0  0  0  0  0  0  0
  144.3610  143.6236  155.4600 O   0  0  0  0  0  0  0  0  0  0  0  0
  145.3180  143.1753  156.4134 C   0  0  0  0  0  0  0  0  0  0  0  0
  146.1707  142.0591  155.7898 C   0  0  0  0  0  0  0  0  0  0  0  0
  151.9931  142.5223  159.2701 N   0  0  0  0  0  0  0  0  0  0  0  0
  154.1398  142.1147  161.8104 H   0  0  0  0  0  0  0  0  0  0  0  0
  154.2896  141.4223  160.1928 H   0  0  0  0  0  0  0  0  0  0  0  0
  152.9792  140.9014  161.2606 H   0  0  0  0  0  0  0  0  0  0  0  0
  153.1644  144.3325  161.8957 H   0  0  0  0  0  0  0  0  0  0  0  0
  151.6545  146.0508  160.8725 H   0  0  0  0  0  0  0  0  0  0  0  0
  150.3736  145.4647  158.8145 H   0  0  0  0  0  0  0  0  0  0  0  0
  149.9506  144.0148  157.1437 H   0  0  0  0  0  0  0  0  0  0  0  0
  148.9501  143.0929  155.7281 H   0  0  0  0  0  0  0  0  0  0  0  0
  148.3174  140.3451  155.6200 H   0  0  0  0  0  0  0  0  0  0  0  0
  149.7990  139.5275  153.8466 H   0  0  0  0  0  0  0  0  0  0  0  0
  150.7616  140.0930  155.1944 H   0  0  0  0  0  0  0  0  0  0  0  0
  150.6107  141.0896  153.7503 H   0  0  0  0  0  0  0  0  0  0  0  0
  148.4573  142.2693  153.2834 H   0  0  0  0  0  0  0  0  0  0  0  0
  147.9554  140.0300  152.4888 H   0  0  0  0  0  0  0  0  0  0  0  0
  146.4816  140.9626  152.3893 H   0  0  0  0  0  0  0  0  0  0  0  0
  146.7020  139.8027  153.6983 H   0  0  0  0  0  0  0  0  0  0  0  0
  146.3378  143.5355  152.7442 H   0  0  0  0  0  0  0  0  0  0  0  0
  145.2052  142.2879  153.2391 H   0  0  0  0  0  0  0  0  0  0  0  0
  145.5784  145.0375  154.5675 H   0  0  0  0  0  0  0  0  0  0  0  0
  144.1974  144.5207  153.6191 H   0  0  0  0  0  0  0  0  0  0  0  0
  145.9425  144.0073  156.7432 H   0  0  0  0  0  0  0  0  0  0  0  0
  144.7935  142.8015  157.2928 H   0  0  0  0  0  0  0  0  0  0  0  0
  145.5316  141.2080  155.5516 H   0  0  0  0  0  0  0  0  0  0  0  0
  146.9102  141.7133  156.5117 H   0  0  0  0  0  0  0  0  0  0  0  0
  147.3663  143.3731  154.8594 H   0  0  0  0  0  0  0  0  0  0  0  0
  1  2  1  0  0  0  0
  1 22  1  0  0  0  0
  1 23  1  0  0  0  0
  1 24  1  0  0  0  0
  2 21  1  0  0  0  0
  2  3  2  0  0  0  0
  3  4  1  0  0  0  0
  3 25  1  0  0  0  0
  4  5  2  0  0  0  0
  4 26  1  0  0  0  0
  5  6  1  0  0  0  0
  5 27  1  0  0  0  0
  6  7  1  0  0  0  0
  6 21  2  0  0  0  0
  7  8  1  0  0  0  0
  7 28  1  0  0  0  0
  8  9  2  0  0  0  0
  8 10  1  0  0  0  0
 10 11  1  0  0  0  0
 10 29  1  0  0  0  0
 11 12  1  0  0  0  0
 11 13  1  0  0  0  0
 11 30  1  0  0  0  0
 12 31  1  0  0  0  0
 12 32  1  0  0  0  0
 12 33  1  0  0  0  0
 13 14  1  0  0  0  0
 13 15  1  0  0  0  0
 13 34  1  0  0  0  0
 14 35  1  0  0  0  0
 14 36  1  0  0  0  0
 14 37  1  0  0  0  0
 15 20  1  0  0  0  0
 15 16  1  0  0  0  0
 15 46  1  0  0  0  0
 16 17  1  0  0  0  0
 16 38  1  0  0  0  0
 16 39  1  0  0  0  0
 17 18  1  0  0  0  0
 17 40  1  0  0  0  0
 17 41  1  0  0  0  0
 18 19  1  0  0  0  0
 19 20  1  0  0  0  0
 19 42  1  0  0  0  0
 19 43  1  0  0  0  0
 20 44  1  0  0  0  0
 20 45  1  0  0  0  0
M  CHG  1  15   1
M  END
> <s_m_source_file>
AV-unprocessed.smi

> <i_m_source_file_index>
2390

> <i_lp_mmshare_version>
43012

> <i_f3d_flags>
0

> <s_epik_input>
W0NIM11jMVtjSF1bY0hdW2NIXWMobjEpW05IXUMoPU8pW05IXVtDQEhdKFtDSDNdKVtDQEhdKFtDSDNdKU4yW0NIMl1bQ0gyXU9bQ0gyXVtDSDJdMg==

> <s_epik_cmdline>
J2VwaWtfcHl0aG9uJywgJy1waCcsICc3LjAnLCAnLXRuJywgJzgnLCAnLW1hJywgJzIwMCcsICctbWV0YWxfYmluZGluZycsICctaW1hZScsICc8aW5maWxlLm1hZT4nLCAnLW9tYWUnLCAnPG91dGZpbGUubWFlPic=

> <r_epik_Ionization_Penalty>
0.60259

> <r_epik_Ionization_Penalty_Charging>
0.602531

> <r_epik_Ionization_Penalty_Neutral>
5.9516e-05

> <r_epik_State_Penalty>
0.617039

> <r_epik_Charging_Adjusted_Penalty>
1.21957

> <i_epik_Tot_Q>
1

> <i_epik_Tot_abs_Q>
1

> <r_epik_Metal_State_Penalty>
0.617047

> <b_epik_Metal_Only>
0

> <s_lp_Force_Field>
OPLS_2005

> <r_lp_Energy>
26.9068

> <b_lp_Chiralities_Consistent>
1

> <s_lp_Variant>
AV-unprocessed.smi:2390-7

> <Gold.Version>
5.8.1

> <Gold.Id.Protein>
6NUR|6NUR_protein|mol2

> <Gold.PLP.Fitness>
54.9908

> <Gold.PLP.PLP>
-44.6813

> <Gold.PLP.part.hbond>
-2.8914

> <Gold.PLP.part.metal>
0.0000

> <Gold.PLP.part.buried>
-7.4774

> <Gold.PLP.part.nonpolar>
-33.9006

> <Gold.PLP.part.repulsive>
0.4097

> <Gold.PLP.ligand.clash>
0.0000

> <Gold.PLP.ligand.torsion>
0.3145

> <Gold.PLP.Chemscore.Hbond>
3.5980

> <Gold.PLP.Chemscore.CHOScore>
0.0000

> <Gold.PLP.Chemscore.Metal>
0.0000

> <Gold.Chemscore.Hbonds>
donor molecule, donor type, donor heavy atom, donor atom, acceptor molecule, acceptor atom, score
      L1  H     7    28       P1  8028  0.96
      L1  H    10    29       P1  8028  1.00
      L1  H    15    46       P1  8028  1.27

> <Gold.PLP.Chemscore.Internal.Correction>
0.1445

> <Gold.Rescore>
     Score         DG    S(hbond)    S(metal)    S(lipo)     H(rot)  DE(clash)    DE(int)     intcor
     17.96     -20.62       1.94        0.00     106.55       1.48       0.07       2.59       ----

> <Gold.Chemscore.Fitness>
17.9579

> <Gold.Chemscore.DG>
-20.6242

> <Gold.Chemscore.ZeroCoef>
-5.4800

> <Gold.Chemscore.Hbond>
1.9393

> <Gold.Chemscore.Metal>
0.0000

> <Gold.Chemscore.Lipo>
106.5547

> <Gold.Chemscore.Internal_Hbond>
0.0000

> <Gold.Chemscore.DEClash>
0.0729

> <Gold.Chemscore.DEInternal>
2.5934

> <Gold.Chemscore.Rot>
1.4844

> <Gold.Chemscore.Internal.Correction>
   9.000000E+99

> <Gold.Chemscore.Hbonds>
donor molecule, donor type, donor heavy atom, donor atom, acceptor molecule, acceptor atom, score
      L1  H     7    28       P1  8028  0.78
      L1  H    10    29       P1  8028  0.99
      L1  H    15    46       P1  8028  0.11

> <Gold.Chemscore.Hbond.Weighted>
-6.4773

> <Gold.Chemscore.Metal.Weighted>
-0.0000

> <Gold.Chemscore.Lipo.Weighted>
-12.4669

> <Gold.Chemscore.Internal_Hbond.Weighted>
0.0000

> <Gold.Chemscore.DEClash.Weighted>
0.0729

> <Gold.Chemscore.DEInternal.Weighted>
2.5934

> <Gold.Chemscore.Rot.Weighted>
3.8000

> <Gold.Chemscore.Internal.Correction.Weighted>
   9.000000E+99

> <Gold.Protein.RotatedTorsions>
[ 6907 6896 6895 6894 ] final   12.85 input  -60.11 | X-H torsion
[ 7974 7965 7964 7962 ] final   56.30 input  175.53 | X-H torsion
[ 8008 7997 7996 7995 ] final  -44.79 input   59.86 | X-H torsion
[ 10167 10162 10161 10158 ] final -160.47 input  -65.29 | X-H torsion
[ 10718 10713 10712 10709 ] final  -62.74 input   66.30 | X-H torsion
[ 10763 10752 10751 10750 ] final -160.98 input  -60.55 | X-H torsion
[ 11005 11000 10999 10996 ] final  -51.13 input  -57.11 | X-H torsion

> <Gold.Protein.ActiveResidues>
 VAL166  LYS551  ARG553  GLY616  TRP617  ASP618  TYR619  PRO620  LYS621  CYS622 
 ASP623  PHE694  ASN695  SER759  ASP760  ASP761  ALA762  ILE779  LEU786  VAL792 
 PHE793  MET794  SER795  GLU796  ALA797  LYS798  CYS799  TRP800  GLU811  SER814 

> <Gold.Protein.RotatedAtoms>
  151.7769  135.0772  160.0367 H   0  0  0  0  0  0  0  0  0  0  0  0  # atno 6907 bound_to 6896
  152.3250  133.5890  159.5778 H   0  0  0  0  0  0  0  0  0  0  0  0  # atno 6908 bound_to 6896
  150.7390  133.9871  159.3637 H   0  0  0  0  0  0  0  0  0  0  0  0  # atno 6909 bound_to 6896
  145.9413  139.3891  143.0362 H   0  0  0  0  0  0  0  0  0  0  0  0  # atno 7974 bound_to 7965
  154.3998  140.1413  156.3741 H   0  0  0  0  0  0  0  0  0  0  0  0  # atno 8008 bound_to 7997
  155.8065  140.3474  155.5412 H   0  0  0  0  0  0  0  0  0  0  0  0  # atno 8009 bound_to 7997
  155.8430  140.0929  157.1713 H   0  0  0  0  0  0  0  0  0  0  0  0  # atno 8010 bound_to 7997
  139.6537  144.0038  152.2179 H   0  0  0  0  0  0  0  0  0  0  0  0  # atno 10167 bound_to 10162
  156.0835  130.4212  150.1178 H   0  0  0  0  0  0  0  0  0  0  0  0  # atno 10718 bound_to 10713
  154.7343  135.3054  154.8837 H   0  0  0  0  0  0  0  0  0  0  0  0  # atno 10763 bound_to 10752
  153.9671  135.6746  153.4750 H   0  0  0  0  0  0  0  0  0  0  0  0  # atno 10764 bound_to 10752
  153.0948  135.4941  154.8680 H   0  0  0  0  0  0  0  0  0  0  0  0  # atno 10765 bound_to 10752
  141.0854  133.6644  156.3832 H   0  0  0  0  0  0  0  0  0  0  0  0  # atno 11005 bound_to 11000
  145.8296  140.9637  143.0856 LP  0  0  0  0  0  0  0  0  0  0  0  0  # atno 17320 bound_to 7965
  144.6779  140.0145  143.7484 LP  0  0  0  0  0  0  0  0  0  0  0  0  # atno 17321 bound_to 7965
  139.9759  144.6462  150.7946 LP  0  0  0  0  0  0  0  0  0  0  0  0  # atno 17342 bound_to 10162
  140.7549  143.3036  151.3018 LP  0  0  0  0  0  0  0  0  0  0  0  0  # atno 17343 bound_to 10162
  156.9204  130.9681  151.3549 LP  0  0  0  0  0  0  0  0  0  0  0  0  # atno 17370 bound_to 10713
  157.5961  130.8479  149.8732 LP  0  0  0  0  0  0  0  0  0  0  0  0  # atno 17371 bound_to 10713
  140.5375  134.6153  157.5369 LP  0  0  0  0  0  0  0  0  0  0  0  0  # atno 17394 bound_to 11000
  139.9672  134.7354  156.0115 LP  0  0  0  0  0  0  0  0  0  0  0  0  # atno 17395 bound_to 11000

$$$$
