AV-unprocessed.smi:72|AV-procd|sdf|675|dock2
  -GOLD-   2262016583D 1   1.00000     0.00000
 Structure written by MMmdl.
 29 30  0  0  0  0  0  0  0  0  1 V2000
  146.9093  133.1829  156.7888 N   0  0  0  0  0  0  0  0  0  0  0  0
  147.6208  134.2372  156.6034 C   0  0  0  0  0  0  0  0  0  0  0  0
  147.6140  135.0257  155.4427 N   0  0  0  0  0  0  0  0  0  0  0  0
  148.3856  136.0675  155.3939 C   0  0  0  0  0  0  0  0  0  0  0  0
  149.2538  136.4420  156.4992 N   0  0  0  0  0  0  0  0  0  0  0  0
  150.1479  137.6612  156.4107 C   0  0  2  0  0  0  0  0  0  0  0  0
  149.3512  138.7930  156.2270 O   0  0  0  0  0  0  0  0  0  0  0  0
  149.9914  139.6785  155.3145 C   0  0  2  0  0  0  0  0  0  0  0  0
  148.9855  140.6635  154.6923 C   0  0  0  0  0  0  0  0  0  0  0  0
  149.4562  141.1125  153.4393 O   0  0  0  0  0  0  0  0  0  0  0  0
  150.6820  138.7259  154.3280 C   0  0  2  0  0  0  0  0  0  0  0  0
  149.7733  138.2762  153.3362 O   0  0  0  0  0  0  0  0  0  0  0  0
  151.1545  137.5985  155.2417 C   0  0  2  0  0  0  0  0  0  0  0  0
  151.2617  136.3481  154.5815 O   0  0  0  0  0  0  0  0  0  0  0  0
  149.2824  135.6503  157.6734 C   0  0  0  0  0  0  0  0  0  0  0  0
  150.0145  135.9058  158.6291 O   0  0  0  0  0  0  0  0  0  0  0  0
  148.4544  134.5830  157.6760 N   0  0  0  0  0  0  0  0  0  0  0  0
  150.6421  137.7570  157.3787 H   0  0  0  0  0  0  0  0  0  0  0  0
  150.7667  140.2262  155.8544 H   0  0  0  0  0  0  0  0  0  0  0  0
  151.5184  139.2100  153.8230 H   0  0  0  0  0  0  0  0  0  0  0  0
  152.1330  137.8568  155.6487 H   0  0  0  0  0  0  0  0  0  0  0  0
  146.3360  132.9944  155.9795 H   0  0  0  0  0  0  0  0  0  0  0  0
  148.4352  136.7249  154.5249 H   0  0  0  0  0  0  0  0  0  0  0  0
  148.0307  140.1657  154.5208 H   0  0  0  0  0  0  0  0  0  0  0  0
  148.7975  141.5114  155.3520 H   0  0  0  0  0  0  0  0  0  0  0  0
  149.4117  140.3941  152.8269 H   0  0  0  0  0  0  0  0  0  0  0  0
  149.7696  138.9037  152.6295 H   0  0  0  0  0  0  0  0  0  0  0  0
  151.0769  136.4802  153.6641 H   0  0  0  0  0  0  0  0  0  0  0  0
  148.4493  134.0012  158.5008 H   0  0  0  0  0  0  0  0  0  0  0  0
  1  2  2  0  0  0  0
  1 22  1  0  0  0  0
  2 17  1  0  0  0  0
  2  3  1  0  0  0  0
  3  4  2  0  0  0  0
  4  5  1  0  0  0  0
  4 23  1  0  0  0  0
  5  6  1  0  0  0  0
  5 15  1  0  0  0  0
  6 18  1  0  0  0  0
  6 13  1  0  0  0  0
  6  7  1  0  0  0  0
  7  8  1  0  0  0  0
  8 19  1  0  0  0  0
  8  9  1  0  0  0  0
  8 11  1  0  0  0  0
  9 10  1  0  0  0  0
  9 24  1  0  0  0  0
  9 25  1  0  0  0  0
 10 26  1  0  0  0  0
 11 20  1  0  0  0  0
 11 12  1  0  0  0  0
 11 13  1  0  0  0  0
 12 27  1  0  0  0  0
 13 21  1  0  0  0  0
 13 14  1  0  0  0  0
 14 28  1  0  0  0  0
 15 16  2  0  0  0  0
 15 17  1  0  0  0  0
 17 29  1  0  0  0  0
M  END
> <s_m_source_file>
AV-unprocessed.smi

> <i_m_source_file_index>
72

> <i_lp_mmshare_version>
43012

> <i_f3d_flags>
0

> <s_epik_input>
W05IMl1jMW5bY0hdbihjKD1PKW4xKVtDQEBIXTJPW0NASF0oW0NIMl1bT0hdKVtDQEBIXShbT0hdKVtDQEhdMltPSF0=

> <s_epik_cmdline>
J2VwaWtfcHl0aG9uJywgJy1waCcsICc3LjAnLCAnLXRuJywgJzgnLCAnLW1hJywgJzIwMCcsICctbWV0YWxfYmluZGluZycsICctaW1hZScsICc8aW5maWxlLm1hZT4nLCAnLW9tYWUnLCAnPG91dGZpbGUubWFlPic=

> <r_lp_tautomer_probability>
7.17554e-07

> <r_epik_Ionization_Penalty>
0.0066451

> <r_epik_Ionization_Penalty_Charging>
0.00663793

> <r_epik_Ionization_Penalty_Neutral>
7.17052e-06

> <r_epik_State_Penalty>
0.419231

> <r_epik_Charging_Adjusted_Penalty>
0.425868

> <i_epik_Tot_Q>
0

> <i_epik_Tot_abs_Q>
0

> <r_epik_Metal_State_Penalty>
1.44144

> <b_epik_Metal_Only>
0

> <s_epik_Chemistry_Notes>
This compound contains an acetal/aminal-like group ( X-CH(R)-Y where X, Y are N, S, or O) that may be acid/base labile, releasing an aldehyde.

> <s_lp_Force_Field>
OPLS_2005

> <r_lp_Energy>
49.9877

> <b_lp_Chiralities_Consistent>
1

> <s_lp_Variant>
AV-unprocessed.smi:72-13

> <Gold.Version>
5.8.1

> <Gold.Id.Protein>
6NUR|6NUR_protein|mol2

> <Gold.PLP.Fitness>
40.1719

> <Gold.PLP.PLP>
-19.8517

> <Gold.PLP.part.hbond>
-8.3884

> <Gold.PLP.part.metal>
0.0000

> <Gold.PLP.part.buried>
-2.1296

> <Gold.PLP.part.nonpolar>
-9.3307

> <Gold.PLP.part.repulsive>
0.1244

> <Gold.PLP.ligand.clash>
0.0000

> <Gold.PLP.ligand.torsion>
0.2563

> <Gold.PLP.Chemscore.Hbond>
5.9421

> <Gold.PLP.Chemscore.CHOScore>
1.0000

> <Gold.PLP.Chemscore.Metal>
0.0000

> <Gold.Chemscore.Hbonds>
donor molecule, donor type, donor heavy atom, donor atom, acceptor molecule, acceptor atom, score
      L1  H    10    26       P1  7957  0.82
      L1  H    12    27       P1  7957  1.00
      L1  H    14    28       P1  7949  0.50
      P1  H  6896  6908       L1    16  1.00
      P1  H  7989  7998       L1    10  0.06
      P1  H  8011  8017       L1    10  0.95
      P1  H 10752 10763       L1    14  0.85
      L1  C     4    23       P1  7948  0.45

> <Gold.PLP.Chemscore.Internal.Correction>
0.0065

> <Gold.Rescore>
     Score         DG    S(hbond)    S(metal)    S(lipo)     H(rot)  DE(clash)    DE(int)     intcor
     11.22     -11.67       3.95        0.00      29.12       4.06       0.04       0.42       ----

> <Gold.Chemscore.Fitness>
11.2171

> <Gold.Chemscore.DG>
-11.6708

> <Gold.Chemscore.ZeroCoef>
-5.4800

> <Gold.Chemscore.Hbond>
3.9453

> <Gold.Chemscore.Metal>
0.0000

> <Gold.Chemscore.Lipo>
29.1215

> <Gold.Chemscore.Internal_Hbond>
0.0000

> <Gold.Chemscore.DEClash>
0.0354

> <Gold.Chemscore.DEInternal>
0.4184

> <Gold.Chemscore.Rot>
4.0600

> <Gold.Chemscore.Internal.Correction>
   9.000000E+99

> <Gold.Chemscore.Hbonds>
donor molecule, donor type, donor heavy atom, donor atom, acceptor molecule, acceptor atom, score
      L1  H    10    26       P1  7957  0.81
      L1  H    12    27       P1  7957  0.78
      L1  H    14    28       P1  7949  0.17
      P1  H  6896  6908       L1    16  0.97
      P1  H  8011  8017       L1    10  0.21
      P1  H 10752 10763       L1    14  0.14

> <Gold.Chemscore.Hbond.Weighted>
-13.1772

> <Gold.Chemscore.Metal.Weighted>
-0.0000

> <Gold.Chemscore.Lipo.Weighted>
-3.4072

> <Gold.Chemscore.Internal_Hbond.Weighted>
0.0000

> <Gold.Chemscore.DEClash.Weighted>
0.0354

> <Gold.Chemscore.DEInternal.Weighted>
0.4184

> <Gold.Chemscore.Rot.Weighted>
10.3936

> <Gold.Chemscore.Internal.Correction.Weighted>
   9.000000E+99

> <Gold.Protein.RotatedTorsions>
[ 6907 6896 6895 6894 ] final  177.62 input  -60.11 | X-H torsion
[ 7974 7965 7964 7962 ] final -146.37 input  175.53 | X-H torsion
[ 8008 7997 7996 7995 ] final -176.91 input   59.86 | X-H torsion
[ 10167 10162 10161 10158 ] final   47.65 input  -65.29 | X-H torsion
[ 10718 10713 10712 10709 ] final   70.70 input   66.30 | X-H torsion
[ 10763 10752 10751 10750 ] final   47.44 input  -60.55 | X-H torsion
[ 11005 11000 10999 10996 ] final  147.98 input  -57.11 | X-H torsion

> <Gold.Protein.ActiveResidues>
 VAL166  LYS551  ARG553  GLY616  TRP617  ASP618  TYR619  PRO620  LYS621  CYS622 
 ASP623  PHE694  ASN695  SER759  ASP760  ASP761  ALA762  ILE779  LEU786  VAL792 
 PHE793  MET794  SER795  GLU796  ALA797  LYS798  CYS799  TRP800  GLU811  SER814 

> <Gold.Protein.RotatedAtoms>
  151.7010  133.3311  159.3266 H   0  0  0  0  0  0  0  0  0  0  0  0  # atno 6907 bound_to 6896
  150.7736  134.6615  159.6352 H   0  0  0  0  0  0  0  0  0  0  0  0  # atno 6908 bound_to 6896
  152.3769  134.6652  160.0208 H   0  0  0  0  0  0  0  0  0  0  0  0  # atno 6909 bound_to 6896
  144.8164  140.5464  143.5608 H   0  0  0  0  0  0  0  0  0  0  0  0  # atno 7974 bound_to 7965
  156.0006  140.1220  157.0551 H   0  0  0  0  0  0  0  0  0  0  0  0  # atno 8008 bound_to 7997
  154.4241  140.1107  156.5760 H   0  0  0  0  0  0  0  0  0  0  0  0  # atno 8009 bound_to 7997
  155.6218  140.3472  155.4656 H   0  0  0  0  0  0  0  0  0  0  0  0  # atno 8010 bound_to 7997
  140.3014  144.2929  150.6218 H   0  0  0  0  0  0  0  0  0  0  0  0  # atno 10167 bound_to 10162
  157.6413  130.9490  150.0686 H   0  0  0  0  0  0  0  0  0  0  0  0  # atno 10718 bound_to 10713
  152.9800  135.5976  154.3763 H   0  0  0  0  0  0  0  0  0  0  0  0  # atno 10763 bound_to 10752
  154.3432  135.2767  155.2413 H   0  0  0  0  0  0  0  0  0  0  0  0  # atno 10764 bound_to 10752
  154.4486  135.5995  153.6231 H   0  0  0  0  0  0  0  0  0  0  0  0  # atno 10765 bound_to 10752
  140.0921  134.9034  157.1667 H   0  0  0  0  0  0  0  0  0  0  0  0  # atno 11005 bound_to 11000
  145.5205  139.1477  143.3555 LP  0  0  0  0  0  0  0  0  0  0  0  0  # atno 17320 bound_to 7965
  146.2467  140.5346  142.8911 LP  0  0  0  0  0  0  0  0  0  0  0  0  # atno 17321 bound_to 7965
  140.5647  143.2187  151.7703 LP  0  0  0  0  0  0  0  0  0  0  0  0  # atno 17342 bound_to 10162
  139.4914  144.4300  151.9883 LP  0  0  0  0  0  0  0  0  0  0  0  0  # atno 17343 bound_to 10162
  156.1697  130.3646  149.9182 LP  0  0  0  0  0  0  0  0  0  0  0  0  # atno 17370 bound_to 10713
  156.7160  130.8988  151.3614 LP  0  0  0  0  0  0  0  0  0  0  0  0  # atno 17371 bound_to 10713
  140.3337  134.2781  155.7223 LP  0  0  0  0  0  0  0  0  0  0  0  0  # atno 17394 bound_to 11000
  141.2081  133.7787  157.0079 LP  0  0  0  0  0  0  0  0  0  0  0  0  # atno 17395 bound_to 11000

$$$$
