AV-unprocessed.smi:1946|AV-procd|sdf|7861|dock7
  -GOLD-   2272010 13D 1   1.00000     0.00000
 Structure written by MMmdl.
 38 40  0  0  0  0  0  0  0  0  1 V2000
  148.1296  136.2389  161.1591 C   0  0  0  0  0  0  0  0  0  0  0  0
  147.9435  135.8073  159.3818 S   0  0  0  0  0  0  0  0  0  0  0  0
  148.7362  134.5959  159.1206 O   0  0  0  0  0  0  0  0  0  0  0  0
  146.5086  135.8226  159.0567 O   0  0  0  0  0  0  0  0  0  0  0  0
  148.7234  137.1752  158.5337 C   0  0  0  0  0  0  0  0  0  0  0  0
  148.0481  137.8250  157.4816 C   0  0  0  0  0  0  0  0  0  0  0  0
  148.6537  138.9218  156.8382 C   0  0  0  0  0  0  0  0  0  0  0  0
  149.9249  139.3793  157.2531 C   0  0  0  0  0  0  0  0  0  0  0  0
  150.5904  140.5571  156.5587 C   0  0  2  0  0  0  0  0  0  0  0  0
  150.8292  140.3075  155.1866 O   0  0  0  0  0  0  0  0  0  0  0  0
  151.9089  140.9452  157.2547 C   0  0  0  0  0  0  0  0  0  0  0  0
  151.7745  142.1433  158.0629 N   0  0  0  0  0  0  0  0  0  0  0  0
  151.2260  143.3181  157.6975 C   0  0  0  0  0  0  0  0  0  0  0  0
  151.2059  144.2896  158.6061 N   0  0  0  0  0  0  0  0  0  0  0  0
  151.8122  143.6732  159.6875 C   0  0  0  0  0  0  0  0  0  0  0  0
  152.0994  144.1638  160.9816 C   0  0  0  0  0  0  0  0  0  0  0  0
  152.7340  143.3388  161.9336 C   0  0  0  0  0  0  0  0  0  0  0  0
  153.0903  142.0137  161.6084 C   0  0  0  0  0  0  0  0  0  0  0  0
  152.8136  141.5022  160.3258 C   0  0  0  0  0  0  0  0  0  0  0  0
  152.1807  142.3290  159.3791 C   0  0  0  0  0  0  0  0  0  0  0  0
  150.5872  138.7268  158.3158 C   0  0  0  0  0  0  0  0  0  0  0  0
  149.9865  137.6288  158.9613 C   0  0  0  0  0  0  0  0  0  0  0  0
  147.6833  135.4553  161.7710 H   0  0  0  0  0  0  0  0  0  0  0  0
  147.6272  137.1852  161.3587 H   0  0  0  0  0  0  0  0  0  0  0  0
  149.1878  136.3305  161.4031 H   0  0  0  0  0  0  0  0  0  0  0  0
  147.0723  137.4881  157.1639 H   0  0  0  0  0  0  0  0  0  0  0  0
  148.1387  139.4114  156.0245 H   0  0  0  0  0  0  0  0  0  0  0  0
  149.9072  141.4064  156.6046 H   0  0  0  0  0  0  0  0  0  0  0  0
  150.7910  139.3746  155.0407 H   0  0  0  0  0  0  0  0  0  0  0  0
  152.2412  140.1361  157.9065 H   0  0  0  0  0  0  0  0  0  0  0  0
  152.7016  141.1011  156.5213 H   0  0  0  0  0  0  0  0  0  0  0  0
  150.8152  143.4675  156.7096 H   0  0  0  0  0  0  0  0  0  0  0  0
  151.8311  145.1769  161.2423 H   0  0  0  0  0  0  0  0  0  0  0  0
  152.9489  143.7254  162.9190 H   0  0  0  0  0  0  0  0  0  0  0  0
  153.5762  141.3901  162.3444 H   0  0  0  0  0  0  0  0  0  0  0  0
  153.0840  140.4879  160.0722 H   0  0  0  0  0  0  0  0  0  0  0  0
  151.5594  139.0672  158.6413 H   0  0  0  0  0  0  0  0  0  0  0  0
  150.4962  137.1409  159.7790 H   0  0  0  0  0  0  0  0  0  0  0  0
  1  2  1  0  0  0  0
  1 23  1  0  0  0  0
  1 24  1  0  0  0  0
  1 25  1  0  0  0  0
  2  3  2  0  0  0  0
  2  4  2  0  0  0  0
  2  5  1  0  0  0  0
  5 22  1  0  0  0  0
  5  6  2  0  0  0  0
  6  7  1  0  0  0  0
  6 26  1  0  0  0  0
  7  8  2  0  0  0  0
  7 27  1  0  0  0  0
  8  9  1  0  0  0  0
  8 21  1  0  0  0  0
  9 10  1  0  0  0  0
  9 11  1  0  0  0  0
  9 28  1  0  0  0  0
 10 29  1  0  0  0  0
 11 12  1  0  0  0  0
 11 30  1  0  0  0  0
 11 31  1  0  0  0  0
 12 20  1  0  0  0  0
 12 13  1  0  0  0  0
 13 14  2  0  0  0  0
 13 32  1  0  0  0  0
 14 15  1  0  0  0  0
 15 20  2  0  0  0  0
 15 16  1  0  0  0  0
 16 17  2  0  0  0  0
 16 33  1  0  0  0  0
 17 18  1  0  0  0  0
 17 34  1  0  0  0  0
 18 19  2  0  0  0  0
 18 35  1  0  0  0  0
 19 20  1  0  0  0  0
 19 36  1  0  0  0  0
 21 22  2  0  0  0  0
 21 37  1  0  0  0  0
 22 38  1  0  0  0  0
M  END
> <s_m_source_file>
AV-unprocessed.smi

> <i_m_source_file_index>
1946

> <i_lp_mmshare_version>
43012

> <i_f3d_flags>
0

> <s_epik_input>
W0NIM11TKD1PKSg9TyljMVtjSF1bY0hdYyhbY0hdW2NIXTEpW0NASF0oW09IXSlbQ0gyXW4oW2NIXW4yKWMoYzIzKVtjSF1bY0hdW2NIXVtjSF0z

> <s_epik_cmdline>
J2VwaWtfcHl0aG9uJywgJy1waCcsICc3LjAnLCAnLXRuJywgJzgnLCAnLW1hJywgJzIwMCcsICctbWV0YWxfYmluZGluZycsICctaW1hZScsICc8aW5maWxlLm1hZT4nLCAnLW9tYWUnLCAnPG91dGZpbGUubWFlPic=

> <r_epik_Ionization_Penalty>
0.0696512

> <r_epik_Ionization_Penalty_Charging>
0

> <r_epik_Ionization_Penalty_Neutral>
0.0696512

> <r_epik_State_Penalty>
0.0610247

> <r_epik_Charging_Adjusted_Penalty>
0.0610247

> <i_epik_Tot_Q>
0

> <i_epik_Tot_abs_Q>
0

> <r_epik_Metal_State_Penalty>
6.42746e-05

> <b_epik_Metal_Only>
0

> <s_lp_Force_Field>
OPLS_2005

> <r_lp_Energy>
7.3467

> <b_lp_Chiralities_Consistent>
1

> <s_lp_Variant>
AV-unprocessed.smi:1946-1

> <Gold.Version>
5.8.1

> <Gold.Id.Protein>
6NUR|6NUR_protein|mol2

> <Gold.PLP.Fitness>
47.9264

> <Gold.PLP.PLP>
-40.6919

> <Gold.PLP.part.hbond>
-2.0000

> <Gold.PLP.part.metal>
0.0000

> <Gold.PLP.part.buried>
-7.0679

> <Gold.PLP.part.nonpolar>
-31.7961

> <Gold.PLP.part.repulsive>
0.1202

> <Gold.PLP.ligand.clash>
0.0000

> <Gold.PLP.ligand.torsion>
1.9034

> <Gold.PLP.Chemscore.Hbond>
2.0000

> <Gold.PLP.Chemscore.CHOScore>
1.0000

> <Gold.PLP.Chemscore.Metal>
0.0000

> <Gold.Chemscore.Hbonds>
donor molecule, donor type, donor heavy atom, donor atom, acceptor molecule, acceptor atom, score
      P1  H  6896  6908       L1     3  1.00
      P1  H  7989  7998       L1    10  1.00
      L1  C    13    32       P1  8028  1.00

> <Gold.PLP.Chemscore.Internal.Correction>
2.0414

> <Gold.Rescore>
     Score         DG    S(hbond)    S(metal)    S(lipo)     H(rot)  DE(clash)    DE(int)     intcor
     16.71     -18.71       1.93        0.00     101.41       1.98       0.11       1.89       ----

> <Gold.Chemscore.Fitness>
16.7124

> <Gold.Chemscore.DG>
-18.7135

> <Gold.Chemscore.ZeroCoef>
-5.4800

> <Gold.Chemscore.Hbond>
1.9305

> <Gold.Chemscore.Metal>
0.0000

> <Gold.Chemscore.Lipo>
101.4068

> <Gold.Chemscore.Internal_Hbond>
0.0000

> <Gold.Chemscore.DEClash>
0.1087

> <Gold.Chemscore.DEInternal>
1.8924

> <Gold.Chemscore.Rot>
1.9840

> <Gold.Chemscore.Internal.Correction>
   9.000000E+99

> <Gold.Chemscore.Hbonds>
donor molecule, donor type, donor heavy atom, donor atom, acceptor molecule, acceptor atom, score
      P1  H  6896  6908       L1     3  0.98
      P1  H  7989  7998       L1    10  0.25

> <Gold.Chemscore.Hbond.Weighted>
-6.4480

> <Gold.Chemscore.Metal.Weighted>
-0.0000

> <Gold.Chemscore.Lipo.Weighted>
-11.8646

> <Gold.Chemscore.Internal_Hbond.Weighted>
0.0000

> <Gold.Chemscore.DEClash.Weighted>
0.1087

> <Gold.Chemscore.DEInternal.Weighted>
1.8924

> <Gold.Chemscore.Rot.Weighted>
5.0791

> <Gold.Chemscore.Internal.Correction.Weighted>
   9.000000E+99

> <Gold.Protein.RotatedTorsions>
[ 6907 6896 6895 6894 ] final  161.62 input  -60.11 | X-H torsion
[ 7974 7965 7964 7962 ] final  125.96 input  175.53 | X-H torsion
[ 8008 7997 7996 7995 ] final   32.14 input   59.86 | X-H torsion
[ 10167 10162 10161 10158 ] final -103.27 input  -65.29 | X-H torsion
[ 10718 10713 10712 10709 ] final -164.84 input   66.30 | X-H torsion
[ 10763 10752 10751 10750 ] final -114.93 input  -60.55 | X-H torsion
[ 11005 11000 10999 10996 ] final  144.72 input  -57.11 | X-H torsion

> <Gold.Protein.ActiveResidues>
 VAL166  LYS551  ARG553  GLY616  TRP617  ASP618  TYR619  PRO620  LYS621  CYS622 
 ASP623  PHE694  ASN695  SER759  ASP760  ASP761  ALA762  ILE779  LEU786  VAL792 
 PHE793  MET794  SER795  GLU796  ALA797  LYS798  CYS799  TRP800  GLU811  SER814 

> <Gold.Protein.RotatedAtoms>
  151.9528  133.3671  159.4006 H   0  0  0  0  0  0  0  0  0  0  0  0  # atno 6907 bound_to 6896
  150.6977  134.4322  159.5263 H   0  0  0  0  0  0  0  0  0  0  0  0  # atno 6908 bound_to 6896
  152.1998  134.8598  160.0560 H   0  0  0  0  0  0  0  0  0  0  0  0  # atno 6909 bound_to 6896
  145.0671  139.3759  143.4976 H   0  0  0  0  0  0  0  0  0  0  0  0  # atno 7974 bound_to 7965
  155.1176  140.3245  155.4505 H   0  0  0  0  0  0  0  0  0  0  0  0  # atno 8008 bound_to 7997
  156.2672  140.2033  156.6247 H   0  0  0  0  0  0  0  0  0  0  0  0  # atno 8009 bound_to 7997
  154.6708  140.0537  157.0150 H   0  0  0  0  0  0  0  0  0  0  0  0  # atno 8010 bound_to 7997
  140.2217  143.3671  152.0963 H   0  0  0  0  0  0  0  0  0  0  0  0  # atno 10167 bound_to 10162
  156.6449  130.8983  151.3003 H   0  0  0  0  0  0  0  0  0  0  0  0  # atno 10718 bound_to 10713
  154.8460  135.4400  154.1584 H   0  0  0  0  0  0  0  0  0  0  0  0  # atno 10763 bound_to 10752
  153.2727  135.6946  153.7471 H   0  0  0  0  0  0  0  0  0  0  0  0  # atno 10764 bound_to 10752
  153.6705  135.3419  155.3127 H   0  0  0  0  0  0  0  0  0  0  0  0  # atno 10765 bound_to 10752
  140.0655  134.9181  157.1257 H   0  0  0  0  0  0  0  0  0  0  0  0  # atno 11005 bound_to 11000
  146.3527  140.0398  142.8644 LP  0  0  0  0  0  0  0  0  0  0  0  0  # atno 17320 bound_to 7965
  145.1338  140.9533  143.4529 LP  0  0  0  0  0  0  0  0  0  0  0  0  # atno 17321 bound_to 7965
  139.5141  144.6943  151.5672 LP  0  0  0  0  0  0  0  0  0  0  0  0  # atno 17342 bound_to 10162
  140.6250  143.9186  150.6557 LP  0  0  0  0  0  0  0  0  0  0  0  0  # atno 17343 bound_to 10162
  157.7159  130.9497  150.1255 LP  0  0  0  0  0  0  0  0  0  0  0  0  # atno 17370 bound_to 10713
  156.2130  130.3668  149.8647 LP  0  0  0  0  0  0  0  0  0  0  0  0  # atno 17371 bound_to 10713
  140.3705  134.2395  155.7178 LP  0  0  0  0  0  0  0  0  0  0  0  0  # atno 17394 bound_to 11000
  141.1991  133.8020  157.0553 LP  0  0  0  0  0  0  0  0  0  0  0  0  # atno 17395 bound_to 11000

$$$$
