AV-unprocessed.smi:3288|AV-procd|sdf|12606|dock3
  -GOLD-   2272018533D 1   1.00000     0.00000
 Structure written by MMmdl.
 38 39  0  0  0  0  0  0  0  0  1 V2000
  145.5462  143.0185  155.4108 C   0  0  0  0  0  0  0  0  0  0  0  0
  146.6546  142.1403  155.2973 O   0  0  0  0  0  0  0  0  0  0  0  0
  147.4067  142.3107  154.1040 C   0  0  0  0  0  0  0  0  0  0  0  0
  148.6516  141.4122  154.0750 C   0  0  0  0  0  0  0  0  0  0  0  0
  149.4414  141.7013  155.2243 O   0  0  0  0  0  0  0  0  0  0  0  0
  150.4608  140.8336  155.5680 C   0  0  0  0  0  0  0  0  0  0  0  0
  150.7887  139.8461  154.6971 N   0  0  0  0  0  0  0  0  0  0  0  0
  151.7823  138.9978  155.0316 C   0  0  0  0  0  0  0  0  0  0  0  0
  152.4962  139.0870  156.2403 C   0  0  0  0  0  0  0  0  0  0  0  0
  152.1581  140.1116  157.1432 C   0  0  0  0  0  0  0  0  0  0  0  0
  151.1177  141.0111  156.8093 C   0  0  0  0  0  0  0  0  0  0  0  0
  150.7164  142.0672  157.6439 N   0  0  0  0  0  0  0  0  0  0  0  0
  151.6496  142.8150  158.4775 C   0  0  0  0  0  0  0  0  0  0  0  0
  152.2171  141.9549  159.6205 C   0  0  0  0  0  0  0  0  0  0  0  0
  153.1135  142.8034  160.5374 C   0  0  0  0  0  0  0  0  0  0  0  0
  152.3806  143.9136  161.0456 O   0  0  0  0  0  0  0  0  0  0  0  0
  151.9222  144.7930  160.0238 C   0  0  0  0  0  0  0  0  0  0  0  0
  150.9626  144.0478  159.0819 C   0  0  0  0  0  0  0  0  0  0  0  0
  145.0597  142.8641  156.3738 H   0  0  0  0  0  0  0  0  0  0  0  0
  144.8039  142.8376  154.6336 H   0  0  0  0  0  0  0  0  0  0  0  0
  145.8612  144.0616  155.3599 H   0  0  0  0  0  0  0  0  0  0  0  0
  146.7853  142.1538  153.2211 H   0  0  0  0  0  0  0  0  0  0  0  0
  147.7261  143.3528  154.0751 H   0  0  0  0  0  0  0  0  0  0  0  0
  148.3446  140.3651  154.0860 H   0  0  0  0  0  0  0  0  0  0  0  0
  149.2297  141.5884  153.1673 H   0  0  0  0  0  0  0  0  0  0  0  0
  152.0156  138.2249  154.3144 H   0  0  0  0  0  0  0  0  0  0  0  0
  153.2855  138.3866  156.4690 H   0  0  0  0  0  0  0  0  0  0  0  0
  152.7016  140.1877  158.0723 H   0  0  0  0  0  0  0  0  0  0  0  0
  149.7312  142.2758  157.7256 H   0  0  0  0  0  0  0  0  0  0  0  0
  152.4692  143.1727  157.8540 H   0  0  0  0  0  0  0  0  0  0  0  0
  151.4011  141.5309  160.2072 H   0  0  0  0  0  0  0  0  0  0  0  0
  152.7867  141.1126  159.2280 H   0  0  0  0  0  0  0  0  0  0  0  0
  153.4663  142.2025  161.3757 H   0  0  0  0  0  0  0  0  0  0  0  0
  153.9978  143.1525  160.0019 H   0  0  0  0  0  0  0  0  0  0  0  0
  151.4106  145.6360  160.4886 H   0  0  0  0  0  0  0  0  0  0  0  0
  152.7705  145.2006  159.4721 H   0  0  0  0  0  0  0  0  0  0  0  0
  150.6252  144.7179  158.2904 H   0  0  0  0  0  0  0  0  0  0  0  0
  150.0735  143.7466  159.6381 H   0  0  0  0  0  0  0  0  0  0  0  0
  1  2  1  0  0  0  0
  1 19  1  0  0  0  0
  1 20  1  0  0  0  0
  1 21  1  0  0  0  0
  2  3  1  0  0  0  0
  3  4  1  0  0  0  0
  3 22  1  0  0  0  0
  3 23  1  0  0  0  0
  4  5  1  0  0  0  0
  4 24  1  0  0  0  0
  4 25  1  0  0  0  0
  5  6  1  0  0  0  0
  6 11  1  0  0  0  0
  6  7  2  0  0  0  0
  7  8  1  0  0  0  0
  8  9  2  0  0  0  0
  8 26  1  0  0  0  0
  9 10  1  0  0  0  0
  9 27  1  0  0  0  0
 10 11  2  0  0  0  0
 10 28  1  0  0  0  0
 11 12  1  0  0  0  0
 12 13  1  0  0  0  0
 12 29  1  0  0  0  0
 13 18  1  0  0  0  0
 13 14  1  0  0  0  0
 13 30  1  0  0  0  0
 14 15  1  0  0  0  0
 14 31  1  0  0  0  0
 14 32  1  0  0  0  0
 15 16  1  0  0  0  0
 15 33  1  0  0  0  0
 15 34  1  0  0  0  0
 16 17  1  0  0  0  0
 17 18  1  0  0  0  0
 17 35  1  0  0  0  0
 17 36  1  0  0  0  0
 18 37  1  0  0  0  0
 18 38  1  0  0  0  0
M  END
> <s_m_source_file>
AV-unprocessed.smi

> <i_m_source_file_index>
3288

> <i_lp_mmshare_version>
43012

> <i_f3d_flags>
0

> <s_epik_input>
W0NIM11PW0NIMl1bQ0gyXU9jMW5bY0hdW2NIXVtjSF1jMVtOSF1bQ0hdMltDSDJdW0NIMl1PW0NIMl1bQ0gyXTI=

> <s_epik_cmdline>
J2VwaWtfcHl0aG9uJywgJy1waCcsICc3LjAnLCAnLXRuJywgJzgnLCAnLW1hJywgJzIwMCcsICctbWV0YWxfYmluZGluZycsICctaW1hZScsICc8aW5maWxlLm1hZT4nLCAnLW9tYWUnLCAnPG91dGZpbGUubWFlPic=

> <r_lp_tautomer_probability>
1

> <r_epik_Ionization_Penalty>
0.000236303

> <r_epik_Ionization_Penalty_Charging>
0

> <r_epik_Ionization_Penalty_Neutral>
0.000236303

> <r_epik_State_Penalty>
-0

> <r_epik_Charging_Adjusted_Penalty>
0

> <i_epik_Tot_Q>
0

> <i_epik_Tot_abs_Q>
0

> <r_epik_Metal_State_Penalty>
-0

> <b_epik_Metal_Only>
0

> <s_lp_Force_Field>
OPLS_2005

> <r_lp_Energy>
13.3054

> <b_lp_Chiralities_Consistent>
1

> <s_lp_Variant>
AV-unprocessed.smi:3288-1

> <Gold.Version>
5.8.1

> <Gold.Id.Protein>
6NUR|6NUR_protein|mol2

> <Gold.PLP.Fitness>
40.2356

> <Gold.PLP.PLP>
-38.2515

> <Gold.PLP.part.hbond>
-1.0000

> <Gold.PLP.part.metal>
0.0000

> <Gold.PLP.part.buried>
-3.5492

> <Gold.PLP.part.nonpolar>
-33.3204

> <Gold.PLP.part.repulsive>
0.6811

> <Gold.PLP.ligand.clash>
0.0000

> <Gold.PLP.ligand.torsion>
0.4560

> <Gold.PLP.Chemscore.Hbond>
0.9500

> <Gold.PLP.Chemscore.CHOScore>
0.0000

> <Gold.PLP.Chemscore.Metal>
0.0000

> <Gold.Chemscore.Hbonds>
donor molecule, donor type, donor heavy atom, donor atom, acceptor molecule, acceptor atom, score
      P1  H  7989  7998       L1     7  0.90

> <Gold.PLP.Chemscore.Internal.Correction>
0.0461

> <Gold.Rescore>
     Score         DG    S(hbond)    S(metal)    S(lipo)     H(rot)  DE(clash)    DE(int)     intcor
     12.36     -12.88       0.04        0.00      98.99       1.68       0.05       0.46       ----

> <Gold.Chemscore.Fitness>
12.3604

> <Gold.Chemscore.DG>
-12.8766

> <Gold.Chemscore.ZeroCoef>
-5.4800

> <Gold.Chemscore.Hbond>
0.0367

> <Gold.Chemscore.Metal>
0.0000

> <Gold.Chemscore.Lipo>
98.9872

> <Gold.Chemscore.Internal_Hbond>
0.0000

> <Gold.Chemscore.DEClash>
0.0514

> <Gold.Chemscore.DEInternal>
0.4649

> <Gold.Chemscore.Rot>
1.6826

> <Gold.Chemscore.Internal.Correction>
   9.000000E+99

> <Gold.Chemscore.Hbonds>
donor molecule, donor type, donor heavy atom, donor atom, acceptor molecule, acceptor atom, score
      P1  H  7989  7998       L1     7  0.05

> <Gold.Chemscore.Hbond.Weighted>
-0.1226

> <Gold.Chemscore.Metal.Weighted>
-0.0000

> <Gold.Chemscore.Lipo.Weighted>
-11.5815

> <Gold.Chemscore.Internal_Hbond.Weighted>
0.0000

> <Gold.Chemscore.DEClash.Weighted>
0.0514

> <Gold.Chemscore.DEInternal.Weighted>
0.4649

> <Gold.Chemscore.Rot.Weighted>
4.3074

> <Gold.Chemscore.Internal.Correction.Weighted>
   9.000000E+99

> <Gold.Protein.RotatedTorsions>
[ 6907 6896 6895 6894 ] final  139.21 input  -60.11 | X-H torsion
[ 7974 7965 7964 7962 ] final  -23.08 input  175.53 | X-H torsion
[ 8008 7997 7996 7995 ] final  -24.23 input   59.86 | X-H torsion
[ 10167 10162 10161 10158 ] final  -10.12 input  -65.29 | X-H torsion
[ 10718 10713 10712 10709 ] final  -50.17 input   66.30 | X-H torsion
[ 10763 10752 10751 10750 ] final  179.05 input  -60.55 | X-H torsion
[ 11005 11000 10999 10996 ] final  -41.69 input  -57.11 | X-H torsion

> <Gold.Protein.ActiveResidues>
 VAL166  LYS551  ARG553  GLY616  TRP617  ASP618  TYR619  PRO620  LYS621  CYS622 
 ASP623  PHE694  ASN695  SER759  ASP760  ASP761  ALA762  ILE779  LEU786  VAL792 
 PHE793  MET794  SER795  GLU796  ALA797  LYS798  CYS799  TRP800  GLU811  SER814 

> <Gold.Protein.RotatedAtoms>
  152.2576  133.5269  159.5361 H   0  0  0  0  0  0  0  0  0  0  0  0  # atno 6907 bound_to 6896
  150.7114  134.0875  159.3928 H   0  0  0  0  0  0  0  0  0  0  0  0  # atno 6908 bound_to 6896
  151.8793  135.0460  160.0538 H   0  0  0  0  0  0  0  0  0  0  0  0  # atno 6909 bound_to 6896
  146.1638  140.4566  142.8560 H   0  0  0  0  0  0  0  0  0  0  0  0  # atno 7974 bound_to 7965
  154.4540  140.1959  156.0433 H   0  0  0  0  0  0  0  0  0  0  0  0  # atno 8008 bound_to 7997
  156.0708  140.3284  155.7546 H   0  0  0  0  0  0  0  0  0  0  0  0  # atno 8009 bound_to 7997
  155.5266  140.0574  157.2887 H   0  0  0  0  0  0  0  0  0  0  0  0  # atno 8010 bound_to 7997
  140.7105  143.5783  150.9019 H   0  0  0  0  0  0  0  0  0  0  0  0  # atno 10167 bound_to 10162
  156.1825  130.4151  149.9486 H   0  0  0  0  0  0  0  0  0  0  0  0  # atno 10718 bound_to 10713
  154.5156  135.2791  155.1306 H   0  0  0  0  0  0  0  0  0  0  0  0  # atno 10763 bound_to 10752
  154.2883  135.6272  153.5378 H   0  0  0  0  0  0  0  0  0  0  0  0  # atno 10764 bound_to 10752
  152.9927  135.5668  154.5633 H   0  0  0  0  0  0  0  0  0  0  0  0  # atno 10765 bound_to 10752
  141.0264  133.6839  156.2492 H   0  0  0  0  0  0  0  0  0  0  0  0  # atno 11005 bound_to 11000
  144.8063  140.6306  143.6444 LP  0  0  0  0  0  0  0  0  0  0  0  0  # atno 17320 bound_to 7965
  145.4521  139.1522  143.3913 LP  0  0  0  0  0  0  0  0  0  0  0  0  # atno 17321 bound_to 7965
  139.9509  143.6274  152.3029 LP  0  0  0  0  0  0  0  0  0  0  0  0  # atno 17342 bound_to 10162
  139.6792  144.7656  151.1640 LP  0  0  0  0  0  0  0  0  0  0  0  0  # atno 17343 bound_to 10162
  156.7252  130.9022  151.3621 LP  0  0  0  0  0  0  0  0  0  0  0  0  # atno 17370 bound_to 10713
  157.6877  130.9202  150.0431 LP  0  0  0  0  0  0  0  0  0  0  0  0  # atno 17371 bound_to 10713
  140.6484  134.5092  157.5575 LP  0  0  0  0  0  0  0  0  0  0  0  0  # atno 17394 bound_to 11000
  139.9178  134.8210  156.1308 LP  0  0  0  0  0  0  0  0  0  0  0  0  # atno 17395 bound_to 11000

$$$$
