AV-unprocessed.smi:1136|AV-procd|sdf|4862|dock10
  -GOLD-   22720 3433D 1   1.00000     0.00000
 Structure written by MMmdl.
 42 43  0  0  0  0  0  0  0  0  1 V2000
  149.8359  134.2867  155.5010 C   0  0  0  0  0  0  0  0  0  0  0  0
  149.8905  135.7510  155.1792 C   0  0  0  0  0  0  0  0  0  0  0  0
  148.8136  136.6264  154.8646 C   0  0  0  0  0  0  0  0  0  0  0  0
  149.4119  137.8376  154.6586 C   0  0  0  0  0  0  0  0  0  0  0  0
  148.8151  139.1578  154.2958 C   0  0  0  0  0  0  0  0  0  0  0  0
  150.7702  137.6517  154.8482 N   0  0  0  0  0  0  0  0  0  0  0  0
  151.8548  138.6184  154.7442 C   0  0  0  0  0  0  0  0  0  0  0  0
  152.2919  139.1478  156.1137 C   0  0  0  0  0  0  0  0  0  0  0  0
  153.3381  138.7434  156.6200 O   0  0  0  0  0  0  0  0  0  0  0  0
  151.4936  140.0562  156.6977 N   0  0  0  0  0  0  0  0  0  0  0  0
  151.7337  140.6895  157.9921 C   0  0  0  0  0  0  0  0  0  0  0  0
  151.8476  142.2237  157.9123 C   0  0  0  0  0  0  0  0  0  0  0  0
  151.2729  142.8217  157.0004 O   0  0  0  0  0  0  0  0  0  0  0  0
  152.5688  142.8745  158.8578 N   0  0  0  0  0  0  0  0  0  0  0  0
  153.2336  142.2455  160.0078 C   0  0  0  0  0  0  0  0  0  0  0  0
  152.4644  142.6196  161.2878 C   0  0  0  0  0  0  0  0  0  0  0  0
  152.3661  144.1495  161.4422 C   0  0  0  0  0  0  0  0  0  0  0  0
  151.8539  144.8211  160.1532 C   0  0  0  0  0  0  0  0  0  0  0  0
  152.6491  144.3395  158.9252 C   0  0  0  0  0  0  0  0  0  0  0  0
  151.0589  136.3708  155.1678 N   0  0  0  0  0  0  0  0  0  0  0  0
  148.8061  133.9340  155.5603 H   0  0  0  0  0  0  0  0  0  0  0  0
  150.3132  134.0763  156.4585 H   0  0  0  0  0  0  0  0  0  0  0  0
  150.3451  133.6985  154.7374 H   0  0  0  0  0  0  0  0  0  0  0  0
  147.7600  136.3984  154.7995 H   0  0  0  0  0  0  0  0  0  0  0  0
  147.7375  139.0723  154.1554 H   0  0  0  0  0  0  0  0  0  0  0  0
  149.2426  139.5380  153.3679 H   0  0  0  0  0  0  0  0  0  0  0  0
  148.9946  139.8937  155.0796 H   0  0  0  0  0  0  0  0  0  0  0  0
  152.6979  138.1450  154.2396 H   0  0  0  0  0  0  0  0  0  0  0  0
  151.5404  139.4555  154.1187 H   0  0  0  0  0  0  0  0  0  0  0  0
  150.6580  140.3343  156.2033 H   0  0  0  0  0  0  0  0  0  0  0  0
  150.8968  140.4288  158.6402 H   0  0  0  0  0  0  0  0  0  0  0  0
  152.6347  140.2758  158.4480 H   0  0  0  0  0  0  0  0  0  0  0  0
  153.3196  141.1632  159.9297 H   0  0  0  0  0  0  0  0  0  0  0  0
  154.2596  142.6109  160.0708 H   0  0  0  0  0  0  0  0  0  0  0  0
  151.4624  142.1897  161.2490 H   0  0  0  0  0  0  0  0  0  0  0  0
  152.9543  142.1874  162.1606 H   0  0  0  0  0  0  0  0  0  0  0  0
  151.7202  144.4035  162.2829 H   0  0  0  0  0  0  0  0  0  0  0  0
  153.3534  144.5464  161.6813 H   0  0  0  0  0  0  0  0  0  0  0  0
  150.7973  144.5871  160.0149 H   0  0  0  0  0  0  0  0  0  0  0  0
  151.9217  145.9054  160.2443 H   0  0  0  0  0  0  0  0  0  0  0  0
  153.6937  144.6421  159.0109 H   0  0  0  0  0  0  0  0  0  0  0  0
  152.2730  144.8278  158.0253 H   0  0  0  0  0  0  0  0  0  0  0  0
  1  2  1  0  0  0  0
  1 21  1  0  0  0  0
  1 22  1  0  0  0  0
  1 23  1  0  0  0  0
  2 20  2  0  0  0  0
  2  3  1  0  0  0  0
  3  4  2  0  0  0  0
  3 24  1  0  0  0  0
  4  5  1  0  0  0  0
  4  6  1  0  0  0  0
  5 25  1  0  0  0  0
  5 26  1  0  0  0  0
  5 27  1  0  0  0  0
  6  7  1  0  0  0  0
  6 20  1  0  0  0  0
  7  8  1  0  0  0  0
  7 28  1  0  0  0  0
  7 29  1  0  0  0  0
  8  9  2  0  0  0  0
  8 10  1  0  0  0  0
 10 11  1  0  0  0  0
 10 30  1  0  0  0  0
 11 12  1  0  0  0  0
 11 31  1  0  0  0  0
 11 32  1  0  0  0  0
 12 13  2  0  0  0  0
 12 14  1  0  0  0  0
 14 19  1  0  0  0  0
 14 15  1  0  0  0  0
 15 16  1  0  0  0  0
 15 33  1  0  0  0  0
 15 34  1  0  0  0  0
 16 17  1  0  0  0  0
 16 35  1  0  0  0  0
 16 36  1  0  0  0  0
 17 18  1  0  0  0  0
 17 37  1  0  0  0  0
 17 38  1  0  0  0  0
 18 19  1  0  0  0  0
 18 39  1  0  0  0  0
 18 40  1  0  0  0  0
 19 41  1  0  0  0  0
 19 42  1  0  0  0  0
M  END
> <s_m_source_file>
AV-unprocessed.smi

> <i_m_source_file_index>
1136

> <i_lp_mmshare_version>
43012

> <i_f3d_flags>
0

> <s_epik_input>
W0NIM11jMVtjSF1jKFtDSDNdKW4objEpW0NIMl1DKD1PKVtOSF1bQ0gyXUMoPU8pTjJbQ0gyXVtDSDJdW0NIMl1bQ0gyXVtDSDJdMg==

> <s_epik_cmdline>
J2VwaWtfcHl0aG9uJywgJy1waCcsICc3LjAnLCAnLXRuJywgJzgnLCAnLW1hJywgJzIwMCcsICctbWV0YWxfYmluZGluZycsICctaW1hZScsICc8aW5maWxlLm1hZT4nLCAnLW9tYWUnLCAnPG91dGZpbGUubWFlPic=

> <r_lp_tautomer_probability>
1

> <r_epik_Ionization_Penalty>
0.000263643

> <r_epik_Ionization_Penalty_Charging>
0

> <r_epik_Ionization_Penalty_Neutral>
0.000263643

> <r_epik_State_Penalty>
-0

> <r_epik_Charging_Adjusted_Penalty>
0

> <i_epik_Tot_Q>
0

> <i_epik_Tot_abs_Q>
0

> <r_epik_Metal_State_Penalty>
-0

> <b_epik_Metal_Only>
0

> <s_lp_Force_Field>
OPLS_2005

> <r_lp_Energy>
19.7074

> <b_lp_Chiralities_Consistent>
1

> <s_lp_Variant>
AV-unprocessed.smi:1136-1

> <Gold.Version>
5.8.1

> <Gold.Id.Protein>
6NUR|6NUR_protein|mol2

> <Gold.PLP.Fitness>
48.5210

> <Gold.PLP.PLP>
-44.5021

> <Gold.PLP.part.hbond>
-1.6800

> <Gold.PLP.part.metal>
0.0000

> <Gold.PLP.part.buried>
-5.6005

> <Gold.PLP.part.nonpolar>
-38.3249

> <Gold.PLP.part.repulsive>
0.3486

> <Gold.PLP.ligand.clash>
0.0000

> <Gold.PLP.ligand.torsion>
0.8661

> <Gold.PLP.Chemscore.Hbond>
1.9100

> <Gold.PLP.Chemscore.CHOScore>
0.0000

> <Gold.PLP.Chemscore.Metal>
0.0000

> <Gold.Chemscore.Hbonds>
donor molecule, donor type, donor heavy atom, donor atom, acceptor molecule, acceptor atom, score
      P1  H  7997  8010       L1     9  1.00
      P1  H 10752 10763       L1    20  0.75

> <Gold.PLP.Chemscore.Internal.Correction>
0.0211

> <Gold.Rescore>
     Score         DG    S(hbond)    S(metal)    S(lipo)     H(rot)  DE(clash)    DE(int)     intcor
     17.98     -18.79       1.90        0.00      94.93       1.61       0.06       0.75       ----

> <Gold.Chemscore.Fitness>
17.9797

> <Gold.Chemscore.DG>
-18.7897

> <Gold.Chemscore.ZeroCoef>
-5.4800

> <Gold.Chemscore.Hbond>
1.8962

> <Gold.Chemscore.Metal>
0.0000

> <Gold.Chemscore.Lipo>
94.9287

> <Gold.Chemscore.Internal_Hbond>
0.0000

> <Gold.Chemscore.DEClash>
0.0576

> <Gold.Chemscore.DEInternal>
0.7524

> <Gold.Chemscore.Rot>
1.6134

> <Gold.Chemscore.Internal.Correction>
   9.000000E+99

> <Gold.Chemscore.Hbonds>
donor molecule, donor type, donor heavy atom, donor atom, acceptor molecule, acceptor atom, score
      P1  H  7997  8010       L1     9  0.38
      P1  H 10752 10763       L1    20  0.74

> <Gold.Chemscore.Hbond.Weighted>
-6.3334

> <Gold.Chemscore.Metal.Weighted>
-0.0000

> <Gold.Chemscore.Lipo.Weighted>
-11.1067

> <Gold.Chemscore.Internal_Hbond.Weighted>
0.0000

> <Gold.Chemscore.DEClash.Weighted>
0.0576

> <Gold.Chemscore.DEInternal.Weighted>
0.7524

> <Gold.Chemscore.Rot.Weighted>
4.1303

> <Gold.Chemscore.Internal.Correction.Weighted>
   9.000000E+99

> <Gold.Protein.RotatedTorsions>
[ 6907 6896 6895 6894 ] final   -4.62 input  -60.11 | X-H torsion
[ 7974 7965 7964 7962 ] final  149.69 input  175.53 | X-H torsion
[ 8008 7997 7996 7995 ] final   68.94 input   59.86 | X-H torsion
[ 10167 10162 10161 10158 ] final -117.40 input  -65.29 | X-H torsion
[ 10718 10713 10712 10709 ] final  -26.55 input   66.30 | X-H torsion
[ 10763 10752 10751 10750 ] final   72.03 input  -60.55 | X-H torsion
[ 11005 11000 10999 10996 ] final  -76.06 input  -57.11 | X-H torsion

> <Gold.Protein.ActiveResidues>
 VAL166  LYS551  ARG553  GLY616  TRP617  ASP618  TYR619  PRO620  LYS621  CYS622 
 ASP623  PHE694  ASN695  SER759  ASP760  ASP761  ALA762  ILE779  LEU786  VAL792 
 PHE793  MET794  SER795  GLU796  ALA797  LYS798  CYS799  TRP800  GLU811  SER814 

> <Gold.Protein.RotatedAtoms>
  151.4947  135.1059  159.9812 H   0  0  0  0  0  0  0  0  0  0  0  0  # atno 6907 bound_to 6896
  152.4727  133.8062  159.6989 H   0  0  0  0  0  0  0  0  0  0  0  0  # atno 6908 bound_to 6896
  150.8745  133.7396  159.2977 H   0  0  0  0  0  0  0  0  0  0  0  0  # atno 6909 bound_to 6896
  144.8419  139.6313  143.6013 H   0  0  0  0  0  0  0  0  0  0  0  0  # atno 7974 bound_to 7965
  155.7161  140.3494  155.4995 H   0  0  0  0  0  0  0  0  0  0  0  0  # atno 8008 bound_to 7997
  155.9312  140.1084  157.1152 H   0  0  0  0  0  0  0  0  0  0  0  0  # atno 8009 bound_to 7997
  154.4085  140.1231  156.4792 H   0  0  0  0  0  0  0  0  0  0  0  0  # atno 8010 bound_to 7997
  140.0687  143.4898  152.1992 H   0  0  0  0  0  0  0  0  0  0  0  0  # atno 10167 bound_to 10162
  156.4497  130.4481  149.6998 H   0  0  0  0  0  0  0  0  0  0  0  0  # atno 10718 bound_to 10713
  153.0434  135.5115  154.7682 H   0  0  0  0  0  0  0  0  0  0  0  0  # atno 10763 bound_to 10752
  154.6601  135.2937  154.9879 H   0  0  0  0  0  0  0  0  0  0  0  0  # atno 10764 bound_to 10752
  154.0733  135.6674  153.4880 H   0  0  0  0  0  0  0  0  0  0  0  0  # atno 10765 bound_to 10752
  141.1651  133.6969  156.7612 H   0  0  0  0  0  0  0  0  0  0  0  0  # atno 11005 bound_to 11000
  146.2710  139.6635  142.9296 LP  0  0  0  0  0  0  0  0  0  0  0  0  # atno 17320 bound_to 7965
  145.4676  141.0435  143.2716 LP  0  0  0  0  0  0  0  0  0  0  0  0  # atno 17321 bound_to 7965
  139.5849  144.7527  151.3545 LP  0  0  0  0  0  0  0  0  0  0  0  0  # atno 17342 bound_to 10162
  140.7136  143.7325  150.7613 LP  0  0  0  0  0  0  0  0  0  0  0  0  # atno 17343 bound_to 10162
  156.3829  130.7588  151.2582 LP  0  0  0  0  0  0  0  0  0  0  0  0  # atno 17370 bound_to 10713
  157.7503  131.0290  150.4075 LP  0  0  0  0  0  0  0  0  0  0  0  0  # atno 17371 bound_to 10713
  140.2532  134.8524  157.3688 LP  0  0  0  0  0  0  0  0  0  0  0  0  # atno 17394 bound_to 11000
  140.1682  134.4642  155.7849 LP  0  0  0  0  0  0  0  0  0  0  0  0  # atno 17395 bound_to 11000

$$$$
