AV-unprocessed.smi:498|AV-procd|sdf|2729|dock4
  -GOLD-   2262023173D 1   1.00000     0.00000
 Structure written by MMmdl.
 43 45  0  0  0  0  0  0  0  0  2 V2000
  152.7231  138.7546  155.0943 C   0  0  0  0  0  0  0  0  0  0  0  0
  151.2153  138.9948  154.9967 C   0  0  0  0  0  0  0  0  0  0  0  0
  150.9728  140.3914  154.9921 O   0  0  0  0  0  0  0  0  0  0  0  0
  149.5920  140.7075  154.9997 C   0  0  0  0  0  0  0  0  0  0  0  0
  149.2299  141.3063  156.3660 C   0  0  0  0  0  0  0  0  0  0  0  0
  150.1611  140.8730  157.4153 N   0  0  0  0  0  0  0  0  0  0  0  0
  150.3044  139.6608  158.0289 C   0  0  0  0  0  0  0  0  0  0  0  0
  149.5162  138.4145  157.7726 C   0  0  0  0  0  0  0  0  0  0  0  0
  148.8960  137.9008  158.9891 N   0  0  0  0  0  0  0  0  0  0  0  0
  148.8034  136.6061  159.3332 C   0  0  0  0  0  0  0  0  0  0  0  0
  149.3253  135.6926  158.6953 O   0  0  0  0  0  0  0  0  0  0  0  0
  147.9722  136.3173  160.5165 C   0  0  0  0  0  0  0  0  0  0  0  0
  147.5085  135.1357  161.0326 C   0  0  0  0  0  0  0  0  0  0  0  0
  146.7625  135.4659  162.1977 C   0  0  0  0  0  0  0  0  0  0  0  0
  146.8182  136.8254  162.3069 C   0  0  0  0  0  0  0  0  0  0  0  0
  147.5475  137.3586  161.2896 O   0  0  0  0  0  0  0  0  0  0  0  0
  151.3091  139.7912  158.9413 N   0  3  0  0  0  0  0  0  0  0  0  0
  151.8073  141.0948  158.9158 C   0  0  0  0  0  0  0  0  0  0  0  0
  152.8181  141.6998  159.6565 C   0  0  0  0  0  0  0  0  0  0  0  0
  153.0747  143.0598  159.3843 C   0  0  0  0  0  0  0  0  0  0  0  0
  152.3400  143.7650  158.4089 C   0  0  0  0  0  0  0  0  0  0  0  0
  151.3178  143.1407  157.6636 C   0  0  0  0  0  0  0  0  0  0  0  0
  151.0721  141.7959  157.9385 C   0  0  0  0  0  0  0  0  0  0  0  0
  152.9475  137.6879  155.1062 H   0  0  0  0  0  0  0  0  0  0  0  0
  153.1295  139.1914  156.0070 H   0  0  0  0  0  0  0  0  0  0  0  0
  153.2463  139.1981  154.2471 H   0  0  0  0  0  0  0  0  0  0  0  0
  150.8190  138.5421  154.0868 H   0  0  0  0  0  0  0  0  0  0  0  0
  150.7145  138.5255  155.8446 H   0  0  0  0  0  0  0  0  0  0  0  0
  149.3549  141.4081  154.1978 H   0  0  0  0  0  0  0  0  0  0  0  0
  149.0102  139.8022  154.8217 H   0  0  0  0  0  0  0  0  0  0  0  0
  149.2710  142.3945  156.3250 H   0  0  0  0  0  0  0  0  0  0  0  0
  148.2100  141.0514  156.6559 H   0  0  0  0  0  0  0  0  0  0  0  0
  148.7821  138.6184  156.9918 H   0  0  0  0  0  0  0  0  0  0  0  0
  150.1804  137.6452  157.3778 H   0  0  0  0  0  0  0  0  0  0  0  0
  148.4332  138.5751  159.5809 H   0  0  0  0  0  0  0  0  0  0  0  0
  147.6874  134.1511  160.6264 H   0  0  0  0  0  0  0  0  0  0  0  0
  146.2500  134.7941  162.8702 H   0  0  0  0  0  0  0  0  0  0  0  0
  146.4168  137.5397  163.0107 H   0  0  0  0  0  0  0  0  0  0  0  0
  153.3819  141.1623  160.4051 H   0  0  0  0  0  0  0  0  0  0  0  0
  153.8497  143.5727  159.9356 H   0  0  0  0  0  0  0  0  0  0  0  0
  152.5641  144.8065  158.2281 H   0  0  0  0  0  0  0  0  0  0  0  0
  150.7592  143.6894  156.9197 H   0  0  0  0  0  0  0  0  0  0  0  0
  151.6272  139.0403  159.5404 H   0  0  0  0  0  0  0  0  0  0  0  0
  1  2  1  0  0  0  0
  1 24  1  0  0  0  0
  1 25  1  0  0  0  0
  1 26  1  0  0  0  0
  2  3  1  0  0  0  0
  2 27  1  0  0  0  0
  2 28  1  0  0  0  0
  3  4  1  0  0  0  0
  4  5  1  0  0  0  0
  4 29  1  0  0  0  0
  4 30  1  0  0  0  0
  5  6  1  0  0  0  0
  5 31  1  0  0  0  0
  5 32  1  0  0  0  0
  6 23  1  0  0  0  0
  6  7  1  0  0  0  0
  7  8  1  0  0  0  0
  7 17  2  0  0  0  0
  8  9  1  0  0  0  0
  8 33  1  0  0  0  0
  8 34  1  0  0  0  0
  9 10  1  0  0  0  0
  9 35  1  0  0  0  0
 10 11  2  0  0  0  0
 10 12  1  0  0  0  0
 12 16  1  0  0  0  0
 12 13  2  0  0  0  0
 13 14  1  0  0  0  0
 13 36  1  0  0  0  0
 14 15  2  0  0  0  0
 14 37  1  0  0  0  0
 15 16  1  0  0  0  0
 15 38  1  0  0  0  0
 17 18  1  0  0  0  0
 17 43  1  0  0  0  0
 18 23  2  0  0  0  0
 18 19  1  0  0  0  0
 19 20  2  0  0  0  0
 19 39  1  0  0  0  0
 20 21  1  0  0  0  0
 20 40  1  0  0  0  0
 21 22  2  0  0  0  0
 21 41  1  0  0  0  0
 22 23  1  0  0  0  0
 22 42  1  0  0  0  0
M  CHG  1  17   1
M  END
> <s_m_source_file>
AV-unprocessed.smi

> <i_m_source_file_index>
498

> <i_lp_mmshare_version>
43012

> <i_f3d_flags>
0

> <s_epik_input>
W0NIM11bQ0gyXU9bQ0gyXVtDSDJdbihjKGMxMilbY0hdW2NIXVtjSF1bY0hdMiljKG4xKVtDSDJdW05IXUMoPU8pYzNbY0hdW2NIXVtjSF1vMw==

> <s_epik_cmdline>
J2VwaWtfcHl0aG9uJywgJy1waCcsICc3LjAnLCAnLXRuJywgJzgnLCAnLW1hJywgJzIwMCcsICctbWV0YWxfYmluZGluZycsICctaW1hZScsICc8aW5maWxlLm1hZT4nLCAnLW9tYWUnLCAnPG91dGZpbGUubWFlPic=

> <r_epik_Ionization_Penalty>
1.29911

> <r_epik_Ionization_Penalty_Charging>
1.29908

> <r_epik_Ionization_Penalty_Neutral>
2.77772e-05

> <r_epik_State_Penalty>
1.37286

> <r_epik_Charging_Adjusted_Penalty>
2.67194

> <i_epik_Tot_Q>
1

> <i_epik_Tot_abs_Q>
1

> <r_epik_Metal_State_Penalty>
1.47523

> <b_epik_Metal_Only>
0

> <s_lp_Force_Field>
OPLS_2005

> <r_lp_Energy>
10.1123

> <b_lp_Chiralities_Consistent>
1

> <s_lp_Variant>
AV-unprocessed.smi:498-2

> <Gold.Version>
5.8.1

> <Gold.Id.Protein>
6NUR|6NUR_protein|mol2

> <Gold.PLP.Fitness>
59.4654

> <Gold.PLP.PLP>
-49.9111

> <Gold.PLP.part.hbond>
-4.0000

> <Gold.PLP.part.metal>
0.0000

> <Gold.PLP.part.buried>
-6.0485

> <Gold.PLP.part.nonpolar>
-40.7771

> <Gold.PLP.part.repulsive>
0.4497

> <Gold.PLP.ligand.clash>
0.0000

> <Gold.PLP.ligand.torsion>
0.9236

> <Gold.PLP.Chemscore.Hbond>
3.7680

> <Gold.PLP.Chemscore.CHOScore>
0.0000

> <Gold.PLP.Chemscore.Metal>
0.0000

> <Gold.Chemscore.Hbonds>
donor molecule, donor type, donor heavy atom, donor atom, acceptor molecule, acceptor atom, score
      P1  H  6896  6909       L1    11  1.00
      P1  H  6931  6943       L1    16  0.85
      P1  H  6934  6947       L1    16  0.88
      P1  H  7989  7998       L1     3  1.00

> <Gold.PLP.Chemscore.Internal.Correction>
0.0976

> <Gold.Rescore>
     Score         DG    S(hbond)    S(metal)    S(lipo)     H(rot)  DE(clash)    DE(int)     intcor
     23.50     -24.53       3.04        0.00     120.68       2.04       0.06       0.98       ----

> <Gold.Chemscore.Fitness>
23.5003

> <Gold.Chemscore.DG>
-24.5345

> <Gold.Chemscore.ZeroCoef>
-5.4800

> <Gold.Chemscore.Hbond>
3.0436

> <Gold.Chemscore.Metal>
0.0000

> <Gold.Chemscore.Lipo>
120.6787

> <Gold.Chemscore.Internal_Hbond>
0.0000

> <Gold.Chemscore.DEClash>
0.0580

> <Gold.Chemscore.DEInternal>
0.9763

> <Gold.Chemscore.Rot>
2.0432

> <Gold.Chemscore.Internal.Correction>
   9.000000E+99

> <Gold.Chemscore.Hbonds>
donor molecule, donor type, donor heavy atom, donor atom, acceptor molecule, acceptor atom, score
      P1  H  6896  6909       L1    11  0.97
      P1  H  6931  6943       L1    16  0.48
      P1  H  6934  6947       L1    16  0.78
      P1  H  7989  7998       L1     3  0.27

> <Gold.Chemscore.Hbond.Weighted>
-10.1658

> <Gold.Chemscore.Metal.Weighted>
-0.0000

> <Gold.Chemscore.Lipo.Weighted>
-14.1194

> <Gold.Chemscore.Internal_Hbond.Weighted>
0.0000

> <Gold.Chemscore.DEClash.Weighted>
0.0580

> <Gold.Chemscore.DEInternal.Weighted>
0.9763

> <Gold.Chemscore.Rot.Weighted>
5.2306

> <Gold.Chemscore.Internal.Correction.Weighted>
   9.000000E+99

> <Gold.Protein.RotatedTorsions>
[ 6907 6896 6895 6894 ] final   44.72 input  -60.11 | X-H torsion
[ 7974 7965 7964 7962 ] final  -84.53 input  175.53 | X-H torsion
[ 8008 7997 7996 7995 ] final  176.67 input   59.86 | X-H torsion
[ 10167 10162 10161 10158 ] final -139.90 input  -65.29 | X-H torsion
[ 10718 10713 10712 10709 ] final   -8.81 input   66.30 | X-H torsion
[ 10763 10752 10751 10750 ] final -123.65 input  -60.55 | X-H torsion
[ 11005 11000 10999 10996 ] final  102.00 input  -57.11 | X-H torsion

> <Gold.Protein.ActiveResidues>
 VAL166  LYS551  ARG553  GLY616  TRP617  ASP618  TYR619  PRO620  LYS621  CYS622 
 ASP623  PHE694  ASN695  SER759  ASP760  ASP761  ALA762  ILE779  LEU786  VAL792 
 PHE793  MET794  SER795  GLU796  ALA797  LYS798  CYS799  TRP800  GLU811  SER814 

> <Gold.Protein.RotatedAtoms>
  152.2359  134.8276  160.0466 H   0  0  0  0  0  0  0  0  0  0  0  0  # atno 6907 bound_to 6896
  151.9009  133.3532  159.3838 H   0  0  0  0  0  0  0  0  0  0  0  0  # atno 6908 bound_to 6896
  150.7039  134.4755  159.5490 H   0  0  0  0  0  0  0  0  0  0  0  0  # atno 6909 bound_to 6896
  145.5054  140.9544  143.1737 H   0  0  0  0  0  0  0  0  0  0  0  0  # atno 7974 bound_to 7965
  156.0740  140.1378  156.9794 H   0  0  0  0  0  0  0  0  0  0  0  0  # atno 8008 bound_to 7997
  154.4547  140.0966  156.6773 H   0  0  0  0  0  0  0  0  0  0  0  0  # atno 8009 bound_to 7997
  155.5183  140.3455  155.4404 H   0  0  0  0  0  0  0  0  0  0  0  0  # atno 8010 bound_to 7997
  139.8334  143.7416  152.2665 H   0  0  0  0  0  0  0  0  0  0  0  0  # atno 10167 bound_to 10162
  156.6972  130.5082  149.5927 H   0  0  0  0  0  0  0  0  0  0  0  0  # atno 10718 bound_to 10713
  154.8711  135.4091  154.2977 H   0  0  0  0  0  0  0  0  0  0  0  0  # atno 10763 bound_to 10752
  153.3842  135.7012  153.6548 H   0  0  0  0  0  0  0  0  0  0  0  0  # atno 10764 bound_to 10752
  153.5358  135.3658  155.2667 H   0  0  0  0  0  0  0  0  0  0  0  0  # atno 10765 bound_to 10752
  139.8775  134.9206  156.4992 H   0  0  0  0  0  0  0  0  0  0  0  0  # atno 11005 bound_to 11000
  144.7757  139.6636  143.7176 LP  0  0  0  0  0  0  0  0  0  0  0  0  # atno 17320 bound_to 7965
  146.2200  139.5618  142.9625 LP  0  0  0  0  0  0  0  0  0  0  0  0  # atno 17321 bound_to 7965
  139.7631  144.7500  151.0334 LP  0  0  0  0  0  0  0  0  0  0  0  0  # atno 17342 bound_to 10162
  140.7804  143.4728  151.0122 LP  0  0  0  0  0  0  0  0  0  0  0  0  # atno 17343 bound_to 10162
  156.1755  130.6465  151.0889 LP  0  0  0  0  0  0  0  0  0  0  0  0  # atno 17370 bound_to 10713
  157.6987  131.0784  150.6889 LP  0  0  0  0  0  0  0  0  0  0  0  0  # atno 17371 bound_to 10713
  140.8602  133.8065  155.9257 LP  0  0  0  0  0  0  0  0  0  0  0  0  # atno 17394 bound_to 11000
  140.9057  134.2323  157.5016 LP  0  0  0  0  0  0  0  0  0  0  0  0  # atno 17395 bound_to 11000

$$$$
