AV-unprocessed.smi:2853|AV-procd|sdf|10974|dock7
  -GOLD-   2272015433D 1   1.00000     0.00000
 Structure written by MMmdl.
 43 44  0  0  0  0  0  0  0  0  1 V2000
  148.3032  129.0429  153.7397 C   0  0  0  0  0  0  0  0  0  0  0  0
  148.2100  130.5259  153.6295 C   0  0  0  0  0  0  0  0  0  0  0  0
  147.1995  131.1627  153.0400 N   0  0  0  0  0  0  0  0  0  0  0  0
  147.3444  132.5529  153.0692 C   0  0  0  0  0  0  0  0  0  0  0  0
  146.2806  133.4051  152.4335 C   0  0  0  0  0  0  0  0  0  0  0  0
  145.1725  132.5868  151.7383 C   0  0  0  0  0  0  0  0  0  0  0  0
  145.7060  131.7535  150.5601 C   0  0  0  0  0  0  0  0  0  0  0  0
  144.0252  133.4994  151.2812 C   0  0  0  0  0  0  0  0  0  0  0  0
  148.4964  132.9880  153.6882 C   0  0  0  0  0  0  0  0  0  0  0  0
  148.8479  134.2934  153.8316 N   0  0  0  0  0  0  0  0  0  0  0  0
  149.3840  134.9169  154.8946 C   0  0  0  0  0  0  0  0  0  0  0  0
  149.6643  134.3850  155.9683 O   0  0  0  0  0  0  0  0  0  0  0  0
  149.5930  136.2167  154.6254 N   0  0  0  0  0  0  0  0  0  0  0  0
  150.1788  137.2493  155.4911 C   0  0  2  0  0  0  0  0  0  0  0  0
  149.2757  137.3758  156.7319 C   0  0  0  0  0  0  0  0  0  0  0  0
  150.3210  138.6113  154.7892 C   0  0  0  0  0  0  0  0  0  0  0  0
  151.8258  138.8733  154.7745 C   0  0  0  0  0  0  0  0  0  0  0  0
  152.2952  138.1634  155.9073 O   0  0  0  0  0  0  0  0  0  0  0  0
  151.6258  136.9126  155.9120 C   0  0  0  0  0  0  0  0  0  0  0  0
  149.4272  131.6154  154.2681 S   0  0  0  0  0  0  0  0  0  0  0  0
  147.5052  128.5638  153.1714 H   0  0  0  0  0  0  0  0  0  0  0  0
  148.2196  128.7418  154.7840 H   0  0  0  0  0  0  0  0  0  0  0  0
  149.2624  128.7004  153.3514 H   0  0  0  0  0  0  0  0  0  0  0  0
  145.8278  134.0369  153.1989 H   0  0  0  0  0  0  0  0  0  0  0  0
  146.7246  134.0978  151.7178 H   0  0  0  0  0  0  0  0  0  0  0  0
  144.7569  131.8943  152.4716 H   0  0  0  0  0  0  0  0  0  0  0  0
  146.1738  132.3873  149.8061 H   0  0  0  0  0  0  0  0  0  0  0  0
  144.9016  131.1998  150.0756 H   0  0  0  0  0  0  0  0  0  0  0  0
  146.4463  131.0234  150.8878 H   0  0  0  0  0  0  0  0  0  0  0  0
  144.3678  134.2270  150.5452 H   0  0  0  0  0  0  0  0  0  0  0  0
  143.6004  134.0496  152.1214 H   0  0  0  0  0  0  0  0  0  0  0  0
  143.2190  132.9218  150.8281 H   0  0  0  0  0  0  0  0  0  0  0  0
  148.7135  134.8640  153.0100 H   0  0  0  0  0  0  0  0  0  0  0  0
  149.3216  136.5330  153.7062 H   0  0  0  0  0  0  0  0  0  0  0  0
  149.6667  138.1129  157.4344 H   0  0  0  0  0  0  0  0  0  0  0  0
  149.1979  136.4271  157.2642 H   0  0  0  0  0  0  0  0  0  0  0  0
  148.2658  137.6837  156.4581 H   0  0  0  0  0  0  0  0  0  0  0  0
  149.8946  138.6444  153.7859 H   0  0  0  0  0  0  0  0  0  0  0  0
  149.8274  139.3960  155.3638 H   0  0  0  0  0  0  0  0  0  0  0  0
  152.2861  138.4682  153.8720 H   0  0  0  0  0  0  0  0  0  0  0  0
  152.0685  139.9343  154.8354 H   0  0  0  0  0  0  0  0  0  0  0  0
  151.6878  136.4404  156.8929 H   0  0  0  0  0  0  0  0  0  0  0  0
  152.1291  136.2525  155.2048 H   0  0  0  0  0  0  0  0  0  0  0  0
  1  2  1  0  0  0  0
  1 21  1  0  0  0  0
  1 22  1  0  0  0  0
  1 23  1  0  0  0  0
  2 20  1  0  0  0  0
  2  3  2  0  0  0  0
  3  4  1  0  0  0  0
  4  5  1  0  0  0  0
  4  9  2  0  0  0  0
  5  6  1  0  0  0  0
  5 24  1  0  0  0  0
  5 25  1  0  0  0  0
  6  7  1  0  0  0  0
  6  8  1  0  0  0  0
  6 26  1  0  0  0  0
  7 27  1  0  0  0  0
  7 28  1  0  0  0  0
  7 29  1  0  0  0  0
  8 30  1  0  0  0  0
  8 31  1  0  0  0  0
  8 32  1  0  0  0  0
  9 10  1  0  0  0  0
  9 20  1  0  0  0  0
 10 11  1  0  0  0  0
 10 33  1  0  0  0  0
 11 12  2  0  0  0  0
 11 13  1  0  0  0  0
 13 14  1  0  0  0  0
 13 34  1  0  0  0  0
 14 19  1  0  0  0  0
 14 15  1  0  0  0  0
 14 16  1  0  0  0  0
 15 35  1  0  0  0  0
 15 36  1  0  0  0  0
 15 37  1  0  0  0  0
 16 17  1  0  0  0  0
 16 38  1  0  0  0  0
 16 39  1  0  0  0  0
 17 18  1  0  0  0  0
 17 40  1  0  0  0  0
 17 41  1  0  0  0  0
 18 19  1  0  0  0  0
 19 42  1  0  0  0  0
 19 43  1  0  0  0  0
M  END
> <s_m_source_file>
AV-unprocessed.smi

> <i_m_source_file_index>
2853

> <i_lp_mmshare_version>
43012

> <i_f3d_flags>
0

> <s_epik_input>
W0NIM11jMW5jKFtDSDJdW0NIXShbQ0gzXSlbQ0gzXSljKHMxKVtOSF1DKD1PKVtOSF1bQ0BAXTIoW0NIM10pW0NIMl1bQ0gyXU9bQ0gyXTI=

> <s_epik_cmdline>
J2VwaWtfcHl0aG9uJywgJy1waCcsICc3LjAnLCAnLXRuJywgJzgnLCAnLW1hJywgJzIwMCcsICctbWV0YWxfYmluZGluZycsICctaW1hZScsICc8aW5maWxlLm1hZT4nLCAnLW9tYWUnLCAnPG91dGZpbGUubWFlPic=

> <r_epik_Ionization_Penalty>
0.000723394

> <r_epik_Ionization_Penalty_Charging>
0

> <r_epik_Ionization_Penalty_Neutral>
0.000723394

> <r_epik_State_Penalty>
0.000446791

> <r_epik_Charging_Adjusted_Penalty>
0.000446791

> <i_epik_Tot_Q>
0

> <i_epik_Tot_abs_Q>
0

> <r_epik_Metal_State_Penalty>
-0

> <b_epik_Metal_Only>
0

> <s_lp_Force_Field>
OPLS_2005

> <r_lp_Energy>
15.0202

> <b_lp_Chiralities_Consistent>
1

> <s_lp_Variant>
AV-unprocessed.smi:2853-2

> <Gold.Version>
5.8.1

> <Gold.Id.Protein>
6NUR|6NUR_protein|mol2

> <Gold.PLP.Fitness>
37.2400

> <Gold.PLP.PLP>
-31.9585

> <Gold.PLP.part.hbond>
-2.0000

> <Gold.PLP.part.metal>
0.0000

> <Gold.PLP.part.buried>
-2.8211

> <Gold.PLP.part.nonpolar>
-26.8651

> <Gold.PLP.part.repulsive>
0.2294

> <Gold.PLP.ligand.clash>
0.0000

> <Gold.PLP.ligand.torsion>
0.3683

> <Gold.PLP.Chemscore.Hbond>
2.0000

> <Gold.PLP.Chemscore.CHOScore>
0.0000

> <Gold.PLP.Chemscore.Metal>
0.0000

> <Gold.Chemscore.Hbonds>
donor molecule, donor type, donor heavy atom, donor atom, acceptor molecule, acceptor atom, score
      L1  H    10    33       P1  7948  1.00
      L1  H    13    34       P1  7948  1.00

> <Gold.PLP.Chemscore.Internal.Correction>
0.0180

> <Gold.Rescore>
     Score         DG    S(hbond)    S(metal)    S(lipo)     H(rot)  DE(clash)    DE(int)     intcor
     14.66     -16.17       1.51        0.00      76.27       1.28       0.03       1.48       ----

> <Gold.Chemscore.Fitness>
14.6595

> <Gold.Chemscore.DG>
-16.1691

> <Gold.Chemscore.ZeroCoef>
-5.4800

> <Gold.Chemscore.Hbond>
1.5061

> <Gold.Chemscore.Metal>
0.0000

> <Gold.Chemscore.Lipo>
76.2673

> <Gold.Chemscore.Internal_Hbond>
0.0000

> <Gold.Chemscore.DEClash>
0.0316

> <Gold.Chemscore.DEInternal>
1.4780

> <Gold.Chemscore.Rot>
1.2753

> <Gold.Chemscore.Internal.Correction>
   9.000000E+99

> <Gold.Chemscore.Hbonds>
donor molecule, donor type, donor heavy atom, donor atom, acceptor molecule, acceptor atom, score
      L1  H    10    33       P1  7948  0.30
      L1  H    13    34       P1  7948  0.89

> <Gold.Chemscore.Hbond.Weighted>
-5.0305

> <Gold.Chemscore.Metal.Weighted>
-0.0000

> <Gold.Chemscore.Lipo.Weighted>
-8.9233

> <Gold.Chemscore.Internal_Hbond.Weighted>
0.0000

> <Gold.Chemscore.DEClash.Weighted>
0.0316

> <Gold.Chemscore.DEInternal.Weighted>
1.4780

> <Gold.Chemscore.Rot.Weighted>
3.2646

> <Gold.Chemscore.Internal.Correction.Weighted>
   9.000000E+99

> <Gold.Protein.RotatedTorsions>
[ 6907 6896 6895 6894 ] final  114.10 input  -60.11 | X-H torsion
[ 7974 7965 7964 7962 ] final   40.22 input  175.53 | X-H torsion
[ 8008 7997 7996 7995 ] final -109.78 input   59.86 | X-H torsion
[ 10167 10162 10161 10158 ] final   -4.24 input  -65.29 | X-H torsion
[ 10718 10713 10712 10709 ] final  -89.04 input   66.30 | X-H torsion
[ 10763 10752 10751 10750 ] final   62.99 input  -60.55 | X-H torsion
[ 11005 11000 10999 10996 ] final  179.50 input  -57.11 | X-H torsion

> <Gold.Protein.ActiveResidues>
 VAL166  LYS551  ARG553  GLY616  TRP617  ASP618  TYR619  PRO620  LYS621  CYS622 
 ASP623  PHE694  ASN695  SER759  ASP760  ASP761  ALA762  ILE779  LEU786  VAL792 
 PHE793  MET794  SER795  GLU796  ALA797  LYS798  CYS799  TRP800  GLU811  SER814 

> <Gold.Protein.RotatedAtoms>
  152.4822  133.8283  159.7089 H   0  0  0  0  0  0  0  0  0  0  0  0  # atno 6907 bound_to 6896
  150.8880  133.7271  159.2919 H   0  0  0  0  0  0  0  0  0  0  0  0  # atno 6908 bound_to 6896
  151.4753  135.1052  159.9815 H   0  0  0  0  0  0  0  0  0  0  0  0  # atno 6909 bound_to 6896
  146.0922  139.5559  142.9468 H   0  0  0  0  0  0  0  0  0  0  0  0  # atno 7974 bound_to 7965
  154.9645  140.0398  157.2206 H   0  0  0  0  0  0  0  0  0  0  0  0  # atno 8008 bound_to 7997
  154.7858  140.2827  155.6007 H   0  0  0  0  0  0  0  0  0  0  0  0  # atno 8009 bound_to 7997
  156.2943  140.2583  156.2694 H   0  0  0  0  0  0  0  0  0  0  0  0  # atno 8010 bound_to 7997
  140.6920  143.6446  150.8404 H   0  0  0  0  0  0  0  0  0  0  0  0  # atno 10167 bound_to 10162
  155.9984  130.4857  150.5110 H   0  0  0  0  0  0  0  0  0  0  0  0  # atno 10718 bound_to 10713
  153.0002  135.5445  154.6281 H   0  0  0  0  0  0  0  0  0  0  0  0  # atno 10763 bound_to 10752
  154.5565  135.2830  155.0962 H   0  0  0  0  0  0  0  0  0  0  0  0  # atno 10764 bound_to 10752
  154.2181  135.6455  153.5189 H   0  0  0  0  0  0  0  0  0  0  0  0  # atno 10765 bound_to 10752
  140.4069  134.6727  157.4593 H   0  0  0  0  0  0  0  0  0  0  0  0  # atno 11005 bound_to 11000
  145.6017  141.0354  143.2015 LP  0  0  0  0  0  0  0  0  0  0  0  0  # atno 17320 bound_to 7965
  144.7369  139.7561  143.7326 LP  0  0  0  0  0  0  0  0  0  0  0  0  # atno 17321 bound_to 7965
  140.0160  143.5592  152.2820 LP  0  0  0  0  0  0  0  0  0  0  0  0  # atno 17342 bound_to 10162
  139.6333  144.7647  151.2490 LP  0  0  0  0  0  0  0  0  0  0  0  0  # atno 17343 bound_to 10162
  157.3083  131.0659  151.2019 LP  0  0  0  0  0  0  0  0  0  0  0  0  # atno 17370 bound_to 10713
  157.2974  130.6826  149.6146 LP  0  0  0  0  0  0  0  0  0  0  0  0  # atno 17371 bound_to 10713
  140.0295  134.6426  155.9125 LP  0  0  0  0  0  0  0  0  0  0  0  0  # atno 17394 bound_to 11000
  141.1836  133.6551  156.5122 LP  0  0  0  0  0  0  0  0  0  0  0  0  # atno 17395 bound_to 11000

$$$$
