AV-unprocessed.smi:3058|AV-procd|sdf|11673|dock2
  -GOLD-   2272017 73D 1   1.00000     0.00000
 Structure written by MMmdl.
 39 41  0  0  0  0  0  0  0  0  2 V2000
  151.7699  140.6316  157.7215 O   0  0  0  0  0  0  0  0  0  0  0  0
  151.0787  141.6496  157.6785 C   0  0  0  0  0  0  0  0  0  0  0  0
  150.2947  141.9522  156.6319 N   0  0  0  0  0  0  0  0  0  0  0  0
  150.1472  141.1342  155.4338 C   0  0  0  0  0  0  0  0  0  0  0  0
  149.1594  141.7595  154.4338 C   0  0  0  0  0  0  0  0  0  0  0  0
  147.7156  141.5464  154.8448 C   0  0  0  0  0  0  0  0  0  0  0  0
  147.2694  141.9439  156.1247 C   0  0  0  0  0  0  0  0  0  0  0  0
  145.9210  141.7355  156.4826 C   0  0  0  0  0  0  0  0  0  0  0  0
  145.0494  141.1330  155.5526 C   0  0  0  0  0  0  0  0  0  0  0  0
  145.5121  140.7657  154.3374 N   0  3  0  0  0  0  0  0  0  0  0  0
  146.7955  140.9489  153.9562 C   0  0  0  0  0  0  0  0  0  0  0  0
  151.0747  142.6541  158.8447 C   0  0  2  0  0  0  0  0  0  0  0  0
  150.2801  143.9473  158.5360 C   0  0  0  0  0  0  0  0  0  0  0  0
  151.3073  145.0660  158.8006 C   0  0  1  0  0  0  0  0  0  0  0  0
  151.6012  145.1471  160.3109 C   0  0  0  0  0  0  0  0  0  0  0  0
  152.4393  143.8784  160.5621 C   0  0  0  0  0  0  0  0  0  0  0  0
  152.4805  143.2210  159.1693 C   0  0  2  0  0  0  0  0  0  0  0  0
  152.5922  144.4497  158.2666 C   0  0  0  0  0  0  0  0  0  0  0  0
  149.7557  142.8052  156.6743 H   0  0  0  0  0  0  0  0  0  0  0  0
  151.1231  140.9837  154.9685 H   0  0  0  0  0  0  0  0  0  0  0  0
  149.7934  140.1489  155.7386 H   0  0  0  0  0  0  0  0  0  0  0  0
  149.3528  142.8288  154.3376 H   0  0  0  0  0  0  0  0  0  0  0  0
  149.3007  141.3318  153.4403 H   0  0  0  0  0  0  0  0  0  0  0  0
  147.9520  142.4047  156.8243 H   0  0  0  0  0  0  0  0  0  0  0  0
  145.5613  142.0331  157.4568 H   0  0  0  0  0  0  0  0  0  0  0  0
  144.0045  140.9354  155.7424 H   0  0  0  0  0  0  0  0  0  0  0  0
  147.0442  140.6140  152.9594 H   0  0  0  0  0  0  0  0  0  0  0  0
  150.6601  142.1614  159.7261 H   0  0  0  0  0  0  0  0  0  0  0  0
  149.9380  143.9847  157.5004 H   0  0  0  0  0  0  0  0  0  0  0  0
  149.3991  144.0466  159.1710 H   0  0  0  0  0  0  0  0  0  0  0  0
  151.0355  146.0236  158.3557 H   0  0  0  0  0  0  0  0  0  0  0  0
  152.1793  146.0411  160.5480 H   0  0  0  0  0  0  0  0  0  0  0  0
  150.6891  145.1696  160.9086 H   0  0  0  0  0  0  0  0  0  0  0  0
  153.4439  144.1436  160.8941 H   0  0  0  0  0  0  0  0  0  0  0  0
  151.9991  143.2298  161.3203 H   0  0  0  0  0  0  0  0  0  0  0  0
  153.2907  142.4993  159.0560 H   0  0  0  0  0  0  0  0  0  0  0  0
  152.5551  144.2307  157.1995 H   0  0  0  0  0  0  0  0  0  0  0  0
  153.4774  145.0553  158.4690 H   0  0  0  0  0  0  0  0  0  0  0  0
  144.8643  140.3313  153.6795 H   0  0  0  0  0  0  0  0  0  0  0  0
  1  2  2  0  0  0  0
  2  3  1  0  0  0  0
  2 12  1  0  0  0  0
  3  4  1  0  0  0  0
  3 19  1  0  0  0  0
  4  5  1  0  0  0  0
  4 20  1  0  0  0  0
  4 21  1  0  0  0  0
  5  6  1  0  0  0  0
  5 22  1  0  0  0  0
  5 23  1  0  0  0  0
  6 11  1  0  0  0  0
  6  7  2  0  0  0  0
  7  8  1  0  0  0  0
  7 24  1  0  0  0  0
  8  9  2  0  0  0  0
  8 25  1  0  0  0  0
  9 10  1  0  0  0  0
  9 26  1  0  0  0  0
 10 11  2  0  0  0  0
 10 39  1  0  0  0  0
 11 27  1  0  0  0  0
 12 17  1  0  0  0  0
 12 13  1  0  0  0  0
 12 28  1  0  0  0  0
 13 14  1  0  0  0  0
 13 29  1  0  0  0  0
 13 30  1  0  0  0  0
 14 18  1  0  0  0  0
 14 15  1  0  0  0  0
 14 31  1  0  0  0  0
 15 16  1  0  0  0  0
 15 32  1  0  0  0  0
 15 33  1  0  0  0  0
 16 17  1  0  0  0  0
 16 34  1  0  0  0  0
 16 35  1  0  0  0  0
 17 18  1  0  0  0  0
 17 36  1  0  0  0  0
 18 37  1  0  0  0  0
 18 38  1  0  0  0  0
M  CHG  1  10   1
M  END
> <s_m_source_file>
AV-unprocessed.smi

> <i_m_source_file_index>
3058

> <i_lp_mmshare_version>
43012

> <i_f3d_flags>
0

> <s_epik_input>
W0NIMl0xW0NIMl1bQ0BIXShbQ0gyXTIpW0NAQEhdKFtDSDJdW0NAQEhdMTIpQyg9TylbTkhdW0NIMl1bQ0gyXWMzW2NIXVtjSF1bY0hdbltjSF0z

> <s_epik_cmdline>
J2VwaWtfcHl0aG9uJywgJy1waCcsICc3LjAnLCAnLXRuJywgJzgnLCAnLW1hJywgJzIwMCcsICctbWV0YWxfYmluZGluZycsICctaW1hZScsICc8aW5maWxlLm1hZT4nLCAnLW9tYWUnLCAnPG91dGZpbGUubWFlPic=

> <r_epik_Ionization_Penalty>
2.24375

> <r_epik_Ionization_Penalty_Charging>
2.24375

> <r_epik_Ionization_Penalty_Neutral>
1.89995e-08

> <r_epik_State_Penalty>
2.39035

> <r_epik_Charging_Adjusted_Penalty>
4.63411

> <i_epik_Tot_Q>
1

> <i_epik_Tot_abs_Q>
1

> <r_epik_Metal_State_Penalty>
2.40369

> <b_epik_Metal_Only>
0

> <s_lp_Force_Field>
OPLS_2005

> <r_lp_Energy>
53.6325

> <b_lp_Chiralities_Consistent>
1

> <s_lp_Variant>
AV-unprocessed.smi:3058-5

> <Gold.Version>
5.8.1

> <Gold.Id.Protein>
6NUR|6NUR_protein|mol2

> <Gold.PLP.Fitness>
45.8919

> <Gold.PLP.PLP>
-39.6805

> <Gold.PLP.part.hbond>
-1.1308

> <Gold.PLP.part.metal>
0.0000

> <Gold.PLP.part.buried>
-2.7005

> <Gold.PLP.part.nonpolar>
-35.6183

> <Gold.PLP.part.repulsive>
0.0476

> <Gold.PLP.ligand.clash>
0.0000

> <Gold.PLP.ligand.torsion>
0.1548

> <Gold.PLP.Chemscore.Hbond>
2.1625

> <Gold.PLP.Chemscore.CHOScore>
0.0000

> <Gold.PLP.Chemscore.Metal>
0.0000

> <Gold.Chemscore.Hbonds>
donor molecule, donor type, donor heavy atom, donor atom, acceptor molecule, acceptor atom, score
      L1  H     3    19       P1  8028  0.24
      L1  H    10    39       P1 10175  1.98

> <Gold.PLP.Chemscore.Internal.Correction>
0.0334

> <Gold.Rescore>
     Score         DG    S(hbond)    S(metal)    S(lipo)     H(rot)  DE(clash)    DE(int)     intcor
     19.24     -19.65       1.36        0.00     114.06       1.45       0.27       0.14       ----

> <Gold.Chemscore.Fitness>
19.2442

> <Gold.Chemscore.DG>
-19.6460

> <Gold.Chemscore.ZeroCoef>
-5.4800

> <Gold.Chemscore.Hbond>
1.3608

> <Gold.Chemscore.Metal>
0.0000

> <Gold.Chemscore.Lipo>
114.0601

> <Gold.Chemscore.Internal_Hbond>
0.0000

> <Gold.Chemscore.DEClash>
0.2658

> <Gold.Chemscore.DEInternal>
0.1361

> <Gold.Chemscore.Rot>
1.4548

> <Gold.Chemscore.Internal.Correction>
   9.000000E+99

> <Gold.Chemscore.Hbonds>
donor molecule, donor type, donor heavy atom, donor atom, acceptor molecule, acceptor atom, score
      L1  H     3    19       P1  8028  0.24
      L1  H    10    39       P1 10175  0.93

> <Gold.Chemscore.Hbond.Weighted>
-4.5452

> <Gold.Chemscore.Metal.Weighted>
-0.0000

> <Gold.Chemscore.Lipo.Weighted>
-13.3450

> <Gold.Chemscore.Internal_Hbond.Weighted>
0.0000

> <Gold.Chemscore.DEClash.Weighted>
0.2658

> <Gold.Chemscore.DEInternal.Weighted>
0.1361

> <Gold.Chemscore.Rot.Weighted>
3.7242

> <Gold.Chemscore.Internal.Correction.Weighted>
   9.000000E+99

> <Gold.Protein.RotatedTorsions>
[ 6907 6896 6895 6894 ] final  138.84 input  -60.11 | X-H torsion
[ 7974 7965 7964 7962 ] final  109.94 input  175.53 | X-H torsion
[ 8008 7997 7996 7995 ] final   47.23 input   59.86 | X-H torsion
[ 10167 10162 10161 10158 ] final    6.37 input  -65.29 | X-H torsion
[ 10718 10713 10712 10709 ] final -150.01 input   66.30 | X-H torsion
[ 10763 10752 10751 10750 ] final  -54.84 input  -60.55 | X-H torsion
[ 11005 11000 10999 10996 ] final   96.79 input  -57.11 | X-H torsion

> <Gold.Protein.ActiveResidues>
 VAL166  LYS551  ARG553  GLY616  TRP617  ASP618  TYR619  PRO620  LYS621  CYS622 
 ASP623  PHE694  ASN695  SER759  ASP760  ASP761  ALA762  ILE779  LEU786  VAL792 
 PHE793  MET794  SER795  GLU796  ALA797  LYS798  CYS799  TRP800  GLU811  SER814 

> <Gold.Protein.RotatedAtoms>
  152.2619  133.5305  159.5386 H   0  0  0  0  0  0  0  0  0  0  0  0  # atno 6907 bound_to 6896
  150.7128  134.0818  159.3909 H   0  0  0  0  0  0  0  0  0  0  0  0  # atno 6908 bound_to 6896
  151.8735  135.0480  160.0532 H   0  0  0  0  0  0  0  0  0  0  0  0  # atno 6909 bound_to 6896
  145.2614  139.2701  143.4015 H   0  0  0  0  0  0  0  0  0  0  0  0  # atno 7974 bound_to 7965
  155.3656  140.3421  155.4242 H   0  0  0  0  0  0  0  0  0  0  0  0  # atno 8008 bound_to 7997
  156.1690  140.1625  156.8515 H   0  0  0  0  0  0  0  0  0  0  0  0  # atno 8009 bound_to 7997
  154.5214  140.0766  156.8161 H   0  0  0  0  0  0  0  0  0  0  0  0  # atno 8010 bound_to 7997
  140.6431  143.7726  150.7458 H   0  0  0  0  0  0  0  0  0  0  0  0  # atno 10167 bound_to 10162
  156.4405  130.8119  151.2349 H   0  0  0  0  0  0  0  0  0  0  0  0  # atno 10718 bound_to 10713
  154.1813  135.6443  153.5035 H   0  0  0  0  0  0  0  0  0  0  0  0  # atno 10763 bound_to 10752
  153.0058  135.5406  154.6511 H   0  0  0  0  0  0  0  0  0  0  0  0  # atno 10764 bound_to 10752
  154.5876  135.2931  155.0641 H   0  0  0  0  0  0  0  0  0  0  0  0  # atno 10765 bound_to 10752
  139.8779  134.8968  156.4211 H   0  0  0  0  0  0  0  0  0  0  0  0  # atno 11005 bound_to 11000
  146.3274  140.3031  142.8622 LP  0  0  0  0  0  0  0  0  0  0  0  0  # atno 17320 bound_to 7965
  144.9415  140.8083  143.5627 LP  0  0  0  0  0  0  0  0  0  0  0  0  # atno 17321 bound_to 7965
  140.1362  143.4482  152.2223 LP  0  0  0  0  0  0  0  0  0  0  0  0  # atno 17342 bound_to 10162
  139.5641  144.7424  151.4072 LP  0  0  0  0  0  0  0  0  0  0  0  0  # atno 17343 bound_to 10162
  157.7506  131.0170  150.3566 LP  0  0  0  0  0  0  0  0  0  0  0  0  # atno 17370 bound_to 10713
  156.3922  130.3900  149.7021 LP  0  0  0  0  0  0  0  0  0  0  0  0  # atno 17371 bound_to 10713
  140.9133  133.7696  155.9818 LP  0  0  0  0  0  0  0  0  0  0  0  0  # atno 17394 bound_to 11000
  140.8522  134.2940  157.5270 LP  0  0  0  0  0  0  0  0  0  0  0  0  # atno 17395 bound_to 11000

$$$$
