AV-unprocessed.smi:1385|AV-procd|sdf|5634|dock4
  -GOLD-   22720 5253D 1   1.00000     0.00000
 Structure written by MMmdl.
 38 39  0  0  0  0  0  0  0  0  3 V2000
  153.9113  142.0339  161.0874 C   0  0  0  0  0  0  0  0  0  0  0  0
  153.0220  142.5073  159.9888 C   0  0  0  0  0  0  0  0  0  0  0  0
  153.0301  143.7702  159.5449 N   0  0  0  0  0  0  0  0  0  0  0  0
  152.1224  143.9715  158.5146 N   0  0  0  0  0  0  0  0  0  0  0  0
  151.4562  142.8494  158.2090 C   0  0  0  0  0  0  0  0  0  0  0  0
  150.4718  142.7689  157.1885 N   0  0  0  0  0  0  0  0  0  0  0  0
  149.8698  141.6715  156.6967 C   0  0  0  0  0  0  0  0  0  0  0  0
  150.0972  140.5145  157.0510 O   0  0  0  0  0  0  0  0  0  0  0  0
  148.9722  141.9911  155.7530 N   0  0  0  0  0  0  0  0  0  0  0  0
  148.1386  141.0346  155.0303 C   0  0  2  0  0  0  0  0  0  0  0  0
  148.9680  139.8258  154.5601 C   0  0  0  0  0  0  0  0  0  0  0  0
  148.1174  138.8647  153.7133 C   0  0  0  0  0  0  0  0  0  0  0  0
  147.5065  139.5666  152.5521 N   0  3  1  0  0  0  0  0  0  0  0  0
  146.7790  138.6546  151.6346 C   0  0  0  0  0  0  0  0  0  0  0  0
  145.8869  137.7014  152.4365 C   0  0  0  0  0  0  0  0  0  0  0  0
  144.5825  138.0253  152.3547 N   0  5  0  0  0  0  0  0  0  0  0  0
  146.3982  136.7790  153.0681 O   0  0  0  0  0  0  0  0  0  0  0  0
  146.6714  140.7155  152.9856 C   0  0  0  0  0  0  0  0  0  0  0  0
  147.4924  141.7175  153.8144 C   0  0  0  0  0  0  0  0  0  0  0  0
  151.8848  141.4437  159.1693 S   0  0  0  0  0  0  0  0  0  0  0  0
  154.1611  142.8569  161.7578 H   0  0  0  0  0  0  0  0  0  0  0  0
  154.8333  141.6285  160.6704 H   0  0  0  0  0  0  0  0  0  0  0  0
  153.4146  141.2538  161.6646 H   0  0  0  0  0  0  0  0  0  0  0  0
  150.1838  143.6532  156.7968 H   0  0  0  0  0  0  0  0  0  0  0  0
  148.8501  142.9666  155.5237 H   0  0  0  0  0  0  0  0  0  0  0  0
  147.3416  140.6856  155.6900 H   0  0  0  0  0  0  0  0  0  0  0  0
  149.8228  140.1657  153.9734 H   0  0  0  0  0  0  0  0  0  0  0  0
  149.3762  139.2906  155.4182 H   0  0  0  0  0  0  0  0  0  0  0  0
  148.7472  138.0437  153.3700 H   0  0  0  0  0  0  0  0  0  0  0  0
  147.3311  138.4218  154.3266 H   0  0  0  0  0  0  0  0  0  0  0  0
  146.2249  139.2255  150.8860 H   0  0  0  0  0  0  0  0  0  0  0  0
  147.4881  138.0332  151.0859 H   0  0  0  0  0  0  0  0  0  0  0  0
  144.2135  138.3613  151.4569 H   0  0  0  0  0  0  0  0  0  0  0  0
  146.2640  141.2251  152.1116 H   0  0  0  0  0  0  0  0  0  0  0  0
  145.8219  140.3509  153.5654 H   0  0  0  0  0  0  0  0  0  0  0  0
  146.8509  142.5365  154.1419 H   0  0  0  0  0  0  0  0  0  0  0  0
  148.2639  142.1613  153.1830 H   0  0  0  0  0  0  0  0  0  0  0  0
  148.2652  139.9533  152.0088 H   0  0  0  0  0  0  0  0  0  0  0  0
  1  2  1  0  0  0  0
  1 21  1  0  0  0  0
  1 22  1  0  0  0  0
  1 23  1  0  0  0  0
  2 20  1  0  0  0  0
  2  3  2  0  0  0  0
  3  4  1  0  0  0  0
  4  5  2  0  0  0  0
  5  6  1  0  0  0  0
  5 20  1  0  0  0  0
  6  7  1  0  0  0  0
  6 24  1  0  0  0  0
  7  8  2  0  0  0  0
  7  9  1  0  0  0  0
  9 10  1  0  0  0  0
  9 25  1  0  0  0  0
 10 19  1  0  0  0  0
 10 11  1  0  0  0  0
 10 26  1  0  0  0  0
 11 12  1  0  0  0  0
 11 27  1  0  0  0  0
 11 28  1  0  0  0  0
 12 13  1  0  0  0  0
 12 29  1  0  0  0  0
 12 30  1  0  0  0  0
 13 14  1  0  0  0  0
 13 18  1  0  0  0  0
 13 38  1  0  0  0  0
 14 15  1  0  0  0  0
 14 31  1  0  0  0  0
 14 32  1  0  0  0  0
 15 16  1  0  0  0  0
 15 17  2  0  0  0  0
 16 33  1  0  0  0  0
 18 19  1  0  0  0  0
 18 34  1  0  0  0  0
 18 35  1  0  0  0  0
 19 36  1  0  0  0  0
 19 37  1  0  0  0  0
M  CHG  1  13   1
M  CHG  1  16  -1
M  END
> <s_m_source_file>
AV-unprocessed.smi

> <i_m_source_file_index>
1385

> <i_lp_mmshare_version>
43012

> <i_f3d_flags>
0

> <s_epik_input>
W0NIM11jMW5uYyhzMSlbTkhdQyg9TylbTkhdW0NIXTJbQ0gyXVtDSDJdTihbQ0gyXVtDSDJdMilbQ0gyXUMoPU8pW05IMl0=

> <s_epik_cmdline>
J2VwaWtfcHl0aG9uJywgJy1waCcsICc3LjAnLCAnLXRuJywgJzgnLCAnLW1hJywgJzIwMCcsICctbWV0YWxfYmluZGluZycsICctaW1hZScsICc8aW5maWxlLm1hZT4nLCAnLW9tYWUnLCAnPG91dGZpbGUubWFlPic=

> <r_lp_tautomer_probability>
1

> <r_epik_Ionization_Penalty>
5.73549

> <r_epik_Ionization_Penalty_Charging>
5.73152

> <r_epik_Ionization_Penalty_Neutral>
0.00396448

> <r_epik_State_Penalty>
6.57436

> <r_epik_Charging_Adjusted_Penalty>
12.3059

> <i_epik_Tot_Q>
0

> <i_epik_Tot_abs_Q>
2

> <r_epik_Metal_State_Penalty>
2.87628

> <b_epik_Metal_Only>
1

> <s_lp_Force_Field>
OPLS_2005

> <r_lp_Energy>
6.06006

> <b_lp_Chiralities_Consistent>
1

> <s_lp_Variant>
AV-unprocessed.smi:1385-7

> <Gold.Version>
5.8.1

> <Gold.Id.Protein>
6NUR|6NUR_protein|mol2

> <Gold.PLP.Fitness>
47.0703

> <Gold.PLP.PLP>
-36.1401

> <Gold.PLP.part.hbond>
-4.7784

> <Gold.PLP.part.metal>
0.0000

> <Gold.PLP.part.buried>
-5.1068

> <Gold.PLP.part.nonpolar>
-28.3215

> <Gold.PLP.part.repulsive>
1.2163

> <Gold.PLP.ligand.clash>
0.0000

> <Gold.PLP.ligand.torsion>
0.5126

> <Gold.PLP.Chemscore.Hbond>
3.9760

> <Gold.PLP.Chemscore.CHOScore>
0.0000

> <Gold.PLP.Chemscore.Metal>
0.0000

> <Gold.Chemscore.Hbonds>
donor molecule, donor type, donor heavy atom, donor atom, acceptor molecule, acceptor atom, score
      L1  H     6    24       P1  8028  1.00
      L1  H     9    25       P1  8028  1.00
      L1  H    13    38       P1  7957  1.00
      L1  H    16    33       P1 10171  1.00

> <Gold.PLP.Chemscore.Internal.Correction>
0.0273

> <Gold.Rescore>
     Score         DG    S(hbond)    S(metal)    S(lipo)     H(rot)  DE(clash)    DE(int)     intcor
     17.31     -21.77       3.84        0.00      74.14       2.04       0.13       4.33       ----

> <Gold.Chemscore.Fitness>
17.3126

> <Gold.Chemscore.DG>
-21.7728

> <Gold.Chemscore.ZeroCoef>
-5.4800

> <Gold.Chemscore.Hbond>
3.8423

> <Gold.Chemscore.Metal>
0.0000

> <Gold.Chemscore.Lipo>
74.1360

> <Gold.Chemscore.Internal_Hbond>
0.0000

> <Gold.Chemscore.DEClash>
0.1325

> <Gold.Chemscore.DEInternal>
4.3278

> <Gold.Chemscore.Rot>
2.0369

> <Gold.Chemscore.Internal.Correction>
   9.000000E+99

> <Gold.Chemscore.Hbonds>
donor molecule, donor type, donor heavy atom, donor atom, acceptor molecule, acceptor atom, score
      L1  H     6    24       P1  8028  0.89
      L1  H     9    25       P1  8028  1.00
      L1  H    13    38       P1  7957  0.96
      L1  H    16    33       P1 10171  1.00

> <Gold.Chemscore.Hbond.Weighted>
-12.8333

> <Gold.Chemscore.Metal.Weighted>
-0.0000

> <Gold.Chemscore.Lipo.Weighted>
-8.6739

> <Gold.Chemscore.Internal_Hbond.Weighted>
0.0000

> <Gold.Chemscore.DEClash.Weighted>
0.1325

> <Gold.Chemscore.DEInternal.Weighted>
4.3278

> <Gold.Chemscore.Rot.Weighted>
5.2144

> <Gold.Chemscore.Internal.Correction.Weighted>
   9.000000E+99

> <Gold.Protein.RotatedTorsions>
[ 6907 6896 6895 6894 ] final  122.45 input  -60.11 | X-H torsion
[ 7974 7965 7964 7962 ] final   79.15 input  175.53 | X-H torsion
[ 8008 7997 7996 7995 ] final  -93.89 input   59.86 | X-H torsion
[ 10167 10162 10161 10158 ] final  -54.21 input  -65.29 | X-H torsion
[ 10718 10713 10712 10709 ] final -170.08 input   66.30 | X-H torsion
[ 10763 10752 10751 10750 ] final  169.92 input  -60.55 | X-H torsion
[ 11005 11000 10999 10996 ] final -169.61 input  -57.11 | X-H torsion

> <Gold.Protein.ActiveResidues>
 VAL166  LYS551  ARG553  GLY616  TRP617  ASP618  TYR619  PRO620  LYS621  CYS622 
 ASP623  PHE694  ASN695  SER759  ASP760  ASP761  ALA762  ILE779  LEU786  VAL792 
 PHE793  MET794  SER795  GLU796  ALA797  LYS798  CYS799  TRP800  GLU811  SER814 

> <Gold.Protein.RotatedAtoms>
  152.4242  133.7167  159.6509 H   0  0  0  0  0  0  0  0  0  0  0  0  # atno 6907 bound_to 6896
  150.8118  133.8397  159.3184 H   0  0  0  0  0  0  0  0  0  0  0  0  # atno 6908 bound_to 6896
  151.6105  135.1042  160.0131 H   0  0  0  0  0  0  0  0  0  0  0  0  # atno 6909 bound_to 6896
  145.6680  139.2489  143.1885 H   0  0  0  0  0  0  0  0  0  0  0  0  # atno 7974 bound_to 7965
  154.7414  140.0494  157.0814 H   0  0  0  0  0  0  0  0  0  0  0  0  # atno 8008 bound_to 7997
  155.0174  140.3143  155.4787 H   0  0  0  0  0  0  0  0  0  0  0  0  # atno 8009 bound_to 7997
  156.2865  140.2173  156.5290 H   0  0  0  0  0  0  0  0  0  0  0  0  # atno 8010 bound_to 7997
  140.6443  143.2526  151.4903 H   0  0  0  0  0  0  0  0  0  0  0  0  # atno 10167 bound_to 10162
  156.7209  130.9269  151.3097 H   0  0  0  0  0  0  0  0  0  0  0  0  # atno 10718 bound_to 10713
  154.3901  135.2754  155.2159 H   0  0  0  0  0  0  0  0  0  0  0  0  # atno 10763 bound_to 10752
  154.4229  135.5995  153.6024 H   0  0  0  0  0  0  0  0  0  0  0  0  # atno 10764 bound_to 10752
  152.9832  135.5977  154.4155 H   0  0  0  0  0  0  0  0  0  0  0  0  # atno 10765 bound_to 10752
  140.5288  134.5636  157.5069 H   0  0  0  0  0  0  0  0  0  0  0  0  # atno 11005 bound_to 11000
  146.1070  140.7475  142.9522 LP  0  0  0  0  0  0  0  0  0  0  0  0  # atno 17320 bound_to 7965
  144.7066  140.3877  143.7113 LP  0  0  0  0  0  0  0  0  0  0  0  0  # atno 17321 bound_to 7965
  139.5653  144.2058  152.1755 LP  0  0  0  0  0  0  0  0  0  0  0  0  # atno 17342 bound_to 10162
  140.1338  144.5264  150.6786 LP  0  0  0  0  0  0  0  0  0  0  0  0  # atno 17343 bound_to 10162
  157.6898  130.9222  150.0484 LP  0  0  0  0  0  0  0  0  0  0  0  0  # atno 17370 bound_to 10713
  156.1595  130.3643  149.9320 LP  0  0  0  0  0  0  0  0  0  0  0  0  # atno 17371 bound_to 10713
  139.9565  134.7525  156.0330 LP  0  0  0  0  0  0  0  0  0  0  0  0  # atno 17394 bound_to 11000
  141.1293  133.6591  156.3421 LP  0  0  0  0  0  0  0  0  0  0  0  0  # atno 17395 bound_to 11000

$$$$
