AV-unprocessed.smi:3234|AV-procd|sdf|12357|dock9
  -GOLD-   2272018213D 1   1.00000     0.00000
 Structure written by MMmdl.
 37 39  0  0  0  0  0  0  0  0  4 V2000
  152.4533  139.9395  156.2967 O   0  0  0  0  0  0  0  0  0  0  0  0
  151.5081  140.6066  155.8605 C   0  0  0  0  0  0  0  0  0  0  0  0
  151.1649  141.7662  156.4497 N   0  0  0  0  0  0  0  0  0  0  0  0
  151.7084  142.3768  157.6124 C   0  0  0  0  0  0  0  0  0  0  0  0
  151.7298  143.7881  157.6619 C   0  0  0  0  0  0  0  0  0  0  0  0
  152.2412  144.4360  158.8046 C   0  0  0  0  0  0  0  0  0  0  0  0
  152.6941  143.7050  159.8461 N   0  3  0  0  0  0  0  0  0  0  0  0
  152.6766  142.3547  159.8524 C   0  0  0  0  0  0  0  0  0  0  0  0
  152.1765  141.6519  158.7376 C   0  0  0  0  0  0  0  0  0  0  0  0
  150.7289  140.3288  154.7801 N   0  5  0  0  0  0  0  0  0  0  0  0
  150.4988  138.9867  154.2417 C   0  0  1  0  0  0  0  0  0  0  0  0
  151.7397  138.1026  154.3761 C   0  0  0  0  0  0  0  0  0  0  0  0
  151.1835  136.6721  154.4453 C   0  0  0  0  0  0  0  0  0  0  0  0
  149.7332  136.7920  154.7248 N   0  3  1  0  0  0  0  0  0  0  0  0
  149.2186  135.8290  155.7219 C   0  0  0  0  0  0  0  0  0  0  0  0
  150.2772  135.3215  156.6715 C   0  0  0  0  0  0  0  0  0  0  0  0
  149.7718  134.4341  155.5543 C   0  0  0  0  0  0  0  0  0  0  0  0
  149.4612  138.2054  155.0492 C   0  0  0  0  0  0  0  0  0  0  0  0
  150.4567  142.3004  155.9679 H   0  0  0  0  0  0  0  0  0  0  0  0
  151.3629  144.3713  156.8293 H   0  0  0  0  0  0  0  0  0  0  0  0
  152.2978  145.5088  158.9173 H   0  0  0  0  0  0  0  0  0  0  0  0
  153.0534  141.8791  160.7461 H   0  0  0  0  0  0  0  0  0  0  0  0
  152.1478  140.5734  158.7701 H   0  0  0  0  0  0  0  0  0  0  0  0
  150.1942  139.0011  153.1937 H   0  0  0  0  0  0  0  0  0  0  0  0
  152.4414  138.2398  153.5525 H   0  0  0  0  0  0  0  0  0  0  0  0
  152.2711  138.3249  155.3034 H   0  0  0  0  0  0  0  0  0  0  0  0
  151.3196  136.1431  153.5008 H   0  0  0  0  0  0  0  0  0  0  0  0
  151.6996  136.0997  155.2180 H   0  0  0  0  0  0  0  0  0  0  0  0
  148.1953  135.9803  156.0612 H   0  0  0  0  0  0  0  0  0  0  0  0
  151.2857  135.7213  156.5792 H   0  0  0  0  0  0  0  0  0  0  0  0
  149.9661  135.0738  157.6844 H   0  0  0  0  0  0  0  0  0  0  0  0
  149.1264  133.6026  155.8302 H   0  0  0  0  0  0  0  0  0  0  0  0
  150.4435  134.2437  154.7189 H   0  0  0  0  0  0  0  0  0  0  0  0
  149.6053  138.3678  156.1196 H   0  0  0  0  0  0  0  0  0  0  0  0
  148.4370  138.4831  154.7984 H   0  0  0  0  0  0  0  0  0  0  0  0
  149.2619  136.6114  153.8500 H   0  0  0  0  0  0  0  0  0  0  0  0
  153.0585  144.1928  160.6647 H   0  0  0  0  0  0  0  0  0  0  0  0
  1  2  2  0  0  0  0
  2  3  1  0  0  0  0
  2 10  1  0  0  0  0
  3  4  1  0  0  0  0
  3 19  1  0  0  0  0
  4  9  1  0  0  0  0
  4  5  2  0  0  0  0
  5  6  1  0  0  0  0
  5 20  1  0  0  0  0
  6  7  2  0  0  0  0
  6 21  1  0  0  0  0
  7  8  1  0  0  0  0
  7 37  1  0  0  0  0
  8  9  2  0  0  0  0
  8 22  1  0  0  0  0
  9 23  1  0  0  0  0
 10 11  1  0  0  0  0
 11 18  1  0  0  0  0
 11 12  1  0  0  0  0
 11 24  1  0  0  0  0
 12 13  1  0  0  0  0
 12 25  1  0  0  0  0
 12 26  1  0  0  0  0
 13 14  1  0  0  0  0
 13 27  1  0  0  0  0
 13 28  1  0  0  0  0
 14 15  1  0  0  0  0
 14 18  1  0  0  0  0
 14 36  1  0  0  0  0
 15 17  1  0  0  0  0
 15 16  1  0  0  0  0
 15 29  1  0  0  0  0
 16 17  1  0  0  0  0
 16 30  1  0  0  0  0
 16 31  1  0  0  0  0
 17 32  1  0  0  0  0
 17 33  1  0  0  0  0
 18 34  1  0  0  0  0
 18 35  1  0  0  0  0
M  CHG  1   7   1
M  CHG  1  10  -1
M  CHG  1  14   1
M  END
> <s_m_source_file>
AV-unprocessed.smi

> <i_m_source_file_index>
3234

> <i_lp_mmshare_version>
43012

> <i_f3d_flags>
0

> <s_epik_input>
W2NIXTFbY0hdbltjSF1bY0hdYzFbTkhdQyg9TylbTkhdW0NAQEhdMltDSDJdW0NIMl1OKFtDSDJdMilbQ0hdM1tDSDJdW0NIMl0z

> <s_epik_cmdline>
J2VwaWtfcHl0aG9uJywgJy1waCcsICc3LjAnLCAnLXRuJywgJzgnLCAnLW1hJywgJzIwMCcsICctbWV0YWxfYmluZGluZycsICctaW1hZScsICc8aW5maWxlLm1hZT4nLCAnLW9tYWUnLCAnPG91dGZpbGUubWFlPic=

> <r_epik_Ionization_Penalty>
8.3234

> <r_epik_Ionization_Penalty_Charging>
8.3234

> <r_epik_Ionization_Penalty_Neutral>
3.58513e-06

> <r_epik_State_Penalty>
7.99376

> <r_epik_Charging_Adjusted_Penalty>
16.3172

> <i_epik_Tot_Q>
1

> <i_epik_Tot_abs_Q>
3

> <r_epik_Metal_State_Penalty>
3.98956

> <b_epik_Metal_Only>
1

> <s_lp_Force_Field>
OPLS_2005

> <r_lp_Energy>
39.5194

> <b_lp_Chiralities_Consistent>
1

> <s_lp_Variant>
AV-unprocessed.smi:3234-10

> <Gold.Version>
5.8.1

> <Gold.Id.Protein>
6NUR|6NUR_protein|mol2

> <Gold.PLP.Fitness>
44.4661

> <Gold.PLP.PLP>
-34.4234

> <Gold.PLP.part.hbond>
-3.0000

> <Gold.PLP.part.metal>
0.0000

> <Gold.PLP.part.buried>
-2.2578

> <Gold.PLP.part.nonpolar>
-28.7046

> <Gold.PLP.part.repulsive>
0.2391

> <Gold.PLP.ligand.clash>
0.0000

> <Gold.PLP.ligand.torsion>
1.3185

> <Gold.PLP.Chemscore.Hbond>
3.8000

> <Gold.PLP.Chemscore.CHOScore>
0.0000

> <Gold.PLP.Chemscore.Metal>
0.0000

> <Gold.Chemscore.Hbonds>
donor molecule, donor type, donor heavy atom, donor atom, acceptor molecule, acceptor atom, score
      L1  H    14    36       P1  7948  2.00
      P1  H  7989  7998       L1    10  0.80
      P1  H  7997  8008       L1     1  1.00

> <Gold.PLP.Chemscore.Internal.Correction>
1.2796

> <Gold.Rescore>
     Score         DG    S(hbond)    S(metal)    S(lipo)     H(rot)  DE(clash)    DE(int)     intcor
     15.90     -19.72       1.95        0.00      92.65       1.21       0.00       3.82       ----

> <Gold.Chemscore.Fitness>
15.9007

> <Gold.Chemscore.DG>
-19.7248

> <Gold.Chemscore.ZeroCoef>
-5.4800

> <Gold.Chemscore.Hbond>
1.9475

> <Gold.Chemscore.Metal>
0.0000

> <Gold.Chemscore.Lipo>
92.6462

> <Gold.Chemscore.Internal_Hbond>
0.0000

> <Gold.Chemscore.DEClash>
0.0047

> <Gold.Chemscore.DEInternal>
3.8195

> <Gold.Chemscore.Rot>
1.2108

> <Gold.Chemscore.Internal.Correction>
   9.000000E+99

> <Gold.Chemscore.Hbonds>
donor molecule, donor type, donor heavy atom, donor atom, acceptor molecule, acceptor atom, score
      L1  H    14    36       P1  7948  0.89
      P1  H  7989  7998       L1    10  0.05
      P1  H  7997  8008       L1     1  0.95

> <Gold.Chemscore.Hbond.Weighted>
-6.5048

> <Gold.Chemscore.Metal.Weighted>
-0.0000

> <Gold.Chemscore.Lipo.Weighted>
-10.8396

> <Gold.Chemscore.Internal_Hbond.Weighted>
0.0000

> <Gold.Chemscore.DEClash.Weighted>
0.0047

> <Gold.Chemscore.DEInternal.Weighted>
3.8195

> <Gold.Chemscore.Rot.Weighted>
3.0996

> <Gold.Chemscore.Internal.Correction.Weighted>
   9.000000E+99

> <Gold.Protein.RotatedTorsions>
[ 6907 6896 6895 6894 ] final   86.22 input  -60.11 | X-H torsion
[ 7974 7965 7964 7962 ] final -136.92 input  175.53 | X-H torsion
[ 8008 7997 7996 7995 ] final  -59.32 input   59.86 | X-H torsion
[ 10167 10162 10161 10158 ] final  144.25 input  -65.29 | X-H torsion
[ 10718 10713 10712 10709 ] final -163.59 input   66.30 | X-H torsion
[ 10763 10752 10751 10750 ] final   40.37 input  -60.55 | X-H torsion
[ 11005 11000 10999 10996 ] final   66.76 input  -57.11 | X-H torsion

> <Gold.Protein.ActiveResidues>
 VAL166  LYS551  ARG553  GLY616  TRP617  ASP618  TYR619  PRO620  LYS621  CYS622 
 ASP623  PHE694  ASN695  SER759  ASP760  ASP761  ALA762  ILE779  LEU786  VAL792 
 PHE793  MET794  SER795  GLU796  ALA797  LYS798  CYS799  TRP800  GLU811  SER814 

> <Gold.Protein.RotatedAtoms>
  152.5390  134.2465  159.8881 H   0  0  0  0  0  0  0  0  0  0  0  0  # atno 6907 bound_to 6896
  151.2430  133.4383  159.2616 H   0  0  0  0  0  0  0  0  0  0  0  0  # atno 6908 bound_to 6896
  151.0609  134.9750  159.8316 H   0  0  0  0  0  0  0  0  0  0  0  0  # atno 6909 bound_to 6896
  144.8885  140.6609  143.5160 H   0  0  0  0  0  0  0  0  0  0  0  0  # atno 7974 bound_to 7965
  154.4347  140.1064  156.6097 H   0  0  0  0  0  0  0  0  0  0  0  0  # atno 8008 bound_to 7997
  155.5823  140.3491  155.4525 H   0  0  0  0  0  0  0  0  0  0  0  0  # atno 8009 bound_to 7997
  156.0309  140.1260  157.0248 H   0  0  0  0  0  0  0  0  0  0  0  0  # atno 8010 bound_to 7997
  139.4951  144.5985  151.6532 H   0  0  0  0  0  0  0  0  0  0  0  0  # atno 10167 bound_to 10162
  156.6269  130.8913  151.2969 H   0  0  0  0  0  0  0  0  0  0  0  0  # atno 10718 bound_to 10713
  152.9938  135.6193  154.2615 H   0  0  0  0  0  0  0  0  0  0  0  0  # atno 10763 bound_to 10752
  154.2350  135.2790  155.2877 H   0  0  0  0  0  0  0  0  0  0  0  0  # atno 10764 bound_to 10752
  154.5417  135.5759  153.6903 H   0  0  0  0  0  0  0  0  0  0  0  0  # atno 10765 bound_to 10752
  139.9812  134.6741  156.0259 H   0  0  0  0  0  0  0  0  0  0  0  0  # atno 11005 bound_to 11000
  145.3825  139.1634  143.4273 LP  0  0  0  0  0  0  0  0  0  0  0  0  # atno 17320 bound_to 7965
  146.3039  140.3907  142.8694 LP  0  0  0  0  0  0  0  0  0  0  0  0  # atno 17321 bound_to 7965
  140.5628  144.0239  150.6178 LP  0  0  0  0  0  0  0  0  0  0  0  0  # atno 17342 bound_to 10162
  140.3331  143.3065  152.0666 LP  0  0  0  0  0  0  0  0  0  0  0  0  # atno 17343 bound_to 10162
  157.7211  130.9560  150.1444 LP  0  0  0  0  0  0  0  0  0  0  0  0  # atno 17370 bound_to 10713
  156.2266  130.3678  149.8493 LP  0  0  0  0  0  0  0  0  0  0  0  0  # atno 17371 bound_to 10713
  141.1484  133.6552  156.3936 LP  0  0  0  0  0  0  0  0  0  0  0  0  # atno 17394 bound_to 11000
  140.5093  134.6410  157.5278 LP  0  0  0  0  0  0  0  0  0  0  0  0  # atno 17395 bound_to 11000

$$$$
