AV-unprocessed.smi:2088|AV-procd|sdf|8526|dock1
  -GOLD-   2272011243D 1   1.00000     0.00000
 Structure written by MMmdl.
 33 34  0  0  0  0  0  0  0  0  1 V2000
  150.8333  140.3844  154.9927 O   0  0  0  0  0  0  0  0  0  0  0  0
  149.9506  140.6515  155.8084 C   0  0  0  0  0  0  0  0  0  0  0  0
  148.5291  140.1272  155.5959 C   0  0  0  0  0  0  0  0  0  0  0  0
  147.6525  141.1746  155.1031 N   0  0  0  0  0  0  0  0  0  0  0  0
  147.6517  141.7792  153.8642 C   0  0  0  0  0  0  0  0  0  0  0  0
  146.6439  142.6999  153.8628 C   0  0  0  0  0  0  0  0  0  0  0  0
  146.0708  142.5892  155.1630 C   0  0  0  0  0  0  0  0  0  0  0  0
  144.9164  143.3633  155.7431 C   0  0  0  0  0  0  0  0  0  0  0  0
  143.8896  142.5489  155.9864 F   0  0  0  0  0  0  0  0  0  0  0  0
  145.2838  143.9428  156.8859 F   0  0  0  0  0  0  0  0  0  0  0  0
  144.5235  144.3041  154.8843 F   0  0  0  0  0  0  0  0  0  0  0  0
  146.6833  141.6722  155.9010 N   0  0  0  0  0  0  0  0  0  0  0  0
  150.1604  141.3949  156.9056 N   0  0  0  0  0  0  0  0  0  0  0  0
  151.4400  141.9811  157.2881 C   0  0  0  0  0  0  0  0  0  0  0  0
  151.2568  143.2344  158.1611 C   0  0  2  0  0  0  0  0  0  0  0  0
  152.4480  144.1875  158.1251 C   0  0  0  0  0  0  0  0  0  0  0  0
  152.2477  144.9665  159.4050 C   0  0  0  0  0  0  0  0  0  0  0  0
  151.7154  143.8957  160.3558 C   0  0  0  0  0  0  0  0  0  0  0  0
  151.1365  142.8818  159.5360 O   0  0  0  0  0  0  0  0  0  0  0  0
  148.5225  139.2883  154.8975 H   0  0  0  0  0  0  0  0  0  0  0  0
  148.1342  139.7580  156.5430 H   0  0  0  0  0  0  0  0  0  0  0  0
  148.3587  141.5045  153.0951 H   0  0  0  0  0  0  0  0  0  0  0  0
  146.3576  143.3545  153.0531 H   0  0  0  0  0  0  0  0  0  0  0  0
  149.3780  141.5677  157.5200 H   0  0  0  0  0  0  0  0  0  0  0  0
  152.0165  141.2296  157.8280 H   0  0  0  0  0  0  0  0  0  0  0  0
  152.0128  142.2255  156.3921 H   0  0  0  0  0  0  0  0  0  0  0  0
  150.3584  143.7810  157.8688 H   0  0  0  0  0  0  0  0  0  0  0  0
  153.3871  143.6338  158.1668 H   0  0  0  0  0  0  0  0  0  0  0  0
  152.4604  144.8198  157.2369 H   0  0  0  0  0  0  0  0  0  0  0  0
  153.1597  145.4427  159.7655 H   0  0  0  0  0  0  0  0  0  0  0  0
  151.4951  145.7415  159.2538 H   0  0  0  0  0  0  0  0  0  0  0  0
  152.5282  143.4531  160.9324 H   0  0  0  0  0  0  0  0  0  0  0  0
  150.9847  144.3004  161.0566 H   0  0  0  0  0  0  0  0  0  0  0  0
  1  2  2  0  0  0  0
  2  3  1  0  0  0  0
  2 13  1  0  0  0  0
  3  4  1  0  0  0  0
  3 20  1  0  0  0  0
  3 21  1  0  0  0  0
  4 12  1  0  0  0  0
  4  5  1  0  0  0  0
  5  6  2  0  0  0  0
  5 22  1  0  0  0  0
  6  7  1  0  0  0  0
  6 23  1  0  0  0  0
  7  8  1  0  0  0  0
  7 12  2  0  0  0  0
  8  9  1  0  0  0  0
  8 10  1  0  0  0  0
  8 11  1  0  0  0  0
 13 14  1  0  0  0  0
 13 24  1  0  0  0  0
 14 15  1  0  0  0  0
 14 25  1  0  0  0  0
 14 26  1  0  0  0  0
 15 19  1  0  0  0  0
 15 16  1  0  0  0  0
 15 27  1  0  0  0  0
 16 17  1  0  0  0  0
 16 28  1  0  0  0  0
 16 29  1  0  0  0  0
 17 18  1  0  0  0  0
 17 30  1  0  0  0  0
 17 31  1  0  0  0  0
 18 19  1  0  0  0  0
 18 32  1  0  0  0  0
 18 33  1  0  0  0  0
M  END
> <s_m_source_file>
AV-unprocessed.smi

> <i_m_source_file_index>
2088

> <i_lp_mmshare_version>
43012

> <i_f3d_flags>
0

> <s_epik_input>
TzFbQ0gyXVtDSDJdW0NIMl1bQ0BIXTFbQ0gyXVtOSF1DKD1PKVtDSDJdbjJbY0hdW2NIXWMobjIpQyhGKShGKUY=

> <s_epik_cmdline>
J2VwaWtfcHl0aG9uJywgJy1waCcsICc3LjAnLCAnLXRuJywgJzgnLCAnLW1hJywgJzIwMCcsICctbWV0YWxfYmluZGluZycsICctaW1hZScsICc8aW5maWxlLm1hZT4nLCAnLW9tYWUnLCAnPG91dGZpbGUubWFlPic=

> <r_lp_tautomer_probability>
1

> <r_epik_Ionization_Penalty>
2.25732e-07

> <r_epik_Ionization_Penalty_Charging>
0

> <r_epik_Ionization_Penalty_Neutral>
2.25732e-07

> <r_epik_State_Penalty>
-0

> <r_epik_Charging_Adjusted_Penalty>
0

> <i_epik_Tot_Q>
0

> <i_epik_Tot_abs_Q>
0

> <r_epik_Metal_State_Penalty>
-0

> <b_epik_Metal_Only>
0

> <s_lp_Force_Field>
OPLS_2005

> <r_lp_Energy>
20.6352

> <b_lp_Chiralities_Consistent>
1

> <s_lp_Variant>
AV-unprocessed.smi:2088-1

> <Gold.Version>
5.8.1

> <Gold.Id.Protein>
6NUR|6NUR_protein|mol2

> <Gold.PLP.Fitness>
42.1191

> <Gold.PLP.PLP>
-37.8149

> <Gold.PLP.part.hbond>
-1.1056

> <Gold.PLP.part.metal>
0.0000

> <Gold.PLP.part.buried>
-7.5308

> <Gold.PLP.part.nonpolar>
-28.8793

> <Gold.PLP.part.repulsive>
0.2265

> <Gold.PLP.ligand.clash>
0.0000

> <Gold.PLP.ligand.torsion>
0.8538

> <Gold.PLP.Chemscore.Hbond>
1.0000

> <Gold.PLP.Chemscore.CHOScore>
1.0000

> <Gold.PLP.Chemscore.Metal>
0.0000

> <Gold.Chemscore.Hbonds>
donor molecule, donor type, donor heavy atom, donor atom, acceptor molecule, acceptor atom, score
      P1  H  7989  7998       L1     1  1.00
      L1  C     5    22       P1  7957  0.54

> <Gold.PLP.Chemscore.Internal.Correction>
0.0118

> <Gold.Rescore>
     Score         DG    S(hbond)    S(metal)    S(lipo)     H(rot)  DE(clash)    DE(int)     intcor
     12.73     -13.64       0.99        0.00      82.90       1.89       0.04       0.87       ----

> <Gold.Chemscore.Fitness>
12.7281

> <Gold.Chemscore.DG>
-13.6362

> <Gold.Chemscore.ZeroCoef>
-5.4800

> <Gold.Chemscore.Hbond>
0.9886

> <Gold.Chemscore.Metal>
0.0000

> <Gold.Chemscore.Lipo>
82.9038

> <Gold.Chemscore.Internal_Hbond>
0.0000

> <Gold.Chemscore.DEClash>
0.0381

> <Gold.Chemscore.DEInternal>
0.8700

> <Gold.Chemscore.Rot>
1.8928

> <Gold.Chemscore.Internal.Correction>
   9.000000E+99

> <Gold.Chemscore.Hbonds>
donor molecule, donor type, donor heavy atom, donor atom, acceptor molecule, acceptor atom, score
      P1  H  7989  7998       L1     1  0.98

> <Gold.Chemscore.Hbond.Weighted>
-3.3019

> <Gold.Chemscore.Metal.Weighted>
-0.0000

> <Gold.Chemscore.Lipo.Weighted>
-9.6997

> <Gold.Chemscore.Internal_Hbond.Weighted>
0.0000

> <Gold.Chemscore.DEClash.Weighted>
0.0381

> <Gold.Chemscore.DEInternal.Weighted>
0.8700

> <Gold.Chemscore.Rot.Weighted>
4.8455

> <Gold.Chemscore.Internal.Correction.Weighted>
   9.000000E+99

> <Gold.Protein.RotatedTorsions>
[ 6907 6896 6895 6894 ] final   49.54 input  -60.11 | X-H torsion
[ 7974 7965 7964 7962 ] final -178.66 input  175.53 | X-H torsion
[ 8008 7997 7996 7995 ] final  -18.33 input   59.86 | X-H torsion
[ 10167 10162 10161 10158 ] final  137.24 input  -65.29 | X-H torsion
[ 10718 10713 10712 10709 ] final   82.47 input   66.30 | X-H torsion
[ 10763 10752 10751 10750 ] final  133.92 input  -60.55 | X-H torsion
[ 11005 11000 10999 10996 ] final   67.43 input  -57.11 | X-H torsion

> <Gold.Protein.ActiveResidues>
 VAL166  LYS551  ARG553  GLY616  TRP617  ASP618  TYR619  PRO620  LYS621  CYS622 
 ASP623  PHE694  ASN695  SER759  ASP760  ASP761  ALA762  ILE779  LEU786  VAL792 
 PHE793  MET794  SER795  GLU796  ALA797  LYS798  CYS799  TRP800  GLU811  SER814 

> <Gold.Protein.RotatedAtoms>
  152.2919  134.7711  160.0375 H   0  0  0  0  0  0  0  0  0  0  0  0  # atno 6907 bound_to 6896
  151.8255  133.3395  159.3605 H   0  0  0  0  0  0  0  0  0  0  0  0  # atno 6908 bound_to 6896
  150.7234  134.5462  159.5816 H   0  0  0  0  0  0  0  0  0  0  0  0  # atno 6909 bound_to 6896
  144.7132  140.0835  143.6424 H   0  0  0  0  0  0  0  0  0  0  0  0  # atno 7974 bound_to 7965
  154.4914  140.2119  155.9541 H   0  0  0  0  0  0  0  0  0  0  0  0  # atno 8008 bound_to 7997
  156.1310  140.3197  155.8318 H   0  0  0  0  0  0  0  0  0  0  0  0  # atno 8009 bound_to 7997
  155.4296  140.0502  157.3010 H   0  0  0  0  0  0  0  0  0  0  0  0  # atno 8010 bound_to 7997
  139.5151  144.6420  151.5542 H   0  0  0  0  0  0  0  0  0  0  0  0  # atno 10167 bound_to 10162
  157.6858  131.0049  150.2380 H   0  0  0  0  0  0  0  0  0  0  0  0  # atno 10718 bound_to 10713
  153.8151  135.3124  155.3404 H   0  0  0  0  0  0  0  0  0  0  0  0  # atno 10763 bound_to 10752
  154.8036  135.4712  154.0338 H   0  0  0  0  0  0  0  0  0  0  0  0  # atno 10764 bound_to 10752
  153.1729  135.6881  153.8672 H   0  0  0  0  0  0  0  0  0  0  0  0  # atno 10765 bound_to 10752
  139.9771  134.6804  156.0333 H   0  0  0  0  0  0  0  0  0  0  0  0  # atno 11005 bound_to 11000
  145.9682  139.2850  143.1115 LP  0  0  0  0  0  0  0  0  0  0  0  0  # atno 17320 bound_to 7965
  145.9146  140.9157  143.0436 LP  0  0  0  0  0  0  0  0  0  0  0  0  # atno 17321 bound_to 7965
  140.6191  143.9292  150.6512 LP  0  0  0  0  0  0  0  0  0  0  0  0  # atno 17342 bound_to 10162
  140.2560  143.3558  152.1364 LP  0  0  0  0  0  0  0  0  0  0  0  0  # atno 17343 bound_to 10162
  156.3000  130.3757  149.7760 LP  0  0  0  0  0  0  0  0  0  0  0  0  # atno 17370 bound_to 10713
  156.5393  130.8292  151.3263 LP  0  0  0  0  0  0  0  0  0  0  0  0  # atno 17371 bound_to 10713
  141.1447  133.6558  156.3832 LP  0  0  0  0  0  0  0  0  0  0  0  0  # atno 17394 bound_to 11000
  140.5172  134.6338  157.5305 LP  0  0  0  0  0  0  0  0  0  0  0  0  # atno 17395 bound_to 11000

$$$$
