AV-unprocessed.smi:470|AV-procd|sdf|2654|dock8
  -GOLD-   2262023 63D 1   1.00000     0.00000
 Structure written by MMmdl.
 33 34  0  0  0  0  0  0  0  0  1 V2000
  148.2189  138.4949  152.7902 N   0  0  0  0  0  0  0  0  0  0  0  0
  147.1943  139.1170  153.3800 C   0  0  0  0  0  0  0  0  0  0  0  0
  146.2061  138.5120  153.7906 O   0  0  0  0  0  0  0  0  0  0  0  0
  147.2931  140.6357  153.5341 C   0  0  0  0  0  0  0  0  0  0  0  0
  147.7824  140.9880  154.9087 C   0  0  0  0  0  0  0  0  0  0  0  0
  147.0973  140.8447  156.0910 C   0  0  0  0  0  0  0  0  0  0  0  0
  148.0292  141.3937  157.4581 S   0  0  0  0  0  0  0  0  0  0  0  0
  149.3491  141.7662  156.3603 C   0  0  0  0  0  0  0  0  0  0  0  0
  150.5577  142.3554  156.8140 N   0  0  0  0  0  0  0  0  0  0  0  0
  150.8637  142.9322  157.9944 C   0  0  0  0  0  0  0  0  0  0  0  0
  150.0147  142.9649  158.8841 O   0  0  0  0  0  0  0  0  0  0  0  0
  152.2711  143.5170  158.2703 C   0  0  2  0  0  0  0  0  0  0  0  0
  153.0307  142.7394  159.3773 C   0  0  0  0  0  0  0  0  0  0  0  0
  152.6608  143.1694  160.7880 C   0  0  0  0  0  0  0  0  0  0  0  0
  152.0038  144.3075  161.0678 C   0  0  0  0  0  0  0  0  0  0  0  0
  151.5499  145.2919  160.0058 C   0  0  0  0  0  0  0  0  0  0  0  0
  152.2047  145.0192  158.6355 C   0  0  0  0  0  0  0  0  0  0  0  0
  149.0635  141.5237  155.0773 N   0  0  0  0  0  0  0  0  0  0  0  0
  148.1908  137.4938  152.6622 H   0  0  0  0  0  0  0  0  0  0  0  0
  149.0140  139.0277  152.4681 H   0  0  0  0  0  0  0  0  0  0  0  0
  147.9707  141.0291  152.7753 H   0  0  0  0  0  0  0  0  0  0  0  0
  146.3185  141.0853  153.3377 H   0  0  0  0  0  0  0  0  0  0  0  0
  146.0985  140.4607  156.2371 H   0  0  0  0  0  0  0  0  0  0  0  0
  151.3082  142.3481  156.1388 H   0  0  0  0  0  0  0  0  0  0  0  0
  152.8736  143.3930  157.3724 H   0  0  0  0  0  0  0  0  0  0  0  0
  152.8529  141.6673  159.2804 H   0  0  0  0  0  0  0  0  0  0  0  0
  154.1054  142.8801  159.2586 H   0  0  0  0  0  0  0  0  0  0  0  0
  152.9677  142.5159  161.5914 H   0  0  0  0  0  0  0  0  0  0  0  0
  151.7617  144.5499  162.0922 H   0  0  0  0  0  0  0  0  0  0  0  0
  150.4640  145.2298  159.9285 H   0  0  0  0  0  0  0  0  0  0  0  0
  151.7844  146.3053  160.3320 H   0  0  0  0  0  0  0  0  0  0  0  0
  153.2217  145.4131  158.6489 H   0  0  0  0  0  0  0  0  0  0  0  0
  151.6807  145.5859  157.8655 H   0  0  0  0  0  0  0  0  0  0  0  0
  1  2  1  0  0  0  0
  1 19  1  0  0  0  0
  1 20  1  0  0  0  0
  2  3  2  0  0  0  0
  2  4  1  0  0  0  0
  4  5  1  0  0  0  0
  4 21  1  0  0  0  0
  4 22  1  0  0  0  0
  5 18  1  0  0  0  0
  5  6  2  0  0  0  0
  6  7  1  0  0  0  0
  6 23  1  0  0  0  0
  7  8  1  0  0  0  0
  8  9  1  0  0  0  0
  8 18  2  0  0  0  0
  9 10  1  0  0  0  0
  9 24  1  0  0  0  0
 10 11  2  0  0  0  0
 10 12  1  0  0  0  0
 12 17  1  0  0  0  0
 12 13  1  0  0  0  0
 12 25  1  0  0  0  0
 13 14  1  0  0  0  0
 13 26  1  0  0  0  0
 13 27  1  0  0  0  0
 14 15  2  0  0  0  0
 14 28  1  0  0  0  0
 15 16  1  0  0  0  0
 15 29  1  0  0  0  0
 16 17  1  0  0  0  0
 16 30  1  0  0  0  0
 16 31  1  0  0  0  0
 17 32  1  0  0  0  0
 17 33  1  0  0  0  0
M  END
> <s_m_source_file>
AV-unprocessed.smi

> <i_m_source_file_index>
470

> <i_lp_mmshare_version>
43012

> <i_f3d_flags>
0

> <s_epik_input>
W05IMl1DKD1PKVtDSDJdYzFbY0hdc2MobjEpW05IXUMoPU8pW0NAQEhdMltDSDJdW0NIXT1bQ0hdW0NIMl1bQ0gyXTI=

> <s_epik_cmdline>
J2VwaWtfcHl0aG9uJywgJy1waCcsICc3LjAnLCAnLXRuJywgJzgnLCAnLW1hJywgJzIwMCcsICctbWV0YWxfYmluZGluZycsICctaW1hZScsICc8aW5maWxlLm1hZT4nLCAnLW9tYWUnLCAnPG91dGZpbGUubWFlPic=

> <r_lp_tautomer_probability>
1

> <r_epik_Ionization_Penalty>
0.00025496

> <r_epik_Ionization_Penalty_Charging>
0

> <r_epik_Ionization_Penalty_Neutral>
0.00025496

> <r_epik_State_Penalty>
-0

> <r_epik_Charging_Adjusted_Penalty>
0

> <i_epik_Tot_Q>
0

> <i_epik_Tot_abs_Q>
0

> <r_epik_Metal_State_Penalty>
0.149391

> <b_epik_Metal_Only>
0

> <s_lp_Force_Field>
OPLS_2005

> <r_lp_Energy>
11.789

> <b_lp_Chiralities_Consistent>
1

> <s_lp_Variant>
AV-unprocessed.smi:470-1

> <Gold.Version>
5.8.1

> <Gold.Id.Protein>
6NUR|6NUR_protein|mol2

> <Gold.PLP.Fitness>
45.0454

> <Gold.PLP.PLP>
-40.2881

> <Gold.PLP.part.hbond>
-2.8181

> <Gold.PLP.part.metal>
0.0000

> <Gold.PLP.part.buried>
-5.6268

> <Gold.PLP.part.nonpolar>
-32.5843

> <Gold.PLP.part.repulsive>
0.5854

> <Gold.PLP.ligand.clash>
0.0000

> <Gold.PLP.ligand.torsion>
0.4922

> <Gold.PLP.Chemscore.Hbond>
1.9040

> <Gold.PLP.Chemscore.CHOScore>
0.0000

> <Gold.PLP.Chemscore.Metal>
0.0000

> <Gold.Chemscore.Hbonds>
donor molecule, donor type, donor heavy atom, donor atom, acceptor molecule, acceptor atom, score
      L1  H     1    19       P1  7948  0.83
      L1  H     1    20       P1  7957  0.86

> <Gold.PLP.Chemscore.Internal.Correction>
0.0298

> <Gold.Rescore>
     Score         DG    S(hbond)    S(metal)    S(lipo)     H(rot)  DE(clash)    DE(int)     intcor
     13.97     -17.25       1.70        0.00      93.55       1.90       0.62       2.66       ----

> <Gold.Chemscore.Fitness>
13.9712

> <Gold.Chemscore.DG>
-17.2520

> <Gold.Chemscore.ZeroCoef>
-5.4800

> <Gold.Chemscore.Hbond>
1.7013

> <Gold.Chemscore.Metal>
0.0000

> <Gold.Chemscore.Lipo>
93.5504

> <Gold.Chemscore.Internal_Hbond>
0.0000

> <Gold.Chemscore.DEClash>
0.6174

> <Gold.Chemscore.DEInternal>
2.6634

> <Gold.Chemscore.Rot>
1.8968

> <Gold.Chemscore.Internal.Correction>
   9.000000E+99

> <Gold.Chemscore.Hbonds>
donor molecule, donor type, donor heavy atom, donor atom, acceptor molecule, acceptor atom, score
      L1  H     1    19       P1  7948  0.81
      L1  H     1    20       P1  7957  0.84

> <Gold.Chemscore.Hbond.Weighted>
-5.6824

> <Gold.Chemscore.Metal.Weighted>
-0.0000

> <Gold.Chemscore.Lipo.Weighted>
-10.9454

> <Gold.Chemscore.Internal_Hbond.Weighted>
0.0000

> <Gold.Chemscore.DEClash.Weighted>
0.6174

> <Gold.Chemscore.DEInternal.Weighted>
2.6634

> <Gold.Chemscore.Rot.Weighted>
4.8558

> <Gold.Chemscore.Internal.Correction.Weighted>
   9.000000E+99

> <Gold.Protein.RotatedTorsions>
[ 6907 6896 6895 6894 ] final  -97.97 input  -60.11 | X-H torsion
[ 7974 7965 7964 7962 ] final  110.17 input  175.53 | X-H torsion
[ 8008 7997 7996 7995 ] final  -78.33 input   59.86 | X-H torsion
[ 10167 10162 10161 10158 ] final  -46.77 input  -65.29 | X-H torsion
[ 10718 10713 10712 10709 ] final  140.00 input   66.30 | X-H torsion
[ 10763 10752 10751 10750 ] final  152.41 input  -60.55 | X-H torsion
[ 11005 11000 10999 10996 ] final -159.78 input  -57.11 | X-H torsion

> <Gold.Protein.ActiveResidues>
 VAL166  LYS551  ARG553  GLY616  TRP617  ASP618  TYR619  PRO620  LYS621  CYS622 
 ASP623  PHE694  ASN695  SER759  ASP760  ASP761  ALA762  ILE779  LEU786  VAL792 
 PHE793  MET794  SER795  GLU796  ALA797  LYS798  CYS799  TRP800  GLU811  SER814 

> <Gold.Protein.RotatedAtoms>
  150.7032  134.1267  159.4054 H   0  0  0  0  0  0  0  0  0  0  0  0  # atno 6907 bound_to 6896
  151.9253  135.0278  160.0534 H   0  0  0  0  0  0  0  0  0  0  0  0  # atno 6908 bound_to 6896
  152.2221  133.4957  159.5205 H   0  0  0  0  0  0  0  0  0  0  0  0  # atno 6909 bound_to 6896
  145.2585  139.2712  143.4030 H   0  0  0  0  0  0  0  0  0  0  0  0  # atno 7974 bound_to 7965
  154.5679  140.0696  156.8920 H   0  0  0  0  0  0  0  0  0  0  0  0  # atno 8008 bound_to 7997
  155.2688  140.3363  155.4249 H   0  0  0  0  0  0  0  0  0  0  0  0  # atno 8009 bound_to 7997
  156.2095  140.1753  156.7711 H   0  0  0  0  0  0  0  0  0  0  0  0  # atno 8010 bound_to 7997
  140.6803  143.2815  151.3831 H   0  0  0  0  0  0  0  0  0  0  0  0  # atno 10167 bound_to 10162
  157.4081  131.1025  151.0482 H   0  0  0  0  0  0  0  0  0  0  0  0  # atno 10718 bound_to 10713
  154.1196  135.2833  155.3211 H   0  0  0  0  0  0  0  0  0  0  0  0  # atno 10763 bound_to 10752
  154.6432  135.5395  153.7817 H   0  0  0  0  0  0  0  0  0  0  0  0  # atno 10764 bound_to 10752
  153.0317  135.6491  154.1351 H   0  0  0  0  0  0  0  0  0  0  0  0  # atno 10765 bound_to 10752
  140.6388  134.4573  157.5232 H   0  0  0  0  0  0  0  0  0  0  0  0  # atno 11005 bound_to 11000
  146.3282  140.2995  142.8620 LP  0  0  0  0  0  0  0  0  0  0  0  0  # atno 17320 bound_to 7965
  144.9440  140.8108  143.5613 LP  0  0  0  0  0  0  0  0  0  0  0  0  # atno 17321 bound_to 7965
  139.6122  144.1076  152.2310 LP  0  0  0  0  0  0  0  0  0  0  0  0  # atno 17342 bound_to 10162
  140.0493  144.5945  150.7348 LP  0  0  0  0  0  0  0  0  0  0  0  0  # atno 17343 bound_to 10162
  157.1456  130.6162  149.5567 LP  0  0  0  0  0  0  0  0  0  0  0  0  # atno 17370 bound_to 10713
  155.9842  130.4866  150.6974 LP  0  0  0  0  0  0  0  0  0  0  0  0  # atno 17371 bound_to 10713
  139.9088  134.8390  156.1606 LP  0  0  0  0  0  0  0  0  0  0  0  0  # atno 17394 bound_to 11000
  141.0622  133.6836  156.1974 LP  0  0  0  0  0  0  0  0  0  0  0  0  # atno 17395 bound_to 11000

$$$$
