AV-unprocessed.smi:516|AV-procd|sdf|2784|dock10
  -GOLD-   2262023253D 1   1.00000     0.00000
 Structure written by MMmdl.
 44 46  0  0  0  0  0  0  0  0  1 V2000
  148.9510  136.5187  159.2223 C   0  0  0  0  0  0  0  0  0  0  0  0
  150.3434  136.7364  159.0785 O   0  0  0  0  0  0  0  0  0  0  0  0
  150.6747  137.3303  157.8353 C   0  0  0  0  0  0  0  0  0  0  0  0
  152.1918  137.5442  157.7795 C   0  0  0  0  0  0  0  0  0  0  0  0
  152.6485  138.4445  158.8305 N   0  0  0  0  0  0  0  0  0  0  0  0
  153.3756  138.1320  159.9345 C   0  0  0  0  0  0  0  0  0  0  0  0
  153.8272  136.7363  160.2445 C   0  0  0  0  0  0  0  0  0  0  0  0
  154.4344  136.5896  161.5660 N   0  0  0  0  0  0  0  0  0  0  0  0
  153.5623  137.0573  162.6412 C   0  0  0  0  0  0  0  0  0  0  0  0
  154.2121  136.8750  164.0242 C   0  0  0  0  0  0  0  0  0  0  0  0
  154.5697  135.5091  164.2099 O   0  0  0  0  0  0  0  0  0  0  0  0
  155.4573  135.0312  163.2042 C   0  0  0  0  0  0  0  0  0  0  0  0
  154.8075  135.2036  161.8208 C   0  0  0  0  0  0  0  0  0  0  0  0
  153.6475  139.1740  160.7276 N   0  0  0  0  0  0  0  0  0  0  0  0
  153.0393  140.2346  160.0722 C   0  0  0  0  0  0  0  0  0  0  0  0
  152.4285  139.8161  158.9364 C   0  0  0  0  0  0  0  0  0  0  0  0
  151.6904  140.7277  158.0547 C   0  0  0  0  0  0  0  0  0  0  0  0
  151.1203  140.3640  157.0284 O   0  0  0  0  0  0  0  0  0  0  0  0
  151.6988  142.0100  158.4941 N   0  0  0  0  0  0  0  0  0  0  0  0
  152.2978  142.5000  159.6231 C   0  0  0  0  0  0  0  0  0  0  0  0
  152.2150  143.6996  159.8848 O   0  0  0  0  0  0  0  0  0  0  0  0
  152.9739  141.6114  160.4229 N   0  0  0  0  0  0  0  0  0  0  0  0
  153.6500  142.0324  161.6515 C   0  0  0  0  0  0  0  0  0  0  0  0
  151.2049  142.6809  157.9240 H   0  0  0  0  0  0  0  0  0  0  0  0
  148.7496  136.0625  160.1915 H   0  0  0  0  0  0  0  0  0  0  0  0
  148.5752  135.8469  158.4495 H   0  0  0  0  0  0  0  0  0  0  0  0
  148.3977  137.4572  159.1703 H   0  0  0  0  0  0  0  0  0  0  0  0
  150.3535  136.6856  157.0156 H   0  0  0  0  0  0  0  0  0  0  0  0
  150.1562  138.2844  157.7280 H   0  0  0  0  0  0  0  0  0  0  0  0
  152.7068  136.5884  157.8699 H   0  0  0  0  0  0  0  0  0  0  0  0
  152.4879  137.9470  156.8112 H   0  0  0  0  0  0  0  0  0  0  0  0
  152.9769  136.0596  160.1461 H   0  0  0  0  0  0  0  0  0  0  0  0
  154.5412  136.4388  159.4758 H   0  0  0  0  0  0  0  0  0  0  0  0
  153.3210  138.1113  162.5013 H   0  0  0  0  0  0  0  0  0  0  0  0
  152.6164  136.5142  162.6129 H   0  0  0  0  0  0  0  0  0  0  0  0
  155.0973  137.5055  164.1206 H   0  0  0  0  0  0  0  0  0  0  0  0
  153.5190  137.1721  164.8113 H   0  0  0  0  0  0  0  0  0  0  0  0
  156.4036  135.5720  163.2565 H   0  0  0  0  0  0  0  0  0  0  0  0
  155.6772  133.9802  163.3922 H   0  0  0  0  0  0  0  0  0  0  0  0
  153.9255  134.5646  161.7539 H   0  0  0  0  0  0  0  0  0  0  0  0
  155.5010  134.8599  161.0525 H   0  0  0  0  0  0  0  0  0  0  0  0
  153.5622  143.0982  161.8651 H   0  0  0  0  0  0  0  0  0  0  0  0
  154.7134  141.7995  161.5885 H   0  0  0  0  0  0  0  0  0  0  0  0
  153.2386  141.4936  162.5057 H   0  0  0  0  0  0  0  0  0  0  0  0
  1  2  1  0  0  0  0
  1 25  1  0  0  0  0
  1 26  1  0  0  0  0
  1 27  1  0  0  0  0
  2  3  1  0  0  0  0
  3  4  1  0  0  0  0
  3 28  1  0  0  0  0
  3 29  1  0  0  0  0
  4  5  1  0  0  0  0
  4 30  1  0  0  0  0
  4 31  1  0  0  0  0
  5 16  1  0  0  0  0
  5  6  1  0  0  0  0
  6  7  1  0  0  0  0
  6 14  2  0  0  0  0
  7  8  1  0  0  0  0
  7 32  1  0  0  0  0
  7 33  1  0  0  0  0
  8 13  1  0  0  0  0
  8  9  1  0  0  0  0
  9 10  1  0  0  0  0
  9 34  1  0  0  0  0
  9 35  1  0  0  0  0
 10 11  1  0  0  0  0
 10 36  1  0  0  0  0
 10 37  1  0  0  0  0
 11 12  1  0  0  0  0
 12 13  1  0  0  0  0
 12 38  1  0  0  0  0
 12 39  1  0  0  0  0
 13 40  1  0  0  0  0
 13 41  1  0  0  0  0
 14 15  1  0  0  0  0
 15 22  1  0  0  0  0
 15 16  2  0  0  0  0
 16 17  1  0  0  0  0
 17 18  2  0  0  0  0
 17 19  1  0  0  0  0
 19 24  1  0  0  0  0
 19 20  1  0  0  0  0
 20 21  2  0  0  0  0
 20 22  1  0  0  0  0
 22 23  1  0  0  0  0
 23 42  1  0  0  0  0
 23 43  1  0  0  0  0
 23 44  1  0  0  0  0
M  END
> <s_m_source_file>
AV-unprocessed.smi

> <i_m_source_file_index>
516

> <i_lp_mmshare_version>
43012

> <i_f3d_flags>
0

> <s_epik_input>
W0NIM11uMWMoPU8pW25IXWMoPU8pYyhjMTIpbihbQ0gyXVtDSDJdT1tDSDNdKWMobjIpW0NIMl1OM1tDSDJdW0NIMl1PW0NIMl1bQ0gyXTM=

> <s_epik_cmdline>
J2VwaWtfcHl0aG9uJywgJy1waCcsICc3LjAnLCAnLXRuJywgJzgnLCAnLW1hJywgJzIwMCcsICctbWV0YWxfYmluZGluZycsICctaW1hZScsICc8aW5maWxlLm1hZT4nLCAnLW9tYWUnLCAnPG91dGZpbGUubWFlPic=

> <r_epik_Ionization_Penalty>
0.0972048

> <r_epik_Ionization_Penalty_Charging>
0.000199653

> <r_epik_Ionization_Penalty_Neutral>
0.0970052

> <r_epik_State_Penalty>
0.0871068

> <r_epik_Charging_Adjusted_Penalty>
0.0873064

> <i_epik_Tot_Q>
0

> <i_epik_Tot_abs_Q>
0

> <r_epik_Metal_State_Penalty>
0.236525

> <b_epik_Metal_Only>
0

> <s_lp_Force_Field>
OPLS_2005

> <r_lp_Energy>
41.4517

> <b_lp_Chiralities_Consistent>
1

> <s_lp_Variant>
AV-unprocessed.smi:516-1

> <Gold.Version>
5.8.1

> <Gold.Id.Protein>
6NUR|6NUR_protein|mol2

> <Gold.PLP.Fitness>
39.8950

> <Gold.PLP.PLP>
-37.2151

> <Gold.PLP.part.hbond>
-1.0000

> <Gold.PLP.part.metal>
0.0000

> <Gold.PLP.part.buried>
-6.9957

> <Gold.PLP.part.nonpolar>
-28.6421

> <Gold.PLP.part.repulsive>
0.1715

> <Gold.PLP.ligand.clash>
0.0000

> <Gold.PLP.ligand.torsion>
0.1659

> <Gold.PLP.Chemscore.Hbond>
1.0000

> <Gold.PLP.Chemscore.CHOScore>
0.0000

> <Gold.PLP.Chemscore.Metal>
0.0000

> <Gold.Chemscore.Hbonds>
donor molecule, donor type, donor heavy atom, donor atom, acceptor molecule, acceptor atom, score
      P1  H  6896  6908       L1     2  1.00

> <Gold.PLP.Chemscore.Internal.Correction>
0.0117

> <Gold.Rescore>
     Score         DG    S(hbond)    S(metal)    S(lipo)     H(rot)  DE(clash)    DE(int)     intcor
      9.89     -10.35       0.89        0.00      60.81       2.04       0.00       0.46       ----

> <Gold.Chemscore.Fitness>
9.8904

> <Gold.Chemscore.DG>
-10.3483

> <Gold.Chemscore.ZeroCoef>
-5.4800

> <Gold.Chemscore.Hbond>
0.8939

> <Gold.Chemscore.Metal>
0.0000

> <Gold.Chemscore.Lipo>
60.8087

> <Gold.Chemscore.Internal_Hbond>
0.0000

> <Gold.Chemscore.DEClash>
0.0025

> <Gold.Chemscore.DEInternal>
0.4554

> <Gold.Chemscore.Rot>
2.0437

> <Gold.Chemscore.Internal.Correction>
   9.000000E+99

> <Gold.Chemscore.Hbonds>
donor molecule, donor type, donor heavy atom, donor atom, acceptor molecule, acceptor atom, score
      P1  H  6896  6908       L1     2  0.39

> <Gold.Chemscore.Hbond.Weighted>
-2.9856

> <Gold.Chemscore.Metal.Weighted>
-0.0000

> <Gold.Chemscore.Lipo.Weighted>
-7.1146

> <Gold.Chemscore.Internal_Hbond.Weighted>
0.0000

> <Gold.Chemscore.DEClash.Weighted>
0.0025

> <Gold.Chemscore.DEInternal.Weighted>
0.4554

> <Gold.Chemscore.Rot.Weighted>
5.2319

> <Gold.Chemscore.Internal.Correction.Weighted>
   9.000000E+99

> <Gold.Protein.RotatedTorsions>
[ 6907 6896 6895 6894 ] final -146.97 input  -60.11 | X-H torsion
[ 7974 7965 7964 7962 ] final  138.69 input  175.53 | X-H torsion
[ 8008 7997 7996 7995 ] final   91.50 input   59.86 | X-H torsion
[ 10167 10162 10161 10158 ] final  143.58 input  -65.29 | X-H torsion
[ 10718 10713 10712 10709 ] final  178.57 input   66.30 | X-H torsion
[ 10763 10752 10751 10750 ] final  100.75 input  -60.55 | X-H torsion
[ 11005 11000 10999 10996 ] final   94.88 input  -57.11 | X-H torsion

> <Gold.Protein.ActiveResidues>
 VAL166  LYS551  ARG553  GLY616  TRP617  ASP618  TYR619  PRO620  LYS621  CYS622 
 ASP623  PHE694  ASN695  SER759  ASP760  ASP761  ALA762  ILE779  LEU786  VAL792 
 PHE793  MET794  SER795  GLU796  ALA797  LYS798  CYS799  TRP800  GLU811  SER814 

> <Gold.Protein.RotatedAtoms>
  151.1490  133.4920  159.2595 H   0  0  0  0  0  0  0  0  0  0  0  0  # atno 6907 bound_to 6896
  151.1573  135.0256  159.8705 H   0  0  0  0  0  0  0  0  0  0  0  0  # atno 6908 bound_to 6896
  152.5463  134.1368  159.8515 H   0  0  0  0  0  0  0  0  0  0  0  0  # atno 6909 bound_to 6896
  144.9349  139.5002  143.5600 H   0  0  0  0  0  0  0  0  0  0  0  0  # atno 7974 bound_to 7965
  156.0245  140.3337  155.7074 H   0  0  0  0  0  0  0  0  0  0  0  0  # atno 8008 bound_to 7997
  155.5974  140.0652  157.2760 H   0  0  0  0  0  0  0  0  0  0  0  0  # atno 8009 bound_to 7997
  154.4329  140.1816  156.1126 H   0  0  0  0  0  0  0  0  0  0  0  0  # atno 8010 bound_to 7997
  139.4966  144.6031  151.6438 H   0  0  0  0  0  0  0  0  0  0  0  0  # atno 10167 bound_to 10162
  156.8886  130.9840  151.3052 H   0  0  0  0  0  0  0  0  0  0  0  0  # atno 10718 bound_to 10713
  153.3179  135.4068  155.1392 H   0  0  0  0  0  0  0  0  0  0  0  0  # atno 10763 bound_to 10752
  154.8593  135.3580  154.5636 H   0  0  0  0  0  0  0  0  0  0  0  0  # atno 10764 bound_to 10752
  153.6067  135.7069  153.5421 H   0  0  0  0  0  0  0  0  0  0  0  0  # atno 10765 bound_to 10752
  139.8794  134.8869  156.3929 H   0  0  0  0  0  0  0  0  0  0  0  0  # atno 11005 bound_to 11000
  146.3262  139.8326  142.8905 LP  0  0  0  0  0  0  0  0  0  0  0  0  # atno 17320 bound_to 7965
  145.3083  141.0213  143.3569 LP  0  0  0  0  0  0  0  0  0  0  0  0  # atno 17321 bound_to 7965
  140.5685  144.0148  150.6205 LP  0  0  0  0  0  0  0  0  0  0  0  0  # atno 17342 bound_to 10162
  140.3258  143.3108  152.0738 LP  0  0  0  0  0  0  0  0  0  0  0  0  # atno 17343 bound_to 10162
  157.6097  130.8574  149.8932 LP  0  0  0  0  0  0  0  0  0  0  0  0  # atno 17370 bound_to 10713
  156.0640  130.3695  150.0918 LP  0  0  0  0  0  0  0  0  0  0  0  0  # atno 17371 bound_to 10713
  140.9320  133.7573  156.0037 LP  0  0  0  0  0  0  0  0  0  0  0  0  # atno 17394 bound_to 11000
  140.8319  134.3168  157.5345 LP  0  0  0  0  0  0  0  0  0  0  0  0  # atno 17395 bound_to 11000

$$$$
