AV-unprocessed.smi:437|AV-procd|sdf|2561|dock4
  -GOLD-   2262022533D 1   1.00000     0.00000
 Structure written by MMmdl.
 48 49  0  0  0  0  0  0  0  0  1 V2000
  150.7929  141.5239  157.9989 C   0  0  0  0  0  0  0  0  0  0  0  0
  151.1676  140.3538  157.1294 C   0  0  0  0  0  0  0  0  0  0  0  0
  150.4742  140.1851  156.0517 N   0  0  0  0  0  0  0  0  0  0  0  0
  150.7317  139.1391  155.1867 N   0  0  0  0  0  0  0  0  0  0  0  0
  149.8363  139.0923  154.0209 C   0  0  0  0  0  0  0  0  0  0  0  0
  148.3972  138.6887  154.3787 C   0  0  0  0  0  0  0  0  0  0  0  0
  147.6927  139.4405  155.0575 O   0  0  0  0  0  0  0  0  0  0  0  0
  148.0036  137.4952  153.8899 N   0  0  0  0  0  0  0  0  0  0  0  0
  146.8069  136.8976  154.0482 C   0  0  0  0  0  0  0  0  0  0  0  0
  145.9117  137.2690  154.8104 O   0  0  0  0  0  0  0  0  0  0  0  0
  146.7017  135.8204  153.2567 N   0  0  0  0  0  0  0  0  0  0  0  0
  145.6667  134.7898  153.3514 C   0  0  2  0  0  0  0  0  0  0  0  0
  146.3003  133.3831  153.4047 C   0  0  0  0  0  0  0  0  0  0  0  0
  146.9347  132.9807  152.0623 C   0  0  0  0  0  0  0  0  0  0  0  0
  145.9207  133.0882  150.9136 C   0  0  0  0  0  0  0  0  0  0  0  0
  145.3033  134.4939  150.8412 C   0  0  0  0  0  0  0  0  0  0  0  0
  144.6574  134.9014  152.1817 C   0  0  2  0  0  0  0  0  0  0  0  0
  143.9979  136.2883  152.0928 C   0  0  0  0  0  0  0  0  0  0  0  0
  151.7159  138.2106  155.3618 C   0  0  0  0  0  0  0  0  0  0  0  0
  151.9145  137.2968  154.5596 O   0  0  0  0  0  0  0  0  0  0  0  0
  152.4973  138.4079  156.5847 C   0  0  0  0  0  0  0  0  0  0  0  0
  153.5337  137.4529  156.8107 C   0  0  0  0  0  0  0  0  0  0  0  0
  154.3665  136.6668  156.9792 N   0  0  0  0  0  0  0  0  0  0  0  0
  152.2514  139.4286  157.4438 C   0  0  0  0  0  0  0  0  0  0  0  0
  153.0333  139.6783  158.7261 C   0  0  0  0  0  0  0  0  0  0  0  0
  151.6186  142.2321  158.0705 H   0  0  0  0  0  0  0  0  0  0  0  0
  150.5419  141.1932  159.0069 H   0  0  0  0  0  0  0  0  0  0  0  0
  149.9294  142.0630  157.6062 H   0  0  0  0  0  0  0  0  0  0  0  0
  149.8022  140.0687  153.5341 H   0  0  0  0  0  0  0  0  0  0  0  0
  150.2322  138.4059  153.2698 H   0  0  0  0  0  0  0  0  0  0  0  0
  148.6848  136.9927  153.3405 H   0  0  0  0  0  0  0  0  0  0  0  0
  147.3889  135.6987  152.5275 H   0  0  0  0  0  0  0  0  0  0  0  0
  145.1119  134.9449  154.2788 H   0  0  0  0  0  0  0  0  0  0  0  0
  147.0449  133.3301  154.2000 H   0  0  0  0  0  0  0  0  0  0  0  0
  145.5306  132.6555  153.6653 H   0  0  0  0  0  0  0  0  0  0  0  0
  147.7945  133.6183  151.8535 H   0  0  0  0  0  0  0  0  0  0  0  0
  147.3166  131.9612  152.1245 H   0  0  0  0  0  0  0  0  0  0  0  0
  146.4047  132.8464  149.9669 H   0  0  0  0  0  0  0  0  0  0  0  0
  145.1304  132.3493  151.0538 H   0  0  0  0  0  0  0  0  0  0  0  0
  146.0727  135.2154  150.5632 H   0  0  0  0  0  0  0  0  0  0  0  0
  144.5574  134.5211  150.0461 H   0  0  0  0  0  0  0  0  0  0  0  0
  143.8570  134.1879  152.3833 H   0  0  0  0  0  0  0  0  0  0  0  0
  144.7190  137.0632  151.8315 H   0  0  0  0  0  0  0  0  0  0  0  0
  143.5389  136.5658  153.0420 H   0  0  0  0  0  0  0  0  0  0  0  0
  143.2152  136.2996  151.3339 H   0  0  0  0  0  0  0  0  0  0  0  0
  153.8504  138.9693  158.8565 H   0  0  0  0  0  0  0  0  0  0  0  0
  152.3794  139.5906  159.5946 H   0  0  0  0  0  0  0  0  0  0  0  0
  153.4673  140.6788  158.7222 H   0  0  0  0  0  0  0  0  0  0  0  0
  1  2  1  0  0  0  0
  1 26  1  0  0  0  0
  1 27  1  0  0  0  0
  1 28  1  0  0  0  0
  2 24  1  0  0  0  0
  2  3  2  0  0  0  0
  3  4  1  0  0  0  0
  4  5  1  0  0  0  0
  4 19  1  0  0  0  0
  5  6  1  0  0  0  0
  5 29  1  0  0  0  0
  5 30  1  0  0  0  0
  6  7  2  0  0  0  0
  6  8  1  0  0  0  0
  8  9  1  0  0  0  0
  8 31  1  0  0  0  0
  9 10  2  0  0  0  0
  9 11  1  0  0  0  0
 11 12  1  0  0  0  0
 11 32  1  0  0  0  0
 12 17  1  0  0  0  0
 12 13  1  0  0  0  0
 12 33  1  0  0  0  0
 13 14  1  0  0  0  0
 13 34  1  0  0  0  0
 13 35  1  0  0  0  0
 14 15  1  0  0  0  0
 14 36  1  0  0  0  0
 14 37  1  0  0  0  0
 15 16  1  0  0  0  0
 15 38  1  0  0  0  0
 15 39  1  0  0  0  0
 16 17  1  0  0  0  0
 16 40  1  0  0  0  0
 16 41  1  0  0  0  0
 17 18  1  0  0  0  0
 17 42  1  0  0  0  0
 18 43  1  0  0  0  0
 18 44  1  0  0  0  0
 18 45  1  0  0  0  0
 19 20  2  0  0  0  0
 19 21  1  0  0  0  0
 21 22  1  0  0  0  0
 21 24  2  0  0  0  0
 22 23  3  0  0  0  0
 24 25  1  0  0  0  0
 25 46  1  0  0  0  0
 25 47  1  0  0  0  0
 25 48  1  0  0  0  0
M  END
> <s_m_source_file>
AV-unprocessed.smi

> <i_m_source_file_index>
437

> <i_lp_mmshare_version>
43012

> <i_f3d_flags>
0

> <s_epik_input>
TiNDYyhjMVtDSDNdKWMoPU8pbihuYzFbQ0gzXSlbQ0gyXUMoPU8pW05IXUMoPU8pW05IXVtDQEBIXTJbQ0gyXVtDSDJdW0NIMl1bQ0gyXVtDQEhdMltDSDNd

> <s_epik_cmdline>
J2VwaWtfcHl0aG9uJywgJy1waCcsICc3LjAnLCAnLXRuJywgJzgnLCAnLW1hJywgJzIwMCcsICctbWV0YWxfYmluZGluZycsICctaW1hZScsICc8aW5maWxlLm1hZT4nLCAnLW9tYWUnLCAnPG91dGZpbGUubWFlPic=

> <r_lp_tautomer_probability>
1

> <r_epik_Ionization_Penalty>
3.27035e-05

> <r_epik_Ionization_Penalty_Charging>
1.6965e-11

> <r_epik_Ionization_Penalty_Neutral>
3.27035e-05

> <r_epik_State_Penalty>
-0

> <r_epik_Charging_Adjusted_Penalty>
1.6965e-11

> <i_epik_Tot_Q>
0

> <i_epik_Tot_abs_Q>
0

> <r_epik_Metal_State_Penalty>
-0

> <b_epik_Metal_Only>
0

> <s_lp_Force_Field>
OPLS_2005

> <r_lp_Energy>
26.4777

> <b_lp_Chiralities_Consistent>
1

> <s_lp_Variant>
AV-unprocessed.smi:437-3

> <Gold.Version>
5.8.1

> <Gold.Id.Protein>
6NUR|6NUR_protein|mol2

> <Gold.PLP.Fitness>
42.6183

> <Gold.PLP.PLP>
-32.0248

> <Gold.PLP.part.hbond>
-4.0000

> <Gold.PLP.part.metal>
0.0000

> <Gold.PLP.part.buried>
-2.4829

> <Gold.PLP.part.nonpolar>
-25.7805

> <Gold.PLP.part.repulsive>
0.2505

> <Gold.PLP.ligand.clash>
0.0000

> <Gold.PLP.ligand.torsion>
0.3126

> <Gold.PLP.Chemscore.Hbond>
3.7280

> <Gold.PLP.Chemscore.CHOScore>
0.0000

> <Gold.PLP.Chemscore.Metal>
0.0000

> <Gold.Chemscore.Hbonds>
donor molecule, donor type, donor heavy atom, donor atom, acceptor molecule, acceptor atom, score
      L1  H     8    31       P1  7948  0.90
      L1  H    11    32       P1  7948  0.96
      P1  H 10752 10763       L1    23  0.71
      P1  H 10752 10765       L1    20  0.93

> <Gold.PLP.Chemscore.Internal.Correction>
0.0348

> <Gold.Rescore>
     Score         DG    S(hbond)    S(metal)    S(lipo)     H(rot)  DE(clash)    DE(int)     intcor
     19.18     -20.99       3.57        0.00      64.97       1.57       0.07       1.74       ----

> <Gold.Chemscore.Fitness>
19.1764

> <Gold.Chemscore.DG>
-20.9866

> <Gold.Chemscore.ZeroCoef>
-5.4800

> <Gold.Chemscore.Hbond>
3.5667

> <Gold.Chemscore.Metal>
0.0000

> <Gold.Chemscore.Lipo>
64.9728

> <Gold.Chemscore.Internal_Hbond>
0.0000

> <Gold.Chemscore.DEClash>
0.0712

> <Gold.Chemscore.DEInternal>
1.7390

> <Gold.Chemscore.Rot>
1.5656

> <Gold.Chemscore.Internal.Correction>
   9.000000E+99

> <Gold.Chemscore.Hbonds>
donor molecule, donor type, donor heavy atom, donor atom, acceptor molecule, acceptor atom, score
      L1  H     8    31       P1  7948  0.88
      L1  H    11    32       P1  7948  0.92
      P1  H 10752 10763       L1    23  0.35
      P1  H 10752 10765       L1    20  0.90

> <Gold.Chemscore.Hbond.Weighted>
-11.9127

> <Gold.Chemscore.Metal.Weighted>
-0.0000

> <Gold.Chemscore.Lipo.Weighted>
-7.6018

> <Gold.Chemscore.Internal_Hbond.Weighted>
0.0000

> <Gold.Chemscore.DEClash.Weighted>
0.0712

> <Gold.Chemscore.DEInternal.Weighted>
1.7390

> <Gold.Chemscore.Rot.Weighted>
4.0079

> <Gold.Chemscore.Internal.Correction.Weighted>
   9.000000E+99

> <Gold.Protein.RotatedTorsions>
[ 6907 6896 6895 6894 ] final  -75.93 input  -60.11 | X-H torsion
[ 7974 7965 7964 7962 ] final  -12.59 input  175.53 | X-H torsion
[ 8008 7997 7996 7995 ] final  176.31 input   59.86 | X-H torsion
[ 10167 10162 10161 10158 ] final  132.86 input  -65.29 | X-H torsion
[ 10718 10713 10712 10709 ] final -120.13 input   66.30 | X-H torsion
[ 10763 10752 10751 10750 ] final  157.30 input  -60.55 | X-H torsion
[ 11005 11000 10999 10996 ] final  138.44 input  -57.11 | X-H torsion

> <Gold.Protein.ActiveResidues>
 VAL166  LYS551  ARG553  GLY616  TRP617  ASP618  TYR619  PRO620  LYS621  CYS622 
 ASP623  PHE694  ASN695  SER759  ASP760  ASP761  ALA762  ILE779  LEU786  VAL792 
 PHE793  MET794  SER795  GLU796  ALA797  LYS798  CYS799  TRP800  GLU811  SER814 

> <Gold.Protein.RotatedAtoms>
  150.7043  134.4647  159.5396 H   0  0  0  0  0  0  0  0  0  0  0  0  # atno 6907 bound_to 6896
  152.2315  134.8314  160.0482 H   0  0  0  0  0  0  0  0  0  0  0  0  # atno 6908 bound_to 6896
  151.9129  133.3530  159.3906 H   0  0  0  0  0  0  0  0  0  0  0  0  # atno 6909 bound_to 6896
  146.2146  140.3079  142.8380 H   0  0  0  0  0  0  0  0  0  0  0  0  # atno 7974 bound_to 7965
  156.0778  140.1387  156.9750 H   0  0  0  0  0  0  0  0  0  0  0  0  # atno 8008 bound_to 7997
  154.4567  140.0958  156.6828 H   0  0  0  0  0  0  0  0  0  0  0  0  # atno 8009 bound_to 7997
  155.5125  140.3454  155.4393 H   0  0  0  0  0  0  0  0  0  0  0  0  # atno 8010 bound_to 7997
  139.5321  144.6642  151.4913 H   0  0  0  0  0  0  0  0  0  0  0  0  # atno 10167 bound_to 10162
  156.1234  130.6341  150.9503 H   0  0  0  0  0  0  0  0  0  0  0  0  # atno 10718 bound_to 10713
  154.1980  135.2791  155.3000 H   0  0  0  0  0  0  0  0  0  0  0  0  # atno 10763 bound_to 10752
  154.5876  135.5570  153.7250 H   0  0  0  0  0  0  0  0  0  0  0  0  # atno 10764 bound_to 10752
  153.0095  135.6360  154.2119 H   0  0  0  0  0  0  0  0  0  0  0  0  # atno 10765 bound_to 10752
  140.0184  134.9408  157.0424 H   0  0  0  0  0  0  0  0  0  0  0  0  # atno 11005 bound_to 11000
  144.9009  140.7641  143.5867 LP  0  0  0  0  0  0  0  0  0  0  0  0  # atno 17320 bound_to 7965
  145.3005  139.1852  143.4692 LP  0  0  0  0  0  0  0  0  0  0  0  0  # atno 17321 bound_to 7965
  140.6506  143.8704  150.6782 LP  0  0  0  0  0  0  0  0  0  0  0  0  # atno 17342 bound_to 10162
  140.2068  143.3915  152.1749 LP  0  0  0  0  0  0  0  0  0  0  0  0  # atno 17343 bound_to 10162
  157.6417  131.0909  150.8237 LP  0  0  0  0  0  0  0  0  0  0  0  0  # atno 17370 bound_to 10713
  156.8331  130.5022  149.5329 LP  0  0  0  0  0  0  0  0  0  0  0  0  # atno 17371 bound_to 10713
  140.4430  134.1661  155.7175 LP  0  0  0  0  0  0  0  0  0  0  0  0  # atno 17394 bound_to 11000
  141.1758  133.8517  157.1426 LP  0  0  0  0  0  0  0  0  0  0  0  0  # atno 17395 bound_to 11000

$$$$
