AV-unprocessed.smi:2741|AV-procd|sdf|10560|dock2
  -GOLD-   2272015 13D 1   1.00000     0.00000
 Structure written by MMmdl.
 39 40  0  0  0  0  0  0  0  0  1 V2000
  152.6492  139.6512  156.0390 O   0  0  0  0  0  0  0  0  0  0  0  0
  151.8068  139.8638  156.9123 C   0  0  0  0  0  0  0  0  0  0  0  0
  152.0543  139.4413  158.3677 C   0  0  0  0  0  0  0  0  0  0  0  0
  152.4755  140.5544  159.2352 N   0  0  0  0  0  0  0  0  0  0  0  0
  152.0388  141.8459  158.8795 C   0  0  0  0  0  0  0  0  0  0  0  0
  152.3712  142.9498  159.5758 C   0  0  0  0  0  0  0  0  0  0  0  0
  151.8424  144.3233  159.1930 C   0  0  0  0  0  0  0  0  0  0  0  0
  150.5371  144.2800  158.9254 F   0  0  0  0  0  0  0  0  0  0  0  0
  152.0330  145.1779  160.1969 F   0  0  0  0  0  0  0  0  0  0  0  0
  152.4747  144.7978  158.1189 F   0  0  0  0  0  0  0  0  0  0  0  0
  153.1897  142.7467  160.7549 C   0  0  0  0  0  0  0  0  0  0  0  0
  153.6104  141.5177  161.1128 C   0  0  0  0  0  0  0  0  0  0  0  0
  153.2601  140.3294  160.3315 C   0  0  0  0  0  0  0  0  0  0  0  0
  153.6471  139.2026  160.6427 O   0  0  0  0  0  0  0  0  0  0  0  0
  150.6414  140.4834  156.6715 N   0  0  0  0  0  0  0  0  0  0  0  0
  150.2057  140.9740  155.3685 C   0  0  0  0  0  0  0  0  0  0  0  0
  148.7614  140.5488  155.0406 C   0  0  2  0  0  0  0  0  0  0  0  0
  148.6102  139.0831  154.5900 C   0  0  0  0  0  0  0  0  0  0  0  0
  147.5256  139.0679  153.5004 C   0  0  0  0  0  0  0  0  0  0  0  0
  146.9613  140.4910  153.4564 C   0  0  2  0  0  0  0  0  0  0  0  0
  146.5025  140.8444  152.1688 O   0  0  0  0  0  0  0  0  0  0  0  0
  148.1228  141.3688  153.9168 C   0  0  0  0  0  0  0  0  0  0  0  0
  151.1397  138.9847  158.7485 H   0  0  0  0  0  0  0  0  0  0  0  0
  152.8003  138.6445  158.3900 H   0  0  0  0  0  0  0  0  0  0  0  0
  151.4172  141.8833  157.9967 H   0  0  0  0  0  0  0  0  0  0  0  0
  153.4758  143.5946  161.3596 H   0  0  0  0  0  0  0  0  0  0  0  0
  154.2218  141.4040  161.9960 H   0  0  0  0  0  0  0  0  0  0  0  0
  150.0083  140.6223  157.4459 H   0  0  0  0  0  0  0  0  0  0  0  0
  150.2978  142.0609  155.3316 H   0  0  0  0  0  0  0  0  0  0  0  0
  150.8905  140.5828  154.6155 H   0  0  0  0  0  0  0  0  0  0  0  0
  148.1433  140.6877  155.9292 H   0  0  0  0  0  0  0  0  0  0  0  0
  149.5444  138.6967  154.1807 H   0  0  0  0  0  0  0  0  0  0  0  0
  148.3399  138.4464  155.4332 H   0  0  0  0  0  0  0  0  0  0  0  0
  147.9855  138.8132  152.5443 H   0  0  0  0  0  0  0  0  0  0  0  0
  146.7491  138.3276  153.6957 H   0  0  0  0  0  0  0  0  0  0  0  0
  146.1368  140.5781  154.1656 H   0  0  0  0  0  0  0  0  0  0  0  0
  145.5968  140.5861  152.0911 H   0  0  0  0  0  0  0  0  0  0  0  0
  147.7986  142.3553  154.2493 H   0  0  0  0  0  0  0  0  0  0  0  0
  148.8364  141.5068  153.1023 H   0  0  0  0  0  0  0  0  0  0  0  0
  1  2  2  0  0  0  0
  2  3  1  0  0  0  0
  2 15  1  0  0  0  0
  3  4  1  0  0  0  0
  3 23  1  0  0  0  0
  3 24  1  0  0  0  0
  4 13  1  0  0  0  0
  4  5  1  0  0  0  0
  5  6  2  0  0  0  0
  5 25  1  0  0  0  0
  6  7  1  0  0  0  0
  6 11  1  0  0  0  0
  7  8  1  0  0  0  0
  7  9  1  0  0  0  0
  7 10  1  0  0  0  0
 11 12  2  0  0  0  0
 11 26  1  0  0  0  0
 12 13  1  0  0  0  0
 12 27  1  0  0  0  0
 13 14  2  0  0  0  0
 15 16  1  0  0  0  0
 15 28  1  0  0  0  0
 16 17  1  0  0  0  0
 16 29  1  0  0  0  0
 16 30  1  0  0  0  0
 17 22  1  0  0  0  0
 17 18  1  0  0  0  0
 17 31  1  0  0  0  0
 18 19  1  0  0  0  0
 18 32  1  0  0  0  0
 18 33  1  0  0  0  0
 19 20  1  0  0  0  0
 19 34  1  0  0  0  0
 19 35  1  0  0  0  0
 20 21  1  0  0  0  0
 20 22  1  0  0  0  0
 20 36  1  0  0  0  0
 21 37  1  0  0  0  0
 22 38  1  0  0  0  0
 22 39  1  0  0  0  0
M  END
> <s_m_source_file>
AV-unprocessed.smi

> <i_m_source_file_index>
2741

> <i_lp_mmshare_version>
43012

> <i_f3d_flags>
0

> <s_epik_input>
W09IXVtDQEBIXShbQ0gyXTEpW0NIMl1bQ0gyXVtDQEhdMVtDSDJdW05IXUMoPU8pW0NIMl1uMltjSF1jKEMoRikoRilGKVtjSF1bY0hdYzI9Tw==

> <s_epik_cmdline>
J2VwaWtfcHl0aG9uJywgJy1waCcsICc3LjAnLCAnLXRuJywgJzgnLCAnLW1hJywgJzIwMCcsICctbWV0YWxfYmluZGluZycsICctaW1hZScsICc8aW5maWxlLm1hZT4nLCAnLW9tYWUnLCAnPG91dGZpbGUubWFlPic=

> <r_lp_tautomer_probability>
1

> <r_epik_Ionization_Penalty>
1.17551e-06

> <r_epik_Ionization_Penalty_Charging>
1.78841e-08

> <r_epik_Ionization_Penalty_Neutral>
1.15762e-06

> <r_epik_State_Penalty>
-0

> <r_epik_Charging_Adjusted_Penalty>
1.78841e-08

> <i_epik_Tot_Q>
0

> <i_epik_Tot_abs_Q>
0

> <r_epik_Metal_State_Penalty>
-0

> <b_epik_Metal_Only>
0

> <s_lp_Force_Field>
OPLS_2005

> <r_lp_Energy>
33.0279

> <b_lp_Chiralities_Consistent>
1

> <s_lp_Variant>
AV-unprocessed.smi:2741-3

> <Gold.Version>
5.8.1

> <Gold.Id.Protein>
6NUR|6NUR_protein|mol2

> <Gold.PLP.Fitness>
51.8878

> <Gold.PLP.PLP>
-50.1750

> <Gold.PLP.part.hbond>
-2.3639

> <Gold.PLP.part.metal>
0.0000

> <Gold.PLP.part.buried>
-4.4481

> <Gold.PLP.part.nonpolar>
-43.2455

> <Gold.PLP.part.repulsive>
0.0729

> <Gold.PLP.ligand.clash>
1.7688

> <Gold.PLP.ligand.torsion>
1.3093

> <Gold.PLP.Chemscore.Hbond>
2.0000

> <Gold.PLP.Chemscore.CHOScore>
0.0000

> <Gold.PLP.Chemscore.Metal>
0.0000

> <Gold.Chemscore.Hbonds>
donor molecule, donor type, donor heavy atom, donor atom, acceptor molecule, acceptor atom, score
      L1  H    21    37       P1 10175  0.80
      P1  H  7997  8010       L1     1  1.00

> <Gold.PLP.Chemscore.Internal.Correction>
0.1003

> <Gold.Rescore>
     Score         DG    S(hbond)    S(metal)    S(lipo)     H(rot)  DE(clash)    DE(int)     intcor
     14.28     -16.39       1.87        0.00      94.04       2.48       0.09       2.03       ----

> <Gold.Chemscore.Fitness>
14.2754

> <Gold.Chemscore.DG>
-16.3930

> <Gold.Chemscore.ZeroCoef>
-5.4800

> <Gold.Chemscore.Hbond>
1.8744

> <Gold.Chemscore.Metal>
0.0000

> <Gold.Chemscore.Lipo>
94.0446

> <Gold.Chemscore.Internal_Hbond>
0.0000

> <Gold.Chemscore.DEClash>
0.0910

> <Gold.Chemscore.DEInternal>
2.0265

> <Gold.Chemscore.Rot>
2.4807

> <Gold.Chemscore.Internal.Correction>
   9.000000E+99

> <Gold.Chemscore.Hbonds>
donor molecule, donor type, donor heavy atom, donor atom, acceptor molecule, acceptor atom, score
      L1  H    21    37       P1 10175  0.12
      P1  H  7997  8010       L1     1  1.00

> <Gold.Chemscore.Hbond.Weighted>
-6.2604

> <Gold.Chemscore.Metal.Weighted>
-0.0000

> <Gold.Chemscore.Lipo.Weighted>
-11.0032

> <Gold.Chemscore.Internal_Hbond.Weighted>
0.0000

> <Gold.Chemscore.DEClash.Weighted>
0.0910

> <Gold.Chemscore.DEInternal.Weighted>
2.0265

> <Gold.Chemscore.Rot.Weighted>
6.3507

> <Gold.Chemscore.Internal.Correction.Weighted>
   9.000000E+99

> <Gold.Protein.RotatedTorsions>
[ 6907 6896 6895 6894 ] final -128.01 input  -60.11 | X-H torsion
[ 7974 7965 7964 7962 ] final  -16.31 input  175.53 | X-H torsion
[ 8008 7997 7996 7995 ] final   88.24 input   59.86 | X-H torsion
[ 10167 10162 10161 10158 ] final  -79.66 input  -65.29 | X-H torsion
[ 10718 10713 10712 10709 ] final   60.54 input   66.30 | X-H torsion
[ 10763 10752 10751 10750 ] final  -16.56 input  -60.55 | X-H torsion
[ 11005 11000 10999 10996 ] final  -44.07 input  -57.11 | X-H torsion

> <Gold.Protein.ActiveResidues>
 VAL166  LYS551  ARG553  GLY616  TRP617  ASP618  TYR619  PRO620  LYS621  CYS622 
 ASP623  PHE694  ASN695  SER759  ASP760  ASP761  ALA762  ILE779  LEU786  VAL792 
 PHE793  MET794  SER795  GLU796  ALA797  LYS798  CYS799  TRP800  GLU811  SER814 

> <Gold.Protein.RotatedAtoms>
  150.9133  133.6970  159.2849 H   0  0  0  0  0  0  0  0  0  0  0  0  # atno 6907 bound_to 6896
  151.4449  135.1023  159.9690 H   0  0  0  0  0  0  0  0  0  0  0  0  # atno 6908 bound_to 6896
  152.4941  133.8533  159.7268 H   0  0  0  0  0  0  0  0  0  0  0  0  # atno 6909 bound_to 6896
  146.1993  140.3618  142.8429 H   0  0  0  0  0  0  0  0  0  0  0  0  # atno 7974 bound_to 7965
  155.9853  140.3373  155.6702 H   0  0  0  0  0  0  0  0  0  0  0  0  # atno 8008 bound_to 7997
  155.6493  140.0704  157.2610 H   0  0  0  0  0  0  0  0  0  0  0  0  # atno 8009 bound_to 7997
  154.4203  140.1728  156.1645 H   0  0  0  0  0  0  0  0  0  0  0  0  # atno 8010 bound_to 7997
  140.4573  143.2464  151.8400 H   0  0  0  0  0  0  0  0  0  0  0  0  # atno 10167 bound_to 10162
  157.5761  130.8945  149.9349 H   0  0  0  0  0  0  0  0  0  0  0  0  # atno 10718 bound_to 10713
  153.5603  135.7010  153.5550 H   0  0  0  0  0  0  0  0  0  0  0  0  # atno 10763 bound_to 10752
  153.3435  135.4014  155.1590 H   0  0  0  0  0  0  0  0  0  0  0  0  # atno 10764 bound_to 10752
  154.8648  135.3748  154.5120 H   0  0  0  0  0  0  0  0  0  0  0  0  # atno 10765 bound_to 10752
  141.0426  133.6774  156.2821 H   0  0  0  0  0  0  0  0  0  0  0  0  # atno 11005 bound_to 11000
  144.8648  140.7191  143.6084 LP  0  0  0  0  0  0  0  0  0  0  0  0  # atno 17320 bound_to 7965
  145.3538  139.1699  143.4420 LP  0  0  0  0  0  0  0  0  0  0  0  0  # atno 17321 bound_to 7965
  139.4802  144.5049  151.9011 LP  0  0  0  0  0  0  0  0  0  0  0  0  # atno 17342 bound_to 10162
  140.4135  144.2337  150.5888 LP  0  0  0  0  0  0  0  0  0  0  0  0  # atno 17343 bound_to 10162
  156.0806  130.3673  150.0589 LP  0  0  0  0  0  0  0  0  0  0  0  0  # atno 17370 bound_to 10713
  156.8735  130.9532  151.3607 LP  0  0  0  0  0  0  0  0  0  0  0  0  # atno 17371 bound_to 10713
  140.6206  134.5365  157.5547 LP  0  0  0  0  0  0  0  0  0  0  0  0  # atno 17394 bound_to 11000
  139.9287  134.8005  156.0993 LP  0  0  0  0  0  0  0  0  0  0  0  0  # atno 17395 bound_to 11000

$$$$
