AV-unprocessed.smi:625|AV-procd|sdf|3105|dock1
  -GOLD-   22720 0 23D 1   1.00000     0.00000
 Structure written by MMmdl.
 49 51  0  0  0  0  0  0  0  0  1 V2000
  145.5490  136.2420  151.6040 C   0  0  0  0  0  0  0  0  0  0  0  0
  146.3406  135.7473  152.7194 N   0  0  0  0  0  0  0  0  0  0  0  0
  145.8342  135.3397  153.8965 C   0  0  0  0  0  0  0  0  0  0  0  0
  144.6242  135.3691  154.1242 O   0  0  0  0  0  0  0  0  0  0  0  0
  146.8396  134.8557  154.8467 C   0  0  0  0  0  0  0  0  0  0  0  0
  146.4374  134.5113  156.1964 C   0  0  0  0  0  0  0  0  0  0  0  0
  147.3310  134.0209  157.0782 C   0  0  0  0  0  0  0  0  0  0  0  0
  148.7378  133.8161  156.7189 C   0  0  0  0  0  0  0  0  0  0  0  0
  149.5511  133.3432  157.5127 O   0  0  0  0  0  0  0  0  0  0  0  0
  149.0835  134.1814  155.4476 N   0  0  0  0  0  0  0  0  0  0  0  0
  150.4507  133.9967  154.9356 C   0  0  0  0  0  0  0  0  0  0  0  0
  151.2365  135.3102  155.0045 C   0  0  0  0  0  0  0  0  0  0  0  0
  152.2109  135.4123  155.7499 O   0  0  0  0  0  0  0  0  0  0  0  0
  150.8100  136.2917  154.1951 N   0  0  0  0  0  0  0  0  0  0  0  0
  151.5010  137.5536  153.9388 C   0  0  2  0  0  0  0  0  0  0  0  0
  153.0135  137.2811  153.8946 C   0  0  0  0  0  0  0  0  0  0  0  0
  151.1013  138.5807  155.0294 C   0  0  2  0  0  0  0  0  0  0  0  0
  151.1659  140.0590  154.5622 C   0  0  0  0  0  0  0  0  0  0  0  0
  152.0409  140.7333  155.6314 C   0  0  1  0  0  0  0  0  0  0  0  0
  151.2757  140.7892  156.9657 C   0  0  0  0  0  0  0  0  0  0  0  0
  151.2931  139.3192  157.4260 C   0  0  0  0  0  0  0  0  0  0  0  0
  152.0267  138.6082  156.2718 C   0  0  2  0  0  0  0  0  0  0  0  0
  153.0771  139.6500  155.8984 C   0  0  0  0  0  0  0  0  0  0  0  0
  148.1421  134.6913  154.5305 C   0  0  0  0  0  0  0  0  0  0  0  0
  146.2024  136.4898  150.7675 H   0  0  0  0  0  0  0  0  0  0  0  0
  144.9988  137.1405  151.8866 H   0  0  0  0  0  0  0  0  0  0  0  0
  144.8369  135.4872  151.2682 H   0  0  0  0  0  0  0  0  0  0  0  0
  147.3403  135.6961  152.5872 H   0  0  0  0  0  0  0  0  0  0  0  0
  145.4121  134.6426  156.5116 H   0  0  0  0  0  0  0  0  0  0  0  0
  147.0036  133.7704  158.0765 H   0  0  0  0  0  0  0  0  0  0  0  0
  150.9521  133.2250  155.5226 H   0  0  0  0  0  0  0  0  0  0  0  0
  150.4682  133.6333  153.9071 H   0  0  0  0  0  0  0  0  0  0  0  0
  149.9855  136.1131  153.6403 H   0  0  0  0  0  0  0  0  0  0  0  0
  151.2058  137.9500  152.9661 H   0  0  0  0  0  0  0  0  0  0  0  0
  153.5784  138.1751  153.6329 H   0  0  0  0  0  0  0  0  0  0  0  0
  153.2511  136.5235  153.1470 H   0  0  0  0  0  0  0  0  0  0  0  0
  153.3814  136.9237  154.8569 H   0  0  0  0  0  0  0  0  0  0  0  0
  150.0818  138.3501  155.3434 H   0  0  0  0  0  0  0  0  0  0  0  0
  151.6488  140.1567  153.5891 H   0  0  0  0  0  0  0  0  0  0  0  0
  150.1777  140.5133  154.4851 H   0  0  0  0  0  0  0  0  0  0  0  0
  152.4486  141.6950  155.3185 H   0  0  0  0  0  0  0  0  0  0  0  0
  151.7940  141.4228  157.6866 H   0  0  0  0  0  0  0  0  0  0  0  0
  150.2634  141.1766  156.8443 H   0  0  0  0  0  0  0  0  0  0  0  0
  151.8517  139.2183  158.3575 H   0  0  0  0  0  0  0  0  0  0  0  0
  150.2914  138.9223  157.5953 H   0  0  0  0  0  0  0  0  0  0  0  0
  152.4306  137.6392  156.5623 H   0  0  0  0  0  0  0  0  0  0  0  0
  153.6633  139.3838  155.0173 H   0  0  0  0  0  0  0  0  0  0  0  0
  153.7558  139.8936  156.7178 H   0  0  0  0  0  0  0  0  0  0  0  0
  148.5625  134.9089  153.5587 H   0  0  0  0  0  0  0  0  0  0  0  0
  1  2  1  0  0  0  0
  1 25  1  0  0  0  0
  1 26  1  0  0  0  0
  1 27  1  0  0  0  0
  2  3  1  0  0  0  0
  2 28  1  0  0  0  0
  3  4  2  0  0  0  0
  3  5  1  0  0  0  0
  5 24  2  0  0  0  0
  5  6  1  0  0  0  0
  6  7  2  0  0  0  0
  6 29  1  0  0  0  0
  7  8  1  0  0  0  0
  7 30  1  0  0  0  0
  8  9  2  0  0  0  0
  8 10  1  0  0  0  0
 10 11  1  0  0  0  0
 10 24  1  0  0  0  0
 11 12  1  0  0  0  0
 11 31  1  0  0  0  0
 11 32  1  0  0  0  0
 12 13  2  0  0  0  0
 12 14  1  0  0  0  0
 14 15  1  0  0  0  0
 14 33  1  0  0  0  0
 15 16  1  0  0  0  0
 15 17  1  0  0  0  0
 15 34  1  0  0  0  0
 16 35  1  0  0  0  0
 16 36  1  0  0  0  0
 16 37  1  0  0  0  0
 17 22  1  0  0  0  0
 17 18  1  0  0  0  0
 17 38  1  0  0  0  0
 18 19  1  0  0  0  0
 18 39  1  0  0  0  0
 18 40  1  0  0  0  0
 19 23  1  0  0  0  0
 19 20  1  0  0  0  0
 19 41  1  0  0  0  0
 20 21  1  0  0  0  0
 20 42  1  0  0  0  0
 20 43  1  0  0  0  0
 21 22  1  0  0  0  0
 21 44  1  0  0  0  0
 21 45  1  0  0  0  0
 22 23  1  0  0  0  0
 22 46  1  0  0  0  0
 23 47  1  0  0  0  0
 23 48  1  0  0  0  0
 24 49  1  0  0  0  0
M  END
> <s_m_source_file>
AV-unprocessed.smi

> <i_m_source_file_index>
625

> <i_lp_mmshare_version>
43012

> <i_f3d_flags>
0

> <s_epik_input>
W0NIM11bTkhdQyg9TyljMVtjSF1bY0hdYyg9TyluKFtjSF0xKVtDSDJdQyg9TylbTkhdW0NASF0oW0NIM10pW0NASF0oW0NIMl1bQ0BIXTIzKVtDQEhdKFtDSDJdMylbQ0gyXVtDSDJdMg==

> <s_epik_cmdline>
J2VwaWtfcHl0aG9uJywgJy1waCcsICc3LjAnLCAnLXRuJywgJzgnLCAnLW1hJywgJzIwMCcsICctbWV0YWxfYmluZGluZycsICctaW1hZScsICc8aW5maWxlLm1hZT4nLCAnLW9tYWUnLCAnPG91dGZpbGUubWFlPic=

> <r_lp_tautomer_probability>
1

> <r_epik_Ionization_Penalty>
3.7129e-07

> <r_epik_Ionization_Penalty_Charging>
5.04114e-08

> <r_epik_Ionization_Penalty_Neutral>
3.20879e-07

> <r_epik_State_Penalty>
-0

> <r_epik_Charging_Adjusted_Penalty>
5.04114e-08

> <i_epik_Tot_Q>
0

> <i_epik_Tot_abs_Q>
0

> <r_epik_Metal_State_Penalty>
-0

> <b_epik_Metal_Only>
0

> <s_lp_Force_Field>
OPLS_2005

> <r_lp_Energy>
64.2087

> <b_lp_Chiralities_Consistent>
1

> <s_lp_Variant>
AV-unprocessed.smi:625-5

> <Gold.Version>
5.8.1

> <Gold.Id.Protein>
6NUR|6NUR_protein|mol2

> <Gold.PLP.Fitness>
42.8924

> <Gold.PLP.PLP>
-31.3921

> <Gold.PLP.part.hbond>
-4.6317

> <Gold.PLP.part.metal>
0.0000

> <Gold.PLP.part.buried>
-3.0329

> <Gold.PLP.part.nonpolar>
-23.2550

> <Gold.PLP.part.repulsive>
0.1552

> <Gold.PLP.ligand.clash>
0.0000

> <Gold.PLP.ligand.torsion>
1.4317

> <Gold.PLP.Chemscore.Hbond>
3.7587

> <Gold.PLP.Chemscore.CHOScore>
1.0000

> <Gold.PLP.Chemscore.Metal>
0.0000

> <Gold.Chemscore.Hbonds>
donor molecule, donor type, donor heavy atom, donor atom, acceptor molecule, acceptor atom, score
      L1  H     2    28       P1  7948  1.00
      L1  H    14    33       P1  7948  0.69
      P1  H  6896  6907       L1     9  0.62
      P1  H 10752 10763       L1    13  0.22
      L1  C    24    49       P1  7948  1.00

> <Gold.PLP.Chemscore.Internal.Correction>
0.0876

> <Gold.Rescore>
     Score         DG    S(hbond)    S(metal)    S(lipo)     H(rot)  DE(clash)    DE(int)     intcor
     14.23     -18.16       2.46        0.00      74.71       1.67       0.17       3.76       ----

> <Gold.Chemscore.Fitness>
14.2273

> <Gold.Chemscore.DG>
-18.1559

> <Gold.Chemscore.ZeroCoef>
-5.4800

> <Gold.Chemscore.Hbond>
2.4586

> <Gold.Chemscore.Metal>
0.0000

> <Gold.Chemscore.Lipo>
74.7140

> <Gold.Chemscore.Internal_Hbond>
0.0000

> <Gold.Chemscore.DEClash>
0.1702

> <Gold.Chemscore.DEInternal>
3.7583

> <Gold.Chemscore.Rot>
1.6709

> <Gold.Chemscore.Internal.Correction>
   9.000000E+99

> <Gold.Chemscore.Hbonds>
donor molecule, donor type, donor heavy atom, donor atom, acceptor molecule, acceptor atom, score
      L1  H     2    28       P1  7948  0.98
      L1  H    14    33       P1  7948  0.07
      P1  H  6896  6907       L1     9  0.60
      P1  H 10752 10763       L1    13  0.21

> <Gold.Chemscore.Hbond.Weighted>
-8.2117

> <Gold.Chemscore.Metal.Weighted>
-0.0000

> <Gold.Chemscore.Lipo.Weighted>
-8.7415

> <Gold.Chemscore.Internal_Hbond.Weighted>
0.0000

> <Gold.Chemscore.DEClash.Weighted>
0.1702

> <Gold.Chemscore.DEInternal.Weighted>
3.7583

> <Gold.Chemscore.Rot.Weighted>
4.2774

> <Gold.Chemscore.Internal.Correction.Weighted>
   9.000000E+99

> <Gold.Protein.RotatedTorsions>
[ 6907 6896 6895 6894 ] final -121.57 input  -60.11 | X-H torsion
[ 7974 7965 7964 7962 ] final  178.92 input  175.53 | X-H torsion
[ 8008 7997 7996 7995 ] final -109.73 input   59.86 | X-H torsion
[ 10167 10162 10161 10158 ] final   13.20 input  -65.29 | X-H torsion
[ 10718 10713 10712 10709 ] final   71.29 input   66.30 | X-H torsion
[ 10763 10752 10751 10750 ] final  105.39 input  -60.55 | X-H torsion
[ 11005 11000 10999 10996 ] final  -22.45 input  -57.11 | X-H torsion

> <Gold.Protein.ActiveResidues>
 VAL166  LYS551  ARG553  GLY616  TRP617  ASP618  TYR619  PRO620  LYS621  CYS622 
 ASP623  PHE694  ASN695  SER759  ASP760  ASP761  ALA762  ILE779  LEU786  VAL792 
 PHE793  MET794  SER795  GLU796  ALA797  LYS798  CYS799  TRP800  GLU811  SER814 

> <Gold.Protein.RotatedAtoms>
  150.8496  133.7808  159.3030 H   0  0  0  0  0  0  0  0  0  0  0  0  # atno 6907 bound_to 6896
  151.5484  135.1066  159.9953 H   0  0  0  0  0  0  0  0  0  0  0  0  # atno 6908 bound_to 6896
  152.4541  133.7645  159.6821 H   0  0  0  0  0  0  0  0  0  0  0  0  # atno 6909 bound_to 6896
  144.7151  140.0470  143.6436 H   0  0  0  0  0  0  0  0  0  0  0  0  # atno 7974 bound_to 7965
  154.9638  140.0398  157.2202 H   0  0  0  0  0  0  0  0  0  0  0  0  # atno 8008 bound_to 7997
  154.7864  140.2828  155.6002 H   0  0  0  0  0  0  0  0  0  0  0  0  # atno 8009 bound_to 7997
  156.2943  140.2581  156.2702 H   0  0  0  0  0  0  0  0  0  0  0  0  # atno 8010 bound_to 7997
  140.6018  143.8589  150.6973 H   0  0  0  0  0  0  0  0  0  0  0  0  # atno 10167 bound_to 10162
  157.6444  130.9521  150.0769 H   0  0  0  0  0  0  0  0  0  0  0  0  # atno 10718 bound_to 10713
  153.3788  135.3911  155.1842 H   0  0  0  0  0  0  0  0  0  0  0  0  # atno 10763 bound_to 10752
  154.8705  135.3720  154.4884 H   0  0  0  0  0  0  0  0  0  0  0  0  # atno 10764 bound_to 10752
  153.5359  135.7085  153.5721 H   0  0  0  0  0  0  0  0  0  0  0  0  # atno 10765 bound_to 10752
  140.8658  133.7756  156.0127 H   0  0  0  0  0  0  0  0  0  0  0  0  # atno 11005 bound_to 11000
  145.9976  139.3065  143.0947 LP  0  0  0  0  0  0  0  0  0  0  0  0  # atno 17320 bound_to 7965
  145.8831  140.9351  143.0591 LP  0  0  0  0  0  0  0  0  0  0  0  0  # atno 17321 bound_to 7965
  140.2137  143.3863  152.1698 LP  0  0  0  0  0  0  0  0  0  0  0  0  # atno 17342 bound_to 10162
  139.5296  144.7144  151.5103 LP  0  0  0  0  0  0  0  0  0  0  0  0  # atno 17343 bound_to 10162
  156.1756  130.3648  149.9104 LP  0  0  0  0  0  0  0  0  0  0  0  0  # atno 17370 bound_to 10713
  156.7069  130.8955  151.3605 LP  0  0  0  0  0  0  0  0  0  0  0  0  # atno 17371 bound_to 10713
  140.8631  134.2817  157.5225 LP  0  0  0  0  0  0  0  0  0  0  0  0  # atno 17394 bound_to 11000
  139.8709  134.9528  156.4127 LP  0  0  0  0  0  0  0  0  0  0  0  0  # atno 17395 bound_to 11000

$$$$
