AV-unprocessed.smi:586|AV-procd|sdf|3001|dock1
  -GOLD-   2262023503D 1   1.00000     0.00000
 Structure written by MMmdl.
 49 49  0  0  0  0  0  0  0  0  1 V2000
  144.5141  133.5649  150.3405 C   0  0  0  0  0  0  0  0  0  0  0  0
  145.7059  134.2790  150.9920 C   0  0  0  0  0  0  0  0  0  0  0  0
  145.4718  134.7113  152.4542 C   0  0  0  0  0  0  0  0  0  0  0  0
  146.2480  133.9564  153.4219 N   0  0  0  0  0  0  0  0  0  0  0  0
  147.1357  134.5559  154.3203 C   0  0  0  0  0  0  0  0  0  0  0  0
  147.2808  135.9347  154.2607 N   0  0  0  0  0  0  0  0  0  0  0  0
  147.8164  133.8273  155.2573 C   0  0  0  0  0  0  0  0  0  0  0  0
  148.7354  134.4297  156.1383 N   0  0  0  0  0  0  0  0  0  0  0  0
  150.0490  134.7637  155.5561 C   0  0  0  0  0  0  0  0  0  0  0  0
  150.3404  136.2776  155.6089 C   0  0  0  0  0  0  0  0  0  0  0  0
  151.5394  136.6048  154.9209 O   0  0  0  0  0  0  0  0  0  0  0  0
  151.7803  137.9984  154.8035 C   0  0  0  0  0  0  0  0  0  0  0  0
  148.5294  134.5830  157.4807 C   0  0  0  0  0  0  0  0  0  0  0  0
  149.4959  134.7599  158.2266 O   0  0  0  0  0  0  0  0  0  0  0  0
  147.1072  134.6235  158.1404 C   0  0  0  0  0  0  0  0  0  0  0  0
  146.2263  133.3830  157.8572 C   0  0  0  0  0  0  0  0  0  0  0  0
  146.3357  135.8331  157.5504 C   0  0  0  0  0  0  0  0  0  0  0  0
  147.2288  134.8632  159.6600 C   0  0  0  0  0  0  0  0  0  0  0  0
  147.6964  132.3627  155.2871 C   0  0  0  0  0  0  0  0  0  0  0  0
  148.3232  131.6042  156.0257 O   0  0  0  0  0  0  0  0  0  0  0  0
  146.7927  131.8283  154.3736 N   0  0  0  0  0  0  0  0  0  0  0  0
  146.0477  132.5542  153.4521 C   0  0  0  0  0  0  0  0  0  0  0  0
  145.2613  131.9587  152.7154 O   0  0  0  0  0  0  0  0  0  0  0  0
  146.6679  130.8264  154.3806 H   0  0  0  0  0  0  0  0  0  0  0  0
  144.7692  133.2259  149.3364 H   0  0  0  0  0  0  0  0  0  0  0  0
  143.6518  134.2260  150.2534 H   0  0  0  0  0  0  0  0  0  0  0  0
  144.2135  132.6914  150.9200 H   0  0  0  0  0  0  0  0  0  0  0  0
  146.5686  133.6134  150.9623 H   0  0  0  0  0  0  0  0  0  0  0  0
  145.9759  135.1448  150.3866 H   0  0  0  0  0  0  0  0  0  0  0  0
  145.6577  135.7768  152.5949 H   0  0  0  0  0  0  0  0  0  0  0  0
  144.4280  134.5732  152.7374 H   0  0  0  0  0  0  0  0  0  0  0  0
  146.7678  136.4956  153.5953 H   0  0  0  0  0  0  0  0  0  0  0  0
  147.9110  136.4316  154.8738 H   0  0  0  0  0  0  0  0  0  0  0  0
  150.8323  134.2271  156.0892 H   0  0  0  0  0  0  0  0  0  0  0  0
  150.1120  134.4076  154.5262 H   0  0  0  0  0  0  0  0  0  0  0  0
  149.5332  136.8244  155.1217 H   0  0  0  0  0  0  0  0  0  0  0  0
  150.3779  136.6390  156.6375 H   0  0  0  0  0  0  0  0  0  0  0  0
  152.6889  138.1599  154.2236 H   0  0  0  0  0  0  0  0  0  0  0  0
  151.9217  138.4715  155.7749 H   0  0  0  0  0  0  0  0  0  0  0  0
  150.9615  138.4993  154.2855 H   0  0  0  0  0  0  0  0  0  0  0  0
  145.1747  133.5892  158.0589 H   0  0  0  0  0  0  0  0  0  0  0  0
  146.4808  132.5354  158.4918 H   0  0  0  0  0  0  0  0  0  0  0  0
  146.2916  133.0705  156.8150 H   0  0  0  0  0  0  0  0  0  0  0  0
  146.2527  135.7650  156.4646 H   0  0  0  0  0  0  0  0  0  0  0  0
  146.8145  136.7842  157.7888 H   0  0  0  0  0  0  0  0  0  0  0  0
  145.3210  135.8942  157.9459 H   0  0  0  0  0  0  0  0  0  0  0  0
  146.2801  135.1954  160.0836 H   0  0  0  0  0  0  0  0  0  0  0  0
  147.9717  135.6273  159.8931 H   0  0  0  0  0  0  0  0  0  0  0  0
  147.5025  133.9579  160.1982 H   0  0  0  0  0  0  0  0  0  0  0  0
  1  2  1  0  0  0  0
  1 25  1  0  0  0  0
  1 26  1  0  0  0  0
  1 27  1  0  0  0  0
  2  3  1  0  0  0  0
  2 28  1  0  0  0  0
  2 29  1  0  0  0  0
  3  4  1  0  0  0  0
  3 30  1  0  0  0  0
  3 31  1  0  0  0  0
  4 22  1  0  0  0  0
  4  5  1  0  0  0  0
  5  6  1  0  0  0  0
  5  7  2  0  0  0  0
  6 32  1  0  0  0  0
  6 33  1  0  0  0  0
  7  8  1  0  0  0  0
  7 19  1  0  0  0  0
  8  9  1  0  0  0  0
  8 13  1  0  0  0  0
  9 10  1  0  0  0  0
  9 34  1  0  0  0  0
  9 35  1  0  0  0  0
 10 11  1  0  0  0  0
 10 36  1  0  0  0  0
 10 37  1  0  0  0  0
 11 12  1  0  0  0  0
 12 38  1  0  0  0  0
 12 39  1  0  0  0  0
 12 40  1  0  0  0  0
 13 14  2  0  0  0  0
 13 15  1  0  0  0  0
 15 16  1  0  0  0  0
 15 17  1  0  0  0  0
 15 18  1  0  0  0  0
 16 41  1  0  0  0  0
 16 42  1  0  0  0  0
 16 43  1  0  0  0  0
 17 44  1  0  0  0  0
 17 45  1  0  0  0  0
 17 46  1  0  0  0  0
 18 47  1  0  0  0  0
 18 48  1  0  0  0  0
 18 49  1  0  0  0  0
 19 20  2  0  0  0  0
 19 21  1  0  0  0  0
 21 24  1  0  0  0  0
 21 22  1  0  0  0  0
 22 23  2  0  0  0  0
M  END
> <s_m_source_file>
AV-unprocessed.smi

> <i_m_source_file_index>
586

> <i_lp_mmshare_version>
43012

> <i_f3d_flags>
0

> <s_epik_input>
W0NIM11bQ0gyXVtDSDJdbjFjKFtOSDJdKWMoYyg9TylbbkhdYzE9TylOKEMoPU8pQyhbQ0gzXSkoW0NIM10pW0NIM10pW0NIMl1bQ0gyXU9bQ0gzXQ==

> <s_epik_cmdline>
J2VwaWtfcHl0aG9uJywgJy1waCcsICc3LjAnLCAnLXRuJywgJzgnLCAnLW1hJywgJzIwMCcsICctbWV0YWxfYmluZGluZycsICctaW1hZScsICc8aW5maWxlLm1hZT4nLCAnLW9tYWUnLCAnPG91dGZpbGUubWFlPic=

> <r_lp_tautomer_probability>
1

> <r_epik_Ionization_Penalty>
2.71493e-05

> <r_epik_Ionization_Penalty_Charging>
5.25815e-06

> <r_epik_Ionization_Penalty_Neutral>
2.18912e-05

> <r_epik_State_Penalty>
-0

> <r_epik_Charging_Adjusted_Penalty>
5.25815e-06

> <i_epik_Tot_Q>
0

> <i_epik_Tot_abs_Q>
0

> <r_epik_Metal_State_Penalty>
-0

> <b_epik_Metal_Only>
0

> <s_epik_Chemistry_Notes>
This compound has an imine and may undergo hydrolysis.

> <s_lp_Force_Field>
OPLS_2005

> <r_lp_Energy>
40.2025

> <b_lp_Chiralities_Consistent>
1

> <s_lp_Variant>
AV-unprocessed.smi:586-1

> <Gold.Version>
5.8.1

> <Gold.Id.Protein>
6NUR|6NUR_protein|mol2

> <Gold.PLP.Fitness>
34.3299

> <Gold.PLP.PLP>
-29.4016

> <Gold.PLP.part.hbond>
-3.0000

> <Gold.PLP.part.metal>
0.0000

> <Gold.PLP.part.buried>
-4.4494

> <Gold.PLP.part.nonpolar>
-22.7109

> <Gold.PLP.part.repulsive>
1.3082

> <Gold.PLP.ligand.clash>
0.0000

> <Gold.PLP.ligand.torsion>
2.0130

> <Gold.PLP.Chemscore.Hbond>
1.9440

> <Gold.PLP.Chemscore.CHOScore>
0.0000

> <Gold.PLP.Chemscore.Metal>
0.0000

> <Gold.Chemscore.Hbonds>
donor molecule, donor type, donor heavy atom, donor atom, acceptor molecule, acceptor atom, score
      P1  H  6896  6909       L1    14  0.72
      P1  H 10752 10763       L1    11  1.00

> <Gold.PLP.Chemscore.Internal.Correction>
3.1223

> <Gold.Rescore>
     Score         DG    S(hbond)    S(metal)    S(lipo)     H(rot)  DE(clash)    DE(int)     intcor
      8.72     -12.01       1.96        0.00      45.53       2.08       0.01       3.28       ----

> <Gold.Chemscore.Fitness>
8.7216

> <Gold.Chemscore.DG>
-12.0082

> <Gold.Chemscore.ZeroCoef>
-5.4800

> <Gold.Chemscore.Hbond>
1.9572

> <Gold.Chemscore.Metal>
0.0000

> <Gold.Chemscore.Lipo>
45.5317

> <Gold.Chemscore.Internal_Hbond>
0.0000

> <Gold.Chemscore.DEClash>
0.0106

> <Gold.Chemscore.DEInternal>
3.2760

> <Gold.Chemscore.Rot>
2.0843

> <Gold.Chemscore.Internal.Correction>
   9.000000E+99

> <Gold.Chemscore.Hbonds>
donor molecule, donor type, donor heavy atom, donor atom, acceptor molecule, acceptor atom, score
      P1  H  6896  6909       L1    14  0.72
      P1  H 10752 10763       L1    11  0.88

> <Gold.Chemscore.Hbond.Weighted>
-6.5369

> <Gold.Chemscore.Metal.Weighted>
-0.0000

> <Gold.Chemscore.Lipo.Weighted>
-5.3272

> <Gold.Chemscore.Internal_Hbond.Weighted>
0.0000

> <Gold.Chemscore.DEClash.Weighted>
0.0106

> <Gold.Chemscore.DEInternal.Weighted>
3.2760

> <Gold.Chemscore.Rot.Weighted>
5.3359

> <Gold.Chemscore.Internal.Correction.Weighted>
   9.000000E+99

> <Gold.Protein.RotatedTorsions>
[ 6907 6896 6895 6894 ] final    1.59 input  -60.11 | X-H torsion
[ 7974 7965 7964 7962 ] final   69.94 input  175.53 | X-H torsion
[ 8008 7997 7996 7995 ] final   86.27 input   59.86 | X-H torsion
[ 10167 10162 10161 10158 ] final  -63.36 input  -65.29 | X-H torsion
[ 10718 10713 10712 10709 ] final  -75.76 input   66.30 | X-H torsion
[ 10763 10752 10751 10750 ] final   55.97 input  -60.55 | X-H torsion
[ 11005 11000 10999 10996 ] final  -58.99 input  -57.11 | X-H torsion

> <Gold.Protein.ActiveResidues>
 VAL166  LYS551  ARG553  GLY616  TRP617  ASP618  TYR619  PRO620  LYS621  CYS622 
 ASP623  PHE694  ASN695  SER759  ASP760  ASP761  ALA762  ILE779  LEU786  VAL792 
 PHE793  MET794  SER795  GLU796  ALA797  LYS798  CYS799  TRP800  GLU811  SER814 

> <Gold.Protein.RotatedAtoms>
  151.5950  135.1051  160.0047 H   0  0  0  0  0  0  0  0  0  0  0  0  # atno 6907 bound_to 6896
  152.4287  133.7235  159.6557 H   0  0  0  0  0  0  0  0  0  0  0  0  # atno 6908 bound_to 6896
  150.8177  133.8236  159.3175 H   0  0  0  0  0  0  0  0  0  0  0  0  # atno 6909 bound_to 6896
  145.7843  139.2902  143.1247 H   0  0  0  0  0  0  0  0  0  0  0  0  # atno 7974 bound_to 7965
  155.9607  140.3393  155.6488 H   0  0  0  0  0  0  0  0  0  0  0  0  # atno 8008 bound_to 7997
  155.6802  140.0737  157.2505 H   0  0  0  0  0  0  0  0  0  0  0  0  # atno 8009 bound_to 7997
  154.4142  140.1675  156.1962 H   0  0  0  0  0  0  0  0  0  0  0  0  # atno 8010 bound_to 7997
  140.5876  143.2336  151.6209 H   0  0  0  0  0  0  0  0  0  0  0  0  # atno 10167 bound_to 10162
  156.0197  130.4449  150.3091 H   0  0  0  0  0  0  0  0  0  0  0  0  # atno 10718 bound_to 10713
  152.9824  135.5692  154.5153 H   0  0  0  0  0  0  0  0  0  0  0  0  # atno 10763 bound_to 10752
  154.4650  135.2783  155.1687 H   0  0  0  0  0  0  0  0  0  0  0  0  # atno 10764 bound_to 10752
  154.3259  135.6259  153.5582 H   0  0  0  0  0  0  0  0  0  0  0  0  # atno 10765 bound_to 10752
  141.1230  133.6614  156.5003 H   0  0  0  0  0  0  0  0  0  0  0  0  # atno 11005 bound_to 11000
  146.0042  140.8493  143.0003 LP  0  0  0  0  0  0  0  0  0  0  0  0  # atno 17320 bound_to 7965
  144.6791  140.2396  143.7345 LP  0  0  0  0  0  0  0  0  0  0  0  0  # atno 17321 bound_to 7965
  139.5207  144.3214  152.0907 LP  0  0  0  0  0  0  0  0  0  0  0  0  # atno 17342 bound_to 10162
  140.2374  144.4305  150.6274 LP  0  0  0  0  0  0  0  0  0  0  0  0  # atno 17343 bound_to 10162
  157.1193  131.0242  151.3016 LP  0  0  0  0  0  0  0  0  0  0  0  0  # atno 17370 bound_to 10713
  157.4641  130.7670  149.7263 LP  0  0  0  0  0  0  0  0  0  0  0  0  # atno 17371 bound_to 10713
  140.4451  134.6980  157.5011 LP  0  0  0  0  0  0  0  0  0  0  0  0  # atno 17394 bound_to 11000
  140.0203  134.6557  155.9249 LP  0  0  0  0  0  0  0  0  0  0  0  0  # atno 17395 bound_to 11000

$$$$
