AV-unprocessed.smi:213|AV-procd|sdf|1635|dock9
  -GOLD-   2262019593D 1   1.00000     0.00000
 Structure written by MMmdl.
 59 62  0  0  0  0  0  0  0  0  2 V2000
  146.5491  138.7473  151.7711 C   0  0  0  0  0  0  0  0  0  0  0  0
  147.1370  138.0327  152.9986 C   0  0  2  0  0  0  0  0  0  0  0  0
  146.3091  136.7791  153.3714 C   0  0  0  0  0  0  0  0  0  0  0  0
  146.2192  135.7936  152.2643 N   0  3  0  0  0  0  0  0  0  0  0  0
  146.2037  134.3895  152.7340 C   0  0  0  0  0  0  0  0  0  0  0  0
  146.2083  133.4299  151.5317 C   0  0  0  0  0  0  0  0  0  0  0  0
  145.0951  133.7092  150.6911 O   0  0  0  0  0  0  0  0  0  0  0  0
  145.1371  135.0323  150.1707 C   0  0  0  0  0  0  0  0  0  0  0  0
  145.0946  136.0418  151.3294 C   0  0  0  0  0  0  0  0  0  0  0  0
  147.3037  138.9567  154.1306 N   0  0  0  0  0  0  0  0  0  0  0  0
  146.3263  138.9498  155.2188 C   0  0  0  0  0  0  0  0  0  0  0  0
  148.5794  139.2966  154.4544 C   0  0  0  0  0  0  0  0  0  0  0  0
  149.6124  138.5779  153.9369 N   0  0  0  0  0  0  0  0  0  0  0  0
  150.8758  138.9178  154.2076 C   0  0  0  0  0  0  0  0  0  0  0  0
  151.3249  139.9270  154.9550 N   0  0  0  0  0  0  0  0  0  0  0  0
  150.2957  140.6464  155.4856 C   0  0  0  0  0  0  0  0  0  0  0  0
  148.9068  140.4023  155.2900 C   0  0  0  0  0  0  0  0  0  0  0  0
  148.1602  141.3399  155.9943 N   0  0  0  0  0  0  0  0  0  0  0  0
  149.0548  142.0961  156.5696 C   0  0  0  0  0  0  0  0  0  0  0  0
  150.3624  141.7491  156.3186 N   0  0  0  0  0  0  0  0  0  0  0  0
  151.5476  142.4107  156.8349 C   0  0  0  0  0  0  0  0  0  0  0  0
  151.6975  142.2320  158.3608 C   0  0  1  0  0  0  0  0  0  0  0  0
  153.0266  141.8802  158.6909 O   0  0  0  0  0  0  0  0  0  0  0  0
  151.2913  143.4670  159.1919 C   0  0  2  0  0  0  0  0  0  0  0  0
  151.9973  144.7621  158.7859 C   0  0  0  0  0  0  0  0  0  0  0  0
  151.9472  145.6107  160.0477 C   0  0  0  0  0  0  0  0  0  0  0  0
  151.5508  144.6239  161.1494 C   0  0  0  0  0  0  0  0  0  0  0  0
  151.6664  143.3390  160.5553 O   0  0  0  0  0  0  0  0  0  0  0  0
  146.5410  138.0849  150.9051 H   0  0  0  0  0  0  0  0  0  0  0  0
  147.1432  139.6226  151.5064 H   0  0  0  0  0  0  0  0  0  0  0  0
  145.5231  139.0745  151.9382 H   0  0  0  0  0  0  0  0  0  0  0  0
  148.1176  137.6844  152.6816 H   0  0  0  0  0  0  0  0  0  0  0  0
  146.7698  136.3032  154.2383 H   0  0  0  0  0  0  0  0  0  0  0  0
  145.3031  137.0633  153.6843 H   0  0  0  0  0  0  0  0  0  0  0  0
  147.0772  134.1970  153.3580 H   0  0  0  0  0  0  0  0  0  0  0  0
  145.3208  134.2178  153.3518 H   0  0  0  0  0  0  0  0  0  0  0  0
  147.1371  133.5199  150.9657 H   0  0  0  0  0  0  0  0  0  0  0  0
  146.1424  132.3972  151.8748 H   0  0  0  0  0  0  0  0  0  0  0  0
  146.0345  135.1711  149.5656 H   0  0  0  0  0  0  0  0  0  0  0  0
  144.2827  135.1812  149.5106 H   0  0  0  0  0  0  0  0  0  0  0  0
  144.1470  135.9587  151.8638 H   0  0  0  0  0  0  0  0  0  0  0  0
  145.1461  137.0523  150.9256 H   0  0  0  0  0  0  0  0  0  0  0  0
  146.4478  139.8284  155.8538 H   0  0  0  0  0  0  0  0  0  0  0  0
  146.4396  138.0606  155.8396 H   0  0  0  0  0  0  0  0  0  0  0  0
  145.3072  138.9681  154.8353 H   0  0  0  0  0  0  0  0  0  0  0  0
  151.6355  138.2956  153.7575 H   0  0  0  0  0  0  0  0  0  0  0  0
  148.7846  142.9305  157.2006 H   0  0  0  0  0  0  0  0  0  0  0  0
  152.4210  142.0187  156.3123 H   0  0  0  0  0  0  0  0  0  0  0  0
  151.4815  143.4677  156.5771 H   0  0  0  0  0  0  0  0  0  0  0  0
  151.0787  141.3923  158.6798 H   0  0  0  0  0  0  0  0  0  0  0  0
  153.0210  141.4288  159.5210 H   0  0  0  0  0  0  0  0  0  0  0  0
  150.2124  143.6265  159.1320 H   0  0  0  0  0  0  0  0  0  0  0  0
  153.0375  144.5702  158.5220 H   0  0  0  0  0  0  0  0  0  0  0  0
  151.5221  145.2462  157.9321 H   0  0  0  0  0  0  0  0  0  0  0  0
  152.9176  146.0664  160.2468 H   0  0  0  0  0  0  0  0  0  0  0  0
  151.2114  146.4114  159.9652 H   0  0  0  0  0  0  0  0  0  0  0  0
  152.1828  144.7065  162.0339 H   0  0  0  0  0  0  0  0  0  0  0  0
  150.5161  144.7861  161.4545 H   0  0  0  0  0  0  0  0  0  0  0  0
  147.0708  135.8960  151.7297 H   0  0  0  0  0  0  0  0  0  0  0  0
  1  2  1  0  0  0  0
  1 29  1  0  0  0  0
  1 30  1  0  0  0  0
  1 31  1  0  0  0  0
  2  3  1  0  0  0  0
  2 10  1  0  0  0  0
  2 32  1  0  0  0  0
  3  4  1  0  0  0  0
  3 33  1  0  0  0  0
  3 34  1  0  0  0  0
  4  9  1  0  0  0  0
  4  5  1  0  0  0  0
  4 59  1  0  0  0  0
  5  6  1  0  0  0  0
  5 35  1  0  0  0  0
  5 36  1  0  0  0  0
  6  7  1  0  0  0  0
  6 37  1  0  0  0  0
  6 38  1  0  0  0  0
  7  8  1  0  0  0  0
  8  9  1  0  0  0  0
  8 39  1  0  0  0  0
  8 40  1  0  0  0  0
  9 41  1  0  0  0  0
  9 42  1  0  0  0  0
 10 11  1  0  0  0  0
 10 12  1  0  0  0  0
 11 43  1  0  0  0  0
 11 44  1  0  0  0  0
 11 45  1  0  0  0  0
 12 17  1  0  0  0  0
 12 13  2  0  0  0  0
 13 14  1  0  0  0  0
 14 15  2  0  0  0  0
 14 46  1  0  0  0  0
 15 16  1  0  0  0  0
 16 20  1  0  0  0  0
 16 17  2  0  0  0  0
 17 18  1  0  0  0  0
 18 19  2  0  0  0  0
 19 20  1  0  0  0  0
 19 47  1  0  0  0  0
 20 21  1  0  0  0  0
 21 22  1  0  0  0  0
 21 48  1  0  0  0  0
 21 49  1  0  0  0  0
 22 23  1  0  0  0  0
 22 24  1  0  0  0  0
 22 50  1  0  0  0  0
 23 51  1  0  0  0  0
 24 28  1  0  0  0  0
 24 25  1  0  0  0  0
 24 52  1  0  0  0  0
 25 26  1  0  0  0  0
 25 53  1  0  0  0  0
 25 54  1  0  0  0  0
 26 27  1  0  0  0  0
 26 55  1  0  0  0  0
 26 56  1  0  0  0  0
 27 28  1  0  0  0  0
 27 57  1  0  0  0  0
 27 58  1  0  0  0  0
M  CHG  1   4   1
M  END
> <s_m_source_file>
AV-unprocessed.smi

> <i_m_source_file_index>
213

> <i_lp_mmshare_version>
43012

> <i_f3d_flags>
0

> <s_epik_input>
W0NIMl0xW0NIMl1PW0NIMl1bQ0gyXU4xW0NIMl1bQ0BASF0oW0NIM10pTihbQ0gzXSljKG5bY0hdbjIpYyhjMjMpbltjSF1uM1tDSDJdW0NASF0oW09IXSlbQ0BASF00W0NIMl1bQ0gyXVtDSDJdTzQ=

> <s_epik_cmdline>
J2VwaWtfcHl0aG9uJywgJy1waCcsICc3LjAnLCAnLXRuJywgJzgnLCAnLW1hJywgJzIwMCcsICctbWV0YWxfYmluZGluZycsICctaW1hZScsICc8aW5maWxlLm1hZT4nLCAnLW9tYWUnLCAnPG91dGZpbGUubWFlPic=

> <r_lp_tautomer_probability>
1

> <r_epik_Ionization_Penalty>
0.399679

> <r_epik_Ionization_Penalty_Charging>
0.399433

> <r_epik_Ionization_Penalty_Neutral>
0.000246213

> <r_epik_State_Penalty>
0.286032

> <r_epik_Charging_Adjusted_Penalty>
0.685465

> <i_epik_Tot_Q>
1

> <i_epik_Tot_abs_Q>
1

> <r_epik_Metal_State_Penalty>
0.286072

> <b_epik_Metal_Only>
0

> <s_lp_Force_Field>
OPLS_2005

> <r_lp_Energy>
46.8913

> <b_lp_Chiralities_Consistent>
1

> <s_lp_Variant>
AV-unprocessed.smi:213-3

> <Gold.Version>
5.8.1

> <Gold.Id.Protein>
6NUR|6NUR_protein|mol2

> <Gold.PLP.Fitness>
47.1885

> <Gold.PLP.PLP>
-40.6767

> <Gold.PLP.part.hbond>
-2.4178

> <Gold.PLP.part.metal>
0.0000

> <Gold.PLP.part.buried>
1.2950

> <Gold.PLP.part.nonpolar>
-40.4094

> <Gold.PLP.part.repulsive>
0.5832

> <Gold.PLP.ligand.clash>
0.0000

> <Gold.PLP.ligand.torsion>
1.9803

> <Gold.PLP.Chemscore.Hbond>
2.6175

> <Gold.PLP.Chemscore.CHOScore>
0.4684

> <Gold.PLP.Chemscore.Metal>
0.0000

> <Gold.Chemscore.Hbonds>
donor molecule, donor type, donor heavy atom, donor atom, acceptor molecule, acceptor atom, score
      L1  H     4    59       P1  7948  1.82
      P1  H  7989  7998       L1    15  0.50
      L1  C    19    47       P1  8028  0.44

> <Gold.PLP.Chemscore.Internal.Correction>
1.2147

> <Gold.Rescore>
     Score         DG    S(hbond)    S(metal)    S(lipo)     H(rot)  DE(clash)    DE(int)     intcor
      9.46     -13.33       1.00        0.00     100.25       2.83       1.67       2.19       ----

> <Gold.Chemscore.Fitness>
9.4645

> <Gold.Chemscore.DG>
-13.3264

> <Gold.Chemscore.ZeroCoef>
-5.4800

> <Gold.Chemscore.Hbond>
1.0029

> <Gold.Chemscore.Metal>
0.0000

> <Gold.Chemscore.Lipo>
100.2518

> <Gold.Chemscore.Internal_Hbond>
0.0000

> <Gold.Chemscore.DEClash>
1.6685

> <Gold.Chemscore.DEInternal>
2.1933

> <Gold.Chemscore.Rot>
2.8254

> <Gold.Chemscore.Internal.Correction>
   9.000000E+99

> <Gold.Chemscore.Hbonds>
donor molecule, donor type, donor heavy atom, donor atom, acceptor molecule, acceptor atom, score
      L1  H     4    59       P1  7948  0.89
      P1  H  7989  7998       L1    15  0.01

> <Gold.Chemscore.Hbond.Weighted>
-3.3498

> <Gold.Chemscore.Metal.Weighted>
-0.0000

> <Gold.Chemscore.Lipo.Weighted>
-11.7295

> <Gold.Chemscore.Internal_Hbond.Weighted>
0.0000

> <Gold.Chemscore.DEClash.Weighted>
1.6685

> <Gold.Chemscore.DEInternal.Weighted>
2.1933

> <Gold.Chemscore.Rot.Weighted>
7.2330

> <Gold.Chemscore.Internal.Correction.Weighted>
   9.000000E+99

> <Gold.Protein.RotatedTorsions>
[ 6907 6896 6895 6894 ] final   40.25 input  -60.11 | X-H torsion
[ 7974 7965 7964 7962 ] final -148.11 input  175.53 | X-H torsion
[ 8008 7997 7996 7995 ] final  125.36 input   59.86 | X-H torsion
[ 10167 10162 10161 10158 ] final  -42.53 input  -65.29 | X-H torsion
[ 10718 10713 10712 10709 ] final    4.19 input   66.30 | X-H torsion
[ 10763 10752 10751 10750 ] final  -85.54 input  -60.55 | X-H torsion
[ 11005 11000 10999 10996 ] final  163.76 input  -57.11 | X-H torsion

> <Gold.Protein.ActiveResidues>
 VAL166  LYS551  ARG553  GLY616  TRP617  ASP618  TYR619  PRO620  LYS621  CYS622 
 ASP623  PHE694  ASN695  SER759  ASP760  ASP761  ALA762  ILE779  LEU786  VAL792 
 PHE793  MET794  SER795  GLU796  ALA797  LYS798  CYS799  TRP800  GLU811  SER814 

> <Gold.Protein.RotatedAtoms>
  152.1800  134.8762  160.0526 H   0  0  0  0  0  0  0  0  0  0  0  0  # atno 6907 bound_to 6896
  151.9690  133.3714  159.4072 H   0  0  0  0  0  0  0  0  0  0  0  0  # atno 6908 bound_to 6896
  150.6916  134.4084  159.5194 H   0  0  0  0  0  0  0  0  0  0  0  0  # atno 6909 bound_to 6896
  144.8050  140.5239  143.5681 H   0  0  0  0  0  0  0  0  0  0  0  0  # atno 7974 bound_to 7965
  156.2831  140.2718  156.1937 H   0  0  0  0  0  0  0  0  0  0  0  0  # atno 8008 bound_to 7997
  155.0432  140.0386  157.2535 H   0  0  0  0  0  0  0  0  0  0  0  0  # atno 8009 bound_to 7997
  154.7257  140.2696  155.6506 H   0  0  0  0  0  0  0  0  0  0  0  0  # atno 8010 bound_to 7997
  140.6966  143.3033  151.3222 H   0  0  0  0  0  0  0  0  0  0  0  0  # atno 10167 bound_to 10162
  156.8889  130.5680  149.5650 H   0  0  0  0  0  0  0  0  0  0  0  0  # atno 10718 bound_to 10713
  154.6122  135.5481  153.7485 H   0  0  0  0  0  0  0  0  0  0  0  0  # atno 10763 bound_to 10752
  153.0200  135.6392  154.1562 H   0  0  0  0  0  0  0  0  0  0  0  0  # atno 10764 bound_to 10752
  154.1499  135.2903  155.3118 H   0  0  0  0  0  0  0  0  0  0  0  0  # atno 10765 bound_to 10752
  140.2391  134.8065  157.3393 H   0  0  0  0  0  0  0  0  0  0  0  0  # atno 11005 bound_to 11000
  145.5460  139.1476  143.3420 LP  0  0  0  0  0  0  0  0  0  0  0  0  # atno 17320 bound_to 7965
  146.2340  140.5599  142.8963 LP  0  0  0  0  0  0  0  0  0  0  0  0  # atno 17321 bound_to 7965
  139.6429  144.0506  152.2568 LP  0  0  0  0  0  0  0  0  0  0  0  0  # atno 17342 bound_to 10162
  140.0017  144.6288  150.7724 LP  0  0  0  0  0  0  0  0  0  0  0  0  # atno 17343 bound_to 10162
  156.0639  130.5686  150.9249 LP  0  0  0  0  0  0  0  0  0  0  0  0  # atno 17370 bound_to 10713
  157.6096  131.0937  150.8819 LP  0  0  0  0  0  0  0  0  0  0  0  0  # atno 17371 bound_to 10713
  140.1672  134.4654  155.7855 LP  0  0  0  0  0  0  0  0  0  0  0  0  # atno 17394 bound_to 11000
  141.2212  133.6926  156.7645 LP  0  0  0  0  0  0  0  0  0  0  0  0  # atno 17395 bound_to 11000

$$$$
