AV-unprocessed.smi:893|AV-procd|sdf|4067|dock7
  -GOLD-   22720 1553D 1   1.00000     0.00000
 Structure written by MMmdl.
 27 28  0  0  0  0  0  0  0  0  1 V2000
  143.7503  133.0422  151.3953 C   0  0  0  0  0  0  0  0  0  0  0  0
  144.1222  134.3529  150.6843 C   0  0  0  0  0  0  0  0  0  0  0  0
  144.4575  135.5181  151.6457 C   0  0  2  0  0  0  0  0  0  0  0  0
  143.3166  135.8446  152.5918 C   0  0  0  0  0  0  0  0  0  0  0  0
  142.6240  134.9713  153.4826 C   0  0  0  0  0  0  0  0  0  0  0  0
  141.6744  135.5796  154.1736 N   0  0  0  0  0  0  0  0  0  0  0  0
  141.7225  136.8592  153.7537 N   0  0  0  0  0  0  0  0  0  0  0  0
  140.8016  137.8275  154.3092 C   0  0  0  0  0  0  0  0  0  0  0  0
  142.7022  137.0490  152.8041 C   0  0  0  0  0  0  0  0  0  0  0  0
  144.9267  136.6866  150.9132 N   0  0  0  0  0  0  0  0  0  0  0  0
  146.1735  137.0468  151.2466 C   0  0  0  0  0  0  0  0  0  0  0  0
  146.7955  138.0032  150.7910 O   0  0  0  0  0  0  0  0  0  0  0  0
  146.6219  136.1770  152.1565 N   0  0  0  0  0  0  0  0  0  0  0  0
  145.7230  135.2387  152.4493 C   0  0  0  0  0  0  0  0  0  0  0  0
  145.8693  134.2993  153.2303 O   0  0  0  0  0  0  0  0  0  0  0  0
  143.5222  132.2618  150.6693 H   0  0  0  0  0  0  0  0  0  0  0  0
  142.8725  133.1683  152.0292 H   0  0  0  0  0  0  0  0  0  0  0  0
  144.5669  132.6806  152.0205 H   0  0  0  0  0  0  0  0  0  0  0  0
  144.9704  134.1647  150.0246 H   0  0  0  0  0  0  0  0  0  0  0  0
  143.2963  134.6389  150.0307 H   0  0  0  0  0  0  0  0  0  0  0  0
  142.7832  133.9158  153.6472 H   0  0  0  0  0  0  0  0  0  0  0  0
  140.9425  138.7966  153.8295 H   0  0  0  0  0  0  0  0  0  0  0  0
  140.9782  137.9326  155.3801 H   0  0  0  0  0  0  0  0  0  0  0  0
  139.7752  137.4974  154.1455 H   0  0  0  0  0  0  0  0  0  0  0  0
  142.8812  138.0161  152.3574 H   0  0  0  0  0  0  0  0  0  0  0  0
  144.3550  137.1744  150.2390 H   0  0  0  0  0  0  0  0  0  0  0  0
  147.5436  136.2192  152.5663 H   0  0  0  0  0  0  0  0  0  0  0  0
  1  2  1  0  0  0  0
  1 16  1  0  0  0  0
  1 17  1  0  0  0  0
  1 18  1  0  0  0  0
  2  3  1  0  0  0  0
  2 19  1  0  0  0  0
  2 20  1  0  0  0  0
  3 14  1  0  0  0  0
  3  4  1  0  0  0  0
  3 10  1  0  0  0  0
  4  9  2  0  0  0  0
  4  5  1  0  0  0  0
  5  6  2  0  0  0  0
  5 21  1  0  0  0  0
  6  7  1  0  0  0  0
  7  8  1  0  0  0  0
  7  9  1  0  0  0  0
  8 22  1  0  0  0  0
  8 23  1  0  0  0  0
  8 24  1  0  0  0  0
  9 25  1  0  0  0  0
 10 11  1  0  0  0  0
 10 26  1  0  0  0  0
 11 12  2  0  0  0  0
 11 13  1  0  0  0  0
 13 14  1  0  0  0  0
 13 27  1  0  0  0  0
 14 15  2  0  0  0  0
M  END
> <s_m_source_file>
AV-unprocessed.smi

> <i_m_source_file_index>
893

> <i_lp_mmshare_version>
43012

> <i_f3d_flags>
0

> <s_epik_input>
Tz1DMVtOSF1DKD1PKVtOSF1bQ0BAXTEoW0NIMl1bQ0gzXSljMltjSF1ubihbQ0gzXSlbY0hdMg==

> <s_epik_cmdline>
J2VwaWtfcHl0aG9uJywgJy1waCcsICc3LjAnLCAnLXRuJywgJzgnLCAnLW1hJywgJzIwMCcsICctbWV0YWxfYmluZGluZycsICctaW1hZScsICc8aW5maWxlLm1hZT4nLCAnLW9tYWUnLCAnPG91dGZpbGUubWFlPic=

> <r_lp_tautomer_probability>
1

> <r_epik_Ionization_Penalty>
0.0236181

> <r_epik_Ionization_Penalty_Charging>
0

> <r_epik_Ionization_Penalty_Neutral>
0.0236181

> <r_epik_State_Penalty>
0.0189572

> <r_epik_Charging_Adjusted_Penalty>
0.0189572

> <i_epik_Tot_Q>
0

> <i_epik_Tot_abs_Q>
0

> <r_epik_Metal_State_Penalty>
0.411796

> <b_epik_Metal_Only>
0

> <s_lp_Force_Field>
OPLS_2005

> <r_lp_Energy>
15.567

> <b_lp_Chiralities_Consistent>
1

> <s_lp_Variant>
AV-unprocessed.smi:893-2

> <Gold.Version>
5.8.1

> <Gold.Id.Protein>
6NUR|6NUR_protein|mol2

> <Gold.PLP.Fitness>
36.3805

> <Gold.PLP.PLP>
-21.7191

> <Gold.PLP.part.hbond>
-2.5818

> <Gold.PLP.part.metal>
0.0000

> <Gold.PLP.part.buried>
-4.1081

> <Gold.PLP.part.nonpolar>
-17.6529

> <Gold.PLP.part.repulsive>
1.9020

> <Gold.PLP.ligand.clash>
0.0000

> <Gold.PLP.ligand.torsion>
0.1554

> <Gold.PLP.Chemscore.Hbond>
2.5198

> <Gold.PLP.Chemscore.CHOScore>
2.4136

> <Gold.PLP.Chemscore.Metal>
0.0000

> <Gold.Chemscore.Hbonds>
donor molecule, donor type, donor heavy atom, donor atom, acceptor molecule, acceptor atom, score
      L1  H    10    26       P1 10171  0.90
      L1  H    13    27       P1  7948  0.58
      P1  H  7954  7966       L1    12  1.00
      P1  H 11000 11005       L1     6  0.04
      L1  C     5    21       P1 10957  1.00
      L1  C     9    25       P1 10171  0.41
      L1  C     9    25       P1 10175  1.00

> <Gold.PLP.Chemscore.Internal.Correction>
0.1718

> <Gold.Rescore>
     Score         DG    S(hbond)    S(metal)    S(lipo)     H(rot)  DE(clash)    DE(int)     intcor
     14.23     -16.78       3.16        0.00      34.64       1.30       1.63       0.93       ----

> <Gold.Chemscore.Fitness>
14.2265

> <Gold.Chemscore.DG>
-16.7833

> <Gold.Chemscore.ZeroCoef>
-5.4800

> <Gold.Chemscore.Hbond>
3.1637

> <Gold.Chemscore.Metal>
0.0000

> <Gold.Chemscore.Lipo>
34.6407

> <Gold.Chemscore.Internal_Hbond>
0.0000

> <Gold.Chemscore.DEClash>
1.6263

> <Gold.Chemscore.DEInternal>
0.9305

> <Gold.Chemscore.Rot>
1.2955

> <Gold.Chemscore.Internal.Correction>
   9.000000E+99

> <Gold.Chemscore.Hbonds>
donor molecule, donor type, donor heavy atom, donor atom, acceptor molecule, acceptor atom, score
      L1  H    10    26       P1 10171  0.83
      L1  H    13    27       P1  7948  0.54
      P1  H  7954  7966       L1    12  0.98
      P1  H 11000 11005       L1     6  0.07

> <Gold.Chemscore.Hbond.Weighted>
-10.5667

> <Gold.Chemscore.Metal.Weighted>
-0.0000

> <Gold.Chemscore.Lipo.Weighted>
-4.0530

> <Gold.Chemscore.Internal_Hbond.Weighted>
0.0000

> <Gold.Chemscore.DEClash.Weighted>
1.6263

> <Gold.Chemscore.DEInternal.Weighted>
0.9305

> <Gold.Chemscore.Rot.Weighted>
3.3164

> <Gold.Chemscore.Internal.Correction.Weighted>
   9.000000E+99

> <Gold.Protein.RotatedTorsions>
[ 6907 6896 6895 6894 ] final -147.26 input  -60.11 | X-H torsion
[ 7974 7965 7964 7962 ] final  -30.93 input  175.53 | X-H torsion
[ 8008 7997 7996 7995 ] final -166.40 input   59.86 | X-H torsion
[ 10167 10162 10161 10158 ] final -136.92 input  -65.29 | X-H torsion
[ 10718 10713 10712 10709 ] final   69.91 input   66.30 | X-H torsion
[ 10763 10752 10751 10750 ] final -113.58 input  -60.55 | X-H torsion
[ 11005 11000 10999 10996 ] final   27.85 input  -57.11 | X-H torsion

> <Gold.Protein.ActiveResidues>
 VAL166  LYS551  ARG553  GLY616  TRP617  ASP618  TYR619  PRO620  LYS621  CYS622 
 ASP623  PHE694  ASN695  SER759  ASP760  ASP761  ALA762  ILE779  LEU786  VAL792 
 PHE793  MET794  SER795  GLU796  ALA797  LYS798  CYS799  TRP800  GLU811  SER814 

> <Gold.Protein.RotatedAtoms>
  151.1532  133.4893  159.2594 H   0  0  0  0  0  0  0  0  0  0  0  0  # atno 6907 bound_to 6896
  151.1532  135.0237  159.8687 H   0  0  0  0  0  0  0  0  0  0  0  0  # atno 6908 bound_to 6896
  152.5463  134.1414  159.8533 H   0  0  0  0  0  0  0  0  0  0  0  0  # atno 6909 bound_to 6896
  146.1106  140.5602  142.8779 H   0  0  0  0  0  0  0  0  0  0  0  0  # atno 7974 bound_to 7965
  155.8634  140.0981  157.1598 H   0  0  0  0  0  0  0  0  0  0  0  0  # atno 8008 bound_to 7997
  154.3992  140.1361  156.4051 H   0  0  0  0  0  0  0  0  0  0  0  0  # atno 8009 bound_to 7997
  155.7832  140.3458  155.5311 H   0  0  0  0  0  0  0  0  0  0  0  0  # atno 8010 bound_to 7997
  139.8630  143.7053  152.2648 H   0  0  0  0  0  0  0  0  0  0  0  0  # atno 10167 bound_to 10162
  157.6371  130.9450  150.0578 H   0  0  0  0  0  0  0  0  0  0  0  0  # atno 10718 bound_to 10713
  154.8403  135.4449  154.1372 H   0  0  0  0  0  0  0  0  0  0  0  0  # atno 10763 bound_to 10752
  153.2567  135.6932  153.7628 H   0  0  0  0  0  0  0  0  0  0  0  0  # atno 10764 bound_to 10752
  153.6920  135.3386  155.3180 H   0  0  0  0  0  0  0  0  0  0  0  0  # atno 10765 bound_to 10752
  140.3218  134.2534  155.7716 H   0  0  0  0  0  0  0  0  0  0  0  0  # atno 11005 bound_to 11000
  144.7508  140.5186  143.6803 LP  0  0  0  0  0  0  0  0  0  0  0  0  # atno 17320 bound_to 7965
  145.5671  139.1482  143.3309 LP  0  0  0  0  0  0  0  0  0  0  0  0  # atno 17321 bound_to 7965
  139.7356  144.7572  151.0733 LP  0  0  0  0  0  0  0  0  0  0  0  0  # atno 17342 bound_to 10162
  140.7772  143.5035  150.9742 LP  0  0  0  0  0  0  0  0  0  0  0  0  # atno 17343 bound_to 10162
  156.1620  130.3644  149.9286 LP  0  0  0  0  0  0  0  0  0  0  0  0  # atno 17370 bound_to 10713
  156.7282  130.9033  151.3623 LP  0  0  0  0  0  0  0  0  0  0  0  0  # atno 17371 bound_to 10713
  141.2084  133.7777  157.0058 LP  0  0  0  0  0  0  0  0  0  0  0  0  # atno 17394 bound_to 11000
  140.0935  134.9578  157.1813 LP  0  0  0  0  0  0  0  0  0  0  0  0  # atno 17395 bound_to 11000

$$$$
