AV-unprocessed.smi:198|AV-procd|sdf|1555|dock3
  -GOLD-   2262019423D 1   1.00000     0.00000
 Structure written by MMmdl.
 59 63  0  0  0  0  0  0  0  0  2 V2000
  149.4210  129.8139  153.7876 C   0  0  0  0  0  0  0  0  0  0  0  0
  148.4356  130.7741  153.2460 N   0  3  2  0  0  0  0  0  0  0  0  0
  148.8626  132.1830  153.4267 C   0  0  0  0  0  0  0  0  0  0  0  0
  147.8957  133.1437  152.7195 C   0  0  0  0  0  0  0  0  0  0  0  0
  146.4510  132.9433  153.2255 C   0  0  2  0  0  0  0  0  0  0  0  0
  146.0272  131.4601  153.1054 C   0  0  1  0  0  0  0  0  0  0  0  0
  145.7259  131.0653  151.6446 C   0  0  0  0  0  0  0  0  0  0  0  0
  144.6985  132.0275  151.0323 C   0  0  0  0  0  0  0  0  0  0  0  0
  145.1641  133.4865  151.1547 C   0  0  0  0  0  0  0  0  0  0  0  0
  145.4867  133.8177  152.5455 N   0  0  0  0  0  0  0  0  0  0  0  0
  145.5546  135.1338  152.8771 C   0  0  0  0  0  0  0  0  0  0  0  0
  144.7107  136.0218  152.2862 N   0  0  0  0  0  0  0  0  0  0  0  0
  144.7783  137.3219  152.5871 C   0  0  0  0  0  0  0  0  0  0  0  0
  145.6032  137.9399  153.4337 N   0  0  0  0  0  0  0  0  0  0  0  0
  146.4511  137.0560  154.0332 C   0  0  0  0  0  0  0  0  0  0  0  0
  146.4897  135.6486  153.8196 C   0  0  0  0  0  0  0  0  0  0  0  0
  147.4641  135.0760  154.6288 N   0  0  0  0  0  0  0  0  0  0  0  0
  147.9735  136.0860  155.2794 C   0  0  0  0  0  0  0  0  0  0  0  0
  147.4462  137.3166  154.9595 N   0  0  0  0  0  0  0  0  0  0  0  0
  147.7922  138.5781  155.5470 C   0  0  0  0  0  0  0  0  0  0  0  0
  146.9919  139.8454  155.2246 C   0  0  0  0  0  0  0  0  0  0  0  0
  148.2911  140.6828  155.2504 C   0  0  0  0  0  0  0  0  0  0  0  0
  148.4725  141.6985  154.1068 C   0  0  0  0  0  0  0  0  0  0  0  0
  147.5978  142.8045  154.2113 O   0  0  0  0  0  0  0  0  0  0  0  0
  148.5635  141.4808  156.5429 C   0  0  0  0  0  0  0  0  0  0  0  0
  149.8100  142.1468  156.5415 O   0  0  0  0  0  0  0  0  0  0  0  0
  149.0460  139.3419  155.1033 C   0  0  0  0  0  0  0  0  0  0  0  0
  147.0668  130.5336  153.7692 C   0  0  0  0  0  0  0  0  0  0  0  0
  149.5274  129.9292  154.8673 H   0  0  0  0  0  0  0  0  0  0  0  0
  150.3986  129.9654  153.3290 H   0  0  0  0  0  0  0  0  0  0  0  0
  149.1131  128.7884  153.5814 H   0  0  0  0  0  0  0  0  0  0  0  0
  148.9160  132.4172  154.4911 H   0  0  0  0  0  0  0  0  0  0  0  0
  149.8664  132.3165  153.0213 H   0  0  0  0  0  0  0  0  0  0  0  0
  148.2158  134.1714  152.8945 H   0  0  0  0  0  0  0  0  0  0  0  0
  147.9549  132.9860  151.6425 H   0  0  0  0  0  0  0  0  0  0  0  0
  146.4496  133.1785  154.2888 H   0  0  0  0  0  0  0  0  0  0  0  0
  145.0945  131.3419  153.6597 H   0  0  0  0  0  0  0  0  0  0  0  0
  146.6380  131.0778  151.0474 H   0  0  0  0  0  0  0  0  0  0  0  0
  145.3441  130.0447  151.6018 H   0  0  0  0  0  0  0  0  0  0  0  0
  144.5273  131.7773  149.9850 H   0  0  0  0  0  0  0  0  0  0  0  0
  143.7403  131.9088  151.5399 H   0  0  0  0  0  0  0  0  0  0  0  0
  146.0365  133.6570  150.5232 H   0  0  0  0  0  0  0  0  0  0  0  0
  144.3735  134.1433  150.7890 H   0  0  0  0  0  0  0  0  0  0  0  0
  144.0732  137.9587  152.0736 H   0  0  0  0  0  0  0  0  0  0  0  0
  148.7575  135.9587  156.0118 H   0  0  0  0  0  0  0  0  0  0  0  0
  147.8126  138.4039  156.6235 H   0  0  0  0  0  0  0  0  0  0  0  0
  146.5224  139.7948  154.2414 H   0  0  0  0  0  0  0  0  0  0  0  0
  146.2589  140.1149  155.9855 H   0  0  0  0  0  0  0  0  0  0  0  0
  149.4928  142.0831  154.0885 H   0  0  0  0  0  0  0  0  0  0  0  0
  148.2969  141.2274  153.1390 H   0  0  0  0  0  0  0  0  0  0  0  0
  147.9802  143.4356  154.8013 H   0  0  0  0  0  0  0  0  0  0  0  0
  147.7899  142.2329  156.7016 H   0  0  0  0  0  0  0  0  0  0  0  0
  148.5428  140.8239  157.4133 H   0  0  0  0  0  0  0  0  0  0  0  0
  149.6547  143.0760  156.4663 H   0  0  0  0  0  0  0  0  0  0  0  0
  149.8999  139.2227  155.7709 H   0  0  0  0  0  0  0  0  0  0  0  0
  149.3285  139.1133  154.0748 H   0  0  0  0  0  0  0  0  0  0  0  0
  146.7879  129.4909  153.6104 H   0  0  0  0  0  0  0  0  0  0  0  0
  147.0666  130.6948  154.8486 H   0  0  0  0  0  0  0  0  0  0  0  0
  148.3953  130.6111  152.2500 H   0  0  0  0  0  0  0  0  0  0  0  0
  1  2  1  0  0  0  0
  1 29  1  0  0  0  0
  1 30  1  0  0  0  0
  1 31  1  0  0  0  0
  2 28  1  0  0  0  0
  2  3  1  0  0  0  0
  2 59  1  0  0  0  0
  3  4  1  0  0  0  0
  3 32  1  0  0  0  0
  3 33  1  0  0  0  0
  4  5  1  0  0  0  0
  4 34  1  0  0  0  0
  4 35  1  0  0  0  0
  5 10  1  0  0  0  0
  5  6  1  0  0  0  0
  5 36  1  0  0  0  0
  6  7  1  0  0  0  0
  6 28  1  0  0  0  0
  6 37  1  0  0  0  0
  7  8  1  0  0  0  0
  7 38  1  0  0  0  0
  7 39  1  0  0  0  0
  8  9  1  0  0  0  0
  8 40  1  0  0  0  0
  8 41  1  0  0  0  0
  9 10  1  0  0  0  0
  9 42  1  0  0  0  0
  9 43  1  0  0  0  0
 10 11  1  0  0  0  0
 11 16  1  0  0  0  0
 11 12  2  0  0  0  0
 12 13  1  0  0  0  0
 13 14  2  0  0  0  0
 13 44  1  0  0  0  0
 14 15  1  0  0  0  0
 15 19  1  0  0  0  0
 15 16  2  0  0  0  0
 16 17  1  0  0  0  0
 17 18  2  0  0  0  0
 18 19  1  0  0  0  0
 18 45  1  0  0  0  0
 19 20  1  0  0  0  0
 20 27  1  0  0  0  0
 20 21  1  0  0  0  0
 20 46  1  0  0  0  0
 21 22  1  0  0  0  0
 21 47  1  0  0  0  0
 21 48  1  0  0  0  0
 22 23  1  0  0  0  0
 22 25  1  0  0  0  0
 22 27  1  0  0  0  0
 23 24  1  0  0  0  0
 23 49  1  0  0  0  0
 23 50  1  0  0  0  0
 24 51  1  0  0  0  0
 25 26  1  0  0  0  0
 25 52  1  0  0  0  0
 25 53  1  0  0  0  0
 26 54  1  0  0  0  0
 27 55  1  0  0  0  0
 27 56  1  0  0  0  0
 28 57  1  0  0  0  0
 28 58  1  0  0  0  0
M  CHG  1   2   1
M  END
> <s_m_source_file>
AV-unprocessed.smi

> <i_m_source_file_index>
198

> <i_lp_mmshare_version>
43012

> <i_f3d_flags>
0

> <s_epik_input>
W0NIMl0xW0NIMl1OKFtDSDNdKVtDSDJdW0NAQEhdKFtDQEhdMTIpW0NIMl1bQ0gyXVtDSDJdTjJjKG5bY0hdbjMpYyhjMzQpbltjSF1uNFtDSF0oW0NIMl01KVtDSDJdQzUoW0NIMl1bT0hdKVtDSDJdW09IXQ==

> <s_epik_cmdline>
J2VwaWtfcHl0aG9uJywgJy1waCcsICc3LjAnLCAnLXRuJywgJzgnLCAnLW1hJywgJzIwMCcsICctbWV0YWxfYmluZGluZycsICctaW1hZScsICc8aW5maWxlLm1hZT4nLCAnLW9tYWUnLCAnPG91dGZpbGUubWFlPic=

> <r_lp_tautomer_probability>
1

> <r_epik_Ionization_Penalty>
0.00239938

> <r_epik_Ionization_Penalty_Charging>
0.00138697

> <r_epik_Ionization_Penalty_Neutral>
0.00101241

> <r_epik_State_Penalty>
-0

> <r_epik_Charging_Adjusted_Penalty>
0.00138697

> <i_epik_Tot_Q>
1

> <i_epik_Tot_abs_Q>
1

> <r_epik_Metal_State_Penalty>
-0

> <b_epik_Metal_Only>
0

> <s_lp_Force_Field>
OPLS_2005

> <r_lp_Energy>
59.0053

> <b_lp_Chiralities_Consistent>
1

> <s_lp_Variant>
AV-unprocessed.smi:198-4

> <Gold.Version>
5.8.1

> <Gold.Id.Protein>
6NUR|6NUR_protein|mol2

> <Gold.PLP.Fitness>
46.5825

> <Gold.PLP.PLP>
-32.4414

> <Gold.PLP.part.hbond>
-4.0928

> <Gold.PLP.part.metal>
0.0000

> <Gold.PLP.part.buried>
-4.0845

> <Gold.PLP.part.nonpolar>
-24.6470

> <Gold.PLP.part.repulsive>
0.5040

> <Gold.PLP.ligand.clash>
0.1235

> <Gold.PLP.ligand.torsion>
0.7523

> <Gold.PLP.Chemscore.Hbond>
3.0000

> <Gold.PLP.Chemscore.CHOScore>
1.9523

> <Gold.PLP.Chemscore.Metal>
0.0000

> <Gold.Chemscore.Hbonds>
donor molecule, donor type, donor heavy atom, donor atom, acceptor molecule, acceptor atom, score
      L1  H     2    59       P1 10747  0.94
      L1  H    24    51       P1  8028  1.00
      L1  H    26    54       P1  8028  1.00
      L1  C    13    44       P1 10171  1.00
      L1  C    13    44       P1 10175  0.95

> <Gold.PLP.Chemscore.Internal.Correction>
0.9125

> <Gold.Rescore>
     Score         DG    S(hbond)    S(metal)    S(lipo)     H(rot)  DE(clash)    DE(int)     intcor
     10.99     -15.83       2.71        0.00      78.44       3.08       0.04       4.79       ----

> <Gold.Chemscore.Fitness>
10.9929

> <Gold.Chemscore.DG>
-15.8269

> <Gold.Chemscore.ZeroCoef>
-5.4800

> <Gold.Chemscore.Hbond>
2.7095

> <Gold.Chemscore.Metal>
0.0000

> <Gold.Chemscore.Lipo>
78.4373

> <Gold.Chemscore.Internal_Hbond>
0.0000

> <Gold.Chemscore.DEClash>
0.0405

> <Gold.Chemscore.DEInternal>
4.7935

> <Gold.Chemscore.Rot>
3.0781

> <Gold.Chemscore.Internal.Correction>
   9.000000E+99

> <Gold.Chemscore.Hbonds>
donor molecule, donor type, donor heavy atom, donor atom, acceptor molecule, acceptor atom, score
      L1  H     2    59       P1 10747  0.80
      L1  H    24    51       P1  8028  0.78
      L1  H    26    54       P1  8028  0.96

> <Gold.Chemscore.Hbond.Weighted>
-9.0497

> <Gold.Chemscore.Metal.Weighted>
-0.0000

> <Gold.Chemscore.Lipo.Weighted>
-9.1772

> <Gold.Chemscore.Internal_Hbond.Weighted>
0.0000

> <Gold.Chemscore.DEClash.Weighted>
0.0405

> <Gold.Chemscore.DEInternal.Weighted>
4.7935

> <Gold.Chemscore.Rot.Weighted>
7.8800

> <Gold.Chemscore.Internal.Correction.Weighted>
   9.000000E+99

> <Gold.Protein.RotatedTorsions>
[ 6907 6896 6895 6894 ] final  -20.35 input  -60.11 | X-H torsion
[ 7974 7965 7964 7962 ] final  -46.57 input  175.53 | X-H torsion
[ 8008 7997 7996 7995 ] final   -9.62 input   59.86 | X-H torsion
[ 10167 10162 10161 10158 ] final   65.46 input  -65.29 | X-H torsion
[ 10718 10713 10712 10709 ] final -132.88 input   66.30 | X-H torsion
[ 10763 10752 10751 10750 ] final -151.76 input  -60.55 | X-H torsion
[ 11005 11000 10999 10996 ] final  -56.38 input  -57.11 | X-H torsion

> <Gold.Protein.ActiveResidues>
 VAL166  LYS551  ARG553  GLY616  TRP617  ASP618  TYR619  PRO620  LYS621  CYS622 
 ASP623  PHE694  ASN695  SER759  ASP760  ASP761  ALA762  ILE779  LEU786  VAL792 
 PHE793  MET794  SER795  GLU796  ALA797  LYS798  CYS799  TRP800  GLU811  SER814 

> <Gold.Protein.RotatedAtoms>
  151.2494  135.0617  159.9055 H   0  0  0  0  0  0  0  0  0  0  0  0  # atno 6907 bound_to 6896
  152.5382  134.0348  159.8051 H   0  0  0  0  0  0  0  0  0  0  0  0  # atno 6908 bound_to 6896
  151.0554  133.5539  159.2670 H   0  0  0  0  0  0  0  0  0  0  0  0  # atno 6909 bound_to 6896
  145.9706  140.7387  142.9412 H   0  0  0  0  0  0  0  0  0  0  0  0  # atno 7974 bound_to 7965
  154.5630  140.2350  155.8306 H   0  0  0  0  0  0  0  0  0  0  0  0  # atno 8008 bound_to 7997
  156.2045  140.3043  155.9556 H   0  0  0  0  0  0  0  0  0  0  0  0  # atno 8009 bound_to 7997
  155.2854  140.0424  157.3009 H   0  0  0  0  0  0  0  0  0  0  0  0  # atno 8010 bound_to 7997
  140.1110  144.4818  150.6978 H   0  0  0  0  0  0  0  0  0  0  0  0  # atno 10167 bound_to 10162
  156.2391  130.7085  151.0938 H   0  0  0  0  0  0  0  0  0  0  0  0  # atno 10718 bound_to 10713
  154.8037  135.3252  154.7484 H   0  0  0  0  0  0  0  0  0  0  0  0  # atno 10763 bound_to 10752
  153.8147  135.6892  153.4840 H   0  0  0  0  0  0  0  0  0  0  0  0  # atno 10764 bound_to 10752
  153.1770  135.4601  154.9922 H   0  0  0  0  0  0  0  0  0  0  0  0  # atno 10765 bound_to 10752
  141.1117  133.6610  156.4610 H   0  0  0  0  0  0  0  0  0  0  0  0  # atno 11005 bound_to 11000
  144.6836  140.2742  143.7301 LP  0  0  0  0  0  0  0  0  0  0  0  0  # atno 17320 bound_to 7965
  145.7912  139.1927  143.2102 LP  0  0  0  0  0  0  0  0  0  0  0  0  # atno 17321 bound_to 7965
  140.6925  143.2384  151.5091 LP  0  0  0  0  0  0  0  0  0  0  0  0  # atno 17342 bound_to 10162
  139.5619  144.2136  152.1704 LP  0  0  0  0  0  0  0  0  0  0  0  0  # atno 17343 bound_to 10162
  157.7167  131.0705  150.6297 LP  0  0  0  0  0  0  0  0  0  0  0  0  # atno 17370 bound_to 10713
  156.6369  130.4447  149.5766 LP  0  0  0  0  0  0  0  0  0  0  0  0  # atno 17371 bound_to 10713
  140.4756  134.6712  157.5148 LP  0  0  0  0  0  0  0  0  0  0  0  0  # atno 17394 bound_to 11000
  140.0015  134.6829  155.9522 LP  0  0  0  0  0  0  0  0  0  0  0  0  # atno 17395 bound_to 11000

$$$$
