AV-unprocessed.smi:1576|AV-procd|sdf|6345|dock2
  -GOLD-   22720 6563D 1   1.00000     0.00000
 Structure written by MMmdl.
 46 48  0  0  0  0  0  0  0  0  2 V2000
  150.2076  136.2622  156.8096 O   0  0  0  0  0  0  0  0  0  0  0  0
  149.9705  136.5732  155.6427 C   0  0  0  0  0  0  0  0  0  0  0  0
  150.1083  137.8056  155.1239 N   0  0  0  0  0  0  0  0  0  0  0  0
  150.5075  139.0016  155.7797 C   0  0  0  0  0  0  0  0  0  0  0  0
  150.3632  140.2972  155.2266 C   0  0  0  0  0  0  0  0  0  0  0  0
  150.8082  141.4195  155.9555 C   0  0  0  0  0  0  0  0  0  0  0  0
  151.4020  141.2478  157.2316 C   0  0  0  0  0  0  0  0  0  0  0  0
  151.8808  142.3122  158.0294 N   0  0  0  0  0  0  0  0  0  0  0  0
  151.8253  142.1111  159.4814 C   0  0  0  0  0  0  0  0  0  0  0  0
  152.7311  143.1076  160.2245 C   0  0  0  0  0  0  0  0  0  0  0  0
  152.4195  144.5525  159.8125 C   0  0  0  0  0  0  0  0  0  0  0  0
  152.5356  144.6941  158.2891 C   0  0  0  0  0  0  0  0  0  0  0  0
  151.6347  143.6792  157.5646 C   0  0  0  0  0  0  0  0  0  0  0  0
  151.5295  139.9849  157.7070 N   0  3  0  0  0  0  0  0  0  0  0  0
  151.1190  138.8831  157.0436 C   0  0  0  0  0  0  0  0  0  0  0  0
  149.5522  135.6995  154.7162 N   0  0  0  0  0  0  0  0  0  0  0  0
  149.3147  134.2785  154.9525 C   0  0  2  0  0  0  0  0  0  0  0  0
  148.0400  134.0597  155.7884 C   0  0  0  0  0  0  0  0  0  0  0  0
  148.0325  132.6150  156.3026 C   0  0  0  0  0  0  0  0  0  0  0  0
  149.7901  132.1513  156.5379 S   0  0  0  0  0  0  0  0  0  0  0  0
  150.1285  132.2129  157.9677 O   0  0  0  0  0  0  0  0  0  0  0  0
  150.0767  130.9480  155.7427 O   0  0  0  0  0  0  0  0  0  0  0  0
  150.4886  133.6216  155.6964 C   0  0  0  0  0  0  0  0  0  0  0  0
  149.9565  137.8870  154.1292 H   0  0  0  0  0  0  0  0  0  0  0  0
  149.9309  140.4560  154.2510 H   0  0  0  0  0  0  0  0  0  0  0  0
  150.6765  142.3968  155.5167 H   0  0  0  0  0  0  0  0  0  0  0  0
  150.7920  142.2336  159.8085 H   0  0  0  0  0  0  0  0  0  0  0  0
  152.1254  141.1018  159.7615 H   0  0  0  0  0  0  0  0  0  0  0  0
  152.6073  142.9909  161.3015 H   0  0  0  0  0  0  0  0  0  0  0  0
  153.7763  142.8832  160.0072 H   0  0  0  0  0  0  0  0  0  0  0  0
  151.4126  144.8213  160.1343 H   0  0  0  0  0  0  0  0  0  0  0  0
  153.1030  145.2422  160.3085 H   0  0  0  0  0  0  0  0  0  0  0  0
  152.2729  145.7080  157.9860 H   0  0  0  0  0  0  0  0  0  0  0  0
  153.5727  144.5409  157.9880 H   0  0  0  0  0  0  0  0  0  0  0  0
  151.8286  143.7559  156.4944 H   0  0  0  0  0  0  0  0  0  0  0  0
  150.5848  143.9272  157.7254 H   0  0  0  0  0  0  0  0  0  0  0  0
  151.2886  137.9428  157.5487 H   0  0  0  0  0  0  0  0  0  0  0  0
  149.3871  136.0382  153.7795 H   0  0  0  0  0  0  0  0  0  0  0  0
  149.1769  133.7666  153.9980 H   0  0  0  0  0  0  0  0  0  0  0  0
  148.0525  134.7333  156.6464 H   0  0  0  0  0  0  0  0  0  0  0  0
  147.1375  134.2857  155.2195 H   0  0  0  0  0  0  0  0  0  0  0  0
  147.4819  132.4967  157.2359 H   0  0  0  0  0  0  0  0  0  0  0  0
  147.6051  131.9426  155.5585 H   0  0  0  0  0  0  0  0  0  0  0  0
  151.3006  133.3235  155.0327 H   0  0  0  0  0  0  0  0  0  0  0  0
  150.8918  134.2825  156.4645 H   0  0  0  0  0  0  0  0  0  0  0  0
  151.9653  139.8584  158.6207 H   0  0  0  0  0  0  0  0  0  0  0  0
  1  2  2  0  0  0  0
  2  3  1  0  0  0  0
  2 16  1  0  0  0  0
  3  4  1  0  0  0  0
  3 24  1  0  0  0  0
  4 15  1  0  0  0  0
  4  5  2  0  0  0  0
  5  6  1  0  0  0  0
  5 25  1  0  0  0  0
  6  7  2  0  0  0  0
  6 26  1  0  0  0  0
  7  8  1  0  0  0  0
  7 14  1  0  0  0  0
  8 13  1  0  0  0  0
  8  9  1  0  0  0  0
  9 10  1  0  0  0  0
  9 27  1  0  0  0  0
  9 28  1  0  0  0  0
 10 11  1  0  0  0  0
 10 29  1  0  0  0  0
 10 30  1  0  0  0  0
 11 12  1  0  0  0  0
 11 31  1  0  0  0  0
 11 32  1  0  0  0  0
 12 13  1  0  0  0  0
 12 33  1  0  0  0  0
 12 34  1  0  0  0  0
 13 35  1  0  0  0  0
 13 36  1  0  0  0  0
 14 15  2  0  0  0  0
 14 46  1  0  0  0  0
 15 37  1  0  0  0  0
 16 17  1  0  0  0  0
 16 38  1  0  0  0  0
 17 23  1  0  0  0  0
 17 18  1  0  0  0  0
 17 39  1  0  0  0  0
 18 19  1  0  0  0  0
 18 40  1  0  0  0  0
 18 41  1  0  0  0  0
 19 20  1  0  0  0  0
 19 42  1  0  0  0  0
 19 43  1  0  0  0  0
 20 21  2  0  0  0  0
 20 22  2  0  0  0  0
 20 23  1  0  0  0  0
 23 44  1  0  0  0  0
 23 45  1  0  0  0  0
M  CHG  1  14   1
M  END
> <s_m_source_file>
AV-unprocessed.smi

> <i_m_source_file_index>
1576

> <i_lp_mmshare_version>
43012

> <i_f3d_flags>
0

> <s_epik_input>
Tz1TMSg9TylbQ0gyXVtDSDJdW0NASF0oW0NIMl0xKVtOSF1DKD1PKVtOSF1jMltjSF1bY0hdYyhuW2NIXTIpTjNbQ0gyXVtDSDJdW0NIMl1bQ0gyXVtDSDJdMw==

> <s_epik_cmdline>
J2VwaWtfcHl0aG9uJywgJy1waCcsICc3LjAnLCAnLXRuJywgJzgnLCAnLW1hJywgJzIwMCcsICctbWV0YWxfYmluZGluZycsICctaW1hZScsICc8aW5maWxlLm1hZT4nLCAnLW9tYWUnLCAnPG91dGZpbGUubWFlPic=

> <r_lp_tautomer_probability>
0.999994

> <r_epik_Ionization_Penalty>
1.19724

> <r_epik_Ionization_Penalty_Charging>
1.19722

> <r_epik_Ionization_Penalty_Neutral>
2.11505e-05

> <r_epik_State_Penalty>
1.26251

> <r_epik_Charging_Adjusted_Penalty>
2.45973

> <i_epik_Tot_Q>
1

> <i_epik_Tot_abs_Q>
1

> <r_epik_Metal_State_Penalty>
1.33857

> <b_epik_Metal_Only>
0

> <s_lp_Force_Field>
OPLS_2005

> <r_lp_Energy>
26.9885

> <b_lp_Chiralities_Consistent>
1

> <s_lp_Variant>
AV-unprocessed.smi:1576-3

> <Gold.Version>
5.8.1

> <Gold.Id.Protein>
6NUR|6NUR_protein|mol2

> <Gold.PLP.Fitness>
42.4725

> <Gold.PLP.PLP>
-37.1130

> <Gold.PLP.part.hbond>
-2.0000

> <Gold.PLP.part.metal>
0.0000

> <Gold.PLP.part.buried>
-4.5178

> <Gold.PLP.part.nonpolar>
-30.0969

> <Gold.PLP.part.repulsive>
0.1594

> <Gold.PLP.ligand.clash>
0.0000

> <Gold.PLP.ligand.torsion>
0.5822

> <Gold.PLP.Chemscore.Hbond>
2.0000

> <Gold.PLP.Chemscore.CHOScore>
0.0000

> <Gold.PLP.Chemscore.Metal>
0.0000

> <Gold.Chemscore.Hbonds>
donor molecule, donor type, donor heavy atom, donor atom, acceptor molecule, acceptor atom, score
      L1  H    16    38       P1  7948  1.00
      P1  H  6896  6907       L1    21  0.94

> <Gold.PLP.Chemscore.Internal.Correction>
0.5238

> <Gold.Rescore>
     Score         DG    S(hbond)    S(metal)    S(lipo)     H(rot)  DE(clash)    DE(int)     intcor
     16.32     -19.71       1.70        0.00     100.42       1.25       0.15       3.25       ----

> <Gold.Chemscore.Fitness>
16.3170

> <Gold.Chemscore.DG>
-19.7145

> <Gold.Chemscore.ZeroCoef>
-5.4800

> <Gold.Chemscore.Hbond>
1.7000

> <Gold.Chemscore.Metal>
0.0000

> <Gold.Chemscore.Lipo>
100.4232

> <Gold.Chemscore.Internal_Hbond>
0.0000

> <Gold.Chemscore.DEClash>
0.1505

> <Gold.Chemscore.DEInternal>
3.2470

> <Gold.Chemscore.Rot>
1.2473

> <Gold.Chemscore.Internal.Correction>
   9.000000E+99

> <Gold.Chemscore.Hbonds>
donor molecule, donor type, donor heavy atom, donor atom, acceptor molecule, acceptor atom, score
      L1  H    16    38       P1  7948  0.69
      P1  H  6896  6907       L1    21  0.89

> <Gold.Chemscore.Hbond.Weighted>
-5.6781

> <Gold.Chemscore.Metal.Weighted>
-0.0000

> <Gold.Chemscore.Lipo.Weighted>
-11.7495

> <Gold.Chemscore.Internal_Hbond.Weighted>
0.0000

> <Gold.Chemscore.DEClash.Weighted>
0.1505

> <Gold.Chemscore.DEInternal.Weighted>
3.2470

> <Gold.Chemscore.Rot.Weighted>
3.1931

> <Gold.Chemscore.Internal.Correction.Weighted>
   9.000000E+99

> <Gold.Protein.RotatedTorsions>
[ 6907 6896 6895 6894 ] final -157.92 input  -60.11 | X-H torsion
[ 7974 7965 7964 7962 ] final -146.99 input  175.53 | X-H torsion
[ 8008 7997 7996 7995 ] final   80.97 input   59.86 | X-H torsion
[ 10167 10162 10161 10158 ] final  116.64 input  -65.29 | X-H torsion
[ 10718 10713 10712 10709 ] final   -7.58 input   66.30 | X-H torsion
[ 10763 10752 10751 10750 ] final   87.46 input  -60.55 | X-H torsion
[ 11005 11000 10999 10996 ] final    0.10 input  -57.11 | X-H torsion

> <Gold.Protein.ActiveResidues>
 VAL166  LYS551  ARG553  GLY616  TRP617  ASP618  TYR619  PRO620  LYS621  CYS622 
 ASP623  PHE694  ASN695  SER759  ASP760  ASP761  ALA762  ILE779  LEU786  VAL792 
 PHE793  MET794  SER795  GLU796  ALA797  LYS798  CYS799  TRP800  GLU811  SER814 

> <Gold.Protein.RotatedAtoms>
  151.3103  133.4083  159.2646 H   0  0  0  0  0  0  0  0  0  0  0  0  # atno 6907 bound_to 6896
  151.0120  134.9404  159.8023 H   0  0  0  0  0  0  0  0  0  0  0  0  # atno 6908 bound_to 6896
  152.5303  134.3067  159.9151 H   0  0  0  0  0  0  0  0  0  0  0  0  # atno 6909 bound_to 6896
  144.8123  140.5385  143.5634 H   0  0  0  0  0  0  0  0  0  0  0  0  # atno 7974 bound_to 7965
  155.8907  140.3439  155.5954 H   0  0  0  0  0  0  0  0  0  0  0  0  # atno 8008 bound_to 7997
  155.7614  140.0833  157.2172 H   0  0  0  0  0  0  0  0  0  0  0  0  # atno 8009 bound_to 7997
  154.4033  140.1535  156.2824 H   0  0  0  0  0  0  0  0  0  0  0  0  # atno 8010 bound_to 7997
  139.6233  144.7104  151.2587 H   0  0  0  0  0  0  0  0  0  0  0  0  # atno 10167 bound_to 10162
  156.7151  130.5134  149.5882 H   0  0  0  0  0  0  0  0  0  0  0  0  # atno 10718 bound_to 10713
  153.1670  135.4543  154.9851 H   0  0  0  0  0  0  0  0  0  0  0  0  # atno 10763 bound_to 10752
  154.7939  135.3230  154.7715 H   0  0  0  0  0  0  0  0  0  0  0  0  # atno 10764 bound_to 10752
  153.8197  135.6948  153.4883 H   0  0  0  0  0  0  0  0  0  0  0  0  # atno 10765 bound_to 10752
  140.6303  133.9581  155.8271 H   0  0  0  0  0  0  0  0  0  0  0  0  # atno 11005 bound_to 11000
  145.5295  139.1475  143.3507 LP  0  0  0  0  0  0  0  0  0  0  0  0  # atno 17320 bound_to 7965
  146.2423  140.5436  142.8929 LP  0  0  0  0  0  0  0  0  0  0  0  0  # atno 17321 bound_to 7965
  140.7395  143.6615  150.8160 LP  0  0  0  0  0  0  0  0  0  0  0  0  # atno 17342 bound_to 10162
  140.0229  143.5524  152.2793 LP  0  0  0  0  0  0  0  0  0  0  0  0  # atno 17343 bound_to 10162
  156.1634  130.6389  151.0747 LP  0  0  0  0  0  0  0  0  0  0  0  0  # atno 17370 bound_to 10713
  157.6920  131.0806  150.7078 LP  0  0  0  0  0  0  0  0  0  0  0  0  # atno 17371 bound_to 10713
  141.0680  134.0248  157.3567 LP  0  0  0  0  0  0  0  0  0  0  0  0  # atno 17394 bound_to 11000
  139.9118  135.0191  156.7724 LP  0  0  0  0  0  0  0  0  0  0  0  0  # atno 17395 bound_to 11000

$$$$
