AV-unprocessed.smi:3293|AV-procd|sdf|12629|dock1
  -GOLD-   2272018563D 1   1.00000     0.00000
 Structure written by MMmdl.
 44 45  0  0  0  0  0  0  0  0  2 V2000
  152.0169  144.7005  157.9948 C   0  0  0  0  0  0  0  0  0  0  0  0
  152.2692  143.9246  159.2771 C   0  0  0  0  0  0  0  0  0  0  0  0
  152.0298  144.4837  160.4799 C   0  0  0  0  0  0  0  0  0  0  0  0
  152.2978  143.8132  161.8163 C   0  0  0  0  0  0  0  0  0  0  0  0
  152.7002  142.3355  161.6798 C   0  0  0  0  0  0  0  0  0  0  0  0
  153.5914  142.1086  160.4467 C   0  0  1  0  0  0  0  0  0  0  0  0
  154.2024  140.6968  160.4239 C   0  0  0  0  0  0  0  0  0  0  0  0
  152.8477  142.5094  159.1415 C   0  0  1  0  0  0  0  0  0  0  0  0
  151.7735  141.4756  158.7132 C   0  0  0  0  0  0  0  0  0  0  0  0
  151.5274  141.4736  157.2578 N   0  3  0  0  0  0  0  0  0  0  0  0
  150.1644  141.8900  156.8765 C   0  0  0  0  0  0  0  0  0  0  0  0
  149.5686  140.9363  155.8329 C   0  0  0  0  0  0  0  0  0  0  0  0
  148.2778  141.4671  155.2757 C   0  0  0  0  0  0  0  0  0  0  0  0
  147.9097  141.6060  153.9069 C   0  0  0  0  0  0  0  0  0  0  0  0
  146.6991  142.1151  153.7488 N   0  0  0  0  0  0  0  0  0  0  0  0
  146.2521  142.3165  155.0053 N   0  0  0  0  0  0  0  0  0  0  0  0
  144.9333  142.8756  155.2122 C   0  0  0  0  0  0  0  0  0  0  0  0
  147.1821  141.9327  155.9472 C   0  0  0  0  0  0  0  0  0  0  0  0
  152.8805  144.6371  157.3324 H   0  0  0  0  0  0  0  0  0  0  0  0
  151.8396  145.7559  158.2055 H   0  0  0  0  0  0  0  0  0  0  0  0
  151.1420  144.3252  157.4666 H   0  0  0  0  0  0  0  0  0  0  0  0
  151.6461  145.4924  160.5336 H   0  0  0  0  0  0  0  0  0  0  0  0
  153.0997  144.3679  162.3042 H   0  0  0  0  0  0  0  0  0  0  0  0
  151.4181  143.9066  162.4536 H   0  0  0  0  0  0  0  0  0  0  0  0
  153.2136  142.0163  162.5876 H   0  0  0  0  0  0  0  0  0  0  0  0
  151.8053  141.7170  161.6074 H   0  0  0  0  0  0  0  0  0  0  0  0
  154.4384  142.7906  160.5422 H   0  0  0  0  0  0  0  0  0  0  0  0
  153.4406  139.9202  160.4900 H   0  0  0  0  0  0  0  0  0  0  0  0
  154.8768  140.5548  161.2687 H   0  0  0  0  0  0  0  0  0  0  0  0
  154.7799  140.5311  159.5139 H   0  0  0  0  0  0  0  0  0  0  0  0
  153.6048  142.5466  158.3565 H   0  0  0  0  0  0  0  0  0  0  0  0
  152.0812  140.4654  158.9789 H   0  0  0  0  0  0  0  0  0  0  0  0
  150.8347  141.6692  159.2335 H   0  0  0  0  0  0  0  0  0  0  0  0
  152.1881  142.1005  156.8211 H   0  0  0  0  0  0  0  0  0  0  0  0
  149.5323  141.9109  157.7654 H   0  0  0  0  0  0  0  0  0  0  0  0
  150.1988  142.9059  156.4799 H   0  0  0  0  0  0  0  0  0  0  0  0
  150.2931  140.7793  155.0327 H   0  0  0  0  0  0  0  0  0  0  0  0
  149.4118  139.9571  156.2871 H   0  0  0  0  0  0  0  0  0  0  0  0
  148.4855  141.3551  153.0281 H   0  0  0  0  0  0  0  0  0  0  0  0
  144.7653  143.0566  156.2744 H   0  0  0  0  0  0  0  0  0  0  0  0
  144.1770  142.1805  154.8467 H   0  0  0  0  0  0  0  0  0  0  0  0
  144.8432  143.8197  154.6742 H   0  0  0  0  0  0  0  0  0  0  0  0
  146.9905  142.0244  157.0063 H   0  0  0  0  0  0  0  0  0  0  0  0
  151.6882  140.5399  156.9079 H   0  0  0  0  0  0  0  0  0  0  0  0
  1  2  1  0  0  0  0
  1 19  1  0  0  0  0
  1 20  1  0  0  0  0
  1 21  1  0  0  0  0
  2  8  1  0  0  0  0
  2  3  2  0  0  0  0
  3  4  1  0  0  0  0
  3 22  1  0  0  0  0
  4  5  1  0  0  0  0
  4 23  1  0  0  0  0
  4 24  1  0  0  0  0
  5  6  1  0  0  0  0
  5 25  1  0  0  0  0
  5 26  1  0  0  0  0
  6  7  1  0  0  0  0
  6  8  1  0  0  0  0
  6 27  1  0  0  0  0
  7 28  1  0  0  0  0
  7 29  1  0  0  0  0
  7 30  1  0  0  0  0
  8  9  1  0  0  0  0
  8 31  1  0  0  0  0
  9 10  1  0  0  0  0
  9 32  1  0  0  0  0
  9 33  1  0  0  0  0
 10 11  1  0  0  0  0
 10 34  1  0  0  0  0
 10 44  1  0  0  0  0
 11 12  1  0  0  0  0
 11 35  1  0  0  0  0
 11 36  1  0  0  0  0
 12 13  1  0  0  0  0
 12 37  1  0  0  0  0
 12 38  1  0  0  0  0
 13 18  2  0  0  0  0
 13 14  1  0  0  0  0
 14 15  2  0  0  0  0
 14 39  1  0  0  0  0
 15 16  1  0  0  0  0
 16 17  1  0  0  0  0
 16 18  1  0  0  0  0
 17 40  1  0  0  0  0
 17 41  1  0  0  0  0
 17 42  1  0  0  0  0
 18 43  1  0  0  0  0
M  CHG  1  10   1
M  END
> <s_m_source_file>
AV-unprocessed.smi

> <i_m_source_file_index>
3293

> <i_lp_mmshare_version>
43012

> <i_f3d_flags>
0

> <s_epik_input>
W0NIM11DMT1bQ0hdW0NIMl1bQ0gyXVtDQEBIXShbQ0gzXSlbQ0BIXTFbQ0gyXVtOSF1bQ0gyXVtDSDJdYzJbY0hdbm4oW0NIM10pW2NIXTI=

> <s_epik_cmdline>
J2VwaWtfcHl0aG9uJywgJy1waCcsICc3LjAnLCAnLXRuJywgJzgnLCAnLW1hJywgJzIwMCcsICctbWV0YWxfYmluZGluZycsICctaW1hZScsICc8aW5maWxlLm1hZT4nLCAnLW9tYWUnLCAnPG91dGZpbGUubWFlPic=

> <r_lp_tautomer_probability>
1

> <r_epik_Ionization_Penalty>
0.000598621

> <r_epik_Ionization_Penalty_Charging>
0.000582095

> <r_epik_Ionization_Penalty_Neutral>
1.65262e-05

> <r_epik_State_Penalty>
-0

> <r_epik_Charging_Adjusted_Penalty>
0.000582095

> <i_epik_Tot_Q>
1

> <i_epik_Tot_abs_Q>
1

> <r_epik_Metal_State_Penalty>
-0

> <b_epik_Metal_Only>
0

> <s_lp_Force_Field>
OPLS_2005

> <r_lp_Energy>
11.7739

> <b_lp_Chiralities_Consistent>
1

> <s_lp_Variant>
AV-unprocessed.smi:3293-1

> <Gold.Version>
5.8.1

> <Gold.Id.Protein>
6NUR|6NUR_protein|mol2

> <Gold.PLP.Fitness>
48.9465

> <Gold.PLP.PLP>
-48.0187

> <Gold.PLP.part.hbond>
0.0000

> <Gold.PLP.part.metal>
0.0000

> <Gold.PLP.part.buried>
-4.0515

> <Gold.PLP.part.nonpolar>
-43.9140

> <Gold.PLP.part.repulsive>
0.2774

> <Gold.PLP.ligand.clash>
0.0000

> <Gold.PLP.ligand.torsion>
1.0744

> <Gold.PLP.Chemscore.Hbond>
0.0000

> <Gold.PLP.Chemscore.CHOScore>
1.0000

> <Gold.PLP.Chemscore.Metal>
0.0000

> <Gold.Chemscore.Hbonds>
donor molecule, donor type, donor heavy atom, donor atom, acceptor molecule, acceptor atom, score
      L1  C    14    39       P1  7957  1.00

> <Gold.PLP.Chemscore.Internal.Correction>
0.0766

> <Gold.Rescore>
     Score         DG    S(hbond)    S(metal)    S(lipo)     H(rot)  DE(clash)    DE(int)     intcor
     16.33     -17.85       0.00        0.00     138.18       1.48       0.22       1.30       ----

> <Gold.Chemscore.Fitness>
16.3304

> <Gold.Chemscore.DG>
-17.8466

> <Gold.Chemscore.ZeroCoef>
-5.4800

> <Gold.Chemscore.Hbond>
0.0000

> <Gold.Chemscore.Metal>
0.0000

> <Gold.Chemscore.Lipo>
138.1833

> <Gold.Chemscore.Internal_Hbond>
0.0000

> <Gold.Chemscore.DEClash>
0.2201

> <Gold.Chemscore.DEInternal>
1.2961

> <Gold.Chemscore.Rot>
1.4847

> <Gold.Chemscore.Internal.Correction>
   9.000000E+99

> <Gold.Chemscore.Hbond.Weighted>
-0.0000

> <Gold.Chemscore.Metal.Weighted>
-0.0000

> <Gold.Chemscore.Lipo.Weighted>
-16.1674

> <Gold.Chemscore.Internal_Hbond.Weighted>
0.0000

> <Gold.Chemscore.DEClash.Weighted>
0.2201

> <Gold.Chemscore.DEInternal.Weighted>
1.2961

> <Gold.Chemscore.Rot.Weighted>
3.8008

> <Gold.Chemscore.Internal.Correction.Weighted>
   9.000000E+99

> <Gold.Protein.RotatedTorsions>
[ 6907 6896 6895 6894 ] final  -50.25 input  -60.11 | X-H torsion
[ 7974 7965 7964 7962 ] final   62.05 input  175.53 | X-H torsion
[ 8008 7997 7996 7995 ] final  133.10 input   59.86 | X-H torsion
[ 10167 10162 10161 10158 ] final -108.87 input  -65.29 | X-H torsion
[ 10718 10713 10712 10709 ] final   24.47 input   66.30 | X-H torsion
[ 10763 10752 10751 10750 ] final -145.40 input  -60.55 | X-H torsion
[ 11005 11000 10999 10996 ] final  -95.92 input  -57.11 | X-H torsion

> <Gold.Protein.ActiveResidues>
 VAL166  LYS551  ARG553  GLY616  TRP617  ASP618  TYR619  PRO620  LYS621  CYS622 
 ASP623  PHE694  ASN695  SER759  ASP760  ASP761  ALA762  ILE779  LEU786  VAL792 
 PHE793  MET794  SER795  GLU796  ALA797  LYS798  CYS799  TRP800  GLU811  SER814 

> <Gold.Protein.RotatedAtoms>
  150.8726  134.8102  159.7165 H   0  0  0  0  0  0  0  0  0  0  0  0  # atno 6907 bound_to 6896
  152.4725  134.4923  159.9709 H   0  0  0  0  0  0  0  0  0  0  0  0  # atno 6908 bound_to 6896
  151.5009  133.3466  159.2904 H   0  0  0  0  0  0  0  0  0  0  0  0  # atno 6909 bound_to 6896
  145.8778  139.3422  143.0724 H   0  0  0  0  0  0  0  0  0  0  0  0  # atno 7974 bound_to 7965
  156.2989  140.2530  156.3197 H   0  0  0  0  0  0  0  0  0  0  0  0  # atno 8008 bound_to 7997
  154.9247  140.0400  157.2035 H   0  0  0  0  0  0  0  0  0  0  0  0  # atno 8009 bound_to 7997
  154.8277  140.2870  155.5748 H   0  0  0  0  0  0  0  0  0  0  0  0  # atno 8010 bound_to 7997
  140.1614  143.4117  152.1422 H   0  0  0  0  0  0  0  0  0  0  0  0  # atno 10167 bound_to 10162
  157.1803  130.6799  149.6110 H   0  0  0  0  0  0  0  0  0  0  0  0  # atno 10718 bound_to 10713
  154.8385  135.3414  154.6498 H   0  0  0  0  0  0  0  0  0  0  0  0  # atno 10763 bound_to 10752
  153.7111  135.6964  153.5042 H   0  0  0  0  0  0  0  0  0  0  0  0  # atno 10764 bound_to 10752
  153.2451  135.4372  155.0693 H   0  0  0  0  0  0  0  0  0  0  0  0  # atno 10765 bound_to 10752
  141.1427  133.8060  157.0501 H   0  0  0  0  0  0  0  0  0  0  0  0  # atno 11005 bound_to 11000
  145.9060  140.9211  143.0478 LP  0  0  0  0  0  0  0  0  0  0  0  0  # atno 17320 bound_to 7965
  144.6726  140.1097  143.7456 LP  0  0  0  0  0  0  0  0  0  0  0  0  # atno 17321 bound_to 7965
  139.5379  144.7228  151.4831 LP  0  0  0  0  0  0  0  0  0  0  0  0  # atno 17342 bound_to 10162
  140.6640  143.8437  150.6920 LP  0  0  0  0  0  0  0  0  0  0  0  0  # atno 17343 bound_to 10162
  155.9725  130.4649  150.6234 LP  0  0  0  0  0  0  0  0  0  0  0  0  # atno 17370 bound_to 10713
  157.3959  131.0803  151.1352 LP  0  0  0  0  0  0  0  0  0  0  0  0  # atno 17371 bound_to 10713
  140.0637  134.9740  157.1350 LP  0  0  0  0  0  0  0  0  0  0  0  0  # atno 17394 bound_to 11000
  140.3810  134.2287  155.7171 LP  0  0  0  0  0  0  0  0  0  0  0  0  # atno 17395 bound_to 11000

$$$$
