AV-unprocessed.smi:3068|AV-procd|sdf|11705|dock6
  -GOLD-   2272017103D 1   1.00000     0.00000
 Structure written by MMmdl.
 40 42  0  0  0  0  0  0  0  0  2 V2000
  147.8299  144.2160  161.4229 N   0  0  0  0  0  0  0  0  0  0  0  0
  146.6927  144.0039  161.3887 C   0  0  0  0  0  0  0  0  0  0  0  0
  145.2604  143.7383  161.3466 C   0  0  0  0  0  0  0  0  0  0  0  0
  144.5929  143.8173  162.5210 N   0  0  0  0  0  0  0  0  0  0  0  0
  143.2661  143.5701  162.4962 C   0  0  0  0  0  0  0  0  0  0  0  0
  142.5996  143.2413  161.3000 C   0  0  0  0  0  0  0  0  0  0  0  0
  143.2575  143.1591  160.1241 N   0  0  0  0  0  0  0  0  0  0  0  0
  144.5915  143.4063  160.1343 C   0  0  0  0  0  0  0  0  0  0  0  0
  145.2916  143.3280  158.9158 N   0  0  0  0  0  0  0  0  0  0  0  0
  145.9306  142.0961  158.4686 C   0  0  0  0  0  0  0  0  0  0  0  0
  147.3612  142.3296  157.9542 C   0  0  1  0  0  0  0  0  0  0  0  0
  148.1197  143.3435  158.8295 C   0  0  0  0  0  0  0  0  0  0  0  0
  149.5153  143.4970  158.3584 N   0  3  1  0  0  0  0  0  0  0  0  0
  150.2726  144.4998  159.1491 C   0  0  0  0  0  0  0  0  0  0  0  0
  151.6840  144.7040  158.5764 C   0  0  0  0  0  0  0  0  0  0  0  0
  152.4411  143.3716  158.5039 C   0  0  0  0  0  0  0  0  0  0  0  0
  151.6251  142.3459  157.7054 C   0  0  0  0  0  0  0  0  0  0  0  0
  150.2080  142.1814  158.2894 C   0  0  2  0  0  0  0  0  0  0  0  0
  149.3706  141.1901  157.4577 C   0  0  0  0  0  0  0  0  0  0  0  0
  148.0600  141.0902  158.0000 O   0  0  0  0  0  0  0  0  0  0  0  0
  142.7346  143.6339  163.4342 H   0  0  0  0  0  0  0  0  0  0  0  0
  141.5379  143.0440  161.2866 H   0  0  0  0  0  0  0  0  0  0  0  0
  145.4454  144.1699  158.3786 H   0  0  0  0  0  0  0  0  0  0  0  0
  145.9328  141.3721  159.2843 H   0  0  0  0  0  0  0  0  0  0  0  0
  145.3199  141.6587  157.6784 H   0  0  0  0  0  0  0  0  0  0  0  0
  147.3282  142.6962  156.9266 H   0  0  0  0  0  0  0  0  0  0  0  0
  147.6169  144.3109  158.7957 H   0  0  0  0  0  0  0  0  0  0  0  0
  148.1191  143.0175  159.8709 H   0  0  0  0  0  0  0  0  0  0  0  0
  149.7362  145.4496  159.1428 H   0  0  0  0  0  0  0  0  0  0  0  0
  150.3333  144.1760  160.1895 H   0  0  0  0  0  0  0  0  0  0  0  0
  151.6155  145.1430  157.5802 H   0  0  0  0  0  0  0  0  0  0  0  0
  152.2371  145.4148  159.1911 H   0  0  0  0  0  0  0  0  0  0  0  0
  153.4180  143.5181  158.0421 H   0  0  0  0  0  0  0  0  0  0  0  0
  152.6242  142.9951  159.5111 H   0  0  0  0  0  0  0  0  0  0  0  0
  151.5616  142.6649  156.6639 H   0  0  0  0  0  0  0  0  0  0  0  0
  152.1434  141.3862  157.7026 H   0  0  0  0  0  0  0  0  0  0  0  0
  150.2923  141.7902  159.3052 H   0  0  0  0  0  0  0  0  0  0  0  0
  149.3190  141.4968  156.4115 H   0  0  0  0  0  0  0  0  0  0  0  0
  149.8299  140.2015  157.4755 H   0  0  0  0  0  0  0  0  0  0  0  0
  149.4659  143.8488  157.4130 H   0  0  0  0  0  0  0  0  0  0  0  0
  1  2  3  0  0  0  0
  2  3  1  0  0  0  0
  3  8  1  0  0  0  0
  3  4  2  0  0  0  0
  4  5  1  0  0  0  0
  5  6  2  0  0  0  0
  5 21  1  0  0  0  0
  6  7  1  0  0  0  0
  6 22  1  0  0  0  0
  7  8  2  0  0  0  0
  8  9  1  0  0  0  0
  9 10  1  0  0  0  0
  9 23  1  0  0  0  0
 10 11  1  0  0  0  0
 10 24  1  0  0  0  0
 10 25  1  0  0  0  0
 11 20  1  0  0  0  0
 11 12  1  0  0  0  0
 11 26  1  0  0  0  0
 12 13  1  0  0  0  0
 12 27  1  0  0  0  0
 12 28  1  0  0  0  0
 13 18  1  0  0  0  0
 13 14  1  0  0  0  0
 13 40  1  0  0  0  0
 14 15  1  0  0  0  0
 14 29  1  0  0  0  0
 14 30  1  0  0  0  0
 15 16  1  0  0  0  0
 15 31  1  0  0  0  0
 15 32  1  0  0  0  0
 16 17  1  0  0  0  0
 16 33  1  0  0  0  0
 16 34  1  0  0  0  0
 17 18  1  0  0  0  0
 17 35  1  0  0  0  0
 17 36  1  0  0  0  0
 18 19  1  0  0  0  0
 18 37  1  0  0  0  0
 19 20  1  0  0  0  0
 19 38  1  0  0  0  0
 19 39  1  0  0  0  0
M  CHG  1  13   1
M  END
> <s_m_source_file>
AV-unprocessed.smi

> <i_m_source_file_index>
3068

> <i_lp_mmshare_version>
43012

> <i_f3d_flags>
0

> <s_epik_input>
TiNDYzFuW2NIXVtjSF1uYzFbTkhdW0NIMl1bQ0BIXShbQ0gyXTIpT1tDSDJdW0NAQEhdKE4yMylbQ0gyXVtDSDJdW0NIMl1bQ0gyXTM=

> <s_epik_cmdline>
J2VwaWtfcHl0aG9uJywgJy1waCcsICc3LjAnLCAnLXRuJywgJzgnLCAnLW1hJywgJzIwMCcsICctbWV0YWxfYmluZGluZycsICctaW1hZScsICc8aW5maWxlLm1hZT4nLCAnLW9tYWUnLCAnPG91dGZpbGUubWFlPic=

> <r_epik_Ionization_Penalty>
0.0804321

> <r_epik_Ionization_Penalty_Charging>
0.0803403

> <r_epik_Ionization_Penalty_Neutral>
9.17277e-05

> <r_epik_State_Penalty>
0.0711481

> <r_epik_Charging_Adjusted_Penalty>
0.151488

> <i_epik_Tot_Q>
1

> <i_epik_Tot_abs_Q>
1

> <r_epik_Metal_State_Penalty>
0.0711481

> <b_epik_Metal_Only>
0

> <s_lp_Force_Field>
OPLS_2005

> <r_lp_Energy>
36.4506

> <b_lp_Chiralities_Consistent>
1

> <s_lp_Variant>
AV-unprocessed.smi:3068-8

> <Gold.Version>
5.8.1

> <Gold.Id.Protein>
6NUR|6NUR_protein|mol2

> <Gold.PLP.Fitness>
40.2422

> <Gold.PLP.PLP>
-33.2776

> <Gold.PLP.part.hbond>
-3.0580

> <Gold.PLP.part.metal>
0.0000

> <Gold.PLP.part.buried>
-6.5550

> <Gold.PLP.part.nonpolar>
-24.2544

> <Gold.PLP.part.repulsive>
0.3695

> <Gold.PLP.ligand.clash>
0.0000

> <Gold.PLP.ligand.torsion>
1.0197

> <Gold.PLP.Chemscore.Hbond>
3.0000

> <Gold.PLP.Chemscore.CHOScore>
0.0000

> <Gold.PLP.Chemscore.Metal>
0.0000

> <Gold.Chemscore.Hbonds>
donor molecule, donor type, donor heavy atom, donor atom, acceptor molecule, acceptor atom, score
      L1  H    13    40       P1  8028  2.00
      P1  H  6933  6944       L1     1  1.00

> <Gold.PLP.Chemscore.Internal.Correction>
0.0040

> <Gold.Rescore>
     Score         DG    S(hbond)    S(metal)    S(lipo)     H(rot)  DE(clash)    DE(int)     intcor
     14.77     -16.36       1.79        0.00      70.79       1.32       0.39       1.20       ----

> <Gold.Chemscore.Fitness>
14.7741

> <Gold.Chemscore.DG>
-16.3636

> <Gold.Chemscore.ZeroCoef>
-5.4800

> <Gold.Chemscore.Hbond>
1.7899

> <Gold.Chemscore.Metal>
0.0000

> <Gold.Chemscore.Lipo>
70.7919

> <Gold.Chemscore.Internal_Hbond>
0.0000

> <Gold.Chemscore.DEClash>
0.3856

> <Gold.Chemscore.DEInternal>
1.2039

> <Gold.Chemscore.Rot>
1.3193

> <Gold.Chemscore.Internal.Correction>
   9.000000E+99

> <Gold.Chemscore.Hbonds>
donor molecule, donor type, donor heavy atom, donor atom, acceptor molecule, acceptor atom, score
      L1  H    13    40       P1  8028  0.42
      P1  H  6933  6944       L1     1  0.25

> <Gold.Chemscore.Hbond.Weighted>
-5.9783

> <Gold.Chemscore.Metal.Weighted>
-0.0000

> <Gold.Chemscore.Lipo.Weighted>
-8.2826

> <Gold.Chemscore.Internal_Hbond.Weighted>
0.0000

> <Gold.Chemscore.DEClash.Weighted>
0.3856

> <Gold.Chemscore.DEInternal.Weighted>
1.2039

> <Gold.Chemscore.Rot.Weighted>
3.3774

> <Gold.Chemscore.Internal.Correction.Weighted>
   9.000000E+99

> <Gold.Protein.RotatedTorsions>
[ 6907 6896 6895 6894 ] final  125.67 input  -60.11 | X-H torsion
[ 7974 7965 7964 7962 ] final -106.82 input  175.53 | X-H torsion
[ 8008 7997 7996 7995 ] final -153.88 input   59.86 | X-H torsion
[ 10167 10162 10161 10158 ] final  -79.24 input  -65.29 | X-H torsion
[ 10718 10713 10712 10709 ] final  107.06 input   66.30 | X-H torsion
[ 10763 10752 10751 10750 ] final -170.46 input  -60.55 | X-H torsion
[ 11005 11000 10999 10996 ] final  -70.44 input  -57.11 | X-H torsion

> <Gold.Protein.ActiveResidues>
 VAL166  LYS551  ARG553  GLY616  TRP617  ASP618  TYR619  PRO620  LYS621  CYS622 
 ASP623  PHE694  ASN695  SER759  ASP760  ASP761  ALA762  ILE779  LEU786  VAL792 
 PHE793  MET794  SER795  GLU796  ALA797  LYS798  CYS799  TRP800  GLU811  SER814 

> <Gold.Protein.RotatedAtoms>
  152.3971  133.6763  159.6285 H   0  0  0  0  0  0  0  0  0  0  0  0  # atno 6907 bound_to 6896
  150.7868  133.8855  159.3307 H   0  0  0  0  0  0  0  0  0  0  0  0  # atno 6908 bound_to 6896
  151.6628  135.0988  160.0234 H   0  0  0  0  0  0  0  0  0  0  0  0  # atno 6909 bound_to 6896
  145.2131  140.9104  143.3303 H   0  0  0  0  0  0  0  0  0  0  0  0  # atno 7974 bound_to 7965
  155.6777  140.0740  157.2496 H   0  0  0  0  0  0  0  0  0  0  0  0  # atno 8008 bound_to 7997
  154.4111  140.1687  156.2000 H   0  0  0  0  0  0  0  0  0  0  0  0  # atno 8009 bound_to 7997
  155.9561  140.3373  155.6453 H   0  0  0  0  0  0  0  0  0  0  0  0  # atno 8010 bound_to 7997
  140.4611  143.2453  151.8347 H   0  0  0  0  0  0  0  0  0  0  0  0  # atno 10167 bound_to 10162
  157.6643  131.0864  150.6100 H   0  0  0  0  0  0  0  0  0  0  0  0  # atno 10718 bound_to 10713
  154.6412  135.2899  155.0101 H   0  0  0  0  0  0  0  0  0  0  0  0  # atno 10763 bound_to 10752
  154.1226  135.6545  153.4910 H   0  0  0  0  0  0  0  0  0  0  0  0  # atno 10764 bound_to 10752
  153.0328  135.5291  154.7280 H   0  0  0  0  0  0  0  0  0  0  0  0  # atno 10765 bound_to 10752
  141.1574  133.6790  156.6753 H   0  0  0  0  0  0  0  0  0  0  0  0  # atno 11005 bound_to 11000
  144.9837  139.3758  143.6249 LP  0  0  0  0  0  0  0  0  0  0  0  0  # atno 17320 bound_to 7965
  146.3393  139.8989  142.8797 LP  0  0  0  0  0  0  0  0  0  0  0  0  # atno 17321 bound_to 7965
  139.4806  144.5006  151.9065 LP  0  0  0  0  0  0  0  0  0  0  0  0  # atno 17342 bound_to 10162
  140.4092  144.2391  150.5889 LP  0  0  0  0  0  0  0  0  0  0  0  0  # atno 17343 bound_to 10162
  156.6402  130.4456  149.5755 LP  0  0  0  0  0  0  0  0  0  0  0  0  # atno 17370 bound_to 10713
  156.2215  130.6740  151.1373 LP  0  0  0  0  0  0  0  0  0  0  0  0  # atno 17371 bound_to 10713
  140.3144  134.8060  157.4202 LP  0  0  0  0  0  0  0  0  0  0  0  0  # atno 17394 bound_to 11000
  140.1151  134.5294  155.8232 LP  0  0  0  0  0  0  0  0  0  0  0  0  # atno 17395 bound_to 11000

$$$$
