AV-unprocessed.smi:1933|AV-procd|sdf|7822|dock6
  -GOLD-   22720 9563D 1   1.00000     0.00000
 Structure written by MMmdl.
 48 50  0  0  0  0  0  0  0  0  2 V2000
  148.4238  132.5411  154.4349 O   0  0  0  0  0  0  0  0  0  0  0  0
  148.4441  133.5685  153.7569 C   0  0  0  0  0  0  0  0  0  0  0  0
  149.1589  134.6556  154.0819 N   0  0  0  0  0  0  0  0  0  0  0  0
  149.9996  134.7926  155.2673 C   0  0  0  0  0  0  0  0  0  0  0  0
  149.5987  136.0059  156.1495 C   0  0  1  0  0  0  0  0  0  0  0  0
  149.5567  135.6891  157.6720 C   0  0  1  0  0  0  0  0  0  0  0  0
  148.9335  136.7879  158.5198 C   0  0  0  0  0  0  0  0  0  0  0  0
  148.6067  136.0506  159.8106 C   0  0  0  0  0  0  0  0  0  0  0  0
  148.1859  134.7618  159.3894 O   0  0  0  0  0  0  0  0  0  0  0  0
  148.6886  134.4898  158.0844 C   0  0  0  0  0  0  0  0  0  0  0  0
  150.4804  137.1872  155.9026 N   0  3  0  0  0  0  0  0  0  0  0  0
  151.1486  137.2418  154.5769 C   0  0  0  0  0  0  0  0  0  0  0  0
  152.1548  138.4038  154.5454 C   0  0  0  0  0  0  0  0  0  0  0  0
  151.4814  139.6232  154.8356 O   0  0  0  0  0  0  0  0  0  0  0  0
  150.8963  139.6174  156.1327 C   0  0  0  0  0  0  0  0  0  0  0  0
  149.8525  138.4913  156.2270 C   0  0  0  0  0  0  0  0  0  0  0  0
  147.7648  133.7586  152.6121 N   0  0  0  0  0  0  0  0  0  0  0  0
  146.8840  132.8581  151.9553 C   0  0  0  0  0  0  0  0  0  0  0  0
  146.5258  133.2243  150.6381 C   0  0  0  0  0  0  0  0  0  0  0  0
  145.6565  132.3969  149.9011 C   0  0  0  0  0  0  0  0  0  0  0  0
  145.1667  131.2231  150.5008 C   0  0  0  0  0  0  0  0  0  0  0  0
  145.5713  130.9328  151.8168 C   0  0  0  0  0  0  0  0  0  0  0  0
  146.4044  131.7243  152.5248 N   0  0  0  0  0  0  0  0  0  0  0  0
  149.1167  135.4507  153.4612 H   0  0  0  0  0  0  0  0  0  0  0  0
  149.9648  133.8791  155.8625 H   0  0  0  0  0  0  0  0  0  0  0  0
  151.0262  134.8939  154.9165 H   0  0  0  0  0  0  0  0  0  0  0  0
  148.5890  136.3065  155.8644 H   0  0  0  0  0  0  0  0  0  0  0  0
  150.5689  135.5121  158.0385 H   0  0  0  0  0  0  0  0  0  0  0  0
  149.5995  137.6355  158.6846 H   0  0  0  0  0  0  0  0  0  0  0  0
  148.0161  137.1567  158.0581 H   0  0  0  0  0  0  0  0  0  0  0  0
  149.4996  135.9468  160.4285 H   0  0  0  0  0  0  0  0  0  0  0  0
  147.8382  136.5512  160.4002 H   0  0  0  0  0  0  0  0  0  0  0  0
  147.8361  134.3698  157.4149 H   0  0  0  0  0  0  0  0  0  0  0  0
  149.2526  133.5572  158.0837 H   0  0  0  0  0  0  0  0  0  0  0  0
  151.6665  136.3059  154.3694 H   0  0  0  0  0  0  0  0  0  0  0  0
  150.4122  137.3871  153.7858 H   0  0  0  0  0  0  0  0  0  0  0  0
  152.9635  138.2401  155.2598 H   0  0  0  0  0  0  0  0  0  0  0  0
  152.6116  138.4786  153.5584 H   0  0  0  0  0  0  0  0  0  0  0  0
  151.6700  139.4960  156.8927 H   0  0  0  0  0  0  0  0  0  0  0  0
  150.4235  140.5833  156.3115 H   0  0  0  0  0  0  0  0  0  0  0  0
  149.0294  138.6937  155.5412 H   0  0  0  0  0  0  0  0  0  0  0  0
  149.4344  138.4669  157.2339 H   0  0  0  0  0  0  0  0  0  0  0  0
  147.8865  134.6521  152.1590 H   0  0  0  0  0  0  0  0  0  0  0  0
  146.9110  134.1296  150.1918 H   0  0  0  0  0  0  0  0  0  0  0  0
  145.3713  132.6589  148.8931 H   0  0  0  0  0  0  0  0  0  0  0  0
  144.4987  130.5631  149.9674 H   0  0  0  0  0  0  0  0  0  0  0  0
  145.2172  130.0422  152.3144 H   0  0  0  0  0  0  0  0  0  0  0  0
  151.2271  137.0888  156.5756 H   0  0  0  0  0  0  0  0  0  0  0  0
  1  2  2  0  0  0  0
  2  3  1  0  0  0  0
  2 17  1  0  0  0  0
  3  4  1  0  0  0  0
  3 24  1  0  0  0  0
  4  5  1  0  0  0  0
  4 25  1  0  0  0  0
  4 26  1  0  0  0  0
  5  6  1  0  0  0  0
  5 11  1  0  0  0  0
  5 27  1  0  0  0  0
  6 10  1  0  0  0  0
  6  7  1  0  0  0  0
  6 28  1  0  0  0  0
  7  8  1  0  0  0  0
  7 29  1  0  0  0  0
  7 30  1  0  0  0  0
  8  9  1  0  0  0  0
  8 31  1  0  0  0  0
  8 32  1  0  0  0  0
  9 10  1  0  0  0  0
 10 33  1  0  0  0  0
 10 34  1  0  0  0  0
 11 16  1  0  0  0  0
 11 12  1  0  0  0  0
 11 48  1  0  0  0  0
 12 13  1  0  0  0  0
 12 35  1  0  0  0  0
 12 36  1  0  0  0  0
 13 14  1  0  0  0  0
 13 37  1  0  0  0  0
 13 38  1  0  0  0  0
 14 15  1  0  0  0  0
 15 16  1  0  0  0  0
 15 39  1  0  0  0  0
 15 40  1  0  0  0  0
 16 41  1  0  0  0  0
 16 42  1  0  0  0  0
 17 18  1  0  0  0  0
 17 43  1  0  0  0  0
 18 23  1  0  0  0  0
 18 19  2  0  0  0  0
 19 20  1  0  0  0  0
 19 44  1  0  0  0  0
 20 21  2  0  0  0  0
 20 45  1  0  0  0  0
 21 22  1  0  0  0  0
 21 46  1  0  0  0  0
 22 23  2  0  0  0  0
 22 47  1  0  0  0  0
M  CHG  1  11   1
M  END
> <s_m_source_file>
AV-unprocessed.smi

> <i_m_source_file_index>
1933

> <i_lp_mmshare_version>
43012

> <i_f3d_flags>
0

> <s_epik_input>
bjFbY0hdW2NIXVtjSF1bY0hdYzFbTkhdQyg9TylbTkhdW0NIMl1bQ0BIXShbQ0BASF0yW0NIMl1bQ0gyXU9bQ0gyXTIpTjNbQ0gyXVtDSDJdT1tDSDJdW0NIMl0z

> <s_epik_cmdline>
J2VwaWtfcHl0aG9uJywgJy1waCcsICc3LjAnLCAnLXRuJywgJzgnLCAnLW1hJywgJzIwMCcsICctbWV0YWxfYmluZGluZycsICctaW1hZScsICc8aW5maWxlLm1hZT4nLCAnLW9tYWUnLCAnPG91dGZpbGUubWFlPic=

> <r_epik_Ionization_Penalty>
0.983294

> <r_epik_Ionization_Penalty_Charging>
0.98326

> <r_epik_Ionization_Penalty_Neutral>
3.39688e-05

> <r_epik_State_Penalty>
1.0303

> <r_epik_Charging_Adjusted_Penalty>
2.01356

> <i_epik_Tot_Q>
1

> <i_epik_Tot_abs_Q>
1

> <r_epik_Metal_State_Penalty>
1.0303

> <b_epik_Metal_Only>
0

> <s_lp_Force_Field>
OPLS_2005

> <r_lp_Energy>
40.1163

> <b_lp_Chiralities_Consistent>
1

> <s_lp_Variant>
AV-unprocessed.smi:1933-8

> <Gold.Version>
5.8.1

> <Gold.Id.Protein>
6NUR|6NUR_protein|mol2

> <Gold.PLP.Fitness>
41.7188

> <Gold.PLP.PLP>
-34.8607

> <Gold.PLP.part.hbond>
-3.0000

> <Gold.PLP.part.metal>
0.0000

> <Gold.PLP.part.buried>
-6.7800

> <Gold.PLP.part.nonpolar>
-26.7121

> <Gold.PLP.part.repulsive>
0.2884

> <Gold.PLP.ligand.clash>
0.0000

> <Gold.PLP.ligand.torsion>
1.2905

> <Gold.PLP.Chemscore.Hbond>
3.0000

> <Gold.PLP.Chemscore.CHOScore>
0.0777

> <Gold.PLP.Chemscore.Metal>
0.0000

> <Gold.Chemscore.Hbonds>
donor molecule, donor type, donor heavy atom, donor atom, acceptor molecule, acceptor atom, score
      L1  H     3    24       P1  7948  1.00
      L1  H    17    43       P1  7948  0.99
      P1  H  7989  7998       L1    14  1.00

> <Gold.PLP.Chemscore.Internal.Correction>
0.2060

> <Gold.Rescore>
     Score         DG    S(hbond)    S(metal)    S(lipo)     H(rot)  DE(clash)    DE(int)     intcor
     15.89     -18.70       2.44        0.00      82.02       1.77       0.00       2.80       ----

> <Gold.Chemscore.Fitness>
15.8919

> <Gold.Chemscore.DG>
-18.6955

> <Gold.Chemscore.ZeroCoef>
-5.4800

> <Gold.Chemscore.Hbond>
2.4381

> <Gold.Chemscore.Metal>
0.0000

> <Gold.Chemscore.Lipo>
82.0163

> <Gold.Chemscore.Internal_Hbond>
0.0000

> <Gold.Chemscore.DEClash>
0.0000

> <Gold.Chemscore.DEInternal>
2.8037

> <Gold.Chemscore.Rot>
1.7671

> <Gold.Chemscore.Internal.Correction>
   9.000000E+99

> <Gold.Chemscore.Hbonds>
donor molecule, donor type, donor heavy atom, donor atom, acceptor molecule, acceptor atom, score
      L1  H     3    24       P1  7948  0.48
      L1  H    17    43       P1  7948  0.42
      P1  H  7989  7998       L1    14  0.85

> <Gold.Chemscore.Hbond.Weighted>
-8.1434

> <Gold.Chemscore.Metal.Weighted>
-0.0000

> <Gold.Chemscore.Lipo.Weighted>
-9.5959

> <Gold.Chemscore.Internal_Hbond.Weighted>
0.0000

> <Gold.Chemscore.DEClash.Weighted>
0.0000

> <Gold.Chemscore.DEInternal.Weighted>
2.8037

> <Gold.Chemscore.Rot.Weighted>
4.5238

> <Gold.Chemscore.Internal.Correction.Weighted>
   9.000000E+99

> <Gold.Protein.RotatedTorsions>
[ 6907 6896 6895 6894 ] final  -79.92 input  -60.11 | X-H torsion
[ 7974 7965 7964 7962 ] final  -71.68 input  175.53 | X-H torsion
[ 8008 7997 7996 7995 ] final -147.58 input   59.86 | X-H torsion
[ 10167 10162 10161 10158 ] final    2.92 input  -65.29 | X-H torsion
[ 10718 10713 10712 10709 ] final    1.82 input   66.30 | X-H torsion
[ 10763 10752 10751 10750 ] final  -13.52 input  -60.55 | X-H torsion
[ 11005 11000 10999 10996 ] final   88.97 input  -57.11 | X-H torsion

> <Gold.Protein.ActiveResidues>
 VAL166  LYS551  ARG553  GLY616  TRP617  ASP618  TYR619  PRO620  LYS621  CYS622 
 ASP623  PHE694  ASN695  SER759  ASP760  ASP761  ALA762  ILE779  LEU786  VAL792 
 PHE793  MET794  SER795  GLU796  ALA797  LYS798  CYS799  TRP800  GLU811  SER814 

> <Gold.Protein.RotatedAtoms>
  150.6940  134.4048  159.5134 H   0  0  0  0  0  0  0  0  0  0  0  0  # atno 6907 bound_to 6896
  152.1816  134.8747  160.0535 H   0  0  0  0  0  0  0  0  0  0  0  0  # atno 6908 bound_to 6896
  151.9735  133.3699  159.4117 H   0  0  0  0  0  0  0  0  0  0  0  0  # atno 6909 bound_to 6896
  145.6750  140.9208  143.0863 H   0  0  0  0  0  0  0  0  0  0  0  0  # atno 7974 bound_to 7965
  155.5779  140.0640  157.2790 H   0  0  0  0  0  0  0  0  0  0  0  0  # atno 8008 bound_to 7997
  154.4341  140.1857  156.0992 H   0  0  0  0  0  0  0  0  0  0  0  0  # atno 8009 bound_to 7997
  156.0327  140.3304  155.7161 H   0  0  0  0  0  0  0  0  0  0  0  0  # atno 8010 bound_to 7997
  140.6611  143.7300  150.7741 H   0  0  0  0  0  0  0  0  0  0  0  0  # atno 10167 bound_to 10162
  156.8539  130.5563  149.5667 H   0  0  0  0  0  0  0  0  0  0  0  0  # atno 10718 bound_to 10713
  153.5145  135.7016  153.5763 H   0  0  0  0  0  0  0  0  0  0  0  0  # atno 10763 bound_to 10752
  153.3839  135.3913  155.1876 H   0  0  0  0  0  0  0  0  0  0  0  0  # atno 10764 bound_to 10752
  154.8700  135.3842  154.4629 H   0  0  0  0  0  0  0  0  0  0  0  0  # atno 10765 bound_to 10752
  139.8885  134.8522  156.3076 H   0  0  0  0  0  0  0  0  0  0  0  0  # atno 11005 bound_to 11000
  144.7044  139.8622  143.7434 LP  0  0  0  0  0  0  0  0  0  0  0  0  # atno 17320 bound_to 7965
  146.1013  139.4009  143.0345 LP  0  0  0  0  0  0  0  0  0  0  0  0  # atno 17321 bound_to 7965
  140.0969  143.4824  152.2447 LP  0  0  0  0  0  0  0  0  0  0  0  0  # atno 17342 bound_to 10162
  139.5846  144.7525  151.3553 LP  0  0  0  0  0  0  0  0  0  0  0  0  # atno 17343 bound_to 10162
  156.0813  130.5823  150.9568 LP  0  0  0  0  0  0  0  0  0  0  0  0  # atno 17370 bound_to 10713
  157.6288  131.0923  150.8481 LP  0  0  0  0  0  0  0  0  0  0  0  0  # atno 17371 bound_to 10713
  140.9872  133.7231  156.0759 LP  0  0  0  0  0  0  0  0  0  0  0  0  # atno 17394 bound_to 11000
  140.7673  134.3872  157.5514 LP  0  0  0  0  0  0  0  0  0  0  0  0  # atno 17395 bound_to 11000

$$$$
