AV-unprocessed.smi:1033|AV-procd|sdf|4497|dock7
  -GOLD-   22720 2493D 1   1.00000     0.00000
 Structure written by MMmdl.
 56 58  0  0  0  0  0  0  0  0  2 V2000
  151.3112  145.8332  159.5894 C   0  0  0  0  0  0  0  0  0  0  0  0
  152.1045  144.5609  159.8305 C   0  0  0  0  0  0  0  0  0  0  0  0
  152.2579  144.0864  161.1530 C   0  0  0  0  0  0  0  0  0  0  0  0
  152.9867  142.9063  161.4192 C   0  0  0  0  0  0  0  0  0  0  0  0
  153.2598  142.2675  162.6169 N   0  0  0  0  0  0  0  0  0  0  0  0
  153.9772  141.2247  162.2074 C   0  0  0  0  0  0  0  0  0  0  0  0
  154.2014  141.1131  160.8839 N   0  0  0  0  0  0  0  0  0  0  0  0
  154.9484  140.0746  160.1988 C   0  0  0  0  0  0  0  0  0  0  0  0
  154.0459  138.9069  159.7525 C   0  0  1  0  0  0  0  0  0  0  0  0
  154.7793  138.0557  158.8952 O   0  0  0  0  0  0  0  0  0  0  0  0
  153.5275  138.0617  160.9329 C   0  0  0  0  0  0  0  0  0  0  0  0
  154.5217  137.7449  161.9656 N   0  0  0  0  0  0  0  0  0  0  0  0
  153.9639  137.4613  163.2911 C   0  0  0  0  0  0  0  0  0  0  0  0
  153.2198  136.1131  163.3653 C   0  0  0  0  0  0  0  0  0  0  0  0
  154.1276  135.0060  162.9624 N   0  3  0  0  0  0  0  0  0  0  0  0
  153.5148  133.6576  163.0718 C   0  0  0  0  0  0  0  0  0  0  0  0
  152.7986  133.4401  164.4195 C   0  0  1  0  0  0  0  0  0  0  0  0
  152.3036  131.9976  164.5852 C   0  0  0  0  0  0  0  0  0  0  0  0
  153.6961  133.7198  165.4751 O   0  0  0  0  0  0  0  0  0  0  0  0
  154.7005  135.2649  161.6163 C   0  0  0  0  0  0  0  0  0  0  0  0
  155.4009  136.6395  161.5858 C   0  0  0  0  0  0  0  0  0  0  0  0
  153.5607  142.2086  160.3169 C   0  0  0  0  0  0  0  0  0  0  0  0
  153.4152  142.6699  158.9969 C   0  0  0  0  0  0  0  0  0  0  0  0
  152.6858  143.8514  158.7488 C   0  0  0  0  0  0  0  0  0  0  0  0
  152.5350  144.3421  157.3198 C   0  0  0  0  0  0  0  0  0  0  0  0
  150.9146  146.2380  160.5210 H   0  0  0  0  0  0  0  0  0  0  0  0
  150.4689  145.6388  158.9251 H   0  0  0  0  0  0  0  0  0  0  0  0
  151.9425  146.5969  159.1350 H   0  0  0  0  0  0  0  0  0  0  0  0
  151.8156  144.6264  161.9772 H   0  0  0  0  0  0  0  0  0  0  0  0
  154.3642  140.5008  162.9099 H   0  0  0  0  0  0  0  0  0  0  0  0
  155.4656  140.5136  159.3443 H   0  0  0  0  0  0  0  0  0  0  0  0
  155.7222  139.7194  160.8803 H   0  0  0  0  0  0  0  0  0  0  0  0
  153.2085  139.2887  159.1694 H   0  0  0  0  0  0  0  0  0  0  0  0
  155.4389  138.5681  158.4530 H   0  0  0  0  0  0  0  0  0  0  0  0
  152.6728  138.5682  161.3809 H   0  0  0  0  0  0  0  0  0  0  0  0
  153.1343  137.1284  160.5276 H   0  0  0  0  0  0  0  0  0  0  0  0
  154.7779  137.4472  164.0172 H   0  0  0  0  0  0  0  0  0  0  0  0
  153.3091  138.2686  163.6157 H   0  0  0  0  0  0  0  0  0  0  0  0
  152.8700  135.9625  164.3857 H   0  0  0  0  0  0  0  0  0  0  0  0
  152.3330  136.1220  162.7305 H   0  0  0  0  0  0  0  0  0  0  0  0
  152.8234  133.5088  162.2407 H   0  0  0  0  0  0  0  0  0  0  0  0
  154.2878  132.8946  162.9640 H   0  0  0  0  0  0  0  0  0  0  0  0
  151.9423  134.1074  164.5120 H   0  0  0  0  0  0  0  0  0  0  0  0
  151.5906  131.7363  163.8028 H   0  0  0  0  0  0  0  0  0  0  0  0
  151.8023  131.8619  165.5443 H   0  0  0  0  0  0  0  0  0  0  0  0
  153.1271  131.2841  164.5364 H   0  0  0  0  0  0  0  0  0  0  0  0
  153.2993  133.4535  166.2908 H   0  0  0  0  0  0  0  0  0  0  0  0
  155.4272  134.4888  161.3736 H   0  0  0  0  0  0  0  0  0  0  0  0
  153.9162  135.2074  160.8603 H   0  0  0  0  0  0  0  0  0  0  0  0
  155.8197  136.8212  160.5953 H   0  0  0  0  0  0  0  0  0  0  0  0
  156.2529  136.6149  162.2667 H   0  0  0  0  0  0  0  0  0  0  0  0
  153.8611  142.1176  158.1830 H   0  0  0  0  0  0  0  0  0  0  0  0
  153.0688  143.6995  156.6192 H   0  0  0  0  0  0  0  0  0  0  0  0
  152.9345  145.3512  157.2172 H   0  0  0  0  0  0  0  0  0  0  0  0
  151.4841  144.3537  157.0296 H   0  0  0  0  0  0  0  0  0  0  0  0
  154.9072  135.0158  163.6051 H   0  0  0  0  0  0  0  0  0  0  0  0
  1  2  1  0  0  0  0
  1 26  1  0  0  0  0
  1 27  1  0  0  0  0
  1 28  1  0  0  0  0
  2 24  1  0  0  0  0
  2  3  2  0  0  0  0
  3  4  1  0  0  0  0
  3 29  1  0  0  0  0
  4 22  2  0  0  0  0
  4  5  1  0  0  0  0
  5  6  2  0  0  0  0
  6  7  1  0  0  0  0
  6 30  1  0  0  0  0
  7  8  1  0  0  0  0
  7 22  1  0  0  0  0
  8  9  1  0  0  0  0
  8 31  1  0  0  0  0
  8 32  1  0  0  0  0
  9 10  1  0  0  0  0
  9 11  1  0  0  0  0
  9 33  1  0  0  0  0
 10 34  1  0  0  0  0
 11 12  1  0  0  0  0
 11 35  1  0  0  0  0
 11 36  1  0  0  0  0
 12 21  1  0  0  0  0
 12 13  1  0  0  0  0
 13 14  1  0  0  0  0
 13 37  1  0  0  0  0
 13 38  1  0  0  0  0
 14 15  1  0  0  0  0
 14 39  1  0  0  0  0
 14 40  1  0  0  0  0
 15 16  1  0  0  0  0
 15 20  1  0  0  0  0
 15 56  1  0  0  0  0
 16 17  1  0  0  0  0
 16 41  1  0  0  0  0
 16 42  1  0  0  0  0
 17 18  1  0  0  0  0
 17 19  1  0  0  0  0
 17 43  1  0  0  0  0
 18 44  1  0  0  0  0
 18 45  1  0  0  0  0
 18 46  1  0  0  0  0
 19 47  1  0  0  0  0
 20 21  1  0  0  0  0
 20 48  1  0  0  0  0
 20 49  1  0  0  0  0
 21 50  1  0  0  0  0
 21 51  1  0  0  0  0
 22 23  1  0  0  0  0
 23 24  2  0  0  0  0
 23 52  1  0  0  0  0
 24 25  1  0  0  0  0
 25 53  1  0  0  0  0
 25 54  1  0  0  0  0
 25 55  1  0  0  0  0
M  CHG  1  15   1
M  END
> <s_m_source_file>
AV-unprocessed.smi

> <i_m_source_file_index>
1033

> <i_lp_mmshare_version>
43012

> <i_f3d_flags>
0

> <s_epik_input>
W0NIM11jKFtjSF0xKWMoW0NIM10pW2NIXWMoYzEyKW4oW2NIXW4yKVtDSDJdW0NASF0oW09IXSlbQ0gyXU4zW0NIMl1bQ0gyXU4oW0NIMl1bQ0gyXTMpW0NIMl1bQ0BIXShbQ0gzXSlbT0hd

> <s_epik_cmdline>
J2VwaWtfcHl0aG9uJywgJy1waCcsICc3LjAnLCAnLXRuJywgJzgnLCAnLW1hJywgJzIwMCcsICctbWV0YWxfYmluZGluZycsICctaW1hZScsICc8aW5maWxlLm1hZT4nLCAnLW9tYWUnLCAnPG91dGZpbGUubWFlPic=

> <r_epik_Ionization_Penalty>
0.129152

> <r_epik_Ionization_Penalty_Charging>
0.00083231

> <r_epik_Ionization_Penalty_Neutral>
0.128319

> <r_epik_State_Penalty>
0.556973

> <r_epik_Charging_Adjusted_Penalty>
0.557805

> <i_epik_Tot_Q>
1

> <i_epik_Tot_abs_Q>
1

> <r_epik_Metal_State_Penalty>
0.490047

> <b_epik_Metal_Only>
0

> <s_lp_Force_Field>
OPLS_2005

> <r_lp_Energy>
33.0878

> <b_lp_Chiralities_Consistent>
1

> <s_lp_Variant>
AV-unprocessed.smi:1033-8

> <Gold.Version>
5.8.1

> <Gold.Id.Protein>
6NUR|6NUR_protein|mol2

> <Gold.PLP.Fitness>
57.3699

> <Gold.PLP.PLP>
-58.8210

> <Gold.PLP.part.hbond>
-1.0000

> <Gold.PLP.part.metal>
0.0000

> <Gold.PLP.part.buried>
-5.2628

> <Gold.PLP.part.nonpolar>
-52.3707

> <Gold.PLP.part.repulsive>
0.0654

> <Gold.PLP.ligand.clash>
0.0000

> <Gold.PLP.ligand.torsion>
0.8519

> <Gold.PLP.Chemscore.Hbond>
0.0000

> <Gold.PLP.Chemscore.CHOScore>
0.0000

> <Gold.PLP.Chemscore.Metal>
0.0000

> <Gold.PLP.Chemscore.Internal.Correction>
0.2527

> <Gold.Rescore>
     Score         DG    S(hbond)    S(metal)    S(lipo)     H(rot)  DE(clash)    DE(int)     intcor
     14.54     -16.45       0.00        0.00     160.82       3.07       0.49       1.41       ----

> <Gold.Chemscore.Fitness>
14.5441

> <Gold.Chemscore.DG>
-16.4495

> <Gold.Chemscore.ZeroCoef>
-5.4800

> <Gold.Chemscore.Hbond>
0.0000

> <Gold.Chemscore.Metal>
0.0000

> <Gold.Chemscore.Lipo>
160.8208

> <Gold.Chemscore.Internal_Hbond>
0.0000

> <Gold.Chemscore.DEClash>
0.4932

> <Gold.Chemscore.DEInternal>
1.4123

> <Gold.Chemscore.Rot>
3.0650

> <Gold.Chemscore.Internal.Correction>
   9.000000E+99

> <Gold.Chemscore.Hbond.Weighted>
-0.0000

> <Gold.Chemscore.Metal.Weighted>
-0.0000

> <Gold.Chemscore.Lipo.Weighted>
-18.8160

> <Gold.Chemscore.Internal_Hbond.Weighted>
0.0000

> <Gold.Chemscore.DEClash.Weighted>
0.4932

> <Gold.Chemscore.DEInternal.Weighted>
1.4123

> <Gold.Chemscore.Rot.Weighted>
7.8465

> <Gold.Chemscore.Internal.Correction.Weighted>
   9.000000E+99

> <Gold.Protein.RotatedTorsions>
[ 6907 6896 6895 6894 ] final  102.01 input  -60.11 | X-H torsion
[ 7974 7965 7964 7962 ] final  139.50 input  175.53 | X-H torsion
[ 8008 7997 7996 7995 ] final  -57.76 input   59.86 | X-H torsion
[ 10167 10162 10161 10158 ] final  116.97 input  -65.29 | X-H torsion
[ 10718 10713 10712 10709 ] final  138.62 input   66.30 | X-H torsion
[ 10763 10752 10751 10750 ] final   63.40 input  -60.55 | X-H torsion
[ 11005 11000 10999 10996 ] final   28.48 input  -57.11 | X-H torsion

> <Gold.Protein.ActiveResidues>
 VAL166  LYS551  ARG553  GLY616  TRP617  ASP618  TYR619  PRO620  LYS621  CYS622 
 ASP623  PHE694  ASN695  SER759  ASP760  ASP761  ALA762  ILE779  LEU786  VAL792 
 PHE793  MET794  SER795  GLU796  ALA797  LYS798  CYS799  TRP800  GLU811  SER814 

> <Gold.Protein.RotatedAtoms>
  152.5335  134.0039  159.7907 H   0  0  0  0  0  0  0  0  0  0  0  0  # atno 6907 bound_to 6896
  151.0253  133.5831  159.2674 H   0  0  0  0  0  0  0  0  0  0  0  0  # atno 6908 bound_to 6896
  151.2856  135.0734  159.9239 H   0  0  0  0  0  0  0  0  0  0  0  0  # atno 6909 bound_to 6896
  144.9273  139.5091  143.5634 H   0  0  0  0  0  0  0  0  0  0  0  0  # atno 7974 bound_to 7965
  154.4281  140.1099  156.5848 H   0  0  0  0  0  0  0  0  0  0  0  0  # atno 8008 bound_to 7997
  155.6074  140.3494  155.4593 H   0  0  0  0  0  0  0  0  0  0  0  0  # atno 8009 bound_to 7997
  156.0126  140.1222  157.0428 H   0  0  0  0  0  0  0  0  0  0  0  0  # atno 8010 bound_to 7997
  139.6210  144.7101  151.2634 H   0  0  0  0  0  0  0  0  0  0  0  0  # atno 10167 bound_to 10162
  157.4233  131.1041  151.0330 H   0  0  0  0  0  0  0  0  0  0  0  0  # atno 10718 bound_to 10713
  153.0016  135.5430  154.6345 H   0  0  0  0  0  0  0  0  0  0  0  0  # atno 10763 bound_to 10752
  154.5615  135.2834  155.0917 H   0  0  0  0  0  0  0  0  0  0  0  0  # atno 10764 bound_to 10752
  154.2118  135.6466  153.5170 H   0  0  0  0  0  0  0  0  0  0  0  0  # atno 10765 bound_to 10752
  140.3151  134.2606  155.7727 H   0  0  0  0  0  0  0  0  0  0  0  0  # atno 11005 bound_to 11000
  146.3232  139.8197  142.8929 LP  0  0  0  0  0  0  0  0  0  0  0  0  # atno 17320 bound_to 7965
  145.3198  141.0241  143.3507 LP  0  0  0  0  0  0  0  0  0  0  0  0  # atno 17321 bound_to 7965
  140.7382  143.6655  150.8126 LP  0  0  0  0  0  0  0  0  0  0  0  0  # atno 17342 bound_to 10162
  140.0266  143.5487  152.2778 LP  0  0  0  0  0  0  0  0  0  0  0  0  # atno 17343 bound_to 10162
  157.1252  130.6079  149.5515 LP  0  0  0  0  0  0  0  0  0  0  0  0  # atno 17370 bound_to 10713
  155.9888  130.4933  150.7186 LP  0  0  0  0  0  0  0  0  0  0  0  0  # atno 17371 bound_to 10713
  141.2099  133.7734  156.9964 LP  0  0  0  0  0  0  0  0  0  0  0  0  # atno 17394 bound_to 11000
  140.0990  134.9546  157.1895 LP  0  0  0  0  0  0  0  0  0  0  0  0  # atno 17395 bound_to 11000

$$$$
