AV-unprocessed.smi:2205|AV-procd|sdf|8941|dock1
  -GOLD-   2272012153D 1   1.00000     0.00000
 Structure written by MMmdl.
 36 37  0  0  0  0  0  0  0  0  1 V2000
  146.5085  142.6655  154.0042 C   0  0  0  0  0  0  0  0  0  0  0  0
  146.6234  141.7774  155.1016 O   0  0  0  0  0  0  0  0  0  0  0  0
  146.7340  140.4227  154.6965 C   0  0  0  0  0  0  0  0  0  0  0  0
  147.9589  140.2602  153.7820 C   0  0  0  0  0  0  0  0  0  0  0  0
  149.2171  140.3297  154.5394 N   0  0  0  0  0  0  0  0  0  0  0  0
  149.4719  141.5209  155.2473 C   0  0  0  0  0  0  0  0  0  0  0  0
  150.5895  141.7017  155.9850 C   0  0  0  0  0  0  0  0  0  0  0  0
  150.9066  142.8536  156.7216 N   0  0  0  0  0  0  0  0  0  0  0  0
  151.6400  142.9830  157.8453 C   0  0  0  0  0  0  0  0  0  0  0  0
  152.1775  142.0585  158.4550 O   0  0  0  0  0  0  0  0  0  0  0  0
  151.7796  144.4211  158.3678 C   0  0  0  0  0  0  0  0  0  0  0  0
  152.4436  144.5360  159.7501 C   0  0  0  0  0  0  0  0  0  0  0  0
  151.0884  144.8906  160.3699 C   0  0  0  0  0  0  0  0  0  0  0  0
  150.4920  145.0143  158.9643 C   0  0  0  0  0  0  0  0  0  0  0  0
  151.5309  140.6032  156.0220 C   0  0  0  0  0  0  0  0  0  0  0  0
  151.2939  139.4572  155.3555 C   0  0  0  0  0  0  0  0  0  0  0  0
  150.0771  139.2686  154.5626 C   0  0  0  0  0  0  0  0  0  0  0  0
  149.8460  138.2203  153.9594 O   0  0  0  0  0  0  0  0  0  0  0  0
  146.4429  143.6904  154.3687 H   0  0  0  0  0  0  0  0  0  0  0  0
  145.6099  142.4573  153.4222 H   0  0  0  0  0  0  0  0  0  0  0  0
  147.3761  142.5964  153.3468 H   0  0  0  0  0  0  0  0  0  0  0  0
  146.8135  139.7673  155.5653 H   0  0  0  0  0  0  0  0  0  0  0  0
  145.8329  140.1324  154.1545 H   0  0  0  0  0  0  0  0  0  0  0  0
  147.8937  139.3096  153.2501 H   0  0  0  0  0  0  0  0  0  0  0  0
  147.9369  141.0195  152.9990 H   0  0  0  0  0  0  0  0  0  0  0  0
  148.6844  142.2500  155.1443 H   0  0  0  0  0  0  0  0  0  0  0  0
  150.5228  143.7090  156.3477 H   0  0  0  0  0  0  0  0  0  0  0  0
  152.2367  145.0878  157.6349 H   0  0  0  0  0  0  0  0  0  0  0  0
  152.8716  143.6110  160.1393 H   0  0  0  0  0  0  0  0  0  0  0  0
  153.1632  145.3539  159.8024 H   0  0  0  0  0  0  0  0  0  0  0  0
  150.6577  144.0669  160.9406 H   0  0  0  0  0  0  0  0  0  0  0  0
  151.0872  145.8206  160.9392 H   0  0  0  0  0  0  0  0  0  0  0  0
  150.3284  146.0488  158.6607 H   0  0  0  0  0  0  0  0  0  0  0  0
  149.5918  144.4153  158.8182 H   0  0  0  0  0  0  0  0  0  0  0  0
  152.4421  140.6983  156.5949 H   0  0  0  0  0  0  0  0  0  0  0  0
  152.0172  138.6566  155.4057 H   0  0  0  0  0  0  0  0  0  0  0  0
  1  2  1  0  0  0  0
  1 19  1  0  0  0  0
  1 20  1  0  0  0  0
  1 21  1  0  0  0  0
  2  3  1  0  0  0  0
  3  4  1  0  0  0  0
  3 22  1  0  0  0  0
  3 23  1  0  0  0  0
  4  5  1  0  0  0  0
  4 24  1  0  0  0  0
  4 25  1  0  0  0  0
  5 17  1  0  0  0  0
  5  6  1  0  0  0  0
  6  7  2  0  0  0  0
  6 26  1  0  0  0  0
  7  8  1  0  0  0  0
  7 15  1  0  0  0  0
  8  9  1  0  0  0  0
  8 27  1  0  0  0  0
  9 10  2  0  0  0  0
  9 11  1  0  0  0  0
 11 14  1  0  0  0  0
 11 12  1  0  0  0  0
 11 28  1  0  0  0  0
 12 13  1  0  0  0  0
 12 29  1  0  0  0  0
 12 30  1  0  0  0  0
 13 14  1  0  0  0  0
 13 31  1  0  0  0  0
 13 32  1  0  0  0  0
 14 33  1  0  0  0  0
 14 34  1  0  0  0  0
 15 16  2  0  0  0  0
 15 35  1  0  0  0  0
 16 17  1  0  0  0  0
 16 36  1  0  0  0  0
 17 18  2  0  0  0  0
M  END
> <s_m_source_file>
AV-unprocessed.smi

> <i_m_source_file_index>
2205

> <i_lp_mmshare_version>
43012

> <i_f3d_flags>
0

> <s_epik_input>
W0NIM11PW0NIMl1bQ0gyXW4xW2NIXWMoW2NIXVtjSF1jMT1PKVtOSF1DKD1PKVtDSF0yW0NIMl1bQ0gyXVtDSDJdMg==

> <s_epik_cmdline>
J2VwaWtfcHl0aG9uJywgJy1waCcsICc3LjAnLCAnLXRuJywgJzgnLCAnLW1hJywgJzIwMCcsICctbWV0YWxfYmluZGluZycsICctaW1hZScsICc8aW5maWxlLm1hZT4nLCAnLW9tYWUnLCAnPG91dGZpbGUubWFlPic=

> <r_lp_tautomer_probability>
1

> <r_epik_Ionization_Penalty>
2.40107e-06

> <r_epik_Ionization_Penalty_Charging>
2.27812e-06

> <r_epik_Ionization_Penalty_Neutral>
1.2295e-07

> <r_epik_State_Penalty>
-0

> <r_epik_Charging_Adjusted_Penalty>
2.27812e-06

> <i_epik_Tot_Q>
0

> <i_epik_Tot_abs_Q>
0

> <r_epik_Metal_State_Penalty>
-0

> <b_epik_Metal_Only>
0

> <s_lp_Force_Field>
OPLS_2005

> <r_lp_Energy>
28.3384

> <b_lp_Chiralities_Consistent>
1

> <s_lp_Variant>
AV-unprocessed.smi:2205-1

> <Gold.Version>
5.8.1

> <Gold.Id.Protein>
6NUR|6NUR_protein|mol2

> <Gold.PLP.Fitness>
45.5146

> <Gold.PLP.PLP>
-40.1668

> <Gold.PLP.part.hbond>
-1.0000

> <Gold.PLP.part.metal>
0.0000

> <Gold.PLP.part.buried>
-4.7307

> <Gold.PLP.part.nonpolar>
-35.6827

> <Gold.PLP.part.repulsive>
1.3748

> <Gold.PLP.ligand.clash>
0.0000

> <Gold.PLP.ligand.torsion>
0.3963

> <Gold.PLP.Chemscore.Hbond>
0.9760

> <Gold.PLP.Chemscore.CHOScore>
0.9329

> <Gold.PLP.Chemscore.Metal>
0.0000

> <Gold.Chemscore.Hbonds>
donor molecule, donor type, donor heavy atom, donor atom, acceptor molecule, acceptor atom, score
      L1  H     8    27       P1  8028  0.98
      L1  C     6    26       P1  8028  0.93

> <Gold.PLP.Chemscore.Internal.Correction>
0.4137

> <Gold.Rescore>
     Score         DG    S(hbond)    S(metal)    S(lipo)     H(rot)  DE(clash)    DE(int)     intcor
     13.34     -15.26       0.98        0.00      89.86       1.56       0.03       1.89       ----

> <Gold.Chemscore.Fitness>
13.3390

> <Gold.Chemscore.DG>
-15.2649

> <Gold.Chemscore.ZeroCoef>
-5.4800

> <Gold.Chemscore.Hbond>
0.9769

> <Gold.Chemscore.Metal>
0.0000

> <Gold.Chemscore.Lipo>
89.8630

> <Gold.Chemscore.Internal_Hbond>
0.0000

> <Gold.Chemscore.DEClash>
0.0336

> <Gold.Chemscore.DEInternal>
1.8923

> <Gold.Chemscore.Rot>
1.5594

> <Gold.Chemscore.Internal.Correction>
   9.000000E+99

> <Gold.Chemscore.Hbonds>
donor molecule, donor type, donor heavy atom, donor atom, acceptor molecule, acceptor atom, score
      L1  H     8    27       P1  8028  0.87

> <Gold.Chemscore.Hbond.Weighted>
-3.2630

> <Gold.Chemscore.Metal.Weighted>
-0.0000

> <Gold.Chemscore.Lipo.Weighted>
-10.5140

> <Gold.Chemscore.Internal_Hbond.Weighted>
0.0000

> <Gold.Chemscore.DEClash.Weighted>
0.0336

> <Gold.Chemscore.DEInternal.Weighted>
1.8923

> <Gold.Chemscore.Rot.Weighted>
3.9920

> <Gold.Chemscore.Internal.Correction.Weighted>
   9.000000E+99

> <Gold.Protein.RotatedTorsions>
[ 6907 6896 6895 6894 ] final  169.61 input  -60.11 | X-H torsion
[ 7974 7965 7964 7962 ] final -122.02 input  175.53 | X-H torsion
[ 8008 7997 7996 7995 ] final  -85.93 input   59.86 | X-H torsion
[ 10167 10162 10161 10158 ] final    5.25 input  -65.29 | X-H torsion
[ 10718 10713 10712 10709 ] final  151.43 input   66.30 | X-H torsion
[ 10763 10752 10751 10750 ] final  -77.62 input  -60.55 | X-H torsion
[ 11005 11000 10999 10996 ] final  134.68 input  -57.11 | X-H torsion

> <Gold.Protein.ActiveResidues>
 VAL166  LYS551  ARG553  GLY616  TRP617  ASP618  TYR619  PRO620  LYS621  CYS622 
 ASP623  PHE694  ASN695  SER759  ASP760  ASP761  ALA762  ILE779  LEU786  VAL792 
 PHE793  MET794  SER795  GLU796  ALA797  LYS798  CYS799  TRP800  GLU811  SER814 

> <Gold.Protein.RotatedAtoms>
  151.8292  133.3406  159.3607 H   0  0  0  0  0  0  0  0  0  0  0  0  # atno 6907 bound_to 6896
  150.7270  134.5499  159.5799 H   0  0  0  0  0  0  0  0  0  0  0  0  # atno 6908 bound_to 6896
  152.2949  134.7680  160.0421 H   0  0  0  0  0  0  0  0  0  0  0  0  # atno 6909 bound_to 6896
  145.0340  140.8091  143.4306 H   0  0  0  0  0  0  0  0  0  0  0  0  # atno 7974 bound_to 7965
  154.6462  140.0585  156.9903 H   0  0  0  0  0  0  0  0  0  0  0  0  # atno 8008 bound_to 7997
  155.1440  140.3268  155.4427 H   0  0  0  0  0  0  0  0  0  0  0  0  # atno 8009 bound_to 7997
  156.2555  140.1959  156.6555 H   0  0  0  0  0  0  0  0  0  0  0  0  # atno 8010 bound_to 7997
  140.6492  143.7588  150.7547 H   0  0  0  0  0  0  0  0  0  0  0  0  # atno 10167 bound_to 10162
  157.2707  131.0816  151.1601 H   0  0  0  0  0  0  0  0  0  0  0  0  # atno 10718 bound_to 10713
  154.5153  135.5757  153.6637 H   0  0  0  0  0  0  0  0  0  0  0  0  # atno 10763 bound_to 10752
  152.9905  135.6168  154.2825 H   0  0  0  0  0  0  0  0  0  0  0  0  # atno 10764 bound_to 10752
  154.2742  135.2852  155.2704 H   0  0  0  0  0  0  0  0  0  0  0  0  # atno 10765 bound_to 10752
  139.9931  134.9507  156.9901 H   0  0  0  0  0  0  0  0  0  0  0  0  # atno 11005 bound_to 11000
  145.1733  139.2392  143.5330 LP  0  0  0  0  0  0  0  0  0  0  0  0  # atno 17320 bound_to 7965
  146.3502  140.1490  142.8593 LP  0  0  0  0  0  0  0  0  0  0  0  0  # atno 17321 bound_to 7965
  140.1235  143.4590  152.2299 LP  0  0  0  0  0  0  0  0  0  0  0  0  # atno 17342 bound_to 10162
  139.5705  144.7460  151.3904 LP  0  0  0  0  0  0  0  0  0  0  0  0  # atno 17343 bound_to 10162
  157.3074  130.6873  149.6197 LP  0  0  0  0  0  0  0  0  0  0  0  0  # atno 17370 bound_to 10713
  155.9663  130.4374  150.5173 LP  0  0  0  0  0  0  0  0  0  0  0  0  # atno 17371 bound_to 10713
  140.4871  134.1231  155.7226 LP  0  0  0  0  0  0  0  0  0  0  0  0  # atno 17394 bound_to 11000
  141.1582  133.8843  157.1920 LP  0  0  0  0  0  0  0  0  0  0  0  0  # atno 17395 bound_to 11000

$$$$
