AV-unprocessed.smi:133|AV-procd|sdf|1165|dock5
  -GOLD-   2262018303D 1   1.00000     0.00000
 Structure written by MMmdl.
 47 50  0  0  0  0  0  0  0  0  1 V2000
  153.1347  139.2764  156.8325 O   0  0  0  0  0  0  0  0  0  0  0  0
  152.2603  139.6439  156.0467 C   0  0  0  0  0  0  0  0  0  0  0  0
  151.9302  138.8098  154.7984 C   0  0  0  0  0  0  0  0  0  0  0  0
  150.5355  138.3168  154.7631 N   0  0  0  0  0  0  0  0  0  0  0  0
  150.2959  136.9403  155.0004 C   0  0  0  0  0  0  0  0  0  0  0  0
  151.2233  136.1577  155.2129 O   0  0  0  0  0  0  0  0  0  0  0  0
  148.8956  136.5333  154.9863 C   0  0  0  0  0  0  0  0  0  0  0  0
  148.5726  135.2495  155.2172 F   0  0  0  0  0  0  0  0  0  0  0  0
  147.9151  137.4286  154.7493 C   0  0  0  0  0  0  0  0  0  0  0  0
  148.1628  138.7635  154.4975 N   0  0  0  0  0  0  0  0  0  0  0  0
  146.9980  139.7043  154.2923 C   0  0  2  0  0  0  0  0  0  0  0  0
  147.1761  140.6547  153.0931 C   0  0  0  0  0  0  0  0  0  0  0  0
  147.0666  142.0305  153.7303 C   0  0  0  0  0  0  0  0  0  0  0  0
  146.3290  141.7435  155.0338 C   0  0  0  0  0  0  0  0  0  0  0  0
  146.8522  140.4875  155.4365 O   0  0  0  0  0  0  0  0  0  0  0  0
  149.4920  139.2452  154.5314 C   0  0  0  0  0  0  0  0  0  0  0  0
  149.7379  140.4418  154.3715 O   0  0  0  0  0  0  0  0  0  0  0  0
  151.5483  140.7780  156.1759 N   0  0  0  0  0  0  0  0  0  0  0  0
  151.6117  141.7521  157.2082 C   0  0  0  0  0  0  0  0  0  0  0  0
  151.1285  143.0823  157.0578 C   0  0  0  0  0  0  0  0  0  0  0  0
  151.2386  144.0138  158.1137 C   0  0  0  0  0  0  0  0  0  0  0  0
  151.8452  143.5974  159.3104 C   0  0  0  0  0  0  0  0  0  0  0  0
  152.3322  142.3056  159.4581 C   0  0  0  0  0  0  0  0  0  0  0  0
  152.2327  141.3649  158.4186 C   0  0  0  0  0  0  0  0  0  0  0  0
  152.9442  142.0963  160.8164 C   0  0  0  0  0  0  0  0  0  0  0  0
  152.5926  143.3934  161.5847 C   0  0  0  0  0  0  0  0  0  0  0  0
  152.0679  144.4191  160.5506 C   0  0  0  0  0  0  0  0  0  0  0  0
  152.1533  139.4085  153.9138 H   0  0  0  0  0  0  0  0  0  0  0  0
  152.6380  137.9816  154.7396 H   0  0  0  0  0  0  0  0  0  0  0  0
  146.8939  137.0763  154.7565 H   0  0  0  0  0  0  0  0  0  0  0  0
  146.1166  139.0717  154.1770 H   0  0  0  0  0  0  0  0  0  0  0  0
  148.1212  140.5005  152.5715 H   0  0  0  0  0  0  0  0  0  0  0  0
  146.3612  140.4815  152.3895 H   0  0  0  0  0  0  0  0  0  0  0  0
  148.0600  142.4258  153.9451 H   0  0  0  0  0  0  0  0  0  0  0  0
  146.5466  142.7519  153.0996 H   0  0  0  0  0  0  0  0  0  0  0  0
  146.4954  142.5105  155.7903 H   0  0  0  0  0  0  0  0  0  0  0  0
  145.2551  141.6537  154.8619 H   0  0  0  0  0  0  0  0  0  0  0  0
  150.9346  141.0028  155.4065 H   0  0  0  0  0  0  0  0  0  0  0  0
  150.6822  143.4144  156.1331 H   0  0  0  0  0  0  0  0  0  0  0  0
  150.8712  145.0232  158.0001 H   0  0  0  0  0  0  0  0  0  0  0  0
  152.6198  140.3646  158.5492 H   0  0  0  0  0  0  0  0  0  0  0  0
  152.5424  141.2069  161.3031 H   0  0  0  0  0  0  0  0  0  0  0  0
  154.0233  141.9796  160.7108 H   0  0  0  0  0  0  0  0  0  0  0  0
  151.7859  143.1695  162.2839 H   0  0  0  0  0  0  0  0  0  0  0  0
  153.4269  143.7750  162.1740 H   0  0  0  0  0  0  0  0  0  0  0  0
  152.8121  145.1891  160.3452 H   0  0  0  0  0  0  0  0  0  0  0  0
  151.1469  144.9015  160.8796 H   0  0  0  0  0  0  0  0  0  0  0  0
  1  2  2  0  0  0  0
  2  3  1  0  0  0  0
  2 18  1  0  0  0  0
  3  4  1  0  0  0  0
  3 28  1  0  0  0  0
  3 29  1  0  0  0  0
  4 16  1  0  0  0  0
  4  5  1  0  0  0  0
  5  6  2  0  0  0  0
  5  7  1  0  0  0  0
  7  8  1  0  0  0  0
  7  9  2  0  0  0  0
  9 10  1  0  0  0  0
  9 30  1  0  0  0  0
 10 11  1  0  0  0  0
 10 16  1  0  0  0  0
 11 15  1  0  0  0  0
 11 12  1  0  0  0  0
 11 31  1  0  0  0  0
 12 13  1  0  0  0  0
 12 32  1  0  0  0  0
 12 33  1  0  0  0  0
 13 14  1  0  0  0  0
 13 34  1  0  0  0  0
 13 35  1  0  0  0  0
 14 15  1  0  0  0  0
 14 36  1  0  0  0  0
 14 37  1  0  0  0  0
 16 17  2  0  0  0  0
 18 19  1  0  0  0  0
 18 38  1  0  0  0  0
 19 24  1  0  0  0  0
 19 20  2  0  0  0  0
 20 21  1  0  0  0  0
 20 39  1  0  0  0  0
 21 22  2  0  0  0  0
 21 40  1  0  0  0  0
 22 27  1  0  0  0  0
 22 23  1  0  0  0  0
 23 24  2  0  0  0  0
 23 25  1  0  0  0  0
 24 41  1  0  0  0  0
 25 26  1  0  0  0  0
 25 42  1  0  0  0  0
 25 43  1  0  0  0  0
 26 27  1  0  0  0  0
 26 44  1  0  0  0  0
 26 45  1  0  0  0  0
 27 46  1  0  0  0  0
 27 47  1  0  0  0  0
M  END
> <s_m_source_file>
AV-unprocessed.smi

> <i_m_source_file_index>
133

> <i_lp_mmshare_version>
43012

> <i_f3d_flags>
0

> <s_epik_input>
W0NIMl0xW0NIMl1bQ0gyXWMoYzEyKVtjSF1jKFtjSF1bY0hdMilbTkhdQyg9TylbQ0gyXW4zYyg9TyljKEYpW2NIXW4oYzM9TylbQ0BASF00W0NIMl1bQ0gyXVtDSDJdTzQ=

> <s_epik_cmdline>
J2VwaWtfcHl0aG9uJywgJy1waCcsICc3LjAnLCAnLXRuJywgJzgnLCAnLW1hJywgJzIwMCcsICctbWV0YWxfYmluZGluZycsICctaW1hZScsICc8aW5maWxlLm1hZT4nLCAnLW9tYWUnLCAnPG91dGZpbGUubWFlPic=

> <r_lp_tautomer_probability>
1

> <r_epik_Ionization_Penalty>
4.05675e-06

> <r_epik_Ionization_Penalty_Charging>
3.88729e-08

> <r_epik_Ionization_Penalty_Neutral>
4.01788e-06

> <r_epik_State_Penalty>
-0

> <r_epik_Charging_Adjusted_Penalty>
3.88729e-08

> <i_epik_Tot_Q>
0

> <i_epik_Tot_abs_Q>
0

> <r_epik_Metal_State_Penalty>
-0

> <b_epik_Metal_Only>
0

> <s_epik_Chemistry_Notes>
This compound contains an acetal/aminal-like group ( X-CH(R)-Y where X, Y are N, S, or O) that may be acid/base labile, releasing an aldehyde.

> <s_lp_Force_Field>
OPLS_2005

> <r_lp_Energy>
40.9248

> <b_lp_Chiralities_Consistent>
1

> <s_lp_Variant>
AV-unprocessed.smi:133-1

> <Gold.Version>
5.8.1

> <Gold.Id.Protein>
6NUR|6NUR_protein|mol2

> <Gold.PLP.Fitness>
59.0245

> <Gold.PLP.PLP>
-51.9955

> <Gold.PLP.part.hbond>
-2.9473

> <Gold.PLP.part.metal>
0.0000

> <Gold.PLP.part.buried>
-5.3911

> <Gold.PLP.part.nonpolar>
-43.1955

> <Gold.PLP.part.repulsive>
0.4252

> <Gold.PLP.ligand.clash>
0.0000

> <Gold.PLP.ligand.torsion>
0.4931

> <Gold.PLP.Chemscore.Hbond>
2.6625

> <Gold.PLP.Chemscore.CHOScore>
0.0000

> <Gold.PLP.Chemscore.Metal>
0.0000

> <Gold.Chemscore.Hbonds>
donor molecule, donor type, donor heavy atom, donor atom, acceptor molecule, acceptor atom, score
      P1  H  7989  7998       L1    17  0.62
      P1  H  7997  8010       L1     1  0.93
      P1  H 10752 10764       L1     6  1.00

> <Gold.PLP.Chemscore.Internal.Correction>
0.0278

> <Gold.Rescore>
     Score         DG    S(hbond)    S(metal)    S(lipo)     H(rot)  DE(clash)    DE(int)     intcor
     19.63     -24.06       2.37        0.00     126.01       1.59       0.37       4.06       ----

> <Gold.Chemscore.Fitness>
19.6264

> <Gold.Chemscore.DG>
-24.0607

> <Gold.Chemscore.ZeroCoef>
-5.4800

> <Gold.Chemscore.Hbond>
2.3653

> <Gold.Chemscore.Metal>
0.0000

> <Gold.Chemscore.Lipo>
126.0095

> <Gold.Chemscore.Internal_Hbond>
0.0000

> <Gold.Chemscore.DEClash>
0.3743

> <Gold.Chemscore.DEInternal>
4.0601

> <Gold.Chemscore.Rot>
1.5869

> <Gold.Chemscore.Internal.Correction>
   9.000000E+99

> <Gold.Chemscore.Hbonds>
donor molecule, donor type, donor heavy atom, donor atom, acceptor molecule, acceptor atom, score
      P1  H  7989  7998       L1    17  0.57
      P1  H  7997  8010       L1     1  0.49
      P1  H 10752 10764       L1     6  0.97

> <Gold.Chemscore.Hbond.Weighted>
-7.9001

> <Gold.Chemscore.Metal.Weighted>
-0.0000

> <Gold.Chemscore.Lipo.Weighted>
-14.7431

> <Gold.Chemscore.Internal_Hbond.Weighted>
0.0000

> <Gold.Chemscore.DEClash.Weighted>
0.3743

> <Gold.Chemscore.DEInternal.Weighted>
4.0601

> <Gold.Chemscore.Rot.Weighted>
4.0624

> <Gold.Chemscore.Internal.Correction.Weighted>
   9.000000E+99

> <Gold.Protein.RotatedTorsions>
[ 6907 6896 6895 6894 ] final -146.65 input  -60.11 | X-H torsion
[ 7974 7965 7964 7962 ] final  -56.50 input  175.53 | X-H torsion
[ 8008 7997 7996 7995 ] final   68.71 input   59.86 | X-H torsion
[ 10167 10162 10161 10158 ] final   71.75 input  -65.29 | X-H torsion
[ 10718 10713 10712 10709 ] final   -1.56 input   66.30 | X-H torsion
[ 10763 10752 10751 10750 ] final  -72.97 input  -60.55 | X-H torsion
[ 11005 11000 10999 10996 ] final  112.03 input  -57.11 | X-H torsion

> <Gold.Protein.ActiveResidues>
 VAL166  LYS551  ARG553  GLY616  TRP617  ASP618  TYR619  PRO620  LYS621  CYS622 
 ASP623  PHE694  ASN695  SER759  ASP760  ASP761  ALA762  ILE779  LEU786  VAL792 
 PHE793  MET794  SER795  GLU796  ALA797  LYS798  CYS799  TRP800  GLU811  SER814 

> <Gold.Protein.RotatedAtoms>
  151.1447  133.4948  159.2596 H   0  0  0  0  0  0  0  0  0  0  0  0  # atno 6907 bound_to 6896
  151.1618  135.0276  159.8723 H   0  0  0  0  0  0  0  0  0  0  0  0  # atno 6908 bound_to 6896
  152.5463  134.1320  159.8496 H   0  0  0  0  0  0  0  0  0  0  0  0  # atno 6909 bound_to 6896
  145.8619  140.8279  142.9932 H   0  0  0  0  0  0  0  0  0  0  0  0  # atno 7974 bound_to 7965
  155.7125  140.3494  155.4980 H   0  0  0  0  0  0  0  0  0  0  0  0  # atno 8008 bound_to 7997
  155.9343  140.1090  157.1129 H   0  0  0  0  0  0  0  0  0  0  0  0  # atno 8009 bound_to 7997
  154.4091  140.1225  156.4830 H   0  0  0  0  0  0  0  0  0  0  0  0  # atno 8010 bound_to 7997
  140.0427  144.5376  150.7422 H   0  0  0  0  0  0  0  0  0  0  0  0  # atno 10167 bound_to 10162
  156.8038  130.5401  149.5718 H   0  0  0  0  0  0  0  0  0  0  0  0  # atno 10718 bound_to 10713
  154.4530  135.5913  153.6204 H   0  0  0  0  0  0  0  0  0  0  0  0  # atno 10763 bound_to 10752
  152.9815  135.6025  154.3581 H   0  0  0  0  0  0  0  0  0  0  0  0  # atno 10764 bound_to 10752
  154.3445  135.2841  155.2384 H   0  0  0  0  0  0  0  0  0  0  0  0  # atno 10765 bound_to 10752
  139.8917  134.9521  156.6524 H   0  0  0  0  0  0  0  0  0  0  0  0  # atno 11005 bound_to 11000
  144.6726  140.1109  143.7455 LP  0  0  0  0  0  0  0  0  0  0  0  0  # atno 17320 bound_to 7965
  145.9238  139.2562  143.1366 LP  0  0  0  0  0  0  0  0  0  0  0  0  # atno 17321 bound_to 7965
  140.7252  143.2629  151.4143 LP  0  0  0  0  0  0  0  0  0  0  0  0  # atno 17342 bound_to 10162
  139.6003  144.1309  152.2190 LP  0  0  0  0  0  0  0  0  0  0  0  0  # atno 17343 bound_to 10162
  156.1085  130.6023  151.0010 LP  0  0  0  0  0  0  0  0  0  0  0  0  # atno 17370 bound_to 10713
  157.6540  131.0892  150.7987 LP  0  0  0  0  0  0  0  0  0  0  0  0  # atno 17371 bound_to 10713
  140.7510  133.8897  155.8347 LP  0  0  0  0  0  0  0  0  0  0  0  0  # atno 17394 bound_to 11000
  141.0000  134.1163  157.4326 LP  0  0  0  0  0  0  0  0  0  0  0  0  # atno 17395 bound_to 11000

$$$$
