AV-unprocessed.smi:69|AV-procd|sdf|651|dock3
  -GOLD-   2262016543D 1   1.00000     0.00000
 Structure written by MMmdl.
 32 34  0  0  0  0  0  0  0  0  1 V2000
  148.4266  141.2472  153.4368 N   0  0  0  0  0  0  0  0  0  0  0  0
  148.8588  141.1507  154.7015 C   0  0  0  0  0  0  0  0  0  0  0  0
  148.1886  141.8276  155.6638 N   0  0  0  0  0  0  0  0  0  0  0  0
  148.5977  141.7455  156.9346 C   0  0  0  0  0  0  0  0  0  0  0  0
  149.6278  141.0602  157.4390 N   0  0  0  0  0  0  0  0  0  0  0  0
  150.3008  140.3815  156.4643 C   0  0  0  0  0  0  0  0  0  0  0  0
  149.9820  140.3726  155.0791 C   0  0  0  0  0  0  0  0  0  0  0  0
  150.8823  139.5679  154.3923 N   0  0  0  0  0  0  0  0  0  0  0  0
  151.6850  139.1272  155.3248 C   0  0  0  0  0  0  0  0  0  0  0  0
  151.4041  139.5694  156.6004 N   0  0  0  0  0  0  0  0  0  0  0  0
  152.1040  139.2545  157.8829 C   0  0  2  0  0  0  0  0  0  0  0  0
  153.4532  139.0758  157.6094 O   0  0  0  0  0  0  0  0  0  0  0  0
  154.0040  138.2965  158.6585 C   0  0  2  0  0  0  0  0  0  0  0  0
  155.3514  137.7034  158.2203 C   0  0  0  0  0  0  0  0  0  0  0  0
  156.3548  138.6950  158.2673 O   0  0  0  0  0  0  0  0  0  0  0  0
  152.9176  137.2383  158.9012 C   0  0  1  0  0  0  0  0  0  0  0  0
  152.9121  136.8519  160.2609 O   0  0  0  0  0  0  0  0  0  0  0  0
  151.6115  137.9474  158.5382 C   0  0  2  0  0  0  0  0  0  0  0  0
  150.8188  137.1364  157.6882 O   0  0  0  0  0  0  0  0  0  0  0  0
  151.9653  140.1330  158.5159 H   0  0  0  0  0  0  0  0  0  0  0  0
  154.1188  138.9263  159.5441 H   0  0  0  0  0  0  0  0  0  0  0  0
  153.0822  136.3688  158.2625 H   0  0  0  0  0  0  0  0  0  0  0  0
  151.0243  138.2128  159.4188 H   0  0  0  0  0  0  0  0  0  0  0  0
  148.9088  140.7505  152.7015 H   0  0  0  0  0  0  0  0  0  0  0  0
  147.6194  141.8145  153.2221 H   0  0  0  0  0  0  0  0  0  0  0  0
  148.0164  142.3089  157.6495 H   0  0  0  0  0  0  0  0  0  0  0  0
  152.5060  138.4601  155.1054 H   0  0  0  0  0  0  0  0  0  0  0  0
  155.6485  136.9060  158.9019 H   0  0  0  0  0  0  0  0  0  0  0  0
  155.2893  137.2709  157.2213 H   0  0  0  0  0  0  0  0  0  0  0  0
  157.1717  138.3099  157.9891 H   0  0  0  0  0  0  0  0  0  0  0  0
  153.2876  137.5525  160.7725 H   0  0  0  0  0  0  0  0  0  0  0  0
  151.0529  136.2327  157.8344 H   0  0  0  0  0  0  0  0  0  0  0  0
  1  2  1  0  0  0  0
  1 24  1  0  0  0  0
  1 25  1  0  0  0  0
  2  7  1  0  0  0  0
  2  3  2  0  0  0  0
  3  4  1  0  0  0  0
  4  5  2  0  0  0  0
  4 26  1  0  0  0  0
  5  6  1  0  0  0  0
  6 10  1  0  0  0  0
  6  7  2  0  0  0  0
  7  8  1  0  0  0  0
  8  9  2  0  0  0  0
  9 10  1  0  0  0  0
  9 27  1  0  0  0  0
 10 11  1  0  0  0  0
 11 20  1  0  0  0  0
 11 18  1  0  0  0  0
 11 12  1  0  0  0  0
 12 13  1  0  0  0  0
 13 21  1  0  0  0  0
 13 14  1  0  0  0  0
 13 16  1  0  0  0  0
 14 15  1  0  0  0  0
 14 28  1  0  0  0  0
 14 29  1  0  0  0  0
 15 30  1  0  0  0  0
 16 22  1  0  0  0  0
 16 17  1  0  0  0  0
 16 18  1  0  0  0  0
 17 31  1  0  0  0  0
 18 23  1  0  0  0  0
 18 19  1  0  0  0  0
 19 32  1  0  0  0  0
M  END
> <s_m_source_file>
AV-unprocessed.smi

> <i_m_source_file_index>
69

> <i_lp_mmshare_version>
43012

> <i_f3d_flags>
0

> <s_epik_input>
bjFbY0hdbmMoW05IMl0pYyhjMTIpbltjSF1uMltDQEBIXTNPW0NASF0oW0NIMl1bT0hdKVtDQEBIXShbT0hdKVtDQEhdM1tPSF0=

> <s_epik_cmdline>
J2VwaWtfcHl0aG9uJywgJy1waCcsICc3LjAnLCAnLXRuJywgJzgnLCAnLW1hJywgJzIwMCcsICctbWV0YWxfYmluZGluZycsICctaW1hZScsICc8aW5maWxlLm1hZT4nLCAnLW9tYWUnLCAnPG91dGZpbGUubWFlPic=

> <r_lp_tautomer_probability>
1

> <r_epik_Ionization_Penalty>
0.000428445

> <r_epik_Ionization_Penalty_Charging>
0

> <r_epik_Ionization_Penalty_Neutral>
0.000428445

> <r_epik_State_Penalty>
-0

> <r_epik_Charging_Adjusted_Penalty>
0

> <i_epik_Tot_Q>
0

> <i_epik_Tot_abs_Q>
0

> <r_epik_Metal_State_Penalty>
-0

> <b_epik_Metal_Only>
0

> <s_epik_Chemistry_Notes>
This compound contains an acetal/aminal-like group ( X-CH(R)-Y where X, Y are N, S, or O) that may be acid/base labile, releasing an aldehyde.

> <s_lp_Force_Field>
OPLS_2005

> <r_lp_Energy>
36.244

> <b_lp_Chiralities_Consistent>
1

> <s_lp_Variant>
AV-unprocessed.smi:69-9

> <Gold.Version>
5.8.1

> <Gold.Id.Protein>
6NUR|6NUR_protein|mol2

> <Gold.PLP.Fitness>
36.0581

> <Gold.PLP.PLP>
-22.9228

> <Gold.PLP.part.hbond>
-5.0000

> <Gold.PLP.part.metal>
0.0000

> <Gold.PLP.part.buried>
-3.9899

> <Gold.PLP.part.nonpolar>
-14.6257

> <Gold.PLP.part.repulsive>
0.4695

> <Gold.PLP.ligand.clash>
0.0000

> <Gold.PLP.ligand.torsion>
0.8189

> <Gold.PLP.Chemscore.Hbond>
4.9200

> <Gold.PLP.Chemscore.CHOScore>
0.0000

> <Gold.PLP.Chemscore.Metal>
0.0000

> <Gold.Chemscore.Hbonds>
donor molecule, donor type, donor heavy atom, donor atom, acceptor molecule, acceptor atom, score
      L1  H     1    24       P1  7957  1.00
      P1  H  6896  6907       L1    17  0.95
      P1  H  7989  7998       L1     8  0.80
      P1  H  7997  8008       L1    15  0.86
      P1  H  7997  8009       L1    12  1.00

> <Gold.PLP.Chemscore.Internal.Correction>
0.0132

> <Gold.Rescore>
     Score         DG    S(hbond)    S(metal)    S(lipo)     H(rot)  DE(clash)    DE(int)     intcor
     11.51     -11.84       4.25        0.00      21.28       4.03       0.00       0.34       ----

> <Gold.Chemscore.Fitness>
11.5059

> <Gold.Chemscore.DG>
-11.8446

> <Gold.Chemscore.ZeroCoef>
-5.4800

> <Gold.Chemscore.Hbond>
4.2473

> <Gold.Chemscore.Metal>
0.0000

> <Gold.Chemscore.Lipo>
21.2785

> <Gold.Chemscore.Internal_Hbond>
0.0000

> <Gold.Chemscore.DEClash>
0.0015

> <Gold.Chemscore.DEInternal>
0.3373

> <Gold.Chemscore.Rot>
4.0277

> <Gold.Chemscore.Internal.Correction>
   9.000000E+99

> <Gold.Chemscore.Hbonds>
donor molecule, donor type, donor heavy atom, donor atom, acceptor molecule, acceptor atom, score
      L1  H     1    24       P1  7957  1.00
      P1  H  6896  6907       L1    17  0.21
      P1  H  7989  7998       L1     8  0.09
      P1  H  7997  8008       L1    15  0.36
      P1  H  7997  8009       L1    12  0.93

> <Gold.Chemscore.Hbond.Weighted>
-14.1860

> <Gold.Chemscore.Metal.Weighted>
-0.0000

> <Gold.Chemscore.Lipo.Weighted>
-2.4896

> <Gold.Chemscore.Internal_Hbond.Weighted>
0.0000

> <Gold.Chemscore.DEClash.Weighted>
0.0015

> <Gold.Chemscore.DEInternal.Weighted>
0.3373

> <Gold.Chemscore.Rot.Weighted>
10.3110

> <Gold.Chemscore.Internal.Correction.Weighted>
   9.000000E+99

> <Gold.Protein.RotatedTorsions>
[ 6907 6896 6895 6894 ] final   27.22 input  -60.11 | X-H torsion
[ 7974 7965 7964 7962 ] final -176.52 input  175.53 | X-H torsion
[ 8008 7997 7996 7995 ] final -179.81 input   59.86 | X-H torsion
[ 10167 10162 10161 10158 ] final -173.45 input  -65.29 | X-H torsion
[ 10718 10713 10712 10709 ] final  -66.19 input   66.30 | X-H torsion
[ 10763 10752 10751 10750 ] final   55.90 input  -60.55 | X-H torsion
[ 11005 11000 10999 10996 ] final  -45.28 input  -57.11 | X-H torsion

> <Gold.Protein.ActiveResidues>
 VAL166  LYS551  ARG553  GLY616  TRP617  ASP618  TYR619  PRO620  LYS621  CYS622 
 ASP623  PHE694  ASN695  SER759  ASP760  ASP761  ALA762  ILE779  LEU786  VAL792 
 PHE793  MET794  SER795  GLU796  ALA797  LYS798  CYS799  TRP800  GLU811  SER814 

> <Gold.Protein.RotatedAtoms>
  151.9991  134.9938  160.0564 H   0  0  0  0  0  0  0  0  0  0  0  0  # atno 6907 bound_to 6896
  152.1536  133.4533  159.4834 H   0  0  0  0  0  0  0  0  0  0  0  0  # atno 6908 bound_to 6896
  150.6878  134.2076  159.4389 H   0  0  0  0  0  0  0  0  0  0  0  0  # atno 6909 bound_to 6896
  144.7127  140.1157  143.6408 H   0  0  0  0  0  0  0  0  0  0  0  0  # atno 7974 bound_to 7965
  156.0348  140.1290  157.0219 H   0  0  0  0  0  0  0  0  0  0  0  0  # atno 8008 bound_to 7997
  154.4365  140.1042  156.6222 H   0  0  0  0  0  0  0  0  0  0  0  0  # atno 8009 bound_to 7997
  155.5753  140.3467  155.4528 H   0  0  0  0  0  0  0  0  0  0  0  0  # atno 8010 bound_to 7997
  139.5688  144.1692  152.1352 H   0  0  0  0  0  0  0  0  0  0  0  0  # atno 10167 bound_to 10162
  156.0626  130.4258  150.1672 H   0  0  0  0  0  0  0  0  0  0  0  0  # atno 10718 bound_to 10713
  152.9823  135.5695  154.5142 H   0  0  0  0  0  0  0  0  0  0  0  0  # atno 10763 bound_to 10752
  154.4641  135.2782  155.1693 H   0  0  0  0  0  0  0  0  0  0  0  0  # atno 10764 bound_to 10752
  154.3269  135.6257  153.5586 H   0  0  0  0  0  0  0  0  0  0  0  0  # atno 10765 bound_to 10752
  141.0505  133.6744  156.2991 H   0  0  0  0  0  0  0  0  0  0  0  0  # atno 11005 bound_to 11000
  145.9415  139.2672  143.1266 LP  0  0  0  0  0  0  0  0  0  0  0  0  # atno 17320 bound_to 7965
  145.9418  140.8974  143.0304 LP  0  0  0  0  0  0  0  0  0  0  0  0  # atno 17321 bound_to 7965
  140.1221  144.5364  150.6856 LP  0  0  0  0  0  0  0  0  0  0  0  0  # atno 17342 bound_to 10162
  140.6972  143.2411  151.4968 LP  0  0  0  0  0  0  0  0  0  0  0  0  # atno 17343 bound_to 10162
  156.9738  130.9843  151.3453 LP  0  0  0  0  0  0  0  0  0  0  0  0  # atno 17370 bound_to 10713
  157.5646  130.8269  149.8311 LP  0  0  0  0  0  0  0  0  0  0  0  0  # atno 17371 bound_to 10713
  140.6064  134.5503  157.5526 LP  0  0  0  0  0  0  0  0  0  0  0  0  # atno 17394 bound_to 11000
  139.9347  134.7898  156.0836 LP  0  0  0  0  0  0  0  0  0  0  0  0  # atno 17395 bound_to 11000

$$$$
