AV-unprocessed.smi:3179|AV-procd|sdf|12133|dock3
  -GOLD-   2272017573D 1   1.00000     0.00000
 Structure written by MMmdl.
 34 34  0  0  0  0  0  0  0  0  2 V2000
  150.4752  138.1137  155.5357 C   0  0  0  0  0  0  0  0  0  0  0  0
  150.3646  138.6973  154.1247 C   0  0  0  0  0  0  0  0  0  0  0  0
  149.4695  139.8616  154.0995 N   0  3  0  0  0  0  0  0  0  0  0  0
  149.6340  140.9945  154.8103 C   0  0  0  0  0  0  0  0  0  0  0  0
  148.7384  141.9952  154.7003 N   0  0  0  0  0  0  0  0  0  0  0  0
  147.5423  141.9843  153.8482 C   0  0  0  0  0  0  0  0  0  0  0  0
  146.3262  142.5409  154.5937 C   0  0  0  0  0  0  0  0  0  0  0  0
  150.6944  141.1269  155.6308 N   0  0  0  0  0  0  0  0  0  0  0  0
  150.9950  142.3022  156.4592 C   0  0  0  0  0  0  0  0  0  0  0  0
  151.0004  141.9448  157.9501 C   0  0  0  0  0  0  0  0  0  0  0  0
  151.2989  143.1232  158.8148 C   0  0  0  0  0  0  0  0  0  0  0  0
  151.2727  143.0827  160.1498 N   0  0  0  0  0  0  0  0  0  0  0  0
  151.6165  144.3072  160.7283 C   0  0  0  0  0  0  0  0  0  0  0  0
  151.9222  145.2794  159.8102 C   0  0  0  0  0  0  0  0  0  0  0  0
  151.7887  144.6891  158.1763 S   0  0  0  0  0  0  0  0  0  0  0  0
  151.0966  137.2180  155.5364 H   0  0  0  0  0  0  0  0  0  0  0  0
  149.4955  137.8380  155.9270 H   0  0  0  0  0  0  0  0  0  0  0  0
  150.9240  138.8300  156.2245 H   0  0  0  0  0  0  0  0  0  0  0  0
  151.3485  138.9923  153.7600 H   0  0  0  0  0  0  0  0  0  0  0  0
  149.9784  137.9411  153.4410 H   0  0  0  0  0  0  0  0  0  0  0  0
  148.8904  142.8304  155.2476 H   0  0  0  0  0  0  0  0  0  0  0  0
  147.7373  142.5811  152.9569 H   0  0  0  0  0  0  0  0  0  0  0  0
  147.3465  140.9637  153.5190 H   0  0  0  0  0  0  0  0  0  0  0  0
  145.4503  142.5595  153.9450 H   0  0  0  0  0  0  0  0  0  0  0  0
  146.5065  143.5600  154.9373 H   0  0  0  0  0  0  0  0  0  0  0  0
  146.0827  141.9299  155.4634 H   0  0  0  0  0  0  0  0  0  0  0  0
  151.3459  140.3575  155.6916 H   0  0  0  0  0  0  0  0  0  0  0  0
  151.9662  142.7025  156.1660 H   0  0  0  0  0  0  0  0  0  0  0  0
  150.2516  143.0745  156.2599 H   0  0  0  0  0  0  0  0  0  0  0  0
  150.0321  141.5370  158.2424 H   0  0  0  0  0  0  0  0  0  0  0  0
  151.7400  141.1679  158.1484 H   0  0  0  0  0  0  0  0  0  0  0  0
  151.6203  144.3976  161.8044 H   0  0  0  0  0  0  0  0  0  0  0  0
  152.2184  146.3014  159.9953 H   0  0  0  0  0  0  0  0  0  0  0  0
  148.6591  139.7903  153.5010 H   0  0  0  0  0  0  0  0  0  0  0  0
  1  2  1  0  0  0  0
  1 16  1  0  0  0  0
  1 17  1  0  0  0  0
  1 18  1  0  0  0  0
  2  3  1  0  0  0  0
  2 19  1  0  0  0  0
  2 20  1  0  0  0  0
  3  4  2  0  0  0  0
  3 34  1  0  0  0  0
  4  5  1  0  0  0  0
  4  8  1  0  0  0  0
  5  6  1  0  0  0  0
  5 21  1  0  0  0  0
  6  7  1  0  0  0  0
  6 22  1  0  0  0  0
  6 23  1  0  0  0  0
  7 24  1  0  0  0  0
  7 25  1  0  0  0  0
  7 26  1  0  0  0  0
  8  9  1  0  0  0  0
  8 27  1  0  0  0  0
  9 10  1  0  0  0  0
  9 28  1  0  0  0  0
  9 29  1  0  0  0  0
 10 11  1  0  0  0  0
 10 30  1  0  0  0  0
 10 31  1  0  0  0  0
 11 15  1  0  0  0  0
 11 12  2  0  0  0  0
 12 13  1  0  0  0  0
 13 14  2  0  0  0  0
 13 32  1  0  0  0  0
 14 15  1  0  0  0  0
 14 33  1  0  0  0  0
M  CHG  1   3   1
M  END
> <s_m_source_file>
AV-unprocessed.smi

> <i_m_source_file_index>
3179

> <i_lp_mmshare_version>
43012

> <i_f3d_flags>
0

> <s_epik_input>
W0NIM11bQ0gyXS9OPUMoXFtOSF1bQ0gyXVtDSDNdKVtOSF1bQ0gyXVtDSDJdYzFuW2NIXVtjSF1zMQ==

> <s_epik_cmdline>
J2VwaWtfcHl0aG9uJywgJy1waCcsICc3LjAnLCAnLXRuJywgJzgnLCAnLW1hJywgJzIwMCcsICctbWV0YWxfYmluZGluZycsICctaW1hZScsICc8aW5maWxlLm1hZT4nLCAnLW9tYWUnLCAnPG91dGZpbGUubWFlPic=

> <r_lp_tautomer_probability>
1

> <r_epik_Ionization_Penalty>
3.28801e-05

> <r_epik_Ionization_Penalty_Charging>
8.99277e-08

> <r_epik_Ionization_Penalty_Neutral>
3.27902e-05

> <r_epik_State_Penalty>
-0

> <r_epik_Charging_Adjusted_Penalty>
8.99277e-08

> <i_epik_Tot_Q>
1

> <i_epik_Tot_abs_Q>
1

> <r_epik_Metal_State_Penalty>
-0

> <b_epik_Metal_Only>
0

> <s_epik_Chemistry_Notes>
This compound has an imine and may undergo hydrolysis.

> <s_lp_Force_Field>
OPLS_2005

> <r_lp_Energy>
0.365327

> <b_lp_Chiralities_Consistent>
1

> <s_lp_Variant>
AV-unprocessed.smi:3179-2

> <Gold.Version>
5.8.1

> <Gold.Id.Protein>
6NUR|6NUR_protein|mol2

> <Gold.PLP.Fitness>
42.9475

> <Gold.PLP.PLP>
-37.2229

> <Gold.PLP.part.hbond>
-2.8633

> <Gold.PLP.part.metal>
0.0000

> <Gold.PLP.part.buried>
-5.9051

> <Gold.PLP.part.nonpolar>
-27.6163

> <Gold.PLP.part.repulsive>
0.7249

> <Gold.PLP.ligand.clash>
0.0000

> <Gold.PLP.ligand.torsion>
0.1446

> <Gold.PLP.Chemscore.Hbond>
2.0000

> <Gold.PLP.Chemscore.CHOScore>
0.0000

> <Gold.PLP.Chemscore.Metal>
0.0000

> <Gold.Chemscore.Hbonds>
donor molecule, donor type, donor heavy atom, donor atom, acceptor molecule, acceptor atom, score
      L1  H     5    21       P1  8028  2.00

> <Gold.PLP.Chemscore.Internal.Correction>
0.0139

> <Gold.Rescore>
     Score         DG    S(hbond)    S(metal)    S(lipo)     H(rot)  DE(clash)    DE(int)     intcor
     14.73     -14.91       0.99        0.00      90.07       1.72       0.01       0.16       ----

> <Gold.Chemscore.Fitness>
14.7314

> <Gold.Chemscore.DG>
-14.9083

> <Gold.Chemscore.ZeroCoef>
-5.4800

> <Gold.Chemscore.Hbond>
0.9850

> <Gold.Chemscore.Metal>
0.0000

> <Gold.Chemscore.Lipo>
90.0687

> <Gold.Chemscore.Internal_Hbond>
0.0000

> <Gold.Chemscore.DEClash>
0.0123

> <Gold.Chemscore.DEInternal>
0.1647

> <Gold.Chemscore.Rot>
1.7187

> <Gold.Chemscore.Internal.Correction>
   9.000000E+99

> <Gold.Chemscore.Hbonds>
donor molecule, donor type, donor heavy atom, donor atom, acceptor molecule, acceptor atom, score
      L1  H     5    21       P1  8028  0.98

> <Gold.Chemscore.Hbond.Weighted>
-3.2901

> <Gold.Chemscore.Metal.Weighted>
-0.0000

> <Gold.Chemscore.Lipo.Weighted>
-10.5380

> <Gold.Chemscore.Internal_Hbond.Weighted>
0.0000

> <Gold.Chemscore.DEClash.Weighted>
0.0123

> <Gold.Chemscore.DEInternal.Weighted>
0.1647

> <Gold.Chemscore.Rot.Weighted>
4.3998

> <Gold.Chemscore.Internal.Correction.Weighted>
   9.000000E+99

> <Gold.Protein.RotatedTorsions>
[ 6907 6896 6895 6894 ] final   58.33 input  -60.11 | X-H torsion
[ 7974 7965 7964 7962 ] final   25.35 input  175.53 | X-H torsion
[ 8008 7997 7996 7995 ] final -122.85 input   59.86 | X-H torsion
[ 10167 10162 10161 10158 ] final -141.32 input  -65.29 | X-H torsion
[ 10718 10713 10712 10709 ] final   89.68 input   66.30 | X-H torsion
[ 10763 10752 10751 10750 ] final  -84.19 input  -60.55 | X-H torsion
[ 11005 11000 10999 10996 ] final -103.91 input  -57.11 | X-H torsion

> <Gold.Protein.ActiveResidues>
 VAL166  LYS551  ARG553  GLY616  TRP617  ASP618  TYR619  PRO620  LYS621  CYS622 
 ASP623  PHE694  ASN695  SER759  ASP760  ASP761  ALA762  ILE779  LEU786  VAL792 
 PHE793  MET794  SER795  GLU796  ALA797  LYS798  CYS799  TRP800  GLU811  SER814 

> <Gold.Protein.RotatedAtoms>
  152.3814  134.6584  160.0141 H   0  0  0  0  0  0  0  0  0  0  0  0  # atno 6907 bound_to 6896
  151.6846  133.3306  159.3236 H   0  0  0  0  0  0  0  0  0  0  0  0  # atno 6908 bound_to 6896
  150.7750  134.6687  159.6424 H   0  0  0  0  0  0  0  0  0  0  0  0  # atno 6909 bound_to 6896
  146.1893  139.7478  142.8844 H   0  0  0  0  0  0  0  0  0  0  0  0  # atno 7974 bound_to 7965
  155.1709  140.0408  157.2862 H   0  0  0  0  0  0  0  0  0  0  0  0  # atno 8008 bound_to 7997
  154.6270  140.2515  155.7452 H   0  0  0  0  0  0  0  0  0  0  0  0  # atno 8009 bound_to 7997
  156.2464  140.2883  156.0604 H   0  0  0  0  0  0  0  0  0  0  0  0  # atno 8010 bound_to 7997
  139.8196  143.7591  152.2666 H   0  0  0  0  0  0  0  0  0  0  0  0  # atno 10167 bound_to 10162
  157.6956  131.0342  150.3463 H   0  0  0  0  0  0  0  0  0  0  0  0  # atno 10718 bound_to 10713
  154.5965  135.5529  153.7331 H   0  0  0  0  0  0  0  0  0  0  0  0  # atno 10763 bound_to 10752
  153.0137  135.6356  154.1775 H   0  0  0  0  0  0  0  0  0  0  0  0  # atno 10764 bound_to 10752
  154.1715  135.2892  155.3059 H   0  0  0  0  0  0  0  0  0  0  0  0  # atno 10765 bound_to 10752
  141.1124  133.8679  157.1545 H   0  0  0  0  0  0  0  0  0  0  0  0  # atno 11005 bound_to 11000
  145.3842  141.0363  143.3160 LP  0  0  0  0  0  0  0  0  0  0  0  0  # atno 17320 bound_to 7965
  144.8456  139.5403  143.6880 LP  0  0  0  0  0  0  0  0  0  0  0  0  # atno 17321 bound_to 7965
  139.7765  144.7459  151.0149 LP  0  0  0  0  0  0  0  0  0  0  0  0  # atno 17342 bound_to 10162
  140.7814  143.4588  151.0308 LP  0  0  0  0  0  0  0  0  0  0  0  0  # atno 17343 bound_to 10162
  156.3917  130.3899  149.7025 LP  0  0  0  0  0  0  0  0  0  0  0  0  # atno 17370 bound_to 10713
  156.4372  130.7844  151.2864 LP  0  0  0  0  0  0  0  0  0  0  0  0  # atno 17371 bound_to 10713
  140.0026  135.0021  157.0224 LP  0  0  0  0  0  0  0  0  0  0  0  0  # atno 17394 bound_to 11000
  140.4738  134.1360  155.7207 LP  0  0  0  0  0  0  0  0  0  0  0  0  # atno 17395 bound_to 11000

$$$$
