AV-unprocessed.smi:2338|AV-procd|sdf|9335|dock5
  -GOLD-   2272012553D 1   1.00000     0.00000
 Structure written by MMmdl.
 31 32  0  0  0  0  0  0  0  0  1 V2000
  149.6409  139.1735  153.5072 N   0  0  0  0  0  0  0  0  0  0  0  0
  150.3614  139.2545  154.6286 C   0  0  0  0  0  0  0  0  0  0  0  0
  151.4047  139.9032  154.6896 O   0  0  0  0  0  0  0  0  0  0  0  0
  149.8390  138.4813  155.8532 C   0  0  1  0  0  0  0  0  0  0  0  0
  149.6803  136.9933  155.4634 C   0  0  0  0  0  0  0  0  0  0  0  0
  149.2022  136.2376  156.5707 O   0  0  0  0  0  0  0  0  0  0  0  0
  150.1140  136.2703  157.6611 C   0  0  0  0  0  0  0  0  0  0  0  0
  150.2659  137.7192  158.1468 C   0  0  0  0  0  0  0  0  0  0  0  0
  150.6883  138.5837  157.0489 N   0  0  0  0  0  0  0  0  0  0  0  0
  150.9983  139.8786  157.5107 C   0  0  0  0  0  0  0  0  0  0  0  0
  150.2815  140.9184  157.0173 N   0  0  0  0  0  0  0  0  0  0  0  0
  150.5662  142.1644  157.4507 C   0  0  0  0  0  0  0  0  0  0  0  0
  151.5684  142.4456  158.4031 C   0  0  0  0  0  0  0  0  0  0  0  0
  151.8614  143.8685  158.8495 C   0  0  0  0  0  0  0  0  0  0  0  0
  152.2879  144.5978  157.8182 F   0  0  0  0  0  0  0  0  0  0  0  0
  150.7463  144.4155  159.3315 F   0  0  0  0  0  0  0  0  0  0  0  0
  152.7979  143.8953  159.7981 F   0  0  0  0  0  0  0  0  0  0  0  0
  152.3094  141.3626  158.9185 C   0  0  0  0  0  0  0  0  0  0  0  0
  152.0218  140.0582  158.4720 C   0  0  0  0  0  0  0  0  0  0  0  0
  152.9313  138.7238  159.0902 Cl  0  0  0  0  0  0  0  0  0  0  0  0
  149.9418  139.6713  152.6819 H   0  0  0  0  0  0  0  0  0  0  0  0
  148.7948  138.6228  153.4898 H   0  0  0  0  0  0  0  0  0  0  0  0
  148.8493  138.8649  156.1092 H   0  0  0  0  0  0  0  0  0  0  0  0
  148.9670  136.8882  154.6452 H   0  0  0  0  0  0  0  0  0  0  0  0
  150.6250  136.5716  155.1136 H   0  0  0  0  0  0  0  0  0  0  0  0
  149.7303  135.6416  158.4647 H   0  0  0  0  0  0  0  0  0  0  0  0
  151.0776  135.8543  157.3619 H   0  0  0  0  0  0  0  0  0  0  0  0
  149.3164  138.0769  158.5485 H   0  0  0  0  0  0  0  0  0  0  0  0
  150.9912  137.7555  158.9611 H   0  0  0  0  0  0  0  0  0  0  0  0
  149.9751  142.9573  157.0167 H   0  0  0  0  0  0  0  0  0  0  0  0
  153.0929  141.5292  159.6432 H   0  0  0  0  0  0  0  0  0  0  0  0
  1  2  1  0  0  0  0
  1 21  1  0  0  0  0
  1 22  1  0  0  0  0
  2  3  2  0  0  0  0
  2  4  1  0  0  0  0
  4  9  1  0  0  0  0
  4  5  1  0  0  0  0
  4 23  1  0  0  0  0
  5  6  1  0  0  0  0
  5 24  1  0  0  0  0
  5 25  1  0  0  0  0
  6  7  1  0  0  0  0
  7  8  1  0  0  0  0
  7 26  1  0  0  0  0
  7 27  1  0  0  0  0
  8  9  1  0  0  0  0
  8 28  1  0  0  0  0
  8 29  1  0  0  0  0
  9 10  1  0  0  0  0
 10 19  1  0  0  0  0
 10 11  2  0  0  0  0
 11 12  1  0  0  0  0
 12 13  2  0  0  0  0
 12 30  1  0  0  0  0
 13 14  1  0  0  0  0
 13 18  1  0  0  0  0
 14 15  1  0  0  0  0
 14 16  1  0  0  0  0
 14 17  1  0  0  0  0
 18 19  2  0  0  0  0
 18 31  1  0  0  0  0
 19 20  1  0  0  0  0
M  END
> <s_m_source_file>
AV-unprocessed.smi

> <i_m_source_file_index>
2338

> <i_lp_mmshare_version>
43012

> <i_f3d_flags>
0

> <s_epik_input>
W05IMl1DKD1PKVtDQEBIXTFbQ0gyXU9bQ0gyXVtDSDJdTjFjMm5bY0hdYyhDKEYpKEYpRilbY0hdYzJDbA==

> <s_epik_cmdline>
J2VwaWtfcHl0aG9uJywgJy1waCcsICc3LjAnLCAnLXRuJywgJzgnLCAnLW1hJywgJzIwMCcsICctbWV0YWxfYmluZGluZycsICctaW1hZScsICc8aW5maWxlLm1hZT4nLCAnLW9tYWUnLCAnPG91dGZpbGUubWFlPic=

> <r_lp_tautomer_probability>
1

> <r_epik_Ionization_Penalty>
1.71167e-07

> <r_epik_Ionization_Penalty_Charging>
0

> <r_epik_Ionization_Penalty_Neutral>
1.71167e-07

> <r_epik_State_Penalty>
-0

> <r_epik_Charging_Adjusted_Penalty>
0

> <i_epik_Tot_Q>
0

> <i_epik_Tot_abs_Q>
0

> <r_epik_Metal_State_Penalty>
-0

> <b_epik_Metal_Only>
0

> <s_lp_Force_Field>
OPLS_2005

> <r_lp_Energy>
18.2769

> <b_lp_Chiralities_Consistent>
1

> <s_lp_Variant>
AV-unprocessed.smi:2338-2

> <Gold.Version>
5.8.1

> <Gold.Id.Protein>
6NUR|6NUR_protein|mol2

> <Gold.PLP.Fitness>
42.7620

> <Gold.PLP.PLP>
-34.7544

> <Gold.PLP.part.hbond>
-1.8918

> <Gold.PLP.part.metal>
0.0000

> <Gold.PLP.part.buried>
-6.7491

> <Gold.PLP.part.nonpolar>
-26.5170

> <Gold.PLP.part.repulsive>
0.2498

> <Gold.PLP.ligand.clash>
0.8961

> <Gold.PLP.ligand.torsion>
0.2059

> <Gold.PLP.Chemscore.Hbond>
1.9280

> <Gold.PLP.Chemscore.CHOScore>
1.0000

> <Gold.PLP.Chemscore.Metal>
0.0000

> <Gold.Chemscore.Hbonds>
donor molecule, donor type, donor heavy atom, donor atom, acceptor molecule, acceptor atom, score
      L1  H     1    21       P1  7957  0.93
      P1  H  7989  7998       L1     3  1.00
      L1  C    12    30       P1  8028  1.00

> <Gold.PLP.Chemscore.Internal.Correction>
0.5315

> <Gold.Rescore>
     Score         DG    S(hbond)    S(metal)    S(lipo)     H(rot)  DE(clash)    DE(int)     intcor
     12.62     -15.26       2.00        0.00      59.60       1.51       0.78       1.86       ----

> <Gold.Chemscore.Fitness>
12.6162

> <Gold.Chemscore.DG>
-15.2584

> <Gold.Chemscore.ZeroCoef>
-5.4800

> <Gold.Chemscore.Hbond>
1.9979

> <Gold.Chemscore.Metal>
0.0000

> <Gold.Chemscore.Lipo>
59.5961

> <Gold.Chemscore.Internal_Hbond>
0.0000

> <Gold.Chemscore.DEClash>
0.7827

> <Gold.Chemscore.DEInternal>
1.8595

> <Gold.Chemscore.Rot>
1.5107

> <Gold.Chemscore.Internal.Correction>
   9.000000E+99

> <Gold.Chemscore.Hbonds>
donor molecule, donor type, donor heavy atom, donor atom, acceptor molecule, acceptor atom, score
      L1  H     1    21       P1  7957  0.88
      P1  H  7989  7998       L1     3  0.86

> <Gold.Chemscore.Hbond.Weighted>
-6.6730

> <Gold.Chemscore.Metal.Weighted>
-0.0000

> <Gold.Chemscore.Lipo.Weighted>
-6.9727

> <Gold.Chemscore.Internal_Hbond.Weighted>
0.0000

> <Gold.Chemscore.DEClash.Weighted>
0.7827

> <Gold.Chemscore.DEInternal.Weighted>
1.8595

> <Gold.Chemscore.Rot.Weighted>
3.8674

> <Gold.Chemscore.Internal.Correction.Weighted>
   9.000000E+99

> <Gold.Protein.RotatedTorsions>
[ 6907 6896 6895 6894 ] final   11.75 input  -60.11 | X-H torsion
[ 7974 7965 7964 7962 ] final  -12.91 input  175.53 | X-H torsion
[ 8008 7997 7996 7995 ] final -161.97 input   59.86 | X-H torsion
[ 10167 10162 10161 10158 ] final   52.79 input  -65.29 | X-H torsion
[ 10718 10713 10712 10709 ] final -135.30 input   66.30 | X-H torsion
[ 10763 10752 10751 10750 ] final   26.70 input  -60.55 | X-H torsion
[ 11005 11000 10999 10996 ] final  -97.30 input  -57.11 | X-H torsion

> <Gold.Protein.ActiveResidues>
 VAL166  LYS551  ARG553  GLY616  TRP617  ASP618  TYR619  PRO620  LYS621  CYS622 
 ASP623  PHE694  ASN695  SER759  ASP760  ASP761  ALA762  ILE779  LEU786  VAL792 
 PHE793  MET794  SER795  GLU796  ALA797  LYS798  CYS799  TRP800  GLU811  SER814 

> <Gold.Protein.RotatedAtoms>
  151.7594  135.0814  160.0342 H   0  0  0  0  0  0  0  0  0  0  0  0  # atno 6907 bound_to 6896
  152.3363  133.6011  159.5853 H   0  0  0  0  0  0  0  0  0  0  0  0  # atno 6908 bound_to 6896
  150.7452  133.9706  159.3586 H   0  0  0  0  0  0  0  0  0  0  0  0  # atno 6909 bound_to 6896
  146.2134  140.3126  142.8384 H   0  0  0  0  0  0  0  0  0  0  0  0  # atno 7974 bound_to 7965
  155.8000  140.0890  157.1962 H   0  0  0  0  0  0  0  0  0  0  0  0  # atno 8008 bound_to 7997
  154.3982  140.1474  156.3322 H   0  0  0  0  0  0  0  0  0  0  0  0  # atno 8009 bound_to 7997
  155.8472  140.3436  155.5672 H   0  0  0  0  0  0  0  0  0  0  0  0  # atno 8010 bound_to 7997
  140.2476  144.3515  150.6359 H   0  0  0  0  0  0  0  0  0  0  0  0  # atno 10167 bound_to 10162
  156.2647  130.7230  151.1177 H   0  0  0  0  0  0  0  0  0  0  0  0  # atno 10718 bound_to 10713
  153.0605  135.6554  154.0474 H   0  0  0  0  0  0  0  0  0  0  0  0  # atno 10763 bound_to 10752
  154.0143  135.2925  155.3390 H   0  0  0  0  0  0  0  0  0  0  0  0  # atno 10764 bound_to 10752
  154.6941  135.5271  153.8501 H   0  0  0  0  0  0  0  0  0  0  0  0  # atno 10765 bound_to 10752
  141.1383  133.8161  157.0688 H   0  0  0  0  0  0  0  0  0  0  0  0  # atno 11005 bound_to 11000
  144.8977  140.7604  143.5886 LP  0  0  0  0  0  0  0  0  0  0  0  0  # atno 17320 bound_to 7965
  145.3051  139.1837  143.4669 LP  0  0  0  0  0  0  0  0  0  0  0  0  # atno 17321 bound_to 7965
  140.6065  143.2168  151.6970 LP  0  0  0  0  0  0  0  0  0  0  0  0  # atno 17342 bound_to 10162
  139.5057  144.3709  152.0471 LP  0  0  0  0  0  0  0  0  0  0  0  0  # atno 17343 bound_to 10162
  157.7263  131.0647  150.5915 LP  0  0  0  0  0  0  0  0  0  0  0  0  # atno 17370 bound_to 10713
  156.6006  130.4353  149.5899 LP  0  0  0  0  0  0  0  0  0  0  0  0  # atno 17371 bound_to 10713
  140.0525  134.9798  157.1161 LP  0  0  0  0  0  0  0  0  0  0  0  0  # atno 17394 bound_to 11000
  140.3969  134.2124  155.7164 LP  0  0  0  0  0  0  0  0  0  0  0  0  # atno 17395 bound_to 11000

$$$$
