AV-unprocessed.smi:3120|AV-procd|sdf|11892|dock1
  -GOLD-   2272017283D 1   1.00000     0.00000
 Structure written by MMmdl.
 22 23  0  0  0  0  0  0  0  0  1 V2000
  153.1781  139.8665  158.4290 O   0  0  0  0  0  0  0  0  0  0  0  0
  152.4616  140.8121  158.1061 C   0  0  0  0  0  0  0  0  0  0  0  0
  151.3926  140.7393  157.3144 N   0  0  0  0  0  0  0  0  0  0  0  0
  150.7459  142.0188  157.0968 C   0  0  0  0  0  0  0  0  0  0  0  0
  151.4132  142.9698  158.1026 C   0  0  0  0  0  0  0  0  0  0  0  0
  152.6883  142.2464  158.5715 C   0  0  1  0  0  0  0  0  0  0  0  0
  152.9533  142.3436  160.0702 C   0  0  0  0  0  0  0  0  0  0  0  0
  153.8194  141.4451  160.7333 C   0  0  0  0  0  0  0  0  0  0  0  0
  154.0194  141.5877  162.1196 C   0  0  0  0  0  0  0  0  0  0  0  0
  153.3439  142.6259  162.7906 C   0  0  0  0  0  0  0  0  0  0  0  0
  152.5142  143.4919  162.1706 N   0  0  0  0  0  0  0  0  0  0  0  0
  152.3289  143.3484  160.8407 C   0  0  0  0  0  0  0  0  0  0  0  0
  151.0597  139.8840  156.8930 H   0  0  0  0  0  0  0  0  0  0  0  0
  150.9254  142.3418  156.0707 H   0  0  0  0  0  0  0  0  0  0  0  0
  149.6691  141.9477  157.2528 H   0  0  0  0  0  0  0  0  0  0  0  0
  151.6329  143.9437  157.6643 H   0  0  0  0  0  0  0  0  0  0  0  0
  150.7314  143.1411  158.9366 H   0  0  0  0  0  0  0  0  0  0  0  0
  153.5475  142.6307  158.0198 H   0  0  0  0  0  0  0  0  0  0  0  0
  154.3236  140.6589  160.1907 H   0  0  0  0  0  0  0  0  0  0  0  0
  154.6752  140.9176  162.6556 H   0  0  0  0  0  0  0  0  0  0  0  0
  153.4727  142.7640  163.8539 H   0  0  0  0  0  0  0  0  0  0  0  0
  151.6587  144.0587  160.3788 H   0  0  0  0  0  0  0  0  0  0  0  0
  1  2  2  0  0  0  0
  2  6  1  0  0  0  0
  2  3  1  0  0  0  0
  3  4  1  0  0  0  0
  3 13  1  0  0  0  0
  4  5  1  0  0  0  0
  4 14  1  0  0  0  0
  4 15  1  0  0  0  0
  5  6  1  0  0  0  0
  5 16  1  0  0  0  0
  5 17  1  0  0  0  0
  6  7  1  0  0  0  0
  6 18  1  0  0  0  0
  7 12  1  0  0  0  0
  7  8  2  0  0  0  0
  8  9  1  0  0  0  0
  8 19  1  0  0  0  0
  9 10  2  0  0  0  0
  9 20  1  0  0  0  0
 10 11  1  0  0  0  0
 10 21  1  0  0  0  0
 11 12  2  0  0  0  0
 12 22  1  0  0  0  0
M  END
> <s_m_source_file>
AV-unprocessed.smi

> <i_m_source_file_index>
3120

> <i_lp_mmshare_version>
43012

> <i_f3d_flags>
0

> <s_epik_input>
Tz1DMVtOSF1bQ0gyXVtDSDJdW0NASF0xYzJbY0hdW2NIXVtjSF1uW2NIXTI=

> <s_epik_cmdline>
J2VwaWtfcHl0aG9uJywgJy1waCcsICc3LjAnLCAnLXRuJywgJzgnLCAnLW1hJywgJzIwMCcsICctbWV0YWxfYmluZGluZycsICctaW1hZScsICc8aW5maWxlLm1hZT4nLCAnLW9tYWUnLCAnPG91dGZpbGUubWFlPic=

> <r_epik_Ionization_Penalty>
0.00558523

> <r_epik_Ionization_Penalty_Charging>
0

> <r_epik_Ionization_Penalty_Neutral>
0.00558523

> <r_epik_State_Penalty>
0.00409114

> <r_epik_Charging_Adjusted_Penalty>
0.00409114

> <i_epik_Tot_Q>
0

> <i_epik_Tot_abs_Q>
0

> <r_epik_Metal_State_Penalty>
-0

> <b_epik_Metal_Only>
0

> <s_lp_Force_Field>
OPLS_2005

> <r_lp_Energy>
14.9187

> <b_lp_Chiralities_Consistent>
1

> <s_lp_Variant>
AV-unprocessed.smi:3120-1

> <Gold.Version>
5.8.1

> <Gold.Id.Protein>
6NUR|6NUR_protein|mol2

> <Gold.PLP.Fitness>
30.7559

> <Gold.PLP.PLP>
-28.7022

> <Gold.PLP.part.hbond>
-1.0000

> <Gold.PLP.part.metal>
0.0000

> <Gold.PLP.part.buried>
-3.2121

> <Gold.PLP.part.nonpolar>
-22.9630

> <Gold.PLP.part.repulsive>
0.2336

> <Gold.PLP.ligand.clash>
0.0000

> <Gold.PLP.ligand.torsion>
0.4769

> <Gold.PLP.Chemscore.Hbond>
1.0000

> <Gold.PLP.Chemscore.CHOScore>
0.0000

> <Gold.PLP.Chemscore.Metal>
0.0000

> <Gold.Chemscore.Hbonds>
donor molecule, donor type, donor heavy atom, donor atom, acceptor molecule, acceptor atom, score
      P1  H  7997  8010       L1     1  1.00

> <Gold.PLP.Chemscore.Internal.Correction>
0.0075

> <Gold.Rescore>
     Score         DG    S(hbond)    S(metal)    S(lipo)     H(rot)  DE(clash)    DE(int)     intcor
     13.65     -15.35       0.80        0.00      83.40       1.00       0.26       1.44       ----

> <Gold.Chemscore.Fitness>
13.6545

> <Gold.Chemscore.DG>
-15.3527

> <Gold.Chemscore.ZeroCoef>
-5.4800

> <Gold.Chemscore.Hbond>
0.8008

> <Gold.Chemscore.Metal>
0.0000

> <Gold.Chemscore.Lipo>
83.4006

> <Gold.Chemscore.Internal_Hbond>
0.0000

> <Gold.Chemscore.DEClash>
0.2574

> <Gold.Chemscore.DEInternal>
1.4408

> <Gold.Chemscore.Rot>
1.0000

> <Gold.Chemscore.Internal.Correction>
   9.000000E+99

> <Gold.Chemscore.Hbonds>
donor molecule, donor type, donor heavy atom, donor atom, acceptor molecule, acceptor atom, score
      P1  H  7997  8010       L1     1  0.40

> <Gold.Chemscore.Hbond.Weighted>
-2.6748

> <Gold.Chemscore.Metal.Weighted>
-0.0000

> <Gold.Chemscore.Lipo.Weighted>
-9.7579

> <Gold.Chemscore.Internal_Hbond.Weighted>
0.0000

> <Gold.Chemscore.DEClash.Weighted>
0.2574

> <Gold.Chemscore.DEInternal.Weighted>
1.4408

> <Gold.Chemscore.Rot.Weighted>
2.5600

> <Gold.Chemscore.Internal.Correction.Weighted>
   9.000000E+99

> <Gold.Protein.RotatedTorsions>
[ 6907 6896 6895 6894 ] final  174.20 input  -60.11 | X-H torsion
[ 7974 7965 7964 7962 ] final -146.95 input  175.53 | X-H torsion
[ 8008 7997 7996 7995 ] final   19.45 input   59.86 | X-H torsion
[ 10167 10162 10161 10158 ] final  -54.86 input  -65.29 | X-H torsion
[ 10718 10713 10712 10709 ] final  -87.68 input   66.30 | X-H torsion
[ 10763 10752 10751 10750 ] final   27.20 input  -60.55 | X-H torsion
[ 11005 11000 10999 10996 ] final  138.01 input  -57.11 | X-H torsion

> <Gold.Protein.ActiveResidues>
 VAL166  LYS551  ARG553  GLY616  TRP617  ASP618  TYR619  PRO620  LYS621  CYS622 
 ASP623  PHE694  ASN695  SER759  ASP760  ASP761  ALA762  ILE779  LEU786  VAL792 
 PHE793  MET794  SER795  GLU796  ALA797  LYS798  CYS799  TRP800  GLU811  SER814 

> <Gold.Protein.RotatedAtoms>
  151.7561  133.3330  159.3404 H   0  0  0  0  0  0  0  0  0  0  0  0  # atno 6907 bound_to 6896
  150.7516  134.6148  159.6114 H   0  0  0  0  0  0  0  0  0  0  0  0  # atno 6908 bound_to 6896
  152.3436  134.7103  160.0308 H   0  0  0  0  0  0  0  0  0  0  0  0  # atno 6909 bound_to 6896
  144.8125  140.5389  143.5633 H   0  0  0  0  0  0  0  0  0  0  0  0  # atno 7974 bound_to 7965
  154.9209  140.3027  155.5217 H   0  0  0  0  0  0  0  0  0  0  0  0  # atno 8008 bound_to 7997
  156.3010  140.2371  156.4195 H   0  0  0  0  0  0  0  0  0  0  0  0  # atno 8009 bound_to 7997
  154.8332  140.0417  157.1480 H   0  0  0  0  0  0  0  0  0  0  0  0  # atno 8010 bound_to 7997
  140.6407  143.2506  151.4997 H   0  0  0  0  0  0  0  0  0  0  0  0  # atno 10167 bound_to 10162
  155.9985  130.4808  150.4904 H   0  0  0  0  0  0  0  0  0  0  0  0  # atno 10718 bound_to 10713
  153.0571  135.6542  154.0551 H   0  0  0  0  0  0  0  0  0  0  0  0  # atno 10763 bound_to 10752
  154.0227  135.2918  155.3380 H   0  0  0  0  0  0  0  0  0  0  0  0  # atno 10764 bound_to 10752
  154.6892  135.5289  153.8436 H   0  0  0  0  0  0  0  0  0  0  0  0  # atno 10765 bound_to 10752
  140.0154  134.9421  157.0364 H   0  0  0  0  0  0  0  0  0  0  0  0  # atno 11005 bound_to 11000
  145.5290  139.1475  143.3510 LP  0  0  0  0  0  0  0  0  0  0  0  0  # atno 17320 bound_to 7965
  146.2425  140.5431  142.8928 LP  0  0  0  0  0  0  0  0  0  0  0  0  # atno 17321 bound_to 7965
  139.5616  144.2142  152.1700 LP  0  0  0  0  0  0  0  0  0  0  0  0  # atno 17342 bound_to 10162
  140.1412  144.5200  150.6743 LP  0  0  0  0  0  0  0  0  0  0  0  0  # atno 17343 bound_to 10162
  157.2899  131.0624  151.2140 LP  0  0  0  0  0  0  0  0  0  0  0  0  # atno 17370 bound_to 10713
  157.3157  130.6912  149.6240 LP  0  0  0  0  0  0  0  0  0  0  0  0  # atno 17371 bound_to 10713
  140.4481  134.1611  155.7179 LP  0  0  0  0  0  0  0  0  0  0  0  0  # atno 17394 bound_to 11000
  141.1739  133.8554  157.1484 LP  0  0  0  0  0  0  0  0  0  0  0  0  # atno 17395 bound_to 11000

$$$$
