AV-unprocessed.smi:1295|AV-procd|sdf|5401|dock9
  -GOLD-   22720 4563D 1   1.00000     0.00000
 Structure written by MMmdl.
 43 44  0  0  0  0  0  0  0  0  1 V2000
  149.6917  134.9701  154.6383 C   0  0  0  0  0  0  0  0  0  0  0  0
  150.4097  136.2405  155.0421 C   0  0  0  0  0  0  0  0  0  0  0  0
  151.3113  136.2958  155.9664 N   0  0  0  0  0  0  0  0  0  0  0  0
  151.9103  137.5309  156.2500 C   0  0  0  0  0  0  0  0  0  0  0  0
  152.9653  137.5127  157.3427 C   0  0  0  0  0  0  0  0  0  0  0  0
  151.5608  138.6672  155.5785 C   0  0  0  0  0  0  0  0  0  0  0  0
  152.2001  140.0255  155.8626 C   0  0  0  0  0  0  0  0  0  0  0  0
  151.4488  140.9138  156.8571 C   0  0  0  0  0  0  0  0  0  0  0  0
  150.2574  141.1688  156.6814 O   0  0  0  0  0  0  0  0  0  0  0  0
  152.1639  141.3806  157.8926 N   0  0  0  0  0  0  0  0  0  0  0  0
  151.6759  142.2768  158.9396 C   0  0  2  0  0  0  0  0  0  0  0  0
  151.2257  143.5977  158.2849 C   0  0  0  0  0  0  0  0  0  0  0  0
  150.7578  144.6203  159.3300 C   0  0  0  0  0  0  0  0  0  0  0  0
  151.8536  144.8767  160.3732 C   0  0  0  0  0  0  0  0  0  0  0  0
  152.2926  143.5665  161.0437 C   0  0  0  0  0  0  0  0  0  0  0  0
  152.7674  142.5210  160.0135 C   0  0  1  0  0  0  0  0  0  0  0  0
  153.2017  141.2262  160.7239 C   0  0  0  0  0  0  0  0  0  0  0  0
  150.5283  138.5928  154.5266 C   0  0  0  0  0  0  0  0  0  0  0  0
  150.1410  139.5509  153.8594 O   0  0  0  0  0  0  0  0  0  0  0  0
  150.0080  137.3624  154.3192 N   0  0  0  0  0  0  0  0  0  0  0  0
  149.2996  137.2587  153.6074 H   0  0  0  0  0  0  0  0  0  0  0  0
  150.4108  134.2279  154.2901 H   0  0  0  0  0  0  0  0  0  0  0  0
  148.9727  135.1504  153.8379 H   0  0  0  0  0  0  0  0  0  0  0  0
  149.1552  134.5546  155.4918 H   0  0  0  0  0  0  0  0  0  0  0  0
  152.6605  138.1406  158.1799 H   0  0  0  0  0  0  0  0  0  0  0  0
  153.9199  137.8779  156.9636 H   0  0  0  0  0  0  0  0  0  0  0  0
  153.1238  136.5030  157.7236 H   0  0  0  0  0  0  0  0  0  0  0  0
  153.2217  139.9025  156.2233 H   0  0  0  0  0  0  0  0  0  0  0  0
  152.3036  140.5595  154.9174 H   0  0  0  0  0  0  0  0  0  0  0  0
  153.1345  141.1082  157.9503 H   0  0  0  0  0  0  0  0  0  0  0  0
  150.8046  141.8402  159.4316 H   0  0  0  0  0  0  0  0  0  0  0  0
  152.0480  144.0244  157.7083 H   0  0  0  0  0  0  0  0  0  0  0  0
  150.4198  143.4062  157.5750 H   0  0  0  0  0  0  0  0  0  0  0  0
  150.4842  145.5549  158.8399 H   0  0  0  0  0  0  0  0  0  0  0  0
  149.8570  144.2543  159.8245 H   0  0  0  0  0  0  0  0  0  0  0  0
  152.7124  145.3495  159.8949 H   0  0  0  0  0  0  0  0  0  0  0  0
  151.4937  145.5777  161.1268 H   0  0  0  0  0  0  0  0  0  0  0  0
  153.0908  143.7754  161.7570 H   0  0  0  0  0  0  0  0  0  0  0  0
  151.4617  143.1608  161.6229 H   0  0  0  0  0  0  0  0  0  0  0  0
  153.6474  142.9297  159.5142 H   0  0  0  0  0  0  0  0  0  0  0  0
  152.3554  140.7404  161.2105 H   0  0  0  0  0  0  0  0  0  0  0  0
  153.9516  141.4309  161.4884 H   0  0  0  0  0  0  0  0  0  0  0  0
  153.6400  140.5111  160.0278 H   0  0  0  0  0  0  0  0  0  0  0  0
  1  2  1  0  0  0  0
  1 22  1  0  0  0  0
  1 23  1  0  0  0  0
  1 24  1  0  0  0  0
  2 20  1  0  0  0  0
  2  3  2  0  0  0  0
  3  4  1  0  0  0  0
  4  5  1  0  0  0  0
  4  6  2  0  0  0  0
  5 25  1  0  0  0  0
  5 26  1  0  0  0  0
  5 27  1  0  0  0  0
  6  7  1  0  0  0  0
  6 18  1  0  0  0  0
  7  8  1  0  0  0  0
  7 28  1  0  0  0  0
  7 29  1  0  0  0  0
  8  9  2  0  0  0  0
  8 10  1  0  0  0  0
 10 11  1  0  0  0  0
 10 30  1  0  0  0  0
 11 16  1  0  0  0  0
 11 12  1  0  0  0  0
 11 31  1  0  0  0  0
 12 13  1  0  0  0  0
 12 32  1  0  0  0  0
 12 33  1  0  0  0  0
 13 14  1  0  0  0  0
 13 34  1  0  0  0  0
 13 35  1  0  0  0  0
 14 15  1  0  0  0  0
 14 36  1  0  0  0  0
 14 37  1  0  0  0  0
 15 16  1  0  0  0  0
 15 38  1  0  0  0  0
 15 39  1  0  0  0  0
 16 17  1  0  0  0  0
 16 40  1  0  0  0  0
 17 41  1  0  0  0  0
 17 42  1  0  0  0  0
 17 43  1  0  0  0  0
 18 19  2  0  0  0  0
 18 20  1  0  0  0  0
 20 21  1  0  0  0  0
M  END
> <s_m_source_file>
AV-unprocessed.smi

> <i_m_source_file_index>
1295

> <i_lp_mmshare_version>
43012

> <i_f3d_flags>
0

> <s_epik_input>
W0NIM11jMW5jKFtDSDNdKWMoYyg9TylbbkhdMSlbQ0gyXUMoPU8pW05IXVtDQEBIXTJbQ0gyXVtDSDJdW0NIMl1bQ0gyXVtDQEhdMltDSDNd

> <s_epik_cmdline>
J2VwaWtfcHl0aG9uJywgJy1waCcsICc3LjAnLCAnLXRuJywgJzgnLCAnLW1hJywgJzIwMCcsICctbWV0YWxfYmluZGluZycsICctaW1hZScsICc8aW5maWxlLm1hZT4nLCAnLW9tYWUnLCAnPG91dGZpbGUubWFlPic=

> <r_lp_tautomer_probability>
0.839158

> <r_epik_Ionization_Penalty>
0.00037085

> <r_epik_Ionization_Penalty_Charging>
0.000336002

> <r_epik_Ionization_Penalty_Neutral>
3.48485e-05

> <r_epik_State_Penalty>
0.09125

> <r_epik_Charging_Adjusted_Penalty>
0.091586

> <i_epik_Tot_Q>
0

> <i_epik_Tot_abs_Q>
0

> <r_epik_Metal_State_Penalty>
0.251445

> <b_epik_Metal_Only>
0

> <s_lp_Force_Field>
OPLS_2005

> <r_lp_Energy>
11.9109

> <b_lp_Chiralities_Consistent>
1

> <s_lp_Variant>
AV-unprocessed.smi:1295-1

> <Gold.Version>
5.8.1

> <Gold.Id.Protein>
6NUR|6NUR_protein|mol2

> <Gold.PLP.Fitness>
45.8813

> <Gold.PLP.PLP>
-38.3694

> <Gold.PLP.part.hbond>
-3.1339

> <Gold.PLP.part.metal>
0.0000

> <Gold.PLP.part.buried>
-3.0502

> <Gold.PLP.part.nonpolar>
-33.1355

> <Gold.PLP.part.repulsive>
2.3006

> <Gold.PLP.ligand.clash>
0.0000

> <Gold.PLP.ligand.torsion>
0.4118

> <Gold.PLP.Chemscore.Hbond>
2.7768

> <Gold.PLP.Chemscore.CHOScore>
0.0000

> <Gold.PLP.Chemscore.Metal>
0.0000

> <Gold.Chemscore.Hbonds>
donor molecule, donor type, donor heavy atom, donor atom, acceptor molecule, acceptor atom, score
      L1  H    20    21       P1  7948  0.78
      P1  H  7989  7998       L1    19  0.98
      P1  H 10752 10764       L1     3  0.44

> <Gold.PLP.Chemscore.Internal.Correction>
0.0048

> <Gold.Rescore>
     Score         DG    S(hbond)    S(metal)    S(lipo)     H(rot)  DE(clash)    DE(int)     intcor
     16.53     -19.72       1.67        0.00     106.49       1.48       2.77       0.42       ----

> <Gold.Chemscore.Fitness>
16.5259

> <Gold.Chemscore.DG>
-19.7210

> <Gold.Chemscore.ZeroCoef>
-5.4800

> <Gold.Chemscore.Hbond>
1.6677

> <Gold.Chemscore.Metal>
0.0000

> <Gold.Chemscore.Lipo>
106.4949

> <Gold.Chemscore.Internal_Hbond>
0.0000

> <Gold.Chemscore.DEClash>
2.7716

> <Gold.Chemscore.DEInternal>
0.4235

> <Gold.Chemscore.Rot>
1.4801

> <Gold.Chemscore.Internal.Correction>
   9.000000E+99

> <Gold.Chemscore.Hbonds>
donor molecule, donor type, donor heavy atom, donor atom, acceptor molecule, acceptor atom, score
      L1  H    20    21       P1  7948  0.71
      P1  H  7989  7998       L1    19  0.76
      P1  H 10752 10764       L1     3  0.02

> <Gold.Chemscore.Hbond.Weighted>
-5.5703

> <Gold.Chemscore.Metal.Weighted>
-0.0000

> <Gold.Chemscore.Lipo.Weighted>
-12.4599

> <Gold.Chemscore.Internal_Hbond.Weighted>
0.0000

> <Gold.Chemscore.DEClash.Weighted>
2.7716

> <Gold.Chemscore.DEInternal.Weighted>
0.4235

> <Gold.Chemscore.Rot.Weighted>
3.7891

> <Gold.Chemscore.Internal.Correction.Weighted>
   9.000000E+99

> <Gold.Protein.RotatedTorsions>
[ 6907 6896 6895 6894 ] final  143.27 input  -60.11 | X-H torsion
[ 7974 7965 7964 7962 ] final -106.05 input  175.53 | X-H torsion
[ 8008 7997 7996 7995 ] final  -48.80 input   59.86 | X-H torsion
[ 10167 10162 10161 10158 ] final   -6.50 input  -65.29 | X-H torsion
[ 10718 10713 10712 10709 ] final -149.64 input   66.30 | X-H torsion
[ 10763 10752 10751 10750 ] final  -36.46 input  -60.55 | X-H torsion
[ 11005 11000 10999 10996 ] final   69.26 input  -57.11 | X-H torsion

> <Gold.Protein.ActiveResidues>
 VAL166  LYS551  ARG553  GLY616  TRP617  ASP618  TYR619  PRO620  LYS621  CYS622 
 ASP623  PHE694  ASN695  SER759  ASP760  ASP761  ALA762  ILE779  LEU786  VAL792 
 PHE793  MET794  SER795  GLU796  ALA797  LYS798  CYS799  TRP800  GLU811  SER814 

> <Gold.Protein.RotatedAtoms>
  152.2084  133.4893  159.5096 H   0  0  0  0  0  0  0  0  0  0  0  0  # atno 6907 bound_to 6896
  150.6985  134.1499  159.4145 H   0  0  0  0  0  0  0  0  0  0  0  0  # atno 6908 bound_to 6896
  151.9418  135.0210  160.0587 H   0  0  0  0  0  0  0  0  0  0  0  0  # atno 6909 bound_to 6896
  145.2227  140.9140  143.3250 H   0  0  0  0  0  0  0  0  0  0  0  0  # atno 7974 bound_to 7965
  154.4034  140.1312  156.4398 H   0  0  0  0  0  0  0  0  0  0  0  0  # atno 8008 bound_to 7997
  155.7470  140.3489  155.5112 H   0  0  0  0  0  0  0  0  0  0  0  0  # atno 8009 bound_to 7997
  155.8985  140.1015  157.1357 H   0  0  0  0  0  0  0  0  0  0  0  0  # atno 8010 bound_to 7997
  140.6999  143.6187  150.8633 H   0  0  0  0  0  0  0  0  0  0  0  0  # atno 10167 bound_to 10162
  156.4358  130.8097  151.2326 H   0  0  0  0  0  0  0  0  0  0  0  0  # atno 10718 bound_to 10713
  153.8800  135.6822  153.4767 H   0  0  0  0  0  0  0  0  0  0  0  0  # atno 10763 bound_to 10752
  153.1239  135.4727  154.9238 H   0  0  0  0  0  0  0  0  0  0  0  0  # atno 10764 bound_to 10752
  154.7673  135.3228  154.8212 H   0  0  0  0  0  0  0  0  0  0  0  0  # atno 10765 bound_to 10752
  139.9664  134.6974  156.0537 H   0  0  0  0  0  0  0  0  0  0  0  0  # atno 11005 bound_to 11000
  144.9750  139.3841  143.6290 LP  0  0  0  0  0  0  0  0  0  0  0  0  # atno 17320 bound_to 7965
  146.3372  139.8865  142.8816 LP  0  0  0  0  0  0  0  0  0  0  0  0  # atno 17321 bound_to 7965
  139.9909  143.5848  152.2910 LP  0  0  0  0  0  0  0  0  0  0  0  0  # atno 17342 bound_to 10162
  139.6503  144.7660  151.2161 LP  0  0  0  0  0  0  0  0  0  0  0  0  # atno 17343 bound_to 10162
  157.7507  131.0184  150.3624 LP  0  0  0  0  0  0  0  0  0  0  0  0  # atno 17370 bound_to 10713
  156.3971  130.3909  149.6987 LP  0  0  0  0  0  0  0  0  0  0  0  0  # atno 17371 bound_to 10713
  141.1344  133.6578  156.3552 LP  0  0  0  0  0  0  0  0  0  0  0  0  # atno 17394 bound_to 11000
  140.5387  134.6141  157.5373 LP  0  0  0  0  0  0  0  0  0  0  0  0  # atno 17395 bound_to 11000

$$$$
