AV-unprocessed.smi:2999|AV-procd|sdf|11421|dock2
  -GOLD-   2272016343D 1   1.00000     0.00000
 Structure written by MMmdl.
 38 40  0  0  0  0  0  0  0  0  2 V2000
  151.0906  140.7306  156.5406 O   0  0  0  0  0  0  0  0  0  0  0  0
  150.3998  141.7461  156.4586 C   0  0  0  0  0  0  0  0  0  0  0  0
  149.4944  141.9436  155.4899 N   0  0  0  0  0  0  0  0  0  0  0  0
  149.2117  141.0068  154.4073 C   0  0  0  0  0  0  0  0  0  0  0  0
  147.9767  140.1364  154.7027 C   0  0  2  0  0  0  0  0  0  0  0  0
  146.9139  140.2550  153.5895 C   0  0  0  0  0  0  0  0  0  0  0  0
  145.6865  139.4948  153.9268 N   0  3  1  0  0  0  0  0  0  0  0  0
  145.8282  138.0321  153.7370 C   0  0  0  0  0  0  0  0  0  0  0  0
  145.8515  137.6100  152.2866 C   0  0  0  0  0  0  0  0  0  0  0  0
  144.6109  137.3826  153.1213 C   0  0  0  0  0  0  0  0  0  0  0  0
  145.1844  139.8671  155.2705 C   0  0  0  0  0  0  0  0  0  0  0  0
  146.2978  139.7711  156.3295 C   0  0  0  0  0  0  0  0  0  0  0  0
  147.4024  140.5734  155.9310 O   0  0  0  0  0  0  0  0  0  0  0  0
  150.4442  142.7877  157.3046 N   0  0  0  0  0  0  0  0  0  0  0  0
  151.2551  142.9342  158.4571 C   0  0  0  0  0  0  0  0  0  0  0  0
  151.8093  141.8477  158.9979 N   0  0  0  0  0  0  0  0  0  0  0  0
  152.5800  142.1564  160.1225 C   0  0  0  0  0  0  0  0  0  0  0  0
  152.6046  143.4955  160.4240 C   0  0  0  0  0  0  0  0  0  0  0  0
  151.6524  144.4316  159.3039 S   0  0  0  0  0  0  0  0  0  0  0  0
  148.9664  142.8044  155.4978 H   0  0  0  0  0  0  0  0  0  0  0  0
  149.0579  141.5774  153.4911 H   0  0  0  0  0  0  0  0  0  0  0  0
  150.0870  140.3778  154.2362 H   0  0  0  0  0  0  0  0  0  0  0  0
  148.2886  139.0954  154.7991 H   0  0  0  0  0  0  0  0  0  0  0  0
  146.6404  141.3023  153.4542 H   0  0  0  0  0  0  0  0  0  0  0  0
  147.3145  139.9139  152.6341 H   0  0  0  0  0  0  0  0  0  0  0  0
  146.4200  137.4937  154.4746 H   0  0  0  0  0  0  0  0  0  0  0  0
  145.8062  138.3837  151.5221 H   0  0  0  0  0  0  0  0  0  0  0  0
  146.4452  136.7355  152.0281 H   0  0  0  0  0  0  0  0  0  0  0  0
  144.3873  136.3582  153.4121 H   0  0  0  0  0  0  0  0  0  0  0  0
  143.7437  138.0067  152.9128 H   0  0  0  0  0  0  0  0  0  0  0  0
  144.8149  140.8925  155.2268 H   0  0  0  0  0  0  0  0  0  0  0  0
  144.3337  139.2424  155.5453 H   0  0  0  0  0  0  0  0  0  0  0  0
  145.9305  140.1320  157.2902 H   0  0  0  0  0  0  0  0  0  0  0  0
  146.6155  138.7386  156.4818 H   0  0  0  0  0  0  0  0  0  0  0  0
  149.8292  143.5628  157.1047 H   0  0  0  0  0  0  0  0  0  0  0  0
  153.0800  141.3582  160.6507 H   0  0  0  0  0  0  0  0  0  0  0  0
  153.1227  143.9862  161.2344 H   0  0  0  0  0  0  0  0  0  0  0  0
  144.9790  139.7832  153.2658 H   0  0  0  0  0  0  0  0  0  0  0  0
  1  2  2  0  0  0  0
  2  3  1  0  0  0  0
  2 14  1  0  0  0  0
  3  4  1  0  0  0  0
  3 20  1  0  0  0  0
  4  5  1  0  0  0  0
  4 21  1  0  0  0  0
  4 22  1  0  0  0  0
  5 13  1  0  0  0  0
  5  6  1  0  0  0  0
  5 23  1  0  0  0  0
  6  7  1  0  0  0  0
  6 24  1  0  0  0  0
  6 25  1  0  0  0  0
  7  8  1  0  0  0  0
  7 11  1  0  0  0  0
  7 38  1  0  0  0  0
  8 10  1  0  0  0  0
  8  9  1  0  0  0  0
  8 26  1  0  0  0  0
  9 10  1  0  0  0  0
  9 27  1  0  0  0  0
  9 28  1  0  0  0  0
 10 29  1  0  0  0  0
 10 30  1  0  0  0  0
 11 12  1  0  0  0  0
 11 31  1  0  0  0  0
 11 32  1  0  0  0  0
 12 13  1  0  0  0  0
 12 33  1  0  0  0  0
 12 34  1  0  0  0  0
 14 15  1  0  0  0  0
 14 35  1  0  0  0  0
 15 19  1  0  0  0  0
 15 16  2  0  0  0  0
 16 17  1  0  0  0  0
 17 18  2  0  0  0  0
 17 36  1  0  0  0  0
 18 19  1  0  0  0  0
 18 37  1  0  0  0  0
M  CHG  1   7   1
M  END
> <s_m_source_file>
AV-unprocessed.smi

> <i_m_source_file_index>
2999

> <i_lp_mmshare_version>
43012

> <i_f3d_flags>
0

> <s_epik_input>
czFbY0hdW2NIXW5jMVtOSF1DKD1PKVtOSF1bQ0gyXVtDQEBIXTJbQ0gyXU4oW0NIMl1bQ0gyXU8yKVtDSF0zW0NIMl1bQ0gyXTM=

> <s_epik_cmdline>
J2VwaWtfcHl0aG9uJywgJy1waCcsICc3LjAnLCAnLXRuJywgJzgnLCAnLW1hJywgJzIwMCcsICctbWV0YWxfYmluZGluZycsICctaW1hZScsICc8aW5maWxlLm1hZT4nLCAnLW9tYWUnLCAnPG91dGZpbGUubWFlPic=

> <r_lp_tautomer_probability>
0.999

> <r_epik_Ionization_Penalty>
1.55235

> <r_epik_Ionization_Penalty_Charging>
1.55221

> <r_epik_Ionization_Penalty_Neutral>
0.000139685

> <r_epik_State_Penalty>
1.64652

> <r_epik_Charging_Adjusted_Penalty>
3.19873

> <i_epik_Tot_Q>
1

> <i_epik_Tot_abs_Q>
1

> <r_epik_Metal_State_Penalty>
1.68612

> <b_epik_Metal_Only>
0

> <s_lp_Force_Field>
OPLS_2005

> <r_lp_Energy>
21.4475

> <b_lp_Chiralities_Consistent>
1

> <s_lp_Variant>
AV-unprocessed.smi:2999-5

> <Gold.Version>
5.8.1

> <Gold.Id.Protein>
6NUR|6NUR_protein|mol2

> <Gold.PLP.Fitness>
41.8661

> <Gold.PLP.PLP>
-31.8515

> <Gold.PLP.part.hbond>
-3.0000

> <Gold.PLP.part.metal>
0.0000

> <Gold.PLP.part.buried>
-4.7838

> <Gold.PLP.part.nonpolar>
-25.9464

> <Gold.PLP.part.repulsive>
0.2473

> <Gold.PLP.ligand.clash>
0.0000

> <Gold.PLP.ligand.torsion>
1.6204

> <Gold.PLP.Chemscore.Hbond>
3.9920

> <Gold.PLP.Chemscore.CHOScore>
0.0000

> <Gold.PLP.Chemscore.Metal>
0.0000

> <Gold.Chemscore.Hbonds>
donor molecule, donor type, donor heavy atom, donor atom, acceptor molecule, acceptor atom, score
      L1  H     3    20       P1  8028  1.00
      L1  H     7    38       P1 10175  2.00
      L1  H    14    35       P1  8028  0.87

> <Gold.PLP.Chemscore.Internal.Correction>
1.2795

> <Gold.Rescore>
     Score         DG    S(hbond)    S(metal)    S(lipo)     H(rot)  DE(clash)    DE(int)     intcor
     16.56     -19.62       2.97        0.00      70.65       1.58       0.02       3.04       ----

> <Gold.Chemscore.Fitness>
16.5567

> <Gold.Chemscore.DG>
-19.6155

> <Gold.Chemscore.ZeroCoef>
-5.4800

> <Gold.Chemscore.Hbond>
2.9681

> <Gold.Chemscore.Metal>
0.0000

> <Gold.Chemscore.Lipo>
70.6452

> <Gold.Chemscore.Internal_Hbond>
0.0000

> <Gold.Chemscore.DEClash>
0.0203

> <Gold.Chemscore.DEInternal>
3.0385

> <Gold.Chemscore.Rot>
1.5795

> <Gold.Chemscore.Internal.Correction>
   9.000000E+99

> <Gold.Chemscore.Hbonds>
donor molecule, donor type, donor heavy atom, donor atom, acceptor molecule, acceptor atom, score
      L1  H     3    20       P1  8028  0.95
      L1  H     7    38       P1 10175  1.00
      L1  H    14    35       P1  8028  0.78

> <Gold.Chemscore.Hbond.Weighted>
-9.9134

> <Gold.Chemscore.Metal.Weighted>
-0.0000

> <Gold.Chemscore.Lipo.Weighted>
-8.2655

> <Gold.Chemscore.Internal_Hbond.Weighted>
0.0000

> <Gold.Chemscore.DEClash.Weighted>
0.0203

> <Gold.Chemscore.DEInternal.Weighted>
3.0385

> <Gold.Chemscore.Rot.Weighted>
4.0434

> <Gold.Chemscore.Internal.Correction.Weighted>
   9.000000E+99

> <Gold.Protein.RotatedTorsions>
[ 6907 6896 6895 6894 ] final  119.30 input  -60.11 | X-H torsion
[ 7974 7965 7964 7962 ] final  -51.71 input  175.53 | X-H torsion
[ 8008 7997 7996 7995 ] final  157.79 input   59.86 | X-H torsion
[ 10167 10162 10161 10158 ] final  -66.01 input  -65.29 | X-H torsion
[ 10718 10713 10712 10709 ] final  -81.60 input   66.30 | X-H torsion
[ 10763 10752 10751 10750 ] final -123.70 input  -60.55 | X-H torsion
[ 11005 11000 10999 10996 ] final  -54.85 input  -57.11 | X-H torsion

> <Gold.Protein.ActiveResidues>
 VAL166  LYS551  ARG553  GLY616  TRP617  ASP618  TYR619  PRO620  LYS621  CYS622 
 ASP623  PHE694  ASN695  SER759  ASP760  ASP761  ALA762  ILE779  LEU786  VAL792 
 PHE793  MET794  SER795  GLU796  ALA797  LYS798  CYS799  TRP800  GLU811  SER814 

> <Gold.Protein.RotatedAtoms>
  152.4481  133.7576  159.6728 H   0  0  0  0  0  0  0  0  0  0  0  0  # atno 6907 bound_to 6896
  150.8386  133.7962  159.3076 H   0  0  0  0  0  0  0  0  0  0  0  0  # atno 6908 bound_to 6896
  151.5594  135.1068  160.0021 H   0  0  0  0  0  0  0  0  0  0  0  0  # atno 6909 bound_to 6896
  145.9160  140.7874  142.9671 H   0  0  0  0  0  0  0  0  0  0  0  0  # atno 7974 bound_to 7965
  156.2342  140.1876  156.7162 H   0  0  0  0  0  0  0  0  0  0  0  0  # atno 8008 bound_to 7997
  154.6077  140.0626  156.9480 H   0  0  0  0  0  0  0  0  0  0  0  0  # atno 8009 bound_to 7997
  155.2068  140.3297  155.4337 H   0  0  0  0  0  0  0  0  0  0  0  0  # atno 8010 bound_to 7997
  140.5688  143.2316  151.6581 H   0  0  0  0  0  0  0  0  0  0  0  0  # atno 10167 bound_to 10162
  156.0047  130.4608  150.3977 H   0  0  0  0  0  0  0  0  0  0  0  0  # atno 10718 bound_to 10713
  154.8712  135.4089  154.2986 H   0  0  0  0  0  0  0  0  0  0  0  0  # atno 10763 bound_to 10752
  153.3849  135.7013  153.6543 H   0  0  0  0  0  0  0  0  0  0  0  0  # atno 10764 bound_to 10752
  153.5349  135.3660  155.2664 H   0  0  0  0  0  0  0  0  0  0  0  0  # atno 10765 bound_to 10752
  141.1046  133.6614  156.4382 H   0  0  0  0  0  0  0  0  0  0  0  0  # atno 11005 bound_to 11000
  144.6748  140.1901  143.7397 LP  0  0  0  0  0  0  0  0  0  0  0  0  # atno 17320 bound_to 7965
  145.8611  139.2223  143.1716 LP  0  0  0  0  0  0  0  0  0  0  0  0  # atno 17321 bound_to 7965
  139.5106  144.3536  152.0629 LP  0  0  0  0  0  0  0  0  0  0  0  0  # atno 17342 bound_to 10162
  140.2670  144.4005  150.6165 LP  0  0  0  0  0  0  0  0  0  0  0  0  # atno 17343 bound_to 10162
  157.2048  131.0446  151.2631 LP  0  0  0  0  0  0  0  0  0  0  0  0  # atno 17370 bound_to 10713
  157.3943  130.7299  149.6720 LP  0  0  0  0  0  0  0  0  0  0  0  0  # atno 17371 bound_to 10713
  140.4936  134.6552  157.5220 LP  0  0  0  0  0  0  0  0  0  0  0  0  # atno 17394 bound_to 11000
  139.9910  134.6985  155.9689 LP  0  0  0  0  0  0  0  0  0  0  0  0  # atno 17395 bound_to 11000

$$$$
