AV-unprocessed.smi:2253|AV-procd|sdf|9118|dock9
  -GOLD-   2272012323D 1   1.00000     0.00000
 Structure written by MMmdl.
 52 54  0  0  0  0  0  0  0  0  3 V2000
  145.6158  135.1501  151.8679 C   0  0  0  0  0  0  0  0  0  0  0  0
  145.7976  136.1513  152.9412 N   0  3  2  0  0  0  0  0  0  0  0  0
  145.8968  137.5352  152.4132 C   0  0  0  0  0  0  0  0  0  0  0  0
  146.0061  138.5609  153.5574 C   0  0  0  0  0  0  0  0  0  0  0  0
  147.2191  138.2758  154.4762 C   0  0  2  0  0  0  0  0  0  0  0  0
  148.5350  138.5233  153.7895 N   0  3  2  0  0  0  0  0  0  0  0  0
  149.7589  138.2575  154.5998 C   0  0  0  0  0  0  0  0  0  0  0  0
  149.9720  139.3291  155.6852 C   0  0  0  0  0  0  0  0  0  0  0  0
  150.0816  140.7265  155.0516 C   0  0  2  0  0  0  0  0  0  0  0  0
  150.2069  141.7427  156.0929 N   0  0  0  0  0  0  0  0  0  0  0  0
  150.9981  141.6430  157.1719 C   0  0  0  0  0  0  0  0  0  0  0  0
  151.7313  140.6773  157.3792 O   0  0  0  0  0  0  0  0  0  0  0  0
  150.8740  142.7217  157.9650 N   0  0  0  0  0  0  0  0  0  0  0  0
  151.5019  143.0171  159.2083 C   0  0  0  0  0  0  0  0  0  0  0  0
  152.2055  142.0805  160.0057 C   0  0  0  0  0  0  0  0  0  0  0  0
  152.7746  142.5179  161.2186 C   0  0  0  0  0  0  0  0  0  0  0  0
  152.6879  143.7875  161.6674 N   0  0  0  0  0  0  0  0  0  0  0  0
  152.0183  144.6781  160.9059 C   0  0  0  0  0  0  0  0  0  0  0  0
  151.4118  144.3448  159.6782 C   0  0  0  0  0  0  0  0  0  0  0  0
  150.7527  145.2894  158.9641 F   0  0  0  0  0  0  0  0  0  0  0  0
  148.8590  140.9962  154.1528 C   0  0  0  0  0  0  0  0  0  0  0  0
  148.6568  139.8578  153.1324 C   0  0  0  0  0  0  0  0  0  0  0  0
  147.0349  136.8291  154.9973 C   0  0  0  0  0  0  0  0  0  0  0  0
  146.9232  135.8109  153.8469 C   0  0  0  0  0  0  0  0  0  0  0  0
  146.4851  135.1188  151.2095 H   0  0  0  0  0  0  0  0  0  0  0  0
  144.7383  135.3866  151.2650 H   0  0  0  0  0  0  0  0  0  0  0  0
  145.4704  134.1552  152.2900 H   0  0  0  0  0  0  0  0  0  0  0  0
  146.7581  137.6155  151.7480 H   0  0  0  0  0  0  0  0  0  0  0  0
  145.0133  137.7550  151.8123 H   0  0  0  0  0  0  0  0  0  0  0  0
  146.0145  139.5728  153.1578 H   0  0  0  0  0  0  0  0  0  0  0  0
  145.0940  138.5106  154.1542 H   0  0  0  0  0  0  0  0  0  0  0  0
  147.1590  138.9395  155.3384 H   0  0  0  0  0  0  0  0  0  0  0  0
  149.7657  137.2564  155.0256 H   0  0  0  0  0  0  0  0  0  0  0  0
  150.6160  138.2683  153.9248 H   0  0  0  0  0  0  0  0  0  0  0  0
  149.1530  139.3010  156.4050 H   0  0  0  0  0  0  0  0  0  0  0  0
  150.8807  139.1058  156.2455 H   0  0  0  0  0  0  0  0  0  0  0  0
  150.9819  140.7448  154.4337 H   0  0  0  0  0  0  0  0  0  0  0  0
  149.6360  142.5701  155.9975 H   0  0  0  0  0  0  0  0  0  0  0  0
  150.2306  143.4296  157.6421 H   0  0  0  0  0  0  0  0  0  0  0  0
  152.3247  141.0462  159.7267 H   0  0  0  0  0  0  0  0  0  0  0  0
  153.3151  141.8253  161.8468 H   0  0  0  0  0  0  0  0  0  0  0  0
  151.9631  145.6870  161.2869 H   0  0  0  0  0  0  0  0  0  0  0  0
  147.9636  141.1199  154.7624 H   0  0  0  0  0  0  0  0  0  0  0  0
  148.9903  141.9381  153.6188 H   0  0  0  0  0  0  0  0  0  0  0  0
  149.5208  139.8261  152.4669 H   0  0  0  0  0  0  0  0  0  0  0  0
  147.8133  140.0765  152.4821 H   0  0  0  0  0  0  0  0  0  0  0  0
  147.8128  136.5407  155.7023 H   0  0  0  0  0  0  0  0  0  0  0  0
  146.1150  136.7850  155.5826 H   0  0  0  0  0  0  0  0  0  0  0  0
  146.7650  134.8133  154.2587 H   0  0  0  0  0  0  0  0  0  0  0  0
  147.8540  135.7739  153.2790 H   0  0  0  0  0  0  0  0  0  0  0  0
  148.5664  137.8477  153.0394 H   0  0  0  0  0  0  0  0  0  0  0  0
  144.9582  136.1191  153.5031 H   0  0  0  0  0  0  0  0  0  0  0  0
  1  2  1  0  0  0  0
  1 25  1  0  0  0  0
  1 26  1  0  0  0  0
  1 27  1  0  0  0  0
  2 24  1  0  0  0  0
  2  3  1  0  0  0  0
  2 52  1  0  0  0  0
  3  4  1  0  0  0  0
  3 28  1  0  0  0  0
  3 29  1  0  0  0  0
  4  5  1  0  0  0  0
  4 30  1  0  0  0  0
  4 31  1  0  0  0  0
  5  6  1  0  0  0  0
  5 23  1  0  0  0  0
  5 32  1  0  0  0  0
  6 22  1  0  0  0  0
  6  7  1  0  0  0  0
  6 51  1  0  0  0  0
  7  8  1  0  0  0  0
  7 33  1  0  0  0  0
  7 34  1  0  0  0  0
  8  9  1  0  0  0  0
  8 35  1  0  0  0  0
  8 36  1  0  0  0  0
  9 10  1  0  0  0  0
  9 21  1  0  0  0  0
  9 37  1  0  0  0  0
 10 11  1  0  0  0  0
 10 38  1  0  0  0  0
 11 12  2  0  0  0  0
 11 13  1  0  0  0  0
 13 14  1  0  0  0  0
 13 39  1  0  0  0  0
 14 19  1  0  0  0  0
 14 15  2  0  0  0  0
 15 16  1  0  0  0  0
 15 40  1  0  0  0  0
 16 17  2  0  0  0  0
 16 41  1  0  0  0  0
 17 18  1  0  0  0  0
 18 19  2  0  0  0  0
 18 42  1  0  0  0  0
 19 20  1  0  0  0  0
 21 22  1  0  0  0  0
 21 43  1  0  0  0  0
 21 44  1  0  0  0  0
 22 45  1  0  0  0  0
 22 46  1  0  0  0  0
 23 24  1  0  0  0  0
 23 47  1  0  0  0  0
 23 48  1  0  0  0  0
 24 49  1  0  0  0  0
 24 50  1  0  0  0  0
M  CHG  1   2   1
M  CHG  1   6   1
M  END
> <s_m_source_file>
AV-unprocessed.smi

> <i_m_source_file_index>
2253

> <i_lp_mmshare_version>
43012

> <i_f3d_flags>
0

> <s_epik_input>
W0NIM11OMVtDSDJdW0NIMl1bQ0hdKFtDSDJdW0NIMl0xKU4yW0NIMl1bQ0gyXVtDSF0oW0NIMl1bQ0gyXTIpW05IXUMoPU8pW05IXWMzW2NIXVtjSF1uW2NIXWMzRg==

> <s_epik_cmdline>
J2VwaWtfcHl0aG9uJywgJy1waCcsICc3LjAnLCAnLXRuJywgJzgnLCAnLW1hJywgJzIwMCcsICctbWV0YWxfYmluZGluZycsICctaW1hZScsICc8aW5maWxlLm1hZT4nLCAnLW9tYWUnLCAnPG91dGZpbGUubWFlPic=

> <r_epik_Ionization_Penalty>
0.183544

> <r_epik_Ionization_Penalty_Charging>
0.180787

> <r_epik_Ionization_Penalty_Neutral>
0.00275649

> <r_epik_State_Penalty>
0.153592

> <r_epik_Charging_Adjusted_Penalty>
0.334379

> <i_epik_Tot_Q>
2

> <i_epik_Tot_abs_Q>
2

> <r_epik_Metal_State_Penalty>
0.153693

> <b_epik_Metal_Only>
0

> <s_lp_Force_Field>
OPLS_2005

> <r_lp_Energy>
53.0851

> <b_lp_Chiralities_Consistent>
1

> <s_lp_Variant>
AV-unprocessed.smi:2253-4

> <Gold.Version>
5.8.1

> <Gold.Id.Protein>
6NUR|6NUR_protein|mol2

> <Gold.PLP.Fitness>
39.6282

> <Gold.PLP.PLP>
-33.0762

> <Gold.PLP.part.hbond>
-1.6136

> <Gold.PLP.part.metal>
0.0000

> <Gold.PLP.part.buried>
6.3484

> <Gold.PLP.part.nonpolar>
-37.3688

> <Gold.PLP.part.repulsive>
0.2874

> <Gold.PLP.ligand.clash>
0.0000

> <Gold.PLP.ligand.torsion>
0.2605

> <Gold.PLP.Chemscore.Hbond>
2.3413

> <Gold.PLP.Chemscore.CHOScore>
0.0000

> <Gold.PLP.Chemscore.Metal>
0.0000

> <Gold.Chemscore.Hbonds>
donor molecule, donor type, donor heavy atom, donor atom, acceptor molecule, acceptor atom, score
      L1  H     6    51       P1  7948  2.00
      L1  H    10    38       P1  8028  0.32

> <Gold.PLP.Chemscore.Internal.Correction>
0.0494

> <Gold.Rescore>
     Score         DG    S(hbond)    S(metal)    S(lipo)     H(rot)  DE(clash)    DE(int)     intcor
     14.42     -19.17       1.46        0.00     102.98       1.26       2.19       2.56       ----

> <Gold.Chemscore.Fitness>
14.4216

> <Gold.Chemscore.DG>
-19.1744

> <Gold.Chemscore.ZeroCoef>
-5.4800

> <Gold.Chemscore.Hbond>
1.4553

> <Gold.Chemscore.Metal>
0.0000

> <Gold.Chemscore.Lipo>
102.9810

> <Gold.Chemscore.Internal_Hbond>
0.0000

> <Gold.Chemscore.DEClash>
2.1913

> <Gold.Chemscore.DEInternal>
2.5615

> <Gold.Chemscore.Rot>
1.2559

> <Gold.Chemscore.Internal.Correction>
   9.000000E+99

> <Gold.Chemscore.Hbonds>
donor molecule, donor type, donor heavy atom, donor atom, acceptor molecule, acceptor atom, score
      L1  H     6    51       P1  7948  0.94
      L1  H    10    38       P1  8028  0.33

> <Gold.Chemscore.Hbond.Weighted>
-4.8607

> <Gold.Chemscore.Metal.Weighted>
-0.0000

> <Gold.Chemscore.Lipo.Weighted>
-12.0488

> <Gold.Chemscore.Internal_Hbond.Weighted>
0.0000

> <Gold.Chemscore.DEClash.Weighted>
2.1913

> <Gold.Chemscore.DEInternal.Weighted>
2.5615

> <Gold.Chemscore.Rot.Weighted>
3.2151

> <Gold.Chemscore.Internal.Correction.Weighted>
   9.000000E+99

> <Gold.Protein.RotatedTorsions>
[ 6907 6896 6895 6894 ] final -159.91 input  -60.11 | X-H torsion
[ 7974 7965 7964 7962 ] final  153.75 input  175.53 | X-H torsion
[ 8008 7997 7996 7995 ] final    9.18 input   59.86 | X-H torsion
[ 10167 10162 10161 10158 ] final -118.68 input  -65.29 | X-H torsion
[ 10718 10713 10712 10709 ] final  -95.33 input   66.30 | X-H torsion
[ 10763 10752 10751 10750 ] final  -30.96 input  -60.55 | X-H torsion
[ 11005 11000 10999 10996 ] final   96.66 input  -57.11 | X-H torsion

> <Gold.Protein.ActiveResidues>
 VAL166  LYS551  ARG553  GLY616  TRP617  ASP618  TYR619  PRO620  LYS621  CYS622 
 ASP623  PHE694  ASN695  SER759  ASP760  ASP761  ALA762  ILE779  LEU786  VAL792 
 PHE793  MET794  SER795  GLU796  ALA797  LYS798  CYS799  TRP800  GLU811  SER814 

> <Gold.Protein.RotatedAtoms>
  151.3408  133.3963  159.2670 H   0  0  0  0  0  0  0  0  0  0  0  0  # atno 6907 bound_to 6896
  150.9879  134.9221  159.7893 H   0  0  0  0  0  0  0  0  0  0  0  0  # atno 6908 bound_to 6896
  152.5238  134.3373  159.9257 H   0  0  0  0  0  0  0  0  0  0  0  0  # atno 6909 bound_to 6896
  144.8134  139.6842  143.6132 H   0  0  0  0  0  0  0  0  0  0  0  0  # atno 7974 bound_to 7965
  154.7767  140.2811  155.6096 H   0  0  0  0  0  0  0  0  0  0  0  0  # atno 8008 bound_to 7997
  156.2943  140.2631  156.2510 H   0  0  0  0  0  0  0  0  0  0  0  0  # atno 8009 bound_to 7997
  154.9834  140.0374  157.2277 H   0  0  0  0  0  0  0  0  0  0  0  0  # atno 8010 bound_to 7997
  140.0548  143.5025  152.2063 H   0  0  0  0  0  0  0  0  0  0  0  0  # atno 10167 bound_to 10162
  156.0041  130.5105  150.6061 H   0  0  0  0  0  0  0  0  0  0  0  0  # atno 10718 bound_to 10713
  153.7896  135.6899  153.4874 H   0  0  0  0  0  0  0  0  0  0  0  0  # atno 10763 bound_to 10752
  153.1758  135.4525  154.9962 H   0  0  0  0  0  0  0  0  0  0  0  0  # atno 10764 bound_to 10752
  154.8050  135.3353  154.7393 H   0  0  0  0  0  0  0  0  0  0  0  0  # atno 10765 bound_to 10752
  139.8780  134.8962  156.4191 H   0  0  0  0  0  0  0  0  0  0  0  0  # atno 11005 bound_to 11000
  146.2434  139.6049  142.9476 LP  0  0  0  0  0  0  0  0  0  0  0  0  # atno 17320 bound_to 7965
  145.5272  141.0429  143.2403 LP  0  0  0  0  0  0  0  0  0  0  0  0  # atno 17321 bound_to 7965
  139.5930  144.7557  151.3354 LP  0  0  0  0  0  0  0  0  0  0  0  0  # atno 17342 bound_to 10162
  140.7200  143.7163  150.7730 LP  0  0  0  0  0  0  0  0  0  0  0  0  # atno 17343 bound_to 10162
  157.3901  131.0794  151.1401 LP  0  0  0  0  0  0  0  0  0  0  0  0  # atno 17370 bound_to 10713
  157.2095  130.6431  149.5769 LP  0  0  0  0  0  0  0  0  0  0  0  0  # atno 17371 bound_to 10713
  140.9146  133.7687  155.9833 LP  0  0  0  0  0  0  0  0  0  0  0  0  # atno 17394 bound_to 11000
  140.8508  134.2957  157.5276 LP  0  0  0  0  0  0  0  0  0  0  0  0  # atno 17395 bound_to 11000

$$$$
