AV-unprocessed.smi:21|AV-procd|sdf|130|dock6
  -GOLD-   2262015313D 1   1.00000     0.00000
 Structure written by MMmdl.
 62 65  0  0  0  0  0  0  0  0  2 V2000
  149.2269  144.9495  160.8777 C   0  0  0  0  0  0  0  0  0  0  0  0
  149.7882  145.4785  159.6875 O   0  0  0  0  0  0  0  0  0  0  0  0
  150.7019  144.5972  159.0522 C   0  0  2  0  0  0  0  0  0  0  0  0
  150.1064  143.1985  158.9477 C   0  0  0  0  0  0  0  0  0  0  0  0
  151.3244  142.2619  158.8462 C   0  0  1  0  0  0  0  0  0  0  0  0
  151.6448  141.8236  157.4004 C   0  0  0  0  0  0  0  0  0  0  0  0
  151.2301  140.4533  157.0999 N   0  0  0  0  0  0  0  0  0  0  0  0
  150.3347  140.2250  155.9662 C   0  0  0  0  0  0  0  0  0  0  0  0
  151.4870  139.4238  157.9602 C   0  0  0  0  0  0  0  0  0  0  0  0
  150.5444  138.4512  158.0932 N   0  0  0  0  0  0  0  0  0  0  0  0
  150.7298  137.4183  158.9182 C   0  0  0  0  0  0  0  0  0  0  0  0
  151.7765  137.1560  159.6991 N   0  0  0  0  0  0  0  0  0  0  0  0
  152.7347  138.1166  159.5755 C   0  0  0  0  0  0  0  0  0  0  0  0
  152.6764  139.2725  158.7414 C   0  0  0  0  0  0  0  0  0  0  0  0
  153.8529  140.0015  158.8921 N   0  0  0  0  0  0  0  0  0  0  0  0
  154.5582  139.3208  159.7526 C   0  0  0  0  0  0  0  0  0  0  0  0
  153.9633  138.1699  160.2102 N   0  0  0  0  0  0  0  0  0  0  0  0
  154.5225  137.2261  161.1636 C   0  0  0  0  0  0  0  0  0  0  0  0
  154.6483  137.8000  162.5981 C   0  0  2  0  0  0  0  0  0  0  0  0
  155.4915  139.1015  162.6098 C   0  0  0  0  0  0  0  0  0  0  0  0
  156.8485  138.8516  162.3105 O   0  0  0  0  0  0  0  0  0  0  0  0
  155.2199  136.7200  163.5584 C   0  0  1  0  0  0  0  0  0  0  0  0
  154.2930  135.5593  163.8786 C   0  0  0  0  0  0  0  0  0  0  0  0
  155.2581  134.5104  164.4172 C   0  0  0  0  0  0  0  0  0  0  0  0
  156.4707  134.7068  163.7010 O   0  0  0  0  0  0  0  0  0  0  0  0
  156.4315  135.9530  163.0130 C   0  0  0  0  0  0  0  0  0  0  0  0
  152.4692  143.0303  159.3982 N   0  3  2  0  0  0  0  0  0  0  0  0
  153.2741  142.3024  160.4024 C   0  0  0  0  0  0  0  0  0  0  0  0
  151.9675  144.3387  159.8681 C   0  0  0  0  0  0  0  0  0  0  0  0
  150.9584  144.9518  158.0520 H   0  0  0  0  0  0  0  0  0  0  0  0
  151.1385  141.3814  159.4633 H   0  0  0  0  0  0  0  0  0  0  0  0
  148.5605  145.6873  161.3243 H   0  0  0  0  0  0  0  0  0  0  0  0
  150.0012  144.7121  161.6081 H   0  0  0  0  0  0  0  0  0  0  0  0
  148.6435  144.0500  160.6803 H   0  0  0  0  0  0  0  0  0  0  0  0
  149.5580  142.9693  159.8627 H   0  0  0  0  0  0  0  0  0  0  0  0
  149.4021  143.1086  158.1222 H   0  0  0  0  0  0  0  0  0  0  0  0
  151.1510  142.5047  156.7068 H   0  0  0  0  0  0  0  0  0  0  0  0
  152.7054  141.9393  157.1841 H   0  0  0  0  0  0  0  0  0  0  0  0
  150.6916  139.3940  155.3569 H   0  0  0  0  0  0  0  0  0  0  0  0
  150.2732  141.1019  155.3217 H   0  0  0  0  0  0  0  0  0  0  0  0
  149.3258  139.9933  156.3094 H   0  0  0  0  0  0  0  0  0  0  0  0
  149.9262  136.6976  158.9553 H   0  0  0  0  0  0  0  0  0  0  0  0
  155.5396  139.6377  160.0750 H   0  0  0  0  0  0  0  0  0  0  0  0
  153.8807  136.3454  161.1528 H   0  0  0  0  0  0  0  0  0  0  0  0
  155.4981  136.8975  160.8032 H   0  0  0  0  0  0  0  0  0  0  0  0
  153.6397  138.0523  162.9302 H   0  0  0  0  0  0  0  0  0  0  0  0
  155.0881  139.8313  161.9074 H   0  0  0  0  0  0  0  0  0  0  0  0
  155.4867  139.5757  163.5899 H   0  0  0  0  0  0  0  0  0  0  0  0
  157.0443  139.2301  161.4667 H   0  0  0  0  0  0  0  0  0  0  0  0
  155.5088  137.1934  164.4985 H   0  0  0  0  0  0  0  0  0  0  0  0
  153.5176  135.8114  164.6024 H   0  0  0  0  0  0  0  0  0  0  0  0
  153.8105  135.1934  162.9710 H   0  0  0  0  0  0  0  0  0  0  0  0
  155.4498  134.6794  165.4776 H   0  0  0  0  0  0  0  0  0  0  0  0
  154.8823  133.4941  164.2974 H   0  0  0  0  0  0  0  0  0  0  0  0
  156.3132  135.7493  161.9479 H   0  0  0  0  0  0  0  0  0  0  0  0
  157.3658  136.4977  163.1503 H   0  0  0  0  0  0  0  0  0  0  0  0
  152.6723  142.0371  161.2727 H   0  0  0  0  0  0  0  0  0  0  0  0
  154.1106  142.9162  160.7376 H   0  0  0  0  0  0  0  0  0  0  0  0
  153.6813  141.3864  159.9742 H   0  0  0  0  0  0  0  0  0  0  0  0
  152.7175  145.1208  159.7472 H   0  0  0  0  0  0  0  0  0  0  0  0
  151.7125  144.2762  160.9279 H   0  0  0  0  0  0  0  0  0  0  0  0
  153.0758  143.2256  158.6146 H   0  0  0  0  0  0  0  0  0  0  0  0
  1  2  1  0  0  0  0
  1 32  1  0  0  0  0
  1 33  1  0  0  0  0
  1 34  1  0  0  0  0
  2  3  1  0  0  0  0
  3 30  1  0  0  0  0
  3 29  1  0  0  0  0
  3  4  1  0  0  0  0
  4  5  1  0  0  0  0
  4 35  1  0  0  0  0
  4 36  1  0  0  0  0
  5 31  1  0  0  0  0
  5  6  1  0  0  0  0
  5 27  1  0  0  0  0
  6  7  1  0  0  0  0
  6 37  1  0  0  0  0
  6 38  1  0  0  0  0
  7  8  1  0  0  0  0
  7  9  1  0  0  0  0
  8 39  1  0  0  0  0
  8 40  1  0  0  0  0
  8 41  1  0  0  0  0
  9 14  1  0  0  0  0
  9 10  2  0  0  0  0
 10 11  1  0  0  0  0
 11 12  2  0  0  0  0
 11 42  1  0  0  0  0
 12 13  1  0  0  0  0
 13 17  1  0  0  0  0
 13 14  2  0  0  0  0
 14 15  1  0  0  0  0
 15 16  2  0  0  0  0
 16 17  1  0  0  0  0
 16 43  1  0  0  0  0
 17 18  1  0  0  0  0
 18 19  1  0  0  0  0
 18 44  1  0  0  0  0
 18 45  1  0  0  0  0
 19 20  1  0  0  0  0
 19 22  1  0  0  0  0
 19 46  1  0  0  0  0
 20 21  1  0  0  0  0
 20 47  1  0  0  0  0
 20 48  1  0  0  0  0
 21 49  1  0  0  0  0
 22 26  1  0  0  0  0
 22 23  1  0  0  0  0
 22 50  1  0  0  0  0
 23 24  1  0  0  0  0
 23 51  1  0  0  0  0
 23 52  1  0  0  0  0
 24 25  1  0  0  0  0
 24 53  1  0  0  0  0
 24 54  1  0  0  0  0
 25 26  1  0  0  0  0
 26 55  1  0  0  0  0
 26 56  1  0  0  0  0
 27 28  1  0  0  0  0
 27 29  1  0  0  0  0
 27 62  1  0  0  0  0
 28 57  1  0  0  0  0
 28 58  1  0  0  0  0
 28 59  1  0  0  0  0
 29 60  1  0  0  0  0
 29 61  1  0  0  0  0
M  CHG  1  27   1
M  END
> <s_m_source_file>
AV-unprocessed.smi

> <i_m_source_file_index>
21

> <i_lp_mmshare_version>
43012

> <i_f3d_flags>
0

> <s_epik_input>
W0NIM11PW0NASF0xW0NIMl1bQ0BIXShOKFtDSDNdKVtDSDJdMSlbQ0gyXU4oW0NIM10pYyhuW2NIXW4yKWMoYzIzKW5bY0hdbjNbQ0gyXVtDQEhdKFtDSDJdW09IXSlbQ0BASF00W0NIMl1bQ0gyXU9bQ0gyXTQ=

> <s_epik_cmdline>
J2VwaWtfcHl0aG9uJywgJy1waCcsICc3LjAnLCAnLXRuJywgJzgnLCAnLW1hJywgJzIwMCcsICctbWV0YWxfYmluZGluZycsICctaW1hZScsICc8aW5maWxlLm1hZT4nLCAnLW9tYWUnLCAnPG91dGZpbGUubWFlPic=

> <r_lp_tautomer_probability>
1

> <r_epik_Ionization_Penalty>
0.0157465

> <r_epik_Ionization_Penalty_Charging>
0.015354

> <r_epik_Ionization_Penalty_Neutral>
0.000392529

> <r_epik_State_Penalty>
0.0120612

> <r_epik_Charging_Adjusted_Penalty>
0.0274152

> <i_epik_Tot_Q>
1

> <i_epik_Tot_abs_Q>
1

> <r_epik_Metal_State_Penalty>
0.0121253

> <b_epik_Metal_Only>
0

> <s_lp_Force_Field>
OPLS_2005

> <r_lp_Energy>
59.1571

> <b_lp_Chiralities_Consistent>
1

> <s_lp_Variant>
AV-unprocessed.smi:21-10

> <Gold.Version>
5.8.1

> <Gold.Id.Protein>
6NUR|6NUR_protein|mol2

> <Gold.PLP.Fitness>
50.2897

> <Gold.PLP.PLP>
-46.6081

> <Gold.PLP.part.hbond>
-3.0000

> <Gold.PLP.part.metal>
0.0000

> <Gold.PLP.part.buried>
-7.0407

> <Gold.PLP.part.nonpolar>
-37.7101

> <Gold.PLP.part.repulsive>
1.0148

> <Gold.PLP.ligand.clash>
0.0000

> <Gold.PLP.ligand.torsion>
1.4803

> <Gold.PLP.Chemscore.Hbond>
1.9825

> <Gold.PLP.Chemscore.CHOScore>
0.0000

> <Gold.PLP.Chemscore.Metal>
0.0000

> <Gold.Chemscore.Hbonds>
donor molecule, donor type, donor heavy atom, donor atom, acceptor molecule, acceptor atom, score
      P1  H  6896  6909       L1    12  1.00
      P1  H  7997  8008       L1    15  1.00

> <Gold.PLP.Chemscore.Internal.Correction>
0.6947

> <Gold.Rescore>
     Score         DG    S(hbond)    S(metal)    S(lipo)     H(rot)  DE(clash)    DE(int)     intcor
     10.90     -16.23       1.58        0.00     113.98       3.08       1.27       4.06       ----

> <Gold.Chemscore.Fitness>
10.8951

> <Gold.Chemscore.DG>
-16.2280

> <Gold.Chemscore.ZeroCoef>
-5.4800

> <Gold.Chemscore.Hbond>
1.5828

> <Gold.Chemscore.Metal>
0.0000

> <Gold.Chemscore.Lipo>
113.9791

> <Gold.Chemscore.Internal_Hbond>
0.0000

> <Gold.Chemscore.DEClash>
1.2742

> <Gold.Chemscore.DEInternal>
4.0588

> <Gold.Chemscore.Rot>
3.0758

> <Gold.Chemscore.Internal.Correction>
   9.000000E+99

> <Gold.Chemscore.Hbonds>
donor molecule, donor type, donor heavy atom, donor atom, acceptor molecule, acceptor atom, score
      P1  H  6896  6909       L1    12  0.47
      P1  H  7997  8008       L1    15  0.45

> <Gold.Chemscore.Hbond.Weighted>
-5.2866

> <Gold.Chemscore.Metal.Weighted>
-0.0000

> <Gold.Chemscore.Lipo.Weighted>
-13.3356

> <Gold.Chemscore.Internal_Hbond.Weighted>
0.0000

> <Gold.Chemscore.DEClash.Weighted>
1.2742

> <Gold.Chemscore.DEInternal.Weighted>
4.0588

> <Gold.Chemscore.Rot.Weighted>
7.8741

> <Gold.Chemscore.Internal.Correction.Weighted>
   9.000000E+99

> <Gold.Protein.RotatedTorsions>
[ 6907 6896 6895 6894 ] final  128.73 input  -60.11 | X-H torsion
[ 7974 7965 7964 7962 ] final   41.39 input  175.53 | X-H torsion
[ 8008 7997 7996 7995 ] final -105.57 input   59.86 | X-H torsion
[ 10167 10162 10161 10158 ] final  113.69 input  -65.29 | X-H torsion
[ 10718 10713 10712 10709 ] final -128.80 input   66.30 | X-H torsion
[ 10763 10752 10751 10750 ] final   41.77 input  -60.55 | X-H torsion
[ 11005 11000 10999 10996 ] final  164.02 input  -57.11 | X-H torsion

> <Gold.Protein.ActiveResidues>
 VAL166  LYS551  ARG553  GLY616  TRP617  ASP618  TYR619  PRO620  LYS621  CYS622 
 ASP623  PHE694  ASN695  SER759  ASP760  ASP761  ALA762  ILE779  LEU786  VAL792 
 PHE793  MET794  SER795  GLU796  ALA797  LYS798  CYS799  TRP800  GLU811  SER814 

> <Gold.Protein.RotatedAtoms>
  152.3691  133.6395  159.6073 H   0  0  0  0  0  0  0  0  0  0  0  0  # atno 6907 bound_to 6896
  150.7655  133.9299  159.3432 H   0  0  0  0  0  0  0  0  0  0  0  0  # atno 6908 bound_to 6896
  151.7125  135.0911  160.0321 H   0  0  0  0  0  0  0  0  0  0  0  0  # atno 6909 bound_to 6896
  146.0827  139.5421  142.9526 H   0  0  0  0  0  0  0  0  0  0  0  0  # atno 7974 bound_to 7965
  154.9019  140.0412  157.1897 H   0  0  0  0  0  0  0  0  0  0  0  0  # atno 8008 bound_to 7997
  154.8436  140.2918  155.5622 H   0  0  0  0  0  0  0  0  0  0  0  0  # atno 8009 bound_to 7997
  156.2993  140.2478  156.3382 H   0  0  0  0  0  0  0  0  0  0  0  0  # atno 8010 bound_to 7997
  139.6443  144.7125  151.2174 H   0  0  0  0  0  0  0  0  0  0  0  0  # atno 10167 bound_to 10162
  156.1985  130.6842  151.0511 H   0  0  0  0  0  0  0  0  0  0  0  0  # atno 10718 bound_to 10713
  152.9900  135.6152  154.2841 H   0  0  0  0  0  0  0  0  0  0  0  0  # atno 10763 bound_to 10752
  154.2569  135.2783  155.2796 H   0  0  0  0  0  0  0  0  0  0  0  0  # atno 10764 bound_to 10752
  154.5239  135.5807  153.6761 H   0  0  0  0  0  0  0  0  0  0  0  0  # atno 10765 bound_to 10752
  140.2416  134.8046  157.3416 H   0  0  0  0  0  0  0  0  0  0  0  0  # atno 11005 bound_to 11000
  145.6187  141.0326  143.1927 LP  0  0  0  0  0  0  0  0  0  0  0  0  # atno 17320 bound_to 7965
  144.7304  139.7742  143.7349 LP  0  0  0  0  0  0  0  0  0  0  0  0  # atno 17321 bound_to 7965
  140.7507  143.6258  150.8470 LP  0  0  0  0  0  0  0  0  0  0  0  0  # atno 17342 bound_to 10162
  139.9899  143.5858  152.2914 LP  0  0  0  0  0  0  0  0  0  0  0  0  # atno 17343 bound_to 10162
  157.6972  131.0789  150.6933 LP  0  0  0  0  0  0  0  0  0  0  0  0  # atno 17370 bound_to 10713
  156.6990  130.4618  149.5578 LP  0  0  0  0  0  0  0  0  0  0  0  0  # atno 17371 bound_to 10713
  140.1647  134.4684  155.7871 LP  0  0  0  0  0  0  0  0  0  0  0  0  # atno 17394 bound_to 11000
  141.2210  133.6916  156.7605 LP  0  0  0  0  0  0  0  0  0  0  0  0  # atno 17395 bound_to 11000

$$$$
