AV-unprocessed.smi:2944|AV-procd|sdf|11273|dock8
  -GOLD-   2272016163D 1   1.00000     0.00000
 Structure written by MMmdl.
 44 46  0  0  0  0  0  0  0  0  1 V2000
  155.4485  138.0823  158.6495 C   0  0  0  0  0  0  0  0  0  0  0  0
  154.7812  139.3244  158.7835 O   0  0  0  0  0  0  0  0  0  0  0  0
  155.1183  139.9967  159.9861 C   0  0  0  0  0  0  0  0  0  0  0  0
  153.8530  140.6018  160.6104 C   0  0  0  0  0  0  0  0  0  0  0  0
  152.8795  140.9926  159.6016 N   0  0  0  0  0  0  0  0  0  0  0  0
  152.1021  140.1840  158.8392 C   0  0  0  0  0  0  0  0  0  0  0  0
  152.1772  138.4207  159.0012 S   0  0  0  0  0  0  0  0  0  0  0  0
  151.6534  137.9025  157.3323 C   0  0  1  0  0  0  0  0  0  0  0  0
  152.4919  138.6402  156.2775 C   0  0  0  0  0  0  0  0  0  0  0  0
  151.7776  136.3746  157.1299 C   0  0  0  0  0  0  0  0  0  0  0  0
  152.4879  135.7562  157.9257 O   0  0  0  0  0  0  0  0  0  0  0  0
  151.1004  135.7158  156.1503 N   0  0  0  0  0  0  0  0  0  0  0  0
  151.0529  134.2532  156.1329 C   0  0  0  0  0  0  0  0  0  0  0  0
  150.1585  133.9164  154.9461 C   0  0  0  0  0  0  0  0  0  0  0  0
  149.8795  135.2225  154.4039 N   0  0  0  0  0  0  0  0  0  0  0  0
  150.4410  136.2262  155.0823 C   0  0  0  0  0  0  0  0  0  0  0  0
  150.3510  137.4017  154.7309 O   0  0  0  0  0  0  0  0  0  0  0  0
  151.2914  140.8127  157.9852 N   0  0  0  0  0  0  0  0  0  0  0  0
  151.5769  142.1442  158.2073 C   0  0  0  0  0  0  0  0  0  0  0  0
  151.0492  143.3092  157.6059 C   0  0  0  0  0  0  0  0  0  0  0  0
  151.5058  144.5842  157.9999 C   0  0  0  0  0  0  0  0  0  0  0  0
  152.4941  144.7116  158.9974 C   0  0  0  0  0  0  0  0  0  0  0  0
  153.0317  143.5631  159.6097 C   0  0  0  0  0  0  0  0  0  0  0  0
  152.5709  142.2928  159.2139 C   0  0  0  0  0  0  0  0  0  0  0  0
  155.1663  137.6154  157.7059 H   0  0  0  0  0  0  0  0  0  0  0  0
  155.1775  137.4008  159.4567 H   0  0  0  0  0  0  0  0  0  0  0  0
  156.5314  138.2135  158.6501 H   0  0  0  0  0  0  0  0  0  0  0  0
  155.5847  139.3006  160.6852 H   0  0  0  0  0  0  0  0  0  0  0  0
  155.8432  140.7858  159.7815 H   0  0  0  0  0  0  0  0  0  0  0  0
  153.3913  139.8963  161.3015 H   0  0  0  0  0  0  0  0  0  0  0  0
  154.1148  141.4792  161.2024 H   0  0  0  0  0  0  0  0  0  0  0  0
  150.6237  138.2419  157.2548 H   0  0  0  0  0  0  0  0  0  0  0  0
  152.1732  138.3849  155.2662 H   0  0  0  0  0  0  0  0  0  0  0  0
  153.5513  138.3954  156.3647 H   0  0  0  0  0  0  0  0  0  0  0  0
  152.3916  139.7203  156.3874 H   0  0  0  0  0  0  0  0  0  0  0  0
  152.0535  133.8374  155.9993 H   0  0  0  0  0  0  0  0  0  0  0  0
  150.6375  133.8615  157.0634 H   0  0  0  0  0  0  0  0  0  0  0  0
  150.6653  133.2900  154.2114 H   0  0  0  0  0  0  0  0  0  0  0  0
  149.2337  133.4278  155.2555 H   0  0  0  0  0  0  0  0  0  0  0  0
  149.3371  135.3517  153.5619 H   0  0  0  0  0  0  0  0  0  0  0  0
  150.2931  143.2217  156.8399 H   0  0  0  0  0  0  0  0  0  0  0  0
  151.0971  145.4685  157.5335 H   0  0  0  0  0  0  0  0  0  0  0  0
  152.8402  145.6917  159.2921 H   0  0  0  0  0  0  0  0  0  0  0  0
  153.7909  143.6580  160.3715 H   0  0  0  0  0  0  0  0  0  0  0  0
  1  2  1  0  0  0  0
  1 25  1  0  0  0  0
  1 26  1  0  0  0  0
  1 27  1  0  0  0  0
  2  3  1  0  0  0  0
  3  4  1  0  0  0  0
  3 28  1  0  0  0  0
  3 29  1  0  0  0  0
  4  5  1  0  0  0  0
  4 30  1  0  0  0  0
  4 31  1  0  0  0  0
  5 24  1  0  0  0  0
  5  6  1  0  0  0  0
  6  7  1  0  0  0  0
  6 18  2  0  0  0  0
  7  8  1  0  0  0  0
  8  9  1  0  0  0  0
  8 10  1  0  0  0  0
  8 32  1  0  0  0  0
  9 33  1  0  0  0  0
  9 34  1  0  0  0  0
  9 35  1  0  0  0  0
 10 11  2  0  0  0  0
 10 12  1  0  0  0  0
 12 16  1  0  0  0  0
 12 13  1  0  0  0  0
 13 14  1  0  0  0  0
 13 36  1  0  0  0  0
 13 37  1  0  0  0  0
 14 15  1  0  0  0  0
 14 38  1  0  0  0  0
 14 39  1  0  0  0  0
 15 16  1  0  0  0  0
 15 40  1  0  0  0  0
 16 17  2  0  0  0  0
 18 19  1  0  0  0  0
 19 24  2  0  0  0  0
 19 20  1  0  0  0  0
 20 21  2  0  0  0  0
 20 41  1  0  0  0  0
 21 22  1  0  0  0  0
 21 42  1  0  0  0  0
 22 23  2  0  0  0  0
 22 43  1  0  0  0  0
 23 24  1  0  0  0  0
 23 44  1  0  0  0  0
M  END
> <s_m_source_file>
AV-unprocessed.smi

> <i_m_source_file_index>
2944

> <i_lp_mmshare_version>
43012

> <i_f3d_flags>
0

> <s_epik_input>
W2NIXTFbY0hdW2NIXVtjSF1jKGMxMiluKFtDSDJdW0NIMl1PW0NIM10pYyhuMilTW0NASF0oW0NIM10pQyg9TylOM1tDSDJdW0NIMl1bTkhdQzM9Tw==

> <s_epik_cmdline>
J2VwaWtfcHl0aG9uJywgJy1waCcsICc3LjAnLCAnLXRuJywgJzgnLCAnLW1hJywgJzIwMCcsICctbWV0YWxfYmluZGluZycsICctaW1hZScsICc8aW5maWxlLm1hZT4nLCAnLW9tYWUnLCAnPG91dGZpbGUubWFlPic=

> <r_lp_tautomer_probability>
0.9999

> <r_epik_Ionization_Penalty>
0.0250226

> <r_epik_Ionization_Penalty_Charging>
0

> <r_epik_Ionization_Penalty_Neutral>
0.0250226

> <r_epik_State_Penalty>
0.0203222

> <r_epik_Charging_Adjusted_Penalty>
0.0203222

> <i_epik_Tot_Q>
0

> <i_epik_Tot_abs_Q>
0

> <r_epik_Metal_State_Penalty>
0.0194901

> <b_epik_Metal_Only>
0

> <s_lp_Force_Field>
OPLS_2005

> <r_lp_Energy>
41.7508

> <b_lp_Chiralities_Consistent>
1

> <s_lp_Variant>
AV-unprocessed.smi:2944-2

> <Gold.Version>
5.8.1

> <Gold.Id.Protein>
6NUR|6NUR_protein|mol2

> <Gold.PLP.Fitness>
47.6303

> <Gold.PLP.PLP>
-44.2798

> <Gold.PLP.part.hbond>
-3.1793

> <Gold.PLP.part.metal>
0.0000

> <Gold.PLP.part.buried>
-5.2952

> <Gold.PLP.part.nonpolar>
-35.7369

> <Gold.PLP.part.repulsive>
0.2365

> <Gold.PLP.ligand.clash>
0.0000

> <Gold.PLP.ligand.torsion>
1.5419

> <Gold.PLP.Chemscore.Hbond>
2.0749

> <Gold.PLP.Chemscore.CHOScore>
0.0000

> <Gold.PLP.Chemscore.Metal>
0.0000

> <Gold.Chemscore.Hbonds>
donor molecule, donor type, donor heavy atom, donor atom, acceptor molecule, acceptor atom, score
      L1  H    15    40       P1  7948  1.00
      P1  H  6896  6908       L1    11  0.06
      P1  H  7997  8010       L1     2  1.00

> <Gold.PLP.Chemscore.Internal.Correction>
0.2096

> <Gold.Rescore>
     Score         DG    S(hbond)    S(metal)    S(lipo)     H(rot)  DE(clash)    DE(int)     intcor
     11.78     -18.58       1.79        0.00     109.84       2.24       0.05       6.76       ----

> <Gold.Chemscore.Fitness>
11.7819

> <Gold.Chemscore.DG>
-18.5834

> <Gold.Chemscore.ZeroCoef>
-5.4800

> <Gold.Chemscore.Hbond>
1.7890

> <Gold.Chemscore.Metal>
0.0000

> <Gold.Chemscore.Lipo>
109.8416

> <Gold.Chemscore.Internal_Hbond>
0.0000

> <Gold.Chemscore.DEClash>
0.0456

> <Gold.Chemscore.DEInternal>
6.7558

> <Gold.Chemscore.Rot>
2.2357

> <Gold.Chemscore.Internal.Correction>
   9.000000E+99

> <Gold.Chemscore.Hbonds>
donor molecule, donor type, donor heavy atom, donor atom, acceptor molecule, acceptor atom, score
      L1  H    15    40       P1  7948  0.25
      P1  H  6896  6908       L1    11  0.07
      P1  H  7997  8010       L1     2  0.34

> <Gold.Chemscore.Hbond.Weighted>
-5.9753

> <Gold.Chemscore.Metal.Weighted>
-0.0000

> <Gold.Chemscore.Lipo.Weighted>
-12.8515

> <Gold.Chemscore.Internal_Hbond.Weighted>
0.0000

> <Gold.Chemscore.DEClash.Weighted>
0.0456

> <Gold.Chemscore.DEInternal.Weighted>
6.7558

> <Gold.Chemscore.Rot.Weighted>
5.7234

> <Gold.Chemscore.Internal.Correction.Weighted>
   9.000000E+99

> <Gold.Protein.RotatedTorsions>
[ 6907 6896 6895 6894 ] final -101.86 input  -60.11 | X-H torsion
[ 7974 7965 7964 7962 ] final  127.13 input  175.53 | X-H torsion
[ 8008 7997 7996 7995 ] final    4.73 input   59.86 | X-H torsion
[ 10167 10162 10161 10158 ] final   54.38 input  -65.29 | X-H torsion
[ 10718 10713 10712 10709 ] final   46.79 input   66.30 | X-H torsion
[ 10763 10752 10751 10750 ] final -116.98 input  -60.55 | X-H torsion
[ 11005 11000 10999 10996 ] final  151.30 input  -57.11 | X-H torsion

> <Gold.Protein.ActiveResidues>
 VAL166  LYS551  ARG553  GLY616  TRP617  ASP618  TYR619  PRO620  LYS621  CYS622 
 ASP623  PHE694  ASN695  SER759  ASP760  ASP761  ALA762  ILE779  LEU786  VAL792 
 PHE793  MET794  SER795  GLU796  ALA797  LYS798  CYS799  TRP800  GLU811  SER814 

> <Gold.Protein.RotatedAtoms>
  150.7172  134.0670  159.3850 H   0  0  0  0  0  0  0  0  0  0  0  0  # atno 6907 bound_to 6896
  151.8651  135.0508  160.0483 H   0  0  0  0  0  0  0  0  0  0  0  0  # atno 6908 bound_to 6896
  152.2687  133.5326  159.5462 H   0  0  0  0  0  0  0  0  0  0  0  0  # atno 6909 bound_to 6896
  145.0540  139.3859  143.5039 H   0  0  0  0  0  0  0  0  0  0  0  0  # atno 7974 bound_to 7965
  154.7196  140.2709  155.6554 H   0  0  0  0  0  0  0  0  0  0  0  0  # atno 8008 bound_to 7997
  156.2819  140.2737  156.1787 H   0  0  0  0  0  0  0  0  0  0  0  0  # atno 8009 bound_to 7997
  155.0525  140.0371  157.2539 H   0  0  0  0  0  0  0  0  0  0  0  0  # atno 8010 bound_to 7997
  140.2308  144.3689  150.6415 H   0  0  0  0  0  0  0  0  0  0  0  0  # atno 10167 bound_to 10162
  157.4518  130.8143  149.7796 H   0  0  0  0  0  0  0  0  0  0  0  0  # atno 10718 bound_to 10713
  154.8539  135.4326  154.1907 H   0  0  0  0  0  0  0  0  0  0  0  0  # atno 10763 bound_to 10752
  153.2976  135.6966  153.7239 H   0  0  0  0  0  0  0  0  0  0  0  0  # atno 10764 bound_to 10752
  153.6382  135.3473  155.3037 H   0  0  0  0  0  0  0  0  0  0  0  0  # atno 10765 bound_to 10752
  140.1207  134.8865  157.2068 H   0  0  0  0  0  0  0  0  0  0  0  0  # atno 11005 bound_to 11000
  146.3520  140.0205  142.8659 LP  0  0  0  0  0  0  0  0  0  0  0  0  # atno 17320 bound_to 7965
  145.1491  140.9613  143.4443 LP  0  0  0  0  0  0  0  0  0  0  0  0  # atno 17321 bound_to 7965
  140.6187  143.2174  151.6739 LP  0  0  0  0  0  0  0  0  0  0  0  0  # atno 17342 bound_to 10162
  139.5111  144.3521  152.0642 LP  0  0  0  0  0  0  0  0  0  0  0  0  # atno 17343 bound_to 10162
  155.9990  130.3891  150.2679 LP  0  0  0  0  0  0  0  0  0  0  0  0  # atno 17370 bound_to 10713
  157.0851  131.0154  151.3142 LP  0  0  0  0  0  0  0  0  0  0  0  0  # atno 17371 bound_to 10713
  140.2969  134.3176  155.7300 LP  0  0  0  0  0  0  0  0  0  0  0  0  # atno 17394 bound_to 11000
  141.2151  133.7568  156.9584 LP  0  0  0  0  0  0  0  0  0  0  0  0  # atno 17395 bound_to 11000

$$$$
