AV-unprocessed.smi:44|AV-procd|sdf|395|dock7
  -GOLD-   2262016253D 1   1.00000     0.00000
 Structure written by MMmdl.
 29 31  0  0  0  0  0  0  0  0  1 V2000
  151.6445  138.5921  154.5721 O   0  0  0  0  0  0  0  0  0  0  0  0
  151.3213  139.5253  155.3041 C   0  0  0  0  0  0  0  0  0  0  0  0
  150.4369  140.4887  154.9483 N   0  0  0  0  0  0  0  0  0  0  0  0
  150.0600  141.5672  155.7875 C   0  0  0  0  0  0  0  0  0  0  0  0
  150.5135  141.7701  156.9974 N   0  0  0  0  0  0  0  0  0  0  0  0
  151.4183  140.8028  157.3867 C   0  0  0  0  0  0  0  0  0  0  0  0
  151.8568  139.7198  156.6721 C   0  0  0  0  0  0  0  0  0  0  0  0
  152.7675  138.9657  157.4011 N   0  0  0  0  0  0  0  0  0  0  0  0
  152.8395  139.6403  158.5467 C   0  0  0  0  0  0  0  0  0  0  0  0
  152.0724  140.7457  158.6161 N   0  0  0  0  0  0  0  0  0  0  0  0
  151.9653  141.6769  159.7805 C   0  0  1  0  0  0  0  0  0  0  0  0
  153.3231  142.3139  160.1062 C   0  0  0  0  0  0  0  0  0  0  0  0
  153.0881  143.7798  159.7943 C   0  0  0  0  0  0  0  0  0  0  0  0
  151.5786  143.9254  159.9743 C   0  0  1  0  0  0  0  0  0  0  0  0
  150.9879  145.1219  159.2142 C   0  0  0  0  0  0  0  0  0  0  0  0
  149.6027  145.2209  159.4669 O   0  0  0  0  0  0  0  0  0  0  0  0
  151.0895  142.7051  159.4342 O   0  0  0  0  0  0  0  0  0  0  0  0
  150.0261  140.4276  154.0280 H   0  0  0  0  0  0  0  0  0  0  0  0
  151.5642  141.0756  160.5977 H   0  0  0  0  0  0  0  0  0  0  0  0
  151.3455  143.9777  161.0398 H   0  0  0  0  0  0  0  0  0  0  0  0
  149.3352  142.2355  155.3206 H   0  0  0  0  0  0  0  0  0  0  0  0
  153.4732  139.3214  159.3611 H   0  0  0  0  0  0  0  0  0  0  0  0
  153.5293  142.1698  161.1674 H   0  0  0  0  0  0  0  0  0  0  0  0
  154.1368  141.8761  159.5261 H   0  0  0  0  0  0  0  0  0  0  0  0
  153.6572  144.4470  160.4420 H   0  0  0  0  0  0  0  0  0  0  0  0
  153.3718  143.9915  158.7629 H   0  0  0  0  0  0  0  0  0  0  0  0
  151.4493  146.0483  159.5574 H   0  0  0  0  0  0  0  0  0  0  0  0
  151.1764  145.0429  158.1427 H   0  0  0  0  0  0  0  0  0  0  0  0
  149.1424  145.1811  158.6427 H   0  0  0  0  0  0  0  0  0  0  0  0
  1  2  2  0  0  0  0
  2  7  1  0  0  0  0
  2  3  1  0  0  0  0
  3 18  1  0  0  0  0
  3  4  1  0  0  0  0
  4  5  2  0  0  0  0
  4 21  1  0  0  0  0
  5  6  1  0  0  0  0
  6 10  1  0  0  0  0
  6  7  2  0  0  0  0
  7  8  1  0  0  0  0
  8  9  2  0  0  0  0
  9 10  1  0  0  0  0
  9 22  1  0  0  0  0
 10 11  1  0  0  0  0
 11 19  1  0  0  0  0
 11 17  1  0  0  0  0
 11 12  1  0  0  0  0
 12 13  1  0  0  0  0
 12 23  1  0  0  0  0
 12 24  1  0  0  0  0
 13 14  1  0  0  0  0
 13 25  1  0  0  0  0
 13 26  1  0  0  0  0
 14 20  1  0  0  0  0
 14 15  1  0  0  0  0
 14 17  1  0  0  0  0
 15 16  1  0  0  0  0
 15 27  1  0  0  0  0
 15 28  1  0  0  0  0
 16 29  1  0  0  0  0
M  END
> <s_m_source_file>
AV-unprocessed.smi

> <i_m_source_file_index>
44

> <i_lp_mmshare_version>
43012

> <i_f3d_flags>
0

> <s_epik_input>
bjFbY0hdW25IXWMoPU8pYyhjMTIpbltjSF1uMltDQEhdM1tDSDJdW0NIMl1bQ0BIXShPMylbQ0gyXVtPSF0=

> <s_epik_cmdline>
J2VwaWtfcHl0aG9uJywgJy1waCcsICc3LjAnLCAnLXRuJywgJzgnLCAnLW1hJywgJzIwMCcsICctbWV0YWxfYmluZGluZycsICctaW1hZScsICc8aW5maWxlLm1hZT4nLCAnLW9tYWUnLCAnPG91dGZpbGUubWFlPic=

> <r_lp_tautomer_probability>
0.85571

> <r_epik_Ionization_Penalty>
0.00801444

> <r_epik_Ionization_Penalty_Charging>
0.00794574

> <r_epik_Ionization_Penalty_Neutral>
6.87072e-05

> <r_epik_State_Penalty>
0.0826172

> <r_epik_Charging_Adjusted_Penalty>
0.090563

> <i_epik_Tot_Q>
0

> <i_epik_Tot_abs_Q>
0

> <r_epik_Metal_State_Penalty>
0.440697

> <b_epik_Metal_Only>
0

> <s_epik_Chemistry_Notes>
This compound contains an acetal/aminal-like group ( X-CH(R)-Y where X, Y are N, S, or O) that may be acid/base labile, releasing an aldehyde.

> <s_lp_Force_Field>
OPLS_2005

> <r_lp_Energy>
43.2881

> <b_lp_Chiralities_Consistent>
1

> <s_lp_Variant>
AV-unprocessed.smi:44-1

> <Gold.Version>
5.8.1

> <Gold.Id.Protein>
6NUR|6NUR_protein|mol2

> <Gold.PLP.Fitness>
38.1551

> <Gold.PLP.PLP>
-31.8739

> <Gold.PLP.part.hbond>
-2.6803

> <Gold.PLP.part.metal>
0.0000

> <Gold.PLP.part.buried>
-6.0400

> <Gold.PLP.part.nonpolar>
-24.8640

> <Gold.PLP.part.repulsive>
2.0594

> <Gold.PLP.ligand.clash>
0.0000

> <Gold.PLP.ligand.torsion>
0.0199

> <Gold.PLP.Chemscore.Hbond>
1.1024

> <Gold.PLP.Chemscore.CHOScore>
1.0000

> <Gold.PLP.Chemscore.Metal>
0.0000

> <Gold.Chemscore.Hbonds>
donor molecule, donor type, donor heavy atom, donor atom, acceptor molecule, acceptor atom, score
      L1  H    16    29       P1  8029  1.00
      P1  H  7997  8010       L1     8  0.07
      L1  C     4    21       P1  8028  0.97

> <Gold.PLP.Chemscore.Internal.Correction>
0.0139

> <Gold.Rescore>
     Score         DG    S(hbond)    S(metal)    S(lipo)     H(rot)  DE(clash)    DE(int)     intcor
      7.20      -8.80       0.91        0.00      52.10       2.27       0.00       1.60       ----

> <Gold.Chemscore.Fitness>
7.1985

> <Gold.Chemscore.DG>
-8.8006

> <Gold.Chemscore.ZeroCoef>
-5.4800

> <Gold.Chemscore.Hbond>
0.9105

> <Gold.Chemscore.Metal>
0.0000

> <Gold.Chemscore.Lipo>
52.1040

> <Gold.Chemscore.Internal_Hbond>
0.0000

> <Gold.Chemscore.DEClash>
0.0004

> <Gold.Chemscore.DEInternal>
1.6017

> <Gold.Chemscore.Rot>
2.2720

> <Gold.Chemscore.Internal.Correction>
   9.000000E+99

> <Gold.Chemscore.Hbonds>
donor molecule, donor type, donor heavy atom, donor atom, acceptor molecule, acceptor atom, score
      L1  H    16    29       P1  8029  0.89

> <Gold.Chemscore.Hbond.Weighted>
-3.0409

> <Gold.Chemscore.Metal.Weighted>
-0.0000

> <Gold.Chemscore.Lipo.Weighted>
-6.0962

> <Gold.Chemscore.Internal_Hbond.Weighted>
0.0000

> <Gold.Chemscore.DEClash.Weighted>
0.0004

> <Gold.Chemscore.DEInternal.Weighted>
1.6017

> <Gold.Chemscore.Rot.Weighted>
5.8164

> <Gold.Chemscore.Internal.Correction.Weighted>
   9.000000E+99

> <Gold.Protein.RotatedTorsions>
[ 6907 6896 6895 6894 ] final  170.34 input  -60.11 | X-H torsion
[ 7974 7965 7964 7962 ] final  -20.70 input  175.53 | X-H torsion
[ 8008 7997 7996 7995 ] final   33.25 input   59.86 | X-H torsion
[ 10167 10162 10161 10158 ] final    9.12 input  -65.29 | X-H torsion
[ 10718 10713 10712 10709 ] final   70.44 input   66.30 | X-H torsion
[ 10763 10752 10751 10750 ] final   38.95 input  -60.55 | X-H torsion
[ 11005 11000 10999 10996 ] final   76.87 input  -57.11 | X-H torsion

> <Gold.Protein.ActiveResidues>
 VAL166  LYS551  ARG553  GLY616  TRP617  ASP618  TYR619  PRO620  LYS621  CYS622 
 ASP623  PHE694  ASN695  SER759  ASP760  ASP761  ALA762  ILE779  LEU786  VAL792 
 PHE793  MET794  SER795  GLU796  ALA797  LYS798  CYS799  TRP800  GLU811  SER814 

> <Gold.Protein.RotatedAtoms>
  151.8176  133.3390  159.3574 H   0  0  0  0  0  0  0  0  0  0  0  0  # atno 6907 bound_to 6896
  150.7305  134.5604  159.5849 H   0  0  0  0  0  0  0  0  0  0  0  0  # atno 6908 bound_to 6896
  152.3029  134.7590  160.0405 H   0  0  0  0  0  0  0  0  0  0  0  0  # atno 6909 bound_to 6896
  146.1774  140.4238  142.8508 H   0  0  0  0  0  0  0  0  0  0  0  0  # atno 7974 bound_to 7965
  155.1355  140.3261  155.4464 H   0  0  0  0  0  0  0  0  0  0  0  0  # atno 8008 bound_to 7997
  156.2621  140.2003  156.6422 H   0  0  0  0  0  0  0  0  0  0  0  0  # atno 8009 bound_to 7997
  154.6581  140.0550  157.0018 H   0  0  0  0  0  0  0  0  0  0  0  0  # atno 8010 bound_to 7997
  140.6274  143.8070  150.7251 H   0  0  0  0  0  0  0  0  0  0  0  0  # atno 10167 bound_to 10162
  157.6400  130.9477  150.0650 H   0  0  0  0  0  0  0  0  0  0  0  0  # atno 10718 bound_to 10713
  152.9983  135.6234  154.2387 H   0  0  0  0  0  0  0  0  0  0  0  0  # atno 10763 bound_to 10752
  154.2128  135.2799  155.2954 H   0  0  0  0  0  0  0  0  0  0  0  0  # atno 10764 bound_to 10752
  154.5592  135.5710  153.7051 H   0  0  0  0  0  0  0  0  0  0  0  0  # atno 10765 bound_to 10752
  139.9279  134.7637  156.1450 H   0  0  0  0  0  0  0  0  0  0  0  0  # atno 11005 bound_to 11000
  144.8258  140.6626  143.6323 LP  0  0  0  0  0  0  0  0  0  0  0  0  # atno 17320 bound_to 7965
  145.4173  139.1570  143.4093 LP  0  0  0  0  0  0  0  0  0  0  0  0  # atno 17321 bound_to 7965
  140.1674  143.4223  152.2025 LP  0  0  0  0  0  0  0  0  0  0  0  0  # atno 17342 bound_to 10162
  139.5492  144.7324  151.4487 LP  0  0  0  0  0  0  0  0  0  0  0  0  # atno 17343 bound_to 10162
  156.1672  130.3645  149.9216 LP  0  0  0  0  0  0  0  0  0  0  0  0  # atno 17370 bound_to 10713
  156.7200  130.9003  151.3617 LP  0  0  0  0  0  0  0  0  0  0  0  0  # atno 17371 bound_to 10713
  141.0849  133.6738  156.2414 LP  0  0  0  0  0  0  0  0  0  0  0  0  # atno 17394 bound_to 11000
  140.6284  134.5289  157.5556 LP  0  0  0  0  0  0  0  0  0  0  0  0  # atno 17395 bound_to 11000

$$$$
