AV-unprocessed.smi:2308|AV-procd|sdf|9252|dock4
  -GOLD-   2272012473D 1   1.00000     0.00000
 Structure written by MMmdl.
 33 34  0  0  0  0  0  0  0  0  1 V2000
  152.8021  142.3107  161.6394 C   0  0  0  0  0  0  0  0  0  0  0  0
  152.1793  143.3257  160.7036 C   0  0  0  0  0  0  0  0  0  0  0  0
  152.1980  144.7008  161.0092 C   0  0  0  0  0  0  0  0  0  0  0  0
  151.5976  145.5899  160.0997 C   0  0  0  0  0  0  0  0  0  0  0  0
  151.0069  145.0713  158.9313 C   0  0  0  0  0  0  0  0  0  0  0  0
  151.0306  143.6774  158.7000 C   0  0  0  0  0  0  0  0  0  0  0  0
  150.4065  143.2554  157.4957 N   0  0  0  0  0  0  0  0  0  0  0  0
  150.3526  142.0156  156.9778 C   0  0  0  0  0  0  0  0  0  0  0  0
  150.8636  141.0125  157.4774 O   0  0  0  0  0  0  0  0  0  0  0  0
  149.6615  142.0017  155.8263 N   0  0  0  0  0  0  0  0  0  0  0  0
  149.3991  140.8323  154.9837 C   0  0  0  0  0  0  0  0  0  0  0  0
  148.4618  141.2143  153.8333 C   0  0  0  0  0  0  0  0  0  0  0  0
  150.6855  140.0417  154.6610 C   0  0  0  0  0  0  0  0  0  0  0  0
  149.9141  138.7592  154.9826 C   0  0  0  0  0  0  0  0  0  0  0  0
  149.0043  139.6263  155.8576 C   0  0  0  0  0  0  0  0  0  0  0  0
  151.6125  142.8283  159.5833 N   0  0  0  0  0  0  0  0  0  0  0  0
  153.4192  142.7974  162.3953 H   0  0  0  0  0  0  0  0  0  0  0  0
  153.4322  141.6141  161.0854 H   0  0  0  0  0  0  0  0  0  0  0  0
  152.0242  141.7408  162.1478 H   0  0  0  0  0  0  0  0  0  0  0  0
  152.6580  145.0669  161.9155 H   0  0  0  0  0  0  0  0  0  0  0  0
  151.5887  146.6520  160.2948 H   0  0  0  0  0  0  0  0  0  0  0  0
  150.5407  145.7411  158.2232 H   0  0  0  0  0  0  0  0  0  0  0  0
  149.9435  143.9815  156.9698 H   0  0  0  0  0  0  0  0  0  0  0  0
  149.2811  142.8782  155.5006 H   0  0  0  0  0  0  0  0  0  0  0  0
  148.2062  140.3492  153.2212 H   0  0  0  0  0  0  0  0  0  0  0  0
  148.9147  141.9517  153.1704 H   0  0  0  0  0  0  0  0  0  0  0  0
  147.5271  141.6348  154.2053 H   0  0  0  0  0  0  0  0  0  0  0  0
  151.0227  140.1203  153.6269 H   0  0  0  0  0  0  0  0  0  0  0  0
  151.5036  140.2214  155.3618 H   0  0  0  0  0  0  0  0  0  0  0  0
  149.4021  138.3383  154.1158 H   0  0  0  0  0  0  0  0  0  0  0  0
  150.4856  138.0048  155.5239 H   0  0  0  0  0  0  0  0  0  0  0  0
  149.3594  139.6918  156.8883 H   0  0  0  0  0  0  0  0  0  0  0  0
  147.9486  139.3560  155.8170 H   0  0  0  0  0  0  0  0  0  0  0  0
  1  2  1  0  0  0  0
  1 17  1  0  0  0  0
  1 18  1  0  0  0  0
  1 19  1  0  0  0  0
  2 16  1  0  0  0  0
  2  3  2  0  0  0  0
  3  4  1  0  0  0  0
  3 20  1  0  0  0  0
  4  5  2  0  0  0  0
  4 21  1  0  0  0  0
  5  6  1  0  0  0  0
  5 22  1  0  0  0  0
  6  7  1  0  0  0  0
  6 16  2  0  0  0  0
  7  8  1  0  0  0  0
  7 23  1  0  0  0  0
  8  9  2  0  0  0  0
  8 10  1  0  0  0  0
 10 11  1  0  0  0  0
 10 24  1  0  0  0  0
 11 15  1  0  0  0  0
 11 12  1  0  0  0  0
 11 13  1  0  0  0  0
 12 25  1  0  0  0  0
 12 26  1  0  0  0  0
 12 27  1  0  0  0  0
 13 14  1  0  0  0  0
 13 28  1  0  0  0  0
 13 29  1  0  0  0  0
 14 15  1  0  0  0  0
 14 30  1  0  0  0  0
 14 31  1  0  0  0  0
 15 32  1  0  0  0  0
 15 33  1  0  0  0  0
M  END
> <s_m_source_file>
AV-unprocessed.smi

> <i_m_source_file_index>
2308

> <i_lp_mmshare_version>
43012

> <i_f3d_flags>
0

> <s_epik_input>
W0NIM11jMVtjSF1bY0hdW2NIXWMobjEpW05IXUMoPU8pW05IXUMyKFtDSDNdKVtDSDJdW0NIMl1bQ0gyXTI=

> <s_epik_cmdline>
J2VwaWtfcHl0aG9uJywgJy1waCcsICc3LjAnLCAnLXRuJywgJzgnLCAnLW1hJywgJzIwMCcsICctbWV0YWxfYmluZGluZycsICctaW1hZScsICc8aW5maWxlLm1hZT4nLCAnLW9tYWUnLCAnPG91dGZpbGUubWFlPic=

> <r_lp_tautomer_probability>
1

> <r_epik_Ionization_Penalty>
9.50392e-05

> <r_epik_Ionization_Penalty_Charging>
0

> <r_epik_Ionization_Penalty_Neutral>
9.50392e-05

> <r_epik_State_Penalty>
-0

> <r_epik_Charging_Adjusted_Penalty>
0

> <i_epik_Tot_Q>
0

> <i_epik_Tot_abs_Q>
0

> <r_epik_Metal_State_Penalty>
-0

> <b_epik_Metal_Only>
0

> <s_lp_Force_Field>
OPLS_2005

> <r_lp_Energy>
16.4501

> <b_lp_Chiralities_Consistent>
1

> <s_lp_Variant>
AV-unprocessed.smi:2308-1

> <Gold.Version>
5.8.1

> <Gold.Id.Protein>
6NUR|6NUR_protein|mol2

> <Gold.PLP.Fitness>
41.2186

> <Gold.PLP.PLP>
-35.2658

> <Gold.PLP.part.hbond>
-2.0000

> <Gold.PLP.part.metal>
0.0000

> <Gold.PLP.part.buried>
-1.5488

> <Gold.PLP.part.nonpolar>
-31.7531

> <Gold.PLP.part.repulsive>
0.1580

> <Gold.PLP.ligand.clash>
0.0000

> <Gold.PLP.ligand.torsion>
0.1716

> <Gold.PLP.Chemscore.Hbond>
2.0000

> <Gold.PLP.Chemscore.CHOScore>
0.0000

> <Gold.PLP.Chemscore.Metal>
0.0000

> <Gold.Chemscore.Hbonds>
donor molecule, donor type, donor heavy atom, donor atom, acceptor molecule, acceptor atom, score
      L1  H     7    23       P1  8028  1.00
      L1  H    10    24       P1  8028  1.00

> <Gold.PLP.Chemscore.Internal.Correction>
0.2960

> <Gold.Rescore>
     Score         DG    S(hbond)    S(metal)    S(lipo)     H(rot)  DE(clash)    DE(int)     intcor
     14.65     -19.78       1.90        0.00      89.85       1.00       1.28       3.85       ----

> <Gold.Chemscore.Fitness>
14.6542

> <Gold.Chemscore.DG>
-19.7792

> <Gold.Chemscore.ZeroCoef>
-5.4800

> <Gold.Chemscore.Hbond>
1.9003

> <Gold.Chemscore.Metal>
0.0000

> <Gold.Chemscore.Lipo>
89.8468

> <Gold.Chemscore.Internal_Hbond>
0.0000

> <Gold.Chemscore.DEClash>
1.2780

> <Gold.Chemscore.DEInternal>
3.8470

> <Gold.Chemscore.Rot>
1.0000

> <Gold.Chemscore.Internal.Correction>
   9.000000E+99

> <Gold.Chemscore.Hbonds>
donor molecule, donor type, donor heavy atom, donor atom, acceptor molecule, acceptor atom, score
      L1  H     7    23       P1  8028  0.94
      L1  H    10    24       P1  8028  0.98

> <Gold.Chemscore.Hbond.Weighted>
-6.3472

> <Gold.Chemscore.Metal.Weighted>
-0.0000

> <Gold.Chemscore.Lipo.Weighted>
-10.5121

> <Gold.Chemscore.Internal_Hbond.Weighted>
0.0000

> <Gold.Chemscore.DEClash.Weighted>
1.2780

> <Gold.Chemscore.DEInternal.Weighted>
3.8470

> <Gold.Chemscore.Rot.Weighted>
2.5600

> <Gold.Chemscore.Internal.Correction.Weighted>
   9.000000E+99

> <Gold.Protein.RotatedTorsions>
[ 6907 6896 6895 6894 ] final   65.75 input  -60.11 | X-H torsion
[ 7974 7965 7964 7962 ] final -131.34 input  175.53 | X-H torsion
[ 8008 7997 7996 7995 ] final -107.66 input   59.86 | X-H torsion
[ 10167 10162 10161 10158 ] final  146.61 input  -65.29 | X-H torsion
[ 10718 10713 10712 10709 ] final  -76.71 input   66.30 | X-H torsion
[ 10763 10752 10751 10750 ] final   -1.75 input  -60.55 | X-H torsion
[ 11005 11000 10999 10996 ] final   97.92 input  -57.11 | X-H torsion

> <Gold.Protein.ActiveResidues>
 VAL166  LYS551  ARG553  GLY616  TRP617  ASP618  TYR619  PRO620  LYS621  CYS622 
 ASP623  PHE694  ASN695  SER759  ASP760  ASP761  ALA762  ILE779  LEU786  VAL792 
 PHE793  MET794  SER795  GLU796  ALA797  LYS798  CYS799  TRP800  GLU811  SER814 

> <Gold.Protein.RotatedAtoms>
  152.4430  134.5551  159.9877 H   0  0  0  0  0  0  0  0  0  0  0  0  # atno 6907 bound_to 6896
  151.5644  133.3393  159.2985 H   0  0  0  0  0  0  0  0  0  0  0  0  # atno 6908 bound_to 6896
  150.8340  134.7639  159.6941 H   0  0  0  0  0  0  0  0  0  0  0  0  # atno 6909 bound_to 6896
  144.9388  140.7215  143.4860 H   0  0  0  0  0  0  0  0  0  0  0  0  # atno 7974 bound_to 7965
  154.9327  140.0404  157.2056 H   0  0  0  0  0  0  0  0  0  0  0  0  # atno 8008 bound_to 7997
  154.8145  140.2873  155.5808 H   0  0  0  0  0  0  0  0  0  0  0  0  # atno 8009 bound_to 7997
  156.2974  140.2530  156.3040 H   0  0  0  0  0  0  0  0  0  0  0  0  # atno 8010 bound_to 7997
  139.4904  144.5816  151.6859 H   0  0  0  0  0  0  0  0  0  0  0  0  # atno 10167 bound_to 10162
  156.0167  130.4472  150.3235 H   0  0  0  0  0  0  0  0  0  0  0  0  # atno 10718 bound_to 10713
  153.3489  135.6984  153.6805 H   0  0  0  0  0  0  0  0  0  0  0  0  # atno 10763 bound_to 10752
  153.5540  135.3548  155.2772 H   0  0  0  0  0  0  0  0  0  0  0  0  # atno 10764 bound_to 10752
  154.8650  135.4233  154.2720 H   0  0  0  0  0  0  0  0  0  0  0  0  # atno 10765 bound_to 10752
  139.8774  134.9024  156.4379 H   0  0  0  0  0  0  0  0  0  0  0  0  # atno 11005 bound_to 11000
  145.3024  139.1846  143.4682 LP  0  0  0  0  0  0  0  0  0  0  0  0  # atno 17320 bound_to 7965
  146.3277  140.3017  142.8621 LP  0  0  0  0  0  0  0  0  0  0  0  0  # atno 17321 bound_to 7965
  140.5424  144.0558  150.6093 LP  0  0  0  0  0  0  0  0  0  0  0  0  # atno 17342 bound_to 10162
  140.3584  143.2922  152.0410 LP  0  0  0  0  0  0  0  0  0  0  0  0  # atno 17343 bound_to 10162
  157.1334  131.0278  151.2959 LP  0  0  0  0  0  0  0  0  0  0  0  0  # atno 17370 bound_to 10713
  157.4531  130.7610  149.7169 LP  0  0  0  0  0  0  0  0  0  0  0  0  # atno 17371 bound_to 10713
  140.9021  133.7772  155.9692 LP  0  0  0  0  0  0  0  0  0  0  0  0  # atno 17394 bound_to 11000
  140.8640  134.2806  157.5221 LP  0  0  0  0  0  0  0  0  0  0  0  0  # atno 17395 bound_to 11000

$$$$
