AV-unprocessed.smi:1338|AV-procd|sdf|5501|dock3
  -GOLD-   22720 5 83D 1   1.00000     0.00000
 Structure written by MMmdl.
 39 40  0  0  0  0  0  0  0  0  2 V2000
  150.2322  134.4955  155.1976 C   0  0  0  0  0  0  0  0  0  0  0  0
  150.2611  136.0075  155.2655 C   0  0  0  0  0  0  0  0  0  0  0  0
  149.1790  136.6436  155.5077 N   0  0  0  0  0  0  0  0  0  0  0  0
  149.2021  138.0470  155.5769 C   0  0  0  0  0  0  0  0  0  0  0  0
  147.8709  138.7161  155.8731 C   0  0  0  0  0  0  0  0  0  0  0  0
  150.3592  138.7443  155.3879 C   0  0  0  0  0  0  0  0  0  0  0  0
  150.4384  140.2687  155.4595 C   0  0  0  0  0  0  0  0  0  0  0  0
  151.4055  140.8256  156.5055 C   0  0  0  0  0  0  0  0  0  0  0  0
  152.3227  140.1250  156.9328 O   0  0  0  0  0  0  0  0  0  0  0  0
  151.1906  142.0877  156.9085 N   0  0  0  0  0  0  0  0  0  0  0  0
  151.9967  142.8111  157.8862 C   0  0  0  0  0  0  0  0  0  0  0  0
  151.9724  142.0915  159.2512 C   0  0  0  0  0  0  0  0  0  0  0  0
  152.7499  142.8804  160.3172 C   0  0  0  0  0  0  0  0  0  0  0  0
  152.2217  144.3177  160.4430 C   0  0  0  0  0  0  0  0  0  0  0  0
  152.2520  145.0395  159.0865 C   0  0  0  0  0  0  0  0  0  0  0  0
  151.4733  144.2538  158.0189 C   0  0  0  0  0  0  0  0  0  0  0  0
  151.5835  137.9733  155.1053 C   0  0  0  0  0  0  0  0  0  0  0  0
  152.6527  138.5516  154.9153 O   0  0  0  0  0  0  0  0  0  0  0  0
  151.4797  136.6143  155.0616 N   0  5  0  0  0  0  0  0  0  0  0  0
  149.2075  134.1213  155.2016 H   0  0  0  0  0  0  0  0  0  0  0  0
  150.7555  134.0711  156.0547 H   0  0  0  0  0  0  0  0  0  0  0  0
  150.7189  134.1454  154.2866 H   0  0  0  0  0  0  0  0  0  0  0  0
  147.9328  139.3104  156.7845 H   0  0  0  0  0  0  0  0  0  0  0  0
  147.0803  137.9777  156.0109 H   0  0  0  0  0  0  0  0  0  0  0  0
  147.5782  139.3676  155.0498 H   0  0  0  0  0  0  0  0  0  0  0  0
  150.7161  140.6467  154.4753 H   0  0  0  0  0  0  0  0  0  0  0  0
  149.4540  140.6990  155.6450 H   0  0  0  0  0  0  0  0  0  0  0  0
  150.4141  142.5870  156.4997 H   0  0  0  0  0  0  0  0  0  0  0  0
  153.0277  142.8577  157.5297 H   0  0  0  0  0  0  0  0  0  0  0  0
  150.9408  141.9603  159.5809 H   0  0  0  0  0  0  0  0  0  0  0  0
  152.3962  141.0909  159.1581 H   0  0  0  0  0  0  0  0  0  0  0  0
  152.6799  142.3725  161.2794 H   0  0  0  0  0  0  0  0  0  0  0  0
  153.8086  142.9012  160.0551 H   0  0  0  0  0  0  0  0  0  0  0  0
  151.2005  144.3003  160.8259 H   0  0  0  0  0  0  0  0  0  0  0  0
  152.8155  144.8698  161.1719 H   0  0  0  0  0  0  0  0  0  0  0  0
  151.8341  146.0413  159.1890 H   0  0  0  0  0  0  0  0  0  0  0  0
  153.2861  145.1675  158.7640 H   0  0  0  0  0  0  0  0  0  0  0  0
  151.5465  144.7674  157.0594 H   0  0  0  0  0  0  0  0  0  0  0  0
  150.4146  144.2412  158.2824 H   0  0  0  0  0  0  0  0  0  0  0  0
  1  2  1  0  0  0  0
  1 20  1  0  0  0  0
  1 21  1  0  0  0  0
  1 22  1  0  0  0  0
  2 19  1  0  0  0  0
  2  3  2  0  0  0  0
  3  4  1  0  0  0  0
  4  5  1  0  0  0  0
  4  6  2  0  0  0  0
  5 23  1  0  0  0  0
  5 24  1  0  0  0  0
  5 25  1  0  0  0  0
  6  7  1  0  0  0  0
  6 17  1  0  0  0  0
  7  8  1  0  0  0  0
  7 26  1  0  0  0  0
  7 27  1  0  0  0  0
  8  9  2  0  0  0  0
  8 10  1  0  0  0  0
 10 11  1  0  0  0  0
 10 28  1  0  0  0  0
 11 16  1  0  0  0  0
 11 12  1  0  0  0  0
 11 29  1  0  0  0  0
 12 13  1  0  0  0  0
 12 30  1  0  0  0  0
 12 31  1  0  0  0  0
 13 14  1  0  0  0  0
 13 32  1  0  0  0  0
 13 33  1  0  0  0  0
 14 15  1  0  0  0  0
 14 34  1  0  0  0  0
 14 35  1  0  0  0  0
 15 16  1  0  0  0  0
 15 36  1  0  0  0  0
 15 37  1  0  0  0  0
 16 38  1  0  0  0  0
 16 39  1  0  0  0  0
 17 18  2  0  0  0  0
 17 19  1  0  0  0  0
M  CHG  1  19  -1
M  END
> <s_m_source_file>
AV-unprocessed.smi

> <i_m_source_file_index>
1338

> <i_lp_mmshare_version>
43012

> <i_f3d_flags>
0

> <s_epik_input>
W0NIM11jMW5jKFtDSDNdKWMoYyg9TylbbkhdMSlbQ0gyXUMoPU8pW05IXVtDSF0yW0NIMl1bQ0gyXVtDSDJdW0NIMl1bQ0gyXTI=

> <s_epik_cmdline>
J2VwaWtfcHl0aG9uJywgJy1waCcsICc3LjAnLCAnLXRuJywgJzgnLCAnLW1hJywgJzIwMCcsICctbWV0YWxfYmluZGluZycsICctaW1hZScsICc8aW5maWxlLm1hZT4nLCAnLW9tYWUnLCAnPG91dGZpbGUubWFlPic=

> <r_lp_tautomer_probability>
0.839158

> <r_epik_Ionization_Penalty>
6.66811

> <r_epik_Ionization_Penalty_Charging>
7.5907e-08

> <r_epik_Ionization_Penalty_Neutral>
6.66811

> <r_epik_State_Penalty>
4.51402

> <r_epik_Charging_Adjusted_Penalty>
4.51402

> <i_epik_Tot_Q>
-1

> <i_epik_Tot_abs_Q>
1

> <r_epik_Metal_State_Penalty>
0.85041

> <b_epik_Metal_Only>
1

> <s_lp_Force_Field>
OPLS_2005

> <r_lp_Energy>
13.4348

> <b_lp_Chiralities_Consistent>
1

> <s_lp_Variant>
AV-unprocessed.smi:1338-3

> <Gold.Version>
5.8.1

> <Gold.Id.Protein>
6NUR|6NUR_protein|mol2

> <Gold.PLP.Fitness>
44.6735

> <Gold.PLP.PLP>
-36.3216

> <Gold.PLP.part.hbond>
-2.0000

> <Gold.PLP.part.metal>
0.0000

> <Gold.PLP.part.buried>
-4.5568

> <Gold.PLP.part.nonpolar>
-29.5772

> <Gold.PLP.part.repulsive>
0.3656

> <Gold.PLP.ligand.clash>
0.0000

> <Gold.PLP.ligand.torsion>
0.3128

> <Gold.PLP.Chemscore.Hbond>
2.9913

> <Gold.PLP.Chemscore.CHOScore>
0.0000

> <Gold.PLP.Chemscore.Metal>
0.0000

> <Gold.Chemscore.Hbonds>
donor molecule, donor type, donor heavy atom, donor atom, acceptor molecule, acceptor atom, score
      P1  H  7997  8009       L1     9  0.93
      P1  H 10752 10763       L1    19  2.00

> <Gold.PLP.Chemscore.Internal.Correction>
0.0037

> <Gold.Rescore>
     Score         DG    S(hbond)    S(metal)    S(lipo)     H(rot)  DE(clash)    DE(int)     intcor
     15.36     -18.95       1.90        0.00      92.81       1.46       1.36       2.23       ----

> <Gold.Chemscore.Fitness>
15.3598

> <Gold.Chemscore.DG>
-18.9463

> <Gold.Chemscore.ZeroCoef>
-5.4800

> <Gold.Chemscore.Hbond>
1.8990

> <Gold.Chemscore.Metal>
0.0000

> <Gold.Chemscore.Lipo>
92.8128

> <Gold.Chemscore.Internal_Hbond>
0.0000

> <Gold.Chemscore.DEClash>
1.3569

> <Gold.Chemscore.DEInternal>
2.2296

> <Gold.Chemscore.Rot>
1.4591

> <Gold.Chemscore.Internal.Correction>
   9.000000E+99

> <Gold.Chemscore.Hbonds>
donor molecule, donor type, donor heavy atom, donor atom, acceptor molecule, acceptor atom, score
      P1  H  7997  8009       L1     9  0.87
      P1  H 10752 10763       L1    19  0.94

> <Gold.Chemscore.Hbond.Weighted>
-6.3426

> <Gold.Chemscore.Metal.Weighted>
-0.0000

> <Gold.Chemscore.Lipo.Weighted>
-10.8591

> <Gold.Chemscore.Internal_Hbond.Weighted>
0.0000

> <Gold.Chemscore.DEClash.Weighted>
1.3569

> <Gold.Chemscore.DEInternal.Weighted>
2.2296

> <Gold.Chemscore.Rot.Weighted>
3.7353

> <Gold.Chemscore.Internal.Correction.Weighted>
   9.000000E+99

> <Gold.Protein.RotatedTorsions>
[ 6907 6896 6895 6894 ] final   42.57 input  -60.11 | X-H torsion
[ 7974 7965 7964 7962 ] final  145.08 input  175.53 | X-H torsion
[ 8008 7997 7996 7995 ] final -171.69 input   59.86 | X-H torsion
[ 10167 10162 10161 10158 ] final  -99.69 input  -65.29 | X-H torsion
[ 10718 10713 10712 10709 ] final -110.49 input   66.30 | X-H torsion
[ 10763 10752 10751 10750 ] final   49.99 input  -60.55 | X-H torsion
[ 11005 11000 10999 10996 ] final  151.48 input  -57.11 | X-H torsion

> <Gold.Protein.ActiveResidues>
 VAL166  LYS551  ARG553  GLY616  TRP617  ASP618  TYR619  PRO620  LYS621  CYS622 
 ASP623  PHE694  ASN695  SER759  ASP760  ASP761  ALA762  ILE779  LEU786  VAL792 
 PHE793  MET794  SER795  GLU796  ALA797  LYS798  CYS799  TRP800  GLU811  SER814 

> <Gold.Protein.RotatedAtoms>
  152.2095  134.8514  160.0498 H   0  0  0  0  0  0  0  0  0  0  0  0  # atno 6907 bound_to 6896
  151.9338  133.3613  159.3948 H   0  0  0  0  0  0  0  0  0  0  0  0  # atno 6908 bound_to 6896
  150.6973  134.4435  159.5347 H   0  0  0  0  0  0  0  0  0  0  0  0  # atno 6909 bound_to 6896
  144.8782  139.5740  143.5855 H   0  0  0  0  0  0  0  0  0  0  0  0  # atno 7974 bound_to 7965
  155.9349  140.1098  157.1103 H   0  0  0  0  0  0  0  0  0  0  0  0  # atno 8008 bound_to 7997
  154.4078  140.1230  156.4916 H   0  0  0  0  0  0  0  0  0  0  0  0  # atno 8009 bound_to 7997
  155.7034  140.3471  155.4945 H   0  0  0  0  0  0  0  0  0  0  0  0  # atno 8010 bound_to 7997
  140.2598  143.3415  152.0637 H   0  0  0  0  0  0  0  0  0  0  0  0  # atno 10167 bound_to 10162
  156.0594  130.5818  150.8244 H   0  0  0  0  0  0  0  0  0  0  0  0  # atno 10718 bound_to 10713
  152.9785  135.5893  154.4179 H   0  0  0  0  0  0  0  0  0  0  0  0  # atno 10763 bound_to 10752
  154.3807  135.2767  155.2215 H   0  0  0  0  0  0  0  0  0  0  0  0  # atno 10764 bound_to 10752
  154.4130  135.6077  153.6018 H   0  0  0  0  0  0  0  0  0  0  0  0  # atno 10765 bound_to 10752
  140.1223  134.8856  157.2089 H   0  0  0  0  0  0  0  0  0  0  0  0  # atno 11005 bound_to 11000
  146.2977  139.7328  142.9115 LP  0  0  0  0  0  0  0  0  0  0  0  0  # atno 17320 bound_to 7965
  145.4003  141.0384  143.3074 LP  0  0  0  0  0  0  0  0  0  0  0  0  # atno 17321 bound_to 7965
  139.5020  144.6726  151.6205 LP  0  0  0  0  0  0  0  0  0  0  0  0  # atno 17342 bound_to 10162
  140.5975  143.9669  150.6364 LP  0  0  0  0  0  0  0  0  0  0  0  0  # atno 17343 bound_to 10162
  157.5590  131.0945  150.9586 LP  0  0  0  0  0  0  0  0  0  0  0  0  # atno 17370 bound_to 10713
  156.9828  130.5533  149.5297 LP  0  0  0  0  0  0  0  0  0  0  0  0  # atno 17371 bound_to 10713
  140.2949  134.3197  155.7305 LP  0  0  0  0  0  0  0  0  0  0  0  0  # atno 17394 bound_to 11000
  141.2154  133.7557  156.9557 LP  0  0  0  0  0  0  0  0  0  0  0  0  # atno 17395 bound_to 11000

$$$$
