AV-unprocessed.smi:2510|AV-procd|sdf|9881|dock1
  -GOLD-   2272013513D 1   1.00000     0.00000
 Structure written by MMmdl.
 48 49  0  0  0  0  0  0  0  0  1 V2000
  149.9085  137.6608  158.0857 C   0  0  0  0  0  0  0  0  0  0  0  0
  149.5952  138.5744  156.8890 C   0  0  0  0  0  0  0  0  0  0  0  0
  149.4948  137.8526  155.5226 C   0  0  0  0  0  0  0  0  0  0  0  0
  150.8786  137.2599  155.1581 C   0  0  0  0  0  0  0  0  0  0  0  0
  152.0262  138.2793  155.0912 C   0  0  0  0  0  0  0  0  0  0  0  0
  148.2460  136.9253  155.4103 C   0  0  2  0  0  0  0  0  0  0  0  0
  148.4325  135.7887  154.5086 N   0  0  0  0  0  0  0  0  0  0  0  0
  148.1753  134.5109  154.8260 C   0  0  0  0  0  0  0  0  0  0  0  0
  147.6707  134.1644  155.8936 O   0  0  0  0  0  0  0  0  0  0  0  0
  148.5774  133.4609  153.7901 C   0  0  0  0  0  0  0  0  0  0  0  0
  147.5135  133.3169  152.7487 C   0  0  0  0  0  0  0  0  0  0  0  0
  146.7297  132.2522  152.4010 C   0  0  0  0  0  0  0  0  0  0  0  0
  145.8915  132.7555  151.3637 C   0  0  0  0  0  0  0  0  0  0  0  0
  144.8197  132.0295  150.6056 C   0  0  0  0  0  0  0  0  0  0  0  0
  146.1395  134.0262  151.0844 N   0  0  0  0  0  0  0  0  0  0  0  0
  147.1305  134.3571  151.9323 N   0  0  0  0  0  0  0  0  0  0  0  0
  147.4696  138.0716  154.7367 C   0  0  2  0  0  0  0  0  0  0  0  0
  146.4571  137.7803  153.6317 C   0  0  0  0  0  0  0  0  0  0  0  0
  148.8373  138.6743  154.3859 C   0  0  1  0  0  0  0  0  0  0  0  0
  148.9486  140.0761  154.5838 O   0  0  0  0  0  0  0  0  0  0  0  0
  147.9844  140.8189  153.8591 C   0  0  0  0  0  0  0  0  0  0  0  0
  147.5244  135.2871  151.9496 H   0  0  0  0  0  0  0  0  0  0  0  0
  149.8438  138.2199  159.0191 H   0  0  0  0  0  0  0  0  0  0  0  0
  150.9156  137.2491  158.0287 H   0  0  0  0  0  0  0  0  0  0  0  0
  149.2078  136.8288  158.1528 H   0  0  0  0  0  0  0  0  0  0  0  0
  148.6539  139.0789  157.1076 H   0  0  0  0  0  0  0  0  0  0  0  0
  150.3288  139.3791  156.8523 H   0  0  0  0  0  0  0  0  0  0  0  0
  151.1471  136.4490  155.8346 H   0  0  0  0  0  0  0  0  0  0  0  0
  150.8339  136.7949  154.1735 H   0  0  0  0  0  0  0  0  0  0  0  0
  152.9296  137.8101  154.7014 H   0  0  0  0  0  0  0  0  0  0  0  0
  152.2730  138.6813  156.0733 H   0  0  0  0  0  0  0  0  0  0  0  0
  151.7789  139.1134  154.4344 H   0  0  0  0  0  0  0  0  0  0  0  0
  147.8068  136.6497  156.3703 H   0  0  0  0  0  0  0  0  0  0  0  0
  148.8462  135.9814  153.6081 H   0  0  0  0  0  0  0  0  0  0  0  0
  149.5229  133.7443  153.3259 H   0  0  0  0  0  0  0  0  0  0  0  0
  148.7462  132.5076  154.2921 H   0  0  0  0  0  0  0  0  0  0  0  0
  146.7449  131.2620  152.8316 H   0  0  0  0  0  0  0  0  0  0  0  0
  144.5698  131.0838  151.0866 H   0  0  0  0  0  0  0  0  0  0  0  0
  145.1416  131.8099  149.5875 H   0  0  0  0  0  0  0  0  0  0  0  0
  143.9062  132.6219  150.5476 H   0  0  0  0  0  0  0  0  0  0  0  0
  147.0028  138.6727  155.5189 H   0  0  0  0  0  0  0  0  0  0  0  0
  146.9316  137.3411  152.7539 H   0  0  0  0  0  0  0  0  0  0  0  0
  145.9520  138.6898  153.3077 H   0  0  0  0  0  0  0  0  0  0  0  0
  145.6897  137.0868  153.9755 H   0  0  0  0  0  0  0  0  0  0  0  0
  149.1915  138.3585  153.4019 H   0  0  0  0  0  0  0  0  0  0  0  0
  148.1511  141.8842  154.0181 H   0  0  0  0  0  0  0  0  0  0  0  0
  146.9724  140.5870  154.1903 H   0  0  0  0  0  0  0  0  0  0  0  0
  148.0578  140.6237  152.7885 H   0  0  0  0  0  0  0  0  0  0  0  0
  1  2  1  0  0  0  0
  1 23  1  0  0  0  0
  1 24  1  0  0  0  0
  1 25  1  0  0  0  0
  2  3  1  0  0  0  0
  2 26  1  0  0  0  0
  2 27  1  0  0  0  0
  3 19  1  0  0  0  0
  3  4  1  0  0  0  0
  3  6  1  0  0  0  0
  4  5  1  0  0  0  0
  4 28  1  0  0  0  0
  4 29  1  0  0  0  0
  5 30  1  0  0  0  0
  5 31  1  0  0  0  0
  5 32  1  0  0  0  0
  6  7  1  0  0  0  0
  6 17  1  0  0  0  0
  6 33  1  0  0  0  0
  7  8  1  0  0  0  0
  7 34  1  0  0  0  0
  8  9  2  0  0  0  0
  8 10  1  0  0  0  0
 10 35  1  0  0  0  0
 10 36  1  0  0  0  0
 10 11  1  0  0  0  0
 11 16  1  0  0  0  0
 11 12  2  0  0  0  0
 12 13  1  0  0  0  0
 12 37  1  0  0  0  0
 13 14  1  0  0  0  0
 13 15  2  0  0  0  0
 14 38  1  0  0  0  0
 14 39  1  0  0  0  0
 14 40  1  0  0  0  0
 15 16  1  0  0  0  0
 16 22  1  0  0  0  0
 17 18  1  0  0  0  0
 17 19  1  0  0  0  0
 17 41  1  0  0  0  0
 18 42  1  0  0  0  0
 18 43  1  0  0  0  0
 18 44  1  0  0  0  0
 19 20  1  0  0  0  0
 19 45  1  0  0  0  0
 20 21  1  0  0  0  0
 21 46  1  0  0  0  0
 21 47  1  0  0  0  0
 21 48  1  0  0  0  0
M  END
> <s_m_source_file>
AV-unprocessed.smi

> <i_m_source_file_index>
2510

> <i_lp_mmshare_version>
43012

> <i_f3d_flags>
0

> <s_epik_input>
W0NIM11PW0NAQEhdMVtDQEhdKFtDSDNdKVtDQEBIXShDMShbQ0gyXVtDSDNdKVtDSDJdW0NIM10pW05IXUMoPU8pW0NIMl1jMltjSF1jKFtDSDNdKVtuSF1uMg==

> <s_epik_cmdline>
J2VwaWtfcHl0aG9uJywgJy1waCcsICc3LjAnLCAnLXRuJywgJzgnLCAnLW1hJywgJzIwMCcsICctbWV0YWxfYmluZGluZycsICctaW1hZScsICc8aW5maWxlLm1hZT4nLCAnLW9tYWUnLCAnPG91dGZpbGUubWFlPic=

> <r_lp_tautomer_probability>
0.5

> <r_epik_Ionization_Penalty>
0.000134763

> <r_epik_Ionization_Penalty_Charging>
0

> <r_epik_Ionization_Penalty_Neutral>
0.000134763

> <r_epik_State_Penalty>
0.41068

> <r_epik_Charging_Adjusted_Penalty>
0.41068

> <i_epik_Tot_Q>
0

> <i_epik_Tot_abs_Q>
0

> <r_epik_Metal_State_Penalty>
0.410661

> <b_epik_Metal_Only>
0

> <s_lp_Force_Field>
OPLS_2005

> <r_lp_Energy>
24.0531

> <b_lp_Chiralities_Consistent>
1

> <s_lp_Variant>
AV-unprocessed.smi:2510-12

> <Gold.Version>
5.8.1

> <Gold.Id.Protein>
6NUR|6NUR_protein|mol2

> <Gold.PLP.Fitness>
34.6186

> <Gold.PLP.PLP>
-29.8052

> <Gold.PLP.part.hbond>
-2.0000

> <Gold.PLP.part.metal>
0.0000

> <Gold.PLP.part.buried>
-4.1144

> <Gold.PLP.part.nonpolar>
-24.0931

> <Gold.PLP.part.repulsive>
0.3421

> <Gold.PLP.ligand.clash>
0.0000

> <Gold.PLP.ligand.torsion>
0.6754

> <Gold.PLP.Chemscore.Hbond>
1.8640

> <Gold.PLP.Chemscore.CHOScore>
0.0000

> <Gold.PLP.Chemscore.Metal>
0.0000

> <Gold.Chemscore.Hbonds>
donor molecule, donor type, donor heavy atom, donor atom, acceptor molecule, acceptor atom, score
      L1  H     7    34       P1  7948  1.00
      L1  H    16    22       P1  7948  0.90

> <Gold.PLP.Chemscore.Internal.Correction>
0.5723

> <Gold.Rescore>
     Score         DG    S(hbond)    S(metal)    S(lipo)     H(rot)  DE(clash)    DE(int)     intcor
     15.34     -16.03       1.75        0.00      79.85       1.81       0.03       0.66       ----

> <Gold.Chemscore.Fitness>
15.3434

> <Gold.Chemscore.DG>
-16.0279

> <Gold.Chemscore.ZeroCoef>
-5.4800

> <Gold.Chemscore.Hbond>
1.7485

> <Gold.Chemscore.Metal>
0.0000

> <Gold.Chemscore.Lipo>
79.8452

> <Gold.Chemscore.Internal_Hbond>
0.0000

> <Gold.Chemscore.DEClash>
0.0254

> <Gold.Chemscore.DEInternal>
0.6591

> <Gold.Chemscore.Rot>
1.8102

> <Gold.Chemscore.Internal.Correction>
   9.000000E+99

> <Gold.Chemscore.Hbonds>
donor molecule, donor type, donor heavy atom, donor atom, acceptor molecule, acceptor atom, score
      L1  H     7    34       P1  7948  0.98
      L1  H    16    22       P1  7948  0.86

> <Gold.Chemscore.Hbond.Weighted>
-5.8401

> <Gold.Chemscore.Metal.Weighted>
-0.0000

> <Gold.Chemscore.Lipo.Weighted>
-9.3419

> <Gold.Chemscore.Internal_Hbond.Weighted>
0.0000

> <Gold.Chemscore.DEClash.Weighted>
0.0254

> <Gold.Chemscore.DEInternal.Weighted>
0.6591

> <Gold.Chemscore.Rot.Weighted>
4.6341

> <Gold.Chemscore.Internal.Correction.Weighted>
   9.000000E+99

> <Gold.Protein.RotatedTorsions>
[ 6907 6896 6895 6894 ] final    5.48 input  -60.11 | X-H torsion
[ 7974 7965 7964 7962 ] final -125.88 input  175.53 | X-H torsion
[ 8008 7997 7996 7995 ] final -110.38 input   59.86 | X-H torsion
[ 10167 10162 10161 10158 ] final   41.38 input  -65.29 | X-H torsion
[ 10718 10713 10712 10709 ] final   77.43 input   66.30 | X-H torsion
[ 10763 10752 10751 10750 ] final  -13.71 input  -60.55 | X-H torsion
[ 11005 11000 10999 10996 ] final   -3.18 input  -57.11 | X-H torsion

> <Gold.Protein.ActiveResidues>
 VAL166  LYS551  ARG553  GLY616  TRP617  ASP618  TYR619  PRO620  LYS621  CYS622 
 ASP623  PHE694  ASN695  SER759  ASP760  ASP761  ALA762  ILE779  LEU786  VAL792 
 PHE793  MET794  SER795  GLU796  ALA797  LYS798  CYS799  TRP800  GLU811  SER814 

> <Gold.Protein.RotatedAtoms>
  151.6582  135.0993  160.0174 H   0  0  0  0  0  0  0  0  0  0  0  0  # atno 6907 bound_to 6896
  152.3962  133.6746  159.6286 H   0  0  0  0  0  0  0  0  0  0  0  0  # atno 6908 bound_to 6896
  150.7869  133.8787  159.3320 H   0  0  0  0  0  0  0  0  0  0  0  0  # atno 6909 bound_to 6896
  144.9930  140.7749  143.4543 H   0  0  0  0  0  0  0  0  0  0  0  0  # atno 7974 bound_to 7965
  154.9736  140.0397  157.2245 H   0  0  0  0  0  0  0  0  0  0  0  0  # atno 8008 bound_to 7997
  154.7778  140.2813  155.6064 H   0  0  0  0  0  0  0  0  0  0  0  0  # atno 8009 bound_to 7997
  156.2931  140.2597  156.2597 H   0  0  0  0  0  0  0  0  0  0  0  0  # atno 8010 bound_to 7997
  140.3649  144.2181  150.6136 H   0  0  0  0  0  0  0  0  0  0  0  0  # atno 10167 bound_to 10162
  157.6710  130.9821  150.1640 H   0  0  0  0  0  0  0  0  0  0  0  0  # atno 10718 bound_to 10713
  153.5174  135.7016  153.5749 H   0  0  0  0  0  0  0  0  0  0  0  0  # atno 10763 bound_to 10752
  153.3813  135.3919  155.1858 H   0  0  0  0  0  0  0  0  0  0  0  0  # atno 10764 bound_to 10752
  154.8698  135.3836  154.4660 H   0  0  0  0  0  0  0  0  0  0  0  0  # atno 10765 bound_to 10752
  140.6665  133.9274  155.8468 H   0  0  0  0  0  0  0  0  0  0  0  0  # atno 11005 bound_to 11000
  145.2260  139.2137  143.5068 LP  0  0  0  0  0  0  0  0  0  0  0  0  # atno 17320 bound_to 7965
  146.3435  140.2127  142.8590 LP  0  0  0  0  0  0  0  0  0  0  0  0  # atno 17321 bound_to 7965
  140.5091  143.2296  151.8563 LP  0  0  0  0  0  0  0  0  0  0  0  0  # atno 17342 bound_to 10162
  139.4810  144.4971  151.9109 LP  0  0  0  0  0  0  0  0  0  0  0  0  # atno 17343 bound_to 10162
  156.2410  130.3691  149.8337 LP  0  0  0  0  0  0  0  0  0  0  0  0  # atno 17370 bound_to 10713
  156.6137  130.8597  151.3460 LP  0  0  0  0  0  0  0  0  0  0  0  0  # atno 17371 bound_to 10713
  141.0425  134.0601  157.3884 LP  0  0  0  0  0  0  0  0  0  0  0  0  # atno 17394 bound_to 11000
  139.8995  135.0159  156.7200 LP  0  0  0  0  0  0  0  0  0  0  0  0  # atno 17395 bound_to 11000

$$$$
