AV-unprocessed.smi:1093|AV-procd|sdf|4742|dock5
  -GOLD-   22720 3273D 1   1.00000     0.00000
 Structure written by MMmdl.
 47 48  0  0  0  0  0  0  0  0  2 V2000
  145.5426  132.8631  150.8532 C   0  0  0  0  0  0  0  0  0  0  0  0
  144.2185  133.3434  150.2411 C   0  0  0  0  0  0  0  0  0  0  0  0
  143.5259  134.3451  151.0911 N   0  3  1  0  0  0  0  0  0  0  0  0
  142.9918  133.7419  152.3403 C   0  0  0  0  0  0  0  0  0  0  0  0
  142.1647  134.7600  153.1418 C   0  0  0  0  0  0  0  0  0  0  0  0
  142.9886  136.0146  153.4549 C   0  0  0  0  0  0  0  0  0  0  0  0
  143.5562  136.6097  152.1539 C   0  0  1  0  0  0  0  0  0  0  0  0
  144.4107  137.7591  152.4369 N   0  0  0  0  0  0  0  0  0  0  0  0
  145.5951  137.7052  153.0628 C   0  0  0  0  0  0  0  0  0  0  0  0
  146.0970  136.6597  153.4745 O   0  0  0  0  0  0  0  0  0  0  0  0
  146.1324  138.9303  153.1907 N   0  0  0  0  0  0  0  0  0  0  0  0
  147.3750  139.2910  153.7766 C   0  0  0  0  0  0  0  0  0  0  0  0
  147.6700  140.6625  153.9121 C   0  0  0  0  0  0  0  0  0  0  0  0
  148.9020  141.0486  154.4725 C   0  0  0  0  0  0  0  0  0  0  0  0
  149.8083  140.0449  154.8719 C   0  0  0  0  0  0  0  0  0  0  0  0
  151.0376  140.4175  155.4332 N   0  0  0  0  0  0  0  0  0  0  0  0
  150.9033  141.4310  156.4688 C   0  0  0  0  0  0  0  0  0  0  0  0
  151.8815  139.2788  155.7628 C   0  0  0  0  0  0  0  0  0  0  0  0
  149.5423  138.7248  154.7310 N   0  0  0  0  0  0  0  0  0  0  0  0
  148.3577  138.3609  154.1949 C   0  0  0  0  0  0  0  0  0  0  0  0
  144.3562  135.5459  151.3779 C   0  0  0  0  0  0  0  0  0  0  0  0
  146.0658  132.2029  150.1611 H   0  0  0  0  0  0  0  0  0  0  0  0
  145.3910  132.3044  151.7762 H   0  0  0  0  0  0  0  0  0  0  0  0
  146.2038  133.7021  151.0712 H   0  0  0  0  0  0  0  0  0  0  0  0
  144.4464  133.7915  149.2730 H   0  0  0  0  0  0  0  0  0  0  0  0
  143.5569  132.4995  150.0409 H   0  0  0  0  0  0  0  0  0  0  0  0
  142.3617  132.8856  152.0969 H   0  0  0  0  0  0  0  0  0  0  0  0
  143.8176  133.3662  152.9468 H   0  0  0  0  0  0  0  0  0  0  0  0
  141.2755  135.0381  152.5743 H   0  0  0  0  0  0  0  0  0  0  0  0
  141.8113  134.3063  154.0683 H   0  0  0  0  0  0  0  0  0  0  0  0
  142.3663  136.7458  153.9724 H   0  0  0  0  0  0  0  0  0  0  0  0
  143.8018  135.7584  154.1358 H   0  0  0  0  0  0  0  0  0  0  0  0
  142.7272  136.9355  151.5220 H   0  0  0  0  0  0  0  0  0  0  0  0
  144.0756  138.6629  152.1365 H   0  0  0  0  0  0  0  0  0  0  0  0
  145.5603  139.7022  152.8812 H   0  0  0  0  0  0  0  0  0  0  0  0
  146.9609  141.4132  153.5946 H   0  0  0  0  0  0  0  0  0  0  0  0
  149.1452  142.0943  154.5914 H   0  0  0  0  0  0  0  0  0  0  0  0
  150.2723  142.2531  156.1282 H   0  0  0  0  0  0  0  0  0  0  0  0
  151.8811  141.8404  156.7241 H   0  0  0  0  0  0  0  0  0  0  0  0
  150.4631  141.0089  157.3731 H   0  0  0  0  0  0  0  0  0  0  0  0
  151.9340  138.5793  154.9275 H   0  0  0  0  0  0  0  0  0  0  0  0
  151.4980  138.7477  156.6348 H   0  0  0  0  0  0  0  0  0  0  0  0
  152.8950  139.6133  155.9857 H   0  0  0  0  0  0  0  0  0  0  0  0
  148.2202  137.2965  154.0861 H   0  0  0  0  0  0  0  0  0  0  0  0
  145.2402  135.2478  151.9444 H   0  0  0  0  0  0  0  0  0  0  0  0
  144.7125  135.9848  150.4463 H   0  0  0  0  0  0  0  0  0  0  0  0
  142.7230  134.6600  150.5652 H   0  0  0  0  0  0  0  0  0  0  0  0
  1  2  1  0  0  0  0
  1 22  1  0  0  0  0
  1 23  1  0  0  0  0
  1 24  1  0  0  0  0
  2  3  1  0  0  0  0
  2 25  1  0  0  0  0
  2 26  1  0  0  0  0
  3 21  1  0  0  0  0
  3  4  1  0  0  0  0
  3 47  1  0  0  0  0
  4  5  1  0  0  0  0
  4 27  1  0  0  0  0
  4 28  1  0  0  0  0
  5  6  1  0  0  0  0
  5 29  1  0  0  0  0
  5 30  1  0  0  0  0
  6  7  1  0  0  0  0
  6 31  1  0  0  0  0
  6 32  1  0  0  0  0
  7  8  1  0  0  0  0
  7 21  1  0  0  0  0
  7 33  1  0  0  0  0
  8  9  1  0  0  0  0
  8 34  1  0  0  0  0
  9 10  2  0  0  0  0
  9 11  1  0  0  0  0
 11 12  1  0  0  0  0
 11 35  1  0  0  0  0
 12 20  1  0  0  0  0
 12 13  2  0  0  0  0
 13 14  1  0  0  0  0
 13 36  1  0  0  0  0
 14 15  2  0  0  0  0
 14 37  1  0  0  0  0
 15 16  1  0  0  0  0
 15 19  1  0  0  0  0
 16 17  1  0  0  0  0
 16 18  1  0  0  0  0
 17 38  1  0  0  0  0
 17 39  1  0  0  0  0
 17 40  1  0  0  0  0
 18 41  1  0  0  0  0
 18 42  1  0  0  0  0
 18 43  1  0  0  0  0
 19 20  2  0  0  0  0
 20 44  1  0  0  0  0
 21 45  1  0  0  0  0
 21 46  1  0  0  0  0
M  CHG  1   3   1
M  END
> <s_m_source_file>
AV-unprocessed.smi

> <i_m_source_file_index>
1093

> <i_lp_mmshare_version>
43012

> <i_f3d_flags>
0

> <s_epik_input>
W0NIM11bQ0gyXU4xW0NIMl1bQ0gyXVtDSDJdW0NASF0oW0NIMl0xKVtOSF1DKD1PKVtOSF1jMltjSF1bY0hdYyhOKFtDSDNdKVtDSDNdKW5bY0hdMg==

> <s_epik_cmdline>
J2VwaWtfcHl0aG9uJywgJy1waCcsICc3LjAnLCAnLXRuJywgJzgnLCAnLW1hJywgJzIwMCcsICctbWV0YWxfYmluZGluZycsICctaW1hZScsICc8aW5maWxlLm1hZT4nLCAnLW9tYWUnLCAnPG91dGZpbGUubWFlPic=

> <r_lp_tautomer_probability>
1

> <r_epik_Ionization_Penalty>
0.489418

> <r_epik_Ionization_Penalty_Charging>
0.00268196

> <r_epik_Ionization_Penalty_Neutral>
0.486736

> <r_epik_State_Penalty>
0.491157

> <r_epik_Charging_Adjusted_Penalty>
0.493839

> <i_epik_Tot_Q>
1

> <i_epik_Tot_abs_Q>
1

> <r_epik_Metal_State_Penalty>
0.266953

> <b_epik_Metal_Only>
0

> <s_lp_Force_Field>
OPLS_2005

> <r_lp_Energy>
24.8298

> <b_lp_Chiralities_Consistent>
1

> <s_lp_Variant>
AV-unprocessed.smi:1093-5

> <Gold.Version>
5.8.1

> <Gold.Id.Protein>
6NUR|6NUR_protein|mol2

> <Gold.PLP.Fitness>
53.2678

> <Gold.PLP.PLP>
-38.1138

> <Gold.PLP.part.hbond>
-5.0000

> <Gold.PLP.part.metal>
0.0000

> <Gold.PLP.part.buried>
-3.6969

> <Gold.PLP.part.nonpolar>
-31.0655

> <Gold.PLP.part.repulsive>
0.3699

> <Gold.PLP.ligand.clash>
0.0000

> <Gold.PLP.ligand.torsion>
0.2259

> <Gold.PLP.Chemscore.Hbond>
4.3327

> <Gold.PLP.Chemscore.CHOScore>
0.7976

> <Gold.PLP.Chemscore.Metal>
0.0000

> <Gold.Chemscore.Hbonds>
donor molecule, donor type, donor heavy atom, donor atom, acceptor molecule, acceptor atom, score
      L1  H     3    47       P1 10186  1.90
      L1  H     8    34       P1 10175  1.00
      L1  H    11    35       P1 10175  0.90
      P1  H  7989  7998       L1    16  0.31
      L1  C    20    44       P1  7948  0.67

> <Gold.PLP.Chemscore.Internal.Correction>
0.2148

> <Gold.Rescore>
     Score         DG    S(hbond)    S(metal)    S(lipo)     H(rot)  DE(clash)    DE(int)     intcor
     16.77     -19.65       2.49        0.00      79.97       1.37       0.50       2.38       ----

> <Gold.Chemscore.Fitness>
16.7706

> <Gold.Chemscore.DG>
-19.6476

> <Gold.Chemscore.ZeroCoef>
-5.4800

> <Gold.Chemscore.Hbond>
2.4908

> <Gold.Chemscore.Metal>
0.0000

> <Gold.Chemscore.Lipo>
79.9696

> <Gold.Chemscore.Internal_Hbond>
0.0000

> <Gold.Chemscore.DEClash>
0.4954

> <Gold.Chemscore.DEInternal>
2.3816

> <Gold.Chemscore.Rot>
1.3704

> <Gold.Chemscore.Internal.Correction>
   9.000000E+99

> <Gold.Chemscore.Hbonds>
donor molecule, donor type, donor heavy atom, donor atom, acceptor molecule, acceptor atom, score
      L1  H     3    47       P1 10186  0.21
      L1  H     8    34       P1 10175  0.97
      L1  H    11    35       P1 10175  0.81

> <Gold.Chemscore.Hbond.Weighted>
-8.3194

> <Gold.Chemscore.Metal.Weighted>
-0.0000

> <Gold.Chemscore.Lipo.Weighted>
-9.3564

> <Gold.Chemscore.Internal_Hbond.Weighted>
0.0000

> <Gold.Chemscore.DEClash.Weighted>
0.4954

> <Gold.Chemscore.DEInternal.Weighted>
2.3816

> <Gold.Chemscore.Rot.Weighted>
3.5082

> <Gold.Chemscore.Internal.Correction.Weighted>
   9.000000E+99

> <Gold.Protein.RotatedTorsions>
[ 6907 6896 6895 6894 ] final   17.94 input  -60.11 | X-H torsion
[ 7974 7965 7964 7962 ] final   58.93 input  175.53 | X-H torsion
[ 8008 7997 7996 7995 ] final   71.31 input   59.86 | X-H torsion
[ 10167 10162 10161 10158 ] final   94.19 input  -65.29 | X-H torsion
[ 10718 10713 10712 10709 ] final  -95.85 input   66.30 | X-H torsion
[ 10763 10752 10751 10750 ] final -177.04 input  -60.55 | X-H torsion
[ 11005 11000 10999 10996 ] final -106.51 input  -57.11 | X-H torsion

> <Gold.Protein.ActiveResidues>
 VAL166  LYS551  ARG553  GLY616  TRP617  ASP618  TYR619  PRO620  LYS621  CYS622 
 ASP623  PHE694  ASN695  SER759  ASP760  ASP761  ALA762  ILE779  LEU786  VAL792 
 PHE793  MET794  SER795  GLU796  ALA797  LYS798  CYS799  TRP800  GLU811  SER814 

> <Gold.Protein.RotatedAtoms>
  151.8575  135.0536  160.0465 H   0  0  0  0  0  0  0  0  0  0  0  0  # atno 6907 bound_to 6896
  152.2688  133.5359  159.5435 H   0  0  0  0  0  0  0  0  0  0  0  0  # atno 6908 bound_to 6896
  150.7144  134.0643  159.3884 H   0  0  0  0  0  0  0  0  0  0  0  0  # atno 6909 bound_to 6896
  145.9128  139.3667  143.0525 H   0  0  0  0  0  0  0  0  0  0  0  0  # atno 7974 bound_to 7965
  155.7519  140.3488  155.5155 H   0  0  0  0  0  0  0  0  0  0  0  0  # atno 8008 bound_to 7997
  155.8996  140.1032  157.1381 H   0  0  0  0  0  0  0  0  0  0  0  0  # atno 8009 bound_to 7997
  154.4042  140.1288  156.4406 H   0  0  0  0  0  0  0  0  0  0  0  0  # atno 8010 bound_to 7997
  139.8107  144.6774  150.9644 H   0  0  0  0  0  0  0  0  0  0  0  0  # atno 10167 bound_to 10162
  156.0051  130.5127  150.6139 H   0  0  0  0  0  0  0  0  0  0  0  0  # atno 10718 bound_to 10713
  154.5650  135.2823  155.0882 H   0  0  0  0  0  0  0  0  0  0  0  0  # atno 10763 bound_to 10752
  154.2276  135.6380  153.5168 H   0  0  0  0  0  0  0  0  0  0  0  0  # atno 10764 bound_to 10752
  153.0040  135.5529  154.6256 H   0  0  0  0  0  0  0  0  0  0  0  0  # atno 10765 bound_to 10752
  141.1001  133.8900  157.1865 H   0  0  0  0  0  0  0  0  0  0  0  0  # atno 11005 bound_to 11000
  145.8650  140.9453  143.0680 LP  0  0  0  0  0  0  0  0  0  0  0  0  # atno 17320 bound_to 7965
  144.6745  140.0579  143.7477 LP  0  0  0  0  0  0  0  0  0  0  0  0  # atno 17321 bound_to 7965
  140.7818  143.4188  151.0875 LP  0  0  0  0  0  0  0  0  0  0  0  0  # atno 17342 bound_to 10162
  139.7854  143.8295  152.3144 LP  0  0  0  0  0  0  0  0  0  0  0  0  # atno 17343 bound_to 10162
  157.3966  131.0804  151.1346 LP  0  0  0  0  0  0  0  0  0  0  0  0  # atno 17370 bound_to 10713
  157.2021  130.6399  149.5742 LP  0  0  0  0  0  0  0  0  0  0  0  0  # atno 17371 bound_to 10713
  139.9849  135.0085  156.9839 LP  0  0  0  0  0  0  0  0  0  0  0  0  # atno 17394 bound_to 11000
  140.5044  134.1065  155.7257 LP  0  0  0  0  0  0  0  0  0  0  0  0  # atno 17395 bound_to 11000

$$$$
