AV-unprocessed.smi:2884|AV-procd|sdf|11085|dock2
  -GOLD-   2272015553D 1   1.00000     0.00000
 Structure written by MMmdl.
 41 42  0  0  0  0  0  0  0  0  2 V2000
  156.3948  140.4105  159.7036 C   0  0  0  0  0  0  0  0  0  0  0  0
  155.2143  139.6244  160.2885 C   0  0  0  0  0  0  0  0  0  0  0  0
  154.0358  140.5223  160.6847 C   0  0  0  0  0  0  0  0  0  0  0  0
  153.8646  141.4972  159.6627 O   0  0  0  0  0  0  0  0  0  0  0  0
  152.8280  142.4795  159.7703 C   0  0  0  0  0  0  0  0  0  0  0  0
  151.5537  141.6587  159.4426 C   0  0  0  0  0  0  0  0  0  0  0  0
  151.8007  140.5922  158.4804 N   0  0  0  0  0  0  0  0  0  0  0  0
  151.3562  140.4739  157.1680 C   0  0  0  0  0  0  0  0  0  0  0  0
  150.5151  141.5048  156.5089 C   0  0  0  0  0  0  0  0  0  0  0  0
  150.1180  141.3939  155.3031 N   0  0  0  0  0  0  0  0  0  0  0  0
  150.4742  140.2433  154.5034 N   0  5  0  0  0  0  0  0  0  0  0  0
  151.2512  139.2519  155.0357 C   0  0  0  0  0  0  0  0  0  0  0  0
  151.5806  138.2597  154.3880 O   0  0  0  0  0  0  0  0  0  0  0  0
  151.6996  139.3902  156.4264 C   0  0  0  0  0  0  0  0  0  0  0  0
  152.6916  138.1377  157.1001 Cl  0  0  0  0  0  0  0  0  0  0  0  0
  152.7635  143.1131  161.1883 C   0  0  0  0  0  0  0  0  0  0  0  0
  151.6837  144.2050  161.2921 C   0  0  0  0  0  0  0  0  0  0  0  0
  151.8948  145.2966  160.2303 C   0  0  0  0  0  0  0  0  0  0  0  0
  151.9595  144.7040  158.8131 C   0  0  0  0  0  0  0  0  0  0  0  0
  153.0274  143.5981  158.7144 C   0  0  0  0  0  0  0  0  0  0  0  0
  157.2047  139.7391  159.4178 H   0  0  0  0  0  0  0  0  0  0  0  0
  156.7965  141.1211  160.4260 H   0  0  0  0  0  0  0  0  0  0  0  0
  156.0960  140.9696  158.8166 H   0  0  0  0  0  0  0  0  0  0  0  0
  154.8760  138.8949  159.5523 H   0  0  0  0  0  0  0  0  0  0  0  0
  155.5485  139.0542  161.1560 H   0  0  0  0  0  0  0  0  0  0  0  0
  153.1487  139.9058  160.8198 H   0  0  0  0  0  0  0  0  0  0  0  0
  154.2589  141.0004  161.6377 H   0  0  0  0  0  0  0  0  0  0  0  0
  151.1580  141.1858  160.3398 H   0  0  0  0  0  0  0  0  0  0  0  0
  150.7589  142.3144  159.0898 H   0  0  0  0  0  0  0  0  0  0  0  0
  152.4581  139.8916  158.7910 H   0  0  0  0  0  0  0  0  0  0  0  0
  150.2510  142.3777  157.1091 H   0  0  0  0  0  0  0  0  0  0  0  0
  152.6000  142.3496  161.9492 H   0  0  0  0  0  0  0  0  0  0  0  0
  153.7136  143.5827  161.4379 H   0  0  0  0  0  0  0  0  0  0  0  0
  150.6915  143.7668  161.1832 H   0  0  0  0  0  0  0  0  0  0  0  0
  151.7079  144.6514  162.2865 H   0  0  0  0  0  0  0  0  0  0  0  0
  151.0929  146.0331  160.2893 H   0  0  0  0  0  0  0  0  0  0  0  0
  152.8213  145.8325  160.4411 H   0  0  0  0  0  0  0  0  0  0  0  0
  150.9820  144.3124  158.5317 H   0  0  0  0  0  0  0  0  0  0  0  0
  152.1837  145.4943  158.0961 H   0  0  0  0  0  0  0  0  0  0  0  0
  153.9979  144.0747  158.8473 H   0  0  0  0  0  0  0  0  0  0  0  0
  153.0318  143.1729  157.7102 H   0  0  0  0  0  0  0  0  0  0  0  0
  1  2  1  0  0  0  0
  1 21  1  0  0  0  0
  1 22  1  0  0  0  0
  1 23  1  0  0  0  0
  2  3  1  0  0  0  0
  2 24  1  0  0  0  0
  2 25  1  0  0  0  0
  3  4  1  0  0  0  0
  3 26  1  0  0  0  0
  3 27  1  0  0  0  0
  4  5  1  0  0  0  0
  5 20  1  0  0  0  0
  5  6  1  0  0  0  0
  5 16  1  0  0  0  0
  6  7  1  0  0  0  0
  6 28  1  0  0  0  0
  6 29  1  0  0  0  0
  7  8  1  0  0  0  0
  7 30  1  0  0  0  0
  8 14  2  0  0  0  0
  8  9  1  0  0  0  0
  9 10  2  0  0  0  0
  9 31  1  0  0  0  0
 10 11  1  0  0  0  0
 11 12  1  0  0  0  0
 12 13  2  0  0  0  0
 12 14  1  0  0  0  0
 14 15  1  0  0  0  0
 16 17  1  0  0  0  0
 16 32  1  0  0  0  0
 16 33  1  0  0  0  0
 17 18  1  0  0  0  0
 17 34  1  0  0  0  0
 17 35  1  0  0  0  0
 18 19  1  0  0  0  0
 18 36  1  0  0  0  0
 18 37  1  0  0  0  0
 19 20  1  0  0  0  0
 19 38  1  0  0  0  0
 19 39  1  0  0  0  0
 20 40  1  0  0  0  0
 20 41  1  0  0  0  0
M  CHG  1  11  -1
M  END
> <s_m_source_file>
AV-unprocessed.smi

> <i_m_source_file_index>
2884

> <i_lp_mmshare_version>
43012

> <i_f3d_flags>
0

> <s_epik_input>
W0NIMl0xW0NIMl1bQ0gyXVtDSDJdW0NIMl1DMShPW0NIMl1bQ0gyXVtDSDNdKVtDSDJdW05IXWMyW2NIXW5bbkhdYyg9TyljMkNs

> <s_epik_cmdline>
J2VwaWtfcHl0aG9uJywgJy1waCcsICc3LjAnLCAnLXRuJywgJzgnLCAnLW1hJywgJzIwMCcsICctbWV0YWxfYmluZGluZycsICctaW1hZScsICc8aW5maWxlLm1hZT4nLCAnLW9tYWUnLCAnPG91dGZpbGUubWFlPic=

> <r_lp_tautomer_probability>
0.986175

> <r_epik_Ionization_Penalty>
3.75229

> <r_epik_Ionization_Penalty_Charging>
0.0129106

> <r_epik_Ionization_Penalty_Neutral>
3.73938

> <r_epik_State_Penalty>
3.73863

> <r_epik_Charging_Adjusted_Penalty>
3.75154

> <i_epik_Tot_Q>
-1

> <i_epik_Tot_abs_Q>
1

> <r_epik_Metal_State_Penalty>
0.55642

> <b_epik_Metal_Only>
1

> <s_lp_Force_Field>
OPLS_2005

> <r_lp_Energy>
41.2708

> <b_lp_Chiralities_Consistent>
1

> <s_lp_Variant>
AV-unprocessed.smi:2884-3

> <Gold.Version>
5.8.1

> <Gold.Id.Protein>
6NUR|6NUR_protein|mol2

> <Gold.PLP.Fitness>
46.8491

> <Gold.PLP.PLP>
-45.2528

> <Gold.PLP.part.hbond>
-1.9306

> <Gold.PLP.part.metal>
0.0000

> <Gold.PLP.part.buried>
-4.8010

> <Gold.PLP.part.nonpolar>
-38.9604

> <Gold.PLP.part.repulsive>
0.4528

> <Gold.PLP.ligand.clash>
0.0000

> <Gold.PLP.ligand.torsion>
0.7097

> <Gold.PLP.Chemscore.Hbond>
0.9913

> <Gold.PLP.Chemscore.CHOScore>
0.0000

> <Gold.PLP.Chemscore.Metal>
0.0000

> <Gold.Chemscore.Hbonds>
donor molecule, donor type, donor heavy atom, donor atom, acceptor molecule, acceptor atom, score
      P1  H  7989  7998       L1    11  0.85

> <Gold.PLP.Chemscore.Internal.Correction>
0.0421

> <Gold.Rescore>
     Score         DG    S(hbond)    S(metal)    S(lipo)     H(rot)  DE(clash)    DE(int)     intcor
     15.83     -16.51       0.15        0.00     127.31       1.71       0.01       0.66       ----

> <Gold.Chemscore.Fitness>
15.8310

> <Gold.Chemscore.DG>
-16.5053

> <Gold.Chemscore.ZeroCoef>
-5.4800

> <Gold.Chemscore.Hbond>
0.1494

> <Gold.Chemscore.Metal>
0.0000

> <Gold.Chemscore.Lipo>
127.3126

> <Gold.Chemscore.Internal_Hbond>
0.0000

> <Gold.Chemscore.DEClash>
0.0127

> <Gold.Chemscore.DEInternal>
0.6616

> <Gold.Chemscore.Rot>
1.7068

> <Gold.Chemscore.Internal.Correction>
   9.000000E+99

> <Gold.Chemscore.Hbonds>
donor molecule, donor type, donor heavy atom, donor atom, acceptor molecule, acceptor atom, score
      P1  H  7989  7998       L1    11  0.05

> <Gold.Chemscore.Hbond.Weighted>
-0.4991

> <Gold.Chemscore.Metal.Weighted>
-0.0000

> <Gold.Chemscore.Lipo.Weighted>
-14.8956

> <Gold.Chemscore.Internal_Hbond.Weighted>
0.0000

> <Gold.Chemscore.DEClash.Weighted>
0.0127

> <Gold.Chemscore.DEInternal.Weighted>
0.6616

> <Gold.Chemscore.Rot.Weighted>
4.3694

> <Gold.Chemscore.Internal.Correction.Weighted>
   9.000000E+99

> <Gold.Protein.RotatedTorsions>
[ 6907 6896 6895 6894 ] final -127.85 input  -60.11 | X-H torsion
[ 7974 7965 7964 7962 ] final   76.47 input  175.53 | X-H torsion
[ 8008 7997 7996 7995 ] final   22.50 input   59.86 | X-H torsion
[ 10167 10162 10161 10158 ] final  -60.87 input  -65.29 | X-H torsion
[ 10718 10713 10712 10709 ] final -113.91 input   66.30 | X-H torsion
[ 10763 10752 10751 10750 ] final   77.92 input  -60.55 | X-H torsion
[ 11005 11000 10999 10996 ] final -159.08 input  -57.11 | X-H torsion

> <Gold.Protein.ActiveResidues>
 VAL166  LYS551  ARG553  GLY616  TRP617  ASP618  TYR619  PRO620  LYS621  CYS622 
 ASP623  PHE694  ASN695  SER759  ASP760  ASP761  ALA762  ILE779  LEU786  VAL792 
 PHE793  MET794  SER795  GLU796  ALA797  LYS798  CYS799  TRP800  GLU811  SER814 

> <Gold.Protein.RotatedAtoms>
  150.9117  133.6990  159.2853 H   0  0  0  0  0  0  0  0  0  0  0  0  # atno 6907 bound_to 6896
  151.4474  135.1025  159.9697 H   0  0  0  0  0  0  0  0  0  0  0  0  # atno 6908 bound_to 6896
  152.4933  133.8511  159.7257 H   0  0  0  0  0  0  0  0  0  0  0  0  # atno 6909 bound_to 6896
  145.7024  139.2587  143.1698 H   0  0  0  0  0  0  0  0  0  0  0  0  # atno 7974 bound_to 7965
  154.9667  140.3085  155.5006 H   0  0  0  0  0  0  0  0  0  0  0  0  # atno 8008 bound_to 7997
  156.2971  140.2291  156.4695 H   0  0  0  0  0  0  0  0  0  0  0  0  # atno 8009 bound_to 7997
  154.7914  140.0439  157.1192 H   0  0  0  0  0  0  0  0  0  0  0  0  # atno 8010 bound_to 7997
  140.6043  143.2369  151.5858 H   0  0  0  0  0  0  0  0  0  0  0  0  # atno 10167 bound_to 10162
  156.0796  130.5998  150.8705 H   0  0  0  0  0  0  0  0  0  0  0  0  # atno 10718 bound_to 10713
  153.0835  135.4896  154.8550 H   0  0  0  0  0  0  0  0  0  0  0  0  # atno 10763 bound_to 10752
  154.7181  135.3033  154.9093 H   0  0  0  0  0  0  0  0  0  0  0  0  # atno 10764 bound_to 10752
  153.9766  135.6795  153.4802 H   0  0  0  0  0  0  0  0  0  0  0  0  # atno 10765 bound_to 10752
  140.6466  134.4495  157.5234 H   0  0  0  0  0  0  0  0  0  0  0  0  # atno 11005 bound_to 11000
  146.0786  140.7789  142.9652 LP  0  0  0  0  0  0  0  0  0  0  0  0  # atno 17320 bound_to 7965
  144.6965  140.3454  143.7191 LP  0  0  0  0  0  0  0  0  0  0  0  0  # atno 17321 bound_to 7965
  139.5313  144.2907  152.1154 LP  0  0  0  0  0  0  0  0  0  0  0  0  # atno 17342 bound_to 10162
  140.2094  144.4578  150.6393 LP  0  0  0  0  0  0  0  0  0  0  0  0  # atno 17343 bound_to 10162
  157.5907  131.0944  150.9123 LP  0  0  0  0  0  0  0  0  0  0  0  0  # atno 17370 bound_to 10713
  156.9299  130.5346  149.5279 LP  0  0  0  0  0  0  0  0  0  0  0  0  # atno 17371 bound_to 10713
  139.9061  134.8447  156.1702 LP  0  0  0  0  0  0  0  0  0  0  0  0  # atno 17394 bound_to 11000
  141.0568  133.6861  156.1875 LP  0  0  0  0  0  0  0  0  0  0  0  0  # atno 17395 bound_to 11000

$$$$
