AV-unprocessed.smi:1867|AV-procd|sdf|7566|dock3
  -GOLD-   22720 9283D 1   1.00000     0.00000
 Structure written by MMmdl.
 52 55  0  0  0  0  0  0  0  0  2 V2000
  149.3478  136.9771  156.8669 O   0  0  0  0  0  0  0  0  0  0  0  0
  149.3838  137.3243  155.6889 C   0  0  0  0  0  0  0  0  0  0  0  0
  149.7839  138.5365  155.2580 N   0  0  0  0  0  0  0  0  0  0  0  0
  150.2995  139.6198  156.0175 C   0  0  0  0  0  0  0  0  0  0  0  0
  150.2364  140.9102  155.4575 C   0  0  0  0  0  0  0  0  0  0  0  0
  150.7571  142.0007  156.1790 C   0  0  0  0  0  0  0  0  0  0  0  0
  151.3397  141.7698  157.4481 C   0  0  0  0  0  0  0  0  0  0  0  0
  151.8779  142.8291  158.2059 N   0  0  0  0  0  0  0  0  0  0  0  0
  151.6197  144.2228  157.8819 C   0  0  0  0  0  0  0  0  0  0  0  0
  152.2566  145.0134  159.0246 C   0  0  0  0  0  0  0  0  0  0  0  0
  152.1109  144.0752  160.2224 C   0  0  0  0  0  0  0  0  0  0  0  0
  152.2269  142.6740  159.6128 C   0  0  0  0  0  0  0  0  0  0  0  0
  151.4199  140.5258  157.9771 N   0  0  0  0  0  0  0  0  0  0  0  0
  150.9160  139.4834  157.2835 C   0  0  0  0  0  0  0  0  0  0  0  0
  148.9957  136.4887  154.7079 N   0  0  0  0  0  0  0  0  0  0  0  0
  148.5074  135.1103  154.8179 C   0  0  2  0  0  0  0  0  0  0  0  0
  149.5410  134.0744  154.3345 C   0  0  0  0  0  0  0  0  0  0  0  0
  148.7196  133.0351  153.5652 C   0  0  0  0  0  0  0  0  0  0  0  0
  147.6487  133.8416  152.9697 N   0  3  1  0  0  0  0  0  0  0  0  0
  146.5073  133.1464  152.3409 C   0  0  0  0  0  0  0  0  0  0  0  0
  145.6286  134.1978  151.6295 C   0  0  0  0  0  0  0  0  0  0  0  0
  145.2321  135.3604  152.5677 C   0  0  0  0  0  0  0  0  0  0  0  0
  146.4574  135.9574  153.2939 C   0  0  0  0  0  0  0  0  0  0  0  0
  147.2318  134.8217  153.9876 C   0  0  2  0  0  0  0  0  0  0  0  0
  149.6663  138.7184  154.2723 H   0  0  0  0  0  0  0  0  0  0  0  0
  149.7905  141.0678  154.4861 H   0  0  0  0  0  0  0  0  0  0  0  0
  150.7035  142.9897  155.7492 H   0  0  0  0  0  0  0  0  0  0  0  0
  152.0476  144.5006  156.9182 H   0  0  0  0  0  0  0  0  0  0  0  0
  150.5431  144.3940  157.8476 H   0  0  0  0  0  0  0  0  0  0  0  0
  153.3142  145.1792  158.8145 H   0  0  0  0  0  0  0  0  0  0  0  0
  151.7867  145.9848  159.1815 H   0  0  0  0  0  0  0  0  0  0  0  0
  152.8509  144.2595  161.0017 H   0  0  0  0  0  0  0  0  0  0  0  0
  151.1212  144.2010  160.6637 H   0  0  0  0  0  0  0  0  0  0  0  0
  151.5757  141.9687  160.1305 H   0  0  0  0  0  0  0  0  0  0  0  0
  153.2512  142.3060  159.6799 H   0  0  0  0  0  0  0  0  0  0  0  0
  151.0392  138.5235  157.7602 H   0  0  0  0  0  0  0  0  0  0  0  0
  149.0473  136.8587  153.7694 H   0  0  0  0  0  0  0  0  0  0  0  0
  148.2959  134.8839  155.8645 H   0  0  0  0  0  0  0  0  0  0  0  0
  150.2559  134.5407  153.6543 H   0  0  0  0  0  0  0  0  0  0  0  0
  150.1089  133.6323  155.1537 H   0  0  0  0  0  0  0  0  0  0  0  0
  149.3048  132.5102  152.8094 H   0  0  0  0  0  0  0  0  0  0  0  0
  148.2923  132.2988  154.2481 H   0  0  0  0  0  0  0  0  0  0  0  0
  146.8729  132.4128  151.6216 H   0  0  0  0  0  0  0  0  0  0  0  0
  145.9344  132.6046  153.0948 H   0  0  0  0  0  0  0  0  0  0  0  0
  146.1765  134.6018  150.7771 H   0  0  0  0  0  0  0  0  0  0  0  0
  144.7351  133.7245  151.2215 H   0  0  0  0  0  0  0  0  0  0  0  0
  144.7162  136.1378  152.0034 H   0  0  0  0  0  0  0  0  0  0  0  0
  144.5190  134.9951  153.3079 H   0  0  0  0  0  0  0  0  0  0  0  0
  147.0992  136.4762  152.5805 H   0  0  0  0  0  0  0  0  0  0  0  0
  146.1242  136.6983  154.0207 H   0  0  0  0  0  0  0  0  0  0  0  0
  146.5397  134.3149  154.6640 H   0  0  0  0  0  0  0  0  0  0  0  0
  148.0943  134.3764  152.2378 H   0  0  0  0  0  0  0  0  0  0  0  0
  1  2  2  0  0  0  0
  2  3  1  0  0  0  0
  2 15  1  0  0  0  0
  3  4  1  0  0  0  0
  3 25  1  0  0  0  0
  4 14  1  0  0  0  0
  4  5  2  0  0  0  0
  5  6  1  0  0  0  0
  5 26  1  0  0  0  0
  6  7  2  0  0  0  0
  6 27  1  0  0  0  0
  7  8  1  0  0  0  0
  7 13  1  0  0  0  0
  8 12  1  0  0  0  0
  8  9  1  0  0  0  0
  9 10  1  0  0  0  0
  9 28  1  0  0  0  0
  9 29  1  0  0  0  0
 10 11  1  0  0  0  0
 10 30  1  0  0  0  0
 10 31  1  0  0  0  0
 11 12  1  0  0  0  0
 11 32  1  0  0  0  0
 11 33  1  0  0  0  0
 12 34  1  0  0  0  0
 12 35  1  0  0  0  0
 13 14  2  0  0  0  0
 14 36  1  0  0  0  0
 15 16  1  0  0  0  0
 15 37  1  0  0  0  0
 16 24  1  0  0  0  0
 16 17  1  0  0  0  0
 16 38  1  0  0  0  0
 17 18  1  0  0  0  0
 17 39  1  0  0  0  0
 17 40  1  0  0  0  0
 18 19  1  0  0  0  0
 18 41  1  0  0  0  0
 18 42  1  0  0  0  0
 19 24  1  0  0  0  0
 19 20  1  0  0  0  0
 19 52  1  0  0  0  0
 20 21  1  0  0  0  0
 20 43  1  0  0  0  0
 20 44  1  0  0  0  0
 21 22  1  0  0  0  0
 21 45  1  0  0  0  0
 21 46  1  0  0  0  0
 22 23  1  0  0  0  0
 22 47  1  0  0  0  0
 22 48  1  0  0  0  0
 23 24  1  0  0  0  0
 23 49  1  0  0  0  0
 23 50  1  0  0  0  0
 24 51  1  0  0  0  0
M  CHG  1  19   1
M  END
> <s_m_source_file>
AV-unprocessed.smi

> <i_m_source_file_index>
1867

> <i_lp_mmshare_version>
43012

> <i_f3d_flags>
0

> <s_epik_input>
W0NIMl0xW0NIMl1bQ0gyXVtDSDJdW0NASF0oTjEyKVtDQEBIXShbQ0gyXVtDSDJdMilbTkhdQyg9TylbTkhdYzNbY0hdW2NIXWMobltjSF0zKU40W0NIMl1bQ0gyXVtDSDJdW0NIMl00

> <s_epik_cmdline>
J2VwaWtfcHl0aG9uJywgJy1waCcsICc3LjAnLCAnLXRuJywgJzgnLCAnLW1hJywgJzIwMCcsICctbWV0YWxfYmluZGluZycsICctaW1hZScsICc8aW5maWxlLm1hZT4nLCAnLW9tYWUnLCAnPG91dGZpbGUubWFlPic=

> <r_lp_tautomer_probability>
1

> <r_epik_Ionization_Penalty>
0.0751123

> <r_epik_Ionization_Penalty_Charging>
0.000974069

> <r_epik_Ionization_Penalty_Neutral>
0.0741382

> <r_epik_State_Penalty>
0.0647261

> <r_epik_Charging_Adjusted_Penalty>
0.0657002

> <i_epik_Tot_Q>
1

> <i_epik_Tot_abs_Q>
1

> <r_epik_Metal_State_Penalty>
0.0580571

> <b_epik_Metal_Only>
0

> <s_lp_Force_Field>
OPLS_2005

> <r_lp_Energy>
77.2507

> <b_lp_Chiralities_Consistent>
1

> <s_lp_Variant>
AV-unprocessed.smi:1867-7

> <Gold.Version>
5.8.1

> <Gold.Id.Protein>
6NUR|6NUR_protein|mol2

> <Gold.PLP.Fitness>
48.3306

> <Gold.PLP.PLP>
-41.1502

> <Gold.PLP.part.hbond>
-2.0000

> <Gold.PLP.part.metal>
0.0000

> <Gold.PLP.part.buried>
-1.5354

> <Gold.PLP.part.nonpolar>
-37.5071

> <Gold.PLP.part.repulsive>
0.0252

> <Gold.PLP.ligand.clash>
0.0000

> <Gold.PLP.ligand.torsion>
0.3320

> <Gold.PLP.Chemscore.Hbond>
2.5603

> <Gold.PLP.Chemscore.CHOScore>
0.0000

> <Gold.PLP.Chemscore.Metal>
0.0000

> <Gold.Chemscore.Hbonds>
donor molecule, donor type, donor heavy atom, donor atom, acceptor molecule, acceptor atom, score
      L1  H    15    37       P1  7948  0.80
      L1  H    19    52       P1  7948  1.47

> <Gold.PLP.Chemscore.Internal.Correction>
0.1634

> <Gold.Rescore>
     Score         DG    S(hbond)    S(metal)    S(lipo)     H(rot)  DE(clash)    DE(int)     intcor
     17.94     -18.81       0.99        0.00     107.65       1.00       0.33       0.54       ----

> <Gold.Chemscore.Fitness>
17.9393

> <Gold.Chemscore.DG>
-18.8127

> <Gold.Chemscore.ZeroCoef>
-5.4800

> <Gold.Chemscore.Hbond>
0.9871

> <Gold.Chemscore.Metal>
0.0000

> <Gold.Chemscore.Lipo>
107.6550

> <Gold.Chemscore.Internal_Hbond>
0.0000

> <Gold.Chemscore.DEClash>
0.3306

> <Gold.Chemscore.DEInternal>
0.5427

> <Gold.Chemscore.Rot>
1.0000

> <Gold.Chemscore.Internal.Correction>
   9.000000E+99

> <Gold.Chemscore.Hbonds>
donor molecule, donor type, donor heavy atom, donor atom, acceptor molecule, acceptor atom, score
      L1  H    15    37       P1  7948  0.77
      L1  H    19    52       P1  7948  0.12

> <Gold.Chemscore.Hbond.Weighted>
-3.2970

> <Gold.Chemscore.Metal.Weighted>
-0.0000

> <Gold.Chemscore.Lipo.Weighted>
-12.5956

> <Gold.Chemscore.Internal_Hbond.Weighted>
0.0000

> <Gold.Chemscore.DEClash.Weighted>
0.3306

> <Gold.Chemscore.DEInternal.Weighted>
0.5427

> <Gold.Chemscore.Rot.Weighted>
2.5600

> <Gold.Chemscore.Internal.Correction.Weighted>
   9.000000E+99

> <Gold.Protein.RotatedTorsions>
[ 6907 6896 6895 6894 ] final   99.42 input  -60.11 | X-H torsion
[ 7974 7965 7964 7962 ] final  -99.07 input  175.53 | X-H torsion
[ 8008 7997 7996 7995 ] final -149.43 input   59.86 | X-H torsion
[ 10167 10162 10161 10158 ] final -175.49 input  -65.29 | X-H torsion
[ 10718 10713 10712 10709 ] final -119.33 input   66.30 | X-H torsion
[ 10763 10752 10751 10750 ] final   47.00 input  -60.55 | X-H torsion
[ 11005 11000 10999 10996 ] final   62.95 input  -57.11 | X-H torsion

> <Gold.Protein.ActiveResidues>
 VAL166  LYS551  ARG553  GLY616  TRP617  ASP618  TYR619  PRO620  LYS621  CYS622 
 ASP623  PHE694  ASN695  SER759  ASP760  ASP761  ALA762  ILE779  LEU786  VAL792 
 PHE793  MET794  SER795  GLU796  ALA797  LYS798  CYS799  TRP800  GLU811  SER814 

> <Gold.Protein.RotatedAtoms>
  152.5392  134.0431  159.8076 H   0  0  0  0  0  0  0  0  0  0  0  0  # atno 6907 bound_to 6896
  151.0584  133.5557  159.2643 H   0  0  0  0  0  0  0  0  0  0  0  0  # atno 6908 bound_to 6896
  151.2465  135.0615  159.9099 H   0  0  0  0  0  0  0  0  0  0  0  0  # atno 6909 bound_to 6896
  145.3124  140.9403  143.2762 H   0  0  0  0  0  0  0  0  0  0  0  0  # atno 7974 bound_to 7965
  155.6075  140.0668  157.2715 H   0  0  0  0  0  0  0  0  0  0  0  0  # atno 8008 bound_to 7997
  154.4262  140.1807  156.1285 H   0  0  0  0  0  0  0  0  0  0  0  0  # atno 8009 bound_to 7997
  156.0111  140.3326  155.6945 H   0  0  0  0  0  0  0  0  0  0  0  0  # atno 8010 bound_to 7997
  139.5578  144.1945  152.1189 H   0  0  0  0  0  0  0  0  0  0  0  0  # atno 10167 bound_to 10162
  156.1173  130.6295  150.9403 H   0  0  0  0  0  0  0  0  0  0  0  0  # atno 10718 bound_to 10713
  152.9804  135.5990  154.3692 H   0  0  0  0  0  0  0  0  0  0  0  0  # atno 10763 bound_to 10752
  154.3366  135.2768  155.2446 H   0  0  0  0  0  0  0  0  0  0  0  0  # atno 10764 bound_to 10752
  154.4546  135.5981  153.6270 H   0  0  0  0  0  0  0  0  0  0  0  0  # atno 10765 bound_to 10752
  140.0057  134.6373  155.9858 H   0  0  0  0  0  0  0  0  0  0  0  0  # atno 11005 bound_to 11000
  144.9005  139.4656  143.6635 LP  0  0  0  0  0  0  0  0  0  0  0  0  # atno 17320 bound_to 7965
  146.3113  139.7756  142.9018 LP  0  0  0  0  0  0  0  0  0  0  0  0  # atno 17321 bound_to 7965
  140.1453  144.5165  150.6720 LP  0  0  0  0  0  0  0  0  0  0  0  0  # atno 17342 bound_to 10162
  140.6854  143.2347  151.5275 LP  0  0  0  0  0  0  0  0  0  0  0  0  # atno 17343 bound_to 10162
  157.6356  131.0916  150.8355 LP  0  0  0  0  0  0  0  0  0  0  0  0  # atno 17370 bound_to 10713
  156.8456  130.5063  149.5317 LP  0  0  0  0  0  0  0  0  0  0  0  0  # atno 17371 bound_to 10713
  141.1675  133.6537  156.4532 LP  0  0  0  0  0  0  0  0  0  0  0  0  # atno 17394 bound_to 11000
  140.4645  134.6810  157.5101 LP  0  0  0  0  0  0  0  0  0  0  0  0  # atno 17395 bound_to 11000

$$$$
