AV-unprocessed.smi:247|AV-procd|sdf|1893|dock5
  -GOLD-   2262020553D 1   1.00000     0.00000
 Structure written by MMmdl.
 61 65  0  0  0  0  0  0  0  0  1 V2000
  144.6753  135.9563  149.6875 O   0  0  0  0  0  0  0  0  0  0  0  0
  144.7149  135.7152  151.0805 C   0  0  0  0  0  0  0  0  0  0  0  0
  144.9281  134.2191  151.4443 C   0  0  0  0  0  0  0  0  0  0  0  0
  144.9522  134.0842  153.0001 C   0  0  0  0  0  0  0  0  0  0  0  0
  146.0141  134.8235  153.6682 N   0  0  0  0  0  0  0  0  0  0  0  0
  145.9554  136.1220  154.1232 C   0  0  0  0  0  0  0  0  0  0  0  0
  147.0435  136.5643  154.6910 N   0  0  0  0  0  0  0  0  0  0  0  0
  147.9121  135.4813  154.6465 C   0  0  0  0  0  0  0  0  0  0  0  0
  149.2537  135.2723  155.0701 C   0  0  0  0  0  0  0  0  0  0  0  0
  149.9780  136.2513  155.6664 N   0  0  0  0  0  0  0  0  0  0  0  0
  151.1891  135.7668  156.3123 C   0  0  0  0  0  0  0  0  0  0  0  0
  152.0513  137.0002  156.5429 C   0  0  0  0  0  0  0  0  0  0  0  0
  151.6978  137.8924  155.3561 C   0  0  0  0  0  0  0  0  0  0  0  0
  150.2442  137.5276  154.9896 C   0  0  2  0  0  0  0  0  0  0  0  0
  149.2266  138.6633  155.3347 C   0  0  2  0  0  0  0  0  0  0  0  0
  149.3848  139.9414  154.4795 C   0  0  0  0  0  0  0  0  0  0  0  0
  150.4808  140.7263  154.9392 O   0  0  0  0  0  0  0  0  0  0  0  0
  150.2787  141.2377  156.2521 C   0  0  0  0  0  0  0  0  0  0  0  0
  150.1630  140.0877  157.2645 C   0  0  0  0  0  0  0  0  0  0  0  0
  149.0939  139.0752  156.8230 C   0  0  2  0  0  0  0  0  0  0  0  0
  149.0661  137.9609  157.6915 O   0  0  0  0  0  0  0  0  0  0  0  0
  149.7957  134.0458  154.8494 N   0  0  0  0  0  0  0  0  0  0  0  0
  149.0806  133.0897  154.2501 C   0  0  0  0  0  0  0  0  0  0  0  0
  147.8267  133.1460  153.7974 N   0  0  0  0  0  0  0  0  0  0  0  0
  147.2775  134.3753  154.0147 C   0  0  0  0  0  0  0  0  0  0  0  0
  143.8082  133.3590  150.8030 C   0  0  0  0  0  0  0  0  0  0  0  0
  144.0846  131.8504  150.9296 C   0  0  0  0  0  0  0  0  0  0  0  0
  145.3391  131.5387  150.3357 O   0  0  0  0  0  0  0  0  0  0  0  0
  146.4345  132.1856  150.9727 C   0  0  0  0  0  0  0  0  0  0  0  0
  146.2799  133.7158  150.8747 C   0  0  0  0  0  0  0  0  0  0  0  0
  144.6217  136.8892  149.5460 H   0  0  0  0  0  0  0  0  0  0  0  0
  145.5124  136.3261  151.5049 H   0  0  0  0  0  0  0  0  0  0  0  0
  143.7774  136.0851  151.4955 H   0  0  0  0  0  0  0  0  0  0  0  0
  144.0114  134.4068  153.4431 H   0  0  0  0  0  0  0  0  0  0  0  0
  145.0530  133.0338  153.2763 H   0  0  0  0  0  0  0  0  0  0  0  0
  145.0767  136.7401  154.0117 H   0  0  0  0  0  0  0  0  0  0  0  0
  150.9702  135.2595  157.2519 H   0  0  0  0  0  0  0  0  0  0  0  0
  151.7023  135.0621  155.6556 H   0  0  0  0  0  0  0  0  0  0  0  0
  151.7663  137.4819  157.4783 H   0  0  0  0  0  0  0  0  0  0  0  0
  153.1147  136.7665  156.5985 H   0  0  0  0  0  0  0  0  0  0  0  0
  151.8453  138.9508  155.5731 H   0  0  0  0  0  0  0  0  0  0  0  0
  152.3505  137.6430  154.5183 H   0  0  0  0  0  0  0  0  0  0  0  0
  150.2406  137.3993  153.9080 H   0  0  0  0  0  0  0  0  0  0  0  0
  148.2537  138.2427  155.0759 H   0  0  0  0  0  0  0  0  0  0  0  0
  149.5318  139.6992  153.4289 H   0  0  0  0  0  0  0  0  0  0  0  0
  148.4729  140.5390  154.5221 H   0  0  0  0  0  0  0  0  0  0  0  0
  151.1200  141.8801  156.5130 H   0  0  0  0  0  0  0  0  0  0  0  0
  149.3849  141.8630  156.2736 H   0  0  0  0  0  0  0  0  0  0  0  0
  151.1307  139.6105  157.3844 H   0  0  0  0  0  0  0  0  0  0  0  0
  149.9119  140.4881  158.2471 H   0  0  0  0  0  0  0  0  0  0  0  0
  148.1277  139.5693  156.9357 H   0  0  0  0  0  0  0  0  0  0  0  0
  148.1741  137.8166  157.9681 H   0  0  0  0  0  0  0  0  0  0  0  0
  149.5876  132.1465  154.1103 H   0  0  0  0  0  0  0  0  0  0  0  0
  142.8327  133.6030  151.2223 H   0  0  0  0  0  0  0  0  0  0  0  0
  143.7305  133.5872  149.7397 H   0  0  0  0  0  0  0  0  0  0  0  0
  144.0663  131.5220  151.9690 H   0  0  0  0  0  0  0  0  0  0  0  0
  143.3074  131.2877  150.4124 H   0  0  0  0  0  0  0  0  0  0  0  0
  146.5191  131.8513  152.0067 H   0  0  0  0  0  0  0  0  0  0  0  0
  147.3536  131.8767  150.4747 H   0  0  0  0  0  0  0  0  0  0  0  0
  146.3679  133.9819  149.8210 H   0  0  0  0  0  0  0  0  0  0  0  0
  147.1128  134.2082  151.3780 H   0  0  0  0  0  0  0  0  0  0  0  0
  1  2  1  0  0  0  0
  1 31  1  0  0  0  0
  2  3  1  0  0  0  0
  2 32  1  0  0  0  0
  2 33  1  0  0  0  0
  3 30  1  0  0  0  0
  3  4  1  0  0  0  0
  3 26  1  0  0  0  0
  4  5  1  0  0  0  0
  4 34  1  0  0  0  0
  4 35  1  0  0  0  0
  5 25  1  0  0  0  0
  5  6  1  0  0  0  0
  6  7  2  0  0  0  0
  6 36  1  0  0  0  0
  7  8  1  0  0  0  0
  8 25  2  0  0  0  0
  8  9  1  0  0  0  0
  9 10  1  0  0  0  0
  9 22  2  0  0  0  0
 10 14  1  0  0  0  0
 10 11  1  0  0  0  0
 11 12  1  0  0  0  0
 11 37  1  0  0  0  0
 11 38  1  0  0  0  0
 12 13  1  0  0  0  0
 12 39  1  0  0  0  0
 12 40  1  0  0  0  0
 13 14  1  0  0  0  0
 13 41  1  0  0  0  0
 13 42  1  0  0  0  0
 14 15  1  0  0  0  0
 14 43  1  0  0  0  0
 15 20  1  0  0  0  0
 15 16  1  0  0  0  0
 15 44  1  0  0  0  0
 16 17  1  0  0  0  0
 16 45  1  0  0  0  0
 16 46  1  0  0  0  0
 17 18  1  0  0  0  0
 18 19  1  0  0  0  0
 18 47  1  0  0  0  0
 18 48  1  0  0  0  0
 19 20  1  0  0  0  0
 19 49  1  0  0  0  0
 19 50  1  0  0  0  0
 20 21  1  0  0  0  0
 20 51  1  0  0  0  0
 21 52  1  0  0  0  0
 22 23  1  0  0  0  0
 23 24  2  0  0  0  0
 23 53  1  0  0  0  0
 24 25  1  0  0  0  0
 26 27  1  0  0  0  0
 26 54  1  0  0  0  0
 26 55  1  0  0  0  0
 27 28  1  0  0  0  0
 27 56  1  0  0  0  0
 27 57  1  0  0  0  0
 28 29  1  0  0  0  0
 29 30  1  0  0  0  0
 29 58  1  0  0  0  0
 29 59  1  0  0  0  0
 30 60  1  0  0  0  0
 30 61  1  0  0  0  0
M  END
> <s_m_source_file>
AV-unprocessed.smi

> <i_m_source_file_index>
247

> <i_lp_mmshare_version>
43012

> <i_f3d_flags>
0

> <s_epik_input>
W0NIMl0xW0NIMl1PW0NIMl1bQ0gyXUMxKFtDSDJdW09IXSlbQ0gyXW4oW2NIXW4yKWMoYzIzKW5bY0hdbmMzTjRbQ0gyXVtDSDJdW0NIMl1bQ0BIXTRbQ0BASF01W0NIMl1PW0NIMl1bQ0gyXVtDQEhdNVtPSF0=

> <s_epik_cmdline>
J2VwaWtfcHl0aG9uJywgJy1waCcsICc3LjAnLCAnLXRuJywgJzgnLCAnLW1hJywgJzIwMCcsICctbWV0YWxfYmluZGluZycsICctaW1hZScsICc8aW5maWxlLm1hZT4nLCAnLW9tYWUnLCAnPG91dGZpbGUubWFlPic=

> <r_lp_tautomer_probability>
1

> <r_epik_Ionization_Penalty>
0.00362597

> <r_epik_Ionization_Penalty_Charging>
0

> <r_epik_Ionization_Penalty_Neutral>
0.00362597

> <r_epik_State_Penalty>
0.00241433

> <r_epik_Charging_Adjusted_Penalty>
0.00241433

> <i_epik_Tot_Q>
0

> <i_epik_Tot_abs_Q>
0

> <r_epik_Metal_State_Penalty>
-0

> <b_epik_Metal_Only>
0

> <s_lp_Force_Field>
OPLS_2005

> <r_lp_Energy>
64.0337

> <b_lp_Chiralities_Consistent>
1

> <s_lp_Variant>
AV-unprocessed.smi:247-6

> <Gold.Version>
5.8.1

> <Gold.Id.Protein>
6NUR|6NUR_protein|mol2

> <Gold.PLP.Fitness>
41.9304

> <Gold.PLP.PLP>
-37.0956

> <Gold.PLP.part.hbond>
-3.0000

> <Gold.PLP.part.metal>
0.0000

> <Gold.PLP.part.buried>
-2.9031

> <Gold.PLP.part.nonpolar>
-31.5290

> <Gold.PLP.part.repulsive>
0.6012

> <Gold.PLP.ligand.clash>
0.0000

> <Gold.PLP.ligand.torsion>
0.5809

> <Gold.PLP.Chemscore.Hbond>
1.8800

> <Gold.PLP.Chemscore.CHOScore>
0.0000

> <Gold.PLP.Chemscore.Metal>
0.0000

> <Gold.Chemscore.Hbonds>
donor molecule, donor type, donor heavy atom, donor atom, acceptor molecule, acceptor atom, score
      L1  H     1    31       P1 10171  1.00
      P1  H  7989  7998       L1    17  0.88

> <Gold.PLP.Chemscore.Internal.Correction>
0.3565

> <Gold.Rescore>
     Score         DG    S(hbond)    S(metal)    S(lipo)     H(rot)  DE(clash)    DE(int)     intcor
     12.32     -13.87       1.80        0.00      91.06       3.23       0.37       1.18       ----

> <Gold.Chemscore.Fitness>
12.3165

> <Gold.Chemscore.DG>
-13.8710

> <Gold.Chemscore.ZeroCoef>
-5.4800

> <Gold.Chemscore.Hbond>
1.7966

> <Gold.Chemscore.Metal>
0.0000

> <Gold.Chemscore.Lipo>
91.0572

> <Gold.Chemscore.Internal_Hbond>
0.0000

> <Gold.Chemscore.DEClash>
0.3741

> <Gold.Chemscore.DEInternal>
1.1804

> <Gold.Chemscore.Rot>
3.2278

> <Gold.Chemscore.Internal.Correction>
   9.000000E+99

> <Gold.Chemscore.Hbonds>
donor molecule, donor type, donor heavy atom, donor atom, acceptor molecule, acceptor atom, score
      L1  H     1    31       P1 10171  0.98
      P1  H  7989  7998       L1    17  0.48

> <Gold.Chemscore.Hbond.Weighted>
-6.0006

> <Gold.Chemscore.Metal.Weighted>
-0.0000

> <Gold.Chemscore.Lipo.Weighted>
-10.6537

> <Gold.Chemscore.Internal_Hbond.Weighted>
0.0000

> <Gold.Chemscore.DEClash.Weighted>
0.3741

> <Gold.Chemscore.DEInternal.Weighted>
1.1804

> <Gold.Chemscore.Rot.Weighted>
8.2633

> <Gold.Chemscore.Internal.Correction.Weighted>
   9.000000E+99

> <Gold.Protein.RotatedTorsions>
[ 6907 6896 6895 6894 ] final  -90.23 input  -60.11 | X-H torsion
[ 7974 7965 7964 7962 ] final    6.43 input  175.53 | X-H torsion
[ 8008 7997 7996 7995 ] final  -34.73 input   59.86 | X-H torsion
[ 10167 10162 10161 10158 ] final  111.61 input  -65.29 | X-H torsion
[ 10718 10713 10712 10709 ] final  -97.34 input   66.30 | X-H torsion
[ 10763 10752 10751 10750 ] final   15.24 input  -60.55 | X-H torsion
[ 11005 11000 10999 10996 ] final   10.11 input  -57.11 | X-H torsion

> <Gold.Protein.ActiveResidues>
 VAL166  LYS551  ARG553  GLY616  TRP617  ASP618  TYR619  PRO620  LYS621  CYS622 
 ASP623  PHE694  ASN695  SER759  ASP760  ASP761  ALA762  ILE779  LEU786  VAL792 
 PHE793  MET794  SER795  GLU796  ALA797  LYS798  CYS799  TRP800  GLU811  SER814 

> <Gold.Protein.RotatedAtoms>
  150.6880  134.2463  159.4492 H   0  0  0  0  0  0  0  0  0  0  0  0  # atno 6907 bound_to 6896
  152.0404  134.9712  160.0583 H   0  0  0  0  0  0  0  0  0  0  0  0  # atno 6908 bound_to 6896
  152.1216  133.4322  159.4715 H   0  0  0  0  0  0  0  0  0  0  0  0  # atno 6909 bound_to 6896
  146.2434  140.0234  142.8396 H   0  0  0  0  0  0  0  0  0  0  0  0  # atno 7974 bound_to 7965
  154.4113  140.1676  156.2097 H   0  0  0  0  0  0  0  0  0  0  0  0  # atno 8008 bound_to 7997
  155.9454  140.3405  155.6339 H   0  0  0  0  0  0  0  0  0  0  0  0  # atno 8009 bound_to 7997
  155.6937  140.0737  157.2429 H   0  0  0  0  0  0  0  0  0  0  0  0  # atno 8010 bound_to 7997
  139.6598  144.7129  151.1887 H   0  0  0  0  0  0  0  0  0  0  0  0  # atno 10167 bound_to 10162
  156.0081  130.5190  150.6360 H   0  0  0  0  0  0  0  0  0  0  0  0  # atno 10718 bound_to 10713
  153.1544  135.6784  153.8834 H   0  0  0  0  0  0  0  0  0  0  0  0  # atno 10763 bound_to 10752
  153.8249  135.3125  155.3415 H   0  0  0  0  0  0  0  0  0  0  0  0  # atno 10764 bound_to 10752
  154.7887  135.4847  154.0090 H   0  0  0  0  0  0  0  0  0  0  0  0  # atno 10765 bound_to 10752
  140.5182  134.0585  155.7837 H   0  0  0  0  0  0  0  0  0  0  0  0  # atno 11005 bound_to 11000
  145.1220  140.9468  143.4594 LP  0  0  0  0  0  0  0  0  0  0  0  0  # atno 17320 bound_to 7965
  145.0471  139.3212  143.5947 LP  0  0  0  0  0  0  0  0  0  0  0  0  # atno 17321 bound_to 7965
  140.7575  143.6013  150.8697 LP  0  0  0  0  0  0  0  0  0  0  0  0  # atno 17342 bound_to 10162
  139.9669  143.6100  152.2985 LP  0  0  0  0  0  0  0  0  0  0  0  0  # atno 17343 bound_to 10162
  157.4149  131.0829  151.1186 LP  0  0  0  0  0  0  0  0  0  0  0  0  # atno 17370 bound_to 10713
  157.1806  130.6307  149.5670 LP  0  0  0  0  0  0  0  0  0  0  0  0  # atno 17371 bound_to 10713
  141.1348  133.9239  157.2456 LP  0  0  0  0  0  0  0  0  0  0  0  0  # atno 17394 bound_to 11000
  139.9620  135.0151  156.9287 LP  0  0  0  0  0  0  0  0  0  0  0  0  # atno 17395 bound_to 11000

$$$$
