AV-unprocessed.smi:281|AV-procd|sdf|2102|dock6
  -GOLD-   2262021393D 1   1.00000     0.00000
 Structure written by MMmdl.
 55 59  0  0  0  0  0  0  0  0  1 V2000
  147.8980  135.3069  159.9788 C   0  0  0  0  0  0  0  0  0  0  0  0
  148.1545  135.3112  158.4689 C   0  0  1  0  0  0  0  0  0  0  0  0
  148.8877  136.5803  158.0104 C   0  0  0  0  0  0  0  0  0  0  0  0
  149.1631  136.4868  156.5853 N   0  0  0  0  0  0  0  0  0  0  0  0
  149.6256  137.6206  156.0195 C   0  0  0  0  0  0  0  0  0  0  0  0
  149.6968  137.6469  154.6665 N   0  0  0  0  0  0  0  0  0  0  0  0
  150.1458  138.7403  154.0429 C   0  0  0  0  0  0  0  0  0  0  0  0
  150.5678  139.8905  154.5731 N   0  0  0  0  0  0  0  0  0  0  0  0
  150.5071  139.8613  155.9358 C   0  0  0  0  0  0  0  0  0  0  0  0
  150.0532  138.7746  156.7350 C   0  0  0  0  0  0  0  0  0  0  0  0
  150.1407  139.1076  158.0814 N   0  0  0  0  0  0  0  0  0  0  0  0
  150.6118  140.3247  158.0777 C   0  0  0  0  0  0  0  0  0  0  0  0
  150.8648  140.8535  156.8319 N   0  0  0  0  0  0  0  0  0  0  0  0
  151.3878  142.1792  156.5392 C   0  0  0  0  0  0  0  0  0  0  0  0
  151.2715  143.1617  157.7275 C   0  0  1  0  0  0  0  0  0  0  0  0
  149.9135  143.2442  158.1250 O   0  0  0  0  0  0  0  0  0  0  0  0
  152.1104  142.7760  158.9420 C   0  0  0  0  0  0  0  0  0  0  0  0
  152.4642  144.1255  159.5505 C   0  0  0  0  0  0  0  0  0  0  0  0
  152.7133  144.9251  158.4070 O   0  0  0  0  0  0  0  0  0  0  0  0
  151.7688  144.5831  157.3971 C   0  0  0  0  0  0  0  0  0  0  0  0
  149.9462  135.3086  156.2447 C   0  0  0  0  0  0  0  0  0  0  0  0
  149.2595  134.0182  156.7603 C   0  0  2  0  0  0  0  0  0  0  0  0
  150.1857  132.8235  156.6007 C   0  0  0  0  0  0  0  0  0  0  0  0
  149.9706  132.4196  155.1463 C   0  0  0  0  0  0  0  0  0  0  0  0
  148.6326  132.7940  154.8343 O   0  0  0  0  0  0  0  0  0  0  0  0
  148.0647  133.5757  155.8844 C   0  0  1  0  0  0  0  0  0  0  0  0
  147.0443  132.6599  156.5876 C   0  0  0  0  0  0  0  0  0  0  0  0
  148.9452  134.1641  158.1500 O   0  0  0  0  0  0  0  0  0  0  0  0
  147.2897  136.1613  160.2764 H   0  0  0  0  0  0  0  0  0  0  0  0
  148.8333  135.3496  160.5375 H   0  0  0  0  0  0  0  0  0  0  0  0
  147.3704  134.4019  160.2804 H   0  0  0  0  0  0  0  0  0  0  0  0
  147.1944  135.2549  157.9558 H   0  0  0  0  0  0  0  0  0  0  0  0
  148.2789  137.4624  158.2135 H   0  0  0  0  0  0  0  0  0  0  0  0
  149.8182  136.6908  158.5678 H   0  0  0  0  0  0  0  0  0  0  0  0
  150.1707  138.6858  152.9644 H   0  0  0  0  0  0  0  0  0  0  0  0
  150.7937  140.8734  158.9904 H   0  0  0  0  0  0  0  0  0  0  0  0
  152.4317  142.0752  156.2406 H   0  0  0  0  0  0  0  0  0  0  0  0
  150.8604  142.5723  155.6690 H   0  0  0  0  0  0  0  0  0  0  0  0
  149.5101  143.9626  157.6619 H   0  0  0  0  0  0  0  0  0  0  0  0
  151.6011  142.1072  159.6371 H   0  0  0  0  0  0  0  0  0  0  0  0
  153.0312  142.2859  158.6240 H   0  0  0  0  0  0  0  0  0  0  0  0
  151.6247  144.5362  160.1135 H   0  0  0  0  0  0  0  0  0  0  0  0
  153.3332  144.0788  160.2070 H   0  0  0  0  0  0  0  0  0  0  0  0
  152.2593  144.6342  156.4246 H   0  0  0  0  0  0  0  0  0  0  0  0
  150.9573  145.3128  157.3899 H   0  0  0  0  0  0  0  0  0  0  0  0
  150.0925  135.2612  155.1646 H   0  0  0  0  0  0  0  0  0  0  0  0
  150.9354  135.4056  156.6944 H   0  0  0  0  0  0  0  0  0  0  0  0
  151.2283  133.0432  156.8325 H   0  0  0  0  0  0  0  0  0  0  0  0
  149.8696  132.0110  157.2561 H   0  0  0  0  0  0  0  0  0  0  0  0
  150.6483  132.9671  154.4906 H   0  0  0  0  0  0  0  0  0  0  0  0
  150.1327  131.3538  154.9846 H   0  0  0  0  0  0  0  0  0  0  0  0
  147.5398  134.4346  155.4648 H   0  0  0  0  0  0  0  0  0  0  0  0
  146.5339  133.1657  157.4055 H   0  0  0  0  0  0  0  0  0  0  0  0
  147.5161  131.7665  156.9962 H   0  0  0  0  0  0  0  0  0  0  0  0
  146.2779  132.3315  155.8853 H   0  0  0  0  0  0  0  0  0  0  0  0
  1  2  1  0  0  0  0
  1 29  1  0  0  0  0
  1 30  1  0  0  0  0
  1 31  1  0  0  0  0
  2 28  1  0  0  0  0
  2  3  1  0  0  0  0
  2 32  1  0  0  0  0
  3  4  1  0  0  0  0
  3 33  1  0  0  0  0
  3 34  1  0  0  0  0
  4  5  1  0  0  0  0
  4 21  1  0  0  0  0
  5 10  1  0  0  0  0
  5  6  2  0  0  0  0
  6  7  1  0  0  0  0
  7  8  2  0  0  0  0
  7 35  1  0  0  0  0
  8  9  1  0  0  0  0
  9 13  1  0  0  0  0
  9 10  2  0  0  0  0
 10 11  1  0  0  0  0
 11 12  2  0  0  0  0
 12 13  1  0  0  0  0
 12 36  1  0  0  0  0
 13 14  1  0  0  0  0
 14 15  1  0  0  0  0
 14 37  1  0  0  0  0
 14 38  1  0  0  0  0
 15 20  1  0  0  0  0
 15 16  1  0  0  0  0
 15 17  1  0  0  0  0
 16 39  1  0  0  0  0
 17 18  1  0  0  0  0
 17 40  1  0  0  0  0
 17 41  1  0  0  0  0
 18 19  1  0  0  0  0
 18 42  1  0  0  0  0
 18 43  1  0  0  0  0
 19 20  1  0  0  0  0
 20 44  1  0  0  0  0
 20 45  1  0  0  0  0
 21 22  1  0  0  0  0
 21 46  1  0  0  0  0
 21 47  1  0  0  0  0
 22 26  1  0  0  0  0
 22 23  1  0  0  0  0
 22 28  1  0  0  0  0
 23 24  1  0  0  0  0
 23 48  1  0  0  0  0
 23 49  1  0  0  0  0
 24 25  1  0  0  0  0
 24 50  1  0  0  0  0
 24 51  1  0  0  0  0
 25 26  1  0  0  0  0
 26 27  1  0  0  0  0
 26 52  1  0  0  0  0
 27 53  1  0  0  0  0
 27 54  1  0  0  0  0
 27 55  1  0  0  0  0
M  END
> <s_m_source_file>
AV-unprocessed.smi

> <i_m_source_file_index>
281

> <i_lp_mmshare_version>
43012

> <i_f3d_flags>
0

> <s_epik_input>
W0NIM11bQ0BASF0xT1tDSDJdW0NIMl1bQ0BAXTEyW0NIMl1OKFtDSDJdW0NASF0oTzIpW0NIM10pYyhuW2NIXW4zKWMoYzM0KW5bY0hdbjRbQ0gyXVtDQEBdNShbT0hdKVtDSDJdW0NIMl1PW0NIMl01

> <s_epik_cmdline>
J2VwaWtfcHl0aG9uJywgJy1waCcsICc3LjAnLCAnLXRuJywgJzgnLCAnLW1hJywgJzIwMCcsICctbWV0YWxfYmluZGluZycsICctaW1hZScsICc8aW5maWxlLm1hZT4nLCAnLW9tYWUnLCAnPG91dGZpbGUubWFlPic=

> <r_lp_tautomer_probability>
1

> <r_epik_Ionization_Penalty>
0.00571331

> <r_epik_Ionization_Penalty_Charging>
0

> <r_epik_Ionization_Penalty_Neutral>
0.00571331

> <r_epik_State_Penalty>
0.00399586

> <r_epik_Charging_Adjusted_Penalty>
0.00399586

> <i_epik_Tot_Q>
0

> <i_epik_Tot_abs_Q>
0

> <r_epik_Metal_State_Penalty>
-0

> <b_epik_Metal_Only>
0

> <s_lp_Force_Field>
OPLS_2005

> <r_lp_Energy>
56.2514

> <b_lp_Chiralities_Consistent>
1

> <s_lp_Variant>
AV-unprocessed.smi:281-2

> <Gold.Version>
5.8.1

> <Gold.Id.Protein>
6NUR|6NUR_protein|mol2

> <Gold.PLP.Fitness>
46.2085

> <Gold.PLP.PLP>
-34.4724

> <Gold.PLP.part.hbond>
-3.0000

> <Gold.PLP.part.metal>
0.0000

> <Gold.PLP.part.buried>
-6.2406

> <Gold.PLP.part.nonpolar>
-26.1862

> <Gold.PLP.part.repulsive>
0.3405

> <Gold.PLP.ligand.clash>
0.0000

> <Gold.PLP.ligand.torsion>
0.3465

> <Gold.PLP.Chemscore.Hbond>
2.9750

> <Gold.PLP.Chemscore.CHOScore>
1.1223

> <Gold.PLP.Chemscore.Metal>
0.0000

> <Gold.Chemscore.Hbonds>
donor molecule, donor type, donor heavy atom, donor atom, acceptor molecule, acceptor atom, score
      L1  H    16    39       P1  8028  0.50
      P1  H  6896  6908       L1    28  0.81
      P1  H  7989  7998       L1     8  1.00
      L1  C     7    35       P1  7948  0.05
      L1  C     7    35       P1  7957  1.00

> <Gold.PLP.Chemscore.Internal.Correction>
0.1371

> <Gold.Rescore>
     Score         DG    S(hbond)    S(metal)    S(lipo)     H(rot)  DE(clash)    DE(int)     intcor
     12.99     -17.67       2.05        0.00      91.49       2.09       0.87       3.80       ----

> <Gold.Chemscore.Fitness>
12.9934

> <Gold.Chemscore.DG>
-17.6667

> <Gold.Chemscore.ZeroCoef>
-5.4800

> <Gold.Chemscore.Hbond>
2.0477

> <Gold.Chemscore.Metal>
0.0000

> <Gold.Chemscore.Lipo>
91.4938

> <Gold.Chemscore.Internal_Hbond>
0.0000

> <Gold.Chemscore.DEClash>
0.8741

> <Gold.Chemscore.DEInternal>
3.7992

> <Gold.Chemscore.Rot>
2.0927

> <Gold.Chemscore.Internal.Correction>
   9.000000E+99

> <Gold.Chemscore.Hbonds>
donor molecule, donor type, donor heavy atom, donor atom, acceptor molecule, acceptor atom, score
      L1  H    16    39       P1  8028  0.11
      P1  H  6896  6908       L1    28  0.54
      P1  H  7989  7998       L1     8  0.88

> <Gold.Chemscore.Hbond.Weighted>
-6.8393

> <Gold.Chemscore.Metal.Weighted>
-0.0000

> <Gold.Chemscore.Lipo.Weighted>
-10.7048

> <Gold.Chemscore.Internal_Hbond.Weighted>
0.0000

> <Gold.Chemscore.DEClash.Weighted>
0.8741

> <Gold.Chemscore.DEInternal.Weighted>
3.7992

> <Gold.Chemscore.Rot.Weighted>
5.3573

> <Gold.Chemscore.Internal.Correction.Weighted>
   9.000000E+99

> <Gold.Protein.RotatedTorsions>
[ 6907 6896 6895 6894 ] final  132.55 input  -60.11 | X-H torsion
[ 7974 7965 7964 7962 ] final   -0.05 input  175.53 | X-H torsion
[ 8008 7997 7996 7995 ] final   -4.99 input   59.86 | X-H torsion
[ 10167 10162 10161 10158 ] final  120.55 input  -65.29 | X-H torsion
[ 10718 10713 10712 10709 ] final  111.55 input   66.30 | X-H torsion
[ 10763 10752 10751 10750 ] final   96.34 input  -60.55 | X-H torsion
[ 11005 11000 10999 10996 ] final  -15.70 input  -57.11 | X-H torsion

> <Gold.Protein.ActiveResidues>
 VAL166  LYS551  ARG553  GLY616  TRP617  ASP618  TYR619  PRO620  LYS621  CYS622 
 ASP623  PHE694  ASN695  SER759  ASP760  ASP761  ALA762  ILE779  LEU786  VAL792 
 PHE793  MET794  SER795  GLU796  ALA797  LYS798  CYS799  TRP800  GLU811  SER814 

> <Gold.Protein.RotatedAtoms>
  152.3312  133.5960  159.5810 H   0  0  0  0  0  0  0  0  0  0  0  0  # atno 6907 bound_to 6896
  150.7424  133.9865  159.3602 H   0  0  0  0  0  0  0  0  0  0  0  0  # atno 6908 bound_to 6896
  151.7739  135.0780  160.0415 H   0  0  0  0  0  0  0  0  0  0  0  0  # atno 6909 bound_to 6896
  146.2430  140.1212  142.8340 H   0  0  0  0  0  0  0  0  0  0  0  0  # atno 7974 bound_to 7965
  154.6085  140.2470  155.7700 H   0  0  0  0  0  0  0  0  0  0  0  0  # atno 8008 bound_to 7997
  156.2356  140.2951  156.0254 H   0  0  0  0  0  0  0  0  0  0  0  0  # atno 8009 bound_to 7997
  155.2092  140.0396  157.2921 H   0  0  0  0  0  0  0  0  0  0  0  0  # atno 8010 bound_to 7997
  139.5975  144.7046  151.3141 H   0  0  0  0  0  0  0  0  0  0  0  0  # atno 10167 bound_to 10162
  157.6439  131.0952  150.6765 H   0  0  0  0  0  0  0  0  0  0  0  0  # atno 10718 bound_to 10713
  153.2638  135.4222  155.0921 H   0  0  0  0  0  0  0  0  0  0  0  0  # atno 10763 bound_to 10752
  154.8430  135.3455  154.6340 H   0  0  0  0  0  0  0  0  0  0  0  0  # atno 10764 bound_to 10752
  153.6760  135.7041  153.5190 H   0  0  0  0  0  0  0  0  0  0  0  0  # atno 10765 bound_to 10752
  140.7993  133.8226  155.9455 H   0  0  0  0  0  0  0  0  0  0  0  0  # atno 11005 bound_to 11000
  145.0405  140.8941  143.5055 LP  0  0  0  0  0  0  0  0  0  0  0  0  # atno 17320 bound_to 7965
  145.1291  139.2643  143.5548 LP  0  0  0  0  0  0  0  0  0  0  0  0  # atno 17321 bound_to 7965
  140.7223  143.7100  150.7777 LP  0  0  0  0  0  0  0  0  0  0  0  0  # atno 17342 bound_to 10162
  140.0669  143.5099  152.2599 LP  0  0  0  0  0  0  0  0  0  0  0  0  # atno 17343 bound_to 10162
  156.7085  130.4644  149.5553 LP  0  0  0  0  0  0  0  0  0  0  0  0  # atno 17370 bound_to 10713
  156.1746  130.6459  151.0879 LP  0  0  0  0  0  0  0  0  0  0  0  0  # atno 17371 bound_to 10713
  140.9310  134.2021  157.4863 LP  0  0  0  0  0  0  0  0  0  0  0  0  # atno 17394 bound_to 11000
  139.8723  134.9833  156.5191 LP  0  0  0  0  0  0  0  0  0  0  0  0  # atno 17395 bound_to 11000

$$$$
