AV-unprocessed.smi:1072|AV-procd|sdf|4683|dock10
  -GOLD-   22720 3203D 1   1.00000     0.00000
 Structure written by MMmdl.
 46 47  0  0  0  0  0  0  0  0  1 V2000
  152.0333  144.1561  160.0431 C   0  0  0  0  0  0  0  0  0  0  0  0
  152.4553  142.7175  159.8328 C   0  0  0  0  0  0  0  0  0  0  0  0
  153.1631  142.0436  160.6784 N   0  0  0  0  0  0  0  0  0  0  0  0
  153.4905  140.7148  160.3747 C   0  0  0  0  0  0  0  0  0  0  0  0
  154.3185  139.9879  161.4207 C   0  0  0  0  0  0  0  0  0  0  0  0
  153.0827  140.1244  159.2131 C   0  0  0  0  0  0  0  0  0  0  0  0
  153.4204  138.6770  158.8581 C   0  0  0  0  0  0  0  0  0  0  0  0
  152.2383  137.8054  158.4274 C   0  0  0  0  0  0  0  0  0  0  0  0
  151.7387  137.0074  159.2203 O   0  0  0  0  0  0  0  0  0  0  0  0
  151.8183  137.9703  157.1609 N   0  0  0  0  0  0  0  0  0  0  0  0
  150.7447  137.2608  156.4497 C   0  0  1  0  0  0  0  0  0  0  0  0
  150.8378  135.7481  156.7449 C   0  0  0  0  0  0  0  0  0  0  0  0
  149.3421  137.8011  156.8360 C   0  0  0  0  0  0  0  0  0  0  0  0
  149.1352  139.2708  156.4283 C   0  0  0  0  0  0  0  0  0  0  0  0
  149.3570  139.4721  154.9185 C   0  0  1  0  0  0  0  0  0  0  0  0
  149.1594  140.9393  154.5129 C   0  0  0  0  0  0  0  0  0  0  0  0
  150.7475  138.9543  154.5084 C   0  0  0  0  0  0  0  0  0  0  0  0
  150.9565  137.4880  154.9333 C   0  0  0  0  0  0  0  0  0  0  0  0
  152.2750  140.9034  158.2546 C   0  0  0  0  0  0  0  0  0  0  0  0
  151.8510  140.4698  157.1845 O   0  0  0  0  0  0  0  0  0  0  0  0
  152.0077  142.1745  158.6294 N   0  0  0  0  0  0  0  0  0  0  0  0
  151.4569  142.7482  158.0076 H   0  0  0  0  0  0  0  0  0  0  0  0
  151.4179  144.2383  160.9392 H   0  0  0  0  0  0  0  0  0  0  0  0
  151.4585  144.5358  159.1975 H   0  0  0  0  0  0  0  0  0  0  0  0
  152.9109  144.7899  160.1707 H   0  0  0  0  0  0  0  0  0  0  0  0
  155.2894  139.7076  161.0125 H   0  0  0  0  0  0  0  0  0  0  0  0
  153.8087  139.0854  161.7581 H   0  0  0  0  0  0  0  0  0  0  0  0
  154.4922  140.6165  162.2949 H   0  0  0  0  0  0  0  0  0  0  0  0
  154.1738  138.6383  158.0708 H   0  0  0  0  0  0  0  0  0  0  0  0
  153.8994  138.2172  159.7233 H   0  0  0  0  0  0  0  0  0  0  0  0
  152.3106  138.6619  156.6145 H   0  0  0  0  0  0  0  0  0  0  0  0
  150.1096  135.1871  156.1586 H   0  0  0  0  0  0  0  0  0  0  0  0
  150.6435  135.5218  157.7932 H   0  0  0  0  0  0  0  0  0  0  0  0
  151.8259  135.3560  156.5007 H   0  0  0  0  0  0  0  0  0  0  0  0
  148.5788  137.1957  156.3451 H   0  0  0  0  0  0  0  0  0  0  0  0
  149.1561  137.6884  157.9037 H   0  0  0  0  0  0  0  0  0  0  0  0
  148.1260  139.5830  156.6995 H   0  0  0  0  0  0  0  0  0  0  0  0
  149.8140  139.9108  156.9933 H   0  0  0  0  0  0  0  0  0  0  0  0
  148.6093  138.8811  154.3876 H   0  0  0  0  0  0  0  0  0  0  0  0
  149.8741  141.5897  155.0179 H   0  0  0  0  0  0  0  0  0  0  0  0
  148.1570  141.2847  154.7677 H   0  0  0  0  0  0  0  0  0  0  0  0
  149.2901  141.0710  153.4385 H   0  0  0  0  0  0  0  0  0  0  0  0
  150.8700  139.0386  153.4281 H   0  0  0  0  0  0  0  0  0  0  0  0
  151.5211  139.5832  154.9511 H   0  0  0  0  0  0  0  0  0  0  0  0
  151.9556  137.1628  154.6396 H   0  0  0  0  0  0  0  0  0  0  0  0
  150.2615  136.8619  154.3715 H   0  0  0  0  0  0  0  0  0  0  0  0
  1  2  1  0  0  0  0
  1 23  1  0  0  0  0
  1 24  1  0  0  0  0
  1 25  1  0  0  0  0
  2 21  1  0  0  0  0
  2  3  2  0  0  0  0
  3  4  1  0  0  0  0
  4  5  1  0  0  0  0
  4  6  2  0  0  0  0
  5 26  1  0  0  0  0
  5 27  1  0  0  0  0
  5 28  1  0  0  0  0
  6  7  1  0  0  0  0
  6 19  1  0  0  0  0
  7  8  1  0  0  0  0
  7 29  1  0  0  0  0
  7 30  1  0  0  0  0
  8  9  2  0  0  0  0
  8 10  1  0  0  0  0
 10 11  1  0  0  0  0
 10 31  1  0  0  0  0
 11 18  1  0  0  0  0
 11 12  1  0  0  0  0
 11 13  1  0  0  0  0
 12 32  1  0  0  0  0
 12 33  1  0  0  0  0
 12 34  1  0  0  0  0
 13 14  1  0  0  0  0
 13 35  1  0  0  0  0
 13 36  1  0  0  0  0
 14 15  1  0  0  0  0
 14 37  1  0  0  0  0
 14 38  1  0  0  0  0
 15 16  1  0  0  0  0
 15 17  1  0  0  0  0
 15 39  1  0  0  0  0
 16 40  1  0  0  0  0
 16 41  1  0  0  0  0
 16 42  1  0  0  0  0
 17 18  1  0  0  0  0
 17 43  1  0  0  0  0
 17 44  1  0  0  0  0
 18 45  1  0  0  0  0
 18 46  1  0  0  0  0
 19 20  2  0  0  0  0
 19 21  1  0  0  0  0
 21 22  1  0  0  0  0
M  END
> <s_m_source_file>
AV-unprocessed.smi

> <i_m_source_file_index>
1072

> <i_lp_mmshare_version>
43012

> <i_f3d_flags>
0

> <s_epik_input>
W0NIM11jMW5jKFtDSDNdKWMoYyg9TylbbkhdMSlbQ0gyXUMoPU8pW05IXVtDQEBdMihbQ0gzXSlbQ0gyXVtDSDJdW0NAQEhdKFtDSDNdKVtDSDJdW0NIMl0y

> <s_epik_cmdline>
J2VwaWtfcHl0aG9uJywgJy1waCcsICc3LjAnLCAnLXRuJywgJzgnLCAnLW1hJywgJzIwMCcsICctbWV0YWxfYmluZGluZycsICctaW1hZScsICc8aW5maWxlLm1hZT4nLCAnLW9tYWUnLCAnPG91dGZpbGUubWFlPic=

> <r_lp_tautomer_probability>
0.839158

> <r_epik_Ionization_Penalty>
0.000352328

> <r_epik_Ionization_Penalty_Charging>
0.000314696

> <r_epik_Ionization_Penalty_Neutral>
3.76315e-05

> <r_epik_State_Penalty>
0.09125

> <r_epik_Charging_Adjusted_Penalty>
0.0915647

> <i_epik_Tot_Q>
0

> <i_epik_Tot_abs_Q>
0

> <r_epik_Metal_State_Penalty>
0.245598

> <b_epik_Metal_Only>
0

> <s_lp_Force_Field>
OPLS_2005

> <r_lp_Energy>
11.0611

> <b_lp_Chiralities_Consistent>
1

> <s_lp_Variant>
AV-unprocessed.smi:1072-1

> <Gold.Version>
5.8.1

> <Gold.Id.Protein>
6NUR|6NUR_protein|mol2

> <Gold.PLP.Fitness>
34.8546

> <Gold.PLP.PLP>
-33.3294

> <Gold.PLP.part.hbond>
-1.0000

> <Gold.PLP.part.metal>
0.0000

> <Gold.PLP.part.buried>
-6.0308

> <Gold.PLP.part.nonpolar>
-27.2374

> <Gold.PLP.part.repulsive>
0.1457

> <Gold.PLP.ligand.clash>
0.0085

> <Gold.PLP.ligand.torsion>
0.6980

> <Gold.PLP.Chemscore.Hbond>
0.9750

> <Gold.PLP.Chemscore.CHOScore>
0.0000

> <Gold.PLP.Chemscore.Metal>
0.0000

> <Gold.Chemscore.Hbonds>
donor molecule, donor type, donor heavy atom, donor atom, acceptor molecule, acceptor atom, score
      P1  H  6896  6908       L1     9  1.00

> <Gold.PLP.Chemscore.Internal.Correction>
0.0048

> <Gold.Rescore>
     Score         DG    S(hbond)    S(metal)    S(lipo)     H(rot)  DE(clash)    DE(int)     intcor
     10.62     -14.02       0.97        0.00      77.43       1.47       0.07       3.33       ----

> <Gold.Chemscore.Fitness>
10.6183

> <Gold.Chemscore.DG>
-14.0239

> <Gold.Chemscore.ZeroCoef>
-5.4800

> <Gold.Chemscore.Hbond>
0.9716

> <Gold.Chemscore.Metal>
0.0000

> <Gold.Chemscore.Lipo>
77.4314

> <Gold.Chemscore.Internal_Hbond>
0.0000

> <Gold.Chemscore.DEClash>
0.0727

> <Gold.Chemscore.DEInternal>
3.3329

> <Gold.Chemscore.Rot>
1.4690

> <Gold.Chemscore.Internal.Correction>
   9.000000E+99

> <Gold.Chemscore.Hbonds>
donor molecule, donor type, donor heavy atom, donor atom, acceptor molecule, acceptor atom, score
      P1  H  6896  6908       L1     9  0.94

> <Gold.Chemscore.Hbond.Weighted>
-3.2451

> <Gold.Chemscore.Metal.Weighted>
-0.0000

> <Gold.Chemscore.Lipo.Weighted>
-9.0595

> <Gold.Chemscore.Internal_Hbond.Weighted>
0.0000

> <Gold.Chemscore.DEClash.Weighted>
0.0727

> <Gold.Chemscore.DEInternal.Weighted>
3.3329

> <Gold.Chemscore.Rot.Weighted>
3.7607

> <Gold.Chemscore.Internal.Correction.Weighted>
   9.000000E+99

> <Gold.Protein.RotatedTorsions>
[ 6907 6896 6895 6894 ] final -129.14 input  -60.11 | X-H torsion
[ 7974 7965 7964 7962 ] final  152.64 input  175.53 | X-H torsion
[ 8008 7997 7996 7995 ] final  -95.50 input   59.86 | X-H torsion
[ 10167 10162 10161 10158 ] final   97.62 input  -65.29 | X-H torsion
[ 10718 10713 10712 10709 ] final  -35.34 input   66.30 | X-H torsion
[ 10763 10752 10751 10750 ] final   81.35 input  -60.55 | X-H torsion
[ 11005 11000 10999 10996 ] final  -28.19 input  -57.11 | X-H torsion

> <Gold.Protein.ActiveResidues>
 VAL166  LYS551  ARG553  GLY616  TRP617  ASP618  TYR619  PRO620  LYS621  CYS622 
 ASP623  PHE694  ASN695  SER759  ASP760  ASP761  ALA762  ILE779  LEU786  VAL792 
 PHE793  MET794  SER795  GLU796  ALA797  LYS798  CYS799  TRP800  GLU811  SER814 

> <Gold.Protein.RotatedAtoms>
  150.9254  133.6830  159.2822 H   0  0  0  0  0  0  0  0  0  0  0  0  # atno 6907 bound_to 6896
  151.4270  135.1003  159.9640 H   0  0  0  0  0  0  0  0  0  0  0  0  # atno 6908 bound_to 6896
  152.5000  133.8693  159.7345 H   0  0  0  0  0  0  0  0  0  0  0  0  # atno 6909 bound_to 6896
  144.8208  139.6696  143.6101 H   0  0  0  0  0  0  0  0  0  0  0  0  # atno 7974 bound_to 7965
  154.7622  140.0479  157.0982 H   0  0  0  0  0  0  0  0  0  0  0  0  # atno 8008 bound_to 7997
  154.9924  140.3115  155.4881 H   0  0  0  0  0  0  0  0  0  0  0  0  # atno 8009 bound_to 7997
  156.2906  140.2216  156.5029 H   0  0  0  0  0  0  0  0  0  0  0  0  # atno 8010 bound_to 7997
  139.7784  144.6897  151.0057 H   0  0  0  0  0  0  0  0  0  0  0  0  # atno 10167 bound_to 10162
  156.3398  130.4292  149.7797 H   0  0  0  0  0  0  0  0  0  0  0  0  # atno 10718 bound_to 10713
  153.1110  135.4768  154.9034 H   0  0  0  0  0  0  0  0  0  0  0  0  # atno 10763 bound_to 10752
  154.7480  135.3099  154.8612 H   0  0  0  0  0  0  0  0  0  0  0  0  # atno 10764 bound_to 10752
  153.9201  135.6856  153.4801 H   0  0  0  0  0  0  0  0  0  0  0  0  # atno 10765 bound_to 10752
  140.9186  133.7413  156.0770 H   0  0  0  0  0  0  0  0  0  0  0  0  # atno 11005 bound_to 11000
  146.2513  139.6207  142.9425 LP  0  0  0  0  0  0  0  0  0  0  0  0  # atno 17320 bound_to 7965
  145.5109  141.0435  143.2488 LP  0  0  0  0  0  0  0  0  0  0  0  0  # atno 17321 bound_to 7965
  140.7817  143.4510  151.0413 LP  0  0  0  0  0  0  0  0  0  0  0  0  # atno 17342 bound_to 10162
  139.8192  143.7844  152.3176 LP  0  0  0  0  0  0  0  0  0  0  0  0  # atno 17343 bound_to 10162
  156.5038  130.8141  151.3143 LP  0  0  0  0  0  0  0  0  0  0  0  0  # atno 17370 bound_to 10713
  157.7445  130.9936  150.2678 LP  0  0  0  0  0  0  0  0  0  0  0  0  # atno 17371 bound_to 10713
  140.8017  134.3501  157.5437 LP  0  0  0  0  0  0  0  0  0  0  0  0  # atno 17394 bound_to 11000
  139.8771  134.9201  156.3244 LP  0  0  0  0  0  0  0  0  0  0  0  0  # atno 17395 bound_to 11000

$$$$
