AV-unprocessed.smi:1385|AV-procd|sdf|5631|dock3
  -GOLD-   22720 5243D 1   1.00000     0.00000
 Structure written by MMmdl.
 37 38  0  0  0  0  0  0  0  0  2 V2000
  147.2808  136.4328  162.8904 C   0  0  0  0  0  0  0  0  0  0  0  0
  147.6826  136.0864  161.4976 C   0  0  0  0  0  0  0  0  0  0  0  0
  148.1510  136.9913  160.6347 N   0  0  0  0  0  0  0  0  0  0  0  0
  148.4552  136.4301  159.4029 N   0  0  0  0  0  0  0  0  0  0  0  0
  148.2020  135.1146  159.3473 C   0  0  0  0  0  0  0  0  0  0  0  0
  148.4284  134.3819  158.2445 N   0  5  0  0  0  0  0  0  0  0  0  0
  148.0327  134.8419  157.0358 C   0  0  0  0  0  0  0  0  0  0  0  0
  147.4619  135.9123  156.8130 O   0  0  0  0  0  0  0  0  0  0  0  0
  148.3163  134.0105  156.0229 N   0  0  0  0  0  0  0  0  0  0  0  0
  148.0188  134.2441  154.6125 C   0  0  0  0  0  0  0  0  0  0  0  0
  146.5277  134.5604  154.4354 C   0  0  0  0  0  0  0  0  0  0  0  0
  146.1658  134.6972  152.9463 C   0  0  0  0  0  0  0  0  0  0  0  0
  146.4915  133.4658  152.2188 N   0  0  0  0  0  0  0  0  0  0  0  0
  146.0165  133.5845  150.8216 C   0  0  0  0  0  0  0  0  0  0  0  0
  144.4954  133.7136  150.6799 C   0  0  0  0  0  0  0  0  0  0  0  0
  144.0026  133.8067  149.4423 N   0  0  0  0  0  0  0  0  0  0  0  0
  143.7757  133.7222  151.6761 O   0  0  0  0  0  0  0  0  0  0  0  0
  147.9339  133.1913  152.3034 C   0  0  0  0  0  0  0  0  0  0  0  0
  148.3685  133.0086  153.7680 C   0  0  0  0  0  0  0  0  0  0  0  0
  147.5740  134.4555  160.8575 S   0  0  0  0  0  0  0  0  0  0  0  0
  146.2822  136.8699  162.8916 H   0  0  0  0  0  0  0  0  0  0  0  0
  147.9803  137.1512  163.3188 H   0  0  0  0  0  0  0  0  0  0  0  0
  147.2733  135.5393  163.5148 H   0  0  0  0  0  0  0  0  0  0  0  0
  148.7855  133.1466  156.2521 H   0  0  0  0  0  0  0  0  0  0  0  0
  148.5956  135.0994  154.2553 H   0  0  0  0  0  0  0  0  0  0  0  0
  145.9213  133.7723  154.8853 H   0  0  0  0  0  0  0  0  0  0  0  0
  146.2773  135.4820  154.9619 H   0  0  0  0  0  0  0  0  0  0  0  0
  145.0982  134.9049  152.8627 H   0  0  0  0  0  0  0  0  0  0  0  0
  146.6896  135.5482  152.5072 H   0  0  0  0  0  0  0  0  0  0  0  0
  146.4538  134.4740  150.3654 H   0  0  0  0  0  0  0  0  0  0  0  0
  146.3714  132.7329  150.2377 H   0  0  0  0  0  0  0  0  0  0  0  0
  143.0071  133.8968  149.3005 H   0  0  0  0  0  0  0  0  0  0  0  0
  144.6304  133.7901  148.6518 H   0  0  0  0  0  0  0  0  0  0  0  0
  148.1901  132.2804  151.7627 H   0  0  0  0  0  0  0  0  0  0  0  0
  148.4987  134.0027  151.8412 H   0  0  0  0  0  0  0  0  0  0  0  0
  149.4414  132.8169  153.8100 H   0  0  0  0  0  0  0  0  0  0  0  0
  147.8813  132.1243  154.1823 H   0  0  0  0  0  0  0  0  0  0  0  0
  1  2  1  0  0  0  0
  1 21  1  0  0  0  0
  1 22  1  0  0  0  0
  1 23  1  0  0  0  0
  2 20  1  0  0  0  0
  2  3  2  0  0  0  0
  3  4  1  0  0  0  0
  4  5  2  0  0  0  0
  5  6  1  0  0  0  0
  5 20  1  0  0  0  0
  6  7  1  0  0  0  0
  7  8  2  0  0  0  0
  7  9  1  0  0  0  0
  9 10  1  0  0  0  0
  9 24  1  0  0  0  0
 10 19  1  0  0  0  0
 10 11  1  0  0  0  0
 10 25  1  0  0  0  0
 11 12  1  0  0  0  0
 11 26  1  0  0  0  0
 11 27  1  0  0  0  0
 12 13  1  0  0  0  0
 12 28  1  0  0  0  0
 12 29  1  0  0  0  0
 13 14  1  0  0  0  0
 13 18  1  0  0  0  0
 14 15  1  0  0  0  0
 14 30  1  0  0  0  0
 14 31  1  0  0  0  0
 15 16  1  0  0  0  0
 15 17  2  0  0  0  0
 16 32  1  0  0  0  0
 16 33  1  0  0  0  0
 18 19  1  0  0  0  0
 18 34  1  0  0  0  0
 18 35  1  0  0  0  0
 19 36  1  0  0  0  0
 19 37  1  0  0  0  0
M  CHG  1   6  -1
M  END
> <s_m_source_file>
AV-unprocessed.smi

> <i_m_source_file_index>
1385

> <i_lp_mmshare_version>
43012

> <i_f3d_flags>
0

> <s_epik_input>
W0NIM11jMW5uYyhzMSlbTkhdQyg9TylbTkhdW0NIXTJbQ0gyXVtDSDJdTihbQ0gyXVtDSDJdMilbQ0gyXUMoPU8pW05IMl0=

> <s_epik_cmdline>
J2VwaWtfcHl0aG9uJywgJy1waCcsICc3LjAnLCAnLXRuJywgJzgnLCAnLW1hJywgJzIwMCcsICctbWV0YWxfYmluZGluZycsICctaW1hZScsICc8aW5maWxlLm1hZT4nLCAnLW9tYWUnLCAnPG91dGZpbGUubWFlPic=

> <r_lp_tautomer_probability>
1

> <r_epik_Ionization_Penalty>
3.72698

> <r_epik_Ionization_Penalty_Charging>
3.38897

> <r_epik_Ionization_Penalty_Neutral>
0.338006

> <r_epik_State_Penalty>
3.53372

> <r_epik_Charging_Adjusted_Penalty>
6.92269

> <i_epik_Tot_Q>
-1

> <i_epik_Tot_abs_Q>
1

> <r_epik_Metal_State_Penalty>
0.657042

> <b_epik_Metal_Only>
1

> <s_lp_Force_Field>
OPLS_2005

> <r_lp_Energy>
7.29134

> <b_lp_Chiralities_Consistent>
1

> <s_lp_Variant>
AV-unprocessed.smi:1385-4

> <Gold.Version>
5.8.1

> <Gold.Id.Protein>
6NUR|6NUR_protein|mol2

> <Gold.PLP.Fitness>
36.0991

> <Gold.PLP.PLP>
-26.9683

> <Gold.PLP.part.hbond>
-4.0000

> <Gold.PLP.part.metal>
0.0000

> <Gold.PLP.part.buried>
-3.3228

> <Gold.PLP.part.nonpolar>
-19.8272

> <Gold.PLP.part.repulsive>
0.3658

> <Gold.PLP.ligand.clash>
0.0000

> <Gold.PLP.ligand.torsion>
0.4284

> <Gold.PLP.Chemscore.Hbond>
3.3008

> <Gold.PLP.Chemscore.CHOScore>
0.0000

> <Gold.PLP.Chemscore.Metal>
0.0000

> <Gold.Chemscore.Hbonds>
donor molecule, donor type, donor heavy atom, donor atom, acceptor molecule, acceptor atom, score
      L1  H    16    32       P1 10186  0.88
      L1  H    16    33       P1  7921  0.83
      P1  H  6931  6943       L1     3  0.90
      P1  H  6934  6947       L1     3  0.31

> <Gold.PLP.Chemscore.Internal.Correction>
0.0852

> <Gold.Rescore>
     Score         DG    S(hbond)    S(metal)    S(lipo)     H(rot)  DE(clash)    DE(int)     intcor
     11.97     -15.87       2.88        0.00      50.75       2.02       0.00       3.89       ----

> <Gold.Chemscore.Fitness>
11.9709

> <Gold.Chemscore.DG>
-15.8663

> <Gold.Chemscore.ZeroCoef>
-5.4800

> <Gold.Chemscore.Hbond>
2.8774

> <Gold.Chemscore.Metal>
0.0000

> <Gold.Chemscore.Lipo>
50.7482

> <Gold.Chemscore.Internal_Hbond>
0.0000

> <Gold.Chemscore.DEClash>
0.0004

> <Gold.Chemscore.DEInternal>
3.8950

> <Gold.Chemscore.Rot>
2.0163

> <Gold.Chemscore.Internal.Correction>
   9.000000E+99

> <Gold.Chemscore.Hbonds>
donor molecule, donor type, donor heavy atom, donor atom, acceptor molecule, acceptor atom, score
      L1  H    16    32       P1 10186  0.85
      L1  H    16    33       P1  7921  0.76
      P1  H  6931  6943       L1     3  0.22
      P1  H  6934  6947       L1     3  0.25

> <Gold.Chemscore.Hbond.Weighted>
-9.6105

> <Gold.Chemscore.Metal.Weighted>
-0.0000

> <Gold.Chemscore.Lipo.Weighted>
-5.9375

> <Gold.Chemscore.Internal_Hbond.Weighted>
0.0000

> <Gold.Chemscore.DEClash.Weighted>
0.0004

> <Gold.Chemscore.DEInternal.Weighted>
3.8950

> <Gold.Chemscore.Rot.Weighted>
5.1617

> <Gold.Chemscore.Internal.Correction.Weighted>
   9.000000E+99

> <Gold.Protein.RotatedTorsions>
[ 6907 6896 6895 6894 ] final  136.50 input  -60.11 | X-H torsion
[ 7974 7965 7964 7962 ] final  168.80 input  175.53 | X-H torsion
[ 8008 7997 7996 7995 ] final   25.88 input   59.86 | X-H torsion
[ 10167 10162 10161 10158 ] final  105.96 input  -65.29 | X-H torsion
[ 10718 10713 10712 10709 ] final -168.53 input   66.30 | X-H torsion
[ 10763 10752 10751 10750 ] final  -16.87 input  -60.55 | X-H torsion
[ 11005 11000 10999 10996 ] final   36.02 input  -57.11 | X-H torsion

> <Gold.Protein.ActiveResidues>
 VAL166  LYS551  ARG553  GLY616  TRP617  ASP618  TYR619  PRO620  LYS621  CYS622 
 ASP623  PHE694  ASN695  SER759  ASP760  ASP761  ALA762  ILE779  LEU786  VAL792 
 PHE793  MET794  SER795  GLU796  ALA797  LYS798  CYS799  TRP800  GLU811  SER814 

> <Gold.Protein.RotatedAtoms>
  152.2886  133.5539  159.5542 H   0  0  0  0  0  0  0  0  0  0  0  0  # atno 6907 bound_to 6896
  150.7226  134.0461  159.3791 H   0  0  0  0  0  0  0  0  0  0  0  0  # atno 6908 bound_to 6896
  151.8368  135.0603  160.0494 H   0  0  0  0  0  0  0  0  0  0  0  0  # atno 6909 bound_to 6896
  144.7376  139.8960  143.6406 H   0  0  0  0  0  0  0  0  0  0  0  0  # atno 7974 bound_to 7965
  155.0186  140.3145  155.4802 H   0  0  0  0  0  0  0  0  0  0  0  0  # atno 8008 bound_to 7997
  156.2896  140.2201  156.5245 H   0  0  0  0  0  0  0  0  0  0  0  0  # atno 8009 bound_to 7997
  154.7471  140.0469  157.0850 H   0  0  0  0  0  0  0  0  0  0  0  0  # atno 8010 bound_to 7997
  139.7049  144.7088  151.1123 H   0  0  0  0  0  0  0  0  0  0  0  0  # atno 10167 bound_to 10162
  156.6983  130.9186  151.3077 H   0  0  0  0  0  0  0  0  0  0  0  0  # atno 10718 bound_to 10713
  153.5652  135.7009  153.5529 H   0  0  0  0  0  0  0  0  0  0  0  0  # atno 10763 bound_to 10752
  153.3394  135.4025  155.1559 H   0  0  0  0  0  0  0  0  0  0  0  0  # atno 10764 bound_to 10752
  154.8642  135.3738  154.5171 H   0  0  0  0  0  0  0  0  0  0  0  0  # atno 10765 bound_to 10752
  140.2368  134.3462  155.7941 H   0  0  0  0  0  0  0  0  0  0  0  0  # atno 11005 bound_to 11000
  146.1107  139.4111  143.0289 LP  0  0  0  0  0  0  0  0  0  0  0  0  # atno 17320 bound_to 7965
  145.7447  140.9995  143.1282 LP  0  0  0  0  0  0  0  0  0  0  0  0  # atno 17321 bound_to 7965
  140.7719  143.5372  150.9354 LP  0  0  0  0  0  0  0  0  0  0  0  0  # atno 17342 bound_to 10162
  139.9055  143.6783  152.3124 LP  0  0  0  0  0  0  0  0  0  0  0  0  # atno 17343 bound_to 10162
  157.6983  130.9305  150.0708 LP  0  0  0  0  0  0  0  0  0  0  0  0  # atno 17370 bound_to 10713
  156.1747  130.3647  149.9117 LP  0  0  0  0  0  0  0  0  0  0  0  0  # atno 17371 bound_to 10713
  141.2214  133.7276  156.8820 LP  0  0  0  0  0  0  0  0  0  0  0  0  # atno 17394 bound_to 11000
  140.1694  134.9110  157.2815 LP  0  0  0  0  0  0  0  0  0  0  0  0  # atno 17395 bound_to 11000

$$$$
