AV-unprocessed.smi:125|AV-procd|sdf|1150|dock5
  -GOLD-   2262018283D 1   1.00000     0.00000
 Structure written by MMmdl.
 59 62  0  0  0  0  0  0  0  0  1 V2000
  146.4474  133.8878  158.8938 C   0  0  0  0  0  0  0  0  0  0  0  0
  147.4142  134.9167  158.3311 C   0  0  0  0  0  0  0  0  0  0  0  0
  148.4320  134.4760  157.4589 C   0  0  0  0  0  0  0  0  0  0  0  0
  149.3564  135.3845  156.9104 C   0  0  0  0  0  0  0  0  0  0  0  0
  149.2705  136.7614  157.2203 C   0  0  0  0  0  0  0  0  0  0  0  0
  150.1826  137.7343  156.7298 N   0  0  0  0  0  0  0  0  0  0  0  0
  151.2907  137.5489  155.9897 C   0  0  0  0  0  0  0  0  0  0  0  0
  151.6737  136.4558  155.5704 O   0  0  0  0  0  0  0  0  0  0  0  0
  152.0688  138.8314  155.6547 C   0  0  0  0  0  0  0  0  0  0  0  0
  152.2524  139.7354  156.8118 N   0  0  0  0  0  0  0  0  0  0  0  0
  152.9132  139.2389  157.9629 C   0  0  0  0  0  0  0  0  0  0  0  0
  153.3283  138.0799  158.0104 O   0  0  0  0  0  0  0  0  0  0  0  0
  153.0640  140.1868  159.0612 C   0  0  0  0  0  0  0  0  0  0  0  0
  153.6628  139.7973  160.1993 F   0  0  0  0  0  0  0  0  0  0  0  0
  152.6065  141.4512  158.9550 C   0  0  0  0  0  0  0  0  0  0  0  0
  151.9799  141.9279  157.8179 N   0  0  0  0  0  0  0  0  0  0  0  0
  151.4771  143.3526  157.7308 C   0  0  1  0  0  0  0  0  0  0  0  0
  150.6632  143.7033  158.9811 C   0  0  0  0  0  0  0  0  0  0  0  0
  151.7206  144.3100  159.8771 C   0  0  0  0  0  0  0  0  0  0  0  0
  152.6060  145.0280  158.8645 C   0  0  0  0  0  0  0  0  0  0  0  0
  152.5702  144.2246  157.6868 O   0  0  0  0  0  0  0  0  0  0  0  0
  151.7851  141.0677  156.7154 C   0  0  0  0  0  0  0  0  0  0  0  0
  151.2203  141.4700  155.6958 O   0  0  0  0  0  0  0  0  0  0  0  0
  148.2653  137.2050  158.1019 C   0  0  0  0  0  0  0  0  0  0  0  0
  147.3360  136.2969  158.6521 C   0  0  0  0  0  0  0  0  0  0  0  0
  146.0922  136.9533  159.7778 S   0  0  0  0  0  0  0  0  0  0  0  0
  146.2164  138.4181  159.8433 O   0  0  0  0  0  0  0  0  0  0  0  0
  144.7980  136.3434  159.4348 O   0  0  0  0  0  0  0  0  0  0  0  0
  146.6041  136.3259  161.3084 N   0  0  0  0  0  0  0  0  0  0  0  0
  146.2362  134.9538  161.6925 C   0  0  0  0  0  0  0  0  0  0  0  0
  147.1180  134.4526  162.8482 C   0  0  0  0  0  0  0  0  0  0  0  0
  147.1007  135.3810  163.9223 O   0  0  0  0  0  0  0  0  0  0  0  0
  147.6428  136.6349  163.5355 C   0  0  0  0  0  0  0  0  0  0  0  0
  146.7822  137.2622  162.4279 C   0  0  0  0  0  0  0  0  0  0  0  0
  146.6912  132.8857  158.5406 H   0  0  0  0  0  0  0  0  0  0  0  0
  145.4261  134.1012  158.5812 H   0  0  0  0  0  0  0  0  0  0  0  0
  146.4879  133.8645  159.9814 H   0  0  0  0  0  0  0  0  0  0  0  0
  148.5158  133.4286  157.2080 H   0  0  0  0  0  0  0  0  0  0  0  0
  150.1326  134.9991  156.2675 H   0  0  0  0  0  0  0  0  0  0  0  0
  149.9319  138.6949  156.9142 H   0  0  0  0  0  0  0  0  0  0  0  0
  153.0294  138.5492  155.2207 H   0  0  0  0  0  0  0  0  0  0  0  0
  151.5549  139.3450  154.8405 H   0  0  0  0  0  0  0  0  0  0  0  0
  152.7404  142.1057  159.8033 H   0  0  0  0  0  0  0  0  0  0  0  0
  150.9139  143.4191  156.7984 H   0  0  0  0  0  0  0  0  0  0  0  0
  149.9153  144.4500  158.7116 H   0  0  0  0  0  0  0  0  0  0  0  0
  150.1598  142.8360  159.4096 H   0  0  0  0  0  0  0  0  0  0  0  0
  151.3095  144.9779  160.6345 H   0  0  0  0  0  0  0  0  0  0  0  0
  152.2829  143.5242  160.3829 H   0  0  0  0  0  0  0  0  0  0  0  0
  152.1920  146.0091  158.6281 H   0  0  0  0  0  0  0  0  0  0  0  0
  153.6261  145.1671  159.2230 H   0  0  0  0  0  0  0  0  0  0  0  0
  148.2111  138.2541  158.3521 H   0  0  0  0  0  0  0  0  0  0  0  0
  145.1862  134.9425  161.9860 H   0  0  0  0  0  0  0  0  0  0  0  0
  146.3398  134.2838  160.8393 H   0  0  0  0  0  0  0  0  0  0  0  0
  146.7514  133.4906  163.2065 H   0  0  0  0  0  0  0  0  0  0  0  0
  148.1430  134.2925  162.5094 H   0  0  0  0  0  0  0  0  0  0  0  0
  147.6689  137.2919  164.4048 H   0  0  0  0  0  0  0  0  0  0  0  0
  148.6744  136.5122  163.2013 H   0  0  0  0  0  0  0  0  0  0  0  0
  147.2451  138.1820  162.0698 H   0  0  0  0  0  0  0  0  0  0  0  0
  145.8006  137.5292  162.8207 H   0  0  0  0  0  0  0  0  0  0  0  0
  1  2  1  0  0  0  0
  1 35  1  0  0  0  0
  1 36  1  0  0  0  0
  1 37  1  0  0  0  0
  2 25  1  0  0  0  0
  2  3  2  0  0  0  0
  3  4  1  0  0  0  0
  3 38  1  0  0  0  0
  4  5  2  0  0  0  0
  4 39  1  0  0  0  0
  5  6  1  0  0  0  0
  5 24  1  0  0  0  0
  6  7  1  0  0  0  0
  6 40  1  0  0  0  0
  7  8  2  0  0  0  0
  7  9  1  0  0  0  0
  9 10  1  0  0  0  0
  9 41  1  0  0  0  0
  9 42  1  0  0  0  0
 10 22  1  0  0  0  0
 10 11  1  0  0  0  0
 11 12  2  0  0  0  0
 11 13  1  0  0  0  0
 13 14  1  0  0  0  0
 13 15  2  0  0  0  0
 15 16  1  0  0  0  0
 15 43  1  0  0  0  0
 16 17  1  0  0  0  0
 16 22  1  0  0  0  0
 17 21  1  0  0  0  0
 17 18  1  0  0  0  0
 17 44  1  0  0  0  0
 18 19  1  0  0  0  0
 18 45  1  0  0  0  0
 18 46  1  0  0  0  0
 19 20  1  0  0  0  0
 19 47  1  0  0  0  0
 19 48  1  0  0  0  0
 20 21  1  0  0  0  0
 20 49  1  0  0  0  0
 20 50  1  0  0  0  0
 22 23  2  0  0  0  0
 24 25  2  0  0  0  0
 24 51  1  0  0  0  0
 25 26  1  0  0  0  0
 26 27  2  0  0  0  0
 26 28  2  0  0  0  0
 26 29  1  0  0  0  0
 29 34  1  0  0  0  0
 29 30  1  0  0  0  0
 30 31  1  0  0  0  0
 30 52  1  0  0  0  0
 30 53  1  0  0  0  0
 31 32  1  0  0  0  0
 31 54  1  0  0  0  0
 31 55  1  0  0  0  0
 32 33  1  0  0  0  0
 33 34  1  0  0  0  0
 33 56  1  0  0  0  0
 33 57  1  0  0  0  0
 34 58  1  0  0  0  0
 34 59  1  0  0  0  0
M  END
> <s_m_source_file>
AV-unprocessed.smi

> <i_m_source_file_index>
125

> <i_lp_mmshare_version>
43012

> <i_f3d_flags>
0

> <s_epik_input>
W0NIMl0xW0NIMl1PW0NIMl1bQ0gyXU4xUyg9TykoPU8pYzJbY0hdYyhbY0hdW2NIXWMyW0NIM10pW05IXUMoPU8pW0NIMl1uM2MoPU8pYyhGKVtjSF1uKGMzPU8pW0NAQEhdNFtDSDJdW0NIMl1bQ0gyXU80

> <s_epik_cmdline>
J2VwaWtfcHl0aG9uJywgJy1waCcsICc3LjAnLCAnLXRuJywgJzgnLCAnLW1hJywgJzIwMCcsICctbWV0YWxfYmluZGluZycsICctaW1hZScsICc8aW5maWxlLm1hZT4nLCAnLW9tYWUnLCAnPG91dGZpbGUubWFlPic=

> <r_lp_tautomer_probability>
1

> <r_epik_Ionization_Penalty>
4.12263e-06

> <r_epik_Ionization_Penalty_Charging>
3.88729e-08

> <r_epik_Ionization_Penalty_Neutral>
4.08376e-06

> <r_epik_State_Penalty>
-0

> <r_epik_Charging_Adjusted_Penalty>
3.88729e-08

> <i_epik_Tot_Q>
0

> <i_epik_Tot_abs_Q>
0

> <r_epik_Metal_State_Penalty>
-0

> <b_epik_Metal_Only>
0

> <s_epik_Chemistry_Notes>
This compound contains an acetal/aminal-like group ( X-CH(R)-Y where X, Y are N, S, or O) that may be acid/base labile, releasing an aldehyde.

> <s_lp_Force_Field>
OPLS_2005

> <r_lp_Energy>
38.7063

> <b_lp_Chiralities_Consistent>
1

> <s_lp_Variant>
AV-unprocessed.smi:125-2

> <Gold.Version>
5.8.1

> <Gold.Id.Protein>
6NUR|6NUR_protein|mol2

> <Gold.PLP.Fitness>
53.3496

> <Gold.PLP.PLP>
-47.9361

> <Gold.PLP.part.hbond>
-5.0195

> <Gold.PLP.part.metal>
0.0000

> <Gold.PLP.part.buried>
-4.6894

> <Gold.PLP.part.nonpolar>
-38.2525

> <Gold.PLP.part.repulsive>
0.2889

> <Gold.PLP.ligand.clash>
0.0000

> <Gold.PLP.ligand.torsion>
2.4736

> <Gold.PLP.Chemscore.Hbond>
2.0525

> <Gold.PLP.Chemscore.CHOScore>
0.0000

> <Gold.PLP.Chemscore.Metal>
0.0000

> <Gold.Chemscore.Hbonds>
donor molecule, donor type, donor heavy atom, donor atom, acceptor molecule, acceptor atom, score
      P1  H  6888  6897       L1    32  0.07
      P1  H  6934  6947       L1    27  0.66
      P1  H  7989  7998       L1    23  0.15
      P1  H 10752 10764       L1     8  0.98

> <Gold.PLP.Chemscore.Internal.Correction>
4.2032

> <Gold.Rescore>
     Score         DG    S(hbond)    S(metal)    S(lipo)     H(rot)  DE(clash)    DE(int)     intcor
     11.66     -21.23       2.21        0.00     107.76       1.65       3.26       6.30       ----

> <Gold.Chemscore.Fitness>
11.6620

> <Gold.Chemscore.DG>
-21.2272

> <Gold.Chemscore.ZeroCoef>
-5.4800

> <Gold.Chemscore.Hbond>
2.2052

> <Gold.Chemscore.Metal>
0.0000

> <Gold.Chemscore.Lipo>
107.7636

> <Gold.Chemscore.Internal_Hbond>
0.0000

> <Gold.Chemscore.DEClash>
3.2639

> <Gold.Chemscore.DEInternal>
6.3013

> <Gold.Chemscore.Rot>
1.6510

> <Gold.Chemscore.Internal.Correction>
   9.000000E+99

> <Gold.Chemscore.Hbonds>
donor molecule, donor type, donor heavy atom, donor atom, acceptor molecule, acceptor atom, score
      P1  H  6888  6897       L1    32  0.06
      P1  H  6934  6947       L1    27  0.60
      P1  H  7989  7998       L1    23  0.15
      P1  H 10752 10764       L1     8  0.93

> <Gold.Chemscore.Hbond.Weighted>
-7.3653

> <Gold.Chemscore.Metal.Weighted>
-0.0000

> <Gold.Chemscore.Lipo.Weighted>
-12.6083

> <Gold.Chemscore.Internal_Hbond.Weighted>
0.0000

> <Gold.Chemscore.DEClash.Weighted>
3.2639

> <Gold.Chemscore.DEInternal.Weighted>
6.3013

> <Gold.Chemscore.Rot.Weighted>
4.2265

> <Gold.Chemscore.Internal.Correction.Weighted>
   9.000000E+99

> <Gold.Protein.RotatedTorsions>
[ 6907 6896 6895 6894 ] final  -79.77 input  -60.11 | X-H torsion
[ 7974 7965 7964 7962 ] final   68.40 input  175.53 | X-H torsion
[ 8008 7997 7996 7995 ] final  177.46 input   59.86 | X-H torsion
[ 10167 10162 10161 10158 ] final  -78.21 input  -65.29 | X-H torsion
[ 10718 10713 10712 10709 ] final  126.69 input   66.30 | X-H torsion
[ 10763 10752 10751 10750 ] final  -67.49 input  -60.55 | X-H torsion
[ 11005 11000 10999 10996 ] final -112.00 input  -57.11 | X-H torsion

> <Gold.Protein.ActiveResidues>
 VAL166  LYS551  ARG553  GLY616  TRP617  ASP618  TYR619  PRO620  LYS621  CYS622 
 ASP623  PHE694  ASN695  SER759  ASP760  ASP761  ALA762  ILE779  LEU786  VAL792 
 PHE793  MET794  SER795  GLU796  ALA797  LYS798  CYS799  TRP800  GLU811  SER814 

> <Gold.Protein.RotatedAtoms>
  150.6943  134.4071  159.5144 H   0  0  0  0  0  0  0  0  0  0  0  0  # atno 6907 bound_to 6896
  152.1835  134.8731  160.0533 H   0  0  0  0  0  0  0  0  0  0  0  0  # atno 6908 bound_to 6896
  151.9712  133.3692  159.4109 H   0  0  0  0  0  0  0  0  0  0  0  0  # atno 6909 bound_to 6896
  145.8030  139.2992  143.1143 H   0  0  0  0  0  0  0  0  0  0  0  0  # atno 7974 bound_to 7965
  156.0654  140.1358  156.9892 H   0  0  0  0  0  0  0  0  0  0  0  0  # atno 8008 bound_to 7997
  154.4503  140.0983  156.6651 H   0  0  0  0  0  0  0  0  0  0  0  0  # atno 8009 bound_to 7997
  155.5312  140.3458  155.4429 H   0  0  0  0  0  0  0  0  0  0  0  0  # atno 8010 bound_to 7997
  140.4702  143.2429  151.8216 H   0  0  0  0  0  0  0  0  0  0  0  0  # atno 10167 bound_to 10162
  157.5397  131.1097  150.8878 H   0  0  0  0  0  0  0  0  0  0  0  0  # atno 10718 bound_to 10713
  154.3753  135.6086  153.5761 H   0  0  0  0  0  0  0  0  0  0  0  0  # atno 10763 bound_to 10752
  152.9789  135.5848  154.4474 H   0  0  0  0  0  0  0  0  0  0  0  0  # atno 10764 bound_to 10752
  154.4234  135.2846  155.1938 H   0  0  0  0  0  0  0  0  0  0  0  0  # atno 10765 bound_to 10752
  141.0701  133.9393  157.2501 H   0  0  0  0  0  0  0  0  0  0  0  0  # atno 11005 bound_to 11000
  145.9857  140.8645  143.0092 LP  0  0  0  0  0  0  0  0  0  0  0  0  # atno 17320 bound_to 7965
  144.6766  140.2144  143.7373 LP  0  0  0  0  0  0  0  0  0  0  0  0  # atno 17321 bound_to 7965
  139.4817  144.4901  151.9196 LP  0  0  0  0  0  0  0  0  0  0  0  0  # atno 17342 bound_to 10162
  140.3986  144.2522  150.5894 LP  0  0  0  0  0  0  0  0  0  0  0  0  # atno 17343 bound_to 10162
  156.9435  130.5393  149.5280 LP  0  0  0  0  0  0  0  0  0  0  0  0  # atno 17370 bound_to 10713
  156.0487  130.5559  150.8940 LP  0  0  0  0  0  0  0  0  0  0  0  0  # atno 17371 bound_to 10713
  139.9515  135.0174  156.9008 LP  0  0  0  0  0  0  0  0  0  0  0  0  # atno 17394 bound_to 11000
  140.5691  134.0461  155.7424 LP  0  0  0  0  0  0  0  0  0  0  0  0  # atno 17395 bound_to 11000

$$$$
