AV-unprocessed.smi:2099|AV-procd|sdf|8570|dock1
  -GOLD-   2272011303D 1   1.00000     0.00000
 Structure written by MMmdl.
 32 33  0  0  0  0  0  0  0  0  1 V2000
  145.9636  132.8054  150.1848 C   0  0  0  0  0  0  0  0  0  0  0  0
  145.2947  133.6545  151.2747 C   0  0  2  0  0  0  0  0  0  0  0  0
  145.1475  135.1240  150.8357 C   0  0  0  0  0  0  0  0  0  0  0  0
  144.4758  135.9765  151.9270 C   0  0  0  0  0  0  0  0  0  0  0  0
  145.2154  135.8847  153.2787 C   0  0  2  0  0  0  0  0  0  0  0  0
  146.5107  136.5613  153.2274 N   0  0  0  0  0  0  0  0  0  0  0  0
  146.8064  137.7209  153.8322 C   0  0  0  0  0  0  0  0  0  0  0  0
  145.9996  138.3591  154.5088 O   0  0  0  0  0  0  0  0  0  0  0  0
  148.0812  138.0791  153.5987 N   0  0  0  0  0  0  0  0  0  0  0  0
  148.7714  139.2305  154.0621 C   0  0  0  0  0  0  0  0  0  0  0  0
  150.0521  139.2199  154.4642 N   0  0  0  0  0  0  0  0  0  0  0  0
  150.4810  140.4784  154.8661 N   0  0  0  0  0  0  0  0  0  0  0  0
  149.5082  141.3870  154.7524 C   0  0  0  0  0  0  0  0  0  0  0  0
  147.9726  140.7942  154.1432 S   0  0  0  0  0  0  0  0  0  0  0  0
  145.3973  134.4151  153.7048 C   0  0  0  0  0  0  0  0  0  0  0  0
  146.0626  133.5657  152.6071 C   0  0  0  0  0  0  0  0  0  0  0  0
  146.9738  133.1566  149.9721 H   0  0  0  0  0  0  0  0  0  0  0  0
  145.3953  132.8413  149.2549 H   0  0  0  0  0  0  0  0  0  0  0  0
  146.0313  131.7604  150.4885 H   0  0  0  0  0  0  0  0  0  0  0  0
  144.2938  133.2511  151.4361 H   0  0  0  0  0  0  0  0  0  0  0  0
  146.1274  135.5397  150.5976 H   0  0  0  0  0  0  0  0  0  0  0  0
  144.5601  135.1816  149.9187 H   0  0  0  0  0  0  0  0  0  0  0  0
  144.4044  137.0141  151.5989 H   0  0  0  0  0  0  0  0  0  0  0  0
  143.4490  135.6343  152.0612 H   0  0  0  0  0  0  0  0  0  0  0  0
  144.6082  136.3774  154.0402 H   0  0  0  0  0  0  0  0  0  0  0  0
  147.2347  136.1080  152.6895 H   0  0  0  0  0  0  0  0  0  0  0  0
  148.6238  137.4521  153.0236 H   0  0  0  0  0  0  0  0  0  0  0  0
  149.6968  142.4136  155.0292 H   0  0  0  0  0  0  0  0  0  0  0  0
  145.9785  134.3578  154.6259 H   0  0  0  0  0  0  0  0  0  0  0  0
  144.4207  133.9890  153.9379 H   0  0  0  0  0  0  0  0  0  0  0  0
  146.1171  132.5273  152.9358 H   0  0  0  0  0  0  0  0  0  0  0  0
  147.0927  133.8940  152.4620 H   0  0  0  0  0  0  0  0  0  0  0  0
  1  2  1  0  0  0  0
  1 17  1  0  0  0  0
  1 18  1  0  0  0  0
  1 19  1  0  0  0  0
  2 16  1  0  0  0  0
  2  3  1  0  0  0  0
  2 20  1  0  0  0  0
  3  4  1  0  0  0  0
  3 21  1  0  0  0  0
  3 22  1  0  0  0  0
  4  5  1  0  0  0  0
  4 23  1  0  0  0  0
  4 24  1  0  0  0  0
  5  6  1  0  0  0  0
  5 15  1  0  0  0  0
  5 25  1  0  0  0  0
  6  7  1  0  0  0  0
  6 26  1  0  0  0  0
  7  8  2  0  0  0  0
  7  9  1  0  0  0  0
  9 10  1  0  0  0  0
  9 27  1  0  0  0  0
 10 14  1  0  0  0  0
 10 11  2  0  0  0  0
 11 12  1  0  0  0  0
 12 13  2  0  0  0  0
 13 14  1  0  0  0  0
 13 28  1  0  0  0  0
 15 16  1  0  0  0  0
 15 29  1  0  0  0  0
 15 30  1  0  0  0  0
 16 31  1  0  0  0  0
 16 32  1  0  0  0  0
M  END
> <s_m_source_file>
AV-unprocessed.smi

> <i_m_source_file_index>
2099

> <i_lp_mmshare_version>
43012

> <i_f3d_flags>
0

> <s_epik_input>
W0NIM11bQ0BASF0xW0NIMl1bQ0gyXVtDQEhdKFtDSDJdW0NIMl0xKVtOSF1DKD1PKVtOSF1jMm5uW2NIXXMy

> <s_epik_cmdline>
J2VwaWtfcHl0aG9uJywgJy1waCcsICc3LjAnLCAnLXRuJywgJzgnLCAnLW1hJywgJzIwMCcsICctbWV0YWxfYmluZGluZycsICctaW1hZScsICc8aW5maWxlLm1hZT4nLCAnLW9tYWUnLCAnPG91dGZpbGUubWFlPic=

> <r_lp_tautomer_probability>
1

> <r_epik_Ionization_Penalty>
0.000322846

> <r_epik_Ionization_Penalty_Charging>
0

> <r_epik_Ionization_Penalty_Neutral>
0.000322846

> <r_epik_State_Penalty>
-0

> <r_epik_Charging_Adjusted_Penalty>
0

> <i_epik_Tot_Q>
0

> <i_epik_Tot_abs_Q>
0

> <r_epik_Metal_State_Penalty>
0.17121

> <b_epik_Metal_Only>
0

> <s_lp_Force_Field>
OPLS_2005

> <r_lp_Energy>
7.13427

> <b_lp_Chiralities_Consistent>
1

> <s_lp_Variant>
AV-unprocessed.smi:2099-2

> <Gold.Version>
5.8.1

> <Gold.Id.Protein>
6NUR|6NUR_protein|mol2

> <Gold.PLP.Fitness>
35.5707

> <Gold.PLP.PLP>
-24.4265

> <Gold.PLP.part.hbond>
-3.0000

> <Gold.PLP.part.metal>
0.0000

> <Gold.PLP.part.buried>
-3.1414

> <Gold.PLP.part.nonpolar>
-17.8505

> <Gold.PLP.part.repulsive>
0.3484

> <Gold.PLP.ligand.clash>
0.0000

> <Gold.PLP.ligand.torsion>
0.3952

> <Gold.PLP.Chemscore.Hbond>
2.9760

> <Gold.PLP.Chemscore.CHOScore>
1.0000

> <Gold.PLP.Chemscore.Metal>
0.0000

> <Gold.Chemscore.Hbonds>
donor molecule, donor type, donor heavy atom, donor atom, acceptor molecule, acceptor atom, score
      L1  H     6    26       P1  7948  0.98
      L1  H     9    27       P1  7948  1.00
      P1  H  7989  7998       L1    12  1.00
      L1  C    13    28       P1  8028  1.00

> <Gold.PLP.Chemscore.Internal.Correction>
0.0066

> <Gold.Rescore>
     Score         DG    S(hbond)    S(metal)    S(lipo)     H(rot)  DE(clash)    DE(int)     intcor
     15.66     -16.10       2.20        0.00      49.80       1.00       0.12       0.33       ----

> <Gold.Chemscore.Fitness>
15.6617

> <Gold.Chemscore.DG>
-16.1049

> <Gold.Chemscore.ZeroCoef>
-5.4800

> <Gold.Chemscore.Hbond>
2.2030

> <Gold.Chemscore.Metal>
0.0000

> <Gold.Chemscore.Lipo>
49.8039

> <Gold.Chemscore.Internal_Hbond>
0.0000

> <Gold.Chemscore.DEClash>
0.1169

> <Gold.Chemscore.DEInternal>
0.3263

> <Gold.Chemscore.Rot>
1.0000

> <Gold.Chemscore.Internal.Correction>
   9.000000E+99

> <Gold.Chemscore.Hbonds>
donor molecule, donor type, donor heavy atom, donor atom, acceptor molecule, acceptor atom, score
      L1  H     6    26       P1  7948  0.93
      L1  H     9    27       P1  7948  1.00
      P1  H  7989  7998       L1    12  0.11

> <Gold.Chemscore.Hbond.Weighted>
-7.3579

> <Gold.Chemscore.Metal.Weighted>
-0.0000

> <Gold.Chemscore.Lipo.Weighted>
-5.8271

> <Gold.Chemscore.Internal_Hbond.Weighted>
0.0000

> <Gold.Chemscore.DEClash.Weighted>
0.1169

> <Gold.Chemscore.DEInternal.Weighted>
0.3263

> <Gold.Chemscore.Rot.Weighted>
2.5600

> <Gold.Chemscore.Internal.Correction.Weighted>
   9.000000E+99

> <Gold.Protein.RotatedTorsions>
[ 6907 6896 6895 6894 ] final  163.39 input  -60.11 | X-H torsion
[ 7974 7965 7964 7962 ] final  -79.81 input  175.53 | X-H torsion
[ 8008 7997 7996 7995 ] final -121.88 input   59.86 | X-H torsion
[ 10167 10162 10161 10158 ] final   53.59 input  -65.29 | X-H torsion
[ 10718 10713 10712 10709 ] final  -37.95 input   66.30 | X-H torsion
[ 10763 10752 10751 10750 ] final  -10.34 input  -60.55 | X-H torsion
[ 11005 11000 10999 10996 ] final -144.07 input  -57.11 | X-H torsion

> <Gold.Protein.ActiveResidues>
 VAL166  LYS551  ARG553  GLY616  TRP617  ASP618  TYR619  PRO620  LYS621  CYS622 
 ASP623  PHE694  ASN695  SER759  ASP760  ASP761  ALA762  ILE779  LEU786  VAL792 
 PHE793  MET794  SER795  GLU796  ALA797  LYS798  CYS799  TRP800  GLU811  SER814 

> <Gold.Protein.RotatedAtoms>
  151.9259  133.3598  159.3913 H   0  0  0  0  0  0  0  0  0  0  0  0  # atno 6907 bound_to 6896
  150.7027  134.4587  159.5379 H   0  0  0  0  0  0  0  0  0  0  0  0  # atno 6908 bound_to 6896
  152.2219  134.8405  160.0535 H   0  0  0  0  0  0  0  0  0  0  0  0  # atno 6909 bound_to 6896
  145.5683  140.9470  143.1409 H   0  0  0  0  0  0  0  0  0  0  0  0  # atno 7974 bound_to 7965
  155.1552  140.0404  157.2830 H   0  0  0  0  0  0  0  0  0  0  0  0  # atno 8008 bound_to 7997
  154.6375  140.2539  155.7334 H   0  0  0  0  0  0  0  0  0  0  0  0  # atno 8009 bound_to 7997
  156.2516  140.2862  156.0754 H   0  0  0  0  0  0  0  0  0  0  0  0  # atno 8010 bound_to 7997
  140.2391  144.3603  150.6386 H   0  0  0  0  0  0  0  0  0  0  0  0  # atno 10167 bound_to 10162
  156.3093  130.4250  149.8066 H   0  0  0  0  0  0  0  0  0  0  0  0  # atno 10718 bound_to 10713
  153.4678  135.7016  153.6011 H   0  0  0  0  0  0  0  0  0  0  0  0  # atno 10763 bound_to 10752
  153.4278  135.3810  155.2152 H   0  0  0  0  0  0  0  0  0  0  0  0  # atno 10764 bound_to 10752
  154.8726  135.3943  154.4112 H   0  0  0  0  0  0  0  0  0  0  0  0  # atno 10765 bound_to 10752
  140.8061  134.2799  157.4959 H   0  0  0  0  0  0  0  0  0  0  0  0  # atno 11005 bound_to 11000
  144.7450  139.7345  143.7296 LP  0  0  0  0  0  0  0  0  0  0  0  0  # atno 17320 bound_to 7965
  146.1802  139.4991  142.9871 LP  0  0  0  0  0  0  0  0  0  0  0  0  # atno 17321 bound_to 7965
  140.6127  143.2170  151.6853 LP  0  0  0  0  0  0  0  0  0  0  0  0  # atno 17342 bound_to 10162
  139.5083  144.3615  152.0558 LP  0  0  0  0  0  0  0  0  0  0  0  0  # atno 17343 bound_to 10162
  156.5415  130.8302  151.3270 LP  0  0  0  0  0  0  0  0  0  0  0  0  # atno 17370 bound_to 10713
  157.7387  130.9818  150.2268 LP  0  0  0  0  0  0  0  0  0  0  0  0  # atno 17371 bound_to 10713
  139.8717  134.9457  156.3917 LP  0  0  0  0  0  0  0  0  0  0  0  0  # atno 17394 bound_to 11000
  140.9245  133.7622  155.9948 LP  0  0  0  0  0  0  0  0  0  0  0  0  # atno 17395 bound_to 11000

$$$$
