AV-unprocessed.smi:2534|AV-procd|sdf|9975|dock6
  -GOLD-   2272014 23D 1   1.00000     0.00000
 Structure written by MMmdl.
 40 42  0  0  0  0  0  0  0  0  1 V2000
  152.8014  143.0470  162.2092 C   0  0  0  0  0  0  0  0  0  0  0  0
  152.6036  143.6174  160.7977 C   0  0  2  0  0  0  0  0  0  0  0  0
  151.1751  144.1629  160.6044 C   0  0  0  0  0  0  0  0  0  0  0  0
  150.9728  144.7206  159.1848 C   0  0  0  0  0  0  0  0  0  0  0  0
  151.2839  143.6679  158.0942 C   0  0  2  0  0  0  0  0  0  0  0  0
  151.2762  144.3500  156.8546 O   0  0  0  0  0  0  0  0  0  0  0  0
  150.2496  142.5091  158.0101 C   0  0  0  0  0  0  0  0  0  0  0  0
  150.4586  141.5870  156.8998 N   0  0  0  0  0  0  0  0  0  0  0  0
  149.8972  141.8499  155.6906 N   0  0  0  0  0  0  0  0  0  0  0  0
  150.2535  140.8434  154.8961 C   0  0  0  0  0  0  0  0  0  0  0  0
  151.0495  139.8835  155.5786 C   0  0  0  0  0  0  0  0  0  0  0  0
  151.6862  138.6229  155.2137 C   0  0  0  0  0  0  0  0  0  0  0  0
  152.3495  137.9845  156.1260 N   0  0  0  0  0  0  0  0  0  0  0  0
  152.4584  138.4787  157.4305 N   0  0  0  0  0  0  0  0  0  0  0  0
  153.2346  137.6142  158.3184 C   0  0  0  0  0  0  0  0  0  0  0  0
  151.9027  139.6493  157.8723 C   0  0  0  0  0  0  0  0  0  0  0  0
  152.0028  140.0743  159.0229 O   0  0  0  0  0  0  0  0  0  0  0  0
  151.1454  140.3894  156.8330 C   0  0  0  0  0  0  0  0  0  0  0  0
  152.7174  143.1281  158.2979 C   0  0  0  0  0  0  0  0  0  0  0  0
  152.9415  142.5727  159.7164 C   0  0  0  0  0  0  0  0  0  0  0  0
  152.1337  142.2049  162.3939 H   0  0  0  0  0  0  0  0  0  0  0  0
  152.6029  143.8024  162.9699 H   0  0  0  0  0  0  0  0  0  0  0  0
  153.8245  142.6979  162.3517 H   0  0  0  0  0  0  0  0  0  0  0  0
  153.2970  144.4519  160.6816 H   0  0  0  0  0  0  0  0  0  0  0  0
  150.4439  143.3787  160.8026 H   0  0  0  0  0  0  0  0  0  0  0  0
  150.9789  144.9505  161.3327 H   0  0  0  0  0  0  0  0  0  0  0  0
  149.9635  145.1166  159.0762 H   0  0  0  0  0  0  0  0  0  0  0  0
  151.6358  145.5781  159.0584 H   0  0  0  0  0  0  0  0  0  0  0  0
  150.3799  144.4473  156.5718 H   0  0  0  0  0  0  0  0  0  0  0  0
  150.2502  141.9369  158.9374 H   0  0  0  0  0  0  0  0  0  0  0  0
  149.2380  142.9057  157.9244 H   0  0  0  0  0  0  0  0  0  0  0  0
  149.9225  140.8417  153.8679 H   0  0  0  0  0  0  0  0  0  0  0  0
  151.6027  138.2333  154.1994 H   0  0  0  0  0  0  0  0  0  0  0  0
  153.3236  137.9929  159.3375 H   0  0  0  0  0  0  0  0  0  0  0  0
  154.2452  137.4883  157.9282 H   0  0  0  0  0  0  0  0  0  0  0  0
  152.7723  136.6280  158.3767 H   0  0  0  0  0  0  0  0  0  0  0  0
  152.9425  142.3584  157.5585 H   0  0  0  0  0  0  0  0  0  0  0  0
  153.4374  143.9296  158.1251 H   0  0  0  0  0  0  0  0  0  0  0  0
  153.9807  142.2585  159.8196 H   0  0  0  0  0  0  0  0  0  0  0  0
  152.3400  141.6755  159.8645 H   0  0  0  0  0  0  0  0  0  0  0  0
  1  2  1  0  0  0  0
  1 21  1  0  0  0  0
  1 22  1  0  0  0  0
  1 23  1  0  0  0  0
  2 20  1  0  0  0  0
  2  3  1  0  0  0  0
  2 24  1  0  0  0  0
  3  4  1  0  0  0  0
  3 25  1  0  0  0  0
  3 26  1  0  0  0  0
  4  5  1  0  0  0  0
  4 27  1  0  0  0  0
  4 28  1  0  0  0  0
  5  6  1  0  0  0  0
  5  7  1  0  0  0  0
  5 19  1  0  0  0  0
  6 29  1  0  0  0  0
  7  8  1  0  0  0  0
  7 30  1  0  0  0  0
  7 31  1  0  0  0  0
  8 18  1  0  0  0  0
  8  9  1  0  0  0  0
  9 10  2  0  0  0  0
 10 11  1  0  0  0  0
 10 32  1  0  0  0  0
 11 18  2  0  0  0  0
 11 12  1  0  0  0  0
 12 13  2  0  0  0  0
 12 33  1  0  0  0  0
 13 14  1  0  0  0  0
 14 15  1  0  0  0  0
 14 16  1  0  0  0  0
 15 34  1  0  0  0  0
 15 35  1  0  0  0  0
 15 36  1  0  0  0  0
 16 17  2  0  0  0  0
 16 18  1  0  0  0  0
 19 20  1  0  0  0  0
 19 37  1  0  0  0  0
 19 38  1  0  0  0  0
 20 39  1  0  0  0  0
 20 40  1  0  0  0  0
M  END
> <s_m_source_file>
AV-unprocessed.smi

> <i_m_source_file_index>
2534

> <i_lp_mmshare_version>
43012

> <i_f3d_flags>
0

> <s_epik_input>
W0NIMl0xW0NIMl1bQ0BIXShbQ0gzXSlbQ0gyXVtDSDJdW0NAQF0xKFtPSF0pW0NIMl1uKG5bY0hdMiljKGMyMyljKD1PKW4oW0NIM10pbltjSF0z

> <s_epik_cmdline>
J2VwaWtfcHl0aG9uJywgJy1waCcsICc3LjAnLCAnLXRuJywgJzgnLCAnLW1hJywgJzIwMCcsICctbWV0YWxfYmluZGluZycsICctaW1hZScsICc8aW5maWxlLm1hZT4nLCAnLW9tYWUnLCAnPG91dGZpbGUubWFlPic=

> <r_lp_tautomer_probability>
1

> <r_epik_Ionization_Penalty>
4.4666e-07

> <r_epik_Ionization_Penalty_Charging>
3.10141e-10

> <r_epik_Ionization_Penalty_Neutral>
4.46349e-07

> <r_epik_State_Penalty>
-0

> <r_epik_Charging_Adjusted_Penalty>
3.10141e-10

> <i_epik_Tot_Q>
0

> <i_epik_Tot_abs_Q>
0

> <r_epik_Metal_State_Penalty>
-0

> <b_epik_Metal_Only>
0

> <s_lp_Force_Field>
OPLS_2005

> <r_lp_Energy>
31.0433

> <b_lp_Chiralities_Consistent>
1

> <s_lp_Variant>
AV-unprocessed.smi:2534-2

> <Gold.Version>
5.8.1

> <Gold.Id.Protein>
6NUR|6NUR_protein|mol2

> <Gold.PLP.Fitness>
41.6114

> <Gold.PLP.PLP>
-38.6732

> <Gold.PLP.part.hbond>
-1.0000

> <Gold.PLP.part.metal>
0.0000

> <Gold.PLP.part.buried>
-3.9681

> <Gold.PLP.part.nonpolar>
-33.2960

> <Gold.PLP.part.repulsive>
0.4817

> <Gold.PLP.ligand.clash>
0.0000

> <Gold.PLP.ligand.torsion>
0.3810

> <Gold.PLP.Chemscore.Hbond>
1.0000

> <Gold.PLP.Chemscore.CHOScore>
0.2311

> <Gold.PLP.Chemscore.Metal>
0.0000

> <Gold.Chemscore.Hbonds>
donor molecule, donor type, donor heavy atom, donor atom, acceptor molecule, acceptor atom, score
      L1  H     6    29       P1  8028  1.00
      L1  C    10    32       P1  7957  0.24

> <Gold.PLP.Chemscore.Internal.Correction>
0.0069

> <Gold.Rescore>
     Score         DG    S(hbond)    S(metal)    S(lipo)     H(rot)  DE(clash)    DE(int)     intcor
     15.33     -17.79       0.98        0.00     114.01       1.68       0.51       1.95       ----

> <Gold.Chemscore.Fitness>
15.3331

> <Gold.Chemscore.DG>
-17.7910

> <Gold.Chemscore.ZeroCoef>
-5.4800

> <Gold.Chemscore.Hbond>
0.9765

> <Gold.Chemscore.Metal>
0.0000

> <Gold.Chemscore.Lipo>
114.0110

> <Gold.Chemscore.Internal_Hbond>
0.0000

> <Gold.Chemscore.DEClash>
0.5113

> <Gold.Chemscore.DEInternal>
1.9466

> <Gold.Chemscore.Rot>
1.6758

> <Gold.Chemscore.Internal.Correction>
   9.000000E+99

> <Gold.Chemscore.Hbonds>
donor molecule, donor type, donor heavy atom, donor atom, acceptor molecule, acceptor atom, score
      L1  H     6    29       P1  8028  0.98

> <Gold.Chemscore.Hbond.Weighted>
-3.2616

> <Gold.Chemscore.Metal.Weighted>
-0.0000

> <Gold.Chemscore.Lipo.Weighted>
-13.3393

> <Gold.Chemscore.Internal_Hbond.Weighted>
0.0000

> <Gold.Chemscore.DEClash.Weighted>
0.5113

> <Gold.Chemscore.DEInternal.Weighted>
1.9466

> <Gold.Chemscore.Rot.Weighted>
4.2899

> <Gold.Chemscore.Internal.Correction.Weighted>
   9.000000E+99

> <Gold.Protein.RotatedTorsions>
[ 6907 6896 6895 6894 ] final  151.92 input  -60.11 | X-H torsion
[ 7974 7965 7964 7962 ] final -117.02 input  175.53 | X-H torsion
[ 8008 7997 7996 7995 ] final  -66.34 input   59.86 | X-H torsion
[ 10167 10162 10161 10158 ] final -179.97 input  -65.29 | X-H torsion
[ 10718 10713 10712 10709 ] final  -16.79 input   66.30 | X-H torsion
[ 10763 10752 10751 10750 ] final  -93.48 input  -60.55 | X-H torsion
[ 11005 11000 10999 10996 ] final   81.59 input  -57.11 | X-H torsion

> <Gold.Protein.ActiveResidues>
 VAL166  LYS551  ARG553  GLY616  TRP617  ASP618  TYR619  PRO620  LYS621  CYS622 
 ASP623  PHE694  ASN695  SER759  ASP760  ASP761  ALA762  ILE779  LEU786  VAL792 
 PHE793  MET794  SER795  GLU796  ALA797  LYS798  CYS799  TRP800  GLU811  SER814 

> <Gold.Protein.RotatedAtoms>
  152.0939  133.4214  159.4556 H   0  0  0  0  0  0  0  0  0  0  0  0  # atno 6907 bound_to 6896
  150.6863  134.2839  159.4648 H   0  0  0  0  0  0  0  0  0  0  0  0  # atno 6908 bound_to 6896
  152.0693  134.9543  160.0625 H   0  0  0  0  0  0  0  0  0  0  0  0  # atno 6909 bound_to 6896
  145.0901  140.8484  143.3988 H   0  0  0  0  0  0  0  0  0  0  0  0  # atno 7974 bound_to 7965
  154.4728  140.0915  156.7187 H   0  0  0  0  0  0  0  0  0  0  0  0  # atno 8008 bound_to 7997
  155.4678  140.3463  155.4303 H   0  0  0  0  0  0  0  0  0  0  0  0  # atno 8009 bound_to 7997
  156.1067  140.1437  156.9382 H   0  0  0  0  0  0  0  0  0  0  0  0  # atno 8010 bound_to 7997
  139.5362  144.2490  152.0800 H   0  0  0  0  0  0  0  0  0  0  0  0  # atno 10167 bound_to 10162
  156.5826  130.4778  149.6313 H   0  0  0  0  0  0  0  0  0  0  0  0  # atno 10718 bound_to 10713
  154.6963  135.5193  153.8462 H   0  0  0  0  0  0  0  0  0  0  0  0  # atno 10763 bound_to 10752
  153.0669  135.6588  154.0343 H   0  0  0  0  0  0  0  0  0  0  0  0  # atno 10764 bound_to 10752
  154.0209  135.2993  155.3360 H   0  0  0  0  0  0  0  0  0  0  0  0  # atno 10765 bound_to 10752
  139.9093  134.8008  156.2061 H   0  0  0  0  0  0  0  0  0  0  0  0  # atno 11005 bound_to 11000
  145.1076  139.2779  143.5654 LP  0  0  0  0  0  0  0  0  0  0  0  0  # atno 17320 bound_to 7965
  146.3531  140.0662  142.8626 LP  0  0  0  0  0  0  0  0  0  0  0  0  # atno 17321 bound_to 7965
  140.1961  144.4704  150.6455 LP  0  0  0  0  0  0  0  0  0  0  0  0  # atno 17342 bound_to 10162
  140.6570  143.2240  151.5945 LP  0  0  0  0  0  0  0  0  0  0  0  0  # atno 17343 bound_to 10162
  156.2618  130.6967  151.1738 LP  0  0  0  0  0  0  0  0  0  0  0  0  # atno 17370 bound_to 10713
  157.7323  131.0601  150.5636 LP  0  0  0  0  0  0  0  0  0  0  0  0  # atno 17371 bound_to 10713
  141.0494  133.6896  156.1744 LP  0  0  0  0  0  0  0  0  0  0  0  0  # atno 17394 bound_to 11000
  140.6833  134.4743  157.5589 LP  0  0  0  0  0  0  0  0  0  0  0  0  # atno 17395 bound_to 11000

$$$$
