AV-unprocessed.smi:958|AV-procd|sdf|4267|dock6
  -GOLD-   22720 2173D 1   1.00000     0.00000
 Structure written by MMmdl.
 31 33  0  0  0  0  0  0  0  0  2 V2000
  153.3947  142.8139  159.7818 C   0  0  0  0  0  0  0  0  0  0  0  0
  153.3671  141.4829  159.7466 N   0  0  0  0  0  0  0  0  0  0  0  0
  152.3113  141.1805  158.9125 N   0  0  0  0  0  0  0  0  0  0  0  0
  151.8018  142.3584  158.5283 C   0  0  0  0  0  0  0  0  0  0  0  0
  150.6066  142.4837  157.6253 C   0  0  2  0  0  0  0  0  0  0  0  0
  149.3426  141.8638  158.2516 C   0  0  0  0  0  0  0  0  0  0  0  0
  148.1484  141.9888  157.2931 C   0  0  0  0  0  0  0  0  0  0  0  0
  148.4830  141.3883  155.9178 C   0  0  0  0  0  0  0  0  0  0  0  0
  149.6942  142.0219  155.3531 N   0  3  0  0  0  0  0  0  0  0  0  0
  150.8786  141.8859  156.2294 C   0  0  0  0  0  0  0  0  0  0  0  0
  152.4660  143.4233  159.0277 N   0  0  0  0  0  0  0  0  0  0  0  0
  152.2128  144.8471  158.8808 C   0  0  0  0  0  0  0  0  0  0  0  0
  151.8570  145.5554  160.1680 C   0  0  0  0  0  0  0  0  0  0  0  0
  150.7841  145.2703  159.1405 C   0  0  0  0  0  0  0  0  0  0  0  0
  154.1154  143.3592  160.3734 H   0  0  0  0  0  0  0  0  0  0  0  0
  150.3972  143.5439  157.4841 H   0  0  0  0  0  0  0  0  0  0  0  0
  149.5146  140.8106  158.4783 H   0  0  0  0  0  0  0  0  0  0  0  0
  149.1124  142.3526  159.1990 H   0  0  0  0  0  0  0  0  0  0  0  0
  147.2766  141.4889  157.7164 H   0  0  0  0  0  0  0  0  0  0  0  0
  147.8780  143.0395  157.1793 H   0  0  0  0  0  0  0  0  0  0  0  0
  148.6458  140.3128  156.0017 H   0  0  0  0  0  0  0  0  0  0  0  0
  147.6509  141.5323  155.2284 H   0  0  0  0  0  0  0  0  0  0  0  0
  149.8981  141.5995  154.4584 H   0  0  0  0  0  0  0  0  0  0  0  0
  151.7233  142.3896  155.7587 H   0  0  0  0  0  0  0  0  0  0  0  0
  151.1404  140.8296  156.3070 H   0  0  0  0  0  0  0  0  0  0  0  0
  152.8181  145.3302  158.1165 H   0  0  0  0  0  0  0  0  0  0  0  0
  151.8381  144.9737  161.0878 H   0  0  0  0  0  0  0  0  0  0  0  0
  152.1819  146.5881  160.2773 H   0  0  0  0  0  0  0  0  0  0  0  0
  150.4013  146.1139  158.5701 H   0  0  0  0  0  0  0  0  0  0  0  0
  150.0482  144.5083  159.3904 H   0  0  0  0  0  0  0  0  0  0  0  0
  149.5075  143.0047  155.2141 H   0  0  0  0  0  0  0  0  0  0  0  0
  1 11  1  0  0  0  0
  1  2  2  0  0  0  0
  1 15  1  0  0  0  0
  2  3  1  0  0  0  0
  3  4  2  0  0  0  0
  4  5  1  0  0  0  0
  4 11  1  0  0  0  0
  5 10  1  0  0  0  0
  5  6  1  0  0  0  0
  5 16  1  0  0  0  0
  6  7  1  0  0  0  0
  6 17  1  0  0  0  0
  6 18  1  0  0  0  0
  7  8  1  0  0  0  0
  7 19  1  0  0  0  0
  7 20  1  0  0  0  0
  8  9  1  0  0  0  0
  8 21  1  0  0  0  0
  8 22  1  0  0  0  0
  9 10  1  0  0  0  0
  9 23  1  0  0  0  0
  9 31  1  0  0  0  0
 10 24  1  0  0  0  0
 10 25  1  0  0  0  0
 11 12  1  0  0  0  0
 12 14  1  0  0  0  0
 12 13  1  0  0  0  0
 12 26  1  0  0  0  0
 13 14  1  0  0  0  0
 13 27  1  0  0  0  0
 13 28  1  0  0  0  0
 14 29  1  0  0  0  0
 14 30  1  0  0  0  0
M  CHG  1   9   1
M  END
> <s_m_source_file>
AV-unprocessed.smi

> <i_m_source_file_index>
958

> <i_lp_mmshare_version>
43012

> <i_f3d_flags>
0

> <s_epik_input>
W0NIMl0xW0NIMl1bQ0hdMW4yW2NIXW5uYzJbQ0BASF0zW0NIMl1bQ0gyXVtDSDJdW05IXVtDSDJdMw==

> <s_epik_cmdline>
J2VwaWtfcHl0aG9uJywgJy1waCcsICc3LjAnLCAnLXRuJywgJzgnLCAnLW1hJywgJzIwMCcsICctbWV0YWxfYmluZGluZycsICctaW1hZScsICc8aW5maWxlLm1hZT4nLCAnLW9tYWUnLCAnPG91dGZpbGUubWFlPic=

> <r_lp_tautomer_probability>
1

> <r_epik_Ionization_Penalty>
0.000442722

> <r_epik_Ionization_Penalty_Charging>
0.000426856

> <r_epik_Ionization_Penalty_Neutral>
1.58656e-05

> <r_epik_State_Penalty>
-0

> <r_epik_Charging_Adjusted_Penalty>
0.000426856

> <i_epik_Tot_Q>
1

> <i_epik_Tot_abs_Q>
1

> <r_epik_Metal_State_Penalty>
-0

> <b_epik_Metal_Only>
0

> <s_lp_Force_Field>
OPLS_2005

> <r_lp_Energy>
27.25

> <b_lp_Chiralities_Consistent>
1

> <s_lp_Variant>
AV-unprocessed.smi:958-1

> <Gold.Version>
5.8.1

> <Gold.Id.Protein>
6NUR|6NUR_protein|mol2

> <Gold.PLP.Fitness>
39.9199

> <Gold.PLP.PLP>
-34.0305

> <Gold.PLP.part.hbond>
-1.0000

> <Gold.PLP.part.metal>
0.0000

> <Gold.PLP.part.buried>
-5.3286

> <Gold.PLP.part.nonpolar>
-27.5702

> <Gold.PLP.part.repulsive>
0.1861

> <Gold.PLP.ligand.clash>
0.0000

> <Gold.PLP.ligand.torsion>
0.1029

> <Gold.PLP.Chemscore.Hbond>
2.0000

> <Gold.PLP.Chemscore.CHOScore>
0.0000

> <Gold.PLP.Chemscore.Metal>
0.0000

> <Gold.Chemscore.Hbonds>
donor molecule, donor type, donor heavy atom, donor atom, acceptor molecule, acceptor atom, score
      L1  H     9    31       P1  8028  2.00

> <Gold.PLP.Chemscore.Internal.Correction>
0.0951

> <Gold.Rescore>
     Score         DG    S(hbond)    S(metal)    S(lipo)     H(rot)  DE(clash)    DE(int)     intcor
     12.62     -12.69       1.00        0.00      60.46       1.25       0.02       0.06       ----

> <Gold.Chemscore.Fitness>
12.6171

> <Gold.Chemscore.DG>
-12.6914

> <Gold.Chemscore.ZeroCoef>
-5.4800

> <Gold.Chemscore.Hbond>
0.9986

> <Gold.Chemscore.Metal>
0.0000

> <Gold.Chemscore.Lipo>
60.4582

> <Gold.Chemscore.Internal_Hbond>
0.0000

> <Gold.Chemscore.DEClash>
0.0178

> <Gold.Chemscore.DEInternal>
0.0566

> <Gold.Chemscore.Rot>
1.2491

> <Gold.Chemscore.Internal.Correction>
   9.000000E+99

> <Gold.Chemscore.Hbonds>
donor molecule, donor type, donor heavy atom, donor atom, acceptor molecule, acceptor atom, score
      L1  H     9    31       P1  8028  0.99

> <Gold.Chemscore.Hbond.Weighted>
-3.3354

> <Gold.Chemscore.Metal.Weighted>
-0.0000

> <Gold.Chemscore.Lipo.Weighted>
-7.0736

> <Gold.Chemscore.Internal_Hbond.Weighted>
0.0000

> <Gold.Chemscore.DEClash.Weighted>
0.0178

> <Gold.Chemscore.DEInternal.Weighted>
0.0566

> <Gold.Chemscore.Rot.Weighted>
3.1977

> <Gold.Chemscore.Internal.Correction.Weighted>
   9.000000E+99

> <Gold.Protein.RotatedTorsions>
[ 6907 6896 6895 6894 ] final   31.64 input  -60.11 | X-H torsion
[ 7974 7965 7964 7962 ] final   58.14 input  175.53 | X-H torsion
[ 8008 7997 7996 7995 ] final   38.62 input   59.86 | X-H torsion
[ 10167 10162 10161 10158 ] final   55.76 input  -65.29 | X-H torsion
[ 10718 10713 10712 10709 ] final  128.67 input   66.30 | X-H torsion
[ 10763 10752 10751 10750 ] final   70.14 input  -60.55 | X-H torsion
[ 11005 11000 10999 10996 ] final -106.23 input  -57.11 | X-H torsion

> <Gold.Protein.ActiveResidues>
 VAL166  LYS551  ARG553  GLY616  TRP617  ASP618  TYR619  PRO620  LYS621  CYS622 
 ASP623  PHE694  ASN695  SER759  ASP760  ASP761  ALA762  ILE779  LEU786  VAL792 
 PHE793  MET794  SER795  GLU796  ALA797  LYS798  CYS799  TRP800  GLU811  SER814 

> <Gold.Protein.RotatedAtoms>
  152.0632  134.9581  160.0574 H   0  0  0  0  0  0  0  0  0  0  0  0  # atno 6907 bound_to 6896
  152.0936  133.4208  159.4563 H   0  0  0  0  0  0  0  0  0  0  0  0  # atno 6908 bound_to 6896
  150.6837  134.2762  159.4652 H   0  0  0  0  0  0  0  0  0  0  0  0  # atno 6909 bound_to 6896
  145.9214  139.3732  143.0476 H   0  0  0  0  0  0  0  0  0  0  0  0  # atno 7974 bound_to 7965
  155.2231  140.3332  155.4313 H   0  0  0  0  0  0  0  0  0  0  0  0  # atno 8008 bound_to 7997
  156.2325  140.1857  156.7252 H   0  0  0  0  0  0  0  0  0  0  0  0  # atno 8009 bound_to 7997
  154.6002  140.0624  156.9344 H   0  0  0  0  0  0  0  0  0  0  0  0  # atno 8010 bound_to 7997
  140.2160  144.3838  150.6469 H   0  0  0  0  0  0  0  0  0  0  0  0  # atno 10167 bound_to 10162
  157.5224  131.1098  150.9134 H   0  0  0  0  0  0  0  0  0  0  0  0  # atno 10718 bound_to 10713
  153.0325  135.5185  154.7396 H   0  0  0  0  0  0  0  0  0  0  0  0  # atno 10763 bound_to 10752
  154.6399  135.2911  155.0118 H   0  0  0  0  0  0  0  0  0  0  0  0  # atno 10764 bound_to 10752
  154.1040  135.6632  153.4925 H   0  0  0  0  0  0  0  0  0  0  0  0  # atno 10765 bound_to 10752
  141.1015  133.8876  157.1831 H   0  0  0  0  0  0  0  0  0  0  0  0  # atno 11005 bound_to 11000
  145.8545  140.9510  143.0732 LP  0  0  0  0  0  0  0  0  0  0  0  0  # atno 17320 bound_to 7965
  144.6753  140.0450  143.7480 LP  0  0  0  0  0  0  0  0  0  0  0  0  # atno 17321 bound_to 7965
  140.6289  143.2185  151.6538 LP  0  0  0  0  0  0  0  0  0  0  0  0  # atno 17342 bound_to 10162
  139.5162  144.3355  152.0787 LP  0  0  0  0  0  0  0  0  0  0  0  0  # atno 17343 bound_to 10162
  156.9740  130.5502  149.5292 LP  0  0  0  0  0  0  0  0  0  0  0  0  # atno 17370 bound_to 10713
  156.0363  130.5450  150.8661 LP  0  0  0  0  0  0  0  0  0  0  0  0  # atno 17371 bound_to 10713
  139.9868  135.0079  156.9881 LP  0  0  0  0  0  0  0  0  0  0  0  0  # atno 17394 bound_to 11000
  140.5011  134.1096  155.7250 LP  0  0  0  0  0  0  0  0  0  0  0  0  # atno 17395 bound_to 11000

$$$$
