AV-unprocessed.smi:2763|AV-procd|sdf|10639|dock3
  -GOLD-   2272015 93D 1   1.00000     0.00000
 Structure written by MMmdl.
 37 38  0  0  0  0  0  0  0  0  1 V2000
  150.3698  140.4825  156.2527 O   0  0  0  0  0  0  0  0  0  0  0  0
  150.0871  141.6723  156.1095 C   0  0  0  0  0  0  0  0  0  0  0  0
  149.3148  142.1380  155.1174 N   0  0  0  0  0  0  0  0  0  0  0  0
  148.6989  141.3273  154.0728 C   0  0  0  0  0  0  0  0  0  0  0  0
  147.2381  141.0112  154.4282 C   0  0  0  0  0  0  0  0  0  0  0  0
  146.4373  142.2567  154.8421 C   0  0  1  0  0  0  0  0  0  0  0  0
  145.9022  143.0295  153.6204 C   0  0  0  0  0  0  0  0  0  0  0  0
  145.0430  144.2186  154.0656 C   0  0  0  0  0  0  0  0  0  0  0  0
  143.9561  143.7385  155.0332 C   0  0  0  0  0  0  0  0  0  0  0  0
  144.5820  142.9286  156.1793 C   0  0  0  0  0  0  0  0  0  0  0  0
  145.3360  141.8429  155.6488 O   0  0  0  0  0  0  0  0  0  0  0  0
  150.4967  142.6699  156.9131 N   0  0  0  0  0  0  0  0  0  0  0  0
  151.3344  142.5896  158.0577 C   0  0  0  0  0  0  0  0  0  0  0  0
  151.3975  141.3141  158.6640 C   0  0  0  0  0  0  0  0  0  0  0  0
  152.1990  141.1287  159.8075 C   0  0  0  0  0  0  0  0  0  0  0  0
  152.9157  142.2266  160.3153 C   0  0  0  0  0  0  0  0  0  0  0  0
  153.6986  142.0970  161.4125 F   0  0  0  0  0  0  0  0  0  0  0  0
  152.7983  143.4629  159.6536 C   0  0  0  0  0  0  0  0  0  0  0  0
  152.0309  143.6415  158.5572 N   0  0  0  0  0  0  0  0  0  0  0  0
  149.1361  143.1309  155.0828 H   0  0  0  0  0  0  0  0  0  0  0  0
  148.7399  141.8334  153.1069 H   0  0  0  0  0  0  0  0  0  0  0  0
  149.2705  140.4043  153.9708 H   0  0  0  0  0  0  0  0  0  0  0  0
  146.7548  140.5480  153.5669 H   0  0  0  0  0  0  0  0  0  0  0  0
  147.2075  140.2737  155.2314 H   0  0  0  0  0  0  0  0  0  0  0  0
  147.0855  142.9112  155.4277 H   0  0  0  0  0  0  0  0  0  0  0  0
  146.7287  143.3807  153.0017 H   0  0  0  0  0  0  0  0  0  0  0  0
  145.3051  142.3635  152.9960 H   0  0  0  0  0  0  0  0  0  0  0  0
  145.6714  144.9618  154.5581 H   0  0  0  0  0  0  0  0  0  0  0  0
  144.5941  144.7095  153.2017 H   0  0  0  0  0  0  0  0  0  0  0  0
  143.4006  144.5888  155.4297 H   0  0  0  0  0  0  0  0  0  0  0  0
  143.2376  143.1157  154.4988 H   0  0  0  0  0  0  0  0  0  0  0  0
  145.2197  143.5598  156.8003 H   0  0  0  0  0  0  0  0  0  0  0  0
  143.8007  142.5311  156.8275 H   0  0  0  0  0  0  0  0  0  0  0  0
  150.1722  143.5960  156.6776 H   0  0  0  0  0  0  0  0  0  0  0  0
  150.8388  140.4821  158.2601 H   0  0  0  0  0  0  0  0  0  0  0  0
  152.2612  140.1622  160.2852 H   0  0  0  0  0  0  0  0  0  0  0  0
  153.3324  144.3302  160.0124 H   0  0  0  0  0  0  0  0  0  0  0  0
  1  2  2  0  0  0  0
  2  3  1  0  0  0  0
  2 12  1  0  0  0  0
  3  4  1  0  0  0  0
  3 20  1  0  0  0  0
  4  5  1  0  0  0  0
  4 21  1  0  0  0  0
  4 22  1  0  0  0  0
  5  6  1  0  0  0  0
  5 23  1  0  0  0  0
  5 24  1  0  0  0  0
  6 11  1  0  0  0  0
  6  7  1  0  0  0  0
  6 25  1  0  0  0  0
  7  8  1  0  0  0  0
  7 26  1  0  0  0  0
  7 27  1  0  0  0  0
  8  9  1  0  0  0  0
  8 28  1  0  0  0  0
  8 29  1  0  0  0  0
  9 10  1  0  0  0  0
  9 30  1  0  0  0  0
  9 31  1  0  0  0  0
 10 11  1  0  0  0  0
 10 32  1  0  0  0  0
 10 33  1  0  0  0  0
 12 13  1  0  0  0  0
 12 34  1  0  0  0  0
 13 19  1  0  0  0  0
 13 14  2  0  0  0  0
 14 15  1  0  0  0  0
 14 35  1  0  0  0  0
 15 16  2  0  0  0  0
 15 36  1  0  0  0  0
 16 17  1  0  0  0  0
 16 18  1  0  0  0  0
 18 19  2  0  0  0  0
 18 37  1  0  0  0  0
M  END
> <s_m_source_file>
AV-unprocessed.smi

> <i_m_source_file_index>
2763

> <i_lp_mmshare_version>
43012

> <i_f3d_flags>
0

> <s_epik_input>
bjFbY0hdYyhGKVtjSF1bY0hdYzFbTkhdQyg9TylbTkhdW0NIMl1bQ0gyXVtDQEBIXTJbQ0gyXVtDSDJdW0NIMl1bQ0gyXU8y

> <s_epik_cmdline>
J2VwaWtfcHl0aG9uJywgJy1waCcsICc3LjAnLCAnLXRuJywgJzgnLCAnLW1hJywgJzIwMCcsICctbWV0YWxfYmluZGluZycsICctaW1hZScsICc8aW5maWxlLm1hZT4nLCAnLW9tYWUnLCAnPG91dGZpbGUubWFlPic=

> <r_lp_tautomer_probability>
1

> <r_epik_Ionization_Penalty>
3.67849e-05

> <r_epik_Ionization_Penalty_Charging>
0

> <r_epik_Ionization_Penalty_Neutral>
3.67849e-05

> <r_epik_State_Penalty>
-0

> <r_epik_Charging_Adjusted_Penalty>
0

> <i_epik_Tot_Q>
0

> <i_epik_Tot_abs_Q>
0

> <r_epik_Metal_State_Penalty>
-0

> <b_epik_Metal_Only>
0

> <s_lp_Force_Field>
OPLS_2005

> <r_lp_Energy>
13.3257

> <b_lp_Chiralities_Consistent>
1

> <s_lp_Variant>
AV-unprocessed.smi:2763-2

> <Gold.Version>
5.8.1

> <Gold.Id.Protein>
6NUR|6NUR_protein|mol2

> <Gold.PLP.Fitness>
45.1560

> <Gold.PLP.PLP>
-40.2890

> <Gold.PLP.part.hbond>
-2.0000

> <Gold.PLP.part.metal>
0.0000

> <Gold.PLP.part.buried>
-7.0375

> <Gold.PLP.part.nonpolar>
-31.9631

> <Gold.PLP.part.repulsive>
0.4058

> <Gold.PLP.ligand.clash>
0.0023

> <Gold.PLP.ligand.torsion>
0.5340

> <Gold.PLP.Chemscore.Hbond>
1.9760

> <Gold.PLP.Chemscore.CHOScore>
0.0000

> <Gold.PLP.Chemscore.Metal>
0.0000

> <Gold.Chemscore.Hbonds>
donor molecule, donor type, donor heavy atom, donor atom, acceptor molecule, acceptor atom, score
      L1  H     3    20       P1  8028  1.00
      L1  H    12    34       P1  8028  0.98

> <Gold.PLP.Chemscore.Internal.Correction>
0.0093

> <Gold.Rescore>
     Score         DG    S(hbond)    S(metal)    S(lipo)     H(rot)  DE(clash)    DE(int)     intcor
     15.20     -17.16       1.95        0.00      77.71       1.54       0.00       1.95       ----

> <Gold.Chemscore.Fitness>
15.2031

> <Gold.Chemscore.DG>
-17.1584

> <Gold.Chemscore.ZeroCoef>
-5.4800

> <Gold.Chemscore.Hbond>
1.9535

> <Gold.Chemscore.Metal>
0.0000

> <Gold.Chemscore.Lipo>
77.7083

> <Gold.Chemscore.Internal_Hbond>
0.0000

> <Gold.Chemscore.DEClash>
0.0049

> <Gold.Chemscore.DEInternal>
1.9504

> <Gold.Chemscore.Rot>
1.5384

> <Gold.Chemscore.Internal.Correction>
   9.000000E+99

> <Gold.Chemscore.Hbonds>
donor molecule, donor type, donor heavy atom, donor atom, acceptor molecule, acceptor atom, score
      L1  H     3    20       P1  8028  1.00
      L1  H    12    34       P1  8028  0.91

> <Gold.Chemscore.Hbond.Weighted>
-6.5247

> <Gold.Chemscore.Metal.Weighted>
-0.0000

> <Gold.Chemscore.Lipo.Weighted>
-9.0919

> <Gold.Chemscore.Internal_Hbond.Weighted>
0.0000

> <Gold.Chemscore.DEClash.Weighted>
0.0049

> <Gold.Chemscore.DEInternal.Weighted>
1.9504

> <Gold.Chemscore.Rot.Weighted>
3.9382

> <Gold.Chemscore.Internal.Correction.Weighted>
   9.000000E+99

> <Gold.Protein.RotatedTorsions>
[ 6907 6896 6895 6894 ] final  -46.84 input  -60.11 | X-H torsion
[ 7974 7965 7964 7962 ] final  -18.86 input  175.53 | X-H torsion
[ 8008 7997 7996 7995 ] final    0.07 input   59.86 | X-H torsion
[ 10167 10162 10161 10158 ] final  160.15 input  -65.29 | X-H torsion
[ 10718 10713 10712 10709 ] final   75.40 input   66.30 | X-H torsion
[ 10763 10752 10751 10750 ] final   43.88 input  -60.55 | X-H torsion
[ 11005 11000 10999 10996 ] final  -56.61 input  -57.11 | X-H torsion

> <Gold.Protein.ActiveResidues>
 VAL166  LYS551  ARG553  GLY616  TRP617  ASP618  TYR619  PRO620  LYS621  CYS622 
 ASP623  PHE694  ASN695  SER759  ASP760  ASP761  ALA762  ILE779  LEU786  VAL792 
 PHE793  MET794  SER795  GLU796  ALA797  LYS798  CYS799  TRP800  GLU811  SER814 

> <Gold.Protein.RotatedAtoms>
  150.9070  134.8486  159.7399 H   0  0  0  0  0  0  0  0  0  0  0  0  # atno 6907 bound_to 6896
  152.4924  134.4416  159.9555 H   0  0  0  0  0  0  0  0  0  0  0  0  # atno 6908 bound_to 6896
  151.4462  133.3590  159.2824 H   0  0  0  0  0  0  0  0  0  0  0  0  # atno 6909 bound_to 6896
  146.1871  140.3981  142.8472 H   0  0  0  0  0  0  0  0  0  0  0  0  # atno 7974 bound_to 7965
  154.6639  140.2596  155.7079 H   0  0  0  0  0  0  0  0  0  0  0  0  # atno 8008 bound_to 7997
  156.2630  140.2843  156.1043 H   0  0  0  0  0  0  0  0  0  0  0  0  # atno 8009 bound_to 7997
  155.1268  140.0378  157.2754 H   0  0  0  0  0  0  0  0  0  0  0  0  # atno 8010 bound_to 7997
  139.4837  144.4661  151.8639 H   0  0  0  0  0  0  0  0  0  0  0  0  # atno 10167 bound_to 10162
  157.6632  130.9725  150.1349 H   0  0  0  0  0  0  0  0  0  0  0  0  # atno 10718 bound_to 10713
  152.9852  135.6088  154.3183 H   0  0  0  0  0  0  0  0  0  0  0  0  # atno 10763 bound_to 10752
  154.2894  135.2775  155.2663 H   0  0  0  0  0  0  0  0  0  0  0  0  # atno 10764 bound_to 10752
  154.4966  135.5878  153.6555 H   0  0  0  0  0  0  0  0  0  0  0  0  # atno 10765 bound_to 10752
  141.1128  133.6610  156.4645 H   0  0  0  0  0  0  0  0  0  0  0  0  # atno 11005 bound_to 11000
  144.8417  140.6867  143.6225 LP  0  0  0  0  0  0  0  0  0  0  0  0  # atno 17320 bound_to 7965
  145.3907  139.1617  143.4231 LP  0  0  0  0  0  0  0  0  0  0  0  0  # atno 17321 bound_to 7965
  140.4127  144.2348  150.5888 LP  0  0  0  0  0  0  0  0  0  0  0  0  # atno 17342 bound_to 10162
  140.4951  143.2335  151.8762 LP  0  0  0  0  0  0  0  0  0  0  0  0  # atno 17343 bound_to 10162
  156.2186  130.3672  149.8583 LP  0  0  0  0  0  0  0  0  0  0  0  0  # atno 17370 bound_to 10713
  156.6442  130.8717  151.3519 LP  0  0  0  0  0  0  0  0  0  0  0  0  # atno 17371 bound_to 10713
  140.4729  134.6736  157.5137 LP  0  0  0  0  0  0  0  0  0  0  0  0  # atno 17394 bound_to 11000
  140.0031  134.6805  155.9498 LP  0  0  0  0  0  0  0  0  0  0  0  0  # atno 17395 bound_to 11000

$$$$
