AV-unprocessed.smi:2438|AV-procd|sdf|9600|dock2
  -GOLD-   2272013233D 1   1.00000     0.00000
 Structure written by MMmdl.
 44 45  0  0  0  0  0  0  0  0  2 V2000
  150.1038  141.5481  157.3580 C   0  0  0  0  0  0  0  0  0  0  0  0
  150.4804  140.1477  157.4929 N   0  0  0  0  0  0  0  0  0  0  0  0
  151.7861  139.8871  158.0865 C   0  0  0  0  0  0  0  0  0  0  0  0
  150.1275  139.3606  156.3784 C   0  0  0  0  0  0  0  0  0  0  0  0
  150.6725  139.6757  155.1808 N   0  0  0  0  0  0  0  0  0  0  0  0
  150.3510  138.9642  154.0961 C   0  0  0  0  0  0  0  0  0  0  0  0
  149.5012  137.9301  154.1313 N   0  3  0  0  0  0  0  0  0  0  0  0
  148.9302  137.5709  155.3056 C   0  0  0  0  0  0  0  0  0  0  0  0
  149.2173  138.2819  156.4960 C   0  0  0  0  0  0  0  0  0  0  0  0
  148.6862  137.9405  157.7742 N   0  0  0  0  0  0  0  0  0  0  0  0
  148.1012  136.7985  158.1729 C   0  0  0  0  0  0  0  0  0  0  0  0
  147.9099  135.8125  157.4624 O   0  0  0  0  0  0  0  0  0  0  0  0
  147.7362  136.8711  159.4609 N   0  0  0  0  0  0  0  0  0  0  0  0
  147.0825  135.8135  160.2279 C   0  0  1  0  0  0  0  0  0  0  0  0
  147.9903  135.3794  161.3927 C   0  0  0  0  0  0  0  0  0  0  0  0
  147.3015  134.3253  162.2719 C   0  0  0  0  0  0  0  0  0  0  0  0
  145.9438  134.8289  162.7862 C   0  0  0  0  0  0  0  0  0  0  0  0
  145.0177  135.2557  161.6274 C   0  0  1  0  0  0  0  0  0  0  0  0
  143.6456  135.7455  162.1343 C   0  0  0  0  0  0  0  0  0  0  0  0
  143.7749  136.8632  162.8496 F   0  0  0  0  0  0  0  0  0  0  0  0
  142.8363  135.9854  161.1025 F   0  0  0  0  0  0  0  0  0  0  0  0
  143.0797  134.8096  162.8965 F   0  0  0  0  0  0  0  0  0  0  0  0
  145.7210  136.3124  160.7480 C   0  0  0  0  0  0  0  0  0  0  0  0
  149.0613  141.6618  157.0602 H   0  0  0  0  0  0  0  0  0  0  0  0
  150.7271  142.0395  156.6101 H   0  0  0  0  0  0  0  0  0  0  0  0
  150.2373  142.0693  158.3064 H   0  0  0  0  0  0  0  0  0  0  0  0
  151.9532  138.8156  158.2054 H   0  0  0  0  0  0  0  0  0  0  0  0
  151.8498  140.3462  159.0733 H   0  0  0  0  0  0  0  0  0  0  0  0
  152.5859  140.2977  157.4686 H   0  0  0  0  0  0  0  0  0  0  0  0
  150.7827  139.2079  153.1364 H   0  0  0  0  0  0  0  0  0  0  0  0
  148.2786  136.7144  155.2332 H   0  0  0  0  0  0  0  0  0  0  0  0
  148.7258  138.6784  158.4628 H   0  0  0  0  0  0  0  0  0  0  0  0
  147.9327  137.7276  159.9580 H   0  0  0  0  0  0  0  0  0  0  0  0
  146.9019  134.9422  159.5957 H   0  0  0  0  0  0  0  0  0  0  0  0
  148.9293  134.9798  161.0075 H   0  0  0  0  0  0  0  0  0  0  0  0
  148.2501  136.2452  162.0038 H   0  0  0  0  0  0  0  0  0  0  0  0
  147.1588  133.4079  161.6994 H   0  0  0  0  0  0  0  0  0  0  0  0
  147.9446  134.0669  163.1137 H   0  0  0  0  0  0  0  0  0  0  0  0
  145.4693  134.0450  163.3769 H   0  0  0  0  0  0  0  0  0  0  0  0
  146.1019  135.6700  163.4624 H   0  0  0  0  0  0  0  0  0  0  0  0
  144.8385  134.3762  161.0067 H   0  0  0  0  0  0  0  0  0  0  0  0
  145.8605  137.2299  161.3216 H   0  0  0  0  0  0  0  0  0  0  0  0
  145.0838  136.5729  159.9021 H   0  0  0  0  0  0  0  0  0  0  0  0
  149.2835  137.4050  153.2838 H   0  0  0  0  0  0  0  0  0  0  0  0
  1  2  1  0  0  0  0
  1 24  1  0  0  0  0
  1 25  1  0  0  0  0
  1 26  1  0  0  0  0
  2  3  1  0  0  0  0
  2  4  1  0  0  0  0
  3 27  1  0  0  0  0
  3 28  1  0  0  0  0
  3 29  1  0  0  0  0
  4  9  1  0  0  0  0
  4  5  2  0  0  0  0
  5  6  1  0  0  0  0
  6  7  2  0  0  0  0
  6 30  1  0  0  0  0
  7  8  1  0  0  0  0
  7 44  1  0  0  0  0
  8  9  2  0  0  0  0
  8 31  1  0  0  0  0
  9 10  1  0  0  0  0
 10 11  1  0  0  0  0
 10 32  1  0  0  0  0
 11 12  2  0  0  0  0
 11 13  1  0  0  0  0
 13 14  1  0  0  0  0
 13 33  1  0  0  0  0
 14 23  1  0  0  0  0
 14 15  1  0  0  0  0
 14 34  1  0  0  0  0
 15 16  1  0  0  0  0
 15 35  1  0  0  0  0
 15 36  1  0  0  0  0
 16 17  1  0  0  0  0
 16 37  1  0  0  0  0
 16 38  1  0  0  0  0
 17 18  1  0  0  0  0
 17 39  1  0  0  0  0
 17 40  1  0  0  0  0
 18 19  1  0  0  0  0
 18 23  1  0  0  0  0
 18 41  1  0  0  0  0
 19 20  1  0  0  0  0
 19 21  1  0  0  0  0
 19 22  1  0  0  0  0
 23 42  1  0  0  0  0
 23 43  1  0  0  0  0
M  CHG  1   7   1
M  END
> <s_m_source_file>
AV-unprocessed.smi

> <i_m_source_file_index>
2438

> <i_lp_mmshare_version>
43012

> <i_f3d_flags>
0

> <s_epik_input>
W0NIM11OKFtDSDNdKWMxbltjSF1uW2NIXWMxW05IXUMoPU8pW05IXVtDQEBIXTJbQ0gyXVtDSDJdW0NIMl1bQ0BASF0oQyhGKShGKUYpW0NIMl0y

> <s_epik_cmdline>
J2VwaWtfcHl0aG9uJywgJy1waCcsICc3LjAnLCAnLXRuJywgJzgnLCAnLW1hJywgJzIwMCcsICctbWV0YWxfYmluZGluZycsICctaW1hZScsICc8aW5maWxlLm1hZT4nLCAnLW9tYWUnLCAnPG91dGZpbGUubWFlPic=

> <r_lp_tautomer_probability>
0.999336

> <r_epik_Ionization_Penalty>
2.11643

> <r_epik_Ionization_Penalty_Charging>
2.11639

> <r_epik_Ionization_Penalty_Neutral>
4.47523e-05

> <r_epik_State_Penalty>
2.25369

> <r_epik_Charging_Adjusted_Penalty>
4.37008

> <i_epik_Tot_Q>
1

> <i_epik_Tot_abs_Q>
1

> <r_epik_Metal_State_Penalty>
2.27019

> <b_epik_Metal_Only>
0

> <s_lp_Force_Field>
OPLS_2005

> <r_lp_Energy>
18.5988

> <b_lp_Chiralities_Consistent>
1

> <s_lp_Variant>
AV-unprocessed.smi:2438-6

> <Gold.Version>
5.8.1

> <Gold.Id.Protein>
6NUR|6NUR_protein|mol2

> <Gold.PLP.Fitness>
36.5183

> <Gold.PLP.PLP>
-27.9972

> <Gold.PLP.part.hbond>
-1.2072

> <Gold.PLP.part.metal>
0.0000

> <Gold.PLP.part.buried>
-5.3515

> <Gold.PLP.part.nonpolar>
-21.0169

> <Gold.PLP.part.repulsive>
0.2968

> <Gold.PLP.ligand.clash>
0.0000

> <Gold.PLP.ligand.torsion>
0.3265

> <Gold.PLP.Chemscore.Hbond>
2.0000

> <Gold.PLP.Chemscore.CHOScore>
0.9366

> <Gold.PLP.Chemscore.Metal>
0.0000

> <Gold.Chemscore.Hbonds>
donor molecule, donor type, donor heavy atom, donor atom, acceptor molecule, acceptor atom, score
      L1  H     7    44       P1  7948  2.00
      L1  C     6    30       P1  7957  0.96

> <Gold.PLP.Chemscore.Internal.Correction>
0.3643

> <Gold.Rescore>
     Score         DG    S(hbond)    S(metal)    S(lipo)     H(rot)  DE(clash)    DE(int)     intcor
     11.64     -12.17       0.98        0.00      57.79       1.31       0.02       0.51       ----

> <Gold.Chemscore.Fitness>
11.6405

> <Gold.Chemscore.DG>
-12.1678

> <Gold.Chemscore.ZeroCoef>
-5.4800

> <Gold.Chemscore.Hbond>
0.9803

> <Gold.Chemscore.Metal>
0.0000

> <Gold.Chemscore.Lipo>
57.7902

> <Gold.Chemscore.Internal_Hbond>
0.0000

> <Gold.Chemscore.DEClash>
0.0170

> <Gold.Chemscore.DEInternal>
0.5103

> <Gold.Chemscore.Rot>
1.3078

> <Gold.Chemscore.Internal.Correction>
   9.000000E+99

> <Gold.Chemscore.Hbonds>
donor molecule, donor type, donor heavy atom, donor atom, acceptor molecule, acceptor atom, score
      L1  H     7    44       P1  7948  0.98

> <Gold.Chemscore.Hbond.Weighted>
-3.2744

> <Gold.Chemscore.Metal.Weighted>
-0.0000

> <Gold.Chemscore.Lipo.Weighted>
-6.7615

> <Gold.Chemscore.Internal_Hbond.Weighted>
0.0000

> <Gold.Chemscore.DEClash.Weighted>
0.0170

> <Gold.Chemscore.DEInternal.Weighted>
0.5103

> <Gold.Chemscore.Rot.Weighted>
3.3481

> <Gold.Chemscore.Internal.Correction.Weighted>
   9.000000E+99

> <Gold.Protein.RotatedTorsions>
[ 6907 6896 6895 6894 ] final  172.11 input  -60.11 | X-H torsion
[ 7974 7965 7964 7962 ] final -114.76 input  175.53 | X-H torsion
[ 8008 7997 7996 7995 ] final  122.92 input   59.86 | X-H torsion
[ 10167 10162 10161 10158 ] final  152.36 input  -65.29 | X-H torsion
[ 10718 10713 10712 10709 ] final -117.17 input   66.30 | X-H torsion
[ 10763 10752 10751 10750 ] final -109.39 input  -60.55 | X-H torsion
[ 11005 11000 10999 10996 ] final  125.65 input  -57.11 | X-H torsion

> <Gold.Protein.ActiveResidues>
 VAL166  LYS551  ARG553  GLY616  TRP617  ASP618  TYR619  PRO620  LYS621  CYS622 
 ASP623  PHE694  ASN695  SER759  ASP760  ASP761  ALA762  ILE779  LEU786  VAL792 
 PHE793  MET794  SER795  GLU796  ALA797  LYS798  CYS799  TRP800  GLU811  SER814 

> <Gold.Protein.RotatedAtoms>
  151.7895  133.3358  159.3494 H   0  0  0  0  0  0  0  0  0  0  0  0  # atno 6907 bound_to 6896
  150.7397  134.5856  159.5970 H   0  0  0  0  0  0  0  0  0  0  0  0  # atno 6908 bound_to 6896
  152.3220  134.7369  160.0362 H   0  0  0  0  0  0  0  0  0  0  0  0  # atno 6909 bound_to 6896
  145.1163  140.8642  143.3840 H   0  0  0  0  0  0  0  0  0  0  0  0  # atno 7974 bound_to 7965
  156.2746  140.2775  156.1545 H   0  0  0  0  0  0  0  0  0  0  0  0  # atno 8008 bound_to 7997
  155.0819  140.0388  157.2659 H   0  0  0  0  0  0  0  0  0  0  0  0  # atno 8009 bound_to 7997
  154.6957  140.2638  155.6774 H   0  0  0  0  0  0  0  0  0  0  0  0  # atno 8010 bound_to 7997
  139.4833  144.5364  151.7637 H   0  0  0  0  0  0  0  0  0  0  0  0  # atno 10167 bound_to 10162
  156.1014  130.6175  150.9129 H   0  0  0  0  0  0  0  0  0  0  0  0  # atno 10718 bound_to 10713
  154.8190  135.4603  154.0725 H   0  0  0  0  0  0  0  0  0  0  0  0  # atno 10763 bound_to 10752
  153.2094  135.6880  153.8139 H   0  0  0  0  0  0  0  0  0  0  0  0  # atno 10764 bound_to 10752
  153.7596  135.3286  155.3312 H   0  0  0  0  0  0  0  0  0  0  0  0  # atno 10765 bound_to 10752
  139.9417  134.9635  156.8589 H   0  0  0  0  0  0  0  0  0  0  0  0  # atno 11005 bound_to 11000
  145.0790  139.2974  143.5793 LP  0  0  0  0  0  0  0  0  0  0  0  0  # atno 17320 bound_to 7965
  146.3523  140.0290  142.8652 LP  0  0  0  0  0  0  0  0  0  0  0  0  # atno 17321 bound_to 7965
  140.4898  144.1327  150.5948 LP  0  0  0  0  0  0  0  0  0  0  0  0  # atno 17342 bound_to 10162
  140.4184  143.2623  151.9746 LP  0  0  0  0  0  0  0  0  0  0  0  0  # atno 17343 bound_to 10162
  157.6185  131.0931  150.8666 LP  0  0  0  0  0  0  0  0  0  0  0  0  # atno 17370 bound_to 10713
  156.8793  130.5173  149.5292 LP  0  0  0  0  0  0  0  0  0  0  0  0  # atno 17371 bound_to 10713
  140.5936  134.0238  155.7509 LP  0  0  0  0  0  0  0  0  0  0  0  0  # atno 17394 bound_to 11000
  141.1053  133.9703  157.3007 LP  0  0  0  0  0  0  0  0  0  0  0  0  # atno 17395 bound_to 11000

$$$$
