AV-unprocessed.smi:2510|AV-procd|sdf|9873|dock7
  -GOLD-   2272013503D 1   1.00000     0.00000
 Structure written by MMmdl.
 48 49  0  0  0  0  0  0  0  0  1 V2000
  152.6365  145.0051  157.5670 C   0  0  0  0  0  0  0  0  0  0  0  0
  152.9507  143.9639  158.6543 C   0  0  0  0  0  0  0  0  0  0  0  0
  151.8499  142.8978  158.8789 C   0  0  0  0  0  0  0  0  0  0  0  0
  150.5031  143.6095  159.1597 C   0  0  0  0  0  0  0  0  0  0  0  0
  150.5077  144.5577  160.3688 C   0  0  0  0  0  0  0  0  0  0  0  0
  151.8711  141.7603  157.8122 C   0  0  2  0  0  0  0  0  0  0  0  0
  150.5639  141.1501  157.5722 N   0  0  0  0  0  0  0  0  0  0  0  0
  150.1348  140.6997  156.3835 C   0  0  0  0  0  0  0  0  0  0  0  0
  150.8390  140.6727  155.3746 O   0  0  0  0  0  0  0  0  0  0  0  0
  148.6804  140.2292  156.3203 C   0  0  0  0  0  0  0  0  0  0  0  0
  148.4108  139.5691  154.9931 C   0  0  0  0  0  0  0  0  0  0  0  0
  147.3230  139.8066  154.1010 C   0  0  0  0  0  0  0  0  0  0  0  0
  147.5699  138.9828  153.0393 C   0  0  0  0  0  0  0  0  0  0  0  0
  146.8232  138.7612  151.7685 C   0  0  0  0  0  0  0  0  0  0  0  0
  148.7342  138.3127  153.3355 N   0  0  0  0  0  0  0  0  0  0  0  0
  149.2557  138.6597  154.5266 N   0  0  0  0  0  0  0  0  0  0  0  0
  152.7374  140.9067  158.7562 C   0  0  2  0  0  0  0  0  0  0  0  0
  152.5619  139.3910  158.8140 C   0  0  0  0  0  0  0  0  0  0  0  0
  152.2045  141.7854  159.8969 C   0  0  1  0  0  0  0  0  0  0  0  0
  153.1763  142.1974  160.8469 O   0  0  0  0  0  0  0  0  0  0  0  0
  152.6207  142.9038  161.9417 C   0  0  0  0  0  0  0  0  0  0  0  0
  149.1789  137.6264  152.7424 H   0  0  0  0  0  0  0  0  0  0  0  0
  153.5022  145.6427  157.3889 H   0  0  0  0  0  0  0  0  0  0  0  0
  151.8130  145.6576  157.8559 H   0  0  0  0  0  0  0  0  0  0  0  0
  152.3760  144.5336  156.6197 H   0  0  0  0  0  0  0  0  0  0  0  0
  153.8832  143.4751  158.3711 H   0  0  0  0  0  0  0  0  0  0  0  0
  153.1896  144.4797  159.5840 H   0  0  0  0  0  0  0  0  0  0  0  0
  150.1506  144.1423  158.2767 H   0  0  0  0  0  0  0  0  0  0  0  0
  149.7292  142.8699  159.3630 H   0  0  0  0  0  0  0  0  0  0  0  0
  149.4989  144.9148  160.5760 H   0  0  0  0  0  0  0  0  0  0  0  0
  151.1288  145.4359  160.1968 H   0  0  0  0  0  0  0  0  0  0  0  0
  150.8698  144.0554  161.2661 H   0  0  0  0  0  0  0  0  0  0  0  0
  152.4044  142.0176  156.8958 H   0  0  0  0  0  0  0  0  0  0  0  0
  149.9190  141.1309  158.3490 H   0  0  0  0  0  0  0  0  0  0  0  0
  148.4802  139.5423  157.1439 H   0  0  0  0  0  0  0  0  0  0  0  0
  148.0217  141.0868  156.4613 H   0  0  0  0  0  0  0  0  0  0  0  0
  146.4948  140.4898  154.2189 H   0  0  0  0  0  0  0  0  0  0  0  0
  146.0413  139.5102  151.6413 H   0  0  0  0  0  0  0  0  0  0  0  0
  146.3525  137.7780  151.7625 H   0  0  0  0  0  0  0  0  0  0  0  0
  147.4914  138.8238  150.9093 H   0  0  0  0  0  0  0  0  0  0  0  0
  153.7849  141.1528  158.5733 H   0  0  0  0  0  0  0  0  0  0  0  0
  151.5704  139.1120  159.1710 H   0  0  0  0  0  0  0  0  0  0  0  0
  153.2895  138.9334  159.4837 H   0  0  0  0  0  0  0  0  0  0  0  0
  152.6978  138.9421  157.8300 H   0  0  0  0  0  0  0  0  0  0  0  0
  151.3106  141.3650  160.3635 H   0  0  0  0  0  0  0  0  0  0  0  0
  153.4194  143.2270  162.6091 H   0  0  0  0  0  0  0  0  0  0  0  0
  151.9407  142.2755  162.5167 H   0  0  0  0  0  0  0  0  0  0  0  0
  152.0822  143.7912  161.6074 H   0  0  0  0  0  0  0  0  0  0  0  0
  1  2  1  0  0  0  0
  1 23  1  0  0  0  0
  1 24  1  0  0  0  0
  1 25  1  0  0  0  0
  2  3  1  0  0  0  0
  2 26  1  0  0  0  0
  2 27  1  0  0  0  0
  3 19  1  0  0  0  0
  3  4  1  0  0  0  0
  3  6  1  0  0  0  0
  4  5  1  0  0  0  0
  4 28  1  0  0  0  0
  4 29  1  0  0  0  0
  5 30  1  0  0  0  0
  5 31  1  0  0  0  0
  5 32  1  0  0  0  0
  6  7  1  0  0  0  0
  6 17  1  0  0  0  0
  6 33  1  0  0  0  0
  7  8  1  0  0  0  0
  7 34  1  0  0  0  0
  8  9  2  0  0  0  0
  8 10  1  0  0  0  0
 10 11  1  0  0  0  0
 10 35  1  0  0  0  0
 10 36  1  0  0  0  0
 11 16  2  0  0  0  0
 11 12  1  0  0  0  0
 12 13  2  0  0  0  0
 12 37  1  0  0  0  0
 13 14  1  0  0  0  0
 13 15  1  0  0  0  0
 14 38  1  0  0  0  0
 14 39  1  0  0  0  0
 14 40  1  0  0  0  0
 15 22  1  0  0  0  0
 15 16  1  0  0  0  0
 17 18  1  0  0  0  0
 17 19  1  0  0  0  0
 17 41  1  0  0  0  0
 18 42  1  0  0  0  0
 18 43  1  0  0  0  0
 18 44  1  0  0  0  0
 19 20  1  0  0  0  0
 19 45  1  0  0  0  0
 20 21  1  0  0  0  0
 21 46  1  0  0  0  0
 21 47  1  0  0  0  0
 21 48  1  0  0  0  0
M  END
> <s_m_source_file>
AV-unprocessed.smi

> <i_m_source_file_index>
2510

> <i_lp_mmshare_version>
43012

> <i_f3d_flags>
0

> <s_epik_input>
W0NIM11PW0NAQEhdMVtDQEhdKFtDSDNdKVtDQEBIXShDMShbQ0gyXVtDSDNdKVtDSDJdW0NIM10pW05IXUMoPU8pW0NIMl1jMltjSF1jKFtDSDNdKVtuSF1uMg==

> <s_epik_cmdline>
J2VwaWtfcHl0aG9uJywgJy1waCcsICc3LjAnLCAnLXRuJywgJzgnLCAnLW1hJywgJzIwMCcsICctbWV0YWxfYmluZGluZycsICctaW1hZScsICc8aW5maWxlLm1hZT4nLCAnLW9tYWUnLCAnPG91dGZpbGUubWFlPic=

> <r_lp_tautomer_probability>
0.5

> <r_epik_Ionization_Penalty>
9.73156e-05

> <r_epik_Ionization_Penalty_Charging>
0

> <r_epik_Ionization_Penalty_Neutral>
9.73156e-05

> <r_epik_State_Penalty>
0.41068

> <r_epik_Charging_Adjusted_Penalty>
0.41068

> <i_epik_Tot_Q>
0

> <i_epik_Tot_abs_Q>
0

> <r_epik_Metal_State_Penalty>
0.410699

> <b_epik_Metal_Only>
0

> <s_lp_Force_Field>
OPLS_2005

> <r_lp_Energy>
25.1692

> <b_lp_Chiralities_Consistent>
1

> <s_lp_Variant>
AV-unprocessed.smi:2510-4

> <Gold.Version>
5.8.1

> <Gold.Id.Protein>
6NUR|6NUR_protein|mol2

> <Gold.PLP.Fitness>
43.8124

> <Gold.PLP.PLP>
-39.0887

> <Gold.PLP.part.hbond>
-3.0000

> <Gold.PLP.part.metal>
0.0000

> <Gold.PLP.part.buried>
-4.2285

> <Gold.PLP.part.nonpolar>
-31.4187

> <Gold.PLP.part.repulsive>
0.3238

> <Gold.PLP.ligand.clash>
0.0000

> <Gold.PLP.ligand.torsion>
0.6861

> <Gold.PLP.Chemscore.Hbond>
1.8320

> <Gold.PLP.Chemscore.CHOScore>
0.0000

> <Gold.PLP.Chemscore.Metal>
0.0000

> <Gold.Chemscore.Hbonds>
donor molecule, donor type, donor heavy atom, donor atom, acceptor molecule, acceptor atom, score
      L1  H    15    22       P1  7948  0.94
      P1  H  7989  7998       L1     9  0.86

> <Gold.PLP.Chemscore.Internal.Correction>
0.5998

> <Gold.Rescore>
     Score         DG    S(hbond)    S(metal)    S(lipo)     H(rot)  DE(clash)    DE(int)     intcor
     18.12     -22.54       1.83        0.00     133.18       1.81       1.91       2.51       ----

> <Gold.Chemscore.Fitness>
18.1164

> <Gold.Chemscore.DG>
-22.5351

> <Gold.Chemscore.ZeroCoef>
-5.4800

> <Gold.Chemscore.Hbond>
1.8284

> <Gold.Chemscore.Metal>
0.0000

> <Gold.Chemscore.Lipo>
133.1813

> <Gold.Chemscore.Internal_Hbond>
0.0000

> <Gold.Chemscore.DEClash>
1.9100

> <Gold.Chemscore.DEInternal>
2.5087

> <Gold.Chemscore.Rot>
1.8102

> <Gold.Chemscore.Internal.Correction>
   9.000000E+99

> <Gold.Chemscore.Hbonds>
donor molecule, donor type, donor heavy atom, donor atom, acceptor molecule, acceptor atom, score
      L1  H    15    22       P1  7948  0.88
      P1  H  7989  7998       L1     9  0.79

> <Gold.Chemscore.Hbond.Weighted>
-6.1070

> <Gold.Chemscore.Metal.Weighted>
-0.0000

> <Gold.Chemscore.Lipo.Weighted>
-15.5822

> <Gold.Chemscore.Internal_Hbond.Weighted>
0.0000

> <Gold.Chemscore.DEClash.Weighted>
1.9100

> <Gold.Chemscore.DEInternal.Weighted>
2.5087

> <Gold.Chemscore.Rot.Weighted>
4.6341

> <Gold.Chemscore.Internal.Correction.Weighted>
   9.000000E+99

> <Gold.Protein.RotatedTorsions>
[ 6907 6896 6895 6894 ] final -137.38 input  -60.11 | X-H torsion
[ 7974 7965 7964 7962 ] final  -19.19 input  175.53 | X-H torsion
[ 8008 7997 7996 7995 ] final   65.09 input   59.86 | X-H torsion
[ 10167 10162 10161 10158 ] final  142.43 input  -65.29 | X-H torsion
[ 10718 10713 10712 10709 ] final  -42.47 input   66.30 | X-H torsion
[ 10763 10752 10751 10750 ] final -103.16 input  -60.55 | X-H torsion
[ 11005 11000 10999 10996 ] final  142.15 input  -57.11 | X-H torsion

> <Gold.Protein.ActiveResidues>
 VAL166  LYS551  ARG553  GLY616  TRP617  ASP618  TYR619  PRO620  LYS621  CYS622 
 ASP623  PHE694  ASN695  SER759  ASP760  ASP761  ALA762  ILE779  LEU786  VAL792 
 PHE793  MET794  SER795  GLU796  ALA797  LYS798  CYS799  TRP800  GLU811  SER814 

> <Gold.Protein.RotatedAtoms>
  151.0218  133.5870  159.2670 H   0  0  0  0  0  0  0  0  0  0  0  0  # atno 6907 bound_to 6896
  151.2984  135.0761  159.9239 H   0  0  0  0  0  0  0  0  0  0  0  0  # atno 6908 bound_to 6896
  152.5325  133.9904  159.7902 H   0  0  0  0  0  0  0  0  0  0  0  0  # atno 6909 bound_to 6896
  146.1854  140.4027  142.8478 H   0  0  0  0  0  0  0  0  0  0  0  0  # atno 7974 bound_to 7965
  155.6563  140.3497  155.4766 H   0  0  0  0  0  0  0  0  0  0  0  0  # atno 8008 bound_to 7997
  155.9806  140.1173  157.0753 H   0  0  0  0  0  0  0  0  0  0  0  0  # atno 8009 bound_to 7997
  154.4190  140.1139  156.5416 H   0  0  0  0  0  0  0  0  0  0  0  0  # atno 8010 bound_to 7997
  139.4994  144.6107  151.6277 H   0  0  0  0  0  0  0  0  0  0  0  0  # atno 10167 bound_to 10162
  156.2592  130.4195  149.8561 H   0  0  0  0  0  0  0  0  0  0  0  0  # atno 10718 bound_to 10713
  154.7787  135.4834  153.9798 H   0  0  0  0  0  0  0  0  0  0  0  0  # atno 10763 bound_to 10752
  153.1463  135.6782  153.8956 H   0  0  0  0  0  0  0  0  0  0  0  0  # atno 10764 bound_to 10752
  153.8615  135.3155  155.3416 H   0  0  0  0  0  0  0  0  0  0  0  0  # atno 10765 bound_to 10752
  140.0455  134.9283  157.0921 H   0  0  0  0  0  0  0  0  0  0  0  0  # atno 11005 bound_to 11000
  144.8388  140.6824  143.6243 LP  0  0  0  0  0  0  0  0  0  0  0  0  # atno 17320 bound_to 7965
  145.3954  139.1608  143.4206 LP  0  0  0  0  0  0  0  0  0  0  0  0  # atno 17321 bound_to 7965
  140.5781  143.9993  150.6253 LP  0  0  0  0  0  0  0  0  0  0  0  0  # atno 17342 bound_to 10162
  140.3133  143.3184  152.0857 LP  0  0  0  0  0  0  0  0  0  0  0  0  # atno 17343 bound_to 10162
  156.6082  130.8575  151.3448 LP  0  0  0  0  0  0  0  0  0  0  0  0  # atno 17370 bound_to 10713
  157.7244  130.9602  150.1573 LP  0  0  0  0  0  0  0  0  0  0  0  0  # atno 17371 bound_to 10713
  140.4001  134.2092  155.7163 LP  0  0  0  0  0  0  0  0  0  0  0  0  # atno 17394 bound_to 11000
  141.1904  133.8216  157.0918 LP  0  0  0  0  0  0  0  0  0  0  0  0  # atno 17395 bound_to 11000

$$$$
