AV-unprocessed.smi:250|AV-procd|sdf|1933|dock6
  -GOLD-   2262021 53D 1   1.00000     0.00000
 Structure written by MMmdl.
 56 60  0  0  0  0  0  0  0  0  1 V2000
  151.9543  145.0959  160.0806 C   0  0  0  0  0  0  0  0  0  0  0  0
  152.1688  143.6766  159.8288 N   0  0  0  0  0  0  0  0  0  0  0  0
  152.1373  142.7044  160.7555 C   0  0  0  0  0  0  0  0  0  0  0  0
  151.8941  142.8468  161.9523 O   0  0  0  0  0  0  0  0  0  0  0  0
  152.4301  141.5453  160.1586 N   0  0  0  0  0  0  0  0  0  0  0  0
  152.7855  141.7157  158.7660 C   0  0  1  0  0  0  0  0  0  0  0  0
  152.2944  140.5864  157.8281 C   0  0  0  0  0  0  0  0  0  0  0  0
  151.1037  140.9253  157.0483 N   0  0  0  0  0  0  0  0  0  0  0  0
  150.5820  139.9069  156.3171 C   0  0  0  0  0  0  0  0  0  0  0  0
  150.5624  140.0572  154.9671 N   0  0  0  0  0  0  0  0  0  0  0  0
  150.0688  139.0946  154.1839 C   0  0  0  0  0  0  0  0  0  0  0  0
  149.5495  137.9182  154.5361 N   0  0  0  0  0  0  0  0  0  0  0  0
  149.5582  137.7593  155.8904 C   0  0  0  0  0  0  0  0  0  0  0  0
  150.0470  138.6943  156.8482 C   0  0  0  0  0  0  0  0  0  0  0  0
  149.8615  138.1847  158.1294 N   0  0  0  0  0  0  0  0  0  0  0  0
  149.3085  137.0190  157.9387 C   0  0  0  0  0  0  0  0  0  0  0  0
  149.1055  136.6746  156.6224 N   0  0  0  0  0  0  0  0  0  0  0  0
  148.5022  135.4460  156.1243 C   0  0  0  0  0  0  0  0  0  0  0  0
  149.4560  134.2149  156.0244 C   0  0  0  0  0  0  0  0  0  0  0  0
  149.4200  133.7139  154.5524 C   0  0  0  0  0  0  0  0  0  0  0  0
  148.1262  133.3082  154.1514 O   0  0  0  0  0  0  0  0  0  0  0  0
  150.9081  134.6120  156.3998 C   0  0  0  0  0  0  0  0  0  0  0  0
  151.8541  133.4006  156.5079 C   0  0  0  0  0  0  0  0  0  0  0  0
  151.3394  132.4608  157.4434 O   0  0  0  0  0  0  0  0  0  0  0  0
  150.0650  131.9479  157.0745 C   0  0  0  0  0  0  0  0  0  0  0  0
  149.0391  133.0941  157.0125 C   0  0  0  0  0  0  0  0  0  0  0  0
  151.0101  142.2813  156.5232 C   0  0  0  0  0  0  0  0  0  0  0  0
  151.0382  143.2699  157.6860 C   0  0  0  0  0  0  0  0  0  0  0  0
  152.3551  143.1634  158.4777 C   0  0  1  0  0  0  0  0  0  0  0  0
  153.8764  141.6785  158.7610 H   0  0  0  0  0  0  0  0  0  0  0  0
  153.1530  143.6985  157.9604 H   0  0  0  0  0  0  0  0  0  0  0  0
  152.6087  145.4488  160.8786 H   0  0  0  0  0  0  0  0  0  0  0  0
  150.9206  145.2770  160.3766 H   0  0  0  0  0  0  0  0  0  0  0  0
  152.1614  145.6885  159.1891 H   0  0  0  0  0  0  0  0  0  0  0  0
  152.4819  140.6560  160.6341 H   0  0  0  0  0  0  0  0  0  0  0  0
  153.0861  140.3594  157.1130 H   0  0  0  0  0  0  0  0  0  0  0  0
  152.1412  139.6746  158.4067 H   0  0  0  0  0  0  0  0  0  0  0  0
  150.0945  139.2959  153.1232 H   0  0  0  0  0  0  0  0  0  0  0  0
  149.0355  136.3713  158.7593 H   0  0  0  0  0  0  0  0  0  0  0  0
  147.6561  135.2162  156.7730 H   0  0  0  0  0  0  0  0  0  0  0  0
  148.0728  135.6616  155.1449 H   0  0  0  0  0  0  0  0  0  0  0  0
  149.7534  134.5024  153.8770 H   0  0  0  0  0  0  0  0  0  0  0  0
  150.0893  132.8718  154.3867 H   0  0  0  0  0  0  0  0  0  0  0  0
  147.7431  132.7957  154.8470 H   0  0  0  0  0  0  0  0  0  0  0  0
  151.3033  135.3321  155.6824 H   0  0  0  0  0  0  0  0  0  0  0  0
  150.9241  135.1097  157.3687 H   0  0  0  0  0  0  0  0  0  0  0  0
  152.0158  132.9222  155.5420 H   0  0  0  0  0  0  0  0  0  0  0  0
  152.8338  133.7294  156.8546 H   0  0  0  0  0  0  0  0  0  0  0  0
  150.1300  131.4114  156.1277 H   0  0  0  0  0  0  0  0  0  0  0  0
  149.7577  131.2178  157.8232 H   0  0  0  0  0  0  0  0  0  0  0  0
  148.9524  133.4981  158.0202 H   0  0  0  0  0  0  0  0  0  0  0  0
  148.0534  132.7014  156.7617 H   0  0  0  0  0  0  0  0  0  0  0  0
  151.8345  142.4727  155.8353 H   0  0  0  0  0  0  0  0  0  0  0  0
  150.0788  142.4114  155.9708 H   0  0  0  0  0  0  0  0  0  0  0  0
  150.9064  144.2873  157.3172 H   0  0  0  0  0  0  0  0  0  0  0  0
  150.1851  143.0661  158.3361 H   0  0  0  0  0  0  0  0  0  0  0  0
  1  2  1  0  0  0  0
  1 32  1  0  0  0  0
  1 33  1  0  0  0  0
  1 34  1  0  0  0  0
  2 29  1  0  0  0  0
  2  3  1  0  0  0  0
  3  4  2  0  0  0  0
  3  5  1  0  0  0  0
  5  6  1  0  0  0  0
  5 35  1  0  0  0  0
  6 30  1  0  0  0  0
  6 29  1  0  0  0  0
  6  7  1  0  0  0  0
  7  8  1  0  0  0  0
  7 36  1  0  0  0  0
  7 37  1  0  0  0  0
  8  9  1  0  0  0  0
  8 27  1  0  0  0  0
  9 14  1  0  0  0  0
  9 10  2  0  0  0  0
 10 11  1  0  0  0  0
 11 12  2  0  0  0  0
 11 38  1  0  0  0  0
 12 13  1  0  0  0  0
 13 17  1  0  0  0  0
 13 14  2  0  0  0  0
 14 15  1  0  0  0  0
 15 16  2  0  0  0  0
 16 17  1  0  0  0  0
 16 39  1  0  0  0  0
 17 18  1  0  0  0  0
 18 19  1  0  0  0  0
 18 40  1  0  0  0  0
 18 41  1  0  0  0  0
 19 26  1  0  0  0  0
 19 20  1  0  0  0  0
 19 22  1  0  0  0  0
 20 21  1  0  0  0  0
 20 42  1  0  0  0  0
 20 43  1  0  0  0  0
 21 44  1  0  0  0  0
 22 23  1  0  0  0  0
 22 45  1  0  0  0  0
 22 46  1  0  0  0  0
 23 24  1  0  0  0  0
 23 47  1  0  0  0  0
 23 48  1  0  0  0  0
 24 25  1  0  0  0  0
 25 26  1  0  0  0  0
 25 49  1  0  0  0  0
 25 50  1  0  0  0  0
 26 51  1  0  0  0  0
 26 52  1  0  0  0  0
 27 28  1  0  0  0  0
 27 53  1  0  0  0  0
 27 54  1  0  0  0  0
 28 29  1  0  0  0  0
 28 55  1  0  0  0  0
 28 56  1  0  0  0  0
 29 31  1  0  0  0  0
M  END
> <s_m_source_file>
AV-unprocessed.smi

> <i_m_source_file_index>
250

> <i_lp_mmshare_version>
43012

> <i_f3d_flags>
0

> <s_epik_input>
Tz1DKFtOSF0xKU4oW0NIM10pW0NASF0oW0NASF0xMilbQ0gyXVtDSDJdTihbQ0gyXTIpYyhuW2NIXW4zKWMoYzM0KW5bY0hdbjRbQ0gyXUM1KFtDSDJdW09IXSlbQ0gyXVtDSDJdT1tDSDJdW0NIMl01

> <s_epik_cmdline>
J2VwaWtfcHl0aG9uJywgJy1waCcsICc3LjAnLCAnLXRuJywgJzgnLCAnLW1hJywgJzIwMCcsICctbWV0YWxfYmluZGluZycsICctaW1hZScsICc8aW5maWxlLm1hZT4nLCAnLW9tYWUnLCAnPG91dGZpbGUubWFlPic=

> <r_lp_tautomer_probability>
1

> <r_epik_Ionization_Penalty>
0.00229024

> <r_epik_Ionization_Penalty_Charging>
0

> <r_epik_Ionization_Penalty_Neutral>
0.00229024

> <r_epik_State_Penalty>
0.0013961

> <r_epik_Charging_Adjusted_Penalty>
0.0013961

> <i_epik_Tot_Q>
0

> <i_epik_Tot_abs_Q>
0

> <r_epik_Metal_State_Penalty>
-0

> <b_epik_Metal_Only>
0

> <s_lp_Force_Field>
OPLS_2005

> <r_lp_Energy>
68.1887

> <b_lp_Chiralities_Consistent>
1

> <s_lp_Variant>
AV-unprocessed.smi:250-4

> <Gold.Version>
5.8.1

> <Gold.Id.Protein>
6NUR|6NUR_protein|mol2

> <Gold.PLP.Fitness>
45.3690

> <Gold.PLP.PLP>
-39.6673

> <Gold.PLP.part.hbond>
-3.0000

> <Gold.PLP.part.metal>
0.0000

> <Gold.PLP.part.buried>
-7.5281

> <Gold.PLP.part.nonpolar>
-31.3911

> <Gold.PLP.part.repulsive>
0.9268

> <Gold.PLP.ligand.clash>
0.0000

> <Gold.PLP.ligand.torsion>
2.1876

> <Gold.PLP.Chemscore.Hbond>
2.2678

> <Gold.PLP.Chemscore.CHOScore>
1.0000

> <Gold.PLP.Chemscore.Metal>
0.0000

> <Gold.Chemscore.Hbonds>
donor molecule, donor type, donor heavy atom, donor atom, acceptor molecule, acceptor atom, score
      P1  H  6896  6907       L1    24  1.00
      P1  H  6933  6945       L1     4  0.57
      P1  H  7989  7998       L1    10  0.70
      L1  C    11    38       P1  7957  1.00

> <Gold.PLP.Chemscore.Internal.Correction>
0.2733

> <Gold.Rescore>
     Score         DG    S(hbond)    S(metal)    S(lipo)     H(rot)  DE(clash)    DE(int)     intcor
     11.39     -13.82       1.07        0.00      89.25       2.22       0.31       2.11       ----

> <Gold.Chemscore.Fitness>
11.3915

> <Gold.Chemscore.DG>
-13.8170

> <Gold.Chemscore.ZeroCoef>
-5.4800

> <Gold.Chemscore.Hbond>
1.0690

> <Gold.Chemscore.Metal>
0.0000

> <Gold.Chemscore.Lipo>
89.2487

> <Gold.Chemscore.Internal_Hbond>
0.0000

> <Gold.Chemscore.DEClash>
0.3113

> <Gold.Chemscore.DEInternal>
2.1142

> <Gold.Chemscore.Rot>
2.2170

> <Gold.Chemscore.Internal.Correction>
   9.000000E+99

> <Gold.Chemscore.Hbonds>
donor molecule, donor type, donor heavy atom, donor atom, acceptor molecule, acceptor atom, score
      P1  H  6896  6907       L1    24  0.51
      P1  H  6933  6945       L1     4  0.25
      P1  H  7989  7998       L1    10  0.07

> <Gold.Chemscore.Hbond.Weighted>
-3.5705

> <Gold.Chemscore.Metal.Weighted>
-0.0000

> <Gold.Chemscore.Lipo.Weighted>
-10.4421

> <Gold.Chemscore.Internal_Hbond.Weighted>
0.0000

> <Gold.Chemscore.DEClash.Weighted>
0.3113

> <Gold.Chemscore.DEInternal.Weighted>
2.1142

> <Gold.Chemscore.Rot.Weighted>
5.6756

> <Gold.Chemscore.Internal.Correction.Weighted>
   9.000000E+99

> <Gold.Protein.RotatedTorsions>
[ 6907 6896 6895 6894 ] final -173.85 input  -60.11 | X-H torsion
[ 7974 7965 7964 7962 ] final   96.94 input  175.53 | X-H torsion
[ 8008 7997 7996 7995 ] final   37.17 input   59.86 | X-H torsion
[ 10167 10162 10161 10158 ] final  -38.62 input  -65.29 | X-H torsion
[ 10718 10713 10712 10709 ] final   71.05 input   66.30 | X-H torsion
[ 10763 10752 10751 10750 ] final  -85.71 input  -60.55 | X-H torsion
[ 11005 11000 10999 10996 ] final  -90.17 input  -57.11 | X-H torsion

> <Gold.Protein.ActiveResidues>
 VAL166  LYS551  ARG553  GLY616  TRP617  ASP618  TYR619  PRO620  LYS621  CYS622 
 ASP623  PHE694  ASN695  SER759  ASP760  ASP761  ALA762  ILE779  LEU786  VAL792 
 PHE793  MET794  SER795  GLU796  ALA797  LYS798  CYS799  TRP800  GLU811  SER814 

> <Gold.Protein.RotatedAtoms>
  151.5628  133.3401  159.2974 H   0  0  0  0  0  0  0  0  0  0  0  0  # atno 6907 bound_to 6896
  150.8413  134.7708  159.6945 H   0  0  0  0  0  0  0  0  0  0  0  0  # atno 6908 bound_to 6896
  152.4480  134.5462  159.9905 H   0  0  0  0  0  0  0  0  0  0  0  0  # atno 6909 bound_to 6896
  145.4322  139.2309  143.3138 H   0  0  0  0  0  0  0  0  0  0  0  0  # atno 7974 bound_to 7965
  155.1994  140.3314  155.4345 H   0  0  0  0  0  0  0  0  0  0  0  0  # atno 8008 bound_to 7997
  156.2412  140.1896  156.7032 H   0  0  0  0  0  0  0  0  0  0  0  0  # atno 8009 bound_to 7997
  154.6151  140.0603  156.9530 H   0  0  0  0  0  0  0  0  0  0  0  0  # atno 8010 bound_to 7997
  140.7087  143.3266  151.2666 H   0  0  0  0  0  0  0  0  0  0  0  0  # atno 10167 bound_to 10162
  157.6432  130.9508  150.0735 H   0  0  0  0  0  0  0  0  0  0  0  0  # atno 10718 bound_to 10713
  154.6141  135.5475  153.7505 H   0  0  0  0  0  0  0  0  0  0  0  0  # atno 10763 bound_to 10752
  153.0208  135.6397  154.1535 H   0  0  0  0  0  0  0  0  0  0  0  0  # atno 10764 bound_to 10752
  154.1472  135.2905  155.3125 H   0  0  0  0  0  0  0  0  0  0  0  0  # atno 10765 bound_to 10752
  141.1571  133.7675  156.9700 H   0  0  0  0  0  0  0  0  0  0  0  0  # atno 11005 bound_to 11000
  146.2601  140.5060  142.8857 LP  0  0  0  0  0  0  0  0  0  0  0  0  # atno 17320 bound_to 7965
  144.8175  140.6494  143.6374 LP  0  0  0  0  0  0  0  0  0  0  0  0  # atno 17321 bound_to 7965
  139.6736  143.9977  152.2767 LP  0  0  0  0  0  0  0  0  0  0  0  0  # atno 17342 bound_to 10162
  139.9584  144.6574  150.8103 LP  0  0  0  0  0  0  0  0  0  0  0  0  # atno 17343 bound_to 10162
  156.1732  130.3647  149.9136 LP  0  0  0  0  0  0  0  0  0  0  0  0  # atno 17370 bound_to 10713
  156.7106  130.8969  151.3609 LP  0  0  0  0  0  0  0  0  0  0  0  0  # atno 17371 bound_to 10713
  140.1136  134.9461  157.2101 LP  0  0  0  0  0  0  0  0  0  0  0  0  # atno 17394 bound_to 11000
  140.3162  134.2967  155.7256 LP  0  0  0  0  0  0  0  0  0  0  0  0  # atno 17395 bound_to 11000

$$$$
