AV-unprocessed.smi:3252|AV-procd|sdf|12441|dock1
  -GOLD-   2272018333D 1   1.00000     0.00000
 Structure written by MMmdl.
 37 38  0  0  0  0  0  0  0  0  2 V2000
  149.8179  134.3579  154.5496 C   0  0  0  0  0  0  0  0  0  0  0  0
  150.6579  135.6087  154.8426 C   0  0  0  0  0  0  0  0  0  0  0  0
  149.9780  136.8606  154.4163 N   0  3  1  0  0  0  0  0  0  0  0  0
  148.6297  137.0331  155.0092 C   0  0  0  0  0  0  0  0  0  0  0  0
  148.7229  137.5236  156.4642 C   0  0  0  0  0  0  0  0  0  0  0  0
  149.4665  138.7342  156.5014 O   0  0  0  0  0  0  0  0  0  0  0  0
  150.8102  138.5696  156.0588 C   0  0  2  0  0  0  0  0  0  0  0  0
  151.5514  139.9108  156.2018 C   0  0  0  0  0  0  0  0  0  0  0  0
  151.9677  140.1772  157.5742 N   0  0  0  0  0  0  0  0  0  0  0  0
  151.9611  141.4732  158.1108 C   0  0  0  0  0  0  0  0  0  0  0  0
  152.6368  141.7005  159.3283 C   0  0  0  0  0  0  0  0  0  0  0  0
  152.6361  142.9989  159.8750 C   0  0  0  0  0  0  0  0  0  0  0  0
  151.9602  144.0245  159.1851 C   0  0  0  0  0  0  0  0  0  0  0  0
  151.9284  145.3795  159.7082 C   0  0  0  0  0  0  0  0  0  0  0  0
  151.9030  146.4586  160.1246 N   0  0  0  0  0  0  0  0  0  0  0  0
  151.3155  143.7028  157.9739 C   0  0  0  0  0  0  0  0  0  0  0  0
  151.3146  142.4600  157.4452 N   0  0  0  0  0  0  0  0  0  0  0  0
  150.7824  138.0986  154.5873 C   0  0  0  0  0  0  0  0  0  0  0  0
  150.2974  133.4698  154.9620 H   0  0  0  0  0  0  0  0  0  0  0  0
  149.6923  134.1891  153.4807 H   0  0  0  0  0  0  0  0  0  0  0  0
  148.8269  134.4350  154.9982 H   0  0  0  0  0  0  0  0  0  0  0  0
  150.8255  135.6460  155.9197 H   0  0  0  0  0  0  0  0  0  0  0  0
  151.6429  135.5219  154.3845 H   0  0  0  0  0  0  0  0  0  0  0  0
  148.0865  137.7702  154.4165 H   0  0  0  0  0  0  0  0  0  0  0  0
  148.0562  136.1077  154.9459 H   0  0  0  0  0  0  0  0  0  0  0  0
  147.7249  137.7129  156.8600 H   0  0  0  0  0  0  0  0  0  0  0  0
  149.1830  136.7743  157.1102 H   0  0  0  0  0  0  0  0  0  0  0  0
  151.3126  137.8253  156.6788 H   0  0  0  0  0  0  0  0  0  0  0  0
  152.4606  139.8807  155.6009 H   0  0  0  0  0  0  0  0  0  0  0  0
  150.9555  140.7315  155.8016 H   0  0  0  0  0  0  0  0  0  0  0  0
  152.1302  139.3919  158.1881 H   0  0  0  0  0  0  0  0  0  0  0  0
  153.1474  140.8970  159.8390 H   0  0  0  0  0  0  0  0  0  0  0  0
  153.1459  143.1976  160.8069 H   0  0  0  0  0  0  0  0  0  0  0  0
  150.7850  144.4569  157.4103 H   0  0  0  0  0  0  0  0  0  0  0  0
  151.7940  137.9622  154.2070 H   0  0  0  0  0  0  0  0  0  0  0  0
  150.3322  138.8776  153.9701 H   0  0  0  0  0  0  0  0  0  0  0  0
  149.8278  136.7507  153.4235 H   0  0  0  0  0  0  0  0  0  0  0  0
  1  2  1  0  0  0  0
  1 19  1  0  0  0  0
  1 20  1  0  0  0  0
  1 21  1  0  0  0  0
  2  3  1  0  0  0  0
  2 22  1  0  0  0  0
  2 23  1  0  0  0  0
  3 18  1  0  0  0  0
  3  4  1  0  0  0  0
  3 37  1  0  0  0  0
  4  5  1  0  0  0  0
  4 24  1  0  0  0  0
  4 25  1  0  0  0  0
  5  6  1  0  0  0  0
  5 26  1  0  0  0  0
  5 27  1  0  0  0  0
  6  7  1  0  0  0  0
  7  8  1  0  0  0  0
  7 18  1  0  0  0  0
  7 28  1  0  0  0  0
  8  9  1  0  0  0  0
  8 29  1  0  0  0  0
  8 30  1  0  0  0  0
  9 10  1  0  0  0  0
  9 31  1  0  0  0  0
 10 17  1  0  0  0  0
 10 11  2  0  0  0  0
 11 12  1  0  0  0  0
 11 32  1  0  0  0  0
 12 13  2  0  0  0  0
 12 33  1  0  0  0  0
 13 14  1  0  0  0  0
 13 16  1  0  0  0  0
 14 15  3  0  0  0  0
 16 17  2  0  0  0  0
 16 34  1  0  0  0  0
 18 35  1  0  0  0  0
 18 36  1  0  0  0  0
M  CHG  1   3   1
M  END
> <s_m_source_file>
AV-unprocessed.smi

> <i_m_source_file_index>
3252

> <i_lp_mmshare_version>
43012

> <i_f3d_flags>
0

> <s_epik_input>
W0NIM11bQ0gyXU4xW0NIMl1bQ0gyXU9bQ0BIXShbQ0gyXTEpW0NIMl1bTkhdYzJbY0hdW2NIXWMoQyNOKVtjSF1uMg==

> <s_epik_cmdline>
J2VwaWtfcHl0aG9uJywgJy1waCcsICc3LjAnLCAnLXRuJywgJzgnLCAnLW1hJywgJzIwMCcsICctbWV0YWxfYmluZGluZycsICctaW1hZScsICc8aW5maWxlLm1hZT4nLCAnLW9tYWUnLCAnPG91dGZpbGUubWFlPic=

> <r_epik_Ionization_Penalty>
0.178512

> <r_epik_Ionization_Penalty_Charging>
0.178504

> <r_epik_Ionization_Penalty_Neutral>
8.15545e-06

> <r_epik_State_Penalty>
0.167974

> <r_epik_Charging_Adjusted_Penalty>
0.346478

> <i_epik_Tot_Q>
1

> <i_epik_Tot_abs_Q>
1

> <r_epik_Metal_State_Penalty>
0.167974

> <b_epik_Metal_Only>
0

> <s_lp_Force_Field>
OPLS_2005

> <r_lp_Energy>
19.5584

> <b_lp_Chiralities_Consistent>
1

> <s_lp_Variant>
AV-unprocessed.smi:3252-3

> <Gold.Version>
5.8.1

> <Gold.Id.Protein>
6NUR|6NUR_protein|mol2

> <Gold.PLP.Fitness>
42.5562

> <Gold.PLP.PLP>
-34.2708

> <Gold.PLP.part.hbond>
-3.1778

> <Gold.PLP.part.metal>
0.0000

> <Gold.PLP.part.buried>
-3.1512

> <Gold.PLP.part.nonpolar>
-28.6541

> <Gold.PLP.part.repulsive>
0.5471

> <Gold.PLP.ligand.clash>
0.0000

> <Gold.PLP.ligand.torsion>
0.3806

> <Gold.PLP.Chemscore.Hbond>
2.0000

> <Gold.PLP.Chemscore.CHOScore>
1.0000

> <Gold.PLP.Chemscore.Metal>
0.0000

> <Gold.Chemscore.Hbonds>
donor molecule, donor type, donor heavy atom, donor atom, acceptor molecule, acceptor atom, score
      L1  H     3    37       P1  7948  2.00
      L1  C    16    34       P1  8028  0.92

> <Gold.PLP.Chemscore.Internal.Correction>
0.0466

> <Gold.Rescore>
     Score         DG    S(hbond)    S(metal)    S(lipo)     H(rot)  DE(clash)    DE(int)     intcor
     12.91     -13.64       0.97        0.00      74.24       1.47       0.27       0.46       ----

> <Gold.Chemscore.Fitness>
12.9080

> <Gold.Chemscore.DG>
-13.6417

> <Gold.Chemscore.ZeroCoef>
-5.4800

> <Gold.Chemscore.Hbond>
0.9681

> <Gold.Chemscore.Metal>
0.0000

> <Gold.Chemscore.Lipo>
74.2437

> <Gold.Chemscore.Internal_Hbond>
0.0000

> <Gold.Chemscore.DEClash>
0.2692

> <Gold.Chemscore.DEInternal>
0.4644

> <Gold.Chemscore.Rot>
1.4681

> <Gold.Chemscore.Internal.Correction>
   9.000000E+99

> <Gold.Chemscore.Hbonds>
donor molecule, donor type, donor heavy atom, donor atom, acceptor molecule, acceptor atom, score
      L1  H     3    37       P1  7948  0.34

> <Gold.Chemscore.Hbond.Weighted>
-3.2336

> <Gold.Chemscore.Metal.Weighted>
-0.0000

> <Gold.Chemscore.Lipo.Weighted>
-8.6865

> <Gold.Chemscore.Internal_Hbond.Weighted>
0.0000

> <Gold.Chemscore.DEClash.Weighted>
0.2692

> <Gold.Chemscore.DEInternal.Weighted>
0.4644

> <Gold.Chemscore.Rot.Weighted>
3.7584

> <Gold.Chemscore.Internal.Correction.Weighted>
   9.000000E+99

> <Gold.Protein.RotatedTorsions>
[ 6907 6896 6895 6894 ] final -171.62 input  -60.11 | X-H torsion
[ 7974 7965 7964 7962 ] final -113.00 input  175.53 | X-H torsion
[ 8008 7997 7996 7995 ] final   81.56 input   59.86 | X-H torsion
[ 10167 10162 10161 10158 ] final -163.76 input  -65.29 | X-H torsion
[ 10718 10713 10712 10709 ] final  140.15 input   66.30 | X-H torsion
[ 10763 10752 10751 10750 ] final -116.31 input  -60.55 | X-H torsion
[ 11005 11000 10999 10996 ] final   60.13 input  -57.11 | X-H torsion

> <Gold.Protein.ActiveResidues>
 VAL166  LYS551  ARG553  GLY616  TRP617  ASP618  TYR619  PRO620  LYS621  CYS622 
 ASP623  PHE694  ASN695  SER759  ASP760  ASP761  ALA762  ILE779  LEU786  VAL792 
 PHE793  MET794  SER795  GLU796  ALA797  LYS798  CYS799  TRP800  GLU811  SER814 

> <Gold.Protein.RotatedAtoms>
  151.5267  133.3456  159.2910 H   0  0  0  0  0  0  0  0  0  0  0  0  # atno 6907 bound_to 6896
  150.8619  134.7975  159.7100 H   0  0  0  0  0  0  0  0  0  0  0  0  # atno 6908 bound_to 6896
  152.4635  134.5137  159.9813 H   0  0  0  0  0  0  0  0  0  0  0  0  # atno 6909 bound_to 6896
  145.1373  140.8758  143.3722 H   0  0  0  0  0  0  0  0  0  0  0  0  # atno 7974 bound_to 7965
  155.8988  140.3434  155.6010 H   0  0  0  0  0  0  0  0  0  0  0  0  # atno 8008 bound_to 7997
  155.7525  140.0822  157.2213 H   0  0  0  0  0  0  0  0  0  0  0  0  # atno 8009 bound_to 7997
  154.4041  140.1551  156.2727 H   0  0  0  0  0  0  0  0  0  0  0  0  # atno 8010 bound_to 7997
  139.6298  144.0462  152.2006 H   0  0  0  0  0  0  0  0  0  0  0  0  # atno 10167 bound_to 10162
  157.4065  131.1023  151.0498 H   0  0  0  0  0  0  0  0  0  0  0  0  # atno 10718 bound_to 10713
  154.8514  135.4350  154.1801 H   0  0  0  0  0  0  0  0  0  0  0  0  # atno 10763 bound_to 10752
  153.2893  135.6960  153.7314 H   0  0  0  0  0  0  0  0  0  0  0  0  # atno 10764 bound_to 10752
  153.6487  135.3455  155.3068 H   0  0  0  0  0  0  0  0  0  0  0  0  # atno 10765 bound_to 10752
  140.0253  134.6091  155.9581 H   0  0  0  0  0  0  0  0  0  0  0  0  # atno 11005 bound_to 11000
  145.0570  139.3136  143.5899 LP  0  0  0  0  0  0  0  0  0  0  0  0  # atno 17320 bound_to 7965
  146.3508  139.9998  142.8677 LP  0  0  0  0  0  0  0  0  0  0  0  0  # atno 17321 bound_to 7965
  140.0124  144.6214  150.7636 LP  0  0  0  0  0  0  0  0  0  0  0  0  # atno 17342 bound_to 10162
  140.7432  143.2843  151.3508 LP  0  0  0  0  0  0  0  0  0  0  0  0  # atno 17343 bound_to 10162
  157.1478  130.6171  149.5573 LP  0  0  0  0  0  0  0  0  0  0  0  0  # atno 17370 bound_to 10713
  155.9838  130.4859  150.6951 LP  0  0  0  0  0  0  0  0  0  0  0  0  # atno 17371 bound_to 10713
  141.1799  133.6545  156.4978 LP  0  0  0  0  0  0  0  0  0  0  0  0  # atno 17394 bound_to 11000
  140.4316  134.7096  157.4945 LP  0  0  0  0  0  0  0  0  0  0  0  0  # atno 17395 bound_to 11000

$$$$
