AV-unprocessed.smi:2270|AV-procd|sdf|9155|dock3
  -GOLD-   2272012363D 1   1.00000     0.00000
 Structure written by MMmdl.
 53 54  0  0  0  0  0  0  0  0  2 V2000
  153.1951  141.6817  160.7662 C   0  0  0  0  0  0  0  0  0  0  0  0
  152.4340  142.8284  160.1344 C   0  0  0  0  0  0  0  0  0  0  0  0
  152.4351  144.1086  160.7217 C   0  0  0  0  0  0  0  0  0  0  0  0
  151.7147  145.1320  160.0808 C   0  0  0  0  0  0  0  0  0  0  0  0
  151.0216  144.8344  158.8922 C   0  0  0  0  0  0  0  0  0  0  0  0
  151.0588  143.5134  158.3775 C   0  0  0  0  0  0  0  0  0  0  0  0
  150.3950  143.1967  157.1637 N   0  0  0  0  0  0  0  0  0  0  0  0
  150.4307  142.0413  156.4775 C   0  0  0  0  0  0  0  0  0  0  0  0
  151.0721  141.0410  156.8002 O   0  0  0  0  0  0  0  0  0  0  0  0
  149.6838  142.1127  155.3686 N   0  0  0  0  0  0  0  0  0  0  0  0
  149.5076  141.0249  154.4123 C   0  0  0  0  0  0  0  0  0  0  0  0
  148.6963  139.8338  154.9990 C   0  0  1  0  0  0  0  0  0  0  0  0
  147.2274  139.7645  154.4630 C   0  0  0  0  0  0  0  0  0  0  0  0
  147.1035  139.4764  152.9545 C   0  0  0  0  0  0  0  0  0  0  0  0
  146.3928  140.9998  154.8448 C   0  0  0  0  0  0  0  0  0  0  0  0
  149.4297  138.5511  154.8541 N   0  0  0  0  0  0  0  0  0  0  0  0
  150.6166  138.4077  155.7125 C   0  0  0  0  0  0  0  0  0  0  0  0
  150.2385  138.2653  157.2029 C   0  0  0  0  0  0  0  0  0  0  0  0
  149.3587  137.0899  157.4019 N   0  3  0  0  0  0  0  0  0  0  0  0
  148.9884  136.8839  158.8180 C   0  0  0  0  0  0  0  0  0  0  0  0
  148.1824  137.1534  156.5032 C   0  0  0  0  0  0  0  0  0  0  0  0
  148.6402  137.3241  155.0394 C   0  0  0  0  0  0  0  0  0  0  0  0
  151.7728  142.5419  158.9919 N   0  0  0  0  0  0  0  0  0  0  0  0
  153.6409  141.9784  161.7160 H   0  0  0  0  0  0  0  0  0  0  0  0
  153.9946  141.3479  160.1042 H   0  0  0  0  0  0  0  0  0  0  0  0
  152.5282  140.8394  160.9530 H   0  0  0  0  0  0  0  0  0  0  0  0
  152.9769  144.3060  161.6349 H   0  0  0  0  0  0  0  0  0  0  0  0
  151.6980  146.1313  160.4904 H   0  0  0  0  0  0  0  0  0  0  0  0
  150.4846  145.6237  158.3877 H   0  0  0  0  0  0  0  0  0  0  0  0
  149.9181  143.9665  156.7181 H   0  0  0  0  0  0  0  0  0  0  0  0
  149.1922  142.9729  155.1740 H   0  0  0  0  0  0  0  0  0  0  0  0
  149.0176  141.4210  153.5230 H   0  0  0  0  0  0  0  0  0  0  0  0
  150.4800  140.6877  154.0558 H   0  0  0  0  0  0  0  0  0  0  0  0
  148.6034  140.0374  156.0648 H   0  0  0  0  0  0  0  0  0  0  0  0
  146.7232  138.9518  154.9822 H   0  0  0  0  0  0  0  0  0  0  0  0
  147.4369  140.3199  152.3509 H   0  0  0  0  0  0  0  0  0  0  0  0
  146.0654  139.2817  152.6843 H   0  0  0  0  0  0  0  0  0  0  0  0
  147.6834  138.6019  152.6601 H   0  0  0  0  0  0  0  0  0  0  0  0
  146.6863  141.8850  154.2811 H   0  0  0  0  0  0  0  0  0  0  0  0
  146.4863  141.2285  155.9069 H   0  0  0  0  0  0  0  0  0  0  0  0
  145.3353  140.8296  154.6406 H   0  0  0  0  0  0  0  0  0  0  0  0
  151.1663  137.5197  155.3967 H   0  0  0  0  0  0  0  0  0  0  0  0
  151.3142  139.2314  155.5713 H   0  0  0  0  0  0  0  0  0  0  0  0
  151.1458  138.1331  157.7934 H   0  0  0  0  0  0  0  0  0  0  0  0
  149.7555  139.1687  157.5769 H   0  0  0  0  0  0  0  0  0  0  0  0
  148.3990  137.7207  159.1951 H   0  0  0  0  0  0  0  0  0  0  0  0
  149.8805  136.7862  159.4376 H   0  0  0  0  0  0  0  0  0  0  0  0
  148.4016  135.9719  158.9326 H   0  0  0  0  0  0  0  0  0  0  0  0
  147.6121  136.2287  156.5973 H   0  0  0  0  0  0  0  0  0  0  0  0
  147.5159  137.9620  156.8057 H   0  0  0  0  0  0  0  0  0  0  0  0
  147.7926  137.2846  154.3584 H   0  0  0  0  0  0  0  0  0  0  0  0
  149.2579  136.4700  154.7572 H   0  0  0  0  0  0  0  0  0  0  0  0
  149.8929  136.2808  157.1189 H   0  0  0  0  0  0  0  0  0  0  0  0
  1  2  1  0  0  0  0
  1 24  1  0  0  0  0
  1 25  1  0  0  0  0
  1 26  1  0  0  0  0
  2 23  1  0  0  0  0
  2  3  2  0  0  0  0
  3  4  1  0  0  0  0
  3 27  1  0  0  0  0
  4  5  2  0  0  0  0
  4 28  1  0  0  0  0
  5  6  1  0  0  0  0
  5 29  1  0  0  0  0
  6  7  1  0  0  0  0
  6 23  2  0  0  0  0
  7  8  1  0  0  0  0
  7 30  1  0  0  0  0
  8  9  2  0  0  0  0
  8 10  1  0  0  0  0
 10 11  1  0  0  0  0
 10 31  1  0  0  0  0
 11 12  1  0  0  0  0
 11 32  1  0  0  0  0
 11 33  1  0  0  0  0
 12 13  1  0  0  0  0
 12 16  1  0  0  0  0
 12 34  1  0  0  0  0
 13 14  1  0  0  0  0
 13 15  1  0  0  0  0
 13 35  1  0  0  0  0
 14 36  1  0  0  0  0
 14 37  1  0  0  0  0
 14 38  1  0  0  0  0
 15 39  1  0  0  0  0
 15 40  1  0  0  0  0
 15 41  1  0  0  0  0
 16 22  1  0  0  0  0
 16 17  1  0  0  0  0
 17 18  1  0  0  0  0
 17 42  1  0  0  0  0
 17 43  1  0  0  0  0
 18 19  1  0  0  0  0
 18 44  1  0  0  0  0
 18 45  1  0  0  0  0
 19 20  1  0  0  0  0
 19 21  1  0  0  0  0
 19 53  1  0  0  0  0
 20 46  1  0  0  0  0
 20 47  1  0  0  0  0
 20 48  1  0  0  0  0
 21 22  1  0  0  0  0
 21 49  1  0  0  0  0
 21 50  1  0  0  0  0
 22 51  1  0  0  0  0
 22 52  1  0  0  0  0
M  CHG  1  19   1
M  END
> <s_m_source_file>
AV-unprocessed.smi

> <i_m_source_file_index>
2270

> <i_lp_mmshare_version>
43012

> <i_f3d_flags>
0

> <s_epik_input>
W0NIM11jMVtjSF1bY0hdW2NIXWMobjEpW05IXUMoPU8pW05IXVtDSDJdW0NASF0oW0NIXShbQ0gzXSlbQ0gzXSlOMltDSDJdW0NIMl1OKFtDSDNdKVtDSDJdW0NIMl0y

> <s_epik_cmdline>
J2VwaWtfcHl0aG9uJywgJy1waCcsICc3LjAnLCAnLXRuJywgJzgnLCAnLW1hJywgJzIwMCcsICctbWV0YWxfYmluZGluZycsICctaW1hZScsICc8aW5maWxlLm1hZT4nLCAnLW9tYWUnLCAnPG91dGZpbGUubWFlPic=

> <r_epik_Ionization_Penalty>
0.0278292

> <r_epik_Ionization_Penalty_Charging>
0.0272987

> <r_epik_Ionization_Penalty_Neutral>
0.000530468

> <r_epik_State_Penalty>
0.0776825

> <r_epik_Charging_Adjusted_Penalty>
0.104981

> <i_epik_Tot_Q>
1

> <i_epik_Tot_abs_Q>
1

> <r_epik_Metal_State_Penalty>
0.0776809

> <b_epik_Metal_Only>
0

> <s_lp_Force_Field>
OPLS_2005

> <r_lp_Energy>
35.6144

> <b_lp_Chiralities_Consistent>
1

> <s_lp_Variant>
AV-unprocessed.smi:2270-2

> <Gold.Version>
5.8.1

> <Gold.Id.Protein>
6NUR|6NUR_protein|mol2

> <Gold.PLP.Fitness>
42.0018

> <Gold.PLP.PLP>
-38.0425

> <Gold.PLP.part.hbond>
-2.0000

> <Gold.PLP.part.metal>
0.0000

> <Gold.PLP.part.buried>
-4.3019

> <Gold.PLP.part.nonpolar>
-31.3098

> <Gold.PLP.part.repulsive>
0.3925

> <Gold.PLP.ligand.clash>
0.0000

> <Gold.PLP.ligand.torsion>
1.0705

> <Gold.PLP.Chemscore.Hbond>
1.9760

> <Gold.PLP.Chemscore.CHOScore>
0.0000

> <Gold.PLP.Chemscore.Metal>
0.0000

> <Gold.Chemscore.Hbonds>
donor molecule, donor type, donor heavy atom, donor atom, acceptor molecule, acceptor atom, score
      L1  H     7    30       P1  8028  1.00
      L1  H    10    31       P1  8028  0.96

> <Gold.PLP.Chemscore.Internal.Correction>
0.1723

> <Gold.Rescore>
     Score         DG    S(hbond)    S(metal)    S(lipo)     H(rot)  DE(clash)    DE(int)     intcor
     14.36     -19.10       1.90        0.00      97.30       1.61       0.79       3.95       ----

> <Gold.Chemscore.Fitness>
14.3582

> <Gold.Chemscore.DG>
-19.0989

> <Gold.Chemscore.ZeroCoef>
-5.4800

> <Gold.Chemscore.Hbond>
1.9008

> <Gold.Chemscore.Metal>
0.0000

> <Gold.Chemscore.Lipo>
97.2995

> <Gold.Chemscore.Internal_Hbond>
0.0000

> <Gold.Chemscore.DEClash>
0.7889

> <Gold.Chemscore.DEInternal>
3.9519

> <Gold.Chemscore.Rot>
1.6070

> <Gold.Chemscore.Internal.Correction>
   9.000000E+99

> <Gold.Chemscore.Hbonds>
donor molecule, donor type, donor heavy atom, donor atom, acceptor molecule, acceptor atom, score
      L1  H     7    30       P1  8028  0.98
      L1  H    10    31       P1  8028  0.92

> <Gold.Chemscore.Hbond.Weighted>
-6.3488

> <Gold.Chemscore.Metal.Weighted>
-0.0000

> <Gold.Chemscore.Lipo.Weighted>
-11.3840

> <Gold.Chemscore.Internal_Hbond.Weighted>
0.0000

> <Gold.Chemscore.DEClash.Weighted>
0.7889

> <Gold.Chemscore.DEInternal.Weighted>
3.9519

> <Gold.Chemscore.Rot.Weighted>
4.1140

> <Gold.Chemscore.Internal.Correction.Weighted>
   9.000000E+99

> <Gold.Protein.RotatedTorsions>
[ 6907 6896 6895 6894 ] final  -23.13 input  -60.11 | X-H torsion
[ 7974 7965 7964 7962 ] final -127.99 input  175.53 | X-H torsion
[ 8008 7997 7996 7995 ] final  -93.43 input   59.86 | X-H torsion
[ 10167 10162 10161 10158 ] final  102.31 input  -65.29 | X-H torsion
[ 10718 10713 10712 10709 ] final -127.73 input   66.30 | X-H torsion
[ 10763 10752 10751 10750 ] final -131.29 input  -60.55 | X-H torsion
[ 11005 11000 10999 10996 ] final   39.59 input  -57.11 | X-H torsion

> <Gold.Protein.ActiveResidues>
 VAL166  LYS551  ARG553  GLY616  TRP617  ASP618  TYR619  PRO620  LYS621  CYS622 
 ASP623  PHE694  ASN695  SER759  ASP760  ASP761  ALA762  ILE779  LEU786  VAL792 
 PHE793  MET794  SER795  GLU796  ALA797  LYS798  CYS799  TRP800  GLU811  SER814 

> <Gold.Protein.RotatedAtoms>
  151.2084  135.0471  159.8900 H   0  0  0  0  0  0  0  0  0  0  0  0  # atno 6907 bound_to 6896
  152.5427  134.0772  159.8230 H   0  0  0  0  0  0  0  0  0  0  0  0  # atno 6908 bound_to 6896
  151.0922  133.5259  159.2646 H   0  0  0  0  0  0  0  0  0  0  0  0  # atno 6909 bound_to 6896
  144.9715  140.7550  143.4668 H   0  0  0  0  0  0  0  0  0  0  0  0  # atno 7974 bound_to 7965
  154.7356  140.0499  157.0766 H   0  0  0  0  0  0  0  0  0  0  0  0  # atno 8008 bound_to 7997
  155.0245  140.3151  155.4762 H   0  0  0  0  0  0  0  0  0  0  0  0  # atno 8009 bound_to 7997
  156.2852  140.2161  156.5364 H   0  0  0  0  0  0  0  0  0  0  0  0  # atno 8010 bound_to 7997
  139.7361  144.7023  151.0646 H   0  0  0  0  0  0  0  0  0  0  0  0  # atno 10167 bound_to 10162
  156.1885  130.6779  151.0394 H   0  0  0  0  0  0  0  0  0  0  0  0  # atno 10718 bound_to 10713
  154.8751  135.3835  154.4222 H   0  0  0  0  0  0  0  0  0  0  0  0  # atno 10763 bound_to 10752
  153.4925  135.7030  153.5881 H   0  0  0  0  0  0  0  0  0  0  0  0  # atno 10764 bound_to 10752
  153.4249  135.3892  155.2101 H   0  0  0  0  0  0  0  0  0  0  0  0  # atno 10765 bound_to 10752
  140.2013  134.3867  155.8095 H   0  0  0  0  0  0  0  0  0  0  0  0  # atno 11005 bound_to 11000
  145.2552  139.2015  143.4921 LP  0  0  0  0  0  0  0  0  0  0  0  0  # atno 17320 bound_to 7965
  146.3383  140.2472  142.8597 LP  0  0  0  0  0  0  0  0  0  0  0  0  # atno 17321 bound_to 7965
  140.7779  143.4982  150.9805 LP  0  0  0  0  0  0  0  0  0  0  0  0  # atno 17342 bound_to 10162
  139.8670  143.7241  152.3169 LP  0  0  0  0  0  0  0  0  0  0  0  0  # atno 17343 bound_to 10162
  157.6914  131.0809  150.7097 LP  0  0  0  0  0  0  0  0  0  0  0  0  # atno 17370 bound_to 10713
  156.7153  130.4664  149.5536 LP  0  0  0  0  0  0  0  0  0  0  0  0  # atno 17371 bound_to 10713
  141.2227  133.7095  156.8262 LP  0  0  0  0  0  0  0  0  0  0  0  0  # atno 17394 bound_to 11000
  140.2051  134.8868  157.3212 LP  0  0  0  0  0  0  0  0  0  0  0  0  # atno 17395 bound_to 11000

$$$$
