AV-unprocessed.smi:2623|AV-procd|sdf|10229|dock5
  -GOLD-   2272014233D 1   1.00000     0.00000
 Structure written by MMmdl.
 40 42  0  0  0  0  0  0  0  0  1 V2000
  152.9768  139.5648  154.7227 O   0  0  0  0  0  0  0  0  0  0  0  0
  151.9594  138.8426  155.3810 C   0  0  0  0  0  0  0  0  0  0  0  0
  150.5998  139.4442  155.1907 C   0  0  0  0  0  0  0  0  0  0  0  0
  150.4159  140.5262  154.4331 N   0  0  0  0  0  0  0  0  0  0  0  0
  149.0519  140.7253  154.5108 C   0  0  0  0  0  0  0  0  0  0  0  0
  148.2331  141.7132  153.9187 C   0  0  0  0  0  0  0  0  0  0  0  0
  146.8402  141.7122  154.1391 C   0  0  0  0  0  0  0  0  0  0  0  0
  146.2471  140.7243  154.9515 C   0  0  0  0  0  0  0  0  0  0  0  0
  147.0450  139.7311  155.5513 C   0  0  0  0  0  0  0  0  0  0  0  0
  148.4357  139.7390  155.3315 C   0  0  0  0  0  0  0  0  0  0  0  0
  149.4817  138.9301  155.7663 N   0  0  0  0  0  0  0  0  0  0  0  0
  149.3531  137.7701  156.6406 C   0  0  0  0  0  0  0  0  0  0  0  0
  149.0167  138.1542  158.0963 C   0  0  2  0  0  0  0  0  0  0  0  0
  149.8774  139.1853  158.5353 O   0  0  0  0  0  0  0  0  0  0  0  0
  149.1503  136.9667  159.0600 C   0  0  0  0  0  0  0  0  0  0  0  0
  148.3974  137.2419  160.2342 O   0  0  0  0  0  0  0  0  0  0  0  0
  147.8636  136.1800  160.9323 C   0  0  0  0  0  0  0  0  0  0  0  0
  147.2798  136.4667  162.1837 C   0  0  0  0  0  0  0  0  0  0  0  0
  146.7118  135.4427  162.9659 C   0  0  0  0  0  0  0  0  0  0  0  0
  146.7209  134.1150  162.5005 C   0  0  0  0  0  0  0  0  0  0  0  0
  147.2995  133.8145  161.2534 C   0  0  0  0  0  0  0  0  0  0  0  0
  147.8690  134.8387  160.4716 C   0  0  0  0  0  0  0  0  0  0  0  0
  152.6449  139.8581  153.8880 H   0  0  0  0  0  0  0  0  0  0  0  0
  151.9581  137.8223  154.9953 H   0  0  0  0  0  0  0  0  0  0  0  0
  152.1871  138.7687  156.4443 H   0  0  0  0  0  0  0  0  0  0  0  0
  148.6776  142.4724  153.2922 H   0  0  0  0  0  0  0  0  0  0  0  0
  146.2238  142.4720  153.6813 H   0  0  0  0  0  0  0  0  0  0  0  0
  145.1791  140.7291  155.1138 H   0  0  0  0  0  0  0  0  0  0  0  0
  146.5926  138.9727  156.1728 H   0  0  0  0  0  0  0  0  0  0  0  0
  148.5659  137.1351  156.2324 H   0  0  0  0  0  0  0  0  0  0  0  0
  150.2647  137.1748  156.6106 H   0  0  0  0  0  0  0  0  0  0  0  0
  147.9977  138.5379  158.1521 H   0  0  0  0  0  0  0  0  0  0  0  0
  149.4935  139.5930  159.2969 H   0  0  0  0  0  0  0  0  0  0  0  0
  148.7994  136.0523  158.5783 H   0  0  0  0  0  0  0  0  0  0  0  0
  150.1991  136.8277  159.3282 H   0  0  0  0  0  0  0  0  0  0  0  0
  147.2680  137.4833  162.5484 H   0  0  0  0  0  0  0  0  0  0  0  0
  146.2692  135.6764  163.9231 H   0  0  0  0  0  0  0  0  0  0  0  0
  146.2859  133.3286  163.0995 H   0  0  0  0  0  0  0  0  0  0  0  0
  147.3077  132.7958  160.8947 H   0  0  0  0  0  0  0  0  0  0  0  0
  148.3048  134.5686  159.5220 H   0  0  0  0  0  0  0  0  0  0  0  0
  1  2  1  0  0  0  0
  1 23  1  0  0  0  0
  2  3  1  0  0  0  0
  2 24  1  0  0  0  0
  2 25  1  0  0  0  0
  3 11  1  0  0  0  0
  3  4  2  0  0  0  0
  4  5  1  0  0  0  0
  5 10  2  0  0  0  0
  5  6  1  0  0  0  0
  6  7  2  0  0  0  0
  6 26  1  0  0  0  0
  7  8  1  0  0  0  0
  7 27  1  0  0  0  0
  8  9  2  0  0  0  0
  8 28  1  0  0  0  0
  9 10  1  0  0  0  0
  9 29  1  0  0  0  0
 10 11  1  0  0  0  0
 11 12  1  0  0  0  0
 12 13  1  0  0  0  0
 12 30  1  0  0  0  0
 12 31  1  0  0  0  0
 13 14  1  0  0  0  0
 13 15  1  0  0  0  0
 13 32  1  0  0  0  0
 14 33  1  0  0  0  0
 15 16  1  0  0  0  0
 15 34  1  0  0  0  0
 15 35  1  0  0  0  0
 16 17  1  0  0  0  0
 17 22  1  0  0  0  0
 17 18  2  0  0  0  0
 18 19  1  0  0  0  0
 18 36  1  0  0  0  0
 19 20  2  0  0  0  0
 19 37  1  0  0  0  0
 20 21  1  0  0  0  0
 20 38  1  0  0  0  0
 21 22  2  0  0  0  0
 21 39  1  0  0  0  0
 22 40  1  0  0  0  0
M  END
> <s_m_source_file>
AV-unprocessed.smi

> <i_m_source_file_index>
2623

> <i_lp_mmshare_version>
43012

> <i_f3d_flags>
0

> <s_epik_input>
W2NIXTFbY0hdW2NIXVtjSF1jKGMxMiluKGMobjIpW0NIMl1bT0hdKVtDSDJdW0NASF0oW09IXSlbQ0gyXU9jM1tjSF1bY0hdW2NIXVtjSF1bY0hdMw==

> <s_epik_cmdline>
J2VwaWtfcHl0aG9uJywgJy1waCcsICc3LjAnLCAnLXRuJywgJzgnLCAnLW1hJywgJzIwMCcsICctbWV0YWxfYmluZGluZycsICctaW1hZScsICc8aW5maWxlLm1hZT4nLCAnLW9tYWUnLCAnPG91dGZpbGUubWFlPic=

> <r_lp_tautomer_probability>
1

> <r_epik_Ionization_Penalty>
0.0583159

> <r_epik_Ionization_Penalty_Charging>
0

> <r_epik_Ionization_Penalty_Neutral>
0.0583159

> <r_epik_State_Penalty>
0.0503525

> <r_epik_Charging_Adjusted_Penalty>
0.0503525

> <i_epik_Tot_Q>
0

> <i_epik_Tot_abs_Q>
0

> <r_epik_Metal_State_Penalty>
5.25517e-05

> <b_epik_Metal_Only>
0

> <s_lp_Force_Field>
OPLS_2005

> <r_lp_Energy>
14.6276

> <b_lp_Chiralities_Consistent>
1

> <s_lp_Variant>
AV-unprocessed.smi:2623-1

> <Gold.Version>
5.8.1

> <Gold.Id.Protein>
6NUR|6NUR_protein|mol2

> <Gold.PLP.Fitness>
48.6794

> <Gold.PLP.PLP>
-42.0272

> <Gold.PLP.part.hbond>
-4.7140

> <Gold.PLP.part.metal>
0.0000

> <Gold.PLP.part.buried>
-4.2924

> <Gold.PLP.part.nonpolar>
-33.3960

> <Gold.PLP.part.repulsive>
0.1206

> <Gold.PLP.ligand.clash>
0.0000

> <Gold.PLP.ligand.torsion>
0.6044

> <Gold.PLP.Chemscore.Hbond>
2.5879

> <Gold.PLP.Chemscore.CHOScore>
0.0000

> <Gold.PLP.Chemscore.Metal>
0.0000

> <Gold.Chemscore.Hbonds>
donor molecule, donor type, donor heavy atom, donor atom, acceptor molecule, acceptor atom, score
      P1  H  6931  6943       L1    16  0.49
      P1  H  6934  6947       L1    16  0.25
      P1  H  7989  7998       L1     4  0.96
      P1  H  7997  8010       L1     1  1.00

> <Gold.PLP.Chemscore.Internal.Correction>
0.0972

> <Gold.Rescore>
     Score         DG    S(hbond)    S(metal)    S(lipo)     H(rot)  DE(clash)    DE(int)     intcor
     16.46     -17.18       2.71        0.00      89.13       3.04       0.07       0.65       ----

> <Gold.Chemscore.Fitness>
16.4600

> <Gold.Chemscore.DG>
-17.1801

> <Gold.Chemscore.ZeroCoef>
-5.4800

> <Gold.Chemscore.Hbond>
2.7077

> <Gold.Chemscore.Metal>
0.0000

> <Gold.Chemscore.Lipo>
89.1280

> <Gold.Chemscore.Internal_Hbond>
0.0000

> <Gold.Chemscore.DEClash>
0.0695

> <Gold.Chemscore.DEInternal>
0.6506

> <Gold.Chemscore.Rot>
3.0358

> <Gold.Chemscore.Internal.Correction>
   9.000000E+99

> <Gold.Chemscore.Hbonds>
donor molecule, donor type, donor heavy atom, donor atom, acceptor molecule, acceptor atom, score
      P1  H  6931  6943       L1    16  0.07
      P1  H  6934  6947       L1    16  0.13
      P1  H  7989  7998       L1     4  0.81
      P1  H  7997  8010       L1     1  0.95

> <Gold.Chemscore.Hbond.Weighted>
-9.0437

> <Gold.Chemscore.Metal.Weighted>
-0.0000

> <Gold.Chemscore.Lipo.Weighted>
-10.4280

> <Gold.Chemscore.Internal_Hbond.Weighted>
0.0000

> <Gold.Chemscore.DEClash.Weighted>
0.0695

> <Gold.Chemscore.DEInternal.Weighted>
0.6506

> <Gold.Chemscore.Rot.Weighted>
7.7716

> <Gold.Chemscore.Internal.Correction.Weighted>
   9.000000E+99

> <Gold.Protein.RotatedTorsions>
[ 6907 6896 6895 6894 ] final  177.73 input  -60.11 | X-H torsion
[ 7974 7965 7964 7962 ] final  178.73 input  175.53 | X-H torsion
[ 8008 7997 7996 7995 ] final  111.95 input   59.86 | X-H torsion
[ 10167 10162 10161 10158 ] final -104.39 input  -65.29 | X-H torsion
[ 10718 10713 10712 10709 ] final  -60.93 input   66.30 | X-H torsion
[ 10763 10752 10751 10750 ] final  109.11 input  -60.55 | X-H torsion
[ 11005 11000 10999 10996 ] final -152.21 input  -57.11 | X-H torsion

> <Gold.Protein.ActiveResidues>
 VAL166  LYS551  ARG553  GLY616  TRP617  ASP618  TYR619  PRO620  LYS621  CYS622 
 ASP623  PHE694  ASN695  SER759  ASP760  ASP761  ALA762  ILE779  LEU786  VAL792 
 PHE793  MET794  SER795  GLU796  ALA797  LYS798  CYS799  TRP800  GLU811  SER814 

> <Gold.Protein.RotatedAtoms>
  151.6993  133.3311  159.3262 H   0  0  0  0  0  0  0  0  0  0  0  0  # atno 6907 bound_to 6896
  150.7743  134.6630  159.6359 H   0  0  0  0  0  0  0  0  0  0  0  0  # atno 6908 bound_to 6896
  152.3780  134.6637  160.0205 H   0  0  0  0  0  0  0  0  0  0  0  0  # atno 6909 bound_to 6896
  144.7153  140.0441  143.6437 H   0  0  0  0  0  0  0  0  0  0  0  0  # atno 7974 bound_to 7965
  156.2159  140.3009  155.9839 H   0  0  0  0  0  0  0  0  0  0  0  0  # atno 8008 bound_to 7997
  155.2606  140.0429  157.3014 H   0  0  0  0  0  0  0  0  0  0  0  0  # atno 8009 bound_to 7997
  154.5767  140.2364  155.8120 H   0  0  0  0  0  0  0  0  0  0  0  0  # atno 8010 bound_to 7997
  140.2098  143.3755  152.1060 H   0  0  0  0  0  0  0  0  0  0  0  0  # atno 10167 bound_to 10162
  156.0956  130.4193  150.0923 H   0  0  0  0  0  0  0  0  0  0  0  0  # atno 10718 bound_to 10713
  153.4301  135.3790  155.2165 H   0  0  0  0  0  0  0  0  0  0  0  0  # atno 10763 bound_to 10752
  154.8749  135.3838  154.4278 H   0  0  0  0  0  0  0  0  0  0  0  0  # atno 10764 bound_to 10752
  153.4809  135.7088  153.6001 H   0  0  0  0  0  0  0  0  0  0  0  0  # atno 10765 bound_to 10752
  140.7213  134.3724  157.5183 H   0  0  0  0  0  0  0  0  0  0  0  0  # atno 11005 bound_to 11000
  145.9999  139.3083  143.0934 LP  0  0  0  0  0  0  0  0  0  0  0  0  # atno 17320 bound_to 7965
  145.8805  140.9365  143.0603 LP  0  0  0  0  0  0  0  0  0  0  0  0  # atno 17321 bound_to 7965
  139.5184  144.7005  151.5506 LP  0  0  0  0  0  0  0  0  0  0  0  0  # atno 17342 bound_to 10162
  140.6331  143.9037  150.6623 LP  0  0  0  0  0  0  0  0  0  0  0  0  # atno 17343 bound_to 10162
  156.8923  130.9592  151.3587 LP  0  0  0  0  0  0  0  0  0  0  0  0  # atno 17370 bound_to 10713
  157.6116  130.8587  149.8961 LP  0  0  0  0  0  0  0  0  0  0  0  0  # atno 17371 bound_to 10713
  139.8847  134.8956  156.2684 LP  0  0  0  0  0  0  0  0  0  0  0  0  # atno 17394 bound_to 11000
  141.0001  133.7156  156.0947 LP  0  0  0  0  0  0  0  0  0  0  0  0  # atno 17395 bound_to 11000

$$$$
