AV-unprocessed.smi:1760|AV-procd|sdf|7094|dock7
  -GOLD-   22720 8313D 1   1.00000     0.00000
 Structure written by MMmdl.
 42 44  0  0  0  0  0  0  0  0  2 V2000
  150.9525  135.8793  155.9402 O   0  0  0  0  0  0  0  0  0  0  0  0
  150.2587  135.9444  154.9259 C   0  0  0  0  0  0  0  0  0  0  0  0
  149.8247  134.9006  154.1959 N   0  0  0  0  0  0  0  0  0  0  0  0
  150.0263  133.5228  154.3902 C   0  0  0  0  0  0  0  0  0  0  0  0
  151.0720  132.9733  155.0686 C   0  0  0  0  0  0  0  0  0  0  0  0
  151.2221  131.5334  155.2380 C   0  0  0  0  0  0  0  0  0  0  0  0
  152.4249  130.8813  155.8965 C   0  0  0  0  0  0  0  0  0  0  0  0
  153.0881  130.1154  155.0298 F   0  0  0  0  0  0  0  0  0  0  0  0
  153.2654  131.7988  156.3750 F   0  0  0  0  0  0  0  0  0  0  0  0
  152.0271  130.1126  156.9093 F   0  0  0  0  0  0  0  0  0  0  0  0
  150.2017  130.8251  154.6340 C   0  0  0  0  0  0  0  0  0  0  0  0
  149.1195  131.2896  153.9722 N   0  5  0  0  0  0  0  0  0  0  0  0
  148.9897  132.6376  153.8185 C   0  0  0  0  0  0  0  0  0  0  0  0
  148.0323  133.1272  153.2181 O   0  0  0  0  0  0  0  0  0  0  0  0
  149.8481  137.1014  154.3867 N   0  0  0  0  0  0  0  0  0  0  0  0
  150.1543  138.4385  154.8891 C   0  0  0  0  0  0  0  0  0  0  0  0
  151.6742  138.6643  154.9061 C   0  0  0  0  0  0  0  0  0  0  0  0
  152.0246  140.0030  155.5796 C   0  0  0  0  0  0  0  0  0  0  0  0
  151.5043  140.0328  156.9467 N   0  0  0  0  0  0  0  0  0  0  0  0
  151.8895  141.2892  157.5686 C   0  0  0  0  0  0  0  0  0  0  0  0
  151.0135  141.8153  158.6827 C   0  0  0  0  0  0  0  0  0  0  0  0
  150.9998  142.4882  157.3315 C   0  0  0  0  0  0  0  0  0  0  0  0
  150.0440  139.9446  156.9256 C   0  0  0  0  0  0  0  0  0  0  0  0
  149.6005  138.6044  156.3129 C   0  0  0  0  0  0  0  0  0  0  0  0
  149.3069  135.1254  153.3588 H   0  0  0  0  0  0  0  0  0  0  0  0
  151.8269  133.5931  155.5222 H   0  0  0  0  0  0  0  0  0  0  0  0
  150.2686  129.7173  154.6851 H   0  0  0  0  0  0  0  0  0  0  0  0
  149.2849  137.0539  153.5503 H   0  0  0  0  0  0  0  0  0  0  0  0
  149.7006  139.2031  154.2559 H   0  0  0  0  0  0  0  0  0  0  0  0
  152.1683  137.8512  155.4406 H   0  0  0  0  0  0  0  0  0  0  0  0
  152.0655  138.6492  153.8884 H   0  0  0  0  0  0  0  0  0  0  0  0
  153.1080  140.1266  155.5996 H   0  0  0  0  0  0  0  0  0  0  0  0
  151.6180  140.8354  155.0027 H   0  0  0  0  0  0  0  0  0  0  0  0
  152.9502  141.5129  157.6707 H   0  0  0  0  0  0  0  0  0  0  0  0
  150.1373  141.2328  158.9614 H   0  0  0  0  0  0  0  0  0  0  0  0
  151.5043  142.3383  159.5007 H   0  0  0  0  0  0  0  0  0  0  0  0
  151.4808  143.4607  157.2492 H   0  0  0  0  0  0  0  0  0  0  0  0
  150.1137  142.3530  156.7139 H   0  0  0  0  0  0  0  0  0  0  0  0
  149.6599  140.0234  157.9434 H   0  0  0  0  0  0  0  0  0  0  0  0
  149.6234  140.7774  156.3593 H   0  0  0  0  0  0  0  0  0  0  0  0
  148.5116  138.5477  156.2980 H   0  0  0  0  0  0  0  0  0  0  0  0
  149.9448  137.7858  156.9470 H   0  0  0  0  0  0  0  0  0  0  0  0
  1  2  2  0  0  0  0
  2  3  1  0  0  0  0
  2 15  1  0  0  0  0
  3  4  1  0  0  0  0
  3 25  1  0  0  0  0
  4 13  1  0  0  0  0
  4  5  2  0  0  0  0
  5  6  1  0  0  0  0
  5 26  1  0  0  0  0
  6  7  1  0  0  0  0
  6 11  2  0  0  0  0
  7  8  1  0  0  0  0
  7  9  1  0  0  0  0
  7 10  1  0  0  0  0
 11 12  1  0  0  0  0
 11 27  1  0  0  0  0
 12 13  1  0  0  0  0
 13 14  2  0  0  0  0
 15 16  1  0  0  0  0
 15 28  1  0  0  0  0
 16 24  1  0  0  0  0
 16 17  1  0  0  0  0
 16 29  1  0  0  0  0
 17 18  1  0  0  0  0
 17 30  1  0  0  0  0
 17 31  1  0  0  0  0
 18 19  1  0  0  0  0
 18 32  1  0  0  0  0
 18 33  1  0  0  0  0
 19 20  1  0  0  0  0
 19 23  1  0  0  0  0
 20 22  1  0  0  0  0
 20 21  1  0  0  0  0
 20 34  1  0  0  0  0
 21 22  1  0  0  0  0
 21 35  1  0  0  0  0
 21 36  1  0  0  0  0
 22 37  1  0  0  0  0
 22 38  1  0  0  0  0
 23 24  1  0  0  0  0
 23 39  1  0  0  0  0
 23 40  1  0  0  0  0
 24 41  1  0  0  0  0
 24 42  1  0  0  0  0
M  CHG  1  12  -1
M  END
> <s_m_source_file>
AV-unprocessed.smi

> <i_m_source_file_index>
1760

> <i_lp_mmshare_version>
43012

> <i_f3d_flags>
0

> <s_epik_input>
W0NIMl0xW0NIMl1bQ0hdMU4oW0NIMl1bQ0gyXTIpW0NIMl1bQ0gyXVtDSF0yW05IXUMoPU8pW05IXWMzW2NIXWMoQyhGKShGKUYpW2NIXVtuSF1jMz1P

> <s_epik_cmdline>
J2VwaWtfcHl0aG9uJywgJy1waCcsICc3LjAnLCAnLXRuJywgJzgnLCAnLW1hJywgJzIwMCcsICctbWV0YWxfYmluZGluZycsICctaW1hZScsICc8aW5maWxlLm1hZT4nLCAnLW9tYWUnLCAnPG91dGZpbGUubWFlPic=

> <r_lp_tautomer_probability>
0.999

> <r_epik_Ionization_Penalty>
4.20788

> <r_epik_Ionization_Penalty_Charging>
0.176783

> <r_epik_Ionization_Penalty_Neutral>
4.0311

> <r_epik_State_Penalty>
4.02505

> <r_epik_Charging_Adjusted_Penalty>
4.20183

> <i_epik_Tot_Q>
-1

> <i_epik_Tot_abs_Q>
1

> <r_epik_Metal_State_Penalty>
1.4828

> <b_epik_Metal_Only>
1

> <s_lp_Force_Field>
OPLS_2005

> <r_lp_Energy>
35.3535

> <b_lp_Chiralities_Consistent>
1

> <s_lp_Variant>
AV-unprocessed.smi:1760-6

> <Gold.Version>
5.8.1

> <Gold.Id.Protein>
6NUR|6NUR_protein|mol2

> <Gold.PLP.Fitness>
41.5340

> <Gold.PLP.PLP>
-36.2610

> <Gold.PLP.part.hbond>
-2.0000

> <Gold.PLP.part.metal>
0.0000

> <Gold.PLP.part.buried>
-5.0720

> <Gold.PLP.part.nonpolar>
-28.7042

> <Gold.PLP.part.repulsive>
0.3058

> <Gold.PLP.ligand.clash>
0.3347

> <Gold.PLP.ligand.torsion>
0.7510

> <Gold.PLP.Chemscore.Hbond>
1.9600

> <Gold.PLP.Chemscore.CHOScore>
0.0000

> <Gold.PLP.Chemscore.Metal>
0.0000

> <Gold.Chemscore.Hbonds>
donor molecule, donor type, donor heavy atom, donor atom, acceptor molecule, acceptor atom, score
      L1  H     3    25       P1  7948  0.75
      L1  H    15    28       P1  7948  0.94

> <Gold.PLP.Chemscore.Internal.Correction>
1.2296

> <Gold.Rescore>
     Score         DG    S(hbond)    S(metal)    S(lipo)     H(rot)  DE(clash)    DE(int)     intcor
     13.17     -15.06       1.23        0.00      74.39       1.26       0.01       1.88       ----

> <Gold.Chemscore.Fitness>
13.1742

> <Gold.Chemscore.DG>
-15.0575

> <Gold.Chemscore.ZeroCoef>
-5.4800

> <Gold.Chemscore.Hbond>
1.2308

> <Gold.Chemscore.Metal>
0.0000

> <Gold.Chemscore.Lipo>
74.3895

> <Gold.Chemscore.Internal_Hbond>
0.0000

> <Gold.Chemscore.DEClash>
0.0078

> <Gold.Chemscore.DEInternal>
1.8755

> <Gold.Chemscore.Rot>
1.2644

> <Gold.Chemscore.Internal.Correction>
   9.000000E+99

> <Gold.Chemscore.Hbonds>
donor molecule, donor type, donor heavy atom, donor atom, acceptor molecule, acceptor atom, score
      L1  H     3    25       P1  7948  0.09
      L1  H    15    28       P1  7948  0.89

> <Gold.Chemscore.Hbond.Weighted>
-4.1107

> <Gold.Chemscore.Metal.Weighted>
-0.0000

> <Gold.Chemscore.Lipo.Weighted>
-8.7036

> <Gold.Chemscore.Internal_Hbond.Weighted>
0.0000

> <Gold.Chemscore.DEClash.Weighted>
0.0078

> <Gold.Chemscore.DEInternal.Weighted>
1.8755

> <Gold.Chemscore.Rot.Weighted>
3.2367

> <Gold.Chemscore.Internal.Correction.Weighted>
   9.000000E+99

> <Gold.Protein.RotatedTorsions>
[ 6907 6896 6895 6894 ] final  118.37 input  -60.11 | X-H torsion
[ 7974 7965 7964 7962 ] final -168.47 input  175.53 | X-H torsion
[ 8008 7997 7996 7995 ] final   22.23 input   59.86 | X-H torsion
[ 10167 10162 10161 10158 ] final  -32.37 input  -65.29 | X-H torsion
[ 10718 10713 10712 10709 ] final   35.71 input   66.30 | X-H torsion
[ 10763 10752 10751 10750 ] final  161.74 input  -60.55 | X-H torsion
[ 11005 11000 10999 10996 ] final  -75.37 input  -57.11 | X-H torsion

> <Gold.Protein.ActiveResidues>
 VAL166  LYS551  ARG553  GLY616  TRP617  ASP618  TYR619  PRO620  LYS621  CYS622 
 ASP623  PHE694  ASN695  SER759  ASP760  ASP761  ALA762  ILE779  LEU786  VAL792 
 PHE793  MET794  SER795  GLU796  ALA797  LYS798  CYS799  TRP800  GLU811  SER814 

> <Gold.Protein.RotatedAtoms>
  152.4548  133.7700  159.6793 H   0  0  0  0  0  0  0  0  0  0  0  0  # atno 6907 bound_to 6896
  150.8470  133.7835  159.3045 H   0  0  0  0  0  0  0  0  0  0  0  0  # atno 6908 bound_to 6896
  151.5443  135.1071  159.9986 H   0  0  0  0  0  0  0  0  0  0  0  0  # atno 6909 bound_to 6896
  144.7202  140.2365  143.6297 H   0  0  0  0  0  0  0  0  0  0  0  0  # atno 7974 bound_to 7965
  154.9625  140.3080  155.5024 H   0  0  0  0  0  0  0  0  0  0  0  0  # atno 8008 bound_to 7997
  156.2975  140.2298  156.4650 H   0  0  0  0  0  0  0  0  0  0  0  0  # atno 8009 bound_to 7997
  154.7951  140.0437  157.1219 H   0  0  0  0  0  0  0  0  0  0  0  0  # atno 8010 bound_to 7997
  140.7222  143.3700  151.1797 H   0  0  0  0  0  0  0  0  0  0  0  0  # atno 10167 bound_to 10162
  157.3260  130.7473  149.6816 H   0  0  0  0  0  0  0  0  0  0  0  0  # atno 10718 bound_to 10713
  154.2677  135.2766  155.2751 H   0  0  0  0  0  0  0  0  0  0  0  0  # atno 10763 bound_to 10752
  154.5329  135.5724  153.6777 H   0  0  0  0  0  0  0  0  0  0  0  0  # atno 10764 bound_to 10752
  152.9951  135.6232  154.2830 H   0  0  0  0  0  0  0  0  0  0  0  0  # atno 10765 bound_to 10752
  141.1645  133.6944  156.7507 H   0  0  0  0  0  0  0  0  0  0  0  0  # atno 11005 bound_to 11000
  145.8361  139.2108  143.1855 LP  0  0  0  0  0  0  0  0  0  0  0  0  # atno 17320 bound_to 7965
  146.0388  140.8185  142.9839 LP  0  0  0  0  0  0  0  0  0  0  0  0  # atno 17321 bound_to 7965
  139.7269  143.9134  152.3006 LP  0  0  0  0  0  0  0  0  0  0  0  0  # atno 17342 bound_to 10162
  139.8910  144.6965  150.8771 LP  0  0  0  0  0  0  0  0  0  0  0  0  # atno 17343 bound_to 10162
  155.9690  130.4209  150.4445 LP  0  0  0  0  0  0  0  0  0  0  0  0  # atno 17370 bound_to 10713
  157.2469  131.0538  151.2403 LP  0  0  0  0  0  0  0  0  0  0  0  0  # atno 17371 bound_to 10713
  140.2606  134.8469  157.3755 LP  0  0  0  0  0  0  0  0  0  0  0  0  # atno 17394 bound_to 11000
  140.1615  134.4723  155.7892 LP  0  0  0  0  0  0  0  0  0  0  0  0  # atno 17395 bound_to 11000

$$$$
