AV-unprocessed.smi:2173|AV-procd|sdf|8838|dock4
  -GOLD-   2272012 33D 1   1.00000     0.00000
 Structure written by MMmdl.
 35 36  0  0  0  0  0  0  0  0  1 V2000
  153.4385  139.8252  158.3896 O   0  0  0  0  0  0  0  0  0  0  0  0
  152.5119  140.5909  158.1213 C   0  0  0  0  0  0  0  0  0  0  0  0
  151.8155  140.5335  156.9747 N   0  0  0  0  0  0  0  0  0  0  0  0
  152.0744  139.6146  155.8689 C   0  0  0  0  0  0  0  0  0  0  0  0
  150.8371  138.7748  155.4911 C   0  0  0  0  0  0  0  0  0  0  0  0
  149.6966  139.5868  154.8991 C   0  0  0  0  0  0  0  0  0  0  0  0
  148.5094  138.9514  154.4777 C   0  0  0  0  0  0  0  0  0  0  0  0
  147.4974  139.7385  153.8951 C   0  0  0  0  0  0  0  0  0  0  0  0
  147.7099  141.1238  153.7575 C   0  0  0  0  0  0  0  0  0  0  0  0
  148.9301  141.6626  154.2110 C   0  0  0  0  0  0  0  0  0  0  0  0
  149.9062  140.9172  154.7720 N   0  0  0  0  0  0  0  0  0  0  0  0
  152.1136  141.6975  159.1057 C   0  0  2  0  0  0  0  0  0  0  0  0
  152.1535  143.0823  158.4202 C   0  0  0  0  0  0  0  0  0  0  0  0
  152.0103  144.2190  159.4167 C   0  0  0  0  0  0  0  0  0  0  0  0
  152.1729  144.0643  160.7419 C   0  0  0  0  0  0  0  0  0  0  0  0
  152.5245  142.7375  161.3920 C   0  0  0  0  0  0  0  0  0  0  0  0
  153.0034  141.6937  160.3650 C   0  0  0  0  0  0  0  0  0  0  0  0
  151.0734  141.2052  156.8421 H   0  0  0  0  0  0  0  0  0  0  0  0
  152.4374  140.1577  154.9948 H   0  0  0  0  0  0  0  0  0  0  0  0
  152.8847  138.9497  156.1680 H   0  0  0  0  0  0  0  0  0  0  0  0
  151.1254  138.0037  154.7761 H   0  0  0  0  0  0  0  0  0  0  0  0
  150.4740  138.2439  156.3726 H   0  0  0  0  0  0  0  0  0  0  0  0
  148.3817  137.8845  154.5867 H   0  0  0  0  0  0  0  0  0  0  0  0
  146.5768  139.2873  153.5558 H   0  0  0  0  0  0  0  0  0  0  0  0
  146.9571  141.7579  153.3134 H   0  0  0  0  0  0  0  0  0  0  0  0
  149.1291  142.7199  154.1186 H   0  0  0  0  0  0  0  0  0  0  0  0
  151.0880  141.5094  159.4299 H   0  0  0  0  0  0  0  0  0  0  0  0
  153.0861  143.2279  157.8732 H   0  0  0  0  0  0  0  0  0  0  0  0
  151.3452  143.1558  157.6917 H   0  0  0  0  0  0  0  0  0  0  0  0
  151.7758  145.1934  159.0137 H   0  0  0  0  0  0  0  0  0  0  0  0
  152.0425  144.9104  161.4006 H   0  0  0  0  0  0  0  0  0  0  0  0
  153.2954  142.8986  162.1458 H   0  0  0  0  0  0  0  0  0  0  0  0
  151.6393  142.3729  161.9141 H   0  0  0  0  0  0  0  0  0  0  0  0
  153.0200  140.7052  160.8261 H   0  0  0  0  0  0  0  0  0  0  0  0
  154.0339  141.9189  160.0844 H   0  0  0  0  0  0  0  0  0  0  0  0
  1  2  2  0  0  0  0
  2  3  1  0  0  0  0
  2 12  1  0  0  0  0
  3  4  1  0  0  0  0
  3 18  1  0  0  0  0
  4  5  1  0  0  0  0
  4 19  1  0  0  0  0
  4 20  1  0  0  0  0
  5  6  1  0  0  0  0
  5 21  1  0  0  0  0
  5 22  1  0  0  0  0
  6 11  1  0  0  0  0
  6  7  2  0  0  0  0
  7  8  1  0  0  0  0
  7 23  1  0  0  0  0
  8  9  2  0  0  0  0
  8 24  1  0  0  0  0
  9 10  1  0  0  0  0
  9 25  1  0  0  0  0
 10 11  2  0  0  0  0
 10 26  1  0  0  0  0
 12 17  1  0  0  0  0
 12 13  1  0  0  0  0
 12 27  1  0  0  0  0
 13 14  1  0  0  0  0
 13 28  1  0  0  0  0
 13 29  1  0  0  0  0
 14 15  2  0  0  0  0
 14 30  1  0  0  0  0
 15 16  1  0  0  0  0
 15 31  1  0  0  0  0
 16 17  1  0  0  0  0
 16 32  1  0  0  0  0
 16 33  1  0  0  0  0
 17 34  1  0  0  0  0
 17 35  1  0  0  0  0
M  END
> <s_m_source_file>
AV-unprocessed.smi

> <i_m_source_file_index>
2173

> <i_lp_mmshare_version>
43012

> <i_f3d_flags>
0

> <s_epik_input>
W0NIMl0xW0NIMl1bQ0hdPVtDSF1bQ0gyXVtDQEhdMUMoPU8pW05IXVtDSDJdW0NIMl1jMltjSF1bY0hdW2NIXVtjSF1uMg==

> <s_epik_cmdline>
J2VwaWtfcHl0aG9uJywgJy1waCcsICc3LjAnLCAnLXRuJywgJzgnLCAnLW1hJywgJzIwMCcsICctbWV0YWxfYmluZGluZycsICctaW1hZScsICc8aW5maWxlLm1hZT4nLCAnLW9tYWUnLCAnPG91dGZpbGUubWFlPic=

> <r_epik_Ionization_Penalty>
0.0268825

> <r_epik_Ionization_Penalty_Charging>
0

> <r_epik_Ionization_Penalty_Neutral>
0.0268825

> <r_epik_State_Penalty>
0.0219706

> <r_epik_Charging_Adjusted_Penalty>
0.0219706

> <i_epik_Tot_Q>
0

> <i_epik_Tot_abs_Q>
0

> <r_epik_Metal_State_Penalty>
0.0210138

> <b_epik_Metal_Only>
0

> <s_lp_Force_Field>
OPLS_2005

> <r_lp_Energy>
7.98713

> <b_lp_Chiralities_Consistent>
1

> <s_lp_Variant>
AV-unprocessed.smi:2173-1

> <Gold.Version>
5.8.1

> <Gold.Id.Protein>
6NUR|6NUR_protein|mol2

> <Gold.PLP.Fitness>
46.0651

> <Gold.PLP.PLP>
-38.3212

> <Gold.PLP.part.hbond>
-2.0000

> <Gold.PLP.part.metal>
0.0000

> <Gold.PLP.part.buried>
-1.8153

> <Gold.PLP.part.nonpolar>
-34.7355

> <Gold.PLP.part.repulsive>
0.2397

> <Gold.PLP.ligand.clash>
0.0000

> <Gold.PLP.ligand.torsion>
0.0479

> <Gold.PLP.Chemscore.Hbond>
1.6037

> <Gold.PLP.Chemscore.CHOScore>
1.0000

> <Gold.PLP.Chemscore.Metal>
0.0000

> <Gold.Chemscore.Hbonds>
donor molecule, donor type, donor heavy atom, donor atom, acceptor molecule, acceptor atom, score
      P1  H  7989  7998       L1    11  0.51
      P1  H  7997  8008       L1     1  1.00
      L1  C    10    26       P1  8028  1.00

> <Gold.PLP.Chemscore.Internal.Correction>
0.0286

> <Gold.Rescore>
     Score         DG    S(hbond)    S(metal)    S(lipo)     H(rot)  DE(clash)    DE(int)     intcor
     17.96     -19.14       1.30        0.00     110.05       1.39       0.11       1.07       ----

> <Gold.Chemscore.Fitness>
17.9647

> <Gold.Chemscore.DG>
-19.1449

> <Gold.Chemscore.ZeroCoef>
-5.4800

> <Gold.Chemscore.Hbond>
1.3022

> <Gold.Chemscore.Metal>
0.0000

> <Gold.Chemscore.Lipo>
110.0498

> <Gold.Chemscore.Internal_Hbond>
0.0000

> <Gold.Chemscore.DEClash>
0.1116

> <Gold.Chemscore.DEInternal>
1.0686

> <Gold.Chemscore.Rot>
1.3907

> <Gold.Chemscore.Internal.Correction>
   9.000000E+99

> <Gold.Chemscore.Hbonds>
donor molecule, donor type, donor heavy atom, donor atom, acceptor molecule, acceptor atom, score
      P1  H  7989  7998       L1    11  0.09
      P1  H  7997  8008       L1     1  0.75

> <Gold.Chemscore.Hbond.Weighted>
-4.3492

> <Gold.Chemscore.Metal.Weighted>
-0.0000

> <Gold.Chemscore.Lipo.Weighted>
-12.8758

> <Gold.Chemscore.Internal_Hbond.Weighted>
0.0000

> <Gold.Chemscore.DEClash.Weighted>
0.1116

> <Gold.Chemscore.DEInternal.Weighted>
1.0686

> <Gold.Chemscore.Rot.Weighted>
3.5601

> <Gold.Chemscore.Internal.Correction.Weighted>
   9.000000E+99

> <Gold.Protein.RotatedTorsions>
[ 6907 6896 6895 6894 ] final -169.30 input  -60.11 | X-H torsion
[ 7974 7965 7964 7962 ] final   64.84 input  175.53 | X-H torsion
[ 8008 7997 7996 7995 ] final -104.42 input   59.86 | X-H torsion
[ 10167 10162 10161 10158 ] final -110.24 input  -65.29 | X-H torsion
[ 10718 10713 10712 10709 ] final  117.19 input   66.30 | X-H torsion
[ 10763 10752 10751 10750 ] final  117.43 input  -60.55 | X-H torsion
[ 11005 11000 10999 10996 ] final  -75.80 input  -57.11 | X-H torsion

> <Gold.Protein.ActiveResidues>
 VAL166  LYS551  ARG553  GLY616  TRP617  ASP618  TYR619  PRO620  LYS621  CYS622 
 ASP623  PHE694  ASN695  SER759  ASP760  ASP761  ALA762  ILE779  LEU786  VAL792 
 PHE793  MET794  SER795  GLU796  ALA797  LYS798  CYS799  TRP800  GLU811  SER814 

> <Gold.Protein.RotatedAtoms>
  151.4894  133.3528  159.2850 H   0  0  0  0  0  0  0  0  0  0  0  0  # atno 6907 bound_to 6896
  150.8845  134.8242  159.7260 H   0  0  0  0  0  0  0  0  0  0  0  0  # atno 6908 bound_to 6896
  152.4784  134.4796  159.9713 H   0  0  0  0  0  0  0  0  0  0  0  0  # atno 6909 bound_to 6896
  145.8455  139.3222  143.0906 H   0  0  0  0  0  0  0  0  0  0  0  0  # atno 7974 bound_to 7965
  154.8850  140.0418  157.1805 H   0  0  0  0  0  0  0  0  0  0  0  0  # atno 8008 bound_to 7997
  154.8599  140.2942  155.5524 H   0  0  0  0  0  0  0  0  0  0  0  0  # atno 8009 bound_to 7997
  156.2998  140.2449  156.3572 H   0  0  0  0  0  0  0  0  0  0  0  0  # atno 8010 bound_to 7997
  140.1466  143.4234  152.1525 H   0  0  0  0  0  0  0  0  0  0  0  0  # atno 10167 bound_to 10162
  157.6112  131.1034  150.7580 H   0  0  0  0  0  0  0  0  0  0  0  0  # atno 10718 bound_to 10713
  153.5523  135.3537  155.2765 H   0  0  0  0  0  0  0  0  0  0  0  0  # atno 10763 bound_to 10752
  154.8705  135.4117  154.2923 H   0  0  0  0  0  0  0  0  0  0  0  0  # atno 10764 bound_to 10752
  153.3652  135.7061  153.6750 H   0  0  0  0  0  0  0  0  0  0  0  0  # atno 10765 bound_to 10752
  141.1648  133.6960  156.7571 H   0  0  0  0  0  0  0  0  0  0  0  0  # atno 11005 bound_to 11000
  145.9417  140.8975  143.0304 LP  0  0  0  0  0  0  0  0  0  0  0  0  # atno 17320 bound_to 7965
  144.6731  140.1557  143.7426 LP  0  0  0  0  0  0  0  0  0  0  0  0  # atno 17321 bound_to 7965
  139.5446  144.7287  151.4624 LP  0  0  0  0  0  0  0  0  0  0  0  0  # atno 17342 bound_to 10162
  140.6728  143.8255  150.7021 LP  0  0  0  0  0  0  0  0  0  0  0  0  # atno 17343 bound_to 10162
  156.7957  130.4904  149.5377 LP  0  0  0  0  0  0  0  0  0  0  0  0  # atno 17370 bound_to 10713
  156.1216  130.6114  151.0202 LP  0  0  0  0  0  0  0  0  0  0  0  0  # atno 17371 bound_to 10713
  140.2561  134.8503  157.3714 LP  0  0  0  0  0  0  0  0  0  0  0  0  # atno 17394 bound_to 11000
  140.1656  134.4673  155.7865 LP  0  0  0  0  0  0  0  0  0  0  0  0  # atno 17395 bound_to 11000

$$$$
