AV-unprocessed.smi:1830|AV-procd|sdf|7437|dock10
  -GOLD-   22720 9123D 1   1.00000     0.00000
 Structure written by MMmdl.
 53 56  0  0  0  0  0  0  0  0  2 V2000
  148.6466  132.2150  159.4801 O   0  0  0  0  0  0  0  0  0  0  0  0
  148.3555  132.9806  158.5609 C   0  0  0  0  0  0  0  0  0  0  0  0
  148.4426  132.6439  157.2666 N   0  0  0  0  0  0  0  0  0  0  0  0
  148.8773  131.3422  156.7710 C   0  0  0  0  0  0  0  0  0  0  0  0
  148.2244  130.9906  155.4222 C   0  0  1  0  0  0  0  0  0  0  0  0
  146.8106  130.4068  155.6052 C   0  0  0  0  0  0  0  0  0  0  0  0
  146.1316  130.1875  154.3068 N   0  3  2  0  0  0  0  0  0  0  0  0
  146.4993  128.9583  153.5694 C   0  0  0  0  0  0  0  0  0  0  0  0
  146.3526  129.2903  152.0760 C   0  0  0  0  0  0  0  0  0  0  0  0
  145.8097  130.7223  152.0272 C   0  0  0  0  0  0  0  0  0  0  0  0
  146.2247  131.3262  153.3699 C   0  0  2  0  0  0  0  0  0  0  0  0
  147.6551  131.9107  153.3311 C   0  0  0  0  0  0  0  0  0  0  0  0
  148.1165  132.1795  154.6477 O   0  0  0  0  0  0  0  0  0  0  0  0
  147.9012  134.2362  158.7086 N   0  0  0  0  0  0  0  0  0  0  0  0
  147.6532  134.9514  159.9155 C   0  0  0  0  0  0  0  0  0  0  0  0
  147.2732  134.2893  161.1092 C   0  0  0  0  0  0  0  0  0  0  0  0
  147.0209  135.0436  162.2677 C   0  0  0  0  0  0  0  0  0  0  0  0
  147.1608  136.4391  162.1950 C   0  0  0  0  0  0  0  0  0  0  0  0
  147.5410  137.0830  161.0738 N   0  0  0  0  0  0  0  0  0  0  0  0
  147.8033  136.3683  159.9517 C   0  0  0  0  0  0  0  0  0  0  0  0
  148.2185  137.0992  158.8144 N   0  0  0  0  0  0  0  0  0  0  0  0
  149.5652  137.6629  158.8099 C   0  0  0  0  0  0  0  0  0  0  0  0
  149.4710  139.0081  158.0814 C   0  0  0  0  0  0  0  0  0  0  0  0
  148.1919  138.8858  157.2593 C   0  0  0  0  0  0  0  0  0  0  0  0
  147.3060  138.0328  158.1623 C   0  0  0  0  0  0  0  0  0  0  0  0
  148.1816  133.3319  156.5751 H   0  0  0  0  0  0  0  0  0  0  0  0
  149.9647  131.3368  156.6782 H   0  0  0  0  0  0  0  0  0  0  0  0
  148.6277  130.5878  157.5178 H   0  0  0  0  0  0  0  0  0  0  0  0
  148.8525  130.2675  154.8995 H   0  0  0  0  0  0  0  0  0  0  0  0
  146.8409  129.4742  156.1702 H   0  0  0  0  0  0  0  0  0  0  0  0
  146.2040  131.1040  156.1846 H   0  0  0  0  0  0  0  0  0  0  0  0
  147.5250  128.6577  153.7861 H   0  0  0  0  0  0  0  0  0  0  0  0
  145.8447  128.1398  153.8695 H   0  0  0  0  0  0  0  0  0  0  0  0
  147.3281  129.2423  151.5899 H   0  0  0  0  0  0  0  0  0  0  0  0
  145.6952  128.5900  151.5598 H   0  0  0  0  0  0  0  0  0  0  0  0
  146.1757  131.2873  151.1691 H   0  0  0  0  0  0  0  0  0  0  0  0
  144.7210  130.6945  151.9625 H   0  0  0  0  0  0  0  0  0  0  0  0
  145.5282  132.1059  153.6810 H   0  0  0  0  0  0  0  0  0  0  0  0
  148.3516  131.2344  152.8325 H   0  0  0  0  0  0  0  0  0  0  0  0
  147.6619  132.8389  152.7592 H   0  0  0  0  0  0  0  0  0  0  0  0
  147.6080  134.7044  157.8639 H   0  0  0  0  0  0  0  0  0  0  0  0
  147.1782  133.2156  161.1590 H   0  0  0  0  0  0  0  0  0  0  0  0
  146.7250  134.5634  163.1887 H   0  0  0  0  0  0  0  0  0  0  0  0
  146.9705  137.0550  163.0614 H   0  0  0  0  0  0  0  0  0  0  0  0
  149.9651  137.7832  159.8177 H   0  0  0  0  0  0  0  0  0  0  0  0
  150.2249  136.9910  158.2607 H   0  0  0  0  0  0  0  0  0  0  0  0
  149.3616  139.8124  158.8099 H   0  0  0  0  0  0  0  0  0  0  0  0
  150.3498  139.2230  157.4730 H   0  0  0  0  0  0  0  0  0  0  0  0
  147.7460  139.8500  157.0139 H   0  0  0  0  0  0  0  0  0  0  0  0
  148.3957  138.3567  156.3273 H   0  0  0  0  0  0  0  0  0  0  0  0
  146.5363  137.5076  157.5964 H   0  0  0  0  0  0  0  0  0  0  0  0
  146.8161  138.6732  158.8967 H   0  0  0  0  0  0  0  0  0  0  0  0
  145.1478  130.0806  154.5101 H   0  0  0  0  0  0  0  0  0  0  0  0
  1  2  2  0  0  0  0
  2  3  1  0  0  0  0
  2 14  1  0  0  0  0
  3  4  1  0  0  0  0
  3 26  1  0  0  0  0
  4  5  1  0  0  0  0
  4 27  1  0  0  0  0
  4 28  1  0  0  0  0
  5 13  1  0  0  0  0
  5  6  1  0  0  0  0
  5 29  1  0  0  0  0
  6  7  1  0  0  0  0
  6 30  1  0  0  0  0
  6 31  1  0  0  0  0
  7 11  1  0  0  0  0
  7  8  1  0  0  0  0
  7 53  1  0  0  0  0
  8  9  1  0  0  0  0
  8 32  1  0  0  0  0
  8 33  1  0  0  0  0
  9 10  1  0  0  0  0
  9 34  1  0  0  0  0
  9 35  1  0  0  0  0
 10 11  1  0  0  0  0
 10 36  1  0  0  0  0
 10 37  1  0  0  0  0
 11 12  1  0  0  0  0
 11 38  1  0  0  0  0
 12 13  1  0  0  0  0
 12 39  1  0  0  0  0
 12 40  1  0  0  0  0
 14 15  1  0  0  0  0
 14 41  1  0  0  0  0
 15 20  1  0  0  0  0
 15 16  2  0  0  0  0
 16 17  1  0  0  0  0
 16 42  1  0  0  0  0
 17 18  2  0  0  0  0
 17 43  1  0  0  0  0
 18 19  1  0  0  0  0
 18 44  1  0  0  0  0
 19 20  2  0  0  0  0
 20 21  1  0  0  0  0
 21 25  1  0  0  0  0
 21 22  1  0  0  0  0
 22 23  1  0  0  0  0
 22 45  1  0  0  0  0
 22 46  1  0  0  0  0
 23 24  1  0  0  0  0
 23 47  1  0  0  0  0
 23 48  1  0  0  0  0
 24 25  1  0  0  0  0
 24 49  1  0  0  0  0
 24 50  1  0  0  0  0
 25 51  1  0  0  0  0
 25 52  1  0  0  0  0
M  CHG  1   7   1
M  END
> <s_m_source_file>
AV-unprocessed.smi

> <i_m_source_file_index>
1830

> <i_lp_mmshare_version>
43012

> <i_f3d_flags>
0

> <s_epik_input>
W0NIMl0xW0NIMl1bQ0gyXVtDQEhdKE4xMilbQ0gyXU9bQ0BASF0oW0NIMl0yKVtDSDJdW05IXUMoPU8pW05IXWMzW2NIXVtjSF1bY0hdbmMzTjRbQ0gyXVtDSDJdW0NIMl1bQ0gyXTQ=

> <s_epik_cmdline>
J2VwaWtfcHl0aG9uJywgJy1waCcsICc3LjAnLCAnLXRuJywgJzgnLCAnLW1hJywgJzIwMCcsICctbWV0YWxfYmluZGluZycsICctaW1hZScsICc8aW5maWxlLm1hZT4nLCAnLW9tYWUnLCAnPG91dGZpbGUubWFlPic=

> <r_lp_tautomer_probability>
1

> <r_epik_Ionization_Penalty>
0.193547

> <r_epik_Ionization_Penalty_Charging>
0.10673

> <r_epik_Ionization_Penalty_Neutral>
0.0868166

> <r_epik_State_Penalty>
0.173595

> <r_epik_Charging_Adjusted_Penalty>
0.280326

> <i_epik_Tot_Q>
1

> <i_epik_Tot_abs_Q>
1

> <r_epik_Metal_State_Penalty>
0.164683

> <b_epik_Metal_Only>
0

> <s_lp_Force_Field>
OPLS_2005

> <r_lp_Energy>
64.4771

> <b_lp_Chiralities_Consistent>
1

> <s_lp_Variant>
AV-unprocessed.smi:1830-6

> <Gold.Version>
5.8.1

> <Gold.Id.Protein>
6NUR|6NUR_protein|mol2

> <Gold.PLP.Fitness>
42.9861

> <Gold.PLP.PLP>
-32.6296

> <Gold.PLP.part.hbond>
-3.0000

> <Gold.PLP.part.metal>
0.0000

> <Gold.PLP.part.buried>
-5.9505

> <Gold.PLP.part.nonpolar>
-24.4111

> <Gold.PLP.part.repulsive>
0.1241

> <Gold.PLP.ligand.clash>
0.0000

> <Gold.PLP.ligand.torsion>
0.7837

> <Gold.PLP.Chemscore.Hbond>
3.8656

> <Gold.PLP.Chemscore.CHOScore>
0.0000

> <Gold.PLP.Chemscore.Metal>
0.0000

> <Gold.Chemscore.Hbonds>
donor molecule, donor type, donor heavy atom, donor atom, acceptor molecule, acceptor atom, score
      L1  H     7    53       P1 10956  2.00
      P1  H  6931  6943       L1    19  0.76
      P1  H  6934  6947       L1    19  0.98

> <Gold.PLP.Chemscore.Internal.Correction>
0.3271

> <Gold.Rescore>
     Score         DG    S(hbond)    S(metal)    S(lipo)     H(rot)  DE(clash)    DE(int)     intcor
     16.43     -18.29       2.25        0.00      76.09       1.41       0.02       1.84       ----

> <Gold.Chemscore.Fitness>
16.4300

> <Gold.Chemscore.DG>
-18.2877

> <Gold.Chemscore.ZeroCoef>
-5.4800

> <Gold.Chemscore.Hbond>
2.2474

> <Gold.Chemscore.Metal>
0.0000

> <Gold.Chemscore.Lipo>
76.0909

> <Gold.Chemscore.Internal_Hbond>
0.0000

> <Gold.Chemscore.DEClash>
0.0174

> <Gold.Chemscore.DEInternal>
1.8404

> <Gold.Chemscore.Rot>
1.4067

> <Gold.Chemscore.Internal.Correction>
   9.000000E+99

> <Gold.Chemscore.Hbonds>
donor molecule, donor type, donor heavy atom, donor atom, acceptor molecule, acceptor atom, score
      L1  H     7    53       P1 10956  0.49
      P1  H  6931  6943       L1    19  0.14
      P1  H  6934  6947       L1    19  0.86

> <Gold.Chemscore.Hbond.Weighted>
-7.5062

> <Gold.Chemscore.Metal.Weighted>
-0.0000

> <Gold.Chemscore.Lipo.Weighted>
-8.9026

> <Gold.Chemscore.Internal_Hbond.Weighted>
0.0000

> <Gold.Chemscore.DEClash.Weighted>
0.0174

> <Gold.Chemscore.DEInternal.Weighted>
1.8404

> <Gold.Chemscore.Rot.Weighted>
3.6011

> <Gold.Chemscore.Internal.Correction.Weighted>
   9.000000E+99

> <Gold.Protein.RotatedTorsions>
[ 6907 6896 6895 6894 ] final -140.40 input  -60.11 | X-H torsion
[ 7974 7965 7964 7962 ] final   46.45 input  175.53 | X-H torsion
[ 8008 7997 7996 7995 ] final   44.14 input   59.86 | X-H torsion
[ 10167 10162 10161 10158 ] final -118.62 input  -65.29 | X-H torsion
[ 10718 10713 10712 10709 ] final  -93.41 input   66.30 | X-H torsion
[ 10763 10752 10751 10750 ] final   47.84 input  -60.55 | X-H torsion
[ 11005 11000 10999 10996 ] final -108.73 input  -57.11 | X-H torsion

> <Gold.Protein.ActiveResidues>
 VAL166  LYS551  ARG553  GLY616  TRP617  ASP618  TYR619  PRO620  LYS621  CYS622 
 ASP623  PHE694  ASN695  SER759  ASP760  ASP761  ALA762  ILE779  LEU786  VAL792 
 PHE793  MET794  SER795  GLU796  ALA797  LYS798  CYS799  TRP800  GLU811  SER814 

> <Gold.Protein.RotatedAtoms>
  151.0602  133.5551  159.2634 H   0  0  0  0  0  0  0  0  0  0  0  0  # atno 6907 bound_to 6896
  151.2529  135.0627  159.9078 H   0  0  0  0  0  0  0  0  0  0  0  0  # atno 6908 bound_to 6896
  152.5396  134.0359  159.8100 H   0  0  0  0  0  0  0  0  0  0  0  0  # atno 6909 bound_to 6896
  146.0388  139.4854  142.9791 H   0  0  0  0  0  0  0  0  0  0  0  0  # atno 7974 bound_to 7965
  155.3143  140.3393  155.4243 H   0  0  0  0  0  0  0  0  0  0  0  0  # atno 8008 bound_to 7997
  156.1940  140.1708  156.8072 H   0  0  0  0  0  0  0  0  0  0  0  0  # atno 8009 bound_to 7997
  154.5476  140.0712  156.8599 H   0  0  0  0  0  0  0  0  0  0  0  0  # atno 8010 bound_to 7997
  140.0555  143.5018  152.2059 H   0  0  0  0  0  0  0  0  0  0  0  0  # atno 10167 bound_to 10162
  156.0013  130.5026  150.5772 H   0  0  0  0  0  0  0  0  0  0  0  0  # atno 10718 bound_to 10713
  152.9796  135.5963  154.3828 H   0  0  0  0  0  0  0  0  0  0  0  0  # atno 10763 bound_to 10752
  154.3491  135.2767  155.2383 H   0  0  0  0  0  0  0  0  0  0  0  0  # atno 10764 bound_to 10752
  154.4431  135.6008  153.6197 H   0  0  0  0  0  0  0  0  0  0  0  0  # atno 10765 bound_to 10752
  141.0886  133.9095  157.2129 H   0  0  0  0  0  0  0  0  0  0  0  0  # atno 11005 bound_to 11000
  145.6919  141.0162  143.1551 LP  0  0  0  0  0  0  0  0  0  0  0  0  # atno 17320 bound_to 7965
  144.7064  139.8542  143.7428 LP  0  0  0  0  0  0  0  0  0  0  0  0  # atno 17321 bound_to 7965
  139.5926  144.7555  151.3363 LP  0  0  0  0  0  0  0  0  0  0  0  0  # atno 17342 bound_to 10162
  140.7196  143.7171  150.7724 LP  0  0  0  0  0  0  0  0  0  0  0  0  # atno 17343 bound_to 10162
  157.3658  131.0757  151.1599 LP  0  0  0  0  0  0  0  0  0  0  0  0  # atno 17370 bound_to 10713
  157.2368  130.6551  149.5873 LP  0  0  0  0  0  0  0  0  0  0  0  0  # atno 17371 bound_to 10713
  139.9708  135.0129  156.9506 LP  0  0  0  0  0  0  0  0  0  0  0  0  # atno 17394 bound_to 11000
  140.5305  134.0818  155.7314 LP  0  0  0  0  0  0  0  0  0  0  0  0  # atno 17395 bound_to 11000

$$$$
