AV-unprocessed.smi:3019|AV-procd|sdf|11496|dock3
  -GOLD-   2272016433D 1   1.00000     0.00000
 Structure written by MMmdl.
 29 30  0  0  0  0  0  0  0  0  2 V2000
  152.5021  142.5750  161.8472 C   0  0  0  0  0  0  0  0  0  0  0  0
  152.8427  143.1976  160.4863 C   0  0  0  0  0  0  0  0  0  0  0  0
  152.1068  144.5191  160.2276 C   0  0  0  0  0  0  0  0  0  0  0  0
  152.6353  142.2107  159.3536 C   0  0  0  0  0  0  0  0  0  0  0  0
  153.1652  140.9767  159.2714 N   0  5  0  0  0  0  0  0  0  0  0  0
  152.7835  140.4004  158.1500 N   0  0  0  0  0  0  0  0  0  0  0  0
  151.9924  141.2962  157.5388 C   0  0  0  0  0  0  0  0  0  0  0  0
  151.3459  141.0983  156.1821 C   0  0  1  0  0  0  0  0  0  0  0  0
  151.6767  139.7039  155.6122 C   0  0  0  0  0  0  0  0  0  0  0  0
  151.0426  139.5139  154.3077 N   0  0  0  0  0  0  0  0  0  0  0  0
  149.6021  139.7454  154.3816 C   0  0  0  0  0  0  0  0  0  0  0  0
  149.3160  141.1353  154.9754 C   0  0  0  0  0  0  0  0  0  0  0  0
  149.9282  141.2399  156.2559 O   0  0  0  0  0  0  0  0  0  0  0  0
  151.8989  142.4188  158.2664 N   0  0  0  0  0  0  0  0  0  0  0  0
  153.0926  141.6755  162.0243 H   0  0  0  0  0  0  0  0  0  0  0  0
  151.4490  142.2979  161.9015 H   0  0  0  0  0  0  0  0  0  0  0  0
  152.7061  143.2713  162.6606 H   0  0  0  0  0  0  0  0  0  0  0  0
  153.9091  143.4269  160.5017 H   0  0  0  0  0  0  0  0  0  0  0  0
  152.4270  144.9668  159.2865 H   0  0  0  0  0  0  0  0  0  0  0  0
  152.3026  145.2400  161.0216 H   0  0  0  0  0  0  0  0  0  0  0  0
  151.0284  144.3660  160.1741 H   0  0  0  0  0  0  0  0  0  0  0  0
  151.7424  141.8708  155.5202 H   0  0  0  0  0  0  0  0  0  0  0  0
  152.7567  139.5847  155.5203 H   0  0  0  0  0  0  0  0  0  0  0  0
  151.3348  138.9346  156.3055 H   0  0  0  0  0  0  0  0  0  0  0  0
  149.1578  139.6622  153.3896 H   0  0  0  0  0  0  0  0  0  0  0  0
  149.1347  138.9792  155.0012 H   0  0  0  0  0  0  0  0  0  0  0  0
  149.6779  141.9259  154.3159 H   0  0  0  0  0  0  0  0  0  0  0  0
  148.2413  141.2806  155.0864 H   0  0  0  0  0  0  0  0  0  0  0  0
  151.2197  138.5699  153.9804 H   0  0  0  0  0  0  0  0  0  0  0  0
  1  2  1  0  0  0  0
  1 15  1  0  0  0  0
  1 16  1  0  0  0  0
  1 17  1  0  0  0  0
  2  3  1  0  0  0  0
  2  4  1  0  0  0  0
  2 18  1  0  0  0  0
  3 19  1  0  0  0  0
  3 20  1  0  0  0  0
  3 21  1  0  0  0  0
  4 14  2  0  0  0  0
  4  5  1  0  0  0  0
  5  6  1  0  0  0  0
  6  7  2  0  0  0  0
  7  8  1  0  0  0  0
  7 14  1  0  0  0  0
  8 13  1  0  0  0  0
  8  9  1  0  0  0  0
  8 22  1  0  0  0  0
  9 10  1  0  0  0  0
  9 23  1  0  0  0  0
  9 24  1  0  0  0  0
 10 11  1  0  0  0  0
 10 29  1  0  0  0  0
 11 12  1  0  0  0  0
 11 25  1  0  0  0  0
 11 26  1  0  0  0  0
 12 13  1  0  0  0  0
 12 27  1  0  0  0  0
 12 28  1  0  0  0  0
M  CHG  1   5  -1
M  END
> <s_m_source_file>
AV-unprocessed.smi

> <i_m_source_file_index>
3019

> <i_lp_mmshare_version>
43012

> <i_f3d_flags>
0

> <s_epik_input>
W0NIM11bQ0hdKFtDSDNdKWMxbltuSF1jKG4xKVtDQEBIXTJbQ0gyXVtOSF1bQ0gyXVtDSDJdTzI=

> <s_epik_cmdline>
J2VwaWtfcHl0aG9uJywgJy1waCcsICc3LjAnLCAnLXRuJywgJzgnLCAnLW1hJywgJzIwMCcsICctbWV0YWxfYmluZGluZycsICctaW1hZScsICc8aW5maWxlLm1hZT4nLCAnLW9tYWUnLCAnPG91dGZpbGUubWFlPic=

> <r_lp_tautomer_probability>
0.948284

> <r_epik_Ionization_Penalty>
17.5852

> <r_epik_Ionization_Penalty_Charging>
16.0119

> <r_epik_Ionization_Penalty_Neutral>
1.5733

> <r_epik_State_Penalty>
6.64574

> <r_epik_Charging_Adjusted_Penalty>
22.6576

> <i_epik_Tot_Q>
-1

> <i_epik_Tot_abs_Q>
1

> <r_epik_Metal_State_Penalty>
2.89273

> <b_epik_Metal_Only>
1

> <s_lp_Force_Field>
OPLS_2005

> <r_lp_Energy>
9.76828

> <b_lp_Chiralities_Consistent>
1

> <s_lp_Variant>
AV-unprocessed.smi:3019-12

> <Gold.Version>
5.8.1

> <Gold.Id.Protein>
6NUR|6NUR_protein|mol2

> <Gold.PLP.Fitness>
35.4052

> <Gold.PLP.PLP>
-30.6479

> <Gold.PLP.part.hbond>
-1.9578

> <Gold.PLP.part.metal>
0.0000

> <Gold.PLP.part.buried>
-3.8833

> <Gold.PLP.part.nonpolar>
-23.5610

> <Gold.PLP.part.repulsive>
0.0877

> <Gold.PLP.ligand.clash>
0.0000

> <Gold.PLP.ligand.torsion>
0.0527

> <Gold.PLP.Chemscore.Hbond>
1.5970

> <Gold.PLP.Chemscore.CHOScore>
0.0000

> <Gold.PLP.Chemscore.Metal>
0.0000

> <Gold.Chemscore.Hbonds>
donor molecule, donor type, donor heavy atom, donor atom, acceptor molecule, acceptor atom, score
      P1  H  7989  7998       L1    10  1.00
      P1  H  7997  8010       L1     6  0.64

> <Gold.PLP.Chemscore.Internal.Correction>
0.0718

> <Gold.Rescore>
     Score         DG    S(hbond)    S(metal)    S(lipo)     H(rot)  DE(clash)    DE(int)     intcor
     11.58     -11.68       0.57        0.00      63.98       1.24       0.06       0.04       ----

> <Gold.Chemscore.Fitness>
11.5838

> <Gold.Chemscore.DG>
-11.6813

> <Gold.Chemscore.ZeroCoef>
-5.4800

> <Gold.Chemscore.Hbond>
0.5674

> <Gold.Chemscore.Metal>
0.0000

> <Gold.Chemscore.Lipo>
63.9826

> <Gold.Chemscore.Internal_Hbond>
0.0000

> <Gold.Chemscore.DEClash>
0.0585

> <Gold.Chemscore.DEInternal>
0.0390

> <Gold.Chemscore.Rot>
1.2422

> <Gold.Chemscore.Internal.Correction>
   9.000000E+99

> <Gold.Chemscore.Hbonds>
donor molecule, donor type, donor heavy atom, donor atom, acceptor molecule, acceptor atom, score
      P1  H  7989  7998       L1    10  0.11
      P1  H  7997  8010       L1     6  0.29

> <Gold.Chemscore.Hbond.Weighted>
-1.8953

> <Gold.Chemscore.Metal.Weighted>
-0.0000

> <Gold.Chemscore.Lipo.Weighted>
-7.4860

> <Gold.Chemscore.Internal_Hbond.Weighted>
0.0000

> <Gold.Chemscore.DEClash.Weighted>
0.0585

> <Gold.Chemscore.DEInternal.Weighted>
0.0390

> <Gold.Chemscore.Rot.Weighted>
3.1799

> <Gold.Chemscore.Internal.Correction.Weighted>
   9.000000E+99

> <Gold.Protein.RotatedTorsions>
[ 6907 6896 6895 6894 ] final -139.01 input  -60.11 | X-H torsion
[ 7974 7965 7964 7962 ] final  134.54 input  175.53 | X-H torsion
[ 8008 7997 7996 7995 ] final   40.88 input   59.86 | X-H torsion
[ 10167 10162 10161 10158 ] final  175.94 input  -65.29 | X-H torsion
[ 10718 10713 10712 10709 ] final -118.91 input   66.30 | X-H torsion
[ 10763 10752 10751 10750 ] final  -54.71 input  -60.55 | X-H torsion
[ 11005 11000 10999 10996 ] final -127.15 input  -57.11 | X-H torsion

> <Gold.Protein.ActiveResidues>
 VAL166  LYS551  ARG553  GLY616  TRP617  ASP618  TYR619  PRO620  LYS621  CYS622 
 ASP623  PHE694  ASN695  SER759  ASP760  ASP761  ALA762  ILE779  LEU786  VAL792 
 PHE793  MET794  SER795  GLU796  ALA797  LYS798  CYS799  TRP800  GLU811  SER814 

> <Gold.Protein.RotatedAtoms>
  151.0424  133.5695  159.2649 H   0  0  0  0  0  0  0  0  0  0  0  0  # atno 6907 bound_to 6896
  151.2736  135.0691  159.9153 H   0  0  0  0  0  0  0  0  0  0  0  0  # atno 6908 bound_to 6896
  152.5366  134.0150  159.8009 H   0  0  0  0  0  0  0  0  0  0  0  0  # atno 6909 bound_to 6896
  144.9753  139.4562  143.5413 H   0  0  0  0  0  0  0  0  0  0  0  0  # atno 7974 bound_to 7965
  155.2604  140.3359  155.4274 H   0  0  0  0  0  0  0  0  0  0  0  0  # atno 8008 bound_to 7997
  156.2177  140.1796  156.7593 H   0  0  0  0  0  0  0  0  0  0  0  0  # atno 8009 bound_to 7997
  154.5778  140.0659  156.9045 H   0  0  0  0  0  0  0  0  0  0  0  0  # atno 8010 bound_to 7997
  139.5195  144.2973  152.0410 H   0  0  0  0  0  0  0  0  0  0  0  0  # atno 10167 bound_to 10162
  156.1142  130.6272  150.9351 H   0  0  0  0  0  0  0  0  0  0  0  0  # atno 10718 bound_to 10713
  154.1791  135.6446  153.5029 H   0  0  0  0  0  0  0  0  0  0  0  0  # atno 10763 bound_to 10752
  153.0064  135.5402  154.6533 H   0  0  0  0  0  0  0  0  0  0  0  0  # atno 10764 bound_to 10752
  154.5892  135.2932  155.0625 H   0  0  0  0  0  0  0  0  0  0  0  0  # atno 10765 bound_to 10752
  140.9623  134.0919  157.3955 H   0  0  0  0  0  0  0  0  0  0  0  0  # atno 11005 bound_to 11000
  146.3393  139.8991  142.8797 LP  0  0  0  0  0  0  0  0  0  0  0  0  # atno 17320 bound_to 7965
  145.2499  141.0040  143.3887 LP  0  0  0  0  0  0  0  0  0  0  0  0  # atno 17321 bound_to 7965
  140.2422  144.4257  150.6255 LP  0  0  0  0  0  0  0  0  0  0  0  0  # atno 17342 bound_to 10162
  140.6282  143.2184  151.6551 LP  0  0  0  0  0  0  0  0  0  0  0  0  # atno 17343 bound_to 10162
  157.6324  131.0919  150.8415 LP  0  0  0  0  0  0  0  0  0  0  0  0  # atno 17370 bound_to 10713
  156.8521  130.5084  149.5311 LP  0  0  0  0  0  0  0  0  0  0  0  0  # atno 17371 bound_to 10713
  139.8882  135.0096  156.6608 LP  0  0  0  0  0  0  0  0  0  0  0  0  # atno 17394 bound_to 11000
  140.7449  133.8946  155.8305 LP  0  0  0  0  0  0  0  0  0  0  0  0  # atno 17395 bound_to 11000

$$$$
