AV-unprocessed.smi:247|AV-procd|sdf|1892|dock9
  -GOLD-   2262020553D 1   1.00000     0.00000
 Structure written by MMmdl.
 61 65  0  0  0  0  0  0  0  0  1 V2000
  144.8167  136.0696  149.8490 O   0  0  0  0  0  0  0  0  0  0  0  0
  145.6904  135.4477  150.7708 C   0  0  0  0  0  0  0  0  0  0  0  0
  145.0497  134.2433  151.5162 C   0  0  0  0  0  0  0  0  0  0  0  0
  144.2172  134.7881  152.7207 C   0  0  0  0  0  0  0  0  0  0  0  0
  145.0053  135.3151  153.8253 N   0  0  0  0  0  0  0  0  0  0  0  0
  146.2224  135.9540  153.7386 C   0  0  0  0  0  0  0  0  0  0  0  0
  146.7392  136.3267  154.8770 N   0  0  0  0  0  0  0  0  0  0  0  0
  145.7966  135.9340  155.8192 C   0  0  0  0  0  0  0  0  0  0  0  0
  145.7205  136.0054  157.2388 C   0  0  0  0  0  0  0  0  0  0  0  0
  146.6836  136.5144  158.0370 N   0  0  0  0  0  0  0  0  0  0  0  0
  147.8351  137.0569  157.3198 C   0  0  0  0  0  0  0  0  0  0  0  0
  149.0838  136.5779  158.0660 C   0  0  0  0  0  0  0  0  0  0  0  0
  148.5494  136.2021  159.4428 C   0  0  0  0  0  0  0  0  0  0  0  0
  147.1665  135.6324  159.1005 C   0  0  1  0  0  0  0  0  0  0  0  0
  146.1355  135.4422  160.2658 C   0  0  2  0  0  0  0  0  0  0  0  0
  145.6272  136.7568  160.9053 C   0  0  0  0  0  0  0  0  0  0  0  0
  146.6781  137.4167  161.6070 O   0  0  0  0  0  0  0  0  0  0  0  0
  147.1738  136.6656  162.7104 C   0  0  0  0  0  0  0  0  0  0  0  0
  147.7335  135.3168  162.2310 C   0  0  0  0  0  0  0  0  0  0  0  0
  146.6658  134.5629  161.4251 C   0  0  2  0  0  0  0  0  0  0  0  0
  147.1656  133.3159  160.9884 O   0  0  0  0  0  0  0  0  0  0  0  0
  144.6142  135.5094  157.8439 N   0  0  0  0  0  0  0  0  0  0  0  0
  143.6393  134.9660  157.1085 C   0  0  0  0  0  0  0  0  0  0  0  0
  143.5771  134.8160  155.7835 N   0  0  0  0  0  0  0  0  0  0  0  0
  144.6910  135.3144  155.1737 C   0  0  0  0  0  0  0  0  0  0  0  0
  144.1783  133.4223  150.5304 C   0  0  0  0  0  0  0  0  0  0  0  0
  143.7014  132.0920  151.1396 C   0  0  0  0  0  0  0  0  0  0  0  0
  144.8228  131.3229  151.5565 O   0  0  0  0  0  0  0  0  0  0  0  0
  145.5901  131.9588  152.5718 C   0  0  0  0  0  0  0  0  0  0  0  0
  146.1536  133.2971  152.0552 C   0  0  0  0  0  0  0  0  0  0  0  0
  144.7330  136.9813  150.0830 H   0  0  0  0  0  0  0  0  0  0  0  0
  146.5803  135.1281  150.2275 H   0  0  0  0  0  0  0  0  0  0  0  0
  146.0085  136.2153  151.4762 H   0  0  0  0  0  0  0  0  0  0  0  0
  143.5361  135.5784  152.4094 H   0  0  0  0  0  0  0  0  0  0  0  0
  143.5775  133.9973  153.1147 H   0  0  0  0  0  0  0  0  0  0  0  0
  146.7258  136.1250  152.7983 H   0  0  0  0  0  0  0  0  0  0  0  0
  147.8674  136.7703  156.2678 H   0  0  0  0  0  0  0  0  0  0  0  0
  147.7710  138.1444  157.3584 H   0  0  0  0  0  0  0  0  0  0  0  0
  149.4886  135.6918  157.5751 H   0  0  0  0  0  0  0  0  0  0  0  0
  149.8703  137.3320  158.1040 H   0  0  0  0  0  0  0  0  0  0  0  0
  149.1906  135.4889  159.9613 H   0  0  0  0  0  0  0  0  0  0  0  0
  148.4754  137.1072  160.0458 H   0  0  0  0  0  0  0  0  0  0  0  0
  147.3561  134.6563  158.6545 H   0  0  0  0  0  0  0  0  0  0  0  0
  145.2559  134.9442  159.8549 H   0  0  0  0  0  0  0  0  0  0  0  0
  145.2055  137.4269  160.1575 H   0  0  0  0  0  0  0  0  0  0  0  0
  144.8107  136.5479  161.5988 H   0  0  0  0  0  0  0  0  0  0  0  0
  147.9554  137.2411  163.2063 H   0  0  0  0  0  0  0  0  0  0  0  0
  146.3783  136.5153  163.4420 H   0  0  0  0  0  0  0  0  0  0  0  0
  148.6226  135.4862  161.6228 H   0  0  0  0  0  0  0  0  0  0  0  0
  148.0520  134.7224  163.0881 H   0  0  0  0  0  0  0  0  0  0  0  0
  145.8328  134.3372  162.0924 H   0  0  0  0  0  0  0  0  0  0  0  0
  146.5520  132.6421  161.2389 H   0  0  0  0  0  0  0  0  0  0  0  0
  142.7903  134.5926  157.6615 H   0  0  0  0  0  0  0  0  0  0  0  0
  143.3288  134.0038  150.1742 H   0  0  0  0  0  0  0  0  0  0  0  0
  144.7575  133.1816  149.6383 H   0  0  0  0  0  0  0  0  0  0  0  0
  143.0205  132.2519  151.9758 H   0  0  0  0  0  0  0  0  0  0  0  0
  143.1488  131.5215  150.3930 H   0  0  0  0  0  0  0  0  0  0  0  0
  144.9885  132.0925  153.4708 H   0  0  0  0  0  0  0  0  0  0  0  0
  146.4107  131.2969  152.8485 H   0  0  0  0  0  0  0  0  0  0  0  0
  146.8687  133.0635  151.2663 H   0  0  0  0  0  0  0  0  0  0  0  0
  146.7267  133.7890  152.8418 H   0  0  0  0  0  0  0  0  0  0  0  0
  1  2  1  0  0  0  0
  1 31  1  0  0  0  0
  2  3  1  0  0  0  0
  2 32  1  0  0  0  0
  2 33  1  0  0  0  0
  3 30  1  0  0  0  0
  3  4  1  0  0  0  0
  3 26  1  0  0  0  0
  4  5  1  0  0  0  0
  4 34  1  0  0  0  0
  4 35  1  0  0  0  0
  5 25  1  0  0  0  0
  5  6  1  0  0  0  0
  6  7  2  0  0  0  0
  6 36  1  0  0  0  0
  7  8  1  0  0  0  0
  8 25  2  0  0  0  0
  8  9  1  0  0  0  0
  9 10  1  0  0  0  0
  9 22  2  0  0  0  0
 10 14  1  0  0  0  0
 10 11  1  0  0  0  0
 11 12  1  0  0  0  0
 11 37  1  0  0  0  0
 11 38  1  0  0  0  0
 12 13  1  0  0  0  0
 12 39  1  0  0  0  0
 12 40  1  0  0  0  0
 13 14  1  0  0  0  0
 13 41  1  0  0  0  0
 13 42  1  0  0  0  0
 14 15  1  0  0  0  0
 14 43  1  0  0  0  0
 15 20  1  0  0  0  0
 15 16  1  0  0  0  0
 15 44  1  0  0  0  0
 16 17  1  0  0  0  0
 16 45  1  0  0  0  0
 16 46  1  0  0  0  0
 17 18  1  0  0  0  0
 18 19  1  0  0  0  0
 18 47  1  0  0  0  0
 18 48  1  0  0  0  0
 19 20  1  0  0  0  0
 19 49  1  0  0  0  0
 19 50  1  0  0  0  0
 20 21  1  0  0  0  0
 20 51  1  0  0  0  0
 21 52  1  0  0  0  0
 22 23  1  0  0  0  0
 23 24  2  0  0  0  0
 23 53  1  0  0  0  0
 24 25  1  0  0  0  0
 26 27  1  0  0  0  0
 26 54  1  0  0  0  0
 26 55  1  0  0  0  0
 27 28  1  0  0  0  0
 27 56  1  0  0  0  0
 27 57  1  0  0  0  0
 28 29  1  0  0  0  0
 29 30  1  0  0  0  0
 29 58  1  0  0  0  0
 29 59  1  0  0  0  0
 30 60  1  0  0  0  0
 30 61  1  0  0  0  0
M  END
> <s_m_source_file>
AV-unprocessed.smi

> <i_m_source_file_index>
247

> <i_lp_mmshare_version>
43012

> <i_f3d_flags>
0

> <s_epik_input>
W0NIMl0xW0NIMl1PW0NIMl1bQ0gyXUMxKFtDSDJdW09IXSlbQ0gyXW4oW2NIXW4yKWMoYzIzKW5bY0hdbmMzTjRbQ0gyXVtDSDJdW0NIMl1bQ0BIXTRbQ0BASF01W0NIMl1PW0NIMl1bQ0gyXVtDQEhdNVtPSF0=

> <s_epik_cmdline>
J2VwaWtfcHl0aG9uJywgJy1waCcsICc3LjAnLCAnLXRuJywgJzgnLCAnLW1hJywgJzIwMCcsICctbWV0YWxfYmluZGluZycsICctaW1hZScsICc8aW5maWxlLm1hZT4nLCAnLW9tYWUnLCAnPG91dGZpbGUubWFlPic=

> <r_lp_tautomer_probability>
1

> <r_epik_Ionization_Penalty>
0.00362597

> <r_epik_Ionization_Penalty_Charging>
0

> <r_epik_Ionization_Penalty_Neutral>
0.00362597

> <r_epik_State_Penalty>
0.00241433

> <r_epik_Charging_Adjusted_Penalty>
0.00241433

> <i_epik_Tot_Q>
0

> <i_epik_Tot_abs_Q>
0

> <r_epik_Metal_State_Penalty>
-0

> <b_epik_Metal_Only>
0

> <s_lp_Force_Field>
OPLS_2005

> <r_lp_Energy>
63.5358

> <b_lp_Chiralities_Consistent>
1

> <s_lp_Variant>
AV-unprocessed.smi:247-5

> <Gold.Version>
5.8.1

> <Gold.Id.Protein>
6NUR|6NUR_protein|mol2

> <Gold.PLP.Fitness>
45.0997

> <Gold.PLP.PLP>
-35.4882

> <Gold.PLP.part.hbond>
-3.0000

> <Gold.PLP.part.metal>
0.0000

> <Gold.PLP.part.buried>
-7.9841

> <Gold.PLP.part.nonpolar>
-25.1534

> <Gold.PLP.part.repulsive>
0.3058

> <Gold.PLP.ligand.clash>
0.0000

> <Gold.PLP.ligand.torsion>
0.8639

> <Gold.PLP.Chemscore.Hbond>
2.0000

> <Gold.PLP.Chemscore.CHOScore>
1.7463

> <Gold.PLP.Chemscore.Metal>
0.0000

> <Gold.Chemscore.Hbonds>
donor molecule, donor type, donor heavy atom, donor atom, acceptor molecule, acceptor atom, score
      L1  H     1    31       P1 10171  0.93
      P1  H  6934  6947       L1    17  1.00
      L1  C     6    36       P1  7948  1.00
      L1  C    23    53       P1 11000  0.71

> <Gold.PLP.Chemscore.Internal.Correction>
0.1003

> <Gold.Rescore>
     Score         DG    S(hbond)    S(metal)    S(lipo)     H(rot)  DE(clash)    DE(int)     intcor
      8.74     -13.25       1.94        0.00      81.70       3.23       0.13       4.38       ----

> <Gold.Chemscore.Fitness>
8.7357

> <Gold.Chemscore.DG>
-13.2539

> <Gold.Chemscore.ZeroCoef>
-5.4800

> <Gold.Chemscore.Hbond>
1.9397

> <Gold.Chemscore.Metal>
0.0000

> <Gold.Chemscore.Lipo>
81.6974

> <Gold.Chemscore.Internal_Hbond>
0.0000

> <Gold.Chemscore.DEClash>
0.1334

> <Gold.Chemscore.DEInternal>
4.3848

> <Gold.Chemscore.Rot>
3.2278

> <Gold.Chemscore.Internal.Correction>
   9.000000E+99

> <Gold.Chemscore.Hbonds>
donor molecule, donor type, donor heavy atom, donor atom, acceptor molecule, acceptor atom, score
      L1  H     1    31       P1 10171  0.91
      P1  H  6934  6947       L1    17  0.88

> <Gold.Chemscore.Hbond.Weighted>
-6.4786

> <Gold.Chemscore.Metal.Weighted>
-0.0000

> <Gold.Chemscore.Lipo.Weighted>
-9.5586

> <Gold.Chemscore.Internal_Hbond.Weighted>
0.0000

> <Gold.Chemscore.DEClash.Weighted>
0.1334

> <Gold.Chemscore.DEInternal.Weighted>
4.3848

> <Gold.Chemscore.Rot.Weighted>
8.2633

> <Gold.Chemscore.Internal.Correction.Weighted>
   9.000000E+99

> <Gold.Protein.RotatedTorsions>
[ 6907 6896 6895 6894 ] final   -5.84 input  -60.11 | X-H torsion
[ 7974 7965 7964 7962 ] final  167.59 input  175.53 | X-H torsion
[ 8008 7997 7996 7995 ] final  -49.86 input   59.86 | X-H torsion
[ 10167 10162 10161 10158 ] final   12.91 input  -65.29 | X-H torsion
[ 10718 10713 10712 10709 ] final   -7.90 input   66.30 | X-H torsion
[ 10763 10752 10751 10750 ] final -111.73 input  -60.55 | X-H torsion
[ 11005 11000 10999 10996 ] final   79.39 input  -57.11 | X-H torsion

> <Gold.Protein.ActiveResidues>
 VAL166  LYS551  ARG553  GLY616  TRP617  ASP618  TYR619  PRO620  LYS621  CYS622 
 ASP623  PHE694  ASN695  SER759  ASP760  ASP761  ALA762  ILE779  LEU786  VAL792 
 PHE793  MET794  SER795  GLU796  ALA797  LYS798  CYS799  TRP800  GLU811  SER814 

> <Gold.Protein.RotatedAtoms>
  151.4751  135.1048  159.9762 H   0  0  0  0  0  0  0  0  0  0  0  0  # atno 6907 bound_to 6896
  152.4801  133.8230  159.7074 H   0  0  0  0  0  0  0  0  0  0  0  0  # atno 6908 bound_to 6896
  150.8867  133.7237  159.2943 H   0  0  0  0  0  0  0  0  0  0  0  0  # atno 6909 bound_to 6896
  144.7419  139.8783  143.6394 H   0  0  0  0  0  0  0  0  0  0  0  0  # atno 7974 bound_to 7965
  154.4051  140.1286  156.4571 H   0  0  0  0  0  0  0  0  0  0  0  0  # atno 8008 bound_to 7997
  155.7309  140.3491  155.5039 H   0  0  0  0  0  0  0  0  0  0  0  0  # atno 8009 bound_to 7997
  155.9128  140.1039  157.1257 H   0  0  0  0  0  0  0  0  0  0  0  0  # atno 8010 bound_to 7997
  140.6037  143.8551  150.6992 H   0  0  0  0  0  0  0  0  0  0  0  0  # atno 10167 bound_to 10162
  156.7105  130.5120  149.5893 H   0  0  0  0  0  0  0  0  0  0  0  0  # atno 10718 bound_to 10713
  154.8315  135.4516  154.1085 H   0  0  0  0  0  0  0  0  0  0  0  0  # atno 10763 bound_to 10752
  153.2354  135.6910  153.7849 H   0  0  0  0  0  0  0  0  0  0  0  0  # atno 10764 bound_to 10752
  153.7216  135.3341  155.3244 H   0  0  0  0  0  0  0  0  0  0  0  0  # atno 10765 bound_to 10752
  139.9174  134.7839  156.1773 H   0  0  0  0  0  0  0  0  0  0  0  0  # atno 11005 bound_to 11000
  146.1230  139.4251  143.0216 LP  0  0  0  0  0  0  0  0  0  0  0  0  # atno 17320 bound_to 7965
  145.7276  141.0053  143.1369 LP  0  0  0  0  0  0  0  0  0  0  0  0  # atno 17321 bound_to 7965
  140.2103  143.3888  152.1723 LP  0  0  0  0  0  0  0  0  0  0  0  0  # atno 17342 bound_to 10162
  139.5309  144.7158  151.5058 LP  0  0  0  0  0  0  0  0  0  0  0  0  # atno 17343 bound_to 10162
  156.1665  130.6408  151.0784 LP  0  0  0  0  0  0  0  0  0  0  0  0  # atno 17370 bound_to 10713
  157.6938  131.0801  150.7030 LP  0  0  0  0  0  0  0  0  0  0  0  0  # atno 17371 bound_to 10713
  141.0664  133.6817  156.2053 LP  0  0  0  0  0  0  0  0  0  0  0  0  # atno 17394 bound_to 11000
  140.6578  134.4999  157.5581 LP  0  0  0  0  0  0  0  0  0  0  0  0  # atno 17395 bound_to 11000

$$$$
