AV-unprocessed.smi:3292|AV-procd|sdf|12626|dock9
  -GOLD-   2272018563D 1   1.00000     0.00000
 Structure written by MMmdl.
 38 39  0  0  0  0  0  0  0  0  1 V2000
  152.0169  137.8621  155.5175 C   0  0  0  0  0  0  0  0  0  0  0  0
  150.5508  138.1161  155.1292 C   0  0  1  0  0  0  0  0  0  0  0  0
  150.3739  139.3217  154.1800 C   0  0  0  0  0  0  0  0  0  0  0  0
  148.9892  139.7342  154.0502 N   0  0  0  0  0  0  0  0  0  0  0  0
  147.9180  138.9487  153.6455 C   0  0  0  0  0  0  0  0  0  0  0  0
  146.8054  139.7589  153.6694 C   0  0  0  0  0  0  0  0  0  0  0  0
  147.1672  141.0405  154.0778 N   0  0  0  0  0  0  0  0  0  0  0  0
  148.4752  140.9501  154.2817 C   0  0  0  0  0  0  0  0  0  0  0  0
  150.0016  136.9080  154.5199 N   0  0  0  0  0  0  0  0  0  0  0  0
  150.0142  135.6877  155.0746 C   0  0  0  0  0  0  0  0  0  0  0  0
  150.4853  135.4396  156.1847 O   0  0  0  0  0  0  0  0  0  0  0  0
  149.4554  134.7710  154.2719 N   0  0  0  0  0  0  0  0  0  0  0  0
  149.3220  133.3498  154.5769 C   0  0  0  0  0  0  0  0  0  0  0  0
  148.6267  132.5811  153.4374 C   0  0  2  0  0  0  0  0  0  0  0  0
  147.3426  133.2265  152.9583 C   0  0  0  0  0  0  0  0  0  0  0  0
  146.6628  132.0776  152.2181 C   0  0  0  0  0  0  0  0  0  0  0  0
  147.1039  130.8825  152.8569 O   0  0  0  0  0  0  0  0  0  0  0  0
  148.1234  131.1839  153.8040 C   0  0  0  0  0  0  0  0  0  0  0  0
  152.4392  138.7073  156.0615 H   0  0  0  0  0  0  0  0  0  0  0  0
  152.6361  137.6902  154.6367 H   0  0  0  0  0  0  0  0  0  0  0  0
  152.1051  136.9876  156.1629 H   0  0  0  0  0  0  0  0  0  0  0  0
  150.0015  138.3165  156.0513 H   0  0  0  0  0  0  0  0  0  0  0  0
  150.9582  140.1720  154.5348 H   0  0  0  0  0  0  0  0  0  0  0  0
  150.7459  139.0822  153.1832 H   0  0  0  0  0  0  0  0  0  0  0  0
  148.0337  137.9072  153.3836 H   0  0  0  0  0  0  0  0  0  0  0  0
  145.7810  139.5205  153.4242 H   0  0  0  0  0  0  0  0  0  0  0  0
  149.0725  141.7876  154.6117 H   0  0  0  0  0  0  0  0  0  0  0  0
  149.5914  137.0085  153.6030 H   0  0  0  0  0  0  0  0  0  0  0  0
  149.0982  135.0776  153.3788 H   0  0  0  0  0  0  0  0  0  0  0  0
  150.2934  132.9076  154.8046 H   0  0  0  0  0  0  0  0  0  0  0  0
  148.7283  133.2629  155.4871 H   0  0  0  0  0  0  0  0  0  0  0  0
  149.3075  132.4969  152.5885 H   0  0  0  0  0  0  0  0  0  0  0  0
  146.7318  133.5350  153.8080 H   0  0  0  0  0  0  0  0  0  0  0  0
  147.5103  134.0977  152.3248 H   0  0  0  0  0  0  0  0  0  0  0  0
  145.5760  132.1603  152.2337 H   0  0  0  0  0  0  0  0  0  0  0  0
  146.9854  132.0515  151.1767 H   0  0  0  0  0  0  0  0  0  0  0  0
  148.9147  130.4343  153.7873 H   0  0  0  0  0  0  0  0  0  0  0  0
  147.6776  131.1831  154.7996 H   0  0  0  0  0  0  0  0  0  0  0  0
  1  2  1  0  0  0  0
  1 19  1  0  0  0  0
  1 20  1  0  0  0  0
  1 21  1  0  0  0  0
  2  3  1  0  0  0  0
  2  9  1  0  0  0  0
  2 22  1  0  0  0  0
  3  4  1  0  0  0  0
  3 23  1  0  0  0  0
  3 24  1  0  0  0  0
  4  8  1  0  0  0  0
  4  5  1  0  0  0  0
  5  6  2  0  0  0  0
  5 25  1  0  0  0  0
  6  7  1  0  0  0  0
  6 26  1  0  0  0  0
  7  8  2  0  0  0  0
  8 27  1  0  0  0  0
  9 10  1  0  0  0  0
  9 28  1  0  0  0  0
 10 11  2  0  0  0  0
 10 12  1  0  0  0  0
 12 13  1  0  0  0  0
 12 29  1  0  0  0  0
 13 14  1  0  0  0  0
 13 30  1  0  0  0  0
 13 31  1  0  0  0  0
 14 18  1  0  0  0  0
 14 15  1  0  0  0  0
 14 32  1  0  0  0  0
 15 16  1  0  0  0  0
 15 33  1  0  0  0  0
 15 34  1  0  0  0  0
 16 17  1  0  0  0  0
 16 35  1  0  0  0  0
 16 36  1  0  0  0  0
 17 18  1  0  0  0  0
 18 37  1  0  0  0  0
 18 38  1  0  0  0  0
M  END
> <s_m_source_file>
AV-unprocessed.smi

> <i_m_source_file_index>
3292

> <i_lp_mmshare_version>
43012

> <i_f3d_flags>
0

> <s_epik_input>
W2NIXTFuW2NIXVtjSF1uMVtDSDJdW0NAQEhdKFtDSDNdKVtOSF1DKD1PKVtOSF1bQ0gyXVtDQEBIXTJbQ0gyXVtDSDJdT1tDSDJdMg==

> <s_epik_cmdline>
J2VwaWtfcHl0aG9uJywgJy1waCcsICc3LjAnLCAnLXRuJywgJzgnLCAnLW1hJywgJzIwMCcsICctbWV0YWxfYmluZGluZycsICctaW1hZScsICc8aW5maWxlLm1hZT4nLCAnLW9tYWUnLCAnPG91dGZpbGUubWFlPic=

> <r_lp_tautomer_probability>
1

> <r_epik_Ionization_Penalty>
0.621291

> <r_epik_Ionization_Penalty_Charging>
0.621234

> <r_epik_Ionization_Penalty_Neutral>
5.72199e-05

> <r_epik_State_Penalty>
0.637278

> <r_epik_Charging_Adjusted_Penalty>
1.25851

> <i_epik_Tot_Q>
0

> <i_epik_Tot_abs_Q>
0

> <r_epik_Metal_State_Penalty>
0.306757

> <b_epik_Metal_Only>
0

> <s_lp_Force_Field>
OPLS_2005

> <r_lp_Energy>
18.3972

> <b_lp_Chiralities_Consistent>
1

> <s_lp_Variant>
AV-unprocessed.smi:3292-6

> <Gold.Version>
5.8.1

> <Gold.Id.Protein>
6NUR|6NUR_protein|mol2

> <Gold.PLP.Fitness>
39.6797

> <Gold.PLP.PLP>
-28.0920

> <Gold.PLP.part.hbond>
-2.0000

> <Gold.PLP.part.metal>
0.0000

> <Gold.PLP.part.buried>
-1.2083

> <Gold.PLP.part.nonpolar>
-25.8661

> <Gold.PLP.part.repulsive>
0.3688

> <Gold.PLP.ligand.clash>
0.0000

> <Gold.PLP.ligand.torsion>
0.1806

> <Gold.PLP.Chemscore.Hbond>
1.9760

> <Gold.PLP.Chemscore.CHOScore>
1.9962

> <Gold.PLP.Chemscore.Metal>
0.0000

> <Gold.Chemscore.Hbonds>
donor molecule, donor type, donor heavy atom, donor atom, acceptor molecule, acceptor atom, score
      L1  H     9    28       P1  7948  1.00
      L1  H    12    29       P1  7948  0.95
      L1  C     5    25       P1  7948  1.00
      L1  C     6    26       P1 10175  1.00

> <Gold.PLP.Chemscore.Internal.Correction>
0.0323

> <Gold.Rescore>
     Score         DG    S(hbond)    S(metal)    S(lipo)     H(rot)  DE(clash)    DE(int)     intcor
     10.04     -11.46       1.45        0.00      57.06       2.16       0.17       1.25       ----

> <Gold.Chemscore.Fitness>
10.0392

> <Gold.Chemscore.DG>
-11.4592

> <Gold.Chemscore.ZeroCoef>
-5.4800

> <Gold.Chemscore.Hbond>
1.4452

> <Gold.Chemscore.Metal>
0.0000

> <Gold.Chemscore.Lipo>
57.0581

> <Gold.Chemscore.Internal_Hbond>
0.0000

> <Gold.Chemscore.DEClash>
0.1706

> <Gold.Chemscore.DEInternal>
1.2494

> <Gold.Chemscore.Rot>
2.1577

> <Gold.Chemscore.Internal.Correction>
   9.000000E+99

> <Gold.Chemscore.Hbonds>
donor molecule, donor type, donor heavy atom, donor atom, acceptor molecule, acceptor atom, score
      L1  H     9    28       P1  7948  0.77
      L1  H    12    29       P1  7948  0.21

> <Gold.Chemscore.Hbond.Weighted>
-4.8271

> <Gold.Chemscore.Metal.Weighted>
-0.0000

> <Gold.Chemscore.Lipo.Weighted>
-6.6758

> <Gold.Chemscore.Internal_Hbond.Weighted>
0.0000

> <Gold.Chemscore.DEClash.Weighted>
0.1706

> <Gold.Chemscore.DEInternal.Weighted>
1.2494

> <Gold.Chemscore.Rot.Weighted>
5.5237

> <Gold.Chemscore.Internal.Correction.Weighted>
   9.000000E+99

> <Gold.Protein.RotatedTorsions>
[ 6907 6896 6895 6894 ] final -167.77 input  -60.11 | X-H torsion
[ 7974 7965 7964 7962 ] final    1.96 input  175.53 | X-H torsion
[ 8008 7997 7996 7995 ] final   67.51 input   59.86 | X-H torsion
[ 10167 10162 10161 10158 ] final    8.04 input  -65.29 | X-H torsion
[ 10718 10713 10712 10709 ] final -114.10 input   66.30 | X-H torsion
[ 10763 10752 10751 10750 ] final -137.34 input  -60.55 | X-H torsion
[ 11005 11000 10999 10996 ] final  -10.14 input  -57.11 | X-H torsion

> <Gold.Protein.ActiveResidues>
 VAL166  LYS551  ARG553  GLY616  TRP617  ASP618  TYR619  PRO620  LYS621  CYS622 
 ASP623  PHE694  ASN695  SER759  ASP760  ASP761  ALA762  ILE779  LEU786  VAL792 
 PHE793  MET794  SER795  GLU796  ALA797  LYS798  CYS799  TRP800  GLU811  SER814 

> <Gold.Protein.RotatedAtoms>
  151.4648  133.3583  159.2814 H   0  0  0  0  0  0  0  0  0  0  0  0  # atno 6907 bound_to 6896
  150.9001  134.8414  159.7364 H   0  0  0  0  0  0  0  0  0  0  0  0  # atno 6908 bound_to 6896
  152.4874  134.4567  159.9644 H   0  0  0  0  0  0  0  0  0  0  0  0  # atno 6909 bound_to 6896
  146.2442  140.0907  142.8352 H   0  0  0  0  0  0  0  0  0  0  0  0  # atno 7974 bound_to 7965
  155.6940  140.3496  155.4905 H   0  0  0  0  0  0  0  0  0  0  0  0  # atno 8008 bound_to 7997
  155.9499  140.1117  157.1007 H   0  0  0  0  0  0  0  0  0  0  0  0  # atno 8009 bound_to 7997
  154.4120  140.1196  156.5025 H   0  0  0  0  0  0  0  0  0  0  0  0  # atno 8010 bound_to 7997
  140.6337  143.7935  150.7330 H   0  0  0  0  0  0  0  0  0  0  0  0  # atno 10167 bound_to 10162
  156.0808  130.6008  150.8729 H   0  0  0  0  0  0  0  0  0  0  0  0  # atno 10718 bound_to 10713
  154.8664  135.3645  154.5208 H   0  0  0  0  0  0  0  0  0  0  0  0  # atno 10763 bound_to 10752
  153.5838  135.7017  153.5457 H   0  0  0  0  0  0  0  0  0  0  0  0  # atno 10764 bound_to 10752
  153.3433  135.4092  155.1551 H   0  0  0  0  0  0  0  0  0  0  0  0  # atno 10765 bound_to 10752
  140.7416  133.8665  155.8972 H   0  0  0  0  0  0  0  0  0  0  0  0  # atno 11005 bound_to 11000
  145.0653  140.9117  143.4914 LP  0  0  0  0  0  0  0  0  0  0  0  0  # atno 17320 bound_to 7965
  145.1031  139.2809  143.5676 LP  0  0  0  0  0  0  0  0  0  0  0  0  # atno 17321 bound_to 7965
  140.1552  143.4323  152.2105 LP  0  0  0  0  0  0  0  0  0  0  0  0  # atno 17342 bound_to 10162
  139.5549  144.7365  151.4324 LP  0  0  0  0  0  0  0  0  0  0  0  0  # atno 17343 bound_to 10162
  157.5924  131.0944  150.9097 LP  0  0  0  0  0  0  0  0  0  0  0  0  # atno 17370 bound_to 10713
  156.9270  130.5336  149.5279 LP  0  0  0  0  0  0  0  0  0  0  0  0  # atno 17371 bound_to 10713
  140.9831  134.1378  157.4476 LP  0  0  0  0  0  0  0  0  0  0  0  0  # atno 17394 bound_to 11000
  139.8805  135.0017  156.6082 LP  0  0  0  0  0  0  0  0  0  0  0  0  # atno 17395 bound_to 11000

$$$$
