AV-unprocessed.smi:422|AV-procd|sdf|2536|dock5
  -GOLD-   2262022493D 1   1.00000     0.00000
 Structure written by MMmdl.
 43 45  0  0  0  0  0  0  0  0  1 V2000
  153.9463  140.9049  160.2253 C   0  0  0  0  0  0  0  0  0  0  0  0
  153.0017  141.5442  159.3173 N   0  0  0  0  0  0  0  0  0  0  0  0
  152.5024  141.0311  158.1684 C   0  0  0  0  0  0  0  0  0  0  0  0
  152.7593  139.9239  157.6958 O   0  0  0  0  0  0  0  0  0  0  0  0
  151.6543  141.9423  157.6371 N   0  0  0  0  0  0  0  0  0  0  0  0
  150.8761  141.7914  156.4108 C   0  0  0  0  0  0  0  0  0  0  0  0
  149.9412  140.5643  156.4847 C   0  0  2  0  0  0  0  0  0  0  0  0
  149.2713  140.4262  155.2484 O   0  0  0  0  0  0  0  0  0  0  0  0
  148.8727  140.7119  157.5781 C   0  0  0  0  0  0  0  0  0  0  0  0
  147.9626  141.7212  157.1748 O   0  0  0  0  0  0  0  0  0  0  0  0
  146.7221  141.2108  156.7204 C   0  0  0  0  0  0  0  0  0  0  0  0
  145.9870  142.2361  155.8796 C   0  0  0  0  0  0  0  0  0  0  0  0
  144.8760  142.9258  156.4098 C   0  0  0  0  0  0  0  0  0  0  0  0
  144.1977  143.8820  155.6289 C   0  0  0  0  0  0  0  0  0  0  0  0
  144.6260  144.1508  154.3147 C   0  0  0  0  0  0  0  0  0  0  0  0
  145.7315  143.4614  153.7805 C   0  0  0  0  0  0  0  0  0  0  0  0
  146.4106  142.5042  154.5595 C   0  0  0  0  0  0  0  0  0  0  0  0
  147.4710  141.8445  154.0346 F   0  0  0  0  0  0  0  0  0  0  0  0
  151.5865  143.0576  158.4847 C   0  0  0  0  0  0  0  0  0  0  0  0
  150.8390  144.2451  158.3972 C   0  0  0  0  0  0  0  0  0  0  0  0
  150.9958  145.1864  159.4411 C   0  0  0  0  0  0  0  0  0  0  0  0
  151.8739  144.9289  160.5262 C   0  0  0  0  0  0  0  0  0  0  0  0
  152.6124  143.7239  160.5910 C   0  0  0  0  0  0  0  0  0  0  0  0
  152.4370  142.8068  159.5406 C   0  0  0  0  0  0  0  0  0  0  0  0
  154.4000  140.0163  159.7839 H   0  0  0  0  0  0  0  0  0  0  0  0
  153.4402  140.6075  161.1439 H   0  0  0  0  0  0  0  0  0  0  0  0
  154.7495  141.5950  160.4849 H   0  0  0  0  0  0  0  0  0  0  0  0
  150.2948  142.7040  156.2739 H   0  0  0  0  0  0  0  0  0  0  0  0
  151.5328  141.7427  155.5402 H   0  0  0  0  0  0  0  0  0  0  0  0
  150.5076  139.6503  156.6702 H   0  0  0  0  0  0  0  0  0  0  0  0
  149.0159  139.5219  155.1455 H   0  0  0  0  0  0  0  0  0  0  0  0
  148.3557  139.7643  157.7388 H   0  0  0  0  0  0  0  0  0  0  0  0
  149.3333  141.0020  158.5240 H   0  0  0  0  0  0  0  0  0  0  0  0
  146.8837  140.3180  156.1146 H   0  0  0  0  0  0  0  0  0  0  0  0
  146.1082  140.9158  157.5726 H   0  0  0  0  0  0  0  0  0  0  0  0
  144.5414  142.7270  157.4175 H   0  0  0  0  0  0  0  0  0  0  0  0
  143.3489  144.4096  156.0386 H   0  0  0  0  0  0  0  0  0  0  0  0
  144.1061  144.8841  153.7161 H   0  0  0  0  0  0  0  0  0  0  0  0
  146.0588  143.6664  152.7719 H   0  0  0  0  0  0  0  0  0  0  0  0
  150.1702  144.4355  157.5721 H   0  0  0  0  0  0  0  0  0  0  0  0
  150.4392  146.1116  159.4117 H   0  0  0  0  0  0  0  0  0  0  0  0
  151.9780  145.6610  161.3131 H   0  0  0  0  0  0  0  0  0  0  0  0
  153.2797  143.5192  161.4151 H   0  0  0  0  0  0  0  0  0  0  0  0
  1  2  1  0  0  0  0
  1 25  1  0  0  0  0
  1 26  1  0  0  0  0
  1 27  1  0  0  0  0
  2 24  1  0  0  0  0
  2  3  1  0  0  0  0
  3  4  2  0  0  0  0
  3  5  1  0  0  0  0
  5  6  1  0  0  0  0
  5 19  1  0  0  0  0
  6  7  1  0  0  0  0
  6 28  1  0  0  0  0
  6 29  1  0  0  0  0
  7  8  1  0  0  0  0
  7  9  1  0  0  0  0
  7 30  1  0  0  0  0
  8 31  1  0  0  0  0
  9 10  1  0  0  0  0
  9 32  1  0  0  0  0
  9 33  1  0  0  0  0
 10 11  1  0  0  0  0
 11 12  1  0  0  0  0
 11 34  1  0  0  0  0
 11 35  1  0  0  0  0
 12 17  1  0  0  0  0
 12 13  2  0  0  0  0
 13 14  1  0  0  0  0
 13 36  1  0  0  0  0
 14 15  2  0  0  0  0
 14 37  1  0  0  0  0
 15 16  1  0  0  0  0
 15 38  1  0  0  0  0
 16 17  2  0  0  0  0
 16 39  1  0  0  0  0
 17 18  1  0  0  0  0
 19 24  2  0  0  0  0
 19 20  1  0  0  0  0
 20 21  2  0  0  0  0
 20 40  1  0  0  0  0
 21 22  1  0  0  0  0
 21 41  1  0  0  0  0
 22 23  2  0  0  0  0
 22 42  1  0  0  0  0
 23 24  1  0  0  0  0
 23 43  1  0  0  0  0
M  END
> <s_m_source_file>
AV-unprocessed.smi

> <i_m_source_file_index>
422

> <i_lp_mmshare_version>
43012

> <i_f3d_flags>
0

> <s_epik_input>
W2NIXTFbY0hdW2NIXVtjSF1jKGMxMiluKFtDSDNdKWMoPU8pbjJbQ0gyXVtDQEhdKFtPSF0pW0NIMl1PW0NIMl1jM1tjSF1bY0hdW2NIXVtjSF1jM0Y=

> <s_epik_cmdline>
J2VwaWtfcHl0aG9uJywgJy1waCcsICc3LjAnLCAnLXRuJywgJzgnLCAnLW1hJywgJzIwMCcsICctbWV0YWxfYmluZGluZycsICctaW1hZScsICc8aW5maWxlLm1hZT4nLCAnLW9tYWUnLCAnPG91dGZpbGUubWFlPic=

> <r_lp_tautomer_probability>
1

> <r_epik_Ionization_Penalty>
1.0795e-06

> <r_epik_Ionization_Penalty_Charging>
2.82452e-09

> <r_epik_Ionization_Penalty_Neutral>
1.07667e-06

> <r_epik_State_Penalty>
-0

> <r_epik_Charging_Adjusted_Penalty>
2.82452e-09

> <i_epik_Tot_Q>
0

> <i_epik_Tot_abs_Q>
0

> <r_epik_Metal_State_Penalty>
-0

> <b_epik_Metal_Only>
0

> <s_lp_Force_Field>
OPLS_2005

> <r_lp_Energy>
45.4687

> <b_lp_Chiralities_Consistent>
1

> <s_lp_Variant>
AV-unprocessed.smi:422-1

> <Gold.Version>
5.8.1

> <Gold.Id.Protein>
6NUR|6NUR_protein|mol2

> <Gold.PLP.Fitness>
55.2125

> <Gold.PLP.PLP>
-53.4587

> <Gold.PLP.part.hbond>
-1.0000

> <Gold.PLP.part.metal>
0.0000

> <Gold.PLP.part.buried>
-8.8267

> <Gold.PLP.part.nonpolar>
-43.7517

> <Gold.PLP.part.repulsive>
0.1353

> <Gold.PLP.ligand.clash>
0.0000

> <Gold.PLP.ligand.torsion>
0.6438

> <Gold.PLP.Chemscore.Hbond>
0.9913

> <Gold.PLP.Chemscore.CHOScore>
0.0000

> <Gold.PLP.Chemscore.Metal>
0.0000

> <Gold.Chemscore.Hbonds>
donor molecule, donor type, donor heavy atom, donor atom, acceptor molecule, acceptor atom, score
      P1  H  7997  8008       L1     4  1.00

> <Gold.PLP.Chemscore.Internal.Correction>
0.0676

> <Gold.Rescore>
     Score         DG    S(hbond)    S(metal)    S(lipo)     H(rot)  DE(clash)    DE(int)     intcor
     14.32     -16.85       0.91        0.00     123.22       2.38       0.06       2.47       ----

> <Gold.Chemscore.Fitness>
14.3172

> <Gold.Chemscore.DG>
-16.8485

> <Gold.Chemscore.ZeroCoef>
-5.4800

> <Gold.Chemscore.Hbond>
0.9122

> <Gold.Chemscore.Metal>
0.0000

> <Gold.Chemscore.Lipo>
123.2192

> <Gold.Chemscore.Internal_Hbond>
0.0000

> <Gold.Chemscore.DEClash>
0.0608

> <Gold.Chemscore.DEInternal>
2.4705

> <Gold.Chemscore.Rot>
2.3809

> <Gold.Chemscore.Internal.Correction>
   9.000000E+99

> <Gold.Chemscore.Hbonds>
donor molecule, donor type, donor heavy atom, donor atom, acceptor molecule, acceptor atom, score
      P1  H  7997  8008       L1     4  0.60

> <Gold.Chemscore.Hbond.Weighted>
-3.0469

> <Gold.Chemscore.Metal.Weighted>
-0.0000

> <Gold.Chemscore.Lipo.Weighted>
-14.4166

> <Gold.Chemscore.Internal_Hbond.Weighted>
0.0000

> <Gold.Chemscore.DEClash.Weighted>
0.0608

> <Gold.Chemscore.DEInternal.Weighted>
2.4705

> <Gold.Chemscore.Rot.Weighted>
6.0951

> <Gold.Chemscore.Internal.Correction.Weighted>
   9.000000E+99

> <Gold.Protein.RotatedTorsions>
[ 6907 6896 6895 6894 ] final  131.33 input  -60.11 | X-H torsion
[ 7974 7965 7964 7962 ] final   99.08 input  175.53 | X-H torsion
[ 8008 7997 7996 7995 ] final  -74.31 input   59.86 | X-H torsion
[ 10167 10162 10161 10158 ] final  -64.94 input  -65.29 | X-H torsion
[ 10718 10713 10712 10709 ] final   65.35 input   66.30 | X-H torsion
[ 10763 10752 10751 10750 ] final  140.28 input  -60.55 | X-H torsion
[ 11005 11000 10999 10996 ] final   65.79 input  -57.11 | X-H torsion

> <Gold.Protein.ActiveResidues>
 VAL166  LYS551  ARG553  GLY616  TRP617  ASP618  TYR619  PRO620  LYS621  CYS622 
 ASP623  PHE694  ASN695  SER759  ASP760  ASP761  ALA762  ILE779  LEU786  VAL792 
 PHE793  MET794  SER795  GLU796  ALA797  LYS798  CYS799  TRP800  GLU811  SER814 

> <Gold.Protein.RotatedAtoms>
  152.3437  133.6097  159.5894 H   0  0  0  0  0  0  0  0  0  0  0  0  # atno 6907 bound_to 6896
  150.7494  133.9682  159.3546 H   0  0  0  0  0  0  0  0  0  0  0  0  # atno 6908 bound_to 6896
  151.7543  135.0826  160.0387 H   0  0  0  0  0  0  0  0  0  0  0  0  # atno 6909 bound_to 6896
  145.4036  139.2344  143.3287 H   0  0  0  0  0  0  0  0  0  0  0  0  # atno 7974 bound_to 7965
  154.5320  140.0763  156.8362 H   0  0  0  0  0  0  0  0  0  0  0  0  # atno 8008 bound_to 7997
  155.3355  140.3404  155.4221 H   0  0  0  0  0  0  0  0  0  0  0  0  # atno 8009 bound_to 7997
  156.1791  140.1646  156.8294 H   0  0  0  0  0  0  0  0  0  0  0  0  # atno 8010 bound_to 7997
  140.5765  143.2322  151.6431 H   0  0  0  0  0  0  0  0  0  0  0  0  # atno 10167 bound_to 10162
  157.6100  130.9209  149.9965 H   0  0  0  0  0  0  0  0  0  0  0  0  # atno 10718 bound_to 10713
  153.9201  135.3001  155.3448 H   0  0  0  0  0  0  0  0  0  0  0  0  # atno 10763 bound_to 10752
  154.7580  135.4948  153.9413 H   0  0  0  0  0  0  0  0  0  0  0  0  # atno 10764 bound_to 10752
  153.1146  135.6767  153.9543 H   0  0  0  0  0  0  0  0  0  0  0  0  # atno 10765 bound_to 10752
  139.9872  134.6648  156.0154 H   0  0  0  0  0  0  0  0  0  0  0  0  # atno 11005 bound_to 11000
  146.2740  140.4737  142.8803 LP  0  0  0  0  0  0  0  0  0  0  0  0  # atno 17320 bound_to 7965
  144.8357  140.6778  143.6262 LP  0  0  0  0  0  0  0  0  0  0  0  0  # atno 17321 bound_to 7965
  139.5146  144.3406  152.0743 LP  0  0  0  0  0  0  0  0  0  0  0  0  # atno 17342 bound_to 10162
  140.2551  144.4128  150.6207 LP  0  0  0  0  0  0  0  0  0  0  0  0  # atno 17343 bound_to 10162
  156.1199  130.3646  149.9905 LP  0  0  0  0  0  0  0  0  0  0  0  0  # atno 17370 bound_to 10713
  156.7987  130.9282  151.3646 LP  0  0  0  0  0  0  0  0  0  0  0  0  # atno 17371 bound_to 10713
  141.1535  133.6545  156.4088 LP  0  0  0  0  0  0  0  0  0  0  0  0  # atno 17394 bound_to 11000
  140.4978  134.6514  157.5236 LP  0  0  0  0  0  0  0  0  0  0  0  0  # atno 17395 bound_to 11000

$$$$
