AV-unprocessed.smi:1627|AV-procd|sdf|6518|dock5
  -GOLD-   22720 7193D 1   1.00000     0.00000
 Structure written by MMmdl.
 44 45  0  0  0  0  0  0  0  0  2 V2000
  146.4891  139.0464  151.0948 C   0  0  0  0  0  0  0  0  0  0  0  0
  146.9635  138.4296  152.4190 C   0  0  2  0  0  0  0  0  0  0  0  0
  145.8712  137.6951  152.9652 O   0  0  0  0  0  0  0  0  0  0  0  0
  145.3421  136.6698  152.1302 C   0  0  0  0  0  0  0  0  0  0  0  0
  143.9983  136.1965  152.6972 C   0  0  0  0  0  0  0  0  0  0  0  0
  144.1887  135.6951  153.9169 F   0  0  0  0  0  0  0  0  0  0  0  0
  143.1494  137.2203  152.7827 F   0  0  0  0  0  0  0  0  0  0  0  0
  143.4787  135.2461  151.9205 F   0  0  0  0  0  0  0  0  0  0  0  0
  147.4245  139.5149  153.4057 C   0  0  0  0  0  0  0  0  0  0  0  0
  146.6634  140.4392  153.6877 O   0  0  0  0  0  0  0  0  0  0  0  0
  148.6646  139.3580  153.9066 N   0  0  0  0  0  0  0  0  0  0  0  0
  149.3766  140.1696  154.8333 C   0  0  0  0  0  0  0  0  0  0  0  0
  150.4087  139.5533  155.5748 C   0  0  0  0  0  0  0  0  0  0  0  0
  151.1443  140.3039  156.5146 C   0  0  0  0  0  0  0  0  0  0  0  0
  150.8340  141.6694  156.7039 C   0  0  0  0  0  0  0  0  0  0  0  0
  151.5041  142.4946  157.6164 N   0  0  0  0  0  0  0  0  0  0  0  0
  152.4607  141.7665  158.4461 C   0  0  0  0  0  0  0  0  0  0  0  0
  153.3013  142.7375  159.2937 C   0  0  0  0  0  0  0  0  0  0  0  0
  152.3998  143.6712  160.1173 C   0  0  0  0  0  0  0  0  0  0  0  0
  151.3987  144.3884  159.1976 C   0  0  0  0  0  0  0  0  0  0  0  0
  150.6037  143.3748  158.3568 C   0  0  0  0  0  0  0  0  0  0  0  0
  149.8394  142.2248  155.9790 N   0  3  0  0  0  0  0  0  0  0  0  0
  149.1107  141.5419  155.0693 C   0  0  0  0  0  0  0  0  0  0  0  0
  147.2774  139.6382  150.6283 H   0  0  0  0  0  0  0  0  0  0  0  0
  145.6238  139.6947  151.2391 H   0  0  0  0  0  0  0  0  0  0  0  0
  146.2008  138.2679  150.3882 H   0  0  0  0  0  0  0  0  0  0  0  0
  147.7876  137.7471  152.2017 H   0  0  0  0  0  0  0  0  0  0  0  0
  145.1996  137.0519  151.1182 H   0  0  0  0  0  0  0  0  0  0  0  0
  146.0273  135.8238  152.0663 H   0  0  0  0  0  0  0  0  0  0  0  0
  149.1723  138.5573  153.5589 H   0  0  0  0  0  0  0  0  0  0  0  0
  150.6393  138.5082  155.4268 H   0  0  0  0  0  0  0  0  0  0  0  0
  151.9348  139.8332  157.0813 H   0  0  0  0  0  0  0  0  0  0  0  0
  151.9258  141.0748  159.0985 H   0  0  0  0  0  0  0  0  0  0  0  0
  153.1158  141.1670  157.8126 H   0  0  0  0  0  0  0  0  0  0  0  0
  153.9664  142.1795  159.9534 H   0  0  0  0  0  0  0  0  0  0  0  0
  153.9411  143.3323  158.6401 H   0  0  0  0  0  0  0  0  0  0  0  0
  151.8603  143.0933  160.8686 H   0  0  0  0  0  0  0  0  0  0  0  0
  153.0043  144.3999  160.6586 H   0  0  0  0  0  0  0  0  0  0  0  0
  150.7171  145.0008  159.7887 H   0  0  0  0  0  0  0  0  0  0  0  0
  151.9344  145.0708  158.5365 H   0  0  0  0  0  0  0  0  0  0  0  0
  149.9508  143.9028  157.6603 H   0  0  0  0  0  0  0  0  0  0  0  0
  149.9626  142.7786  159.0076 H   0  0  0  0  0  0  0  0  0  0  0  0
  148.3477  142.1283  154.5819 H   0  0  0  0  0  0  0  0  0  0  0  0
  149.6250  143.2113  156.1278 H   0  0  0  0  0  0  0  0  0  0  0  0
  1  2  1  0  0  0  0
  1 24  1  0  0  0  0
  1 25  1  0  0  0  0
  1 26  1  0  0  0  0
  2  3  1  0  0  0  0
  2  9  1  0  0  0  0
  2 27  1  0  0  0  0
  3  4  1  0  0  0  0
  4  5  1  0  0  0  0
  4 28  1  0  0  0  0
  4 29  1  0  0  0  0
  5  6  1  0  0  0  0
  5  7  1  0  0  0  0
  5  8  1  0  0  0  0
  9 10  2  0  0  0  0
  9 11  1  0  0  0  0
 11 12  1  0  0  0  0
 11 30  1  0  0  0  0
 12 23  1  0  0  0  0
 12 13  2  0  0  0  0
 13 14  1  0  0  0  0
 13 31  1  0  0  0  0
 14 15  2  0  0  0  0
 14 32  1  0  0  0  0
 15 16  1  0  0  0  0
 15 22  1  0  0  0  0
 16 21  1  0  0  0  0
 16 17  1  0  0  0  0
 17 18  1  0  0  0  0
 17 33  1  0  0  0  0
 17 34  1  0  0  0  0
 18 19  1  0  0  0  0
 18 35  1  0  0  0  0
 18 36  1  0  0  0  0
 19 20  1  0  0  0  0
 19 37  1  0  0  0  0
 19 38  1  0  0  0  0
 20 21  1  0  0  0  0
 20 39  1  0  0  0  0
 20 40  1  0  0  0  0
 21 41  1  0  0  0  0
 21 42  1  0  0  0  0
 22 23  2  0  0  0  0
 22 44  1  0  0  0  0
 23 43  1  0  0  0  0
M  CHG  1  22   1
M  END
> <s_m_source_file>
AV-unprocessed.smi

> <i_m_source_file_index>
1627

> <i_lp_mmshare_version>
43012

> <i_f3d_flags>
0

> <s_epik_input>
RkMoRikoRilbQ0gyXU9bQ0BASF0oW0NIM10pQyg9TylbTkhdYzFbY0hdW2NIXWMobltjSF0xKU4yW0NIMl1bQ0gyXVtDSDJdW0NIMl1bQ0gyXTI=

> <s_epik_cmdline>
J2VwaWtfcHl0aG9uJywgJy1waCcsICc3LjAnLCAnLXRuJywgJzgnLCAnLW1hJywgJzIwMCcsICctbWV0YWxfYmluZGluZycsICctaW1hZScsICc8aW5maWxlLm1hZT4nLCAnLW9tYWUnLCAnPG91dGZpbGUubWFlPic=

> <r_lp_tautomer_probability>
0.999994

> <r_epik_Ionization_Penalty>
1.93197

> <r_epik_Ionization_Penalty_Charging>
1.93197

> <r_epik_Ionization_Penalty_Neutral>
3.16684e-06

> <r_epik_State_Penalty>
2.05557

> <r_epik_Charging_Adjusted_Penalty>
3.98754

> <i_epik_Tot_Q>
1

> <i_epik_Tot_abs_Q>
1

> <r_epik_Metal_State_Penalty>
2.08108

> <b_epik_Metal_Only>
0

> <s_lp_Force_Field>
OPLS_2005

> <r_lp_Energy>
33.3851

> <b_lp_Chiralities_Consistent>
1

> <s_lp_Variant>
AV-unprocessed.smi:1627-3

> <Gold.Version>
5.8.1

> <Gold.Id.Protein>
6NUR|6NUR_protein|mol2

> <Gold.PLP.Fitness>
46.1179

> <Gold.PLP.PLP>
-40.9499

> <Gold.PLP.part.hbond>
-2.0000

> <Gold.PLP.part.metal>
0.0000

> <Gold.PLP.part.buried>
-0.2033

> <Gold.PLP.part.nonpolar>
-39.7600

> <Gold.PLP.part.repulsive>
0.6249

> <Gold.PLP.ligand.clash>
0.0151

> <Gold.PLP.ligand.torsion>
0.5079

> <Gold.PLP.Chemscore.Hbond>
2.0000

> <Gold.PLP.Chemscore.CHOScore>
0.0000

> <Gold.PLP.Chemscore.Metal>
0.0000

> <Gold.Chemscore.Hbonds>
donor molecule, donor type, donor heavy atom, donor atom, acceptor molecule, acceptor atom, score
      L1  H    22    44       P1  8028  2.00

> <Gold.PLP.Chemscore.Internal.Correction>
0.1988

> <Gold.Rescore>
     Score         DG    S(hbond)    S(metal)    S(lipo)     H(rot)  DE(clash)    DE(int)     intcor
     14.22     -16.31       0.92        0.00     107.87       1.90       0.52       1.57       ----

> <Gold.Chemscore.Fitness>
14.2236

> <Gold.Chemscore.DG>
-16.3144

> <Gold.Chemscore.ZeroCoef>
-5.4800

> <Gold.Chemscore.Hbond>
0.9221

> <Gold.Chemscore.Metal>
0.0000

> <Gold.Chemscore.Lipo>
107.8672

> <Gold.Chemscore.Internal_Hbond>
0.0000

> <Gold.Chemscore.DEClash>
0.5209

> <Gold.Chemscore.DEInternal>
1.5698

> <Gold.Chemscore.Rot>
1.9007

> <Gold.Chemscore.Internal.Correction>
   9.000000E+99

> <Gold.Chemscore.Hbonds>
donor molecule, donor type, donor heavy atom, donor atom, acceptor molecule, acceptor atom, score
      L1  H    22    44       P1  8028  0.97

> <Gold.Chemscore.Hbond.Weighted>
-3.0797

> <Gold.Chemscore.Metal.Weighted>
-0.0000

> <Gold.Chemscore.Lipo.Weighted>
-12.6205

> <Gold.Chemscore.Internal_Hbond.Weighted>
0.0000

> <Gold.Chemscore.DEClash.Weighted>
0.5209

> <Gold.Chemscore.DEInternal.Weighted>
1.5698

> <Gold.Chemscore.Rot.Weighted>
4.8657

> <Gold.Chemscore.Internal.Correction.Weighted>
   9.000000E+99

> <Gold.Protein.RotatedTorsions>
[ 6907 6896 6895 6894 ] final   39.12 input  -60.11 | X-H torsion
[ 7974 7965 7964 7962 ] final -168.10 input  175.53 | X-H torsion
[ 8008 7997 7996 7995 ] final    5.58 input   59.86 | X-H torsion
[ 10167 10162 10161 10158 ] final  178.70 input  -65.29 | X-H torsion
[ 10718 10713 10712 10709 ] final -174.55 input   66.30 | X-H torsion
[ 10763 10752 10751 10750 ] final   62.64 input  -60.55 | X-H torsion
[ 11005 11000 10999 10996 ] final   98.51 input  -57.11 | X-H torsion

> <Gold.Protein.ActiveResidues>
 VAL166  LYS551  ARG553  GLY616  TRP617  ASP618  TYR619  PRO620  LYS621  CYS622 
 ASP623  PHE694  ASN695  SER759  ASP760  ASP761  ALA762  ILE779  LEU786  VAL792 
 PHE793  MET794  SER795  GLU796  ALA797  LYS798  CYS799  TRP800  GLU811  SER814 

> <Gold.Protein.RotatedAtoms>
  152.1654  134.8878  160.0538 H   0  0  0  0  0  0  0  0  0  0  0  0  # atno 6907 bound_to 6896
  151.9858  133.3768  159.4133 H   0  0  0  0  0  0  0  0  0  0  0  0  # atno 6908 bound_to 6896
  150.6894  134.3912  159.5121 H   0  0  0  0  0  0  0  0  0  0  0  0  # atno 6909 bound_to 6896
  144.7209  140.2420  143.6290 H   0  0  0  0  0  0  0  0  0  0  0  0  # atno 7974 bound_to 7965
  154.7302  140.2729  155.6463 H   0  0  0  0  0  0  0  0  0  0  0  0  # atno 8008 bound_to 7997
  156.2847  140.2717  156.1925 H   0  0  0  0  0  0  0  0  0  0  0  0  # atno 8009 bound_to 7997
  155.0392  140.0371  157.2493 H   0  0  0  0  0  0  0  0  0  0  0  0  # atno 8010 bound_to 7997
  139.5305  144.2648  152.0677 H   0  0  0  0  0  0  0  0  0  0  0  0  # atno 10167 bound_to 10162
  156.7868  130.9503  151.3120 H   0  0  0  0  0  0  0  0  0  0  0  0  # atno 10718 bound_to 10713
  152.9990  135.5457  154.6226 H   0  0  0  0  0  0  0  0  0  0  0  0  # atno 10763 bound_to 10752
  154.5522  135.2827  155.1000 H   0  0  0  0  0  0  0  0  0  0  0  0  # atno 10764 bound_to 10752
  154.2236  135.6446  153.5205 H   0  0  0  0  0  0  0  0  0  0  0  0  # atno 10765 bound_to 10752
  139.8772  134.9052  156.4466 H   0  0  0  0  0  0  0  0  0  0  0  0  # atno 11005 bound_to 11000
  145.8310  139.2086  143.1882 LP  0  0  0  0  0  0  0  0  0  0  0  0  # atno 17320 bound_to 7965
  146.0430  140.8145  142.9819 LP  0  0  0  0  0  0  0  0  0  0  0  0  # atno 17321 bound_to 7965
  140.2111  144.4562  150.6385 LP  0  0  0  0  0  0  0  0  0  0  0  0  # atno 17342 bound_to 10162
  140.6480  143.2218  151.6143 LP  0  0  0  0  0  0  0  0  0  0  0  0  # atno 17343 bound_to 10162
  157.6620  130.8974  149.9850 LP  0  0  0  0  0  0  0  0  0  0  0  0  # atno 17370 bound_to 10713
  156.1183  130.3647  149.9930 LP  0  0  0  0  0  0  0  0  0  0  0  0  # atno 17371 bound_to 10713
  140.8961  133.7813  155.9627 LP  0  0  0  0  0  0  0  0  0  0  0  0  # atno 17394 bound_to 11000
  140.8701  134.2737  157.5195 LP  0  0  0  0  0  0  0  0  0  0  0  0  # atno 17395 bound_to 11000

$$$$
