AV-unprocessed.smi:1286|AV-procd|sdf|5375|dock7
  -GOLD-   22720 4523D 1   1.00000     0.00000
 Structure written by MMmdl.
 36 37  0  0  0  0  0  0  0  0  1 V2000
  151.7589  138.7831  154.7160 C   0  0  0  0  0  0  0  0  0  0  0  0
  150.4195  139.2600  155.2937 C   0  0  2  0  0  0  0  0  0  0  0  0
  149.3264  139.3232  154.2067 C   0  0  0  0  0  0  0  0  0  0  0  0
  148.3600  140.3825  154.4397 N   0  0  0  0  0  0  0  0  0  0  0  0
  147.9862  141.4018  153.5891 C   0  0  0  0  0  0  0  0  0  0  0  0
  147.0513  142.1531  154.2413 C   0  0  0  0  0  0  0  0  0  0  0  0
  146.9164  141.5050  155.5009 C   0  0  0  0  0  0  0  0  0  0  0  0
  147.6960  140.4420  155.6141 N   0  0  0  0  0  0  0  0  0  0  0  0
  150.6014  140.5753  155.9068 N   0  0  0  0  0  0  0  0  0  0  0  0
  151.5795  140.9168  156.7608 C   0  0  0  0  0  0  0  0  0  0  0  0
  152.4914  140.1579  157.0891 O   0  0  0  0  0  0  0  0  0  0  0  0
  151.5038  142.3331  157.3437 C   0  0  0  0  0  0  0  0  0  0  0  0
  151.4203  142.3737  158.8865 C   0  0  2  0  0  0  0  0  0  0  0  0
  151.5973  143.7552  159.4696 C   0  0  0  0  0  0  0  0  0  0  0  0
  152.5566  143.8080  160.3903 C   0  0  0  0  0  0  0  0  0  0  0  0
  153.2156  142.4751  160.6109 C   0  0  0  0  0  0  0  0  0  0  0  0
  152.5352  141.5477  159.5788 C   0  0  0  0  0  0  0  0  0  0  0  0
  151.6618  137.7936  154.2684 H   0  0  0  0  0  0  0  0  0  0  0  0
  152.5211  138.7185  155.4932 H   0  0  0  0  0  0  0  0  0  0  0  0
  152.1247  139.4623  153.9450 H   0  0  0  0  0  0  0  0  0  0  0  0
  150.1149  138.5295  156.0453 H   0  0  0  0  0  0  0  0  0  0  0  0
  149.7754  139.4726  153.2236 H   0  0  0  0  0  0  0  0  0  0  0  0
  148.7861  138.3766  154.1607 H   0  0  0  0  0  0  0  0  0  0  0  0
  148.4149  141.5088  152.6036 H   0  0  0  0  0  0  0  0  0  0  0  0
  146.5442  143.0336  153.8760 H   0  0  0  0  0  0  0  0  0  0  0  0
  146.2781  141.7721  156.3300 H   0  0  0  0  0  0  0  0  0  0  0  0
  149.9021  141.2717  155.6944 H   0  0  0  0  0  0  0  0  0  0  0  0
  152.3841  142.8836  157.0102 H   0  0  0  0  0  0  0  0  0  0  0  0
  150.6396  142.8475  156.9200 H   0  0  0  0  0  0  0  0  0  0  0  0
  150.4465  142.0043  159.2113 H   0  0  0  0  0  0  0  0  0  0  0  0
  150.9832  144.5908  159.1684 H   0  0  0  0  0  0  0  0  0  0  0  0
  152.8420  144.6911  160.9428 H   0  0  0  0  0  0  0  0  0  0  0  0
  154.2910  142.5468  160.4462 H   0  0  0  0  0  0  0  0  0  0  0  0
  153.0400  142.1386  161.6333 H   0  0  0  0  0  0  0  0  0  0  0  0
  152.1233  140.6598  160.0595 H   0  0  0  0  0  0  0  0  0  0  0  0
  153.2731  141.2009  158.8545 H   0  0  0  0  0  0  0  0  0  0  0  0
  1  2  1  0  0  0  0
  1 18  1  0  0  0  0
  1 19  1  0  0  0  0
  1 20  1  0  0  0  0
  2  3  1  0  0  0  0
  2  9  1  0  0  0  0
  2 21  1  0  0  0  0
  3  4  1  0  0  0  0
  3 22  1  0  0  0  0
  3 23  1  0  0  0  0
  4  8  1  0  0  0  0
  4  5  1  0  0  0  0
  5  6  2  0  0  0  0
  5 24  1  0  0  0  0
  6  7  1  0  0  0  0
  6 25  1  0  0  0  0
  7  8  2  0  0  0  0
  7 26  1  0  0  0  0
  9 10  1  0  0  0  0
  9 27  1  0  0  0  0
 10 11  2  0  0  0  0
 10 12  1  0  0  0  0
 12 13  1  0  0  0  0
 12 28  1  0  0  0  0
 12 29  1  0  0  0  0
 13 17  1  0  0  0  0
 13 14  1  0  0  0  0
 13 30  1  0  0  0  0
 14 15  2  0  0  0  0
 14 31  1  0  0  0  0
 15 16  1  0  0  0  0
 15 32  1  0  0  0  0
 16 17  1  0  0  0  0
 16 33  1  0  0  0  0
 16 34  1  0  0  0  0
 17 35  1  0  0  0  0
 17 36  1  0  0  0  0
M  END
> <s_m_source_file>
AV-unprocessed.smi

> <i_m_source_file_index>
1286

> <i_lp_mmshare_version>
43012

> <i_f3d_flags>
0

> <s_epik_input>
bjFbY0hdW2NIXVtjSF1uMVtDSDJdW0NAQEhdKFtDSDNdKVtOSF1DKD1PKVtDSDJdW0NAQEhdMltDSF09W0NIXVtDSDJdW0NIMl0y

> <s_epik_cmdline>
J2VwaWtfcHl0aG9uJywgJy1waCcsICc3LjAnLCAnLXRuJywgJzgnLCAnLW1hJywgJzIwMCcsICctbWV0YWxfYmluZGluZycsICctaW1hZScsICc8aW5maWxlLm1hZT4nLCAnLW9tYWUnLCAnPG91dGZpbGUubWFlPic=

> <r_lp_tautomer_probability>
1

> <r_epik_Ionization_Penalty>
0.000301761

> <r_epik_Ionization_Penalty_Charging>
0

> <r_epik_Ionization_Penalty_Neutral>
0.000301761

> <r_epik_State_Penalty>
-0

> <r_epik_Charging_Adjusted_Penalty>
0

> <i_epik_Tot_Q>
0

> <i_epik_Tot_abs_Q>
0

> <r_epik_Metal_State_Penalty>
-0

> <b_epik_Metal_Only>
0

> <s_lp_Force_Field>
OPLS_2005

> <r_lp_Energy>
16.2222

> <b_lp_Chiralities_Consistent>
1

> <s_lp_Variant>
AV-unprocessed.smi:1286-1

> <Gold.Version>
5.8.1

> <Gold.Id.Protein>
6NUR|6NUR_protein|mol2

> <Gold.PLP.Fitness>
41.3991

> <Gold.PLP.PLP>
-36.5783

> <Gold.PLP.part.hbond>
-1.0000

> <Gold.PLP.part.metal>
0.0000

> <Gold.PLP.part.buried>
-2.2486

> <Gold.PLP.part.nonpolar>
-31.1613

> <Gold.PLP.part.repulsive>
0.1350

> <Gold.PLP.ligand.clash>
0.0000

> <Gold.PLP.ligand.torsion>
0.6037

> <Gold.PLP.Chemscore.Hbond>
1.0000

> <Gold.PLP.Chemscore.CHOScore>
1.0000

> <Gold.PLP.Chemscore.Metal>
0.0000

> <Gold.Chemscore.Hbonds>
donor molecule, donor type, donor heavy atom, donor atom, acceptor molecule, acceptor atom, score
      P1  H  7997  8009       L1    11  1.00
      L1  C     5    24       P1  7957  1.00

> <Gold.PLP.Chemscore.Internal.Correction>
0.0282

> <Gold.Rescore>
     Score         DG    S(hbond)    S(metal)    S(lipo)     H(rot)  DE(clash)    DE(int)     intcor
     13.19     -16.41       0.94        0.00     102.40       1.64       0.22       3.00       ----

> <Gold.Chemscore.Fitness>
13.1885

> <Gold.Chemscore.DG>
-16.4148

> <Gold.Chemscore.ZeroCoef>
-5.4800

> <Gold.Chemscore.Hbond>
0.9435

> <Gold.Chemscore.Metal>
0.0000

> <Gold.Chemscore.Lipo>
102.3957

> <Gold.Chemscore.Internal_Hbond>
0.0000

> <Gold.Chemscore.DEClash>
0.2234

> <Gold.Chemscore.DEInternal>
3.0029

> <Gold.Chemscore.Rot>
1.6394

> <Gold.Chemscore.Internal.Correction>
   9.000000E+99

> <Gold.Chemscore.Hbonds>
donor molecule, donor type, donor heavy atom, donor atom, acceptor molecule, acceptor atom, score
      P1  H  7997  8009       L1    11  0.96

> <Gold.Chemscore.Hbond.Weighted>
-3.1514

> <Gold.Chemscore.Metal.Weighted>
-0.0000

> <Gold.Chemscore.Lipo.Weighted>
-11.9803

> <Gold.Chemscore.Internal_Hbond.Weighted>
0.0000

> <Gold.Chemscore.DEClash.Weighted>
0.2234

> <Gold.Chemscore.DEInternal.Weighted>
3.0029

> <Gold.Chemscore.Rot.Weighted>
4.1969

> <Gold.Chemscore.Internal.Correction.Weighted>
   9.000000E+99

> <Gold.Protein.RotatedTorsions>
[ 6907 6896 6895 6894 ] final  132.07 input  -60.11 | X-H torsion
[ 7974 7965 7964 7962 ] final  170.53 input  175.53 | X-H torsion
[ 8008 7997 7996 7995 ] final -172.96 input   59.86 | X-H torsion
[ 10167 10162 10161 10158 ] final  149.85 input  -65.29 | X-H torsion
[ 10718 10713 10712 10709 ] final  -92.25 input   66.30 | X-H torsion
[ 10763 10752 10751 10750 ] final -168.83 input  -60.55 | X-H torsion
[ 11005 11000 10999 10996 ] final  135.49 input  -57.11 | X-H torsion

> <Gold.Protein.ActiveResidues>
 VAL166  LYS551  ARG553  GLY616  TRP617  ASP618  TYR619  PRO620  LYS621  CYS622 
 ASP623  PHE694  ASN695  SER759  ASP760  ASP761  ALA762  ILE779  LEU786  VAL792 
 PHE793  MET794  SER795  GLU796  ALA797  LYS798  CYS799  TRP800  GLU811  SER814 

> <Gold.Protein.RotatedAtoms>
  152.3362  133.6014  159.5843 H   0  0  0  0  0  0  0  0  0  0  0  0  # atno 6907 bound_to 6896
  150.7451  133.9793  159.3580 H   0  0  0  0  0  0  0  0  0  0  0  0  # atno 6908 bound_to 6896
  151.7662  135.0798  160.0404 H   0  0  0  0  0  0  0  0  0  0  0  0  # atno 6909 bound_to 6896
  144.7321  139.9216  143.6420 H   0  0  0  0  0  0  0  0  0  0  0  0  # atno 7974 bound_to 7965
  155.9513  140.1127  157.0974 H   0  0  0  0  0  0  0  0  0  0  0  0  # atno 8008 bound_to 7997
  154.4110  140.1200  156.5123 H   0  0  0  0  0  0  0  0  0  0  0  0  # atno 8009 bound_to 7997
  155.6838  140.3473  155.4868 H   0  0  0  0  0  0  0  0  0  0  0  0  # atno 8010 bound_to 7997
  139.4856  144.5569  151.7302 H   0  0  0  0  0  0  0  0  0  0  0  0  # atno 10167 bound_to 10162
  156.0000  130.4980  150.5597 H   0  0  0  0  0  0  0  0  0  0  0  0  # atno 10718 bound_to 10713
  154.6587  135.2922  154.9894 H   0  0  0  0  0  0  0  0  0  0  0  0  # atno 10763 bound_to 10752
  154.0961  135.6583  153.4864 H   0  0  0  0  0  0  0  0  0  0  0  0  # atno 10764 bound_to 10752
  153.0417  135.5231  154.7528 H   0  0  0  0  0  0  0  0  0  0  0  0  # atno 10765 bound_to 10752
  139.9983  134.9488  157.0015 H   0  0  0  0  0  0  0  0  0  0  0  0  # atno 11005 bound_to 11000
  146.0925  139.3916  143.0397 LP  0  0  0  0  0  0  0  0  0  0  0  0  # atno 17320 bound_to 7965
  145.7691  140.9904  143.1159 LP  0  0  0  0  0  0  0  0  0  0  0  0  # atno 17321 bound_to 7965
  140.5132  144.0994  150.6001 LP  0  0  0  0  0  0  0  0  0  0  0  0  # atno 17342 bound_to 10162
  140.3926  143.2744  152.0042 LP  0  0  0  0  0  0  0  0  0  0  0  0  # atno 17343 bound_to 10162
  157.3508  131.0733  151.1714 LP  0  0  0  0  0  0  0  0  0  0  0  0  # atno 17370 bound_to 10713
  157.2531  130.6623  149.5940 LP  0  0  0  0  0  0  0  0  0  0  0  0  # atno 17371 bound_to 10713
  140.4775  134.1323  155.7212 LP  0  0  0  0  0  0  0  0  0  0  0  0  # atno 17394 bound_to 11000
  141.1622  133.8771  157.1816 LP  0  0  0  0  0  0  0  0  0  0  0  0  # atno 17395 bound_to 11000

$$$$
