AV-unprocessed.smi:1338|AV-procd|sdf|5500|dock1
  -GOLD-   22720 5 83D 1   1.00000     0.00000
 Structure written by MMmdl.
 40 41  0  0  0  0  0  0  0  0  1 V2000
  146.7025  139.0125  151.9523 C   0  0  0  0  0  0  0  0  0  0  0  0
  147.7778  139.5026  152.8975 C   0  0  0  0  0  0  0  0  0  0  0  0
  148.7445  138.5524  153.1821 N   0  0  0  0  0  0  0  0  0  0  0  0
  149.7755  138.9120  154.0320 C   0  0  0  0  0  0  0  0  0  0  0  0
  150.7955  137.8151  154.2845 C   0  0  0  0  0  0  0  0  0  0  0  0
  149.8363  140.1538  154.5768 C   0  0  0  0  0  0  0  0  0  0  0  0
  150.9570  140.5895  155.5188 C   0  0  0  0  0  0  0  0  0  0  0  0
  150.5078  141.4106  156.7287 C   0  0  0  0  0  0  0  0  0  0  0  0
  149.3190  141.4367  157.0461 O   0  0  0  0  0  0  0  0  0  0  0  0
  151.4669  142.0681  157.3988 N   0  0  0  0  0  0  0  0  0  0  0  0
  151.2556  142.8859  158.5892 C   0  0  0  0  0  0  0  0  0  0  0  0
  151.3681  144.3856  158.2456 C   0  0  0  0  0  0  0  0  0  0  0  0
  151.2237  145.2617  159.5006 C   0  0  0  0  0  0  0  0  0  0  0  0
  152.2441  144.8648  160.5791 C   0  0  0  0  0  0  0  0  0  0  0  0
  152.1310  143.3723  160.9273 C   0  0  0  0  0  0  0  0  0  0  0  0
  152.2776  142.4946  159.6734 C   0  0  0  0  0  0  0  0  0  0  0  0
  148.7653  141.1235  154.2449 C   0  0  0  0  0  0  0  0  0  0  0  0
  148.7535  142.2585  154.7193 O   0  0  0  0  0  0  0  0  0  0  0  0
  147.7476  140.7118  153.3691 N   0  0  0  0  0  0  0  0  0  0  0  0
  148.7369  137.6180  152.7992 H   0  0  0  0  0  0  0  0  0  0  0  0
  146.0240  139.8220  151.6804 H   0  0  0  0  0  0  0  0  0  0  0  0
  146.1181  138.2205  152.4213 H   0  0  0  0  0  0  0  0  0  0  0  0
  147.1477  138.6209  151.0370 H   0  0  0  0  0  0  0  0  0  0  0  0
  151.7867  138.1326  153.9602 H   0  0  0  0  0  0  0  0  0  0  0  0
  150.5453  136.9016  153.7435 H   0  0  0  0  0  0  0  0  0  0  0  0
  150.8395  137.5718  155.3463 H   0  0  0  0  0  0  0  0  0  0  0  0
  151.7123  141.1629  154.9803 H   0  0  0  0  0  0  0  0  0  0  0  0
  151.4848  139.6995  155.8633 H   0  0  0  0  0  0  0  0  0  0  0  0
  152.4162  141.9895  157.0640 H   0  0  0  0  0  0  0  0  0  0  0  0
  150.2566  142.6893  158.9835 H   0  0  0  0  0  0  0  0  0  0  0  0
  152.3317  144.5858  157.7745 H   0  0  0  0  0  0  0  0  0  0  0  0
  150.6054  144.6643  157.5175 H   0  0  0  0  0  0  0  0  0  0  0  0
  151.3505  146.3121  159.2372 H   0  0  0  0  0  0  0  0  0  0  0  0
  150.2135  145.1628  159.8997 H   0  0  0  0  0  0  0  0  0  0  0  0
  153.2527  145.0826  160.2256 H   0  0  0  0  0  0  0  0  0  0  0  0
  152.0926  145.4683  161.4744 H   0  0  0  0  0  0  0  0  0  0  0  0
  152.8918  143.1030  161.6604 H   0  0  0  0  0  0  0  0  0  0  0  0
  151.1660  143.1788  161.3976 H   0  0  0  0  0  0  0  0  0  0  0  0
  152.1528  141.4453  159.9441 H   0  0  0  0  0  0  0  0  0  0  0  0
  153.2905  142.5942  159.2808 H   0  0  0  0  0  0  0  0  0  0  0  0
  1 21  1  0  0  0  0
  1 22  1  0  0  0  0
  1 23  1  0  0  0  0
  1  2  1  0  0  0  0
  2  3  1  0  0  0  0
  2 19  2  0  0  0  0
  3  4  1  0  0  0  0
  3 20  1  0  0  0  0
  4  6  2  0  0  0  0
  4  5  1  0  0  0  0
  5 24  1  0  0  0  0
  5 25  1  0  0  0  0
  5 26  1  0  0  0  0
  6 17  1  0  0  0  0
  6  7  1  0  0  0  0
  7  8  1  0  0  0  0
  7 27  1  0  0  0  0
  7 28  1  0  0  0  0
  8  9  2  0  0  0  0
  8 10  1  0  0  0  0
 10 11  1  0  0  0  0
 10 29  1  0  0  0  0
 11 16  1  0  0  0  0
 11 12  1  0  0  0  0
 11 30  1  0  0  0  0
 12 13  1  0  0  0  0
 12 31  1  0  0  0  0
 12 32  1  0  0  0  0
 13 14  1  0  0  0  0
 13 33  1  0  0  0  0
 13 34  1  0  0  0  0
 14 15  1  0  0  0  0
 14 35  1  0  0  0  0
 14 36  1  0  0  0  0
 15 16  1  0  0  0  0
 15 37  1  0  0  0  0
 15 38  1  0  0  0  0
 16 39  1  0  0  0  0
 16 40  1  0  0  0  0
 17 18  2  0  0  0  0
 17 19  1  0  0  0  0
M  END
> <s_m_source_file>
AV-unprocessed.smi

> <i_m_source_file_index>
1338

> <i_lp_mmshare_version>
43012

> <i_f3d_flags>
0

> <s_epik_input>
W0NIM11jMW5jKFtDSDNdKWMoYyg9TylbbkhdMSlbQ0gyXUMoPU8pW05IXVtDSF0yW0NIMl1bQ0gyXVtDSDJdW0NIMl1bQ0gyXTI=

> <s_epik_cmdline>
J2VwaWtfcHl0aG9uJywgJy1waCcsICc3LjAnLCAnLXRuJywgJzgnLCAnLW1hJywgJzIwMCcsICctbWV0YWxfYmluZGluZycsICctaW1hZScsICc8aW5maWxlLm1hZT4nLCAnLW9tYWUnLCAnPG91dGZpbGUubWFlPic=

> <r_lp_tautomer_probability>
0.156392

> <r_epik_Ionization_Penalty>
0.0136832

> <r_epik_Ionization_Penalty_Charging>
0.0135532

> <r_epik_Ionization_Penalty_Neutral>
0.000130025

> <r_epik_State_Penalty>
1.15342

> <r_epik_Charging_Adjusted_Penalty>
1.16697

> <i_epik_Tot_Q>
0

> <i_epik_Tot_abs_Q>
0

> <r_epik_Metal_State_Penalty>
1.31441

> <b_epik_Metal_Only>
0

> <s_lp_Force_Field>
OPLS_2005

> <r_lp_Energy>
13.63

> <b_lp_Chiralities_Consistent>
1

> <s_lp_Variant>
AV-unprocessed.smi:1338-2

> <Gold.Version>
5.8.1

> <Gold.Id.Protein>
6NUR|6NUR_protein|mol2

> <Gold.PLP.Fitness>
43.3247

> <Gold.PLP.PLP>
-41.4676

> <Gold.PLP.part.hbond>
-2.1862

> <Gold.PLP.part.metal>
0.0000

> <Gold.PLP.part.buried>
-2.3648

> <Gold.PLP.part.nonpolar>
-39.7025

> <Gold.PLP.part.repulsive>
3.2473

> <Gold.PLP.ligand.clash>
0.0000

> <Gold.PLP.ligand.torsion>
0.5773

> <Gold.PLP.Chemscore.Hbond>
1.0000

> <Gold.PLP.Chemscore.CHOScore>
0.0000

> <Gold.PLP.Chemscore.Metal>
0.0000

> <Gold.Chemscore.Hbonds>
donor molecule, donor type, donor heavy atom, donor atom, acceptor molecule, acceptor atom, score
      L1  H     3    20       P1  7948  1.00

> <Gold.PLP.Chemscore.Internal.Correction>
0.0118

> <Gold.Rescore>
     Score         DG    S(hbond)    S(metal)    S(lipo)     H(rot)  DE(clash)    DE(int)     intcor
      9.76     -16.65       0.97        0.00     100.46       1.49       1.51       5.38       ----

> <Gold.Chemscore.Fitness>
9.7561

> <Gold.Chemscore.DG>
-16.6454

> <Gold.Chemscore.ZeroCoef>
-5.4800

> <Gold.Chemscore.Hbond>
0.9693

> <Gold.Chemscore.Metal>
0.0000

> <Gold.Chemscore.Lipo>
100.4557

> <Gold.Chemscore.Internal_Hbond>
0.0000

> <Gold.Chemscore.DEClash>
1.5076

> <Gold.Chemscore.DEInternal>
5.3817

> <Gold.Chemscore.Rot>
1.4942

> <Gold.Chemscore.Internal.Correction>
   9.000000E+99

> <Gold.Chemscore.Hbonds>
donor molecule, donor type, donor heavy atom, donor atom, acceptor molecule, acceptor atom, score
      L1  H     3    20       P1  7948  1.00

> <Gold.Chemscore.Hbond.Weighted>
-3.2373

> <Gold.Chemscore.Metal.Weighted>
-0.0000

> <Gold.Chemscore.Lipo.Weighted>
-11.7533

> <Gold.Chemscore.Internal_Hbond.Weighted>
0.0000

> <Gold.Chemscore.DEClash.Weighted>
1.5076

> <Gold.Chemscore.DEInternal.Weighted>
5.3817

> <Gold.Chemscore.Rot.Weighted>
3.8253

> <Gold.Chemscore.Internal.Correction.Weighted>
   9.000000E+99

> <Gold.Protein.RotatedTorsions>
[ 6907 6896 6895 6894 ] final -131.93 input  -60.11 | X-H torsion
[ 7974 7965 7964 7962 ] final   91.20 input  175.53 | X-H torsion
[ 8008 7997 7996 7995 ] final -129.82 input   59.86 | X-H torsion
[ 10167 10162 10161 10158 ] final  161.99 input  -65.29 | X-H torsion
[ 10718 10713 10712 10709 ] final  -39.67 input   66.30 | X-H torsion
[ 10763 10752 10751 10750 ] final   31.74 input  -60.55 | X-H torsion
[ 11005 11000 10999 10996 ] final   83.79 input  -57.11 | X-H torsion

> <Gold.Protein.ActiveResidues>
 VAL166  LYS551  ARG553  GLY616  TRP617  ASP618  TYR619  PRO620  LYS621  CYS622 
 ASP623  PHE694  ASN695  SER759  ASP760  ASP761  ALA762  ILE779  LEU786  VAL792 
 PHE793  MET794  SER795  GLU796  ALA797  LYS798  CYS799  TRP800  GLU811  SER814 

> <Gold.Protein.RotatedAtoms>
  150.9566  133.6490  159.2761 H   0  0  0  0  0  0  0  0  0  0  0  0  # atno 6907 bound_to 6896
  151.3828  135.0941  159.9511 H   0  0  0  0  0  0  0  0  0  0  0  0  # atno 6908 bound_to 6896
  152.5131  133.9097  159.7536 H   0  0  0  0  0  0  0  0  0  0  0  0  # atno 6909 bound_to 6896
  145.5088  139.2276  143.2736 H   0  0  0  0  0  0  0  0  0  0  0  0  # atno 7974 bound_to 7965
  155.2855  140.0446  157.3019 H   0  0  0  0  0  0  0  0  0  0  0  0  # atno 8008 bound_to 7997
  154.5572  140.2335  155.8360 H   0  0  0  0  0  0  0  0  0  0  0  0  # atno 8009 bound_to 7997
  156.2017  140.3024  155.9548 H   0  0  0  0  0  0  0  0  0  0  0  0  # atno 8010 bound_to 7997
  139.4855  144.4482  151.8865 H   0  0  0  0  0  0  0  0  0  0  0  0  # atno 10167 bound_to 10162
  156.2899  130.4227  149.8249 H   0  0  0  0  0  0  0  0  0  0  0  0  # atno 10718 bound_to 10713
  153.0299  135.6431  154.1247 H   0  0  0  0  0  0  0  0  0  0  0  0  # atno 10763 bound_to 10752
  154.0970  135.2862  155.3261 H   0  0  0  0  0  0  0  0  0  0  0  0  # atno 10764 bound_to 10752
  154.6425  135.5454  153.7869 H   0  0  0  0  0  0  0  0  0  0  0  0  # atno 10765 bound_to 10752
  139.9020  134.8170  156.2357 H   0  0  0  0  0  0  0  0  0  0  0  0  # atno 11005 bound_to 11000
  146.2180  140.5893  142.9030 LP  0  0  0  0  0  0  0  0  0  0  0  0  # atno 17320 bound_to 7965
  144.7739  140.5697  143.6651 LP  0  0  0  0  0  0  0  0  0  0  0  0  # atno 17321 bound_to 7965
  140.3937  144.2583  150.5898 LP  0  0  0  0  0  0  0  0  0  0  0  0  # atno 17342 bound_to 10162
  140.5122  143.2287  151.8518 LP  0  0  0  0  0  0  0  0  0  0  0  0  # atno 17343 bound_to 10162
  156.5666  130.8406  151.3344 LP  0  0  0  0  0  0  0  0  0  0  0  0  # atno 17370 bound_to 10713
  157.7339  130.9738  150.2003 LP  0  0  0  0  0  0  0  0  0  0  0  0  # atno 17371 bound_to 10713
  141.0317  133.6985  156.1441 LP  0  0  0  0  0  0  0  0  0  0  0  0  # atno 17394 bound_to 11000
  140.7087  134.4485  157.5583 LP  0  0  0  0  0  0  0  0  0  0  0  0  # atno 17395 bound_to 11000

$$$$
