AV-unprocessed.smi:916|AV-procd|sdf|4160|dock7
  -GOLD-   22720 2 63D 1   1.00000     0.00000
 Structure written by MMmdl.
 43 44  0  0  0  0  0  0  0  0  1 V2000
  144.1159  132.5543  149.8120 C   0  0  0  0  0  0  0  0  0  0  0  0
  143.5178  132.6579  151.2196 C   0  0  0  0  0  0  0  0  0  0  0  0
  143.8997  133.9331  151.9078 C   0  0  0  0  0  0  0  0  0  0  0  0
  143.0485  134.9001  152.3849 C   0  0  0  0  0  0  0  0  0  0  0  0
  143.9105  136.2233  153.1236 S   0  0  0  0  0  0  0  0  0  0  0  0
  145.4162  135.3978  152.7537 C   0  0  0  0  0  0  0  0  0  0  0  0
  146.6782  135.9385  153.1140 N   0  0  0  0  0  0  0  0  0  0  0  0
  146.9570  136.8072  154.1016 C   0  0  0  0  0  0  0  0  0  0  0  0
  146.1434  137.2480  154.9143 O   0  0  0  0  0  0  0  0  0  0  0  0
  148.2538  137.1480  154.0965 N   0  0  0  0  0  0  0  0  0  0  0  0
  148.8739  138.0932  155.0197 C   0  0  0  0  0  0  0  0  0  0  0  0
  149.9946  138.9264  154.3471 C   0  0  2  0  0  0  0  0  0  0  0  0
  151.2607  138.1155  154.1061 C   0  0  0  0  0  0  0  0  0  0  0  0
  152.0466  138.2799  155.4095 C   0  0  0  0  0  0  0  0  0  0  0  0
  151.4333  139.3601  156.1076 O   0  0  0  0  0  0  0  0  0  0  0  0
  150.5654  140.0551  155.2224 C   0  0  2  0  0  0  0  0  0  0  0  0
  149.5577  140.9416  155.9889 C   0  0  0  0  0  0  0  0  0  0  0  0
  148.5742  141.6406  155.0343 C   0  0  0  0  0  0  0  0  0  0  0  0
  150.2860  141.9870  156.8491 C   0  0  0  0  0  0  0  0  0  0  0  0
  145.2488  134.2306  152.1222 N   0  0  0  0  0  0  0  0  0  0  0  0
  143.8233  131.6197  149.3333 H   0  0  0  0  0  0  0  0  0  0  0  0
  145.2052  132.5860  149.8446 H   0  0  0  0  0  0  0  0  0  0  0  0
  143.7754  133.3735  149.1776 H   0  0  0  0  0  0  0  0  0  0  0  0
  142.4320  132.5792  151.1561 H   0  0  0  0  0  0  0  0  0  0  0  0
  143.8451  131.8019  151.8108 H   0  0  0  0  0  0  0  0  0  0  0  0
  141.9693  134.9126  152.3483 H   0  0  0  0  0  0  0  0  0  0  0  0
  147.4536  135.6521  152.5349 H   0  0  0  0  0  0  0  0  0  0  0  0
  148.8535  136.7360  153.3969 H   0  0  0  0  0  0  0  0  0  0  0  0
  148.0959  138.7391  155.4267 H   0  0  0  0  0  0  0  0  0  0  0  0
  149.2738  137.5295  155.8630 H   0  0  0  0  0  0  0  0  0  0  0  0
  149.6217  139.3354  153.4074 H   0  0  0  0  0  0  0  0  0  0  0  0
  151.0814  137.0712  153.8500 H   0  0  0  0  0  0  0  0  0  0  0  0
  151.8238  138.5591  153.2839 H   0  0  0  0  0  0  0  0  0  0  0  0
  151.9920  137.3819  156.0250 H   0  0  0  0  0  0  0  0  0  0  0  0
  153.0977  138.4941  155.2138 H   0  0  0  0  0  0  0  0  0  0  0  0
  151.1882  140.6973  154.5956 H   0  0  0  0  0  0  0  0  0  0  0  0
  148.9825  140.3143  156.6702 H   0  0  0  0  0  0  0  0  0  0  0  0
  149.0998  142.2859  154.3296 H   0  0  0  0  0  0  0  0  0  0  0  0
  147.8654  142.2593  155.5853 H   0  0  0  0  0  0  0  0  0  0  0  0
  147.9935  140.9231  154.4549 H   0  0  0  0  0  0  0  0  0  0  0  0
  150.8945  142.6521  156.2355 H   0  0  0  0  0  0  0  0  0  0  0  0
  150.9437  141.5127  157.5780 H   0  0  0  0  0  0  0  0  0  0  0  0
  149.5771  142.6025  157.4039 H   0  0  0  0  0  0  0  0  0  0  0  0
  1  2  1  0  0  0  0
  1 21  1  0  0  0  0
  1 22  1  0  0  0  0
  1 23  1  0  0  0  0
  2  3  1  0  0  0  0
  2 24  1  0  0  0  0
  2 25  1  0  0  0  0
  3 20  1  0  0  0  0
  3  4  2  0  0  0  0
  4  5  1  0  0  0  0
  4 26  1  0  0  0  0
  5  6  1  0  0  0  0
  6  7  1  0  0  0  0
  6 20  2  0  0  0  0
  7  8  1  0  0  0  0
  7 27  1  0  0  0  0
  8  9  2  0  0  0  0
  8 10  1  0  0  0  0
 10 11  1  0  0  0  0
 10 28  1  0  0  0  0
 11 12  1  0  0  0  0
 11 29  1  0  0  0  0
 11 30  1  0  0  0  0
 12 16  1  0  0  0  0
 12 13  1  0  0  0  0
 12 31  1  0  0  0  0
 13 14  1  0  0  0  0
 13 32  1  0  0  0  0
 13 33  1  0  0  0  0
 14 15  1  0  0  0  0
 14 34  1  0  0  0  0
 14 35  1  0  0  0  0
 15 16  1  0  0  0  0
 16 17  1  0  0  0  0
 16 36  1  0  0  0  0
 17 18  1  0  0  0  0
 17 19  1  0  0  0  0
 17 37  1  0  0  0  0
 18 38  1  0  0  0  0
 18 39  1  0  0  0  0
 18 40  1  0  0  0  0
 19 41  1  0  0  0  0
 19 42  1  0  0  0  0
 19 43  1  0  0  0  0
M  END
> <s_m_source_file>
AV-unprocessed.smi

> <i_m_source_file_index>
916

> <i_lp_mmshare_version>
43012

> <i_f3d_flags>
0

> <s_epik_input>
W0NIM11bQ0gyXWMxW2NIXXNjKG4xKVtOSF1DKD1PKVtOSF1bQ0gyXVtDQEBIXTJbQ0gyXVtDSDJdT1tDQEhdMltDSF0oW0NIM10pW0NIM10=

> <s_epik_cmdline>
J2VwaWtfcHl0aG9uJywgJy1waCcsICc3LjAnLCAnLXRuJywgJzgnLCAnLW1hJywgJzIwMCcsICctbWV0YWxfYmluZGluZycsICctaW1hZScsICc8aW5maWxlLm1hZT4nLCAnLW9tYWUnLCAnPG91dGZpbGUubWFlPic=

> <r_lp_tautomer_probability>
0.999

> <r_epik_Ionization_Penalty>
0.000518907

> <r_epik_Ionization_Penalty_Charging>
0

> <r_epik_Ionization_Penalty_Neutral>
0.000518907

> <r_epik_State_Penalty>
0.000177984

> <r_epik_Charging_Adjusted_Penalty>
0.000177984

> <i_epik_Tot_Q>
0

> <i_epik_Tot_abs_Q>
0

> <r_epik_Metal_State_Penalty>
-0

> <b_epik_Metal_Only>
0

> <s_lp_Force_Field>
OPLS_2005

> <r_lp_Energy>
18.5448

> <b_lp_Chiralities_Consistent>
1

> <s_lp_Variant>
AV-unprocessed.smi:916-3

> <Gold.Version>
5.8.1

> <Gold.Id.Protein>
6NUR|6NUR_protein|mol2

> <Gold.PLP.Fitness>
37.4625

> <Gold.PLP.PLP>
-32.6641

> <Gold.PLP.part.hbond>
-1.9025

> <Gold.PLP.part.metal>
0.0000

> <Gold.PLP.part.buried>
-2.8304

> <Gold.PLP.part.nonpolar>
-27.6232

> <Gold.PLP.part.repulsive>
0.1395

> <Gold.PLP.ligand.clash>
0.0000

> <Gold.PLP.ligand.torsion>
0.3703

> <Gold.PLP.Chemscore.Hbond>
1.8240

> <Gold.PLP.Chemscore.CHOScore>
0.0000

> <Gold.PLP.Chemscore.Metal>
0.0000

> <Gold.Chemscore.Hbonds>
donor molecule, donor type, donor heavy atom, donor atom, acceptor molecule, acceptor atom, score
      L1  H     7    27       P1  7948  0.86
      L1  H    10    28       P1  7948  0.93

> <Gold.PLP.Chemscore.Internal.Correction>
0.0670

> <Gold.Rescore>
     Score         DG    S(hbond)    S(metal)    S(lipo)     H(rot)  DE(clash)    DE(int)     intcor
     17.09     -17.62       1.93        0.00      82.07       1.52       0.04       0.49       ----

> <Gold.Chemscore.Fitness>
17.0919

> <Gold.Chemscore.DG>
-17.6199

> <Gold.Chemscore.ZeroCoef>
-5.4800

> <Gold.Chemscore.Hbond>
1.9277

> <Gold.Chemscore.Metal>
0.0000

> <Gold.Chemscore.Lipo>
82.0713

> <Gold.Chemscore.Internal_Hbond>
0.0000

> <Gold.Chemscore.DEClash>
0.0354

> <Gold.Chemscore.DEInternal>
0.4926

> <Gold.Chemscore.Rot>
1.5238

> <Gold.Chemscore.Internal.Correction>
   9.000000E+99

> <Gold.Chemscore.Hbonds>
donor molecule, donor type, donor heavy atom, donor atom, acceptor molecule, acceptor atom, score
      L1  H     7    27       P1  7948  0.85
      L1  H    10    28       P1  7948  0.89

> <Gold.Chemscore.Hbond.Weighted>
-6.4384

> <Gold.Chemscore.Metal.Weighted>
-0.0000

> <Gold.Chemscore.Lipo.Weighted>
-9.6023

> <Gold.Chemscore.Internal_Hbond.Weighted>
0.0000

> <Gold.Chemscore.DEClash.Weighted>
0.0354

> <Gold.Chemscore.DEInternal.Weighted>
0.4926

> <Gold.Chemscore.Rot.Weighted>
3.9008

> <Gold.Chemscore.Internal.Correction.Weighted>
   9.000000E+99

> <Gold.Protein.RotatedTorsions>
[ 6907 6896 6895 6894 ] final   31.59 input  -60.11 | X-H torsion
[ 7974 7965 7964 7962 ] final  -16.87 input  175.53 | X-H torsion
[ 8008 7997 7996 7995 ] final   74.22 input   59.86 | X-H torsion
[ 10167 10162 10161 10158 ] final  -29.96 input  -65.29 | X-H torsion
[ 10718 10713 10712 10709 ] final   93.10 input   66.30 | X-H torsion
[ 10763 10752 10751 10750 ] final   31.32 input  -60.55 | X-H torsion
[ 11005 11000 10999 10996 ] final   -7.93 input  -57.11 | X-H torsion

> <Gold.Protein.ActiveResidues>
 VAL166  LYS551  ARG553  GLY616  TRP617  ASP618  TYR619  PRO620  LYS621  CYS622 
 ASP623  PHE694  ASN695  SER759  ASP760  ASP761  ALA762  ILE779  LEU786  VAL792 
 PHE793  MET794  SER795  GLU796  ALA797  LYS798  CYS799  TRP800  GLU811  SER814 

> <Gold.Protein.RotatedAtoms>
  152.0625  134.9585  160.0574 H   0  0  0  0  0  0  0  0  0  0  0  0  # atno 6907 bound_to 6896
  152.0943  133.4212  159.4566 H   0  0  0  0  0  0  0  0  0  0  0  0  # atno 6908 bound_to 6896
  150.6837  134.2754  159.4649 H   0  0  0  0  0  0  0  0  0  0  0  0  # atno 6909 bound_to 6896
  146.1968  140.3698  142.8438 H   0  0  0  0  0  0  0  0  0  0  0  0  # atno 7974 bound_to 7965
  155.7952  140.3478  155.5371 H   0  0  0  0  0  0  0  0  0  0  0  0  # atno 8008 bound_to 7997
  155.8594  140.0969  157.1643 H   0  0  0  0  0  0  0  0  0  0  0  0  # atno 8009 bound_to 7997
  154.4011  140.1361  156.3929 H   0  0  0  0  0  0  0  0  0  0  0  0  # atno 8010 bound_to 7997
  140.7255  143.3887  151.1469 H   0  0  0  0  0  0  0  0  0  0  0  0  # atno 10167 bound_to 10162
  157.6956  131.0466  150.3982 H   0  0  0  0  0  0  0  0  0  0  0  0  # atno 10718 bound_to 10713
  153.0322  135.6442  154.1181 H   0  0  0  0  0  0  0  0  0  0  0  0  # atno 10763 bound_to 10752
  154.0901  135.2867  155.3275 H   0  0  0  0  0  0  0  0  0  0  0  0  # atno 10764 bound_to 10752
  154.6470  135.5439  153.7920 H   0  0  0  0  0  0  0  0  0  0  0  0  # atno 10765 bound_to 10752
  140.7180  133.8852  155.8800 H   0  0  0  0  0  0  0  0  0  0  0  0  # atno 11005 bound_to 11000
  144.8597  140.7121  143.6115 LP  0  0  0  0  0  0  0  0  0  0  0  0  # atno 17320 bound_to 7965
  145.3618  139.1680  143.4379 LP  0  0  0  0  0  0  0  0  0  0  0  0  # atno 17321 bound_to 7965
  139.7488  143.8810  152.3071 LP  0  0  0  0  0  0  0  0  0  0  0  0  # atno 17342 bound_to 10162
  139.8657  144.7094  150.9047 LP  0  0  0  0  0  0  0  0  0  0  0  0  # atno 17343 bound_to 10162
  156.4379  130.3985  149.6717 LP  0  0  0  0  0  0  0  0  0  0  0  0  # atno 17370 bound_to 10713
  156.3911  130.7627  151.2628 LP  0  0  0  0  0  0  0  0  0  0  0  0  # atno 17371 bound_to 10713
  141.0027  134.1128  157.4301 LP  0  0  0  0  0  0  0  0  0  0  0  0  # atno 17394 bound_to 11000
  139.8855  135.0073  156.6438 LP  0  0  0  0  0  0  0  0  0  0  0  0  # atno 17395 bound_to 11000

$$$$
