AV-unprocessed.smi:2208|AV-procd|sdf|8945|dock6
  -GOLD-   2272012163D 1   1.00000     0.00000
 Structure written by MMmdl.
 35 36  0  0  0  0  0  0  0  0  1 V2000
  144.1523  143.9711  162.5639 C   0  0  0  0  0  0  0  0  0  0  0  0
  144.9076  143.2952  161.4556 C   0  0  0  0  0  0  0  0  0  0  0  0
  144.8151  141.9829  161.3249 N   0  0  0  0  0  0  0  0  0  0  0  0
  145.6069  141.6497  160.2223 O   0  0  0  0  0  0  0  0  0  0  0  0
  146.1495  142.7890  159.7238 C   0  0  0  0  0  0  0  0  0  0  0  0
  147.0240  142.6412  158.5252 C   0  0  0  0  0  0  0  0  0  0  0  0
  145.7477  143.8713  160.4579 C   0  0  0  0  0  0  0  0  0  0  0  0
  146.0929  145.3245  160.2465 C   0  0  0  0  0  0  0  0  0  0  0  0
  147.4987  145.5871  160.7846 C   0  0  0  0  0  0  0  0  0  0  0  0
  147.6607  146.3420  161.7429 O   0  0  0  0  0  0  0  0  0  0  0  0
  148.4989  144.9289  160.1791 N   0  0  0  0  0  0  0  0  0  0  0  0
  149.8834  144.8916  160.6376 C   0  0  0  0  0  0  0  0  0  0  0  0
  150.7705  144.0058  159.7392 C   0  0  2  0  0  0  0  0  0  0  0  0
  152.1273  143.6065  160.3337 C   0  0  0  0  0  0  0  0  0  0  0  0
  152.9768  143.4440  159.0939 C   0  0  0  0  0  0  0  0  0  0  0  0
  152.4511  144.5739  158.2167 C   0  0  0  0  0  0  0  0  0  0  0  0
  151.0576  144.6499  158.4983 O   0  0  0  0  0  0  0  0  0  0  0  0
  144.3327  145.0454  162.5773 H   0  0  0  0  0  0  0  0  0  0  0  0
  144.4466  143.5759  163.5364 H   0  0  0  0  0  0  0  0  0  0  0  0
  143.0782  143.8201  162.4544 H   0  0  0  0  0  0  0  0  0  0  0  0
  146.6315  141.8814  157.8488 H   0  0  0  0  0  0  0  0  0  0  0  0
  148.0322  142.3482  158.8172 H   0  0  0  0  0  0  0  0  0  0  0  0
  147.0905  143.5784  157.9722 H   0  0  0  0  0  0  0  0  0  0  0  0
  146.0510  145.6050  159.1939 H   0  0  0  0  0  0  0  0  0  0  0  0
  145.3862  145.9775  160.7603 H   0  0  0  0  0  0  0  0  0  0  0  0
  148.2660  144.3393  159.3935 H   0  0  0  0  0  0  0  0  0  0  0  0
  150.2640  145.9131  160.6284 H   0  0  0  0  0  0  0  0  0  0  0  0
  149.9376  144.5551  161.6740 H   0  0  0  0  0  0  0  0  0  0  0  0
  150.2222  143.0958  159.4919 H   0  0  0  0  0  0  0  0  0  0  0  0
  152.5460  144.3995  160.9531 H   0  0  0  0  0  0  0  0  0  0  0  0
  152.0752  142.7001  160.9372 H   0  0  0  0  0  0  0  0  0  0  0  0
  154.0461  143.5207  159.2928 H   0  0  0  0  0  0  0  0  0  0  0  0
  152.7804  142.4787  158.6256 H   0  0  0  0  0  0  0  0  0  0  0  0
  152.9155  145.5193  158.4981 H   0  0  0  0  0  0  0  0  0  0  0  0
  152.6381  144.4061  157.1560 H   0  0  0  0  0  0  0  0  0  0  0  0
  1  2  1  0  0  0  0
  1 18  1  0  0  0  0
  1 19  1  0  0  0  0
  1 20  1  0  0  0  0
  2  7  1  0  0  0  0
  2  3  2  0  0  0  0
  3  4  1  0  0  0  0
  4  5  1  0  0  0  0
  5  6  1  0  0  0  0
  5  7  2  0  0  0  0
  6 21  1  0  0  0  0
  6 22  1  0  0  0  0
  6 23  1  0  0  0  0
  7  8  1  0  0  0  0
  8  9  1  0  0  0  0
  8 24  1  0  0  0  0
  8 25  1  0  0  0  0
  9 10  2  0  0  0  0
  9 11  1  0  0  0  0
 11 12  1  0  0  0  0
 11 26  1  0  0  0  0
 12 13  1  0  0  0  0
 12 27  1  0  0  0  0
 12 28  1  0  0  0  0
 13 17  1  0  0  0  0
 13 14  1  0  0  0  0
 13 29  1  0  0  0  0
 14 15  1  0  0  0  0
 14 30  1  0  0  0  0
 14 31  1  0  0  0  0
 15 16  1  0  0  0  0
 15 32  1  0  0  0  0
 15 33  1  0  0  0  0
 16 17  1  0  0  0  0
 16 34  1  0  0  0  0
 16 35  1  0  0  0  0
M  END
> <s_m_source_file>
AV-unprocessed.smi

> <i_m_source_file_index>
2208

> <i_lp_mmshare_version>
43012

> <i_f3d_flags>
0

> <s_epik_input>
W0NIM11jMW5vYyhbQ0gzXSljMVtDSDJdQyg9TylbTkhdW0NIMl1bQ0BASF0yW0NIMl1bQ0gyXVtDSDJdTzI=

> <s_epik_cmdline>
J2VwaWtfcHl0aG9uJywgJy1waCcsICc3LjAnLCAnLXRuJywgJzgnLCAnLW1hJywgJzIwMCcsICctbWV0YWxfYmluZGluZycsICctaW1hZScsICc8aW5maWxlLm1hZT4nLCAnLW9tYWUnLCAnPG91dGZpbGUubWFlPic=

> <r_lp_tautomer_probability>
1

> <r_epik_Ionization_Penalty>
3.13901e-08

> <r_epik_Ionization_Penalty_Charging>
0

> <r_epik_Ionization_Penalty_Neutral>
3.13901e-08

> <r_epik_State_Penalty>
-0

> <r_epik_Charging_Adjusted_Penalty>
0

> <i_epik_Tot_Q>
0

> <i_epik_Tot_abs_Q>
0

> <r_epik_Metal_State_Penalty>
-0

> <b_epik_Metal_Only>
0

> <s_lp_Force_Field>
OPLS_2005

> <r_lp_Energy>
11.1183

> <b_lp_Chiralities_Consistent>
1

> <s_lp_Variant>
AV-unprocessed.smi:2208-1

> <Gold.Version>
5.8.1

> <Gold.Id.Protein>
6NUR|6NUR_protein|mol2

> <Gold.PLP.Fitness>
41.4862

> <Gold.PLP.PLP>
-39.2226

> <Gold.PLP.part.hbond>
-3.9118

> <Gold.PLP.part.metal>
0.0000

> <Gold.PLP.part.buried>
-7.6268

> <Gold.PLP.part.nonpolar>
-29.0967

> <Gold.PLP.part.repulsive>
0.6321

> <Gold.PLP.ligand.clash>
0.0000

> <Gold.PLP.ligand.torsion>
0.3706

> <Gold.PLP.Chemscore.Hbond>
1.0000

> <Gold.PLP.Chemscore.CHOScore>
0.0000

> <Gold.PLP.Chemscore.Metal>
0.0000

> <Gold.Chemscore.Hbonds>
donor molecule, donor type, donor heavy atom, donor atom, acceptor molecule, acceptor atom, score
      P1  H  6934  6946       L1     4  1.00

> <Gold.PLP.Chemscore.Internal.Correction>
0.0049

> <Gold.Rescore>
     Score         DG    S(hbond)    S(metal)    S(lipo)     H(rot)  DE(clash)    DE(int)     intcor
     10.37     -12.34       0.27        0.00      84.88       1.56       1.72       0.26       ----

> <Gold.Chemscore.Fitness>
10.3707

> <Gold.Chemscore.DG>
-12.3448

> <Gold.Chemscore.ZeroCoef>
-5.4800

> <Gold.Chemscore.Hbond>
0.2738

> <Gold.Chemscore.Metal>
0.0000

> <Gold.Chemscore.Lipo>
84.8816

> <Gold.Chemscore.Internal_Hbond>
0.0000

> <Gold.Chemscore.DEClash>
1.7159

> <Gold.Chemscore.DEInternal>
0.2582

> <Gold.Chemscore.Rot>
1.5551

> <Gold.Chemscore.Internal.Correction>
   9.000000E+99

> <Gold.Chemscore.Hbonds>
donor molecule, donor type, donor heavy atom, donor atom, acceptor molecule, acceptor atom, score
      P1  H  6934  6946       L1     4  0.27

> <Gold.Chemscore.Hbond.Weighted>
-0.9146

> <Gold.Chemscore.Metal.Weighted>
-0.0000

> <Gold.Chemscore.Lipo.Weighted>
-9.9311

> <Gold.Chemscore.Internal_Hbond.Weighted>
0.0000

> <Gold.Chemscore.DEClash.Weighted>
1.7159

> <Gold.Chemscore.DEInternal.Weighted>
0.2582

> <Gold.Chemscore.Rot.Weighted>
3.9809

> <Gold.Chemscore.Internal.Correction.Weighted>
   9.000000E+99

> <Gold.Protein.RotatedTorsions>
[ 6907 6896 6895 6894 ] final -109.29 input  -60.11 | X-H torsion
[ 7974 7965 7964 7962 ] final   36.10 input  175.53 | X-H torsion
[ 8008 7997 7996 7995 ] final   99.40 input   59.86 | X-H torsion
[ 10167 10162 10161 10158 ] final  -95.39 input  -65.29 | X-H torsion
[ 10718 10713 10712 10709 ] final -142.03 input   66.30 | X-H torsion
[ 10763 10752 10751 10750 ] final  150.78 input  -60.55 | X-H torsion
[ 11005 11000 10999 10996 ] final  -13.91 input  -57.11 | X-H torsion

> <Gold.Protein.ActiveResidues>
 VAL166  LYS551  ARG553  GLY616  TRP617  ASP618  TYR619  PRO620  LYS621  CYS622 
 ASP623  PHE694  ASN695  SER759  ASP760  ASP761  ALA762  ILE779  LEU786  VAL792 
 PHE793  MET794  SER795  GLU796  ALA797  LYS798  CYS799  TRP800  GLU811  SER814 

> <Gold.Protein.RotatedAtoms>
  150.7553  133.9551  159.3497 H   0  0  0  0  0  0  0  0  0  0  0  0  # atno 6907 bound_to 6896
  151.7472  135.0839  160.0334 H   0  0  0  0  0  0  0  0  0  0  0  0  # atno 6908 bound_to 6896
  152.3490  133.6119  159.5967 H   0  0  0  0  0  0  0  0  0  0  0  0  # atno 6909 bound_to 6896
  146.1235  139.6059  142.9274 H   0  0  0  0  0  0  0  0  0  0  0  0  # atno 7974 bound_to 7965
  156.1101  140.3229  155.8061 H   0  0  0  0  0  0  0  0  0  0  0  0  # atno 8008 bound_to 7997
  155.4687  140.0545  157.2999 H   0  0  0  0  0  0  0  0  0  0  0  0  # atno 8009 bound_to 7997
  154.4754  140.2030  155.9905 H   0  0  0  0  0  0  0  0  0  0  0  0  # atno 8010 bound_to 7997
  140.3046  143.3141  152.0212 H   0  0  0  0  0  0  0  0  0  0  0  0  # atno 10167 bound_to 10162
  156.3410  130.7637  151.1773 H   0  0  0  0  0  0  0  0  0  0  0  0  # atno 10718 bound_to 10713
  154.0931  135.2851  155.3267 H   0  0  0  0  0  0  0  0  0  0  0  0  # atno 10763 bound_to 10752
  154.6606  135.5336  153.8017 H   0  0  0  0  0  0  0  0  0  0  0  0  # atno 10764 bound_to 10752
  153.0406  135.6533  154.1099 H   0  0  0  0  0  0  0  0  0  0  0  0  # atno 10765 bound_to 10752
  140.7810  133.8363  155.9291 H   0  0  0  0  0  0  0  0  0  0  0  0  # atno 11005 bound_to 11000
  145.5415  141.0420  143.2328 LP  0  0  0  0  0  0  0  0  0  0  0  0  # atno 17320 bound_to 7965
  144.7620  139.6934  143.7230 LP  0  0  0  0  0  0  0  0  0  0  0  0  # atno 17321 bound_to 7965
  139.4907  144.6430  151.6837 LP  0  0  0  0  0  0  0  0  0  0  0  0  # atno 17342 bound_to 10162
  140.5621  144.0251  150.6174 LP  0  0  0  0  0  0  0  0  0  0  0  0  # atno 17343 bound_to 10162
  157.7447  131.0454  150.4843 LP  0  0  0  0  0  0  0  0  0  0  0  0  # atno 17370 bound_to 10713
  156.5024  130.4120  149.6346 LP  0  0  0  0  0  0  0  0  0  0  0  0  # atno 17371 bound_to 10713
  140.9483  134.1812  157.4747 LP  0  0  0  0  0  0  0  0  0  0  0  0  # atno 17394 bound_to 11000
  139.8742  134.9899  156.5478 LP  0  0  0  0  0  0  0  0  0  0  0  0  # atno 17395 bound_to 11000

$$$$
