AV-unprocessed.smi:2923|AV-procd|sdf|11205|dock2
  -GOLD-   2272016 93D 1   1.00000     0.00000
 Structure written by MMmdl.
 47 49  0  0  0  0  0  0  0  0  2 V2000
  144.1266  133.1292  148.8132 C   0  0  0  0  0  0  0  0  0  0  0  0
  144.1181  133.2875  150.2630 N   0  0  0  0  0  0  0  0  0  0  0  0
  143.7525  132.1693  151.1227 C   0  0  0  0  0  0  0  0  0  0  0  0
  144.3927  134.5501  150.8320 C   0  0  0  0  0  0  0  0  0  0  0  0
  143.6672  135.0828  151.9254 C   0  0  0  0  0  0  0  0  0  0  0  0
  144.0006  136.3542  152.4353 C   0  0  0  0  0  0  0  0  0  0  0  0
  145.0506  137.0938  151.8524 C   0  0  0  0  0  0  0  0  0  0  0  0
  145.3456  138.3683  152.4099 N   0  0  0  0  0  0  0  0  0  0  0  0
  146.5424  138.9420  152.6234 C   0  0  0  0  0  0  0  0  0  0  0  0
  147.6335  138.4419  152.3525 O   0  0  0  0  0  0  0  0  0  0  0  0
  146.4048  140.1547  153.1752 N   0  0  0  0  0  0  0  0  0  0  0  0
  147.5162  141.0339  153.5428 C   0  0  1  0  0  0  0  0  0  0  0  0
  147.0474  142.3915  154.1126 C   0  0  1  0  0  0  0  0  0  0  0  0
  145.6119  142.8555  154.0573 C   0  0  0  0  0  0  0  0  0  0  0  0
  145.0812  142.4812  155.4442 C   0  0  0  0  0  0  0  0  0  0  0  0
  145.9705  141.4702  155.9136 O   0  0  0  0  0  0  0  0  0  0  0  0
  147.2890  141.8234  155.5014 C   0  0  1  0  0  0  0  0  0  0  0  0
  148.1505  140.6849  154.9166 C   0  0  0  0  0  0  0  0  0  0  0  0
  147.9207  139.2892  155.5129 C   0  0  0  0  0  0  0  0  0  0  0  0
  149.6588  140.9395  154.9909 C   0  0  0  0  0  0  0  0  0  0  0  0
  145.7531  136.5135  150.7691 C   0  0  0  0  0  0  0  0  0  0  0  0
  145.4006  135.2923  150.3127 N   0  3  0  0  0  0  0  0  0  0  0  0
  145.1186  133.3383  148.4113 H   0  0  0  0  0  0  0  0  0  0  0  0
  143.4131  133.8102  148.3482 H   0  0  0  0  0  0  0  0  0  0  0  0
  143.8555  132.1142  148.5227 H   0  0  0  0  0  0  0  0  0  0  0  0
  142.8398  132.3938  151.6753 H   0  0  0  0  0  0  0  0  0  0  0  0
  144.5499  131.9564  151.8351 H   0  0  0  0  0  0  0  0  0  0  0  0
  143.5764  131.2636  150.5420 H   0  0  0  0  0  0  0  0  0  0  0  0
  142.8565  134.5370  152.3840 H   0  0  0  0  0  0  0  0  0  0  0  0
  143.4458  136.7582  153.2697 H   0  0  0  0  0  0  0  0  0  0  0  0
  144.5419  138.9306  152.6487 H   0  0  0  0  0  0  0  0  0  0  0  0
  145.4742  140.4928  153.3721 H   0  0  0  0  0  0  0  0  0  0  0  0
  148.2548  141.1611  152.7488 H   0  0  0  0  0  0  0  0  0  0  0  0
  147.7697  143.1763  153.8826 H   0  0  0  0  0  0  0  0  0  0  0  0
  145.5320  143.9291  153.8846 H   0  0  0  0  0  0  0  0  0  0  0  0
  145.0476  142.3584  153.2688 H   0  0  0  0  0  0  0  0  0  0  0  0
  145.1329  143.3380  156.1174 H   0  0  0  0  0  0  0  0  0  0  0  0
  144.0503  142.1273  155.4196 H   0  0  0  0  0  0  0  0  0  0  0  0
  147.7931  142.5094  156.1836 H   0  0  0  0  0  0  0  0  0  0  0  0
  148.3152  139.2187  156.5270 H   0  0  0  0  0  0  0  0  0  0  0  0
  148.4062  138.5157  154.9170 H   0  0  0  0  0  0  0  0  0  0  0  0
  146.8625  139.0346  155.5714 H   0  0  0  0  0  0  0  0  0  0  0  0
  150.0214  140.9078  156.0188 H   0  0  0  0  0  0  0  0  0  0  0  0
  149.9229  141.9178  154.5881 H   0  0  0  0  0  0  0  0  0  0  0  0
  150.2169  140.1963  154.4203 H   0  0  0  0  0  0  0  0  0  0  0  0
  146.5853  136.9617  150.2489 H   0  0  0  0  0  0  0  0  0  0  0  0
  145.9275  134.9056  149.5295 H   0  0  0  0  0  0  0  0  0  0  0  0
  1  2  1  0  0  0  0
  1 23  1  0  0  0  0
  1 24  1  0  0  0  0
  1 25  1  0  0  0  0
  2  3  1  0  0  0  0
  2  4  1  0  0  0  0
  3 26  1  0  0  0  0
  3 27  1  0  0  0  0
  3 28  1  0  0  0  0
  4 22  1  0  0  0  0
  4  5  2  0  0  0  0
  5  6  1  0  0  0  0
  5 29  1  0  0  0  0
  6  7  2  0  0  0  0
  6 30  1  0  0  0  0
  7  8  1  0  0  0  0
  7 21  1  0  0  0  0
  8  9  1  0  0  0  0
  8 31  1  0  0  0  0
  9 10  2  0  0  0  0
  9 11  1  0  0  0  0
 11 12  1  0  0  0  0
 11 32  1  0  0  0  0
 12 18  1  0  0  0  0
 12 13  1  0  0  0  0
 12 33  1  0  0  0  0
 13 17  1  0  0  0  0
 13 14  1  0  0  0  0
 13 34  1  0  0  0  0
 14 15  1  0  0  0  0
 14 35  1  0  0  0  0
 14 36  1  0  0  0  0
 15 16  1  0  0  0  0
 15 37  1  0  0  0  0
 15 38  1  0  0  0  0
 16 17  1  0  0  0  0
 17 18  1  0  0  0  0
 17 39  1  0  0  0  0
 18 19  1  0  0  0  0
 18 20  1  0  0  0  0
 19 40  1  0  0  0  0
 19 41  1  0  0  0  0
 19 42  1  0  0  0  0
 20 43  1  0  0  0  0
 20 44  1  0  0  0  0
 20 45  1  0  0  0  0
 21 22  2  0  0  0  0
 21 46  1  0  0  0  0
 22 47  1  0  0  0  0
M  CHG  1  22   1
M  END
> <s_m_source_file>
AV-unprocessed.smi

> <i_m_source_file_index>
2923

> <i_lp_mmshare_version>
43012

> <i_f3d_flags>
0

> <s_epik_input>
W0NIM11OKFtDSDNdKWMxW2NIXVtjSF1jKFtjSF1uMSlbTkhdQyg9TylbTkhdW0NASF0yQyhbQ0gzXSkoW0NIM10pW0NAQEhdKFtDQEhdMjMpT1tDSDJdW0NIMl0z

> <s_epik_cmdline>
J2VwaWtfcHl0aG9uJywgJy1waCcsICc3LjAnLCAnLXRuJywgJzgnLCAnLW1hJywgJzIwMCcsICctbWV0YWxfYmluZGluZycsICctaW1hZScsICc8aW5maWxlLm1hZT4nLCAnLW9tYWUnLCAnPG91dGZpbGUubWFlPic=

> <r_lp_tautomer_probability>
0.999994

> <r_epik_Ionization_Penalty>
0.252205

> <r_epik_Ionization_Penalty_Charging>
0.252185

> <r_epik_Ionization_Penalty_Neutral>
1.99479e-05

> <r_epik_State_Penalty>
0.243573

> <r_epik_Charging_Adjusted_Penalty>
0.495758

> <i_epik_Tot_Q>
1

> <i_epik_Tot_abs_Q>
1

> <r_epik_Metal_State_Penalty>
0.534372

> <b_epik_Metal_Only>
0

> <s_lp_Force_Field>
OPLS_2005

> <r_lp_Energy>
46.5408

> <b_lp_Chiralities_Consistent>
1

> <s_lp_Variant>
AV-unprocessed.smi:2923-4

> <Gold.Version>
5.8.1

> <Gold.Id.Protein>
6NUR|6NUR_protein|mol2

> <Gold.PLP.Fitness>
41.9451

> <Gold.PLP.PLP>
-35.9099

> <Gold.PLP.part.hbond>
-4.0000

> <Gold.PLP.part.metal>
0.0000

> <Gold.PLP.part.buried>
-0.1973

> <Gold.PLP.part.nonpolar>
-38.3406

> <Gold.PLP.part.repulsive>
6.0421

> <Gold.PLP.ligand.clash>
0.0000

> <Gold.PLP.ligand.torsion>
1.0843

> <Gold.PLP.Chemscore.Hbond>
2.6720

> <Gold.PLP.Chemscore.CHOScore>
0.0000

> <Gold.PLP.Chemscore.Metal>
0.0000

> <Gold.Chemscore.Hbonds>
donor molecule, donor type, donor heavy atom, donor atom, acceptor molecule, acceptor atom, score
      L1  H     8    31       P1 10175  0.96
      L1  H    11    32       P1 10175  0.75
      L1  H    22    47       P1  7921  0.94

> <Gold.PLP.Chemscore.Internal.Correction>
0.1877

> <Gold.Rescore>
     Score         DG    S(hbond)    S(metal)    S(lipo)     H(rot)  DE(clash)    DE(int)     intcor
     16.61     -20.72       2.33        0.00      85.68       1.00       3.03       1.08       ----

> <Gold.Chemscore.Fitness>
16.6141

> <Gold.Chemscore.DG>
-20.7189

> <Gold.Chemscore.ZeroCoef>
-5.4800

> <Gold.Chemscore.Hbond>
2.3277

> <Gold.Chemscore.Metal>
0.0000

> <Gold.Chemscore.Lipo>
85.6776

> <Gold.Chemscore.Internal_Hbond>
0.0000

> <Gold.Chemscore.DEClash>
3.0273

> <Gold.Chemscore.DEInternal>
1.0775

> <Gold.Chemscore.Rot>
1.0000

> <Gold.Chemscore.Internal.Correction>
   9.000000E+99

> <Gold.Chemscore.Hbonds>
donor molecule, donor type, donor heavy atom, donor atom, acceptor molecule, acceptor atom, score
      L1  H     8    31       P1 10175  0.92
      L1  H    11    32       P1 10175  0.69
      L1  H    22    47       P1  7921  0.77

> <Gold.Chemscore.Hbond.Weighted>
-7.7746

> <Gold.Chemscore.Metal.Weighted>
-0.0000

> <Gold.Chemscore.Lipo.Weighted>
-10.0243

> <Gold.Chemscore.Internal_Hbond.Weighted>
0.0000

> <Gold.Chemscore.DEClash.Weighted>
3.0273

> <Gold.Chemscore.DEInternal.Weighted>
1.0775

> <Gold.Chemscore.Rot.Weighted>
2.5600

> <Gold.Chemscore.Internal.Correction.Weighted>
   9.000000E+99

> <Gold.Protein.RotatedTorsions>
[ 6907 6896 6895 6894 ] final  -74.95 input  -60.11 | X-H torsion
[ 7974 7965 7964 7962 ] final  -45.06 input  175.53 | X-H torsion
[ 8008 7997 7996 7995 ] final   27.94 input   59.86 | X-H torsion
[ 10167 10162 10161 10158 ] final -142.16 input  -65.29 | X-H torsion
[ 10718 10713 10712 10709 ] final   18.85 input   66.30 | X-H torsion
[ 10763 10752 10751 10750 ] final -178.78 input  -60.55 | X-H torsion
[ 11005 11000 10999 10996 ] final  -62.07 input  -57.11 | X-H torsion

> <Gold.Protein.ActiveResidues>
 VAL166  LYS551  ARG553  GLY616  TRP617  ASP618  TYR619  PRO620  LYS621  CYS622 
 ASP623  PHE694  ASN695  SER759  ASP760  ASP761  ALA762  ILE779  LEU786  VAL792 
 PHE793  MET794  SER795  GLU796  ALA797  LYS798  CYS799  TRP800  GLU811  SER814 

> <Gold.Protein.RotatedAtoms>
  150.7075  134.4793  159.5462 H   0  0  0  0  0  0  0  0  0  0  0  0  # atno 6907 bound_to 6896
  152.2433  134.8203  160.0466 H   0  0  0  0  0  0  0  0  0  0  0  0  # atno 6908 bound_to 6896
  151.8977  133.3495  159.3857 H   0  0  0  0  0  0  0  0  0  0  0  0  # atno 6909 bound_to 6896
  145.9859  140.7234  142.9341 H   0  0  0  0  0  0  0  0  0  0  0  0  # atno 7974 bound_to 7965
  155.0508  140.3179  155.4692 H   0  0  0  0  0  0  0  0  0  0  0  0  # atno 8008 bound_to 7997
  156.2835  140.2146  156.5578 H   0  0  0  0  0  0  0  0  0  0  0  0  # atno 8009 bound_to 7997
  154.7212  140.0489  157.0629 H   0  0  0  0  0  0  0  0  0  0  0  0  # atno 8010 bound_to 7997
  139.8115  143.7696  152.2663 H   0  0  0  0  0  0  0  0  0  0  0  0  # atno 10167 bound_to 10162
  157.1021  130.6473  149.5875 H   0  0  0  0  0  0  0  0  0  0  0  0  # atno 10718 bound_to 10713
  154.5434  135.2807  155.1075 H   0  0  0  0  0  0  0  0  0  0  0  0  # atno 10763 bound_to 10752
  154.2549  135.6332  153.5257 H   0  0  0  0  0  0  0  0  0  0  0  0  # atno 10764 bound_to 10752
  152.9984  135.5591  154.5979 H   0  0  0  0  0  0  0  0  0  0  0  0  # atno 10765 bound_to 10752
  141.1347  133.6636  156.5472 H   0  0  0  0  0  0  0  0  0  0  0  0  # atno 11005 bound_to 11000
  144.6874  140.2987  143.7267 LP  0  0  0  0  0  0  0  0  0  0  0  0  # atno 17320 bound_to 7965
  145.7702  139.1854  143.2217 LP  0  0  0  0  0  0  0  0  0  0  0  0  # atno 17321 bound_to 7965
  139.7846  144.7432  151.0040 LP  0  0  0  0  0  0  0  0  0  0  0  0  # atno 17342 bound_to 10162
  140.7817  143.4506  151.0419 LP  0  0  0  0  0  0  0  0  0  0  0  0  # atno 17343 bound_to 10162
  155.9871  130.4908  150.7109 LP  0  0  0  0  0  0  0  0  0  0  0  0  # atno 17370 bound_to 10713
  157.4631  131.0885  151.0724 LP  0  0  0  0  0  0  0  0  0  0  0  0  # atno 17371 bound_to 10713
  140.4092  134.7287  157.4826 LP  0  0  0  0  0  0  0  0  0  0  0  0  # atno 17394 bound_to 11000
  140.0439  134.6227  155.8945 LP  0  0  0  0  0  0  0  0  0  0  0  0  # atno 17395 bound_to 11000

$$$$
