AV-unprocessed.smi:2923|AV-procd|sdf|11203|dock10
  -GOLD-   2272016 93D 1   1.00000     0.00000
 Structure written by MMmdl.
 47 49  0  0  0  0  0  0  0  0  2 V2000
  143.8058  132.1714  149.1196 C   0  0  0  0  0  0  0  0  0  0  0  0
  144.4711  132.3452  150.4061 N   0  0  0  0  0  0  0  0  0  0  0  0
  144.9151  131.1851  151.1680 C   0  0  0  0  0  0  0  0  0  0  0  0
  144.6625  133.6433  150.9266 C   0  0  0  0  0  0  0  0  0  0  0  0
  145.7897  134.0107  151.7019 C   0  0  0  0  0  0  0  0  0  0  0  0
  145.9070  135.3292  152.1881 C   0  0  0  0  0  0  0  0  0  0  0  0
  144.9060  136.2786  151.8951 C   0  0  0  0  0  0  0  0  0  0  0  0
  145.0628  137.5895  152.4222 N   0  0  0  0  0  0  0  0  0  0  0  0
  145.9867  138.0429  153.2871 C   0  0  0  0  0  0  0  0  0  0  0  0
  146.8576  137.3592  153.8240 O   0  0  0  0  0  0  0  0  0  0  0  0
  145.8344  139.3536  153.5162 N   0  0  0  0  0  0  0  0  0  0  0  0
  146.6747  140.1328  154.4174 C   0  0  1  0  0  0  0  0  0  0  0  0
  148.1645  139.8615  154.2097 C   0  0  2  0  0  0  0  0  0  0  0  0
  149.2366  139.2364  155.0290 C   0  0  0  0  0  0  0  0  0  0  0  0
  150.3282  140.3180  154.8097 C   0  0  0  0  0  0  0  0  0  0  0  0
  149.6587  141.4355  154.1756 O   0  0  0  0  0  0  0  0  0  0  0  0
  148.3199  141.3155  154.6106 C   0  0  1  0  0  0  0  0  0  0  0  0
  146.9807  141.5874  153.8963 C   0  0  0  0  0  0  0  0  0  0  0  0
  147.0190  141.8647  152.3796 C   0  0  0  0  0  0  0  0  0  0  0  0
  146.1258  142.6950  154.5128 C   0  0  0  0  0  0  0  0  0  0  0  0
  143.7952  135.8608  151.1242 C   0  0  0  0  0  0  0  0  0  0  0  0
  143.7226  134.5880  150.6795 N   0  3  0  0  0  0  0  0  0  0  0  0
  142.7920  132.5718  149.1555 H   0  0  0  0  0  0  0  0  0  0  0  0
  143.7397  131.1185  148.8449 H   0  0  0  0  0  0  0  0  0  0  0  0
  144.3552  132.6868  148.3310 H   0  0  0  0  0  0  0  0  0  0  0  0
  145.9941  131.2178  151.3219 H   0  0  0  0  0  0  0  0  0  0  0  0
  144.6809  130.2564  150.6476 H   0  0  0  0  0  0  0  0  0  0  0  0
  144.4240  131.1535  152.1409 H   0  0  0  0  0  0  0  0  0  0  0  0
  146.5692  133.3010  151.9355 H   0  0  0  0  0  0  0  0  0  0  0  0
  146.7661  135.6067  152.7814 H   0  0  0  0  0  0  0  0  0  0  0  0
  144.3701  138.2612  152.1249 H   0  0  0  0  0  0  0  0  0  0  0  0
  145.0917  139.8454  153.0414 H   0  0  0  0  0  0  0  0  0  0  0  0
  146.3733  140.0848  155.4679 H   0  0  0  0  0  0  0  0  0  0  0  0
  148.3741  139.6842  153.1522 H   0  0  0  0  0  0  0  0  0  0  0  0
  148.9508  139.1494  156.0782 H   0  0  0  0  0  0  0  0  0  0  0  0
  149.5373  138.2563  154.6582 H   0  0  0  0  0  0  0  0  0  0  0  0
  150.7669  140.6258  155.7597 H   0  0  0  0  0  0  0  0  0  0  0  0
  151.1318  139.9612  154.1650 H   0  0  0  0  0  0  0  0  0  0  0  0
  148.2487  141.4870  155.6910 H   0  0  0  0  0  0  0  0  0  0  0  0
  147.4728  142.8338  152.1706 H   0  0  0  0  0  0  0  0  0  0  0  0
  146.0150  141.8811  151.9544 H   0  0  0  0  0  0  0  0  0  0  0  0
  147.5855  141.1288  151.8122 H   0  0  0  0  0  0  0  0  0  0  0  0
  146.5631  143.6793  154.3427 H   0  0  0  0  0  0  0  0  0  0  0  0
  146.0240  142.5693  155.5913 H   0  0  0  0  0  0  0  0  0  0  0  0
  145.1183  142.7037  154.0958 H   0  0  0  0  0  0  0  0  0  0  0  0
  142.9544  136.4804  150.8518 H   0  0  0  0  0  0  0  0  0  0  0  0
  142.9079  134.3222  150.1260 H   0  0  0  0  0  0  0  0  0  0  0  0
  1  2  1  0  0  0  0
  1 23  1  0  0  0  0
  1 24  1  0  0  0  0
  1 25  1  0  0  0  0
  2  3  1  0  0  0  0
  2  4  1  0  0  0  0
  3 26  1  0  0  0  0
  3 27  1  0  0  0  0
  3 28  1  0  0  0  0
  4 22  1  0  0  0  0
  4  5  2  0  0  0  0
  5  6  1  0  0  0  0
  5 29  1  0  0  0  0
  6  7  2  0  0  0  0
  6 30  1  0  0  0  0
  7  8  1  0  0  0  0
  7 21  1  0  0  0  0
  8  9  1  0  0  0  0
  8 31  1  0  0  0  0
  9 10  2  0  0  0  0
  9 11  1  0  0  0  0
 11 12  1  0  0  0  0
 11 32  1  0  0  0  0
 12 18  1  0  0  0  0
 12 13  1  0  0  0  0
 12 33  1  0  0  0  0
 13 17  1  0  0  0  0
 13 14  1  0  0  0  0
 13 34  1  0  0  0  0
 14 15  1  0  0  0  0
 14 35  1  0  0  0  0
 14 36  1  0  0  0  0
 15 16  1  0  0  0  0
 15 37  1  0  0  0  0
 15 38  1  0  0  0  0
 16 17  1  0  0  0  0
 17 18  1  0  0  0  0
 17 39  1  0  0  0  0
 18 19  1  0  0  0  0
 18 20  1  0  0  0  0
 19 40  1  0  0  0  0
 19 41  1  0  0  0  0
 19 42  1  0  0  0  0
 20 43  1  0  0  0  0
 20 44  1  0  0  0  0
 20 45  1  0  0  0  0
 21 22  2  0  0  0  0
 21 46  1  0  0  0  0
 22 47  1  0  0  0  0
M  CHG  1  22   1
M  END
> <s_m_source_file>
AV-unprocessed.smi

> <i_m_source_file_index>
2923

> <i_lp_mmshare_version>
43012

> <i_f3d_flags>
0

> <s_epik_input>
W0NIM11OKFtDSDNdKWMxW2NIXVtjSF1jKFtjSF1uMSlbTkhdQyg9TylbTkhdW0NASF0yQyhbQ0gzXSkoW0NIM10pW0NAQEhdKFtDQEhdMjMpT1tDSDJdW0NIMl0z

> <s_epik_cmdline>
J2VwaWtfcHl0aG9uJywgJy1waCcsICc3LjAnLCAnLXRuJywgJzgnLCAnLW1hJywgJzIwMCcsICctbWV0YWxfYmluZGluZycsICctaW1hZScsICc8aW5maWxlLm1hZT4nLCAnLW9tYWUnLCAnPG91dGZpbGUubWFlPic=

> <r_lp_tautomer_probability>
0.999994

> <r_epik_Ionization_Penalty>
0.252205

> <r_epik_Ionization_Penalty_Charging>
0.252185

> <r_epik_Ionization_Penalty_Neutral>
1.99479e-05

> <r_epik_State_Penalty>
0.243573

> <r_epik_Charging_Adjusted_Penalty>
0.495758

> <i_epik_Tot_Q>
1

> <i_epik_Tot_abs_Q>
1

> <r_epik_Metal_State_Penalty>
0.534372

> <b_epik_Metal_Only>
0

> <s_lp_Force_Field>
OPLS_2005

> <r_lp_Energy>
67.7909

> <b_lp_Chiralities_Consistent>
1

> <s_lp_Variant>
AV-unprocessed.smi:2923-2

> <Gold.Version>
5.8.1

> <Gold.Id.Protein>
6NUR|6NUR_protein|mol2

> <Gold.PLP.Fitness>
43.2929

> <Gold.PLP.PLP>
-32.8039

> <Gold.PLP.part.hbond>
-5.5112

> <Gold.PLP.part.metal>
0.0000

> <Gold.PLP.part.buried>
0.3089

> <Gold.PLP.part.nonpolar>
-27.0290

> <Gold.PLP.part.repulsive>
0.6732

> <Gold.PLP.ligand.clash>
0.0000

> <Gold.PLP.ligand.torsion>
0.7304

> <Gold.PLP.Chemscore.Hbond>
3.8944

> <Gold.PLP.Chemscore.CHOScore>
0.0000

> <Gold.PLP.Chemscore.Metal>
0.0000

> <Gold.Chemscore.Hbonds>
donor molecule, donor type, donor heavy atom, donor atom, acceptor molecule, acceptor atom, score
      L1  H     8    31       P1 10175  0.25
      L1  H    11    32       P1 10175  1.00
      L1  H    22    47       P1 10186  2.00
      P1  H  8011  8017       L1    16  0.55

> <Gold.PLP.Chemscore.Internal.Correction>
0.2666

> <Gold.Rescore>
     Score         DG    S(hbond)    S(metal)    S(lipo)     H(rot)  DE(clash)    DE(int)     intcor
     15.05     -23.57       2.83        0.00      95.68       1.00       5.41       3.11       ----

> <Gold.Chemscore.Fitness>
15.0523

> <Gold.Chemscore.DG>
-23.5735

> <Gold.Chemscore.ZeroCoef>
-5.4800

> <Gold.Chemscore.Hbond>
2.8319

> <Gold.Chemscore.Metal>
0.0000

> <Gold.Chemscore.Lipo>
95.6827

> <Gold.Chemscore.Internal_Hbond>
0.0000

> <Gold.Chemscore.DEClash>
5.4110

> <Gold.Chemscore.DEInternal>
3.1103

> <Gold.Chemscore.Rot>
1.0000

> <Gold.Chemscore.Internal.Correction>
   9.000000E+99

> <Gold.Chemscore.Hbonds>
donor molecule, donor type, donor heavy atom, donor atom, acceptor molecule, acceptor atom, score
      L1  H     8    31       P1 10175  0.25
      L1  H    11    32       P1 10175  1.00
      L1  H    22    47       P1 10186  0.87
      P1  H  8011  8017       L1    16  0.44

> <Gold.Chemscore.Hbond.Weighted>
-9.4587

> <Gold.Chemscore.Metal.Weighted>
-0.0000

> <Gold.Chemscore.Lipo.Weighted>
-11.1949

> <Gold.Chemscore.Internal_Hbond.Weighted>
0.0000

> <Gold.Chemscore.DEClash.Weighted>
5.4110

> <Gold.Chemscore.DEInternal.Weighted>
3.1103

> <Gold.Chemscore.Rot.Weighted>
2.5600

> <Gold.Chemscore.Internal.Correction.Weighted>
   9.000000E+99

> <Gold.Protein.RotatedTorsions>
[ 6907 6896 6895 6894 ] final -103.92 input  -60.11 | X-H torsion
[ 7974 7965 7964 7962 ] final  106.46 input  175.53 | X-H torsion
[ 8008 7997 7996 7995 ] final   22.22 input   59.86 | X-H torsion
[ 10167 10162 10161 10158 ] final -120.00 input  -65.29 | X-H torsion
[ 10718 10713 10712 10709 ] final  -92.68 input   66.30 | X-H torsion
[ 10763 10752 10751 10750 ] final   24.89 input  -60.55 | X-H torsion
[ 11005 11000 10999 10996 ] final  -26.23 input  -57.11 | X-H torsion

> <Gold.Protein.ActiveResidues>
 VAL166  LYS551  ARG553  GLY616  TRP617  ASP618  TYR619  PRO620  LYS621  CYS622 
 ASP623  PHE694  ASN695  SER759  ASP760  ASP761  ALA762  ILE779  LEU786  VAL792 
 PHE793  MET794  SER795  GLU796  ALA797  LYS798  CYS799  TRP800  GLU811  SER814 

> <Gold.Protein.RotatedAtoms>
  150.7263  134.0356  159.3747 H   0  0  0  0  0  0  0  0  0  0  0  0  # atno 6907 bound_to 6896
  151.8327  135.0614  160.0448 H   0  0  0  0  0  0  0  0  0  0  0  0  # atno 6908 bound_to 6896
  152.2921  133.5536  159.5601 H   0  0  0  0  0  0  0  0  0  0  0  0  # atno 6909 bound_to 6896
  145.3063  139.2554  143.3787 H   0  0  0  0  0  0  0  0  0  0  0  0  # atno 7974 bound_to 7965
  154.9624  140.3079  155.5025 H   0  0  0  0  0  0  0  0  0  0  0  0  # atno 8008 bound_to 7997
  156.2975  140.2299  156.4649 H   0  0  0  0  0  0  0  0  0  0  0  0  # atno 8009 bound_to 7997
  154.7952  140.0437  157.1220 H   0  0  0  0  0  0  0  0  0  0  0  0  # atno 8010 bound_to 7997
  140.0405  143.5158  152.2132 H   0  0  0  0  0  0  0  0  0  0  0  0  # atno 10167 bound_to 10162
  156.0005  130.4996  150.5662 H   0  0  0  0  0  0  0  0  0  0  0  0  # atno 10718 bound_to 10713
  153.0731  135.6595  154.0204 H   0  0  0  0  0  0  0  0  0  0  0  0  # atno 10763 bound_to 10752
  153.9844  135.2952  155.3419 H   0  0  0  0  0  0  0  0  0  0  0  0  # atno 10764 bound_to 10752
  154.7112  135.5204  153.8739 H   0  0  0  0  0  0  0  0  0  0  0  0  # atno 10765 bound_to 10752
  140.9010  133.7524  156.0544 H   0  0  0  0  0  0  0  0  0  0  0  0  # atno 11005 bound_to 11000
  146.3134  140.3589  142.8663 LP  0  0  0  0  0  0  0  0  0  0  0  0  # atno 17320 bound_to 7965
  144.9052  140.7691  143.5842 LP  0  0  0  0  0  0  0  0  0  0  0  0  # atno 17321 bound_to 7965
  139.6017  144.7584  151.3157 LP  0  0  0  0  0  0  0  0  0  0  0  0  # atno 17342 bound_to 10162
  140.7262  143.6997  150.7855 LP  0  0  0  0  0  0  0  0  0  0  0  0  # atno 17343 bound_to 10162
  157.3564  131.0742  151.1672 LP  0  0  0  0  0  0  0  0  0  0  0  0  # atno 17370 bound_to 10713
  157.2472  130.6597  149.5915 LP  0  0  0  0  0  0  0  0  0  0  0  0  # atno 17371 bound_to 10713
  140.8230  134.3267  157.5375 LP  0  0  0  0  0  0  0  0  0  0  0  0  # atno 17394 bound_to 11000
  139.8742  134.9320  156.3542 LP  0  0  0  0  0  0  0  0  0  0  0  0  # atno 17395 bound_to 11000

$$$$
