AV-unprocessed.smi:229|AV-procd|sdf|1754|dock1
  -GOLD-   2262020273D 1   1.00000     0.00000
 Structure written by MMmdl.
 58 62  0  0  0  0  0  0  0  0  1 V2000
  145.5722  135.1850  156.6921 C   0  0  0  0  0  0  0  0  0  0  0  0
  145.8032  135.3657  155.1864 C   0  0  0  0  0  0  0  0  0  0  0  0
  147.2807  135.2345  154.7887 C   0  0  1  0  0  0  0  0  0  0  0  0
  148.1302  136.3858  155.3513 C   0  0  0  0  0  0  0  0  0  0  0  0
  149.5317  136.1596  155.0303 N   0  0  0  0  0  0  0  0  0  0  0  0
  150.3605  137.1965  155.2728 C   0  0  0  0  0  0  0  0  0  0  0  0
  151.4841  137.2712  154.5185 N   0  0  0  0  0  0  0  0  0  0  0  0
  152.3509  138.2707  154.7083 C   0  0  0  0  0  0  0  0  0  0  0  0
  152.2885  139.2754  155.5849 N   0  0  0  0  0  0  0  0  0  0  0  0
  151.1642  139.1946  156.3534 C   0  0  0  0  0  0  0  0  0  0  0  0
  150.1542  138.1952  156.2669 C   0  0  0  0  0  0  0  0  0  0  0  0
  149.1686  138.4357  157.2173 N   0  0  0  0  0  0  0  0  0  0  0  0
  149.5694  139.5187  157.8255 C   0  0  0  0  0  0  0  0  0  0  0  0
  150.7590  140.0399  157.3713 N   0  0  0  0  0  0  0  0  0  0  0  0
  151.4338  141.2247  157.8714 C   0  0  0  0  0  0  0  0  0  0  0  0
  151.3349  142.4125  156.8941 C   0  0  1  0  0  0  0  0  0  0  0  0
  150.1176  142.3717  156.1723 O   0  0  0  0  0  0  0  0  0  0  0  0
  151.5032  143.7803  157.5880 C   0  0  1  0  0  0  0  0  0  0  0  0
  150.4425  144.1235  158.6482 C   0  0  0  0  0  0  0  0  0  0  0  0
  151.2458  144.2470  159.9289 C   0  0  0  0  0  0  0  0  0  0  0  0
  152.6214  144.6476  159.4133 C   0  0  0  0  0  0  0  0  0  0  0  0
  152.7679  143.8627  158.2409 O   0  0  0  0  0  0  0  0  0  0  0  0
  150.0260  134.8930  155.5486 C   0  0  0  0  0  0  0  0  0  0  0  0
  149.1589  133.7223  155.0365 C   0  0  1  0  0  0  0  0  0  0  0  0
  149.4037  133.3488  153.5779 C   0  0  0  0  0  0  0  0  0  0  0  0
  148.9315  131.9036  153.5375 C   0  0  0  0  0  0  0  0  0  0  0  0
  149.3907  131.3612  154.7660 O   0  0  0  0  0  0  0  0  0  0  0  0
  149.4890  132.3970  155.7416 C   0  0  0  0  0  0  0  0  0  0  0  0
  147.7763  133.9951  155.3008 O   0  0  0  0  0  0  0  0  0  0  0  0
  144.5122  135.2654  156.9336 H   0  0  0  0  0  0  0  0  0  0  0  0
  146.1022  135.9439  157.2685 H   0  0  0  0  0  0  0  0  0  0  0  0
  145.9166  134.2070  157.0292 H   0  0  0  0  0  0  0  0  0  0  0  0
  145.2179  134.6174  154.6507 H   0  0  0  0  0  0  0  0  0  0  0  0
  145.4212  136.3375  154.8719 H   0  0  0  0  0  0  0  0  0  0  0  0
  147.3422  135.2447  153.7009 H   0  0  0  0  0  0  0  0  0  0  0  0
  147.8023  137.3384  154.9327 H   0  0  0  0  0  0  0  0  0  0  0  0
  147.9978  136.4420  156.4317 H   0  0  0  0  0  0  0  0  0  0  0  0
  153.2190  138.2648  154.0658 H   0  0  0  0  0  0  0  0  0  0  0  0
  149.0073  139.9683  158.6312 H   0  0  0  0  0  0  0  0  0  0  0  0
  151.0066  141.4861  158.8402 H   0  0  0  0  0  0  0  0  0  0  0  0
  152.4792  140.9715  158.0514 H   0  0  0  0  0  0  0  0  0  0  0  0
  152.1323  142.3154  156.1563 H   0  0  0  0  0  0  0  0  0  0  0  0
  149.8652  143.2568  155.9590 H   0  0  0  0  0  0  0  0  0  0  0  0
  151.4886  144.5602  156.8249 H   0  0  0  0  0  0  0  0  0  0  0  0
  149.9764  145.0797  158.4070 H   0  0  0  0  0  0  0  0  0  0  0  0
  149.6459  143.3836  158.7305 H   0  0  0  0  0  0  0  0  0  0  0  0
  150.8252  144.9671  160.6312 H   0  0  0  0  0  0  0  0  0  0  0  0
  151.3048  143.2781  160.4262 H   0  0  0  0  0  0  0  0  0  0  0  0
  152.6462  145.7063  159.1501 H   0  0  0  0  0  0  0  0  0  0  0  0
  153.4167  144.4496  160.1321 H   0  0  0  0  0  0  0  0  0  0  0  0
  151.0696  134.7483  155.2650 H   0  0  0  0  0  0  0  0  0  0  0  0
  149.9956  134.9247  156.6389 H   0  0  0  0  0  0  0  0  0  0  0  0
  148.9001  133.9810  152.8488 H   0  0  0  0  0  0  0  0  0  0  0  0
  150.4712  133.3850  153.3562 H   0  0  0  0  0  0  0  0  0  0  0  0
  147.8420  131.8548  153.5068 H   0  0  0  0  0  0  0  0  0  0  0  0
  149.3247  131.3533  152.6829 H   0  0  0  0  0  0  0  0  0  0  0  0
  150.5125  132.3958  156.1186 H   0  0  0  0  0  0  0  0  0  0  0  0
  148.8285  132.2028  156.5876 H   0  0  0  0  0  0  0  0  0  0  0  0
  1  2  1  0  0  0  0
  1 30  1  0  0  0  0
  1 31  1  0  0  0  0
  1 32  1  0  0  0  0
  2  3  1  0  0  0  0
  2 33  1  0  0  0  0
  2 34  1  0  0  0  0
  3 29  1  0  0  0  0
  3  4  1  0  0  0  0
  3 35  1  0  0  0  0
  4  5  1  0  0  0  0
  4 36  1  0  0  0  0
  4 37  1  0  0  0  0
  5  6  1  0  0  0  0
  5 23  1  0  0  0  0
  6 11  1  0  0  0  0
  6  7  2  0  0  0  0
  7  8  1  0  0  0  0
  8  9  2  0  0  0  0
  8 38  1  0  0  0  0
  9 10  1  0  0  0  0
 10 14  1  0  0  0  0
 10 11  2  0  0  0  0
 11 12  1  0  0  0  0
 12 13  2  0  0  0  0
 13 14  1  0  0  0  0
 13 39  1  0  0  0  0
 14 15  1  0  0  0  0
 15 16  1  0  0  0  0
 15 40  1  0  0  0  0
 15 41  1  0  0  0  0
 16 17  1  0  0  0  0
 16 18  1  0  0  0  0
 16 42  1  0  0  0  0
 17 43  1  0  0  0  0
 18 22  1  0  0  0  0
 18 19  1  0  0  0  0
 18 44  1  0  0  0  0
 19 20  1  0  0  0  0
 19 45  1  0  0  0  0
 19 46  1  0  0  0  0
 20 21  1  0  0  0  0
 20 47  1  0  0  0  0
 20 48  1  0  0  0  0
 21 22  1  0  0  0  0
 21 49  1  0  0  0  0
 21 50  1  0  0  0  0
 23 24  1  0  0  0  0
 23 51  1  0  0  0  0
 23 52  1  0  0  0  0
 24 28  1  0  0  0  0
 24 25  1  0  0  0  0
 24 29  1  0  0  0  0
 25 26  1  0  0  0  0
 25 53  1  0  0  0  0
 25 54  1  0  0  0  0
 26 27  1  0  0  0  0
 26 55  1  0  0  0  0
 26 56  1  0  0  0  0
 27 28  1  0  0  0  0
 28 57  1  0  0  0  0
 28 58  1  0  0  0  0
M  END
> <s_m_source_file>
AV-unprocessed.smi

> <i_m_source_file_index>
229

> <i_lp_mmshare_version>
43012

> <i_f3d_flags>
0

> <s_epik_input>
W0NIMl0xT1tDSDJdW0NIMl1bQ0BdMTJbQ0gyXU4oW0NIMl1bQ0BIXShPMilbQ0gyXVtDSDNdKWMobltjSF1uMyljKGMzNCluW2NIXW40W0NIMl1bQ0BIXShbT0hdKVtDQEBIXTVbQ0gyXVtDSDJdW0NIMl1PNQ==

> <s_epik_cmdline>
J2VwaWtfcHl0aG9uJywgJy1waCcsICc3LjAnLCAnLXRuJywgJzgnLCAnLW1hJywgJzIwMCcsICctbWV0YWxfYmluZGluZycsICctaW1hZScsICc8aW5maWxlLm1hZT4nLCAnLW9tYWUnLCAnPG91dGZpbGUubWFlPic=

> <r_lp_tautomer_probability>
1

> <r_epik_Ionization_Penalty>
0.00318402

> <r_epik_Ionization_Penalty_Charging>
0

> <r_epik_Ionization_Penalty_Neutral>
0.00318402

> <r_epik_State_Penalty>
0.00215642

> <r_epik_Charging_Adjusted_Penalty>
0.00215642

> <i_epik_Tot_Q>
0

> <i_epik_Tot_abs_Q>
0

> <r_epik_Metal_State_Penalty>
-0

> <b_epik_Metal_Only>
0

> <s_lp_Force_Field>
OPLS_2005

> <r_lp_Energy>
59.0026

> <b_lp_Chiralities_Consistent>
1

> <s_lp_Variant>
AV-unprocessed.smi:229-8

> <Gold.Version>
5.8.1

> <Gold.Id.Protein>
6NUR|6NUR_protein|mol2

> <Gold.PLP.Fitness>
42.4061

> <Gold.PLP.PLP>
-39.8070

> <Gold.PLP.part.hbond>
-1.5569

> <Gold.PLP.part.metal>
0.0000

> <Gold.PLP.part.buried>
-9.1339

> <Gold.PLP.part.nonpolar>
-29.2160

> <Gold.PLP.part.repulsive>
0.3982

> <Gold.PLP.ligand.clash>
0.0000

> <Gold.PLP.ligand.torsion>
1.0389

> <Gold.PLP.Chemscore.Hbond>
1.4786

> <Gold.PLP.Chemscore.CHOScore>
0.0000

> <Gold.PLP.Chemscore.Metal>
0.0000

> <Gold.Chemscore.Hbonds>
donor molecule, donor type, donor heavy atom, donor atom, acceptor molecule, acceptor atom, score
      L1  H    17    43       P1  8028  1.00
      P1  H 10752 10765       L1     7  0.48

> <Gold.PLP.Chemscore.Internal.Correction>
0.2412

> <Gold.Rescore>
     Score         DG    S(hbond)    S(metal)    S(lipo)     H(rot)  DE(clash)    DE(int)     intcor
     11.26     -13.29       1.02        0.00      91.33       2.46       0.00       2.03       ----

> <Gold.Chemscore.Fitness>
11.2628

> <Gold.Chemscore.DG>
-13.2903

> <Gold.Chemscore.ZeroCoef>
-5.4800

> <Gold.Chemscore.Hbond>
1.0241

> <Gold.Chemscore.Metal>
0.0000

> <Gold.Chemscore.Lipo>
91.3251

> <Gold.Chemscore.Internal_Hbond>
0.0000

> <Gold.Chemscore.DEClash>
0.0000

> <Gold.Chemscore.DEInternal>
2.0275

> <Gold.Chemscore.Rot>
2.4591

> <Gold.Chemscore.Internal.Correction>
   9.000000E+99

> <Gold.Chemscore.Hbonds>
donor molecule, donor type, donor heavy atom, donor atom, acceptor molecule, acceptor atom, score
      L1  H    17    43       P1  8028  1.00
      P1  H 10752 10765       L1     7  0.08

> <Gold.Chemscore.Hbond.Weighted>
-3.4206

> <Gold.Chemscore.Metal.Weighted>
-0.0000

> <Gold.Chemscore.Lipo.Weighted>
-10.6850

> <Gold.Chemscore.Internal_Hbond.Weighted>
0.0000

> <Gold.Chemscore.DEClash.Weighted>
0.0000

> <Gold.Chemscore.DEInternal.Weighted>
2.0275

> <Gold.Chemscore.Rot.Weighted>
6.2953

> <Gold.Chemscore.Internal.Correction.Weighted>
   9.000000E+99

> <Gold.Protein.RotatedTorsions>
[ 6907 6896 6895 6894 ] final -139.62 input  -60.11 | X-H torsion
[ 7974 7965 7964 7962 ] final -101.98 input  175.53 | X-H torsion
[ 8008 7997 7996 7995 ] final  -84.16 input   59.86 | X-H torsion
[ 10167 10162 10161 10158 ] final  -83.96 input  -65.29 | X-H torsion
[ 10718 10713 10712 10709 ] final  160.39 input   66.30 | X-H torsion
[ 10763 10752 10751 10750 ] final  153.16 input  -60.55 | X-H torsion
[ 11005 11000 10999 10996 ] final  -33.34 input  -57.11 | X-H torsion

> <Gold.Protein.ActiveResidues>
 VAL166  LYS551  ARG553  GLY616  TRP617  ASP618  TYR619  PRO620  LYS621  CYS622 
 ASP623  PHE694  ASN695  SER759  ASP760  ASP761  ALA762  ILE779  LEU786  VAL792 
 PHE793  MET794  SER795  GLU796  ALA797  LYS798  CYS799  TRP800  GLU811  SER814 

> <Gold.Protein.RotatedAtoms>
  151.0501  133.5631  159.2642 H   0  0  0  0  0  0  0  0  0  0  0  0  # atno 6907 bound_to 6896
  151.2645  135.0664  159.9121 H   0  0  0  0  0  0  0  0  0  0  0  0  # atno 6908 bound_to 6896
  152.5380  134.0241  159.8049 H   0  0  0  0  0  0  0  0  0  0  0  0  # atno 6909 bound_to 6896
  145.2747  140.9309  143.2966 H   0  0  0  0  0  0  0  0  0  0  0  0  # atno 7974 bound_to 7965
  154.6268  140.0609  156.9683 H   0  0  0  0  0  0  0  0  0  0  0  0  # atno 8008 bound_to 7997
  155.1729  140.3292  155.4371 H   0  0  0  0  0  0  0  0  0  0  0  0  # atno 8009 bound_to 7997
  156.2461  140.1911  156.6830 H   0  0  0  0  0  0  0  0  0  0  0  0  # atno 8010 bound_to 7997
  140.4177  143.2597  151.8932 H   0  0  0  0  0  0  0  0  0  0  0  0  # atno 10167 bound_to 10162
  157.1511  131.0564  151.2279 H   0  0  0  0  0  0  0  0  0  0  0  0  # atno 10718 bound_to 10713
  154.1318  135.2826  155.3183 H   0  0  0  0  0  0  0  0  0  0  0  0  # atno 10763 bound_to 10752
  154.6350  135.5422  153.7727 H   0  0  0  0  0  0  0  0  0  0  0  0  # atno 10764 bound_to 10752
  153.0279  135.6472  154.1468 H   0  0  0  0  0  0  0  0  0  0  0  0  # atno 10765 bound_to 10752
  140.9627  133.7155  156.1395 H   0  0  0  0  0  0  0  0  0  0  0  0  # atno 11005 bound_to 11000
  144.9305  139.4304  143.6497 LP  0  0  0  0  0  0  0  0  0  0  0  0  # atno 17320 bound_to 7965
  146.3235  139.8213  142.8926 LP  0  0  0  0  0  0  0  0  0  0  0  0  # atno 17321 bound_to 7965
  139.4782  144.5470  151.8443 LP  0  0  0  0  0  0  0  0  0  0  0  0  # atno 17342 bound_to 10162
  140.4568  144.1778  150.5902 LP  0  0  0  0  0  0  0  0  0  0  0  0  # atno 17343 bound_to 10162
  157.4219  130.7442  149.6920 LP  0  0  0  0  0  0  0  0  0  0  0  0  # atno 17370 bound_to 10713
  155.9770  130.4068  150.3739 LP  0  0  0  0  0  0  0  0  0  0  0  0  # atno 17371 bound_to 10713
  140.7444  134.4114  157.5550 LP  0  0  0  0  0  0  0  0  0  0  0  0  # atno 17394 bound_to 11000
  139.8883  134.8858  156.2478 LP  0  0  0  0  0  0  0  0  0  0  0  0  # atno 17395 bound_to 11000

$$$$
