AV-unprocessed.smi:690|AV-procd|sdf|3362|dock9
  -GOLD-   22720 0343D 1   1.00000     0.00000
 Structure written by MMmdl.
 46 48  0  0  0  0  0  0  0  0  1 V2000
  144.5424  144.4285  154.0047 C   0  0  0  0  0  0  0  0  0  0  0  0
  144.3197  143.3708  155.0876 C   0  0  0  0  0  0  0  0  0  0  0  0
  145.1021  142.2301  154.7787 O   0  0  0  0  0  0  0  0  0  0  0  0
  145.7729  141.6980  155.9101 C   0  0  2  0  0  0  0  0  0  0  0  0
  146.4101  142.7443  156.8298 C   0  0  0  0  0  0  0  0  0  0  0  0
  147.5530  141.7381  156.9965 C   0  0  2  0  0  0  0  0  0  0  0  0
  148.8656  142.3677  157.0771 N   0  0  0  0  0  0  0  0  0  0  0  0
  150.0160  141.7050  157.2593 C   0  0  0  0  0  0  0  0  0  0  0  0
  150.0750  140.4818  157.3901 O   0  0  0  0  0  0  0  0  0  0  0  0
  151.2856  142.5653  157.3251 C   0  0  0  0  0  0  0  0  0  0  0  0
  152.0217  142.4131  158.5909 N   0  0  0  0  0  0  0  0  0  0  0  0
  151.9871  143.4981  159.4897 C   0  0  0  0  0  0  0  0  0  0  0  0
  152.6212  143.4606  160.6722 C   0  0  0  0  0  0  0  0  0  0  0  0
  153.3553  142.2657  161.0157 C   0  0  0  0  0  0  0  0  0  0  0  0
  153.3932  141.2214  160.1642 C   0  0  0  0  0  0  0  0  0  0  0  0
  152.7005  141.2576  158.8710 C   0  0  0  0  0  0  0  0  0  0  0  0
  152.7295  140.3081  158.0875 O   0  0  0  0  0  0  0  0  0  0  0  0
  147.1987  141.1793  155.5963 C   0  0  0  0  0  0  0  0  0  0  0  0
  147.9000  141.7540  154.3581 C   0  0  0  0  0  0  0  0  0  0  0  0
  147.5811  140.8099  153.1973 C   0  0  0  0  0  0  0  0  0  0  0  0
  147.2828  139.4525  153.8429 C   0  0  0  0  0  0  0  0  0  0  0  0
  147.3511  139.6811  155.3572 C   0  0  0  0  0  0  0  0  0  0  0  0
  143.9503  145.3216  154.2047 H   0  0  0  0  0  0  0  0  0  0  0  0
  144.2558  144.0493  153.0237 H   0  0  0  0  0  0  0  0  0  0  0  0
  145.5904  144.7250  153.9571 H   0  0  0  0  0  0  0  0  0  0  0  0
  144.6004  143.7711  156.0626 H   0  0  0  0  0  0  0  0  0  0  0  0
  143.2636  143.1012  155.1319 H   0  0  0  0  0  0  0  0  0  0  0  0
  145.1763  140.9642  156.4575 H   0  0  0  0  0  0  0  0  0  0  0  0
  146.6991  143.6587  156.3080 H   0  0  0  0  0  0  0  0  0  0  0  0
  145.8496  142.9550  157.7407 H   0  0  0  0  0  0  0  0  0  0  0  0
  147.3554  141.0146  157.7914 H   0  0  0  0  0  0  0  0  0  0  0  0
  148.9003  143.3724  156.9838 H   0  0  0  0  0  0  0  0  0  0  0  0
  151.9372  142.3234  156.4830 H   0  0  0  0  0  0  0  0  0  0  0  0
  150.9963  143.6057  157.1716 H   0  0  0  0  0  0  0  0  0  0  0  0
  151.4112  144.3509  159.1608 H   0  0  0  0  0  0  0  0  0  0  0  0
  152.5801  144.3001  161.3505 H   0  0  0  0  0  0  0  0  0  0  0  0
  153.8754  142.2084  161.9606 H   0  0  0  0  0  0  0  0  0  0  0  0
  153.9464  140.3352  160.4386 H   0  0  0  0  0  0  0  0  0  0  0  0
  147.5999  142.7781  154.1346 H   0  0  0  0  0  0  0  0  0  0  0  0
  148.9808  141.7685  154.5036 H   0  0  0  0  0  0  0  0  0  0  0  0
  146.7000  141.1635  152.6605 H   0  0  0  0  0  0  0  0  0  0  0  0
  148.4019  140.7561  152.4815 H   0  0  0  0  0  0  0  0  0  0  0  0
  146.2872  139.1149  153.5526 H   0  0  0  0  0  0  0  0  0  0  0  0
  147.9929  138.6877  153.5274 H   0  0  0  0  0  0  0  0  0  0  0  0
  148.3196  139.3450  155.7304 H   0  0  0  0  0  0  0  0  0  0  0  0
  146.5943  139.0957  155.8802 H   0  0  0  0  0  0  0  0  0  0  0  0
  1  2  1  0  0  0  0
  1 23  1  0  0  0  0
  1 24  1  0  0  0  0
  1 25  1  0  0  0  0
  2  3  1  0  0  0  0
  2 26  1  0  0  0  0
  2 27  1  0  0  0  0
  3  4  1  0  0  0  0
  4 18  1  0  0  0  0
  4  5  1  0  0  0  0
  4 28  1  0  0  0  0
  5  6  1  0  0  0  0
  5 29  1  0  0  0  0
  5 30  1  0  0  0  0
  6  7  1  0  0  0  0
  6 18  1  0  0  0  0
  6 31  1  0  0  0  0
  7  8  1  0  0  0  0
  7 32  1  0  0  0  0
  8  9  2  0  0  0  0
  8 10  1  0  0  0  0
 10 11  1  0  0  0  0
 10 33  1  0  0  0  0
 10 34  1  0  0  0  0
 11 16  1  0  0  0  0
 11 12  1  0  0  0  0
 12 13  2  0  0  0  0
 12 35  1  0  0  0  0
 13 14  1  0  0  0  0
 13 36  1  0  0  0  0
 14 15  2  0  0  0  0
 14 37  1  0  0  0  0
 15 16  1  0  0  0  0
 15 38  1  0  0  0  0
 16 17  2  0  0  0  0
 18 22  1  0  0  0  0
 18 19  1  0  0  0  0
 19 20  1  0  0  0  0
 19 39  1  0  0  0  0
 19 40  1  0  0  0  0
 20 21  1  0  0  0  0
 20 41  1  0  0  0  0
 20 42  1  0  0  0  0
 21 22  1  0  0  0  0
 21 43  1  0  0  0  0
 21 44  1  0  0  0  0
 22 45  1  0  0  0  0
 22 46  1  0  0  0  0
M  END
> <s_m_source_file>
AV-unprocessed.smi

> <i_m_source_file_index>
690

> <i_lp_mmshare_version>
43012

> <i_f3d_flags>
0

> <s_epik_input>
W0NIMl0xW0NIMl1bQ0gyXVtDSDJdQzEyW0NASF0oT1tDSDJdW0NIM10pW0NIMl1bQ0BIXTJbTkhdQyg9TylbQ0gyXW4zW2NIXVtjSF1bY0hdW2NIXWMzPU8=

> <s_epik_cmdline>
J2VwaWtfcHl0aG9uJywgJy1waCcsICc3LjAnLCAnLXRuJywgJzgnLCAnLW1hJywgJzIwMCcsICctbWV0YWxfYmluZGluZycsICctaW1hZScsICc8aW5maWxlLm1hZT4nLCAnLW9tYWUnLCAnPG91dGZpbGUubWFlPic=

> <r_lp_tautomer_probability>
1

> <r_epik_Ionization_Penalty>
4.11691e-07

> <r_epik_Ionization_Penalty_Charging>
3.92797e-07

> <r_epik_Ionization_Penalty_Neutral>
1.88943e-08

> <r_epik_State_Penalty>
-0

> <r_epik_Charging_Adjusted_Penalty>
3.92797e-07

> <i_epik_Tot_Q>
0

> <i_epik_Tot_abs_Q>
0

> <r_epik_Metal_State_Penalty>
-0

> <b_epik_Metal_Only>
0

> <s_lp_Force_Field>
OPLS_2005

> <r_lp_Energy>
45.5322

> <b_lp_Chiralities_Consistent>
1

> <s_lp_Variant>
AV-unprocessed.smi:690-3

> <Gold.Version>
5.8.1

> <Gold.Id.Protein>
6NUR|6NUR_protein|mol2

> <Gold.PLP.Fitness>
42.7073

> <Gold.PLP.PLP>
-38.7504

> <Gold.PLP.part.hbond>
-2.0000

> <Gold.PLP.part.metal>
0.0000

> <Gold.PLP.part.buried>
-4.5706

> <Gold.PLP.part.nonpolar>
-31.7175

> <Gold.PLP.part.repulsive>
0.2169

> <Gold.PLP.ligand.clash>
0.0000

> <Gold.PLP.ligand.torsion>
0.9301

> <Gold.PLP.Chemscore.Hbond>
1.8240

> <Gold.PLP.Chemscore.CHOScore>
0.0000

> <Gold.PLP.Chemscore.Metal>
0.0000

> <Gold.Chemscore.Hbonds>
donor molecule, donor type, donor heavy atom, donor atom, acceptor molecule, acceptor atom, score
      L1  H     7    32       P1  8028  0.83
      P1  H  7997  8010       L1    17  0.68

> <Gold.PLP.Chemscore.Internal.Correction>
0.3452

> <Gold.Rescore>
     Score         DG    S(hbond)    S(metal)    S(lipo)     H(rot)  DE(clash)    DE(int)     intcor
     15.01     -18.70       1.69        0.00     101.62       1.69       1.43       2.25       ----

> <Gold.Chemscore.Fitness>
15.0114

> <Gold.Chemscore.DG>
-18.6977

> <Gold.Chemscore.ZeroCoef>
-5.4800

> <Gold.Chemscore.Hbond>
1.6930

> <Gold.Chemscore.Metal>
0.0000

> <Gold.Chemscore.Lipo>
101.6202

> <Gold.Chemscore.Internal_Hbond>
0.0000

> <Gold.Chemscore.DEClash>
1.4345

> <Gold.Chemscore.DEInternal>
2.2519

> <Gold.Chemscore.Rot>
1.6900

> <Gold.Chemscore.Internal.Correction>
   9.000000E+99

> <Gold.Chemscore.Hbonds>
donor molecule, donor type, donor heavy atom, donor atom, acceptor molecule, acceptor atom, score
      L1  H     7    32       P1  8028  0.54
      P1  H  7997  8010       L1    17  0.62

> <Gold.Chemscore.Hbond.Weighted>
-5.6546

> <Gold.Chemscore.Metal.Weighted>
-0.0000

> <Gold.Chemscore.Lipo.Weighted>
-11.8896

> <Gold.Chemscore.Internal_Hbond.Weighted>
0.0000

> <Gold.Chemscore.DEClash.Weighted>
1.4345

> <Gold.Chemscore.DEInternal.Weighted>
2.2519

> <Gold.Chemscore.Rot.Weighted>
4.3265

> <Gold.Chemscore.Internal.Correction.Weighted>
   9.000000E+99

> <Gold.Protein.RotatedTorsions>
[ 6907 6896 6895 6894 ] final -171.17 input  -60.11 | X-H torsion
[ 7974 7965 7964 7962 ] final   28.46 input  175.53 | X-H torsion
[ 8008 7997 7996 7995 ] final   41.38 input   59.86 | X-H torsion
[ 10167 10162 10161 10158 ] final   15.56 input  -65.29 | X-H torsion
[ 10718 10713 10712 10709 ] final -109.87 input   66.30 | X-H torsion
[ 10763 10752 10751 10750 ] final   20.08 input  -60.55 | X-H torsion
[ 11005 11000 10999 10996 ] final -144.86 input  -57.11 | X-H torsion

> <Gold.Protein.ActiveResidues>
 VAL166  LYS551  ARG553  GLY616  TRP617  ASP618  TYR619  PRO620  LYS621  CYS622 
 ASP623  PHE694  ASN695  SER759  ASP760  ASP761  ALA762  ILE779  LEU786  VAL792 
 PHE793  MET794  SER795  GLU796  ALA797  LYS798  CYS799  TRP800  GLU811  SER814 

> <Gold.Protein.RotatedAtoms>
  151.5195  133.3469  159.2898 H   0  0  0  0  0  0  0  0  0  0  0  0  # atno 6907 bound_to 6896
  150.8662  134.8028  159.7131 H   0  0  0  0  0  0  0  0  0  0  0  0  # atno 6908 bound_to 6896
  152.4665  134.5071  159.9794 H   0  0  0  0  0  0  0  0  0  0  0  0  # atno 6909 bound_to 6896
  146.1728  139.7053  142.8956 H   0  0  0  0  0  0  0  0  0  0  0  0  # atno 7974 bound_to 7965
  155.2687  140.3364  155.4267 H   0  0  0  0  0  0  0  0  0  0  0  0  # atno 8008 bound_to 7997
  156.2142  140.1782  156.7668 H   0  0  0  0  0  0  0  0  0  0  0  0  # atno 8009 bound_to 7997
  154.5730  140.0667  156.8977 H   0  0  0  0  0  0  0  0  0  0  0  0  # atno 8010 bound_to 7997
  140.5858  143.8891  150.6829 H   0  0  0  0  0  0  0  0  0  0  0  0  # atno 10167 bound_to 10162
  156.0560  130.5786  150.8159 H   0  0  0  0  0  0  0  0  0  0  0  0  # atno 10718 bound_to 10713
  153.1108  135.6696  153.9504 H   0  0  0  0  0  0  0  0  0  0  0  0  # atno 10763 bound_to 10752
  153.9048  135.3032  155.3450 H   0  0  0  0  0  0  0  0  0  0  0  0  # atno 10764 bound_to 10752
  154.7527  135.5027  153.9396 H   0  0  0  0  0  0  0  0  0  0  0  0  # atno 10765 bound_to 10752
  140.7981  134.2889  157.4989 H   0  0  0  0  0  0  0  0  0  0  0  0  # atno 11005 bound_to 11000
  145.4295  141.0414  143.2919 LP  0  0  0  0  0  0  0  0  0  0  0  0  # atno 17320 bound_to 7965
  144.8189  139.5828  143.6996 LP  0  0  0  0  0  0  0  0  0  0  0  0  # atno 17321 bound_to 7965
  140.2402  143.3669  152.1493 LP  0  0  0  0  0  0  0  0  0  0  0  0  # atno 17342 bound_to 10162
  139.5197  144.7023  151.5457 LP  0  0  0  0  0  0  0  0  0  0  0  0  # atno 17343 bound_to 10162
  157.5530  131.0944  150.9669 LP  0  0  0  0  0  0  0  0  0  0  0  0  # atno 17370 bound_to 10713
  156.9924  130.5568  149.5304 LP  0  0  0  0  0  0  0  0  0  0  0  0  # atno 17371 bound_to 10713
  139.8724  134.9414  156.3795 LP  0  0  0  0  0  0  0  0  0  0  0  0  # atno 17394 bound_to 11000
  140.9322  133.7571  156.0039 LP  0  0  0  0  0  0  0  0  0  0  0  0  # atno 17395 bound_to 11000

$$$$
