AV-unprocessed.smi:2976|AV-procd|sdf|11360|dock1
  -GOLD-   2272016273D 1   1.00000     0.00000
 Structure written by MMmdl.
 40 41  0  0  0  0  0  0  0  0  1 V2000
  151.9033  145.2868  159.1445 C   0  0  0  0  0  0  0  0  0  0  0  0
  152.3057  143.8208  158.9119 C   0  0  1  0  0  0  0  0  0  0  0  0
  152.4364  143.0465  160.2389 C   0  0  0  0  0  0  0  0  0  0  0  0
  152.9391  141.6132  160.0063 C   0  0  0  0  0  0  0  0  0  0  0  0
  152.0536  140.8612  159.0017 C   0  0  0  0  0  0  0  0  0  0  0  0
  151.9279  141.6364  157.6758 C   0  0  1  0  0  0  0  0  0  0  0  0
  151.1028  140.8785  156.7386 N   0  0  0  0  0  0  0  0  0  0  0  0
  151.5455  139.9172  155.9141 C   0  0  0  0  0  0  0  0  0  0  0  0
  152.7150  139.5317  155.8892 O   0  0  0  0  0  0  0  0  0  0  0  0
  150.4977  139.2909  154.9836 C   0  0  0  0  0  0  0  0  0  0  0  0
  149.2849  140.1118  154.8541 N   0  0  0  0  0  0  0  0  0  0  0  0
  149.4988  141.3498  154.2738 N   0  0  0  0  0  0  0  0  0  0  0  0
  148.5078  142.1594  154.1237 C   0  0  0  0  0  0  0  0  0  0  0  0
  147.1646  141.8187  154.5389 C   0  0  0  0  0  0  0  0  0  0  0  0
  145.8747  142.9470  154.3131 Cl  0  0  0  0  0  0  0  0  0  0  0  0
  146.9645  140.5995  155.0995 C   0  0  0  0  0  0  0  0  0  0  0  0
  145.3855  140.1195  155.6200 Cl  0  0  0  0  0  0  0  0  0  0  0  0
  148.0702  139.6496  155.2846 C   0  0  0  0  0  0  0  0  0  0  0  0
  147.9285  138.5321  155.7836 O   0  0  0  0  0  0  0  0  0  0  0  0
  151.3899  143.0775  157.9029 C   0  0  1  0  0  0  0  0  0  0  0  0
  149.8906  143.1161  158.2823 C   0  0  0  0  0  0  0  0  0  0  0  0
  150.9597  145.3682  159.6841 H   0  0  0  0  0  0  0  0  0  0  0  0
  151.7993  145.8219  158.2002 H   0  0  0  0  0  0  0  0  0  0  0  0
  152.6586  145.8067  159.7344 H   0  0  0  0  0  0  0  0  0  0  0  0
  153.3009  143.8508  158.4652 H   0  0  0  0  0  0  0  0  0  0  0  0
  153.1268  143.5659  160.9045 H   0  0  0  0  0  0  0  0  0  0  0  0
  151.4768  143.0212  160.7564 H   0  0  0  0  0  0  0  0  0  0  0  0
  153.9641  141.6442  159.6346 H   0  0  0  0  0  0  0  0  0  0  0  0
  152.9710  141.0722  160.9522 H   0  0  0  0  0  0  0  0  0  0  0  0
  152.4761  139.8728  158.8163 H   0  0  0  0  0  0  0  0  0  0  0  0
  151.0677  140.6938  159.4369 H   0  0  0  0  0  0  0  0  0  0  0  0
  152.9308  141.7099  157.2497 H   0  0  0  0  0  0  0  0  0  0  0  0
  150.1248  141.1254  156.6940 H   0  0  0  0  0  0  0  0  0  0  0  0
  150.9629  139.1396  154.0078 H   0  0  0  0  0  0  0  0  0  0  0  0
  150.2307  138.2936  155.3392 H   0  0  0  0  0  0  0  0  0  0  0  0
  148.6289  143.1456  153.6753 H   0  0  0  0  0  0  0  0  0  0  0  0
  151.4744  143.6068  156.9525 H   0  0  0  0  0  0  0  0  0  0  0  0
  149.6964  142.6328  159.2389 H   0  0  0  0  0  0  0  0  0  0  0  0
  149.2737  142.6201  157.5329 H   0  0  0  0  0  0  0  0  0  0  0  0
  149.5219  144.1390  158.3489 H   0  0  0  0  0  0  0  0  0  0  0  0
  1  2  1  0  0  0  0
  1 22  1  0  0  0  0
  1 23  1  0  0  0  0
  1 24  1  0  0  0  0
  2 20  1  0  0  0  0
  2  3  1  0  0  0  0
  2 25  1  0  0  0  0
  3  4  1  0  0  0  0
  3 26  1  0  0  0  0
  3 27  1  0  0  0  0
  4  5  1  0  0  0  0
  4 28  1  0  0  0  0
  4 29  1  0  0  0  0
  5  6  1  0  0  0  0
  5 30  1  0  0  0  0
  5 31  1  0  0  0  0
  6  7  1  0  0  0  0
  6 20  1  0  0  0  0
  6 32  1  0  0  0  0
  7  8  1  0  0  0  0
  7 33  1  0  0  0  0
  8  9  2  0  0  0  0
  8 10  1  0  0  0  0
 10 11  1  0  0  0  0
 10 34  1  0  0  0  0
 10 35  1  0  0  0  0
 11 18  1  0  0  0  0
 11 12  1  0  0  0  0
 12 13  2  0  0  0  0
 13 14  1  0  0  0  0
 13 36  1  0  0  0  0
 14 15  1  0  0  0  0
 14 16  2  0  0  0  0
 16 17  1  0  0  0  0
 16 18  1  0  0  0  0
 18 19  2  0  0  0  0
 20 21  1  0  0  0  0
 20 37  1  0  0  0  0
 21 38  1  0  0  0  0
 21 39  1  0  0  0  0
 21 40  1  0  0  0  0
M  END
> <s_m_source_file>
AV-unprocessed.smi

> <i_m_source_file_index>
2976

> <i_lp_mmshare_version>
43012

> <i_f3d_flags>
0

> <s_epik_input>
W0NIM11bQ0BASF0xW0NIMl1bQ0gyXVtDSDJdW0NASF0oW0NASF0xW0NIM10pW05IXUMoPU8pW0NIMl1uMm5bY0hdYyhDbCljKENsKWMyPU8=

> <s_epik_cmdline>
J2VwaWtfcHl0aG9uJywgJy1waCcsICc3LjAnLCAnLXRuJywgJzgnLCAnLW1hJywgJzIwMCcsICctbWV0YWxfYmluZGluZycsICctaW1hZScsICc8aW5maWxlLm1hZT4nLCAnLW9tYWUnLCAnPG91dGZpbGUubWFlPic=

> <r_lp_tautomer_probability>
1

> <r_epik_Ionization_Penalty>
1.90777e-08

> <r_epik_Ionization_Penalty_Charging>
3.07942e-11

> <r_epik_Ionization_Penalty_Neutral>
1.90469e-08

> <r_epik_State_Penalty>
-0

> <r_epik_Charging_Adjusted_Penalty>
3.07942e-11

> <i_epik_Tot_Q>
0

> <i_epik_Tot_abs_Q>
0

> <r_epik_Metal_State_Penalty>
-0

> <b_epik_Metal_Only>
0

> <s_lp_Force_Field>
OPLS_2005

> <r_lp_Energy>
28.0468

> <b_lp_Chiralities_Consistent>
1

> <s_lp_Variant>
AV-unprocessed.smi:2976-2

> <Gold.Version>
5.8.1

> <Gold.Id.Protein>
6NUR|6NUR_protein|mol2

> <Gold.PLP.Fitness>
45.3624

> <Gold.PLP.PLP>
-41.7165

> <Gold.PLP.part.hbond>
-3.0000

> <Gold.PLP.part.metal>
0.0000

> <Gold.PLP.part.buried>
-0.9047

> <Gold.PLP.part.nonpolar>
-37.6546

> <Gold.PLP.part.repulsive>
0.2898

> <Gold.PLP.ligand.clash>
0.0000

> <Gold.PLP.ligand.torsion>
0.6096

> <Gold.PLP.Chemscore.Hbond>
1.1048

> <Gold.PLP.Chemscore.CHOScore>
0.5092

> <Gold.PLP.Chemscore.Metal>
0.0000

> <Gold.Chemscore.Hbonds>
donor molecule, donor type, donor heavy atom, donor atom, acceptor molecule, acceptor atom, score
      P1  H  7989  7998       L1    12  0.11
      P1  H  7997  8010       L1     9  1.00
      L1  C    13    36       P1  8028  0.52

> <Gold.PLP.Chemscore.Internal.Correction>
0.0230

> <Gold.Rescore>
     Score         DG    S(hbond)    S(metal)    S(lipo)     H(rot)  DE(clash)    DE(int)     intcor
     17.20     -18.28       1.11        0.00     110.24       1.49       0.36       0.71       ----

> <Gold.Chemscore.Fitness>
17.2026

> <Gold.Chemscore.DG>
-18.2752

> <Gold.Chemscore.ZeroCoef>
-5.4800

> <Gold.Chemscore.Hbond>
1.1085

> <Gold.Chemscore.Metal>
0.0000

> <Gold.Chemscore.Lipo>
110.2445

> <Gold.Chemscore.Internal_Hbond>
0.0000

> <Gold.Chemscore.DEClash>
0.3600

> <Gold.Chemscore.DEInternal>
0.7126

> <Gold.Chemscore.Rot>
1.4866

> <Gold.Chemscore.Internal.Correction>
   9.000000E+99

> <Gold.Chemscore.Hbonds>
donor molecule, donor type, donor heavy atom, donor atom, acceptor molecule, acceptor atom, score
      P1  H  7989  7998       L1    12  0.02
      P1  H  7997  8010       L1     9  1.00

> <Gold.Chemscore.Hbond.Weighted>
-3.7023

> <Gold.Chemscore.Metal.Weighted>
-0.0000

> <Gold.Chemscore.Lipo.Weighted>
-12.8986

> <Gold.Chemscore.Internal_Hbond.Weighted>
0.0000

> <Gold.Chemscore.DEClash.Weighted>
0.3600

> <Gold.Chemscore.DEInternal.Weighted>
0.7126

> <Gold.Chemscore.Rot.Weighted>
3.8057

> <Gold.Chemscore.Internal.Correction.Weighted>
   9.000000E+99

> <Gold.Protein.RotatedTorsions>
[ 6907 6896 6895 6894 ] final -178.44 input  -60.11 | X-H torsion
[ 7974 7965 7964 7962 ] final   29.18 input  175.53 | X-H torsion
[ 8008 7997 7996 7995 ] final   89.29 input   59.86 | X-H torsion
[ 10167 10162 10161 10158 ] final -104.76 input  -65.29 | X-H torsion
[ 10718 10713 10712 10709 ] final -171.46 input   66.30 | X-H torsion
[ 10763 10752 10751 10750 ] final -164.72 input  -60.55 | X-H torsion
[ 11005 11000 10999 10996 ] final   63.73 input  -57.11 | X-H torsion

> <Gold.Protein.ActiveResidues>
 VAL166  LYS551  ARG553  GLY616  TRP617  ASP618  TYR619  PRO620  LYS621  CYS622 
 ASP623  PHE694  ASN695  SER759  ASP760  ASP761  ALA762  ILE779  LEU786  VAL792 
 PHE793  MET794  SER795  GLU796  ALA797  LYS798  CYS799  TRP800  GLU811  SER814 

> <Gold.Protein.RotatedAtoms>
  151.6372  133.3328  159.3121 H   0  0  0  0  0  0  0  0  0  0  0  0  # atno 6907 bound_to 6896
  150.8026  134.7134  159.6626 H   0  0  0  0  0  0  0  0  0  0  0  0  # atno 6908 bound_to 6896
  152.4119  134.6113  160.0078 H   0  0  0  0  0  0  0  0  0  0  0  0  # atno 6909 bound_to 6896
  146.1686  139.6956  142.8983 H   0  0  0  0  0  0  0  0  0  0  0  0  # atno 7974 bound_to 7965
  155.9982  140.3362  155.6819 H   0  0  0  0  0  0  0  0  0  0  0  0  # atno 8008 bound_to 7997
  155.6327  140.0687  157.2662 H   0  0  0  0  0  0  0  0  0  0  0  0  # atno 8009 bound_to 7997
  154.4240  140.1757  156.1477 H   0  0  0  0  0  0  0  0  0  0  0  0  # atno 8010 bound_to 7997
  140.2058  143.3784  152.1092 H   0  0  0  0  0  0  0  0  0  0  0  0  # atno 10167 bound_to 10162
  156.7412  130.9343  151.3110 H   0  0  0  0  0  0  0  0  0  0  0  0  # atno 10718 bound_to 10713
  154.7002  135.2986  154.9353 H   0  0  0  0  0  0  0  0  0  0  0  0  # atno 10763 bound_to 10752
  154.0287  135.6673  153.4783 H   0  0  0  0  0  0  0  0  0  0  0  0  # atno 10764 bound_to 10752
  153.0675  135.5079  154.8141 H   0  0  0  0  0  0  0  0  0  0  0  0  # atno 10765 bound_to 10752
  140.0005  134.6449  155.9938 H   0  0  0  0  0  0  0  0  0  0  0  0  # atno 11005 bound_to 11000
  145.4400  141.0421  143.2863 LP  0  0  0  0  0  0  0  0  0  0  0  0  # atno 17320 bound_to 7965
  144.8129  139.5928  143.7021 LP  0  0  0  0  0  0  0  0  0  0  0  0  # atno 17321 bound_to 7965
  139.5199  144.7026  151.5449 LP  0  0  0  0  0  0  0  0  0  0  0  0  # atno 17342 bound_to 10162
  140.6359  143.8986  150.6646 LP  0  0  0  0  0  0  0  0  0  0  0  0  # atno 17343 bound_to 10162
  157.6818  130.9147  150.0285 LP  0  0  0  0  0  0  0  0  0  0  0  0  # atno 17370 bound_to 10713
  156.1463  130.3642  149.9505 LP  0  0  0  0  0  0  0  0  0  0  0  0  # atno 17371 bound_to 10713
  141.1638  133.6537  156.4409 LP  0  0  0  0  0  0  0  0  0  0  0  0  # atno 17394 bound_to 11000
  140.4737  134.6730  157.5140 LP  0  0  0  0  0  0  0  0  0  0  0  0  # atno 17395 bound_to 11000

$$$$
