AV-unprocessed.smi:3343|AV-procd|sdf|12895|dock6
  -GOLD-   2272019303D 1   1.00000     0.00000
 Structure written by MMmdl.
 42 43  0  0  0  0  0  0  0  0  2 V2000
  149.4942  141.2605  155.0772 C   0  0  0  0  0  0  0  0  0  0  0  0
  149.5770  139.9530  154.2638 C   0  0  2  0  0  0  0  0  0  0  0  0
  148.2246  139.2261  154.1487 C   0  0  0  0  0  0  0  0  0  0  0  0
  147.6322  138.8320  155.1539 O   0  0  0  0  0  0  0  0  0  0  0  0
  147.7409  139.0608  152.9070 N   0  0  0  0  0  0  0  0  0  0  0  0
  146.4978  138.3762  152.5764 C   0  0  0  0  0  0  0  0  0  0  0  0
  146.3874  137.0628  153.3675 C   0  0  0  0  0  0  0  0  0  0  0  0
  146.3448  135.8698  152.4852 N   0  3  0  0  0  0  0  0  0  0  0  0
  145.2989  135.9789  151.4396 C   0  0  0  0  0  0  0  0  0  0  0  0
  145.3492  134.7641  150.4892 C   0  0  0  0  0  0  0  0  0  0  0  0
  145.2057  133.4961  151.2063 N   0  0  0  0  0  0  0  0  0  0  0  0
  143.8544  133.2701  151.7075 C   0  0  0  0  0  0  0  0  0  0  0  0
  146.2304  133.3934  152.2465 C   0  0  0  0  0  0  0  0  0  0  0  0
  146.1949  134.5894  153.2217 C   0  0  0  0  0  0  0  0  0  0  0  0
  150.6033  139.0599  154.7900 N   0  0  0  0  0  0  0  0  0  0  0  0
  150.9630  137.8366  154.3951 C   0  0  0  0  0  0  0  0  0  0  0  0
  151.9211  137.2928  155.1322 N   0  0  0  0  0  0  0  0  0  0  0  0
  152.1230  138.3049  156.0273 C   0  0  0  0  0  0  0  0  0  0  0  0
  151.3529  139.3819  155.8738 N   0  0  0  0  0  0  0  0  0  0  0  0
  148.7811  141.9569  154.6345 H   0  0  0  0  0  0  0  0  0  0  0  0
  150.4620  141.7619  155.1055 H   0  0  0  0  0  0  0  0  0  0  0  0
  149.1862  141.0802  156.1079 H   0  0  0  0  0  0  0  0  0  0  0  0
  149.8749  140.2209  153.2488 H   0  0  0  0  0  0  0  0  0  0  0  0
  148.2841  139.4226  152.1364 H   0  0  0  0  0  0  0  0  0  0  0  0
  145.6365  139.0080  152.8006 H   0  0  0  0  0  0  0  0  0  0  0  0
  146.4916  138.1940  151.5022 H   0  0  0  0  0  0  0  0  0  0  0  0
  147.2078  136.9676  154.0806 H   0  0  0  0  0  0  0  0  0  0  0  0
  145.4691  137.1006  153.9560 H   0  0  0  0  0  0  0  0  0  0  0  0
  144.3157  136.0784  151.9014 H   0  0  0  0  0  0  0  0  0  0  0  0
  145.4619  136.8872  150.8581 H   0  0  0  0  0  0  0  0  0  0  0  0
  144.5732  134.8440  149.7269 H   0  0  0  0  0  0  0  0  0  0  0  0
  146.3025  134.7560  149.9587 H   0  0  0  0  0  0  0  0  0  0  0  0
  143.7851  132.2871  152.1741 H   0  0  0  0  0  0  0  0  0  0  0  0
  143.1385  133.2955  150.8854 H   0  0  0  0  0  0  0  0  0  0  0  0
  143.5490  134.0137  152.4427 H   0  0  0  0  0  0  0  0  0  0  0  0
  146.1082  132.4555  152.7897 H   0  0  0  0  0  0  0  0  0  0  0  0
  147.2083  133.3456  151.7652 H   0  0  0  0  0  0  0  0  0  0  0  0
  147.0068  134.4740  153.9385 H   0  0  0  0  0  0  0  0  0  0  0  0
  145.2707  134.5954  153.8009 H   0  0  0  0  0  0  0  0  0  0  0  0
  150.5107  137.3308  153.5547 H   0  0  0  0  0  0  0  0  0  0  0  0
  152.8536  138.2431  156.8205 H   0  0  0  0  0  0  0  0  0  0  0  0
  147.2293  135.8331  151.9987 H   0  0  0  0  0  0  0  0  0  0  0  0
  1  2  1  0  0  0  0
  1 20  1  0  0  0  0
  1 21  1  0  0  0  0
  1 22  1  0  0  0  0
  2  3  1  0  0  0  0
  2 15  1  0  0  0  0
  2 23  1  0  0  0  0
  3  4  2  0  0  0  0
  3  5  1  0  0  0  0
  5  6  1  0  0  0  0
  5 24  1  0  0  0  0
  6  7  1  0  0  0  0
  6 25  1  0  0  0  0
  6 26  1  0  0  0  0
  7  8  1  0  0  0  0
  7 27  1  0  0  0  0
  7 28  1  0  0  0  0
  8 14  1  0  0  0  0
  8  9  1  0  0  0  0
  8 42  1  0  0  0  0
  9 10  1  0  0  0  0
  9 29  1  0  0  0  0
  9 30  1  0  0  0  0
 10 11  1  0  0  0  0
 10 31  1  0  0  0  0
 10 32  1  0  0  0  0
 11 12  1  0  0  0  0
 11 13  1  0  0  0  0
 12 33  1  0  0  0  0
 12 34  1  0  0  0  0
 12 35  1  0  0  0  0
 13 14  1  0  0  0  0
 13 36  1  0  0  0  0
 13 37  1  0  0  0  0
 14 38  1  0  0  0  0
 14 39  1  0  0  0  0
 15 19  1  0  0  0  0
 15 16  1  0  0  0  0
 16 17  2  0  0  0  0
 16 40  1  0  0  0  0
 17 18  1  0  0  0  0
 18 19  2  0  0  0  0
 18 41  1  0  0  0  0
M  CHG  1   8   1
M  END
> <s_m_source_file>
AV-unprocessed.smi

> <i_m_source_file_index>
3343

> <i_lp_mmshare_version>
43012

> <i_f3d_flags>
0

> <s_epik_input>
bjFbY0hdbltjSF1uMVtDQEhdKFtDSDNdKUMoPU8pW05IXVtDSDJdW0NIMl1OMltDSDJdW0NIMl1OKFtDSDNdKVtDSDJdW0NIMl0y

> <s_epik_cmdline>
J2VwaWtfcHl0aG9uJywgJy1waCcsICc3LjAnLCAnLXRuJywgJzgnLCAnLW1hJywgJzIwMCcsICctbWV0YWxfYmluZGluZycsICctaW1hZScsICc8aW5maWxlLm1hZT4nLCAnLW9tYWUnLCAnPG91dGZpbGUubWFlPic=

> <r_epik_Ionization_Penalty>
0.559944

> <r_epik_Ionization_Penalty_Charging>
0.558624

> <r_epik_Ionization_Penalty_Neutral>
0.00131959

> <r_epik_State_Penalty>
2.08679

> <r_epik_Charging_Adjusted_Penalty>
2.64542

> <i_epik_Tot_Q>
1

> <i_epik_Tot_abs_Q>
1

> <r_epik_Metal_State_Penalty>
2.0868

> <b_epik_Metal_Only>
0

> <s_lp_Force_Field>
OPLS_2005

> <r_lp_Energy>
23.1114

> <b_lp_Chiralities_Consistent>
1

> <s_lp_Variant>
AV-unprocessed.smi:3343-5

> <Gold.Version>
5.8.1

> <Gold.Id.Protein>
6NUR|6NUR_protein|mol2

> <Gold.PLP.Fitness>
45.2818

> <Gold.PLP.PLP>
-30.8668

> <Gold.PLP.part.hbond>
-3.3793

> <Gold.PLP.part.metal>
0.0000

> <Gold.PLP.part.buried>
-1.8169

> <Gold.PLP.part.nonpolar>
-26.8121

> <Gold.PLP.part.repulsive>
0.3114

> <Gold.PLP.ligand.clash>
0.0000

> <Gold.PLP.ligand.torsion>
0.5705

> <Gold.PLP.Chemscore.Hbond>
3.9760

> <Gold.PLP.Chemscore.CHOScore>
1.1616

> <Gold.PLP.Chemscore.Metal>
0.0000

> <Gold.Chemscore.Hbonds>
donor molecule, donor type, donor heavy atom, donor atom, acceptor molecule, acceptor atom, score
      L1  H     5    24       P1  7957  1.00
      L1  H     8    42       P1  7948  2.00
      P1  H 10752 10765       L1    17  0.92
      L1  C    16    40       P1  7948  0.66
      L1  C    16    40       P1  7949  0.52

> <Gold.PLP.Chemscore.Internal.Correction>
0.1431

> <Gold.Rescore>
     Score         DG    S(hbond)    S(metal)    S(lipo)     H(rot)  DE(clash)    DE(int)     intcor
     12.52     -14.48       2.93        0.00      50.83       2.63       0.08       1.88       ----

> <Gold.Chemscore.Fitness>
12.5245

> <Gold.Chemscore.DG>
-14.4849

> <Gold.Chemscore.ZeroCoef>
-5.4800

> <Gold.Chemscore.Hbond>
2.9297

> <Gold.Chemscore.Metal>
0.0000

> <Gold.Chemscore.Lipo>
50.8280

> <Gold.Chemscore.Internal_Hbond>
0.0000

> <Gold.Chemscore.DEClash>
0.0810

> <Gold.Chemscore.DEInternal>
1.8795

> <Gold.Chemscore.Rot>
2.6278

> <Gold.Chemscore.Internal.Correction>
   9.000000E+99

> <Gold.Chemscore.Hbonds>
donor molecule, donor type, donor heavy atom, donor atom, acceptor molecule, acceptor atom, score
      L1  H     5    24       P1  7957  1.00
      L1  H     8    42       P1  7948  0.97
      P1  H 10752 10765       L1    17  0.83

> <Gold.Chemscore.Hbond.Weighted>
-9.7851

> <Gold.Chemscore.Metal.Weighted>
-0.0000

> <Gold.Chemscore.Lipo.Weighted>
-5.9469

> <Gold.Chemscore.Internal_Hbond.Weighted>
0.0000

> <Gold.Chemscore.DEClash.Weighted>
0.0810

> <Gold.Chemscore.DEInternal.Weighted>
1.8795

> <Gold.Chemscore.Rot.Weighted>
6.7271

> <Gold.Chemscore.Internal.Correction.Weighted>
   9.000000E+99

> <Gold.Protein.RotatedTorsions>
[ 6907 6896 6895 6894 ] final   57.93 input  -60.11 | X-H torsion
[ 7974 7965 7964 7962 ] final  113.02 input  175.53 | X-H torsion
[ 8008 7997 7996 7995 ] final -131.26 input   59.86 | X-H torsion
[ 10167 10162 10161 10158 ] final -159.69 input  -65.29 | X-H torsion
[ 10718 10713 10712 10709 ] final   73.88 input   66.30 | X-H torsion
[ 10763 10752 10751 10750 ] final  179.77 input  -60.55 | X-H torsion
[ 11005 11000 10999 10996 ] final -103.79 input  -57.11 | X-H torsion

> <Gold.Protein.ActiveResidues>
 VAL166  LYS551  ARG553  GLY616  TRP617  ASP618  TYR619  PRO620  LYS621  CYS622 
 ASP623  PHE694  ASN695  SER759  ASP760  ASP761  ALA762  ILE779  LEU786  VAL792 
 PHE793  MET794  SER795  GLU796  ALA797  LYS798  CYS799  TRP800  GLU811  SER814 

> <Gold.Protein.RotatedAtoms>
  152.3777  134.6638  160.0153 H   0  0  0  0  0  0  0  0  0  0  0  0  # atno 6907 bound_to 6896
  151.6911  133.3305  159.3251 H   0  0  0  0  0  0  0  0  0  0  0  0  # atno 6908 bound_to 6896
  150.7722  134.6633  159.6396 H   0  0  0  0  0  0  0  0  0  0  0  0  # atno 6909 bound_to 6896
  145.2222  139.2857  143.4212 H   0  0  0  0  0  0  0  0  0  0  0  0  # atno 7974 bound_to 7965
  155.3093  140.0456  157.3034 H   0  0  0  0  0  0  0  0  0  0  0  0  # atno 8008 bound_to 7997
  154.5442  140.2297  155.8558 H   0  0  0  0  0  0  0  0  0  0  0  0  # atno 8009 bound_to 7997
  156.1908  140.3051  155.9336 H   0  0  0  0  0  0  0  0  0  0  0  0  # atno 8010 bound_to 7997
  139.6596  143.9936  152.2217 H   0  0  0  0  0  0  0  0  0  0  0  0  # atno 10167 bound_to 10162
  157.6567  130.9650  150.1132 H   0  0  0  0  0  0  0  0  0  0  0  0  # atno 10718 bound_to 10713
  154.5249  135.2796  155.1230 H   0  0  0  0  0  0  0  0  0  0  0  0  # atno 10763 bound_to 10752
  154.2773  135.6292  153.5337 H   0  0  0  0  0  0  0  0  0  0  0  0  # atno 10764 bound_to 10752
  152.9944  135.5643  154.5748 H   0  0  0  0  0  0  0  0  0  0  0  0  # atno 10765 bound_to 10752
  141.1130  133.8669  157.1530 H   0  0  0  0  0  0  0  0  0  0  0  0  # atno 11005 bound_to 11000
  146.3373  140.2532  142.8599 LP  0  0  0  0  0  0  0  0  0  0  0  0  # atno 17320 bound_to 7965
  144.9754  140.8409  143.5429 LP  0  0  0  0  0  0  0  0  0  0  0  0  # atno 17321 bound_to 7965
  139.9672  144.6518  150.8023 LP  0  0  0  0  0  0  0  0  0  0  0  0  # atno 17342 bound_to 10162
  140.7574  143.3086  151.2901 LP  0  0  0  0  0  0  0  0  0  0  0  0  # atno 17343 bound_to 10162
  156.2023  130.3661  149.8773 LP  0  0  0  0  0  0  0  0  0  0  0  0  # atno 17370 bound_to 10713
  156.6673  130.8806  151.3557 LP  0  0  0  0  0  0  0  0  0  0  0  0  # atno 17371 bound_to 10713
  140.0035  135.0018  157.0241 LP  0  0  0  0  0  0  0  0  0  0  0  0  # atno 17394 bound_to 11000
  140.4723  134.1374  155.7205 LP  0  0  0  0  0  0  0  0  0  0  0  0  # atno 17395 bound_to 11000

$$$$
