AV-unprocessed.smi:1036|AV-procd|sdf|4516|dock10
  -GOLD-   22720 2533D 1   1.00000     0.00000
 Structure written by MMmdl.
 42 44  0  0  0  0  0  0  0  0  2 V2000
  148.9077  134.6971  154.1075 O   0  0  0  0  0  0  0  0  0  0  0  0
  149.3616  135.5470  155.1370 C   0  0  0  0  0  0  0  0  0  0  0  0
  150.7057  136.1629  154.7339 C   0  0  0  0  0  0  0  0  0  0  0  0
  150.8836  137.4787  155.3241 N   0  0  0  0  0  0  0  0  0  0  0  0
  149.9610  138.4777  154.9957 C   0  0  0  0  0  0  0  0  0  0  0  0
  149.1462  138.4876  153.9070 N   0  3  0  0  0  0  0  0  0  0  0  0
  148.3626  139.6444  153.9558 C   0  0  0  0  0  0  0  0  0  0  0  0
  147.3806  140.1132  153.0886 C   0  0  0  0  0  0  0  0  0  0  0  0
  146.7616  141.3329  153.4323 C   0  0  0  0  0  0  0  0  0  0  0  0
  147.1231  142.0388  154.5983 C   0  0  0  0  0  0  0  0  0  0  0  0
  148.1199  141.5570  155.4719 C   0  0  0  0  0  0  0  0  0  0  0  0
  148.7297  140.3518  155.1261 C   0  0  0  0  0  0  0  0  0  0  0  0
  149.7299  139.5892  155.7414 N   0  0  0  0  0  0  0  0  0  0  0  0
  150.3136  140.0365  157.0148 C   0  0  0  0  0  0  0  0  0  0  0  0
  151.6128  140.8423  156.8118 C   0  0  2  0  0  0  0  0  0  0  0  0
  152.6443  139.9345  156.4841 O   0  0  0  0  0  0  0  0  0  0  0  0
  151.9531  141.6961  158.0289 C   0  0  0  0  0  0  0  0  0  0  0  0
  151.8624  143.1045  157.9602 C   0  0  0  0  0  0  0  0  0  0  0  0
  152.2128  143.8960  159.0707 C   0  0  0  0  0  0  0  0  0  0  0  0
  152.1281  145.2450  158.9934 F   0  0  0  0  0  0  0  0  0  0  0  0
  152.6592  143.2859  160.2579 C   0  0  0  0  0  0  0  0  0  0  0  0
  152.7543  141.8835  160.3336 C   0  0  0  0  0  0  0  0  0  0  0  0
  152.4035  141.0896  159.2244 C   0  0  0  0  0  0  0  0  0  0  0  0
  152.5214  139.7425  159.3088 F   0  0  0  0  0  0  0  0  0  0  0  0
  149.0265  135.1375  153.2794 H   0  0  0  0  0  0  0  0  0  0  0  0
  148.6149  136.3220  155.3122 H   0  0  0  0  0  0  0  0  0  0  0  0
  149.4596  134.9708  156.0577 H   0  0  0  0  0  0  0  0  0  0  0  0
  151.5222  135.5138  155.0528 H   0  0  0  0  0  0  0  0  0  0  0  0
  150.7629  136.2486  153.6476 H   0  0  0  0  0  0  0  0  0  0  0  0
  151.3793  137.5462  156.2017 H   0  0  0  0  0  0  0  0  0  0  0  0
  147.0988  139.5747  152.1956 H   0  0  0  0  0  0  0  0  0  0  0  0
  145.9922  141.7349  152.7890 H   0  0  0  0  0  0  0  0  0  0  0  0
  146.6249  142.9695  154.8284 H   0  0  0  0  0  0  0  0  0  0  0  0
  148.3874  142.1041  156.3638 H   0  0  0  0  0  0  0  0  0  0  0  0
  149.5658  140.6361  157.5355 H   0  0  0  0  0  0  0  0  0  0  0  0
  150.4894  139.1585  157.6378 H   0  0  0  0  0  0  0  0  0  0  0  0
  151.4976  141.4919  155.9438 H   0  0  0  0  0  0  0  0  0  0  0  0
  152.4331  139.0920  156.8572 H   0  0  0  0  0  0  0  0  0  0  0  0
  151.5337  143.5849  157.0504 H   0  0  0  0  0  0  0  0  0  0  0  0
  152.9322  143.8927  161.1086 H   0  0  0  0  0  0  0  0  0  0  0  0
  153.1024  141.4160  161.2428 H   0  0  0  0  0  0  0  0  0  0  0  0
  149.1258  137.7661  153.1979 H   0  0  0  0  0  0  0  0  0  0  0  0
  1  2  1  0  0  0  0
  1 25  1  0  0  0  0
  2  3  1  0  0  0  0
  2 26  1  0  0  0  0
  2 27  1  0  0  0  0
  3  4  1  0  0  0  0
  3 28  1  0  0  0  0
  3 29  1  0  0  0  0
  4  5  1  0  0  0  0
  4 30  1  0  0  0  0
  5 13  1  0  0  0  0
  5  6  2  0  0  0  0
  6  7  1  0  0  0  0
  6 42  1  0  0  0  0
  7 12  2  0  0  0  0
  7  8  1  0  0  0  0
  8  9  2  0  0  0  0
  8 31  1  0  0  0  0
  9 10  1  0  0  0  0
  9 32  1  0  0  0  0
 10 11  2  0  0  0  0
 10 33  1  0  0  0  0
 11 12  1  0  0  0  0
 11 34  1  0  0  0  0
 12 13  1  0  0  0  0
 13 14  1  0  0  0  0
 14 15  1  0  0  0  0
 14 35  1  0  0  0  0
 14 36  1  0  0  0  0
 15 16  1  0  0  0  0
 15 17  1  0  0  0  0
 15 37  1  0  0  0  0
 16 38  1  0  0  0  0
 17 23  1  0  0  0  0
 17 18  2  0  0  0  0
 18 19  1  0  0  0  0
 18 39  1  0  0  0  0
 19 20  1  0  0  0  0
 19 21  2  0  0  0  0
 21 22  1  0  0  0  0
 21 40  1  0  0  0  0
 22 23  2  0  0  0  0
 22 41  1  0  0  0  0
 23 24  1  0  0  0  0
M  CHG  1   6   1
M  END
> <s_m_source_file>
AV-unprocessed.smi

> <i_m_source_file_index>
1036

> <i_lp_mmshare_version>
43012

> <i_f3d_flags>
0

> <s_epik_input>
W09IXVtDSDJdW0NIMl1bTkhdYyhuMSluKGMoYzEyKVtjSF1bY0hdW2NIXVtjSF0yKVtDSDJdW0NASF0oW09IXSljM1tjSF1jKEYpW2NIXVtjSF1jM0Y=

> <s_epik_cmdline>
J2VwaWtfcHl0aG9uJywgJy1waCcsICc3LjAnLCAnLXRuJywgJzgnLCAnLW1hJywgJzIwMCcsICctbWV0YWxfYmluZGluZycsICctaW1hZScsICc8aW5maWxlLm1hZT4nLCAnLW9tYWUnLCAnPG91dGZpbGUubWFlPic=

> <r_epik_Ionization_Penalty>
0.0688114

> <r_epik_Ionization_Penalty_Charging>
0.0688055

> <r_epik_Ionization_Penalty_Neutral>
5.85933e-06

> <r_epik_State_Penalty>
0.0602293

> <r_epik_Charging_Adjusted_Penalty>
0.129035

> <i_epik_Tot_Q>
1

> <i_epik_Tot_abs_Q>
1

> <r_epik_Metal_State_Penalty>
2.77411

> <b_epik_Metal_Only>
0

> <s_lp_Force_Field>
OPLS_2005

> <r_lp_Energy>
18.4992

> <b_lp_Chiralities_Consistent>
1

> <s_lp_Variant>
AV-unprocessed.smi:1036-1

> <Gold.Version>
5.8.1

> <Gold.Id.Protein>
6NUR|6NUR_protein|mol2

> <Gold.PLP.Fitness>
56.7879

> <Gold.PLP.PLP>
-46.4694

> <Gold.PLP.part.hbond>
-3.4568

> <Gold.PLP.part.metal>
0.0000

> <Gold.PLP.part.buried>
-1.5470

> <Gold.PLP.part.nonpolar>
-40.3083

> <Gold.PLP.part.repulsive>
0.1004

> <Gold.PLP.ligand.clash>
0.0000

> <Gold.PLP.ligand.torsion>
0.8588

> <Gold.PLP.Chemscore.Hbond>
4.0000

> <Gold.PLP.Chemscore.CHOScore>
0.0000

> <Gold.PLP.Chemscore.Metal>
0.0000

> <Gold.Chemscore.Hbonds>
donor molecule, donor type, donor heavy atom, donor atom, acceptor molecule, acceptor atom, score
      L1  H     1    25       P1  7948  1.00
      L1  H     6    42       P1  7948  2.00
      P1  H  7997  8008       L1    16  1.00

> <Gold.PLP.Chemscore.Internal.Correction>
0.0362

> <Gold.Rescore>
     Score         DG    S(hbond)    S(metal)    S(lipo)     H(rot)  DE(clash)    DE(int)     intcor
     17.92     -20.73       2.91        0.00     119.09       3.29       0.14       2.68       ----

> <Gold.Chemscore.Fitness>
17.9219

> <Gold.Chemscore.DG>
-20.7340

> <Gold.Chemscore.ZeroCoef>
-5.4800

> <Gold.Chemscore.Hbond>
2.9149

> <Gold.Chemscore.Metal>
0.0000

> <Gold.Chemscore.Lipo>
119.0930

> <Gold.Chemscore.Internal_Hbond>
0.0000

> <Gold.Chemscore.DEClash>
0.1354

> <Gold.Chemscore.DEInternal>
2.6766

> <Gold.Chemscore.Rot>
3.2874

> <Gold.Chemscore.Internal.Correction>
   9.000000E+99

> <Gold.Chemscore.Hbonds>
donor molecule, donor type, donor heavy atom, donor atom, acceptor molecule, acceptor atom, score
      L1  H     1    25       P1  7948  0.30
      L1  H     6    42       P1  7948  0.94
      P1  H  7997  8008       L1    16  0.84

> <Gold.Chemscore.Hbond.Weighted>
-9.7359

> <Gold.Chemscore.Metal.Weighted>
-0.0000

> <Gold.Chemscore.Lipo.Weighted>
-13.9339

> <Gold.Chemscore.Internal_Hbond.Weighted>
0.0000

> <Gold.Chemscore.DEClash.Weighted>
0.1354

> <Gold.Chemscore.DEInternal.Weighted>
2.6766

> <Gold.Chemscore.Rot.Weighted>
8.4158

> <Gold.Chemscore.Internal.Correction.Weighted>
   9.000000E+99

> <Gold.Protein.RotatedTorsions>
[ 6907 6896 6895 6894 ] final   94.18 input  -60.11 | X-H torsion
[ 7974 7965 7964 7962 ] final -120.47 input  175.53 | X-H torsion
[ 8008 7997 7996 7995 ] final  -35.83 input   59.86 | X-H torsion
[ 10167 10162 10161 10158 ] final -146.01 input  -65.29 | X-H torsion
[ 10718 10713 10712 10709 ] final  -59.48 input   66.30 | X-H torsion
[ 10763 10752 10751 10750 ] final   87.00 input  -60.55 | X-H torsion
[ 11005 11000 10999 10996 ] final   66.18 input  -57.11 | X-H torsion

> <Gold.Protein.ActiveResidues>
 VAL166  LYS551  ARG553  GLY616  TRP617  ASP618  TYR619  PRO620  LYS621  CYS622 
 ASP623  PHE694  ASN695  SER759  ASP760  ASP761  ALA762  ILE779  LEU786  VAL792 
 PHE793  MET794  SER795  GLU796  ALA797  LYS798  CYS799  TRP800  GLU811  SER814 

> <Gold.Protein.RotatedAtoms>
  152.5450  134.1234  159.8408 H   0  0  0  0  0  0  0  0  0  0  0  0  # atno 6907 bound_to 6896
  151.1287  133.5045  159.2607 H   0  0  0  0  0  0  0  0  0  0  0  0  # atno 6908 bound_to 6896
  151.1699  135.0323  159.8802 H   0  0  0  0  0  0  0  0  0  0  0  0  # atno 6909 bound_to 6896
  145.0510  140.8218  143.4209 H   0  0  0  0  0  0  0  0  0  0  0  0  # atno 7974 bound_to 7965
  154.4086  140.1647  156.2276 H   0  0  0  0  0  0  0  0  0  0  0  0  # atno 8008 bound_to 7997
  155.9310  140.3415  155.6226 H   0  0  0  0  0  0  0  0  0  0  0  0  # atno 8009 bound_to 7997
  155.7106  140.0756  157.2363 H   0  0  0  0  0  0  0  0  0  0  0  0  # atno 8010 bound_to 7997
  139.7752  143.8179  152.2631 H   0  0  0  0  0  0  0  0  0  0  0  0  # atno 10167 bound_to 10162
  156.1059  130.4180  150.0721 H   0  0  0  0  0  0  0  0  0  0  0  0  # atno 10718 bound_to 10713
  153.1626  135.4559  154.9792 H   0  0  0  0  0  0  0  0  0  0  0  0  # atno 10763 bound_to 10752
  154.7908  135.3220  154.7783 H   0  0  0  0  0  0  0  0  0  0  0  0  # atno 10764 bound_to 10752
  153.8271  135.6942  153.4874 H   0  0  0  0  0  0  0  0  0  0  0  0  # atno 10765 bound_to 10752
  139.9848  134.6686  156.0197 H   0  0  0  0  0  0  0  0  0  0  0  0  # atno 11005 bound_to 11000
  145.1527  139.2505  143.5432 LP  0  0  0  0  0  0  0  0  0  0  0  0  # atno 17320 bound_to 7965
  146.3518  140.1234  142.8599 LP  0  0  0  0  0  0  0  0  0  0  0  0  # atno 17321 bound_to 7965
  139.8226  144.7289  150.9553 LP  0  0  0  0  0  0  0  0  0  0  0  0  # atno 17342 bound_to 10162
  140.7816  143.4145  151.0940 LP  0  0  0  0  0  0  0  0  0  0  0  0  # atno 17343 bound_to 10162
  156.8697  130.9520  151.3610 LP  0  0  0  0  0  0  0  0  0  0  0  0  # atno 17370 bound_to 10713
  157.6235  130.8673  149.9149 LP  0  0  0  0  0  0  0  0  0  0  0  0  # atno 17371 bound_to 10713
  141.1514  133.6548  156.4026 LP  0  0  0  0  0  0  0  0  0  0  0  0  # atno 17394 bound_to 11000
  140.5025  134.6472  157.5254 LP  0  0  0  0  0  0  0  0  0  0  0  0  # atno 17395 bound_to 11000

$$$$
