AV-unprocessed.smi:2569|AV-procd|sdf|10104|dock9
  -GOLD-   2272014123D 1   1.00000     0.00000
 Structure written by MMmdl.
 40 42  0  0  0  0  0  0  0  0  2 V2000
  152.3063  143.3513  160.4805 C   0  0  0  0  0  0  0  0  0  0  0  0
  152.0362  142.4945  159.2552 C   0  0  0  0  0  0  0  0  0  0  0  0
  151.0526  142.9232  158.3359 C   0  0  0  0  0  0  0  0  0  0  0  0
  150.8301  142.1198  157.2239 C   0  0  0  0  0  0  0  0  0  0  0  0
  149.9429  142.2650  156.1554 N   0  3  0  0  0  0  0  0  0  0  0  0
  150.0863  141.2156  155.2999 C   0  0  0  0  0  0  0  0  0  0  0  0
  151.0537  140.4026  155.8048 N   0  0  0  0  0  0  0  0  0  0  0  0
  151.5860  139.1402  155.2716 C   0  0  0  0  0  0  0  0  0  0  0  0
  150.4776  138.1598  154.8430 C   0  0  2  0  0  0  0  0  0  0  0  0
  150.0192  138.4831  153.5435 O   0  0  0  0  0  0  0  0  0  0  0  0
  149.2955  138.1633  155.8313 C   0  0  0  0  0  0  0  0  0  0  0  0
  149.6738  137.7040  157.1577 N   0  0  0  0  0  0  0  0  0  0  0  0
  149.4680  138.4847  158.2468 N   0  0  0  0  0  0  0  0  0  0  0  0
  149.9002  137.8134  159.2754 N   0  0  0  0  0  0  0  0  0  0  0  0
  150.3983  136.5803  158.8978 N   0  0  0  0  0  0  0  0  0  0  0  0
  150.2344  136.5634  157.5815 C   0  0  0  0  0  0  0  0  0  0  0  0
  150.6158  135.4386  156.6765 C   0  0  0  0  0  0  0  0  0  0  0  0
  151.5464  140.9263  157.0068 C   0  0  0  0  0  0  0  0  0  0  0  0
  152.5177  140.4887  157.9049 C   0  0  0  0  0  0  0  0  0  0  0  0
  152.7588  141.2919  159.0426 C   0  0  0  0  0  0  0  0  0  0  0  0
  153.8129  140.8391  160.0389 C   0  0  0  0  0  0  0  0  0  0  0  0
  151.6463  144.2187  160.5143 H   0  0  0  0  0  0  0  0  0  0  0  0
  153.3343  143.7145  160.4732 H   0  0  0  0  0  0  0  0  0  0  0  0
  152.1474  142.7780  161.3940 H   0  0  0  0  0  0  0  0  0  0  0  0
  150.4977  143.8370  158.4916 H   0  0  0  0  0  0  0  0  0  0  0  0
  149.5311  141.0561  154.3866 H   0  0  0  0  0  0  0  0  0  0  0  0
  152.2061  139.3939  154.4110 H   0  0  0  0  0  0  0  0  0  0  0  0
  152.2549  138.6883  156.0042 H   0  0  0  0  0  0  0  0  0  0  0  0
  150.8995  137.1548  154.7992 H   0  0  0  0  0  0  0  0  0  0  0  0
  149.7211  137.6917  153.1223 H   0  0  0  0  0  0  0  0  0  0  0  0
  148.8898  139.1717  155.9255 H   0  0  0  0  0  0  0  0  0  0  0  0
  148.4827  137.5396  155.4583 H   0  0  0  0  0  0  0  0  0  0  0  0
  151.0975  134.6413  157.2431 H   0  0  0  0  0  0  0  0  0  0  0  0
  151.3100  135.7880  155.9125 H   0  0  0  0  0  0  0  0  0  0  0  0
  149.7295  135.0316  156.1896 H   0  0  0  0  0  0  0  0  0  0  0  0
  153.0676  139.5728  157.7487 H   0  0  0  0  0  0  0  0  0  0  0  0
  154.2821  139.9051  159.7281 H   0  0  0  0  0  0  0  0  0  0  0  0
  153.3663  140.6761  161.0200 H   0  0  0  0  0  0  0  0  0  0  0  0
  154.5977  141.5898  160.1350 H   0  0  0  0  0  0  0  0  0  0  0  0
  149.2859  143.0225  156.0185 H   0  0  0  0  0  0  0  0  0  0  0  0
  1  2  1  0  0  0  0
  1 22  1  0  0  0  0
  1 23  1  0  0  0  0
  1 24  1  0  0  0  0
  2 20  1  0  0  0  0
  2  3  2  0  0  0  0
  3  4  1  0  0  0  0
  3 25  1  0  0  0  0
  4 18  2  0  0  0  0
  4  5  1  0  0  0  0
  5  6  2  0  0  0  0
  5 40  1  0  0  0  0
  6  7  1  0  0  0  0
  6 26  1  0  0  0  0
  7  8  1  0  0  0  0
  7 18  1  0  0  0  0
  8  9  1  0  0  0  0
  8 27  1  0  0  0  0
  8 28  1  0  0  0  0
  9 10  1  0  0  0  0
  9 11  1  0  0  0  0
  9 29  1  0  0  0  0
 10 30  1  0  0  0  0
 11 12  1  0  0  0  0
 11 31  1  0  0  0  0
 11 32  1  0  0  0  0
 12 16  1  0  0  0  0
 12 13  1  0  0  0  0
 13 14  2  0  0  0  0
 14 15  1  0  0  0  0
 15 16  2  0  0  0  0
 16 17  1  0  0  0  0
 17 33  1  0  0  0  0
 17 34  1  0  0  0  0
 17 35  1  0  0  0  0
 18 19  1  0  0  0  0
 19 20  2  0  0  0  0
 19 36  1  0  0  0  0
 20 21  1  0  0  0  0
 21 37  1  0  0  0  0
 21 38  1  0  0  0  0
 21 39  1  0  0  0  0
M  CHG  1   5   1
M  END
> <s_m_source_file>
AV-unprocessed.smi

> <i_m_source_file_index>
2569

> <i_lp_mmshare_version>
43012

> <i_f3d_flags>
0

> <s_epik_input>
W0NIM11jKFtjSF0xKWMoW0NIM10pW2NIXWMoYzEyKW4oW2NIXW4yKVtDSDJdW0NASF0oW09IXSlbQ0gyXW4zbm5uYzNbQ0gzXQ==

> <s_epik_cmdline>
J2VwaWtfcHl0aG9uJywgJy1waCcsICc3LjAnLCAnLXRuJywgJzgnLCAnLW1hJywgJzIwMCcsICctbWV0YWxfYmluZGluZycsICctaW1hZScsICc8aW5maWxlLm1hZT4nLCAnLW9tYWUnLCAnPG91dGZpbGUubWFlPic=

> <r_lp_tautomer_probability>
1

> <r_epik_Ionization_Penalty>
1.13338

> <r_epik_Ionization_Penalty_Charging>
1.13335

> <r_epik_Ionization_Penalty_Neutral>
3.02334e-05

> <r_epik_State_Penalty>
1.19324

> <r_epik_Charging_Adjusted_Penalty>
2.3266

> <i_epik_Tot_Q>
1

> <i_epik_Tot_abs_Q>
1

> <r_epik_Metal_State_Penalty>
1.27602

> <b_epik_Metal_Only>
0

> <s_lp_Force_Field>
OPLS_2005

> <r_lp_Energy>
15.9129

> <b_lp_Chiralities_Consistent>
1

> <s_lp_Variant>
AV-unprocessed.smi:2569-3

> <Gold.Version>
5.8.1

> <Gold.Id.Protein>
6NUR|6NUR_protein|mol2

> <Gold.PLP.Fitness>
49.3318

> <Gold.PLP.PLP>
-38.0879

> <Gold.PLP.part.hbond>
-4.9149

> <Gold.PLP.part.metal>
0.0000

> <Gold.PLP.part.buried>
-4.1616

> <Gold.PLP.part.nonpolar>
-28.2859

> <Gold.PLP.part.repulsive>
0.1026

> <Gold.PLP.ligand.clash>
0.0000

> <Gold.PLP.ligand.torsion>
0.3688

> <Gold.PLP.Chemscore.Hbond>
3.9913

> <Gold.PLP.Chemscore.CHOScore>
0.0000

> <Gold.PLP.Chemscore.Metal>
0.0000

> <Gold.Chemscore.Hbonds>
donor molecule, donor type, donor heavy atom, donor atom, acceptor molecule, acceptor atom, score
      L1  H     5    40       P1  8028  2.00
      L1  H    10    30       P1  7948  0.99
      P1  H  6896  6909       L1    15  1.00

> <Gold.PLP.Chemscore.Internal.Correction>
0.0077

> <Gold.Rescore>
     Score         DG    S(hbond)    S(metal)    S(lipo)     H(rot)  DE(clash)    DE(int)     intcor
     18.38     -18.90       2.92        0.00      87.99       2.59       0.13       0.39       ----

> <Gold.Chemscore.Fitness>
18.3753

> <Gold.Chemscore.DG>
-18.8997

> <Gold.Chemscore.ZeroCoef>
-5.4800

> <Gold.Chemscore.Hbond>
2.9172

> <Gold.Chemscore.Metal>
0.0000

> <Gold.Chemscore.Lipo>
87.9904

> <Gold.Chemscore.Internal_Hbond>
0.0000

> <Gold.Chemscore.DEClash>
0.1346

> <Gold.Chemscore.DEInternal>
0.3898

> <Gold.Chemscore.Rot>
2.5854

> <Gold.Chemscore.Internal.Correction>
   9.000000E+99

> <Gold.Chemscore.Hbonds>
donor molecule, donor type, donor heavy atom, donor atom, acceptor molecule, acceptor atom, score
      L1  H     5    40       P1  8028  0.97
      L1  H    10    30       P1  7948  0.60
      P1  H  6896  6909       L1    15  0.90

> <Gold.Chemscore.Hbond.Weighted>
-9.7435

> <Gold.Chemscore.Metal.Weighted>
-0.0000

> <Gold.Chemscore.Lipo.Weighted>
-10.2949

> <Gold.Chemscore.Internal_Hbond.Weighted>
0.0000

> <Gold.Chemscore.DEClash.Weighted>
0.1346

> <Gold.Chemscore.DEInternal.Weighted>
0.3898

> <Gold.Chemscore.Rot.Weighted>
6.6187

> <Gold.Chemscore.Internal.Correction.Weighted>
   9.000000E+99

> <Gold.Protein.RotatedTorsions>
[ 6907 6896 6895 6894 ] final   73.07 input  -60.11 | X-H torsion
[ 7974 7965 7964 7962 ] final   74.67 input  175.53 | X-H torsion
[ 8008 7997 7996 7995 ] final  172.30 input   59.86 | X-H torsion
[ 10167 10162 10161 10158 ] final  -84.35 input  -65.29 | X-H torsion
[ 10718 10713 10712 10709 ] final   -7.31 input   66.30 | X-H torsion
[ 10763 10752 10751 10750 ] final  -85.79 input  -60.55 | X-H torsion
[ 11005 11000 10999 10996 ] final  -33.66 input  -57.11 | X-H torsion

> <Gold.Protein.ActiveResidues>
 VAL166  LYS551  ARG553  GLY616  TRP617  ASP618  TYR619  PRO620  LYS621  CYS622 
 ASP623  PHE694  ASN695  SER759  ASP760  ASP761  ALA762  ILE779  LEU786  VAL792 
 PHE793  MET794  SER795  GLU796  ALA797  LYS798  CYS799  TRP800  GLU811  SER814 

> <Gold.Protein.RotatedAtoms>
  152.4903  134.4477  159.9563 H   0  0  0  0  0  0  0  0  0  0  0  0  # atno 6907 bound_to 6896
  151.4465  133.3623  159.2797 H   0  0  0  0  0  0  0  0  0  0  0  0  # atno 6908 bound_to 6896
  150.9051  134.8489  159.7447 H   0  0  0  0  0  0  0  0  0  0  0  0  # atno 6909 bound_to 6896
  145.7253  139.2663  143.1572 H   0  0  0  0  0  0  0  0  0  0  0  0  # atno 7974 bound_to 7965
  156.1188  140.1489  156.9235 H   0  0  0  0  0  0  0  0  0  0  0  0  # atno 8008 bound_to 7997
  154.4820  140.0876  156.7441 H   0  0  0  0  0  0  0  0  0  0  0  0  # atno 8009 bound_to 7997
  155.4466  140.3433  155.4298 H   0  0  0  0  0  0  0  0  0  0  0  0  # atno 8010 bound_to 7997
  140.4140  143.2611  151.8979 H   0  0  0  0  0  0  0  0  0  0  0  0  # atno 10167 bound_to 10162
  156.7190  130.5145  149.5873 H   0  0  0  0  0  0  0  0  0  0  0  0  # atno 10718 bound_to 10713
  154.6151  135.5472  153.7514 H   0  0  0  0  0  0  0  0  0  0  0  0  # atno 10763 bound_to 10752
  153.0212  135.6399  154.1522 H   0  0  0  0  0  0  0  0  0  0  0  0  # atno 10764 bound_to 10752
  154.1459  135.2905  155.3128 H   0  0  0  0  0  0  0  0  0  0  0  0  # atno 10765 bound_to 10752
  140.9653  133.7140  156.1435 H   0  0  0  0  0  0  0  0  0  0  0  0  # atno 11005 bound_to 11000
  146.0588  140.7993  142.9745 LP  0  0  0  0  0  0  0  0  0  0  0  0  # atno 17320 bound_to 7965
  144.6906  140.3164  143.7239 LP  0  0  0  0  0  0  0  0  0  0  0  0  # atno 17321 bound_to 7965
  139.4782  144.5507  151.8390 LP  0  0  0  0  0  0  0  0  0  0  0  0  # atno 17342 bound_to 10162
  140.4606  144.1727  150.5906 LP  0  0  0  0  0  0  0  0  0  0  0  0  # atno 17343 bound_to 10162
  156.1607  130.6372  151.0715 LP  0  0  0  0  0  0  0  0  0  0  0  0  # atno 17370 bound_to 10713
  157.6905  131.0811  150.7120 LP  0  0  0  0  0  0  0  0  0  0  0  0  # atno 17371 bound_to 10713
  140.7408  134.4152  157.5555 LP  0  0  0  0  0  0  0  0  0  0  0  0  # atno 17394 bound_to 11000
  139.8892  134.8835  156.2432 LP  0  0  0  0  0  0  0  0  0  0  0  0  # atno 17395 bound_to 11000

$$$$
