AV-unprocessed.smi:1460|AV-procd|sdf|5928|dock7
  -GOLD-   22720 6 13D 1   1.00000     0.00000
 Structure written by MMmdl.
 41 42  0  0  0  0  0  0  0  0  1 V2000
  152.4723  144.6485  158.0716 C   0  0  0  0  0  0  0  0  0  0  0  0
  151.2216  143.7568  157.9998 C   0  0  2  0  0  0  0  0  0  0  0  0
  150.8452  143.1246  159.3584 C   0  0  0  0  0  0  0  0  0  0  0  0
  151.9955  142.6416  160.1008 N   0  0  0  0  0  0  0  0  0  0  0  0
  153.1776  142.1280  159.6101 C   0  0  0  0  0  0  0  0  0  0  0  0
  153.9554  141.8015  160.6838 C   0  0  0  0  0  0  0  0  0  0  0  0
  153.1494  142.1504  161.8033 C   0  0  0  0  0  0  0  0  0  0  0  0
  151.9757  142.6495  161.4512 N   0  0  0  0  0  0  0  0  0  0  0  0
  151.4390  142.7104  157.0052 N   0  0  0  0  0  0  0  0  0  0  0  0
  150.5207  141.8219  156.5940 C   0  0  0  0  0  0  0  0  0  0  0  0
  149.3668  141.7950  157.0226 O   0  0  0  0  0  0  0  0  0  0  0  0
  150.9789  140.8070  155.5385 C   0  0  0  0  0  0  0  0  0  0  0  0
  149.7858  139.9724  155.0179 C   0  0  0  0  0  0  0  0  0  0  0  0
  150.2606  138.8698  154.0545 C   0  0  0  0  0  0  0  0  0  0  0  0
  151.2466  138.0257  154.7499 N   0  0  0  0  0  0  0  0  0  0  0  0
  151.0402  136.7682  155.2163 C   0  0  0  0  0  0  0  0  0  0  0  0
  150.0031  136.1209  154.6757 N   0  0  0  0  0  0  0  0  0  0  0  0
  151.7529  136.2254  156.0589 O   0  0  0  0  0  0  0  0  0  0  0  0
  152.4580  138.7867  155.0807 C   0  0  0  0  0  0  0  0  0  0  0  0
  152.0938  139.8886  156.0923 C   0  0  0  0  0  0  0  0  0  0  0  0
  152.3219  145.4960  158.7404 H   0  0  0  0  0  0  0  0  0  0  0  0
  152.7211  145.0537  157.0902 H   0  0  0  0  0  0  0  0  0  0  0  0
  153.3373  144.0900  158.4306 H   0  0  0  0  0  0  0  0  0  0  0  0
  150.3941  144.3865  157.6670 H   0  0  0  0  0  0  0  0  0  0  0  0
  150.3161  143.8462  159.9827 H   0  0  0  0  0  0  0  0  0  0  0  0
  150.1626  142.2873  159.2055 H   0  0  0  0  0  0  0  0  0  0  0  0
  153.3654  142.0415  158.5501 H   0  0  0  0  0  0  0  0  0  0  0  0
  154.9478  141.3765  160.6715 H   0  0  0  0  0  0  0  0  0  0  0  0
  153.3800  142.0546  162.8541 H   0  0  0  0  0  0  0  0  0  0  0  0
  152.3611  142.6569  156.5977 H   0  0  0  0  0  0  0  0  0  0  0  0
  151.3947  141.3544  154.6905 H   0  0  0  0  0  0  0  0  0  0  0  0
  149.2502  139.5134  155.8507 H   0  0  0  0  0  0  0  0  0  0  0  0
  149.0703  140.6202  154.5098 H   0  0  0  0  0  0  0  0  0  0  0  0
  149.4011  138.3211  153.6700 H   0  0  0  0  0  0  0  0  0  0  0  0
  150.7300  139.3188  153.1779 H   0  0  0  0  0  0  0  0  0  0  0  0
  149.7888  135.1793  154.9692 H   0  0  0  0  0  0  0  0  0  0  0  0
  149.4412  136.5775  153.9723 H   0  0  0  0  0  0  0  0  0  0  0  0
  153.2527  138.1582  155.4850 H   0  0  0  0  0  0  0  0  0  0  0  0
  152.8674  139.2300  154.1718 H   0  0  0  0  0  0  0  0  0  0  0  0
  152.9805  140.4780  156.3290 H   0  0  0  0  0  0  0  0  0  0  0  0
  151.7754  139.4221  157.0261 H   0  0  0  0  0  0  0  0  0  0  0  0
  1  2  1  0  0  0  0
  1 21  1  0  0  0  0
  1 22  1  0  0  0  0
  1 23  1  0  0  0  0
  2  3  1  0  0  0  0
  2  9  1  0  0  0  0
  2 24  1  0  0  0  0
  3  4  1  0  0  0  0
  3 25  1  0  0  0  0
  3 26  1  0  0  0  0
  4  8  1  0  0  0  0
  4  5  1  0  0  0  0
  5  6  2  0  0  0  0
  5 27  1  0  0  0  0
  6  7  1  0  0  0  0
  6 28  1  0  0  0  0
  7  8  2  0  0  0  0
  7 29  1  0  0  0  0
  9 10  1  0  0  0  0
  9 30  1  0  0  0  0
 10 11  2  0  0  0  0
 10 12  1  0  0  0  0
 12 20  1  0  0  0  0
 12 13  1  0  0  0  0
 12 31  1  0  0  0  0
 13 14  1  0  0  0  0
 13 32  1  0  0  0  0
 13 33  1  0  0  0  0
 14 15  1  0  0  0  0
 14 34  1  0  0  0  0
 14 35  1  0  0  0  0
 15 16  1  0  0  0  0
 15 19  1  0  0  0  0
 16 17  1  0  0  0  0
 16 18  2  0  0  0  0
 17 36  1  0  0  0  0
 17 37  1  0  0  0  0
 19 20  1  0  0  0  0
 19 38  1  0  0  0  0
 19 39  1  0  0  0  0
 20 40  1  0  0  0  0
 20 41  1  0  0  0  0
M  END
> <s_m_source_file>
AV-unprocessed.smi

> <i_m_source_file_index>
1460

> <i_lp_mmshare_version>
43012

> <i_f3d_flags>
0

> <s_epik_input>
bjFbY0hdW2NIXVtjSF1uMVtDSDJdW0NAQEhdKFtDSDNdKVtOSF1DKD1PKVtDSF0yW0NIMl1bQ0gyXU4oQyg9TylbTkgyXSlbQ0gyXVtDSDJdMg==

> <s_epik_cmdline>
J2VwaWtfcHl0aG9uJywgJy1waCcsICc3LjAnLCAnLXRuJywgJzgnLCAnLW1hJywgJzIwMCcsICctbWV0YWxfYmluZGluZycsICctaW1hZScsICc8aW5maWxlLm1hZT4nLCAnLW9tYWUnLCAnPG91dGZpbGUubWFlPic=

> <r_lp_tautomer_probability>
1

> <r_epik_Ionization_Penalty>
0.000387527

> <r_epik_Ionization_Penalty_Charging>
0

> <r_epik_Ionization_Penalty_Neutral>
0.000387527

> <r_epik_State_Penalty>
-0

> <r_epik_Charging_Adjusted_Penalty>
0

> <i_epik_Tot_Q>
0

> <i_epik_Tot_abs_Q>
0

> <r_epik_Metal_State_Penalty>
-0

> <b_epik_Metal_Only>
0

> <s_lp_Force_Field>
OPLS_2005

> <r_lp_Energy>
26.2675

> <b_lp_Chiralities_Consistent>
1

> <s_lp_Variant>
AV-unprocessed.smi:1460-1

> <Gold.Version>
5.8.1

> <Gold.Id.Protein>
6NUR|6NUR_protein|mol2

> <Gold.PLP.Fitness>
48.6852

> <Gold.PLP.PLP>
-44.4556

> <Gold.PLP.part.hbond>
-3.0000

> <Gold.PLP.part.metal>
0.0000

> <Gold.PLP.part.buried>
-1.1651

> <Gold.PLP.part.nonpolar>
-41.8097

> <Gold.PLP.part.repulsive>
0.3650

> <Gold.PLP.ligand.clash>
0.0000

> <Gold.PLP.ligand.torsion>
0.7374

> <Gold.PLP.Chemscore.Hbond>
1.8783

> <Gold.PLP.Chemscore.CHOScore>
0.0000

> <Gold.PLP.Chemscore.Metal>
0.0000

> <Gold.Chemscore.Hbonds>
donor molecule, donor type, donor heavy atom, donor atom, acceptor molecule, acceptor atom, score
      L1  H    17    37       P1  7948  0.46
      P1  H  6933  6945       L1     8  0.26
      P1  H 10752 10763       L1    18  0.95

> <Gold.PLP.Chemscore.Internal.Correction>
0.0696

> <Gold.Rescore>
     Score         DG    S(hbond)    S(metal)    S(lipo)     H(rot)  DE(clash)    DE(int)     intcor
     16.47     -18.48       1.82        0.00      99.10       1.82       0.60       1.41       ----

> <Gold.Chemscore.Fitness>
16.4670

> <Gold.Chemscore.DG>
-18.4782

> <Gold.Chemscore.ZeroCoef>
-5.4800

> <Gold.Chemscore.Hbond>
1.8155

> <Gold.Chemscore.Metal>
0.0000

> <Gold.Chemscore.Lipo>
99.1041

> <Gold.Chemscore.Internal_Hbond>
0.0000

> <Gold.Chemscore.DEClash>
0.5995

> <Gold.Chemscore.DEInternal>
1.4117

> <Gold.Chemscore.Rot>
1.8206

> <Gold.Chemscore.Internal.Correction>
   9.000000E+99

> <Gold.Chemscore.Hbonds>
donor molecule, donor type, donor heavy atom, donor atom, acceptor molecule, acceptor atom, score
      L1  H    17    37       P1  7948  0.40
      P1  H  6933  6945       L1     8  0.20
      P1  H 10752 10763       L1    18  0.22

> <Gold.Chemscore.Hbond.Weighted>
-6.0637

> <Gold.Chemscore.Metal.Weighted>
-0.0000

> <Gold.Chemscore.Lipo.Weighted>
-11.5952

> <Gold.Chemscore.Internal_Hbond.Weighted>
0.0000

> <Gold.Chemscore.DEClash.Weighted>
0.5995

> <Gold.Chemscore.DEInternal.Weighted>
1.4117

> <Gold.Chemscore.Rot.Weighted>
4.6607

> <Gold.Chemscore.Internal.Correction.Weighted>
   9.000000E+99

> <Gold.Protein.RotatedTorsions>
[ 6907 6896 6895 6894 ] final  -23.81 input  -60.11 | X-H torsion
[ 7974 7965 7964 7962 ] final  160.73 input  175.53 | X-H torsion
[ 8008 7997 7996 7995 ] final   22.18 input   59.86 | X-H torsion
[ 10167 10162 10161 10158 ] final  140.22 input  -65.29 | X-H torsion
[ 10718 10713 10712 10709 ] final  172.37 input   66.30 | X-H torsion
[ 10763 10752 10751 10750 ] final   79.09 input  -60.55 | X-H torsion
[ 11005 11000 10999 10996 ] final -171.14 input  -57.11 | X-H torsion

> <Gold.Protein.ActiveResidues>
 VAL166  LYS551  ARG553  GLY616  TRP617  ASP618  TYR619  PRO620  LYS621  CYS622 
 ASP623  PHE694  ASN695  SER759  ASP760  ASP761  ALA762  ILE779  LEU786  VAL792 
 PHE793  MET794  SER795  GLU796  ALA797  LYS798  CYS799  TRP800  GLU811  SER814 

> <Gold.Protein.RotatedAtoms>
  151.1985  135.0433  159.8862 H   0  0  0  0  0  0  0  0  0  0  0  0  # atno 6907 bound_to 6896
  152.5434  134.0876  159.8273 H   0  0  0  0  0  0  0  0  0  0  0  0  # atno 6908 bound_to 6896
  151.1014  133.5193  159.2642 H   0  0  0  0  0  0  0  0  0  0  0  0  # atno 6909 bound_to 6896
  144.7722  139.7799  143.6293 H   0  0  0  0  0  0  0  0  0  0  0  0  # atno 7974 bound_to 7965
  154.9618  140.3079  155.5027 H   0  0  0  0  0  0  0  0  0  0  0  0  # atno 8008 bound_to 7997
  156.2976  140.2300  156.4643 H   0  0  0  0  0  0  0  0  0  0  0  0  # atno 8009 bound_to 7997
  154.7958  140.0437  157.1223 H   0  0  0  0  0  0  0  0  0  0  0  0  # atno 8010 bound_to 7997
  139.5055  144.6247  151.5965 H   0  0  0  0  0  0  0  0  0  0  0  0  # atno 10167 bound_to 10162
  156.9799  131.0115  151.2884 H   0  0  0  0  0  0  0  0  0  0  0  0  # atno 10718 bound_to 10713
  153.0925  135.4852  154.8717 H   0  0  0  0  0  0  0  0  0  0  0  0  # atno 10763 bound_to 10752
  154.7286  135.3055  154.8931 H   0  0  0  0  0  0  0  0  0  0  0  0  # atno 10764 bound_to 10752
  153.9574  135.6816  153.4798 H   0  0  0  0  0  0  0  0  0  0  0  0  # atno 10765 bound_to 10752
  140.5115  134.5797  157.5020 H   0  0  0  0  0  0  0  0  0  0  0  0  # atno 11005 bound_to 11000
  146.1876  139.5099  142.9826 LP  0  0  0  0  0  0  0  0  0  0  0  0  # atno 17320 bound_to 7965
  145.6291  141.0307  143.1873 LP  0  0  0  0  0  0  0  0  0  0  0  0  # atno 17321 bound_to 7965
  140.5961  143.9694  150.6355 LP  0  0  0  0  0  0  0  0  0  0  0  0  # atno 17342 bound_to 10162
  140.2890  143.3337  152.1080 LP  0  0  0  0  0  0  0  0  0  0  0  0  # atno 17343 bound_to 10162
  157.5534  130.8197  149.8173 LP  0  0  0  0  0  0  0  0  0  0  0  0  # atno 17370 bound_to 10713
  156.0249  130.3783  150.1853 LP  0  0  0  0  0  0  0  0  0  0  0  0  # atno 17371 bound_to 10713
  139.9656  134.7379  156.0145 LP  0  0  0  0  0  0  0  0  0  0  0  0  # atno 17394 bound_to 11000
  141.1383  133.6570  156.3656 LP  0  0  0  0  0  0  0  0  0  0  0  0  # atno 17395 bound_to 11000

$$$$
