AV-unprocessed.smi:1723|AV-procd|sdf|6946|dock4
  -GOLD-   22720 8153D 1   1.00000     0.00000
 Structure written by MMmdl.
 38 38  0  0  0  0  0  0  0  0  1 V2000
  139.0445  141.2194  154.2586 C   0  0  0  0  0  0  0  0  0  0  0  0
  138.1296  140.1619  153.6314 C   0  0  0  0  0  0  0  0  0  0  0  0
  138.8594  138.8392  153.3576 C   0  0  0  0  0  0  0  0  0  0  0  0
  139.0607  138.0032  154.6265 C   0  0  0  0  0  0  0  0  0  0  0  0
  140.0212  136.9894  154.3536 O   0  0  0  0  0  0  0  0  0  0  0  0
  141.2887  137.4525  153.8942 C   0  0  1  0  0  0  0  0  0  0  0  0
  141.9707  138.1709  155.0677 C   0  0  0  0  0  0  0  0  0  0  0  0
  142.1364  136.2718  153.3940 C   0  0  0  0  0  0  0  0  0  0  0  0
  141.7915  135.1212  153.6633 O   0  0  0  0  0  0  0  0  0  0  0  0
  143.2278  136.6042  152.6766 N   0  0  0  0  0  0  0  0  0  0  0  0
  144.1490  135.7652  152.0290 C   0  0  0  0  0  0  0  0  0  0  0  0
  143.8178  134.6401  151.3435 C   0  0  0  0  0  0  0  0  0  0  0  0
  144.8161  133.8207  150.6775 C   0  0  0  0  0  0  0  0  0  0  0  0
  144.4243  132.5967  149.8642 C   0  0  0  0  0  0  0  0  0  0  0  0
  145.4993  131.9414  149.4242 F   0  0  0  0  0  0  0  0  0  0  0  0
  143.7091  131.7626  150.6174 F   0  0  0  0  0  0  0  0  0  0  0  0
  143.6843  132.9414  148.8102 F   0  0  0  0  0  0  0  0  0  0  0  0
  146.0898  134.2502  150.7493 C   0  0  0  0  0  0  0  0  0  0  0  0
  146.4386  135.4057  151.4526 N   0  0  0  0  0  0  0  0  0  0  0  0
  145.5538  136.2001  152.0959 C   0  0  0  0  0  0  0  0  0  0  0  0
  145.9386  137.2089  152.6860 O   0  0  0  0  0  0  0  0  0  0  0  0
  147.4168  135.6560  151.4685 H   0  0  0  0  0  0  0  0  0  0  0  0
  138.5001  142.1464  154.4401 H   0  0  0  0  0  0  0  0  0  0  0  0
  139.8859  141.4502  153.6047 H   0  0  0  0  0  0  0  0  0  0  0  0
  139.4451  140.8768  155.2130 H   0  0  0  0  0  0  0  0  0  0  0  0
  137.2832  139.9819  154.2951 H   0  0  0  0  0  0  0  0  0  0  0  0
  137.7152  140.5512  152.7010 H   0  0  0  0  0  0  0  0  0  0  0  0
  138.2980  138.2568  152.6259 H   0  0  0  0  0  0  0  0  0  0  0  0
  139.8312  139.0463  152.9075 H   0  0  0  0  0  0  0  0  0  0  0  0
  139.3915  138.6505  155.4394 H   0  0  0  0  0  0  0  0  0  0  0  0
  138.1166  137.5479  154.9298 H   0  0  0  0  0  0  0  0  0  0  0  0
  141.1410  138.1747  153.0885 H   0  0  0  0  0  0  0  0  0  0  0  0
  142.9578  138.5399  154.7868 H   0  0  0  0  0  0  0  0  0  0  0  0
  142.0911  137.5113  155.9281 H   0  0  0  0  0  0  0  0  0  0  0  0
  141.3794  139.0277  155.3915 H   0  0  0  0  0  0  0  0  0  0  0  0
  143.4389  137.5899  152.6141 H   0  0  0  0  0  0  0  0  0  0  0  0
  142.7896  134.3283  151.2569 H   0  0  0  0  0  0  0  0  0  0  0  0
  146.9264  133.7561  150.2776 H   0  0  0  0  0  0  0  0  0  0  0  0
  1  2  1  0  0  0  0
  1 23  1  0  0  0  0
  1 24  1  0  0  0  0
  1 25  1  0  0  0  0
  2  3  1  0  0  0  0
  2 26  1  0  0  0  0
  2 27  1  0  0  0  0
  3  4  1  0  0  0  0
  3 28  1  0  0  0  0
  3 29  1  0  0  0  0
  4  5  1  0  0  0  0
  4 30  1  0  0  0  0
  4 31  1  0  0  0  0
  5  6  1  0  0  0  0
  6  7  1  0  0  0  0
  6  8  1  0  0  0  0
  6 32  1  0  0  0  0
  7 33  1  0  0  0  0
  7 34  1  0  0  0  0
  7 35  1  0  0  0  0
  8  9  2  0  0  0  0
  8 10  1  0  0  0  0
 10 11  1  0  0  0  0
 10 36  1  0  0  0  0
 11 20  1  0  0  0  0
 11 12  2  0  0  0  0
 12 13  1  0  0  0  0
 12 37  1  0  0  0  0
 13 14  1  0  0  0  0
 13 18  2  0  0  0  0
 14 15  1  0  0  0  0
 14 16  1  0  0  0  0
 14 17  1  0  0  0  0
 18 19  1  0  0  0  0
 18 38  1  0  0  0  0
 19 22  1  0  0  0  0
 19 20  1  0  0  0  0
 20 21  2  0  0  0  0
M  END
> <s_m_source_file>
AV-unprocessed.smi

> <i_m_source_file_index>
1723

> <i_lp_mmshare_version>
43012

> <i_f3d_flags>
0

> <s_epik_input>
W0NIM11bQ0gyXVtDSDJdW0NIMl1PW0NASF0oW0NIM10pQyg9TylbTkhdYzFbY0hdYyhDKEYpKEYpRilbY0hdW25IXWMxPU8=

> <s_epik_cmdline>
J2VwaWtfcHl0aG9uJywgJy1waCcsICc3LjAnLCAnLXRuJywgJzgnLCAnLW1hJywgJzIwMCcsICctbWV0YWxfYmluZGluZycsICctaW1hZScsICc8aW5maWxlLm1hZT4nLCAnLW9tYWUnLCAnPG91dGZpbGUubWFlPic=

> <r_lp_tautomer_probability>
0.999

> <r_epik_Ionization_Penalty>
0.00763408

> <r_epik_Ionization_Penalty_Charging>
0.00763398

> <r_epik_Ionization_Penalty_Neutral>
9.29819e-08

> <r_epik_State_Penalty>
0.00571302

> <r_epik_Charging_Adjusted_Penalty>
0.013347

> <i_epik_Tot_Q>
0

> <i_epik_Tot_abs_Q>
0

> <r_epik_Metal_State_Penalty>
0.392814

> <b_epik_Metal_Only>
0

> <s_lp_Force_Field>
OPLS_2005

> <r_lp_Energy>
18.7704

> <b_lp_Chiralities_Consistent>
1

> <s_lp_Variant>
AV-unprocessed.smi:1723-2

> <Gold.Version>
5.8.1

> <Gold.Id.Protein>
6NUR|6NUR_protein|mol2

> <Gold.PLP.Fitness>
40.2983

> <Gold.PLP.PLP>
-39.8678

> <Gold.PLP.part.hbond>
-1.0000

> <Gold.PLP.part.metal>
0.0000

> <Gold.PLP.part.buried>
-7.1972

> <Gold.PLP.part.nonpolar>
-32.5759

> <Gold.PLP.part.repulsive>
0.5709

> <Gold.PLP.ligand.clash>
0.8415

> <Gold.PLP.ligand.torsion>
0.9427

> <Gold.PLP.Chemscore.Hbond>
1.0000

> <Gold.PLP.Chemscore.CHOScore>
0.0000

> <Gold.PLP.Chemscore.Metal>
0.0000

> <Gold.Chemscore.Hbonds>
donor molecule, donor type, donor heavy atom, donor atom, acceptor molecule, acceptor atom, score
      L1  H    19    22       P1  7948  1.00

> <Gold.PLP.Chemscore.Internal.Correction>
0.1573

> <Gold.Rescore>
     Score         DG    S(hbond)    S(metal)    S(lipo)     H(rot)  DE(clash)    DE(int)     intcor
     10.77     -11.85       0.99        0.00      69.71       1.99       0.15       0.93       ----

> <Gold.Chemscore.Fitness>
10.7744

> <Gold.Chemscore.DG>
-11.8498

> <Gold.Chemscore.ZeroCoef>
-5.4800

> <Gold.Chemscore.Hbond>
0.9939

> <Gold.Chemscore.Metal>
0.0000

> <Gold.Chemscore.Lipo>
69.7136

> <Gold.Chemscore.Internal_Hbond>
0.0000

> <Gold.Chemscore.DEClash>
0.1450

> <Gold.Chemscore.DEInternal>
0.9304

> <Gold.Chemscore.Rot>
1.9946

> <Gold.Chemscore.Internal.Correction>
   9.000000E+99

> <Gold.Chemscore.Hbonds>
donor molecule, donor type, donor heavy atom, donor atom, acceptor molecule, acceptor atom, score
      L1  H    19    22       P1  7948  0.97

> <Gold.Chemscore.Hbond.Weighted>
-3.3195

> <Gold.Chemscore.Metal.Weighted>
-0.0000

> <Gold.Chemscore.Lipo.Weighted>
-8.1565

> <Gold.Chemscore.Internal_Hbond.Weighted>
0.0000

> <Gold.Chemscore.DEClash.Weighted>
0.1450

> <Gold.Chemscore.DEInternal.Weighted>
0.9304

> <Gold.Chemscore.Rot.Weighted>
5.1062

> <Gold.Chemscore.Internal.Correction.Weighted>
   9.000000E+99

> <Gold.Protein.RotatedTorsions>
[ 6907 6896 6895 6894 ] final -167.24 input  -60.11 | X-H torsion
[ 7974 7965 7964 7962 ] final  -11.99 input  175.53 | X-H torsion
[ 8008 7997 7996 7995 ] final -107.19 input   59.86 | X-H torsion
[ 10167 10162 10161 10158 ] final  144.20 input  -65.29 | X-H torsion
[ 10718 10713 10712 10709 ] final  143.77 input   66.30 | X-H torsion
[ 10763 10752 10751 10750 ] final   17.74 input  -60.55 | X-H torsion
[ 11005 11000 10999 10996 ] final  -18.18 input  -57.11 | X-H torsion

> <Gold.Protein.ActiveResidues>
 VAL166  LYS551  ARG553  GLY616  TRP617  ASP618  TYR619  PRO620  LYS621  CYS622 
 ASP623  PHE694  ASN695  SER759  ASP760  ASP761  ALA762  ILE779  LEU786  VAL792 
 PHE793  MET794  SER795  GLU796  ALA797  LYS798  CYS799  TRP800  GLU811  SER814 

> <Gold.Protein.RotatedAtoms>
  151.4563  133.3604  159.2802 H   0  0  0  0  0  0  0  0  0  0  0  0  # atno 6907 bound_to 6896
  150.9056  134.8472  159.7401 H   0  0  0  0  0  0  0  0  0  0  0  0  # atno 6908 bound_to 6896
  152.4904  134.4488  159.9619 H   0  0  0  0  0  0  0  0  0  0  0  0  # atno 6909 bound_to 6896
  146.2168  140.2992  142.8374 H   0  0  0  0  0  0  0  0  0  0  0  0  # atno 7974 bound_to 7965
  154.9256  140.0406  157.2021 H   0  0  0  0  0  0  0  0  0  0  0  0  # atno 8008 bound_to 7997
  154.8211  140.2883  155.5765 H   0  0  0  0  0  0  0  0  0  0  0  0  # atno 8009 bound_to 7997
  156.2980  140.2518  156.3118 H   0  0  0  0  0  0  0  0  0  0  0  0  # atno 8010 bound_to 7997
  139.4952  144.5988  151.6525 H   0  0  0  0  0  0  0  0  0  0  0  0  # atno 10167 bound_to 10162
  157.3650  131.0970  151.0880 H   0  0  0  0  0  0  0  0  0  0  0  0  # atno 10718 bound_to 10713
  153.1312  135.6740  153.9175 H   0  0  0  0  0  0  0  0  0  0  0  0  # atno 10763 bound_to 10752
  153.8661  135.3075  155.3441 H   0  0  0  0  0  0  0  0  0  0  0  0  # atno 10764 bound_to 10752
  154.7709  135.4940  153.9728 H   0  0  0  0  0  0  0  0  0  0  0  0  # atno 10765 bound_to 10752
  140.8242  133.8045  155.9691 H   0  0  0  0  0  0  0  0  0  0  0  0  # atno 11005 bound_to 11000
  144.9070  140.7711  143.5831 LP  0  0  0  0  0  0  0  0  0  0  0  0  # atno 17320 bound_to 7965
  145.2921  139.1880  143.4735 LP  0  0  0  0  0  0  0  0  0  0  0  0  # atno 17321 bound_to 7965
  140.5633  144.0232  150.6180 LP  0  0  0  0  0  0  0  0  0  0  0  0  # atno 17342 bound_to 10162
  140.3325  143.3068  152.0672 LP  0  0  0  0  0  0  0  0  0  0  0  0  # atno 17343 bound_to 10162
  157.2006  130.6393  149.5737 LP  0  0  0  0  0  0  0  0  0  0  0  0  # atno 17370 bound_to 10713
  155.9744  130.4692  150.6387 LP  0  0  0  0  0  0  0  0  0  0  0  0  # atno 17371 bound_to 10713
  140.9067  134.2312  157.5010 LP  0  0  0  0  0  0  0  0  0  0  0  0  # atno 17394 bound_to 11000
  139.8707  134.9731  156.4798 LP  0  0  0  0  0  0  0  0  0  0  0  0  # atno 17395 bound_to 11000

$$$$
