AV-unprocessed.smi:1690|AV-procd|sdf|6773|dock9
  -GOLD-   22720 7533D 1   1.00000     0.00000
 Structure written by MMmdl.
 37 38  0  0  0  0  0  0  0  0  1 V2000
  151.0638  144.6181  159.8326 C   0  0  0  0  0  0  0  0  0  0  0  0
  152.4214  144.1513  159.2877 C   0  0  0  0  0  0  0  0  0  0  0  0
  152.6602  144.5668  157.8286 C   0  0  0  0  0  0  0  0  0  0  0  0
  152.6386  142.6857  159.4957 C   0  0  0  0  0  0  0  0  0  0  0  0
  151.9411  141.7365  158.8644 N   0  0  0  0  0  0  0  0  0  0  0  0
  152.3446  140.4435  159.2142 C   0  0  0  0  0  0  0  0  0  0  0  0
  151.6802  139.2544  158.5815 C   0  0  0  0  0  0  0  0  0  0  0  0
  151.7037  139.3762  157.0560 C   0  0  0  0  0  0  0  0  0  0  0  0
  152.7721  139.3055  156.4487 O   0  0  0  0  0  0  0  0  0  0  0  0
  150.5181  139.5500  156.4504 N   0  0  0  0  0  0  0  0  0  0  0  0
  150.3151  139.7035  155.0130 C   0  0  0  0  0  0  0  0  0  0  0  0
  149.5153  140.9861  154.7115 C   0  0  0  0  0  0  0  0  0  0  0  0
  148.3702  140.5670  153.7871 C   0  0  0  0  0  0  0  0  0  0  0  0
  148.1012  139.1103  154.1513 C   0  0  0  0  0  0  0  0  0  0  0  0
  149.4891  138.5371  154.4376 C   0  0  0  0  0  0  0  0  0  0  0  0
  153.3564  140.4270  160.1421 C   0  0  0  0  0  0  0  0  0  0  0  0
  153.8486  142.0352  160.5965 S   0  0  0  0  0  0  0  0  0  0  0  0
  150.9636  144.3793  160.8920 H   0  0  0  0  0  0  0  0  0  0  0  0
  150.2384  144.1407  159.3037 H   0  0  0  0  0  0  0  0  0  0  0  0
  150.9470  145.6967  159.7247 H   0  0  0  0  0  0  0  0  0  0  0  0
  153.1819  144.6611  159.8805 H   0  0  0  0  0  0  0  0  0  0  0  0
  153.6646  144.2942  157.5029 H   0  0  0  0  0  0  0  0  0  0  0  0
  152.5536  145.6446  157.7044 H   0  0  0  0  0  0  0  0  0  0  0  0
  151.9496  144.0837  157.1571 H   0  0  0  0  0  0  0  0  0  0  0  0
  152.1827  138.3332  158.8794 H   0  0  0  0  0  0  0  0  0  0  0  0
  150.6456  139.1618  158.9145 H   0  0  0  0  0  0  0  0  0  0  0  0
  149.6943  139.5940  157.0331 H   0  0  0  0  0  0  0  0  0  0  0  0
  151.2811  139.7515  154.5066 H   0  0  0  0  0  0  0  0  0  0  0  0
  149.0978  141.4059  155.6285 H   0  0  0  0  0  0  0  0  0  0  0  0
  150.1367  141.7600  154.2599 H   0  0  0  0  0  0  0  0  0  0  0  0
  147.4887  141.1989  153.8986 H   0  0  0  0  0  0  0  0  0  0  0  0
  148.6953  140.6296  152.7477 H   0  0  0  0  0  0  0  0  0  0  0  0
  147.4901  139.0632  155.0537 H   0  0  0  0  0  0  0  0  0  0  0  0
  147.5769  138.5689  153.3634 H   0  0  0  0  0  0  0  0  0  0  0  0
  149.9403  138.2074  153.5006 H   0  0  0  0  0  0  0  0  0  0  0  0
  149.4468  137.6670  155.0943 H   0  0  0  0  0  0  0  0  0  0  0  0
  153.8455  139.5684  160.5781 H   0  0  0  0  0  0  0  0  0  0  0  0
  1  2  1  0  0  0  0
  1 18  1  0  0  0  0
  1 19  1  0  0  0  0
  1 20  1  0  0  0  0
  2  3  1  0  0  0  0
  2  4  1  0  0  0  0
  2 21  1  0  0  0  0
  3 22  1  0  0  0  0
  3 23  1  0  0  0  0
  3 24  1  0  0  0  0
  4 17  1  0  0  0  0
  4  5  2  0  0  0  0
  5  6  1  0  0  0  0
  6  7  1  0  0  0  0
  6 16  2  0  0  0  0
  7  8  1  0  0  0  0
  7 25  1  0  0  0  0
  7 26  1  0  0  0  0
  8  9  2  0  0  0  0
  8 10  1  0  0  0  0
 10 11  1  0  0  0  0
 10 27  1  0  0  0  0
 11 15  1  0  0  0  0
 11 12  1  0  0  0  0
 11 28  1  0  0  0  0
 12 13  1  0  0  0  0
 12 29  1  0  0  0  0
 12 30  1  0  0  0  0
 13 14  1  0  0  0  0
 13 31  1  0  0  0  0
 13 32  1  0  0  0  0
 14 15  1  0  0  0  0
 14 33  1  0  0  0  0
 14 34  1  0  0  0  0
 15 35  1  0  0  0  0
 15 36  1  0  0  0  0
 16 17  1  0  0  0  0
 16 37  1  0  0  0  0
M  END
> <s_m_source_file>
AV-unprocessed.smi

> <i_m_source_file_index>
1690

> <i_lp_mmshare_version>
43012

> <i_f3d_flags>
0

> <s_epik_input>
W0NIM11bQ0hdKFtDSDNdKWMxbmMoW2NIXXMxKVtDSDJdQyg9TylbTkhdW0NIXTJbQ0gyXVtDSDJdW0NIMl1bQ0gyXTI=

> <s_epik_cmdline>
J2VwaWtfcHl0aG9uJywgJy1waCcsICc3LjAnLCAnLXRuJywgJzgnLCAnLW1hJywgJzIwMCcsICctbWV0YWxfYmluZGluZycsICctaW1hZScsICc8aW5maWxlLm1hZT4nLCAnLW9tYWUnLCAnPG91dGZpbGUubWFlPic=

> <r_lp_tautomer_probability>
1

> <r_epik_Ionization_Penalty>
4.81312e-05

> <r_epik_Ionization_Penalty_Charging>
0

> <r_epik_Ionization_Penalty_Neutral>
4.81312e-05

> <r_epik_State_Penalty>
-0

> <r_epik_Charging_Adjusted_Penalty>
0

> <i_epik_Tot_Q>
0

> <i_epik_Tot_abs_Q>
0

> <r_epik_Metal_State_Penalty>
-0

> <b_epik_Metal_Only>
0

> <s_lp_Force_Field>
OPLS_2005

> <r_lp_Energy>
9.48899

> <b_lp_Chiralities_Consistent>
1

> <s_lp_Variant>
AV-unprocessed.smi:1690-1

> <Gold.Version>
5.8.1

> <Gold.Id.Protein>
6NUR|6NUR_protein|mol2

> <Gold.PLP.Fitness>
44.1262

> <Gold.PLP.PLP>
-41.4444

> <Gold.PLP.part.hbond>
-1.0000

> <Gold.PLP.part.metal>
0.0000

> <Gold.PLP.part.buried>
-3.3142

> <Gold.PLP.part.nonpolar>
-36.5461

> <Gold.PLP.part.repulsive>
0.0393

> <Gold.PLP.ligand.clash>
0.0000

> <Gold.PLP.ligand.torsion>
0.1976

> <Gold.PLP.Chemscore.Hbond>
1.0000

> <Gold.PLP.Chemscore.CHOScore>
0.0000

> <Gold.PLP.Chemscore.Metal>
0.0000

> <Gold.Chemscore.Hbonds>
donor molecule, donor type, donor heavy atom, donor atom, acceptor molecule, acceptor atom, score
      P1  H  7997  8009       L1     9  1.00

> <Gold.PLP.Chemscore.Internal.Correction>
0.0770

> <Gold.Rescore>
     Score         DG    S(hbond)    S(metal)    S(lipo)     H(rot)  DE(clash)    DE(int)     intcor
     18.91     -19.23       0.99        0.00     118.68       1.35       0.08       0.24       ----

> <Gold.Chemscore.Fitness>
18.9088

> <Gold.Chemscore.DG>
-19.2315

> <Gold.Chemscore.ZeroCoef>
-5.4800

> <Gold.Chemscore.Hbond>
0.9937

> <Gold.Chemscore.Metal>
0.0000

> <Gold.Chemscore.Lipo>
118.6824

> <Gold.Chemscore.Internal_Hbond>
0.0000

> <Gold.Chemscore.DEClash>
0.0840

> <Gold.Chemscore.DEInternal>
0.2387

> <Gold.Chemscore.Rot>
1.3489

> <Gold.Chemscore.Internal.Correction>
   9.000000E+99

> <Gold.Chemscore.Hbonds>
donor molecule, donor type, donor heavy atom, donor atom, acceptor molecule, acceptor atom, score
      P1  H  7997  8009       L1     9  1.00

> <Gold.Chemscore.Hbond.Weighted>
-3.3188

> <Gold.Chemscore.Metal.Weighted>
-0.0000

> <Gold.Chemscore.Lipo.Weighted>
-13.8858

> <Gold.Chemscore.Internal_Hbond.Weighted>
0.0000

> <Gold.Chemscore.DEClash.Weighted>
0.0840

> <Gold.Chemscore.DEInternal.Weighted>
0.2387

> <Gold.Chemscore.Rot.Weighted>
3.4532

> <Gold.Chemscore.Internal.Correction.Weighted>
   9.000000E+99

> <Gold.Protein.RotatedTorsions>
[ 6907 6896 6895 6894 ] final   -5.67 input  -60.11 | X-H torsion
[ 7974 7965 7964 7962 ] final -122.67 input  175.53 | X-H torsion
[ 8008 7997 7996 7995 ] final -175.86 input   59.86 | X-H torsion
[ 10167 10162 10161 10158 ] final   90.52 input  -65.29 | X-H torsion
[ 10718 10713 10712 10709 ] final   52.44 input   66.30 | X-H torsion
[ 10763 10752 10751 10750 ] final  -51.53 input  -60.55 | X-H torsion
[ 11005 11000 10999 10996 ] final -109.58 input  -57.11 | X-H torsion

> <Gold.Protein.ActiveResidues>
 VAL166  LYS551  ARG553  GLY616  TRP617  ASP618  TYR619  PRO620  LYS621  CYS622 
 ASP623  PHE694  ASN695  SER759  ASP760  ASP761  ALA762  ILE779  LEU786  VAL792 
 PHE793  MET794  SER795  GLU796  ALA797  LYS798  CYS799  TRP800  GLU811  SER814 

> <Gold.Protein.RotatedAtoms>
  151.4779  135.1050  159.9769 H   0  0  0  0  0  0  0  0  0  0  0  0  # atno 6907 bound_to 6896
  152.4791  133.8206  159.7062 H   0  0  0  0  0  0  0  0  0  0  0  0  # atno 6908 bound_to 6896
  150.8849  133.7260  159.2947 H   0  0  0  0  0  0  0  0  0  0  0  0  # atno 6909 bound_to 6896
  145.0270  140.8036  143.4346 H   0  0  0  0  0  0  0  0  0  0  0  0  # atno 7974 bound_to 7965
  155.9878  140.1195  157.0666 H   0  0  0  0  0  0  0  0  0  0  0  0  # atno 8008 bound_to 7997
  154.4202  140.1131  156.5592 H   0  0  0  0  0  0  0  0  0  0  0  0  # atno 8009 bound_to 7997
  155.6383  140.3473  155.4708 H   0  0  0  0  0  0  0  0  0  0  0  0  # atno 8010 bound_to 7997
  139.8465  144.6615  150.9220 H   0  0  0  0  0  0  0  0  0  0  0  0  # atno 10167 bound_to 10162
  157.5075  130.8478  149.8393 H   0  0  0  0  0  0  0  0  0  0  0  0  # atno 10718 bound_to 10713
  154.1281  135.6524  153.4916 H   0  0  0  0  0  0  0  0  0  0  0  0  # atno 10763 bound_to 10752
  153.0204  135.5286  154.7029 H   0  0  0  0  0  0  0  0  0  0  0  0  # atno 10764 bound_to 10752
  154.6256  135.2970  155.0246 H   0  0  0  0  0  0  0  0  0  0  0  0  # atno 10765 bound_to 10752
  141.0839  133.9172  157.2227 H   0  0  0  0  0  0  0  0  0  0  0  0  # atno 11005 bound_to 11000
  145.1821  139.2346  143.5287 LP  0  0  0  0  0  0  0  0  0  0  0  0  # atno 17320 bound_to 7965
  146.3493  140.1597  142.8591 LP  0  0  0  0  0  0  0  0  0  0  0  0  # atno 17321 bound_to 7965
  140.7792  143.3865  151.1384 LP  0  0  0  0  0  0  0  0  0  0  0  0  # atno 17342 bound_to 10162
  139.7507  143.8783  152.3076 LP  0  0  0  0  0  0  0  0  0  0  0  0  # atno 17343 bound_to 10162
  156.0267  130.3777  150.1802 LP  0  0  0  0  0  0  0  0  0  0  0  0  # atno 17370 bound_to 10713
  156.9992  130.9917  151.3395 LP  0  0  0  0  0  0  0  0  0  0  0  0  # atno 17371 bound_to 10713
  139.9656  135.0143  156.9377 LP  0  0  0  0  0  0  0  0  0  0  0  0  # atno 17394 bound_to 11000
  140.5406  134.0724  155.7340 LP  0  0  0  0  0  0  0  0  0  0  0  0  # atno 17395 bound_to 11000

$$$$
