AV-unprocessed.smi:1644|AV-procd|sdf|6592|dock5
  -GOLD-   22720 7293D 1   1.00000     0.00000
 Structure written by MMmdl.
 48 50  0  0  0  0  0  0  0  0  2 V2000
  149.5359  132.8631  153.9652 C   0  0  0  0  0  0  0  0  0  0  0  0
  149.7335  133.8658  155.1071 C   0  0  0  0  0  0  0  0  0  0  0  0
  150.3713  135.1869  154.6251 C   0  0  0  0  0  0  0  0  0  0  0  0
  150.2842  136.3839  155.6032 C   0  0  2  0  0  0  0  0  0  0  0  0
  148.9171  136.6667  155.9878 N   0  5  0  0  0  0  0  0  0  0  0  0
  148.6440  137.9561  155.6778 C   0  0  0  0  0  0  0  0  0  0  0  0
  147.5760  138.5429  155.8502 O   0  0  0  0  0  0  0  0  0  0  0  0
  149.7123  138.5584  155.1188 N   0  0  0  0  0  0  0  0  0  0  0  0
  149.7415  139.9403  154.6296 C   0  0  0  0  0  0  0  0  0  0  0  0
  149.4862  140.9497  155.7677 C   0  0  2  0  0  0  0  0  0  0  0  0
  148.4411  141.8198  155.3768 O   0  0  0  0  0  0  0  0  0  0  0  0
  150.7365  141.7972  156.0700 C   0  0  0  0  0  0  0  0  0  0  0  0
  151.5955  141.1821  157.0658 N   0  0  0  0  0  0  0  0  0  0  0  0
  152.2236  139.9938  156.9796 C   0  0  0  0  0  0  0  0  0  0  0  0
  152.9618  139.6186  158.0206 N   0  0  0  0  0  0  0  0  0  0  0  0
  152.7955  140.6908  158.8807 C   0  0  0  0  0  0  0  0  0  0  0  0
  153.3220  140.9220  160.1706 C   0  0  0  0  0  0  0  0  0  0  0  0
  153.0179  142.1087  160.8754 C   0  0  0  0  0  0  0  0  0  0  0  0
  153.6107  142.3196  162.2576 C   0  0  0  0  0  0  0  0  0  0  0  0
  152.1710  143.0851  160.2915 C   0  0  0  0  0  0  0  0  0  0  0  0
  151.8347  144.3704  161.0266 C   0  0  0  0  0  0  0  0  0  0  0  0
  151.6319  142.8670  159.0064 C   0  0  0  0  0  0  0  0  0  0  0  0
  151.9456  141.6846  158.3136 C   0  0  0  0  0  0  0  0  0  0  0  0
  150.7347  137.7047  155.0134 C   0  0  0  0  0  0  0  0  0  0  0  0
  151.8444  137.9107  154.5212 O   0  0  0  0  0  0  0  0  0  0  0  0
  149.0829  131.9418  154.3322 H   0  0  0  0  0  0  0  0  0  0  0  0
  150.4874  132.6038  153.5002 H   0  0  0  0  0  0  0  0  0  0  0  0
  148.8839  133.2706  153.1921 H   0  0  0  0  0  0  0  0  0  0  0  0
  148.7675  134.0593  155.5736 H   0  0  0  0  0  0  0  0  0  0  0  0
  150.3591  133.4087  155.8742 H   0  0  0  0  0  0  0  0  0  0  0  0
  151.4207  135.0074  154.3869 H   0  0  0  0  0  0  0  0  0  0  0  0
  149.9053  135.4760  153.6823 H   0  0  0  0  0  0  0  0  0  0  0  0
  150.9074  136.1746  156.4736 H   0  0  0  0  0  0  0  0  0  0  0  0
  150.7248  140.1201  154.1917 H   0  0  0  0  0  0  0  0  0  0  0  0
  149.0367  140.0872  153.8091 H   0  0  0  0  0  0  0  0  0  0  0  0
  149.1851  140.4264  156.6764 H   0  0  0  0  0  0  0  0  0  0  0  0
  148.7845  142.6998  155.3407 H   0  0  0  0  0  0  0  0  0  0  0  0
  151.3247  141.9357  155.1618 H   0  0  0  0  0  0  0  0  0  0  0  0
  150.4515  142.7930  156.4132 H   0  0  0  0  0  0  0  0  0  0  0  0
  152.1343  139.3696  156.1023 H   0  0  0  0  0  0  0  0  0  0  0  0
  153.9666  140.1777  160.6149 H   0  0  0  0  0  0  0  0  0  0  0  0
  152.8203  142.4468  162.9976 H   0  0  0  0  0  0  0  0  0  0  0  0
  154.2434  143.2072  162.2696 H   0  0  0  0  0  0  0  0  0  0  0  0
  154.2209  141.4690  162.5635 H   0  0  0  0  0  0  0  0  0  0  0  0
  151.1672  145.0015  160.4390 H   0  0  0  0  0  0  0  0  0  0  0  0
  152.7407  144.9412  161.2307 H   0  0  0  0  0  0  0  0  0  0  0  0
  151.3408  144.1525  161.9737 H   0  0  0  0  0  0  0  0  0  0  0  0
  150.9856  143.6016  158.5486 H   0  0  0  0  0  0  0  0  0  0  0  0
  1  2  1  0  0  0  0
  1 26  1  0  0  0  0
  1 27  1  0  0  0  0
  1 28  1  0  0  0  0
  2  3  1  0  0  0  0
  2 29  1  0  0  0  0
  2 30  1  0  0  0  0
  3  4  1  0  0  0  0
  3 31  1  0  0  0  0
  3 32  1  0  0  0  0
  4 24  1  0  0  0  0
  4  5  1  0  0  0  0
  4 33  1  0  0  0  0
  5  6  1  0  0  0  0
  6  7  2  0  0  0  0
  6  8  1  0  0  0  0
  8  9  1  0  0  0  0
  8 24  1  0  0  0  0
  9 10  1  0  0  0  0
  9 34  1  0  0  0  0
  9 35  1  0  0  0  0
 10 11  1  0  0  0  0
 10 12  1  0  0  0  0
 10 36  1  0  0  0  0
 11 37  1  0  0  0  0
 12 13  1  0  0  0  0
 12 38  1  0  0  0  0
 12 39  1  0  0  0  0
 13 23  1  0  0  0  0
 13 14  1  0  0  0  0
 14 15  2  0  0  0  0
 14 40  1  0  0  0  0
 15 16  1  0  0  0  0
 16 23  2  0  0  0  0
 16 17  1  0  0  0  0
 17 18  2  0  0  0  0
 17 41  1  0  0  0  0
 18 19  1  0  0  0  0
 18 20  1  0  0  0  0
 19 42  1  0  0  0  0
 19 43  1  0  0  0  0
 19 44  1  0  0  0  0
 20 21  1  0  0  0  0
 20 22  2  0  0  0  0
 21 45  1  0  0  0  0
 21 46  1  0  0  0  0
 21 47  1  0  0  0  0
 22 23  1  0  0  0  0
 22 48  1  0  0  0  0
 24 25  2  0  0  0  0
M  CHG  1   5  -1
M  END
> <s_m_source_file>
AV-unprocessed.smi

> <i_m_source_file_index>
1644

> <i_lp_mmshare_version>
43012

> <i_f3d_flags>
0

> <s_epik_input>
W0NIM11bQ0gyXVtDSDJdW0NAQEhdMVtOSF1DKD1PKU4oQzE9TylbQ0gyXVtDQEhdKFtPSF0pW0NIMl1uKFtjSF1uMiljKGMyMylbY0hdYyhbQ0gzXSljKFtjSF0zKVtDSDNd

> <s_epik_cmdline>
J2VwaWtfcHl0aG9uJywgJy1waCcsICc3LjAnLCAnLXRuJywgJzgnLCAnLW1hJywgJzIwMCcsICctbWV0YWxfYmluZGluZycsICctaW1hZScsICc8aW5maWxlLm1hZT4nLCAnLW9tYWUnLCAnPG91dGZpbGUubWFlPic=

> <r_lp_tautomer_probability>
1

> <r_epik_Ionization_Penalty>
5.95212

> <r_epik_Ionization_Penalty_Charging>
5.84419

> <r_epik_Ionization_Penalty_Neutral>
0.107924

> <r_epik_State_Penalty>
5.94088

> <r_epik_Charging_Adjusted_Penalty>
11.7851

> <i_epik_Tot_Q>
-1

> <i_epik_Tot_abs_Q>
1

> <r_epik_Metal_State_Penalty>
1.99095

> <b_epik_Metal_Only>
1

> <s_lp_Force_Field>
OPLS_2005

> <r_lp_Energy>
19.2974

> <b_lp_Chiralities_Consistent>
1

> <s_lp_Variant>
AV-unprocessed.smi:1644-9

> <Gold.Version>
5.8.1

> <Gold.Id.Protein>
6NUR|6NUR_protein|mol2

> <Gold.PLP.Fitness>
51.1124

> <Gold.PLP.PLP>
-48.0118

> <Gold.PLP.part.hbond>
-2.0000

> <Gold.PLP.part.metal>
0.0000

> <Gold.PLP.part.buried>
-5.3367

> <Gold.PLP.part.nonpolar>
-38.8856

> <Gold.PLP.part.repulsive>
0.1811

> <Gold.PLP.ligand.clash>
0.0000

> <Gold.PLP.ligand.torsion>
1.1646

> <Gold.PLP.Chemscore.Hbond>
1.7801

> <Gold.PLP.Chemscore.CHOScore>
0.0000

> <Gold.PLP.Chemscore.Metal>
0.0000

> <Gold.Chemscore.Hbonds>
donor molecule, donor type, donor heavy atom, donor atom, acceptor molecule, acceptor atom, score
      L1  H    11    37       P1  8028  0.98
      P1  H  7997  8008       L1    15  0.77

> <Gold.PLP.Chemscore.Internal.Correction>
0.0895

> <Gold.Rescore>
     Score         DG    S(hbond)    S(metal)    S(lipo)     H(rot)  DE(clash)    DE(int)     intcor
     15.55     -16.83       1.08        0.00     124.25       2.65       0.12       1.17       ----

> <Gold.Chemscore.Fitness>
15.5506

> <Gold.Chemscore.DG>
-16.8348

> <Gold.Chemscore.ZeroCoef>
-5.4800

> <Gold.Chemscore.Hbond>
1.0774

> <Gold.Chemscore.Metal>
0.0000

> <Gold.Chemscore.Lipo>
124.2451

> <Gold.Chemscore.Internal_Hbond>
0.0000

> <Gold.Chemscore.DEClash>
0.1154

> <Gold.Chemscore.DEInternal>
1.1688

> <Gold.Chemscore.Rot>
2.6486

> <Gold.Chemscore.Internal.Correction>
   9.000000E+99

> <Gold.Chemscore.Hbonds>
donor molecule, donor type, donor heavy atom, donor atom, acceptor molecule, acceptor atom, score
      L1  H    11    37       P1  8028  0.92
      P1  H  7997  8008       L1    15  0.04

> <Gold.Chemscore.Hbond.Weighted>
-3.5986

> <Gold.Chemscore.Metal.Weighted>
-0.0000

> <Gold.Chemscore.Lipo.Weighted>
-14.5367

> <Gold.Chemscore.Internal_Hbond.Weighted>
0.0000

> <Gold.Chemscore.DEClash.Weighted>
0.1154

> <Gold.Chemscore.DEInternal.Weighted>
1.1688

> <Gold.Chemscore.Rot.Weighted>
6.7804

> <Gold.Chemscore.Internal.Correction.Weighted>
   9.000000E+99

> <Gold.Protein.RotatedTorsions>
[ 6907 6896 6895 6894 ] final   31.47 input  -60.11 | X-H torsion
[ 7974 7965 7964 7962 ] final   73.96 input  175.53 | X-H torsion
[ 8008 7997 7996 7995 ] final -101.08 input   59.86 | X-H torsion
[ 10167 10162 10161 10158 ] final -107.11 input  -65.29 | X-H torsion
[ 10718 10713 10712 10709 ] final    9.73 input   66.30 | X-H torsion
[ 10763 10752 10751 10750 ] final -150.00 input  -60.55 | X-H torsion
[ 11005 11000 10999 10996 ] final   60.22 input  -57.11 | X-H torsion

> <Gold.Protein.ActiveResidues>
 VAL166  LYS551  ARG553  GLY616  TRP617  ASP618  TYR619  PRO620  LYS621  CYS622 
 ASP623  PHE694  ASN695  SER759  ASP760  ASP761  ALA762  ILE779  LEU786  VAL792 
 PHE793  MET794  SER795  GLU796  ALA797  LYS798  CYS799  TRP800  GLU811  SER814 

> <Gold.Protein.RotatedAtoms>
  152.0607  134.9596  160.0574 H   0  0  0  0  0  0  0  0  0  0  0  0  # atno 6907 bound_to 6896
  152.0961  133.4220  159.4574 H   0  0  0  0  0  0  0  0  0  0  0  0  # atno 6908 bound_to 6896
  150.6838  134.2735  159.4641 H   0  0  0  0  0  0  0  0  0  0  0  0  # atno 6909 bound_to 6896
  145.7343  139.2696  143.1523 H   0  0  0  0  0  0  0  0  0  0  0  0  # atno 7974 bound_to 7965
  154.8375  140.0436  157.1519 H   0  0  0  0  0  0  0  0  0  0  0  0  # atno 8008 bound_to 7997
  154.9083  140.3010  155.5259 H   0  0  0  0  0  0  0  0  0  0  0  0  # atno 8009 bound_to 7997
  156.2990  140.2363  156.4119 H   0  0  0  0  0  0  0  0  0  0  0  0  # atno 8010 bound_to 7997
  140.1805  143.3970  152.1285 H   0  0  0  0  0  0  0  0  0  0  0  0  # atno 10167 bound_to 10162
  156.9705  130.5967  149.5668 H   0  0  0  0  0  0  0  0  0  0  0  0  # atno 10718 bound_to 10713
  154.8145  135.3295  154.7215 H   0  0  0  0  0  0  0  0  0  0  0  0  # atno 10763 bound_to 10752
  153.7858  135.6915  153.4884 H   0  0  0  0  0  0  0  0  0  0  0  0  # atno 10764 bound_to 10752
  153.1949  135.4537  155.0143 H   0  0  0  0  0  0  0  0  0  0  0  0  # atno 10765 bound_to 10752
  140.0247  134.6100  155.9589 H   0  0  0  0  0  0  0  0  0  0  0  0  # atno 11005 bound_to 11000
  146.0508  140.8071  142.9782 LP  0  0  0  0  0  0  0  0  0  0  0  0  # atno 17320 bound_to 7965
  144.6885  140.3050  143.7257 LP  0  0  0  0  0  0  0  0  0  0  0  0  # atno 17321 bound_to 7965
  139.5298  144.7146  151.5096 LP  0  0  0  0  0  0  0  0  0  0  0  0  # atno 17342 bound_to 10162
  140.6523  143.8672  150.6798 LP  0  0  0  0  0  0  0  0  0  0  0  0  # atno 17343 bound_to 10162
  156.0284  130.5377  150.8470 LP  0  0  0  0  0  0  0  0  0  0  0  0  # atno 17370 bound_to 10713
  157.5595  131.0945  150.9579 LP  0  0  0  0  0  0  0  0  0  0  0  0  # atno 17371 bound_to 10713
  141.1795  133.6544  156.4964 LP  0  0  0  0  0  0  0  0  0  0  0  0  # atno 17394 bound_to 11000
  140.4326  134.7087  157.4950 LP  0  0  0  0  0  0  0  0  0  0  0  0  # atno 17395 bound_to 11000

$$$$
