AV-unprocessed.smi:911|AV-procd|sdf|4138|dock7
  -GOLD-   22720 2 43D 1   1.00000     0.00000
 Structure written by MMmdl.
 47 49  0  0  0  0  0  0  0  0  3 V2000
  147.3226  133.7679  160.6260 C   0  0  0  0  0  0  0  0  0  0  0  0
  146.7567  134.8837  161.5499 C   0  0  0  0  0  0  0  0  0  0  0  0
  145.7285  134.1648  162.4684 C   0  0  0  0  0  0  0  0  0  0  0  0
  147.8325  135.6864  162.3088 C   0  0  2  0  0  0  0  0  0  0  0  0
  147.0192  136.7740  163.0473 C   0  0  0  0  0  0  0  0  0  0  0  0
  145.8954  137.0940  162.0394 C   0  0  0  0  0  0  0  0  0  0  0  0
  146.2336  136.1665  160.8434 C   0  0  2  0  0  0  0  0  0  0  0  0
  145.0350  135.9692  159.8942 C   0  0  0  0  0  0  0  0  0  0  0  0
  147.5035  136.8014  160.1935 C   0  0  2  0  0  0  0  0  0  0  0  0
  147.7641  136.3098  158.8437 N   0  0  0  0  0  0  0  0  0  0  0  0
  148.9588  136.1480  158.2515 C   0  0  0  0  0  0  0  0  0  0  0  0
  150.0279  136.3468  158.8263 O   0  0  0  0  0  0  0  0  0  0  0  0
  148.9664  135.7256  156.7716 C   0  0  0  0  0  0  0  0  0  0  0  0
  149.4129  136.7819  155.8438 N   0  0  0  0  0  0  0  0  0  0  0  0
  150.7963  137.0477  155.8103 C   0  0  0  0  0  0  0  0  0  0  0  0
  151.3199  138.0250  155.0455 C   0  0  0  0  0  0  0  0  0  0  0  0
  152.7383  138.3057  155.0527 N   0  3  0  0  0  0  0  0  0  0  0  0
  153.1173  139.4282  154.7344 O   0  0  0  0  0  0  0  0  0  0  0  0
  153.5190  137.4171  155.3805 O   0  5  0  0  0  0  0  0  0  0  0  0
  150.4085  138.8033  154.2296 C   0  0  0  0  0  0  0  0  0  0  0  0
  149.0838  138.5574  154.2603 C   0  0  0  0  0  0  0  0  0  0  0  0
  148.5140  137.5057  155.1090 C   0  0  0  0  0  0  0  0  0  0  0  0
  147.3023  137.2977  155.1649 O   0  0  0  0  0  0  0  0  0  0  0  0
  148.6178  136.4041  161.1871 C   0  0  0  0  0  0  0  0  0  0  0  0
  147.7154  132.9415  161.2188 H   0  0  0  0  0  0  0  0  0  0  0  0
  148.1344  134.0710  159.9711 H   0  0  0  0  0  0  0  0  0  0  0  0
  146.5396  133.3571  159.9880 H   0  0  0  0  0  0  0  0  0  0  0  0
  145.2215  134.8044  163.1873 H   0  0  0  0  0  0  0  0  0  0  0  0
  146.2151  133.3796  163.0478 H   0  0  0  0  0  0  0  0  0  0  0  0
  144.9482  133.6870  161.8752 H   0  0  0  0  0  0  0  0  0  0  0  0
  148.4669  135.0959  162.9706 H   0  0  0  0  0  0  0  0  0  0  0  0
  146.6133  136.4036  163.9889 H   0  0  0  0  0  0  0  0  0  0  0  0
  147.6215  137.6524  163.2825 H   0  0  0  0  0  0  0  0  0  0  0  0
  144.9151  136.8728  162.4620 H   0  0  0  0  0  0  0  0  0  0  0  0
  145.8796  138.1490  161.7637 H   0  0  0  0  0  0  0  0  0  0  0  0
  144.7494  136.9123  159.4278 H   0  0  0  0  0  0  0  0  0  0  0  0
  144.1643  135.5905  160.4294 H   0  0  0  0  0  0  0  0  0  0  0  0
  145.2597  135.2604  159.0971 H   0  0  0  0  0  0  0  0  0  0  0  0
  147.4174  137.8891  160.1621 H   0  0  0  0  0  0  0  0  0  0  0  0
  146.9464  136.1144  158.2848 H   0  0  0  0  0  0  0  0  0  0  0  0
  149.6165  134.8554  156.6704 H   0  0  0  0  0  0  0  0  0  0  0  0
  147.9705  135.3642  156.5102 H   0  0  0  0  0  0  0  0  0  0  0  0
  151.3862  136.4205  156.4633 H   0  0  0  0  0  0  0  0  0  0  0  0
  150.7810  139.5888  153.5886 H   0  0  0  0  0  0  0  0  0  0  0  0
  148.4227  139.1506  153.6454 H   0  0  0  0  0  0  0  0  0  0  0  0
  149.1612  137.2742  161.5576 H   0  0  0  0  0  0  0  0  0  0  0  0
  149.3595  135.7443  160.7358 H   0  0  0  0  0  0  0  0  0  0  0  0
  1  2  1  0  0  0  0
  1 25  1  0  0  0  0
  1 26  1  0  0  0  0
  1 27  1  0  0  0  0
  2  7  1  0  0  0  0
  2  3  1  0  0  0  0
  2  4  1  0  0  0  0
  3 28  1  0  0  0  0
  3 29  1  0  0  0  0
  3 30  1  0  0  0  0
  4 24  1  0  0  0  0
  4  5  1  0  0  0  0
  4 31  1  0  0  0  0
  5  6  1  0  0  0  0
  5 32  1  0  0  0  0
  5 33  1  0  0  0  0
  6  7  1  0  0  0  0
  6 34  1  0  0  0  0
  6 35  1  0  0  0  0
  7  8  1  0  0  0  0
  7  9  1  0  0  0  0
  8 36  1  0  0  0  0
  8 37  1  0  0  0  0
  8 38  1  0  0  0  0
  9 10  1  0  0  0  0
  9 24  1  0  0  0  0
  9 39  1  0  0  0  0
 10 11  1  0  0  0  0
 10 40  1  0  0  0  0
 11 12  2  0  0  0  0
 11 13  1  0  0  0  0
 13 14  1  0  0  0  0
 13 41  1  0  0  0  0
 13 42  1  0  0  0  0
 14 22  1  0  0  0  0
 14 15  1  0  0  0  0
 15 16  2  0  0  0  0
 15 43  1  0  0  0  0
 16 17  1  0  0  0  0
 16 20  1  0  0  0  0
 17 18  2  0  0  0  0
 17 19  1  0  0  0  0
 20 21  2  0  0  0  0
 20 44  1  0  0  0  0
 21 22  1  0  0  0  0
 21 45  1  0  0  0  0
 22 23  2  0  0  0  0
 24 46  1  0  0  0  0
 24 47  1  0  0  0  0
M  CHG  1  17   1
M  CHG  1  19  -1
M  END
> <s_m_source_file>
AV-unprocessed.smi

> <i_m_source_file_index>
911

> <i_lp_mmshare_version>
43012

> <i_f3d_flags>
0

> <s_epik_input>
W0NIM11bQ0BdMTJDKFtDSDNdKShbQ0gzXSlbQ0BIXShbQ0gyXVtDSDJdMSlbQ0gyXVtDQEBIXTJbTkhdQyg9TylbQ0gyXW4zW2NIXWMoW04rXSg9TylbTy1dKVtjSF1bY0hdYzM9Tw==

> <s_epik_cmdline>
J2VwaWtfcHl0aG9uJywgJy1waCcsICc3LjAnLCAnLXRuJywgJzgnLCAnLW1hJywgJzIwMCcsICctbWV0YWxfYmluZGluZycsICctaW1hZScsICc8aW5maWxlLm1hZT4nLCAnLW9tYWUnLCAnPG91dGZpbGUubWFlPic=

> <r_lp_tautomer_probability>
1

> <r_epik_Ionization_Penalty>
2.04092e-08

> <r_epik_Ionization_Penalty_Charging>
8.54191e-11

> <r_epik_Ionization_Penalty_Neutral>
2.03238e-08

> <r_epik_State_Penalty>
-0

> <r_epik_Charging_Adjusted_Penalty>
8.54191e-11

> <i_epik_Tot_Q>
0

> <i_epik_Tot_abs_Q>
2

> <r_epik_Metal_State_Penalty>
-0

> <b_epik_Metal_Only>
0

> <s_lp_Force_Field>
OPLS_2005

> <r_lp_Energy>
66.6033

> <b_lp_Chiralities_Consistent>
1

> <s_lp_Variant>
AV-unprocessed.smi:911-3

> <Gold.Version>
5.8.1

> <Gold.Id.Protein>
6NUR|6NUR_protein|mol2

> <Gold.PLP.Fitness>
40.6582

> <Gold.PLP.PLP>
-35.2839

> <Gold.PLP.part.hbond>
-4.0000

> <Gold.PLP.part.metal>
0.0000

> <Gold.PLP.part.buried>
-4.3848

> <Gold.PLP.part.nonpolar>
-28.0342

> <Gold.PLP.part.repulsive>
0.1802

> <Gold.PLP.ligand.clash>
0.0000

> <Gold.PLP.ligand.torsion>
0.9272

> <Gold.PLP.Chemscore.Hbond>
2.3991

> <Gold.PLP.Chemscore.CHOScore>
0.0000

> <Gold.PLP.Chemscore.Metal>
0.0000

> <Gold.Chemscore.Hbonds>
donor molecule, donor type, donor heavy atom, donor atom, acceptor molecule, acceptor atom, score
      P1  H  6896  6907       L1    12  1.00
      P1  H  7989  7998       L1    18  0.06
      P1  H  7997  8010       L1    18  1.00
      P1  H 10752 10765       L1    19  0.13

> <Gold.PLP.Chemscore.Internal.Correction>
0.0314

> <Gold.Rescore>
     Score         DG    S(hbond)    S(metal)    S(lipo)     H(rot)  DE(clash)    DE(int)     intcor
     17.32     -19.75       2.40        0.00      86.88       1.53       0.04       2.39       ----

> <Gold.Chemscore.Fitness>
17.3212

> <Gold.Chemscore.DG>
-19.7494

> <Gold.Chemscore.ZeroCoef>
-5.4800

> <Gold.Chemscore.Hbond>
2.4000

> <Gold.Chemscore.Metal>
0.0000

> <Gold.Chemscore.Lipo>
86.8766

> <Gold.Chemscore.Internal_Hbond>
0.0000

> <Gold.Chemscore.DEClash>
0.0378

> <Gold.Chemscore.DEInternal>
2.3904

> <Gold.Chemscore.Rot>
1.5277

> <Gold.Chemscore.Internal.Correction>
   9.000000E+99

> <Gold.Chemscore.Hbonds>
donor molecule, donor type, donor heavy atom, donor atom, acceptor molecule, acceptor atom, score
      P1  H  6896  6907       L1    12  0.83
      P1  H  7989  7998       L1    18  0.07
      P1  H  7997  8010       L1    18  0.95
      P1  H 10752 10765       L1    19  0.13

> <Gold.Chemscore.Hbond.Weighted>
-8.0159

> <Gold.Chemscore.Metal.Weighted>
-0.0000

> <Gold.Chemscore.Lipo.Weighted>
-10.1646

> <Gold.Chemscore.Internal_Hbond.Weighted>
0.0000

> <Gold.Chemscore.DEClash.Weighted>
0.0378

> <Gold.Chemscore.DEInternal.Weighted>
2.3904

> <Gold.Chemscore.Rot.Weighted>
3.9110

> <Gold.Chemscore.Internal.Correction.Weighted>
   9.000000E+99

> <Gold.Protein.RotatedTorsions>
[ 6907 6896 6895 6894 ] final  -58.84 input  -60.11 | X-H torsion
[ 7974 7965 7964 7962 ] final   61.10 input  175.53 | X-H torsion
[ 8008 7997 7996 7995 ] final  115.23 input   59.86 | X-H torsion
[ 10167 10162 10161 10158 ] final -173.30 input  -65.29 | X-H torsion
[ 10718 10713 10712 10709 ] final  -95.31 input   66.30 | X-H torsion
[ 10763 10752 10751 10750 ] final -155.42 input  -60.55 | X-H torsion
[ 11005 11000 10999 10996 ] final  -59.07 input  -57.11 | X-H torsion

> <Gold.Protein.ActiveResidues>
 VAL166  LYS551  ARG553  GLY616  TRP617  ASP618  TYR619  PRO620  LYS621  CYS622 
 ASP623  PHE694  ASN695  SER759  ASP760  ASP761  ALA762  ILE779  LEU786  VAL792 
 PHE793  MET794  SER795  GLU796  ALA797  LYS798  CYS799  TRP800  GLU811  SER814 

> <Gold.Protein.RotatedAtoms>
  150.7976  134.7046  159.6569 H   0  0  0  0  0  0  0  0  0  0  0  0  # atno 6907 bound_to 6896
  152.4090  134.6154  160.0046 H   0  0  0  0  0  0  0  0  0  0  0  0  # atno 6908 bound_to 6896
  151.6403  133.3289  159.3165 H   0  0  0  0  0  0  0  0  0  0  0  0  # atno 6909 bound_to 6896
  145.8886  139.3494  143.0663 H   0  0  0  0  0  0  0  0  0  0  0  0  # atno 7974 bound_to 7965
  156.2369  140.2943  156.0336 H   0  0  0  0  0  0  0  0  0  0  0  0  # atno 8008 bound_to 7997
  155.2066  140.0411  157.2943 H   0  0  0  0  0  0  0  0  0  0  0  0  # atno 8009 bound_to 7997
  154.6095  140.2448  155.7695 H   0  0  0  0  0  0  0  0  0  0  0  0  # atno 8010 bound_to 7997
  139.5696  144.1673  152.1364 H   0  0  0  0  0  0  0  0  0  0  0  0  # atno 10167 bound_to 10162
  156.0041  130.5104  150.6057 H   0  0  0  0  0  0  0  0  0  0  0  0  # atno 10718 bound_to 10713
  154.7788  135.3168  154.8034 H   0  0  0  0  0  0  0  0  0  0  0  0  # atno 10763 bound_to 10752
  153.8751  135.6840  153.4775 H   0  0  0  0  0  0  0  0  0  0  0  0  # atno 10764 bound_to 10752
  153.1419  135.4735  154.9445 H   0  0  0  0  0  0  0  0  0  0  0  0  # atno 10765 bound_to 10752
  141.1233  133.6614  156.5016 H   0  0  0  0  0  0  0  0  0  0  0  0  # atno 11005 bound_to 11000
  145.8936  140.9288  143.0539 LP  0  0  0  0  0  0  0  0  0  0  0  0  # atno 17320 bound_to 7965
  144.6729  140.0939  143.7464 LP  0  0  0  0  0  0  0  0  0  0  0  0  # atno 17321 bound_to 7965
  140.1203  144.5379  150.6867 LP  0  0  0  0  0  0  0  0  0  0  0  0  # atno 17342 bound_to 10162
  140.6980  143.2416  151.4945 LP  0  0  0  0  0  0  0  0  0  0  0  0  # atno 17343 bound_to 10162
  157.3898  131.0794  151.1403 LP  0  0  0  0  0  0  0  0  0  0  0  0  # atno 17370 bound_to 10713
  157.2099  130.6433  149.5770 LP  0  0  0  0  0  0  0  0  0  0  0  0  # atno 17371 bound_to 10713
  140.4441  134.6988  157.5007 LP  0  0  0  0  0  0  0  0  0  0  0  0  # atno 17394 bound_to 11000
  140.0209  134.6549  155.9241 LP  0  0  0  0  0  0  0  0  0  0  0  0  # atno 17395 bound_to 11000

$$$$
