AV-unprocessed.smi:2984|AV-procd|sdf|11378|dock8
  -GOLD-   2272016303D 1   1.00000     0.00000
 Structure written by MMmdl.
 38 39  0  0  0  0  0  0  0  0  1 V2000
  149.1464  139.4956  154.1086 O   0  0  0  0  0  0  0  0  0  0  0  0
  148.5250  140.5312  154.3524 C   0  0  0  0  0  0  0  0  0  0  0  0
  147.1056  140.6998  153.7927 C   0  0  0  0  0  0  0  0  0  0  0  0
  146.3521  141.7592  154.4813 N   0  0  0  0  0  0  0  0  0  0  0  0
  145.9693  142.8048  153.6584 N   0  0  0  0  0  0  0  0  0  0  0  0
  145.3243  143.8021  154.1577 C   0  0  0  0  0  0  0  0  0  0  0  0
  144.9754  143.8696  155.5592 C   0  0  0  0  0  0  0  0  0  0  0  0
  144.1119  145.2357  156.1724 Cl  0  0  0  0  0  0  0  0  0  0  0  0
  145.3447  142.8346  156.3550 C   0  0  0  0  0  0  0  0  0  0  0  0
  144.9603  142.8431  158.0421 Cl  0  0  0  0  0  0  0  0  0  0  0  0
  146.0796  141.6798  155.8204 C   0  0  0  0  0  0  0  0  0  0  0  0
  146.4298  140.7209  156.5091 O   0  0  0  0  0  0  0  0  0  0  0  0
  148.9949  141.5646  155.0825 N   0  0  0  0  0  0  0  0  0  0  0  0
  150.1841  141.6594  155.7058 C   0  0  0  0  0  0  0  0  0  0  0  0
  151.1649  140.9421  155.4974 O   0  0  0  0  0  0  0  0  0  0  0  0
  150.1718  142.6487  156.6115 N   0  0  0  0  0  0  0  0  0  0  0  0
  151.2915  143.0196  157.4719 C   0  0  0  0  0  0  0  0  0  0  0  0
  151.6554  141.8568  158.4187 C   0  0  0  0  0  0  0  0  0  0  0  0
  152.7797  142.2522  159.3898 C   0  0  0  0  0  0  0  0  0  0  0  0
  152.4125  143.5150  160.1843 C   0  0  0  0  0  0  0  0  0  0  0  0
  152.0561  144.6770  159.2441 C   0  0  0  0  0  0  0  0  0  0  0  0
  150.9302  144.2843  158.2738 C   0  0  0  0  0  0  0  0  0  0  0  0
  147.1822  140.9165  152.7257 H   0  0  0  0  0  0  0  0  0  0  0  0
  146.5695  139.7511  153.8587 H   0  0  0  0  0  0  0  0  0  0  0  0
  145.0075  144.6494  153.5495 H   0  0  0  0  0  0  0  0  0  0  0  0
  148.3720  142.3519  155.1861 H   0  0  0  0  0  0  0  0  0  0  0  0
  149.3209  143.1800  156.7232 H   0  0  0  0  0  0  0  0  0  0  0  0
  152.1575  143.2514  156.8487 H   0  0  0  0  0  0  0  0  0  0  0  0
  150.7755  141.5556  158.9891 H   0  0  0  0  0  0  0  0  0  0  0  0
  151.9629  140.9828  157.8430 H   0  0  0  0  0  0  0  0  0  0  0  0
  152.9859  141.4292  160.0746 H   0  0  0  0  0  0  0  0  0  0  0  0
  153.7003  142.4269  158.8312 H   0  0  0  0  0  0  0  0  0  0  0  0
  151.5667  143.3018  160.8392 H   0  0  0  0  0  0  0  0  0  0  0  0
  153.2413  143.8010  160.8325 H   0  0  0  0  0  0  0  0  0  0  0  0
  151.7573  145.5485  159.8273 H   0  0  0  0  0  0  0  0  0  0  0  0
  152.9399  144.9726  158.6773 H   0  0  0  0  0  0  0  0  0  0  0  0
  150.7273  145.1129  157.5940 H   0  0  0  0  0  0  0  0  0  0  0  0
  150.0118  144.1155  158.8381 H   0  0  0  0  0  0  0  0  0  0  0  0
  1  2  2  0  0  0  0
  2  3  1  0  0  0  0
  2 13  1  0  0  0  0
  3  4  1  0  0  0  0
  3 23  1  0  0  0  0
  3 24  1  0  0  0  0
  4 11  1  0  0  0  0
  4  5  1  0  0  0  0
  5  6  2  0  0  0  0
  6  7  1  0  0  0  0
  6 25  1  0  0  0  0
  7  8  1  0  0  0  0
  7  9  2  0  0  0  0
  9 10  1  0  0  0  0
  9 11  1  0  0  0  0
 11 12  2  0  0  0  0
 13 14  1  0  0  0  0
 13 26  1  0  0  0  0
 14 15  2  0  0  0  0
 14 16  1  0  0  0  0
 16 17  1  0  0  0  0
 16 27  1  0  0  0  0
 17 22  1  0  0  0  0
 17 18  1  0  0  0  0
 17 28  1  0  0  0  0
 18 19  1  0  0  0  0
 18 29  1  0  0  0  0
 18 30  1  0  0  0  0
 19 20  1  0  0  0  0
 19 31  1  0  0  0  0
 19 32  1  0  0  0  0
 20 21  1  0  0  0  0
 20 33  1  0  0  0  0
 20 34  1  0  0  0  0
 21 22  1  0  0  0  0
 21 35  1  0  0  0  0
 21 36  1  0  0  0  0
 22 37  1  0  0  0  0
 22 38  1  0  0  0  0
M  END
> <s_m_source_file>
AV-unprocessed.smi

> <i_m_source_file_index>
2984

> <i_lp_mmshare_version>
43012

> <i_f3d_flags>
0

> <s_epik_input>
Tz1jMWMoQ2wpYyhDbClbY0hdbm4xW0NIMl1DKD1PKVtOSF1DKD1PKVtOSF1bQ0hdMltDSDJdW0NIMl1bQ0gyXVtDSDJdW0NIMl0y

> <s_epik_cmdline>
J2VwaWtfcHl0aG9uJywgJy1waCcsICc3LjAnLCAnLXRuJywgJzgnLCAnLW1hJywgJzIwMCcsICctbWV0YWxfYmluZGluZycsICctaW1hZScsICc8aW5maWxlLm1hZT4nLCAnLW9tYWUnLCAnPG91dGZpbGUubWFlPic=

> <r_lp_tautomer_probability>
1

> <r_epik_Ionization_Penalty>
3.27035e-05

> <r_epik_Ionization_Penalty_Charging>
2.24292e-11

> <r_epik_Ionization_Penalty_Neutral>
3.27035e-05

> <r_epik_State_Penalty>
-0

> <r_epik_Charging_Adjusted_Penalty>
2.24292e-11

> <i_epik_Tot_Q>
0

> <i_epik_Tot_abs_Q>
0

> <r_epik_Metal_State_Penalty>
-0

> <b_epik_Metal_Only>
0

> <s_lp_Force_Field>
OPLS_2005

> <r_lp_Energy>
25.082

> <b_lp_Chiralities_Consistent>
1

> <s_lp_Variant>
AV-unprocessed.smi:2984-1

> <Gold.Version>
5.8.1

> <Gold.Id.Protein>
6NUR|6NUR_protein|mol2

> <Gold.PLP.Fitness>
44.9454

> <Gold.PLP.PLP>
-41.9746

> <Gold.PLP.part.hbond>
-2.4547

> <Gold.PLP.part.metal>
0.0000

> <Gold.PLP.part.buried>
-7.3467

> <Gold.PLP.part.nonpolar>
-33.5509

> <Gold.PLP.part.repulsive>
1.2210

> <Gold.PLP.ligand.clash>
0.0000

> <Gold.PLP.ligand.torsion>
0.3209

> <Gold.PLP.Chemscore.Hbond>
1.2000

> <Gold.PLP.Chemscore.CHOScore>
0.0000

> <Gold.PLP.Chemscore.Metal>
0.0000

> <Gold.Chemscore.Hbonds>
donor molecule, donor type, donor heavy atom, donor atom, acceptor molecule, acceptor atom, score
      L1  H    16    27       P1  8028  0.48
      P1  H  7989  7998       L1    15  0.67

> <Gold.PLP.Chemscore.Internal.Correction>
0.0126

> <Gold.Rescore>
     Score         DG    S(hbond)    S(metal)    S(lipo)     H(rot)  DE(clash)    DE(int)     intcor
     14.82     -16.88       1.40        0.00      93.13       1.63       0.27       1.80       ----

> <Gold.Chemscore.Fitness>
14.8189

> <Gold.Chemscore.DG>
-16.8841

> <Gold.Chemscore.ZeroCoef>
-5.4800

> <Gold.Chemscore.Hbond>
1.4000

> <Gold.Chemscore.Metal>
0.0000

> <Gold.Chemscore.Lipo>
93.1323

> <Gold.Chemscore.Internal_Hbond>
0.0000

> <Gold.Chemscore.DEClash>
0.2655

> <Gold.Chemscore.DEInternal>
1.7996

> <Gold.Chemscore.Rot>
1.6283

> <Gold.Chemscore.Internal.Correction>
   9.000000E+99

> <Gold.Chemscore.Hbonds>
donor molecule, donor type, donor heavy atom, donor atom, acceptor molecule, acceptor atom, score
      L1  H    13    26       P1  8028  0.03
      L1  H    16    27       P1  8028  0.47
      P1  H  7989  7998       L1    15  0.49

> <Gold.Chemscore.Hbond.Weighted>
-4.6760

> <Gold.Chemscore.Metal.Weighted>
-0.0000

> <Gold.Chemscore.Lipo.Weighted>
-10.8965

> <Gold.Chemscore.Internal_Hbond.Weighted>
0.0000

> <Gold.Chemscore.DEClash.Weighted>
0.2655

> <Gold.Chemscore.DEInternal.Weighted>
1.7996

> <Gold.Chemscore.Rot.Weighted>
4.1684

> <Gold.Chemscore.Internal.Correction.Weighted>
   9.000000E+99

> <Gold.Protein.RotatedTorsions>
[ 6907 6896 6895 6894 ] final  -17.64 input  -60.11 | X-H torsion
[ 7974 7965 7964 7962 ] final  155.88 input  175.53 | X-H torsion
[ 8008 7997 7996 7995 ] final -101.89 input   59.86 | X-H torsion
[ 10167 10162 10161 10158 ] final  126.50 input  -65.29 | X-H torsion
[ 10718 10713 10712 10709 ] final -158.90 input   66.30 | X-H torsion
[ 10763 10752 10751 10750 ] final  -48.03 input  -60.55 | X-H torsion
[ 11005 11000 10999 10996 ] final -141.09 input  -57.11 | X-H torsion

> <Gold.Protein.ActiveResidues>
 VAL166  LYS551  ARG553  GLY616  TRP617  ASP618  TYR619  PRO620  LYS621  CYS622 
 ASP623  PHE694  ASN695  SER759  ASP760  ASP761  ALA762  ILE779  LEU786  VAL792 
 PHE793  MET794  SER795  GLU796  ALA797  LYS798  CYS799  TRP800  GLU811  SER814 

> <Gold.Protein.RotatedAtoms>
  151.2903  135.0740  159.9201 H   0  0  0  0  0  0  0  0  0  0  0  0  # atno 6907 bound_to 6896
  152.5317  133.9939  159.7874 H   0  0  0  0  0  0  0  0  0  0  0  0  # atno 6908 bound_to 6896
  151.0208  133.5828  159.2702 H   0  0  0  0  0  0  0  0  0  0  0  0  # atno 6909 bound_to 6896
  144.7997  139.7128  143.6187 H   0  0  0  0  0  0  0  0  0  0  0  0  # atno 7974 bound_to 7965
  154.8489  140.0431  157.1591 H   0  0  0  0  0  0  0  0  0  0  0  0  # atno 8008 bound_to 7997
  154.8964  140.2994  155.5321 H   0  0  0  0  0  0  0  0  0  0  0  0  # atno 8009 bound_to 7997
  156.2995  140.2384  156.3986 H   0  0  0  0  0  0  0  0  0  0  0  0  # atno 8010 bound_to 7997
  139.5628  144.6892  151.3995 H   0  0  0  0  0  0  0  0  0  0  0  0  # atno 10167 bound_to 10162
  156.5605  130.8645  151.2808 H   0  0  0  0  0  0  0  0  0  0  0  0  # atno 10718 bound_to 10713
  154.0712  135.6604  153.4824 H   0  0  0  0  0  0  0  0  0  0  0  0  # atno 10763 bound_to 10752
  153.0390  135.5157  154.7565 H   0  0  0  0  0  0  0  0  0  0  0  0  # atno 10764 bound_to 10752
  154.6631  135.3018  154.9808 H   0  0  0  0  0  0  0  0  0  0  0  0  # atno 10765 bound_to 10752
  140.8358  134.2461  157.4834 H   0  0  0  0  0  0  0  0  0  0  0  0  # atno 11005 bound_to 11000
  146.2275  139.5751  142.9577 LP  0  0  0  0  0  0  0  0  0  0  0  0  # atno 17320 bound_to 7965
  145.5584  141.0407  143.2240 LP  0  0  0  0  0  0  0  0  0  0  0  0  # atno 17321 bound_to 7965
  140.6909  143.7864  150.7254 LP  0  0  0  0  0  0  0  0  0  0  0  0  # atno 17342 bound_to 10162
  140.1345  143.4496  152.2233 LP  0  0  0  0  0  0  0  0  0  0  0  0  # atno 17343 bound_to 10162
  157.7369  130.9787  150.2164 LP  0  0  0  0  0  0  0  0  0  0  0  0  # atno 17370 bound_to 10713
  156.2803  130.3732  149.7942 LP  0  0  0  0  0  0  0  0  0  0  0  0  # atno 17371 bound_to 10713
  139.8704  134.9610  156.4382 LP  0  0  0  0  0  0  0  0  0  0  0  0  # atno 17394 bound_to 11000
  140.8949  133.7821  155.9613 LP  0  0  0  0  0  0  0  0  0  0  0  0  # atno 17395 bound_to 11000

$$$$
