AV-unprocessed.smi:1056|AV-procd|sdf|4642|dock2
  -GOLD-   22720 3143D 1   1.00000     0.00000
 Structure written by MMmdl.
 44 46  0  0  0  0  0  0  0  0  3 V2000
  153.0457  142.5303  161.5876 C   0  0  0  0  0  0  0  0  0  0  0  0
  152.4811  142.2832  160.1997 C   0  0  0  0  0  0  0  0  0  0  0  0
  152.9107  141.1487  159.4753 C   0  0  0  0  0  0  0  0  0  0  0  0
  152.4102  140.8826  158.1823 C   0  0  0  0  0  0  0  0  0  0  0  0
  152.6885  139.8471  157.3071 N   0  0  0  0  0  0  0  0  0  0  0  0
  151.9153  140.1569  156.2708 C   0  0  0  0  0  0  0  0  0  0  0  0
  151.1726  141.2768  156.3676 N   0  0  0  0  0  0  0  0  0  0  0  0
  150.2680  141.8165  155.3651 C   0  0  0  0  0  0  0  0  0  0  0  0
  149.3916  140.7449  154.6798 C   0  0  2  0  0  0  0  0  0  0  0  0
  150.1988  139.9920  153.7942 O   0  0  0  0  0  0  0  0  0  0  0  0
  148.2039  141.3425  153.8919 C   0  0  0  0  0  0  0  0  0  0  0  0
  147.2695  142.1223  154.7435 N   0  3  2  0  0  0  0  0  0  0  0  0
  146.9376  141.4213  156.0111 C   0  0  0  0  0  0  0  0  0  0  0  0
  146.2297  142.3809  156.9867 C   0  0  0  0  0  0  0  0  0  0  0  0
  145.1581  143.1096  156.2981 N   0  5  0  0  0  0  0  0  0  0  0  0
  145.0649  143.3367  154.9509 C   0  0  0  0  0  0  0  0  0  0  0  0
  144.2426  144.0701  154.4068 O   0  0  0  0  0  0  0  0  0  0  0  0
  146.0425  142.5679  154.0218 C   0  0  0  0  0  0  0  0  0  0  0  0
  151.4622  141.7912  157.6274 C   0  0  0  0  0  0  0  0  0  0  0  0
  151.0259  142.9229  158.3392 C   0  0  0  0  0  0  0  0  0  0  0  0
  151.5354  143.1733  159.6304 C   0  0  0  0  0  0  0  0  0  0  0  0
  151.0581  144.3981  160.3906 C   0  0  0  0  0  0  0  0  0  0  0  0
  153.7270  141.7336  161.8881 H   0  0  0  0  0  0  0  0  0  0  0  0
  152.2440  142.5788  162.3248 H   0  0  0  0  0  0  0  0  0  0  0  0
  153.5978  143.4700  161.6130 H   0  0  0  0  0  0  0  0  0  0  0  0
  153.6305  140.4700  159.9091 H   0  0  0  0  0  0  0  0  0  0  0  0
  151.8912  139.5383  155.3854 H   0  0  0  0  0  0  0  0  0  0  0  0
  149.6400  142.5729  155.8383 H   0  0  0  0  0  0  0  0  0  0  0  0
  150.8618  142.3414  154.6159 H   0  0  0  0  0  0  0  0  0  0  0  0
  149.0359  140.0711  155.4578 H   0  0  0  0  0  0  0  0  0  0  0  0
  149.7752  139.9533  152.9502 H   0  0  0  0  0  0  0  0  0  0  0  0
  148.5657  141.9842  153.0875 H   0  0  0  0  0  0  0  0  0  0  0  0
  147.6594  140.5290  153.4102 H   0  0  0  0  0  0  0  0  0  0  0  0
  146.3063  140.5575  155.7954 H   0  0  0  0  0  0  0  0  0  0  0  0
  147.8423  141.0413  156.4873 H   0  0  0  0  0  0  0  0  0  0  0  0
  145.8563  141.8168  157.8410 H   0  0  0  0  0  0  0  0  0  0  0  0
  146.9689  143.0741  157.3886 H   0  0  0  0  0  0  0  0  0  0  0  0
  146.3052  143.2177  153.1877 H   0  0  0  0  0  0  0  0  0  0  0  0
  145.5189  141.7047  153.6080 H   0  0  0  0  0  0  0  0  0  0  0  0
  150.3053  143.5934  157.8952 H   0  0  0  0  0  0  0  0  0  0  0  0
  150.3535  144.9841  159.8000 H   0  0  0  0  0  0  0  0  0  0  0  0
  151.8997  145.0430  160.6441 H   0  0  0  0  0  0  0  0  0  0  0  0
  150.5573  144.1032  161.3130 H   0  0  0  0  0  0  0  0  0  0  0  0
  147.7593  142.9586  155.0260 H   0  0  0  0  0  0  0  0  0  0  0  0
  1  2  1  0  0  0  0
  1 23  1  0  0  0  0
  1 24  1  0  0  0  0
  1 25  1  0  0  0  0
  2 21  1  0  0  0  0
  2  3  2  0  0  0  0
  3  4  1  0  0  0  0
  3 26  1  0  0  0  0
  4 19  2  0  0  0  0
  4  5  1  0  0  0  0
  5  6  2  0  0  0  0
  6  7  1  0  0  0  0
  6 27  1  0  0  0  0
  7  8  1  0  0  0  0
  7 19  1  0  0  0  0
  8  9  1  0  0  0  0
  8 28  1  0  0  0  0
  8 29  1  0  0  0  0
  9 10  1  0  0  0  0
  9 11  1  0  0  0  0
  9 30  1  0  0  0  0
 10 31  1  0  0  0  0
 11 12  1  0  0  0  0
 11 32  1  0  0  0  0
 11 33  1  0  0  0  0
 12 18  1  0  0  0  0
 12 13  1  0  0  0  0
 12 44  1  0  0  0  0
 13 14  1  0  0  0  0
 13 34  1  0  0  0  0
 13 35  1  0  0  0  0
 14 15  1  0  0  0  0
 14 36  1  0  0  0  0
 14 37  1  0  0  0  0
 15 16  1  0  0  0  0
 16 17  2  0  0  0  0
 16 18  1  0  0  0  0
 18 38  1  0  0  0  0
 18 39  1  0  0  0  0
 19 20  1  0  0  0  0
 20 21  2  0  0  0  0
 20 40  1  0  0  0  0
 21 22  1  0  0  0  0
 22 41  1  0  0  0  0
 22 42  1  0  0  0  0
 22 43  1  0  0  0  0
M  CHG  1  12   1
M  CHG  1  15  -1
M  END
> <s_m_source_file>
AV-unprocessed.smi

> <i_m_source_file_index>
1056

> <i_lp_mmshare_version>
43012

> <i_f3d_flags>
0

> <s_epik_input>
W0NIM11jKFtjSF0xKWMoW0NIM10pW2NIXWMoYzEyKW4oW2NIXW4yKVtDSDJdW0NASF0oW09IXSlbQ0gyXU4zW0NIMl1bQ0gyXVtOSF1DKD1PKVtDSDJdMw==

> <s_epik_cmdline>
J2VwaWtfcHl0aG9uJywgJy1waCcsICc3LjAnLCAnLXRuJywgJzgnLCAnLW1hJywgJzIwMCcsICctbWV0YWxfYmluZGluZycsICctaW1hZScsICc8aW5maWxlLm1hZT4nLCAnLW9tYWUnLCAnPG91dGZpbGUubWFlPic=

> <r_epik_Ionization_Penalty>
5.13411

> <r_epik_Ionization_Penalty_Charging>
5.04792

> <r_epik_Ionization_Penalty_Neutral>
0.0861879

> <r_epik_State_Penalty>
5.18224

> <r_epik_Charging_Adjusted_Penalty>
10.2302

> <i_epik_Tot_Q>
0

> <i_epik_Tot_abs_Q>
2

> <r_epik_Metal_State_Penalty>
1.33873

> <b_epik_Metal_Only>
1

> <s_lp_Force_Field>
OPLS_2005

> <r_lp_Energy>
16.2404

> <b_lp_Chiralities_Consistent>
1

> <s_lp_Variant>
AV-unprocessed.smi:1056-13

> <Gold.Version>
5.8.1

> <Gold.Id.Protein>
6NUR|6NUR_protein|mol2

> <Gold.PLP.Fitness>
61.1188

> <Gold.PLP.PLP>
-47.0663

> <Gold.PLP.part.hbond>
-4.0000

> <Gold.PLP.part.metal>
0.0000

> <Gold.PLP.part.buried>
-6.4331

> <Gold.PLP.part.nonpolar>
-36.6826

> <Gold.PLP.part.repulsive>
0.4031

> <Gold.PLP.ligand.clash>
0.0000

> <Gold.PLP.ligand.torsion>
0.3872

> <Gold.PLP.Chemscore.Hbond>
4.9280

> <Gold.PLP.Chemscore.CHOScore>
0.0000

> <Gold.PLP.Chemscore.Metal>
0.0000

> <Gold.Chemscore.Hbonds>
donor molecule, donor type, donor heavy atom, donor atom, acceptor molecule, acceptor atom, score
      L1  H    10    31       P1  7957  1.00
      L1  H    12    44       P1  8028  1.40
      P1  H  7989  7998       L1    10  0.88
      P1  H  7997  8010       L1     5  1.00

> <Gold.PLP.Chemscore.Internal.Correction>
0.0430

> <Gold.Rescore>
     Score         DG    S(hbond)    S(metal)    S(lipo)     H(rot)  DE(clash)    DE(int)     intcor
     19.55     -21.16       2.62        0.00     110.01       2.31       0.54       1.06       ----

> <Gold.Chemscore.Fitness>
19.5529

> <Gold.Chemscore.DG>
-21.1602

> <Gold.Chemscore.ZeroCoef>
-5.4800

> <Gold.Chemscore.Hbond>
2.6152

> <Gold.Chemscore.Metal>
0.0000

> <Gold.Chemscore.Lipo>
110.0079

> <Gold.Chemscore.Internal_Hbond>
0.0000

> <Gold.Chemscore.DEClash>
0.5439

> <Gold.Chemscore.DEInternal>
1.0635

> <Gold.Chemscore.Rot>
2.3147

> <Gold.Chemscore.Internal.Correction>
   9.000000E+99

> <Gold.Chemscore.Hbonds>
donor molecule, donor type, donor heavy atom, donor atom, acceptor molecule, acceptor atom, score
      L1  H    10    31       P1  7957  0.99
      L1  H    12    44       P1  8028  0.51
      P1  H  7989  7998       L1    10  0.24
      P1  H  7997  8010       L1     5  0.38

> <Gold.Chemscore.Hbond.Weighted>
-8.7349

> <Gold.Chemscore.Metal.Weighted>
-0.0000

> <Gold.Chemscore.Lipo.Weighted>
-12.8709

> <Gold.Chemscore.Internal_Hbond.Weighted>
0.0000

> <Gold.Chemscore.DEClash.Weighted>
0.5439

> <Gold.Chemscore.DEInternal.Weighted>
1.0635

> <Gold.Chemscore.Rot.Weighted>
5.9256

> <Gold.Chemscore.Internal.Correction.Weighted>
   9.000000E+99

> <Gold.Protein.RotatedTorsions>
[ 6907 6896 6895 6894 ] final -127.19 input  -60.11 | X-H torsion
[ 7974 7965 7964 7962 ] final  113.87 input  175.53 | X-H torsion
[ 8008 7997 7996 7995 ] final   48.32 input   59.86 | X-H torsion
[ 10167 10162 10161 10158 ] final -167.58 input  -65.29 | X-H torsion
[ 10718 10713 10712 10709 ] final -124.99 input   66.30 | X-H torsion
[ 10763 10752 10751 10750 ] final  -23.30 input  -60.55 | X-H torsion
[ 11005 11000 10999 10996 ] final   82.29 input  -57.11 | X-H torsion

> <Gold.Protein.ActiveResidues>
 VAL166  LYS551  ARG553  GLY616  TRP617  ASP618  TYR619  PRO620  LYS621  CYS622 
 ASP623  PHE694  ASN695  SER759  ASP760  ASP761  ALA762  ILE779  LEU786  VAL792 
 PHE793  MET794  SER795  GLU796  ALA797  LYS798  CYS799  TRP800  GLU811  SER814 

> <Gold.Protein.RotatedAtoms>
  150.9047  133.7074  159.2869 H   0  0  0  0  0  0  0  0  0  0  0  0  # atno 6907 bound_to 6896
  151.4581  135.1034  159.9726 H   0  0  0  0  0  0  0  0  0  0  0  0  # atno 6908 bound_to 6896
  152.4896  133.8416  159.7211 H   0  0  0  0  0  0  0  0  0  0  0  0  # atno 6909 bound_to 6896
  145.2115  139.2904  143.4266 H   0  0  0  0  0  0  0  0  0  0  0  0  # atno 7974 bound_to 7965
  155.3837  140.3430  155.4248 H   0  0  0  0  0  0  0  0  0  0  0  0  # atno 8008 bound_to 7997
  156.1596  140.1596  156.8667 H   0  0  0  0  0  0  0  0  0  0  0  0  # atno 8009 bound_to 7997
  154.5127  140.0786  156.8003 H   0  0  0  0  0  0  0  0  0  0  0  0  # atno 8010 bound_to 7997
  139.6040  144.0951  152.1773 H   0  0  0  0  0  0  0  0  0  0  0  0  # atno 10167 bound_to 10162
  156.1636  130.6619  151.0083 H   0  0  0  0  0  0  0  0  0  0  0  0  # atno 10718 bound_to 10713
  153.6656  135.6974  153.5163 H   0  0  0  0  0  0  0  0  0  0  0  0  # atno 10763 bound_to 10752
  153.2597  135.4248  155.0881 H   0  0  0  0  0  0  0  0  0  0  0  0  # atno 10764 bound_to 10752
  154.8440  135.3552  154.6201 H   0  0  0  0  0  0  0  0  0  0  0  0  # atno 10765 bound_to 10752
  139.9069  134.8060  156.2155 H   0  0  0  0  0  0  0  0  0  0  0  0  # atno 11005 bound_to 11000
  146.3396  140.2392  142.8595 LP  0  0  0  0  0  0  0  0  0  0  0  0  # atno 17320 bound_to 7965
  144.9851  140.8495  143.5373 LP  0  0  0  0  0  0  0  0  0  0  0  0  # atno 17321 bound_to 7965
  140.0554  144.5899  150.7303 LP  0  0  0  0  0  0  0  0  0  0  0  0  # atno 17342 bound_to 10162
  140.7271  143.2648  151.4082 LP  0  0  0  0  0  0  0  0  0  0  0  0  # atno 17343 bound_to 10162
  157.6751  131.0852  150.7515 LP  0  0  0  0  0  0  0  0  0  0  0  0  # atno 17370 bound_to 10713
  156.7577  130.4788  149.5443 LP  0  0  0  0  0  0  0  0  0  0  0  0  # atno 17371 bound_to 10713
  141.0439  133.6923  156.1647 LP  0  0  0  0  0  0  0  0  0  0  0  0  # atno 17394 bound_to 11000
  140.6914  134.4662  157.5588 LP  0  0  0  0  0  0  0  0  0  0  0  0  # atno 17395 bound_to 11000

$$$$
