AV-unprocessed.smi:129|AV-procd|sdf|1157|dock10
  -GOLD-   2262018293D 1   1.00000     0.00000
 Structure written by MMmdl.
 58 61  0  0  0  0  0  0  0  0  1 V2000
  146.7843  136.2758  154.3159 C   0  0  0  0  0  0  0  0  0  0  0  0
  147.3089  134.9768  154.0833 O   0  0  0  0  0  0  0  0  0  0  0  0
  146.6636  134.1617  153.1743 C   0  0  0  0  0  0  0  0  0  0  0  0
  145.5672  134.5896  152.3822 C   0  0  0  0  0  0  0  0  0  0  0  0
  144.9559  133.7106  151.4695 C   0  0  0  0  0  0  0  0  0  0  0  0
  145.4346  132.3971  151.3293 C   0  0  0  0  0  0  0  0  0  0  0  0
  146.5207  131.9591  152.1077 C   0  0  0  0  0  0  0  0  0  0  0  0
  147.1297  132.8309  153.0431 C   0  0  0  0  0  0  0  0  0  0  0  0
  148.2414  132.4416  153.8416 N   0  0  0  0  0  0  0  0  0  0  0  0
  148.8546  131.2440  153.9033 C   0  0  0  0  0  0  0  0  0  0  0  0
  148.5718  130.2714  153.2035 O   0  0  0  0  0  0  0  0  0  0  0  0
  149.9915  131.1630  154.8829 C   0  0  0  0  0  0  0  0  0  0  0  0
  150.2043  132.2137  155.8018 C   0  0  0  0  0  0  0  0  0  0  0  0
  151.2835  132.1666  156.7043 C   0  0  0  0  0  0  0  0  0  0  0  0
  152.1693  131.0703  156.7067 C   0  0  0  0  0  0  0  0  0  0  0  0
  153.2497  131.1126  157.6294 N   0  0  0  0  0  0  0  0  0  0  0  0
  153.7055  132.1516  158.3524 C   0  0  0  0  0  0  0  0  0  0  0  0
  153.2575  133.2972  158.2891 O   0  0  0  0  0  0  0  0  0  0  0  0
  154.8861  131.8239  159.2811 C   0  0  0  0  0  0  0  0  0  0  0  0
  154.6848  132.2671  160.6782 N   0  0  0  0  0  0  0  0  0  0  0  0
  154.0893  131.3683  161.5977 C   0  0  0  0  0  0  0  0  0  0  0  0
  153.7372  130.2399  161.2511 O   0  0  0  0  0  0  0  0  0  0  0  0
  153.9337  131.8707  162.9579 C   0  0  0  0  0  0  0  0  0  0  0  0
  153.3629  131.0925  163.8930 F   0  0  0  0  0  0  0  0  0  0  0  0
  154.3525  133.1079  163.2948 C   0  0  0  0  0  0  0  0  0  0  0  0
  154.9512  133.9679  162.3912 N   0  0  0  0  0  0  0  0  0  0  0  0
  155.4243  135.3511  162.7869 C   0  0  2  0  0  0  0  0  0  0  0  0
  155.1699  135.6035  164.2855 C   0  0  0  0  0  0  0  0  0  0  0  0
  154.4198  136.9209  164.2824 C   0  0  0  0  0  0  0  0  0  0  0  0
  153.7137  136.8797  162.9359 C   0  0  0  0  0  0  0  0  0  0  0  0
  154.7030  136.3211  162.0817 O   0  0  0  0  0  0  0  0  0  0  0  0
  155.1236  133.5600  161.0506 C   0  0  0  0  0  0  0  0  0  0  0  0
  155.6513  134.3128  160.2287 O   0  0  0  0  0  0  0  0  0  0  0  0
  151.9725  130.0253  155.7725 C   0  0  0  0  0  0  0  0  0  0  0  0
  150.8919  130.0727  154.8701 C   0  0  0  0  0  0  0  0  0  0  0  0
  147.4048  136.7869  155.0518 H   0  0  0  0  0  0  0  0  0  0  0  0
  145.7701  136.2307  154.7147 H   0  0  0  0  0  0  0  0  0  0  0  0
  146.7899  136.8776  153.4062 H   0  0  0  0  0  0  0  0  0  0  0  0
  145.1743  135.5923  152.4541 H   0  0  0  0  0  0  0  0  0  0  0  0
  144.1227  134.0477  150.8706 H   0  0  0  0  0  0  0  0  0  0  0  0
  144.9730  131.7259  150.6202 H   0  0  0  0  0  0  0  0  0  0  0  0
  146.8800  130.9525  151.9598 H   0  0  0  0  0  0  0  0  0  0  0  0
  148.5440  133.1252  154.5203 H   0  0  0  0  0  0  0  0  0  0  0  0
  149.5403  133.0660  155.8212 H   0  0  0  0  0  0  0  0  0  0  0  0
  151.4281  132.9818  157.3983 H   0  0  0  0  0  0  0  0  0  0  0  0
  153.7767  130.2555  157.7137 H   0  0  0  0  0  0  0  0  0  0  0  0
  155.0708  130.7493  159.2390 H   0  0  0  0  0  0  0  0  0  0  0  0
  155.7909  132.2626  158.8574 H   0  0  0  0  0  0  0  0  0  0  0  0
  154.2038  133.4185  164.3174 H   0  0  0  0  0  0  0  0  0  0  0  0
  156.4756  135.3976  162.4972 H   0  0  0  0  0  0  0  0  0  0  0  0
  154.5465  134.8109  164.7029 H   0  0  0  0  0  0  0  0  0  0  0  0
  156.1081  135.6452  164.8394 H   0  0  0  0  0  0  0  0  0  0  0  0
  153.7324  137.0232  165.1224 H   0  0  0  0  0  0  0  0  0  0  0  0
  155.1228  137.7544  164.3097 H   0  0  0  0  0  0  0  0  0  0  0  0
  152.8382  136.2303  162.9764 H   0  0  0  0  0  0  0  0  0  0  0  0
  153.3966  137.8649  162.5938 H   0  0  0  0  0  0  0  0  0  0  0  0
  152.6482  129.1862  155.7136 H   0  0  0  0  0  0  0  0  0  0  0  0
  150.7730  129.2672  154.1597 H   0  0  0  0  0  0  0  0  0  0  0  0
  1  2  1  0  0  0  0
  1 36  1  0  0  0  0
  1 37  1  0  0  0  0
  1 38  1  0  0  0  0
  2  3  1  0  0  0  0
  3  8  1  0  0  0  0
  3  4  2  0  0  0  0
  4  5  1  0  0  0  0
  4 39  1  0  0  0  0
  5  6  2  0  0  0  0
  5 40  1  0  0  0  0
  6  7  1  0  0  0  0
  6 41  1  0  0  0  0
  7  8  2  0  0  0  0
  7 42  1  0  0  0  0
  8  9  1  0  0  0  0
  9 10  1  0  0  0  0
  9 43  1  0  0  0  0
 10 11  2  0  0  0  0
 10 12  1  0  0  0  0
 12 35  1  0  0  0  0
 12 13  2  0  0  0  0
 13 14  1  0  0  0  0
 13 44  1  0  0  0  0
 14 15  2  0  0  0  0
 14 45  1  0  0  0  0
 15 16  1  0  0  0  0
 15 34  1  0  0  0  0
 16 17  1  0  0  0  0
 16 46  1  0  0  0  0
 17 18  2  0  0  0  0
 17 19  1  0  0  0  0
 19 20  1  0  0  0  0
 19 47  1  0  0  0  0
 19 48  1  0  0  0  0
 20 32  1  0  0  0  0
 20 21  1  0  0  0  0
 21 22  2  0  0  0  0
 21 23  1  0  0  0  0
 23 24  1  0  0  0  0
 23 25  2  0  0  0  0
 25 26  1  0  0  0  0
 25 49  1  0  0  0  0
 26 27  1  0  0  0  0
 26 32  1  0  0  0  0
 27 31  1  0  0  0  0
 27 28  1  0  0  0  0
 27 50  1  0  0  0  0
 28 29  1  0  0  0  0
 28 51  1  0  0  0  0
 28 52  1  0  0  0  0
 29 30  1  0  0  0  0
 29 53  1  0  0  0  0
 29 54  1  0  0  0  0
 30 31  1  0  0  0  0
 30 55  1  0  0  0  0
 30 56  1  0  0  0  0
 32 33  2  0  0  0  0
 34 35  2  0  0  0  0
 34 57  1  0  0  0  0
 35 58  1  0  0  0  0
M  END
> <s_m_source_file>
AV-unprocessed.smi

> <i_m_source_file_index>
129

> <i_lp_mmshare_version>
43012

> <i_f3d_flags>
0

> <s_epik_input>
W0NIM11PYzFbY0hdW2NIXVtjSF1bY0hdYzFbTkhdQyg9TyljMltjSF1bY0hdYyhbY0hdW2NIXTIpW05IXUMoPU8pW0NIMl1uM2MoPU8pYyhGKVtjSF1uKGMzPU8pW0NAQEhdNFtDSDJdW0NIMl1bQ0gyXU80

> <s_epik_cmdline>
J2VwaWtfcHl0aG9uJywgJy1waCcsICc3LjAnLCAnLXRuJywgJzgnLCAnLW1hJywgJzIwMCcsICctbWV0YWxfYmluZGluZycsICctaW1hZScsICc8aW5maWxlLm1hZT4nLCAnLW9tYWUnLCAnPG91dGZpbGUubWFlPic=

> <r_lp_tautomer_probability>
1

> <r_epik_Ionization_Penalty>
2.57954e-06

> <r_epik_Ionization_Penalty_Charging>
3.88729e-08

> <r_epik_Ionization_Penalty_Neutral>
2.54066e-06

> <r_epik_State_Penalty>
-0

> <r_epik_Charging_Adjusted_Penalty>
3.88729e-08

> <i_epik_Tot_Q>
0

> <i_epik_Tot_abs_Q>
0

> <r_epik_Metal_State_Penalty>
-0

> <b_epik_Metal_Only>
0

> <s_epik_Chemistry_Notes>
This compound contains an acetal/aminal-like group ( X-CH(R)-Y where X, Y are N, S, or O) that may be acid/base labile, releasing an aldehyde.

> <s_lp_Force_Field>
OPLS_2005

> <r_lp_Energy>
50.6218

> <b_lp_Chiralities_Consistent>
1

> <s_lp_Variant>
AV-unprocessed.smi:129-1

> <Gold.Version>
5.8.1

> <Gold.Id.Protein>
6NUR|6NUR_protein|mol2

> <Gold.PLP.Fitness>
46.4101

> <Gold.PLP.PLP>
-45.7142

> <Gold.PLP.part.hbond>
-0.7341

> <Gold.PLP.part.metal>
0.0000

> <Gold.PLP.part.buried>
-6.0682

> <Gold.PLP.part.nonpolar>
-40.9050

> <Gold.PLP.part.repulsive>
1.8459

> <Gold.PLP.ligand.clash>
0.0000

> <Gold.PLP.ligand.torsion>
0.5826

> <Gold.PLP.Chemscore.Hbond>
0.5920

> <Gold.PLP.Chemscore.CHOScore>
0.0000

> <Gold.PLP.Chemscore.Metal>
0.0000

> <Gold.Chemscore.Hbonds>
donor molecule, donor type, donor heavy atom, donor atom, acceptor molecule, acceptor atom, score
      P1  H  6896  6908       L1    18  0.59

> <Gold.PLP.Chemscore.Internal.Correction>
0.0851

> <Gold.Rescore>
     Score         DG    S(hbond)    S(metal)    S(lipo)     H(rot)  DE(clash)    DE(int)     intcor
     10.39     -14.98       0.86        0.00      99.19       1.94       0.08       4.51       ----

> <Gold.Chemscore.Fitness>
10.3947

> <Gold.Chemscore.DG>
-14.9796

> <Gold.Chemscore.ZeroCoef>
-5.4800

> <Gold.Chemscore.Hbond>
0.8590

> <Gold.Chemscore.Metal>
0.0000

> <Gold.Chemscore.Lipo>
99.1863

> <Gold.Chemscore.Internal_Hbond>
0.0000

> <Gold.Chemscore.DEClash>
0.0787

> <Gold.Chemscore.DEInternal>
4.5063

> <Gold.Chemscore.Rot>
1.9430

> <Gold.Chemscore.Internal.Correction>
   9.000000E+99

> <Gold.Chemscore.Hbonds>
donor molecule, donor type, donor heavy atom, donor atom, acceptor molecule, acceptor atom, score
      P1  H  6896  6908       L1    18  0.56

> <Gold.Chemscore.Hbond.Weighted>
-2.8690

> <Gold.Chemscore.Metal.Weighted>
-0.0000

> <Gold.Chemscore.Lipo.Weighted>
-11.6048

> <Gold.Chemscore.Internal_Hbond.Weighted>
0.0000

> <Gold.Chemscore.DEClash.Weighted>
0.0787

> <Gold.Chemscore.DEInternal.Weighted>
4.5063

> <Gold.Chemscore.Rot.Weighted>
4.9741

> <Gold.Chemscore.Internal.Correction.Weighted>
   9.000000E+99

> <Gold.Protein.RotatedTorsions>
[ 6907 6896 6895 6894 ] final  -13.21 input  -60.11 | X-H torsion
[ 7974 7965 7964 7962 ] final  -20.48 input  175.53 | X-H torsion
[ 8008 7997 7996 7995 ] final  -59.60 input   59.86 | X-H torsion
[ 10167 10162 10161 10158 ] final -103.82 input  -65.29 | X-H torsion
[ 10718 10713 10712 10709 ] final -177.84 input   66.30 | X-H torsion
[ 10763 10752 10751 10750 ] final  152.82 input  -60.55 | X-H torsion
[ 11005 11000 10999 10996 ] final -118.17 input  -57.11 | X-H torsion

> <Gold.Protein.ActiveResidues>
 VAL166  LYS551  ARG553  GLY616  TRP617  ASP618  TYR619  PRO620  LYS621  CYS622 
 ASP623  PHE694  ASN695  SER759  ASP760  ASP761  ALA762  ILE779  LEU786  VAL792 
 PHE793  MET794  SER795  GLU796  ALA797  LYS798  CYS799  TRP800  GLU811  SER814 

> <Gold.Protein.RotatedAtoms>
  151.3584  135.0899  159.9426 H   0  0  0  0  0  0  0  0  0  0  0  0  # atno 6907 bound_to 6896
  152.5168  133.9282  159.7578 H   0  0  0  0  0  0  0  0  0  0  0  0  # atno 6908 bound_to 6896
  150.9672  133.6328  159.2773 H   0  0  0  0  0  0  0  0  0  0  0  0  # atno 6909 bound_to 6896
  146.1785  140.4208  142.8504 H   0  0  0  0  0  0  0  0  0  0  0  0  # atno 7974 bound_to 7965
  154.4360  140.1058  156.6142 H   0  0  0  0  0  0  0  0  0  0  0  0  # atno 8008 bound_to 7997
  155.5777  140.3490  155.4513 H   0  0  0  0  0  0  0  0  0  0  0  0  # atno 8009 bound_to 7997
  156.0342  140.1267  157.0215 H   0  0  0  0  0  0  0  0  0  0  0  0  # atno 8010 bound_to 7997
  140.2159  143.3712  152.1011 H   0  0  0  0  0  0  0  0  0  0  0  0  # atno 10167 bound_to 10162
  156.8354  130.9668  151.3103 H   0  0  0  0  0  0  0  0  0  0  0  0  # atno 10718 bound_to 10713
  154.1261  135.2829  155.3196 H   0  0  0  0  0  0  0  0  0  0  0  0  # atno 10763 bound_to 10752
  154.6388  135.5409  153.7769 H   0  0  0  0  0  0  0  0  0  0  0  0  # atno 10764 bound_to 10752
  153.0296  135.6481  154.1414 H   0  0  0  0  0  0  0  0  0  0  0  0  # atno 10765 bound_to 10752
  141.0304  133.9989  157.3151 H   0  0  0  0  0  0  0  0  0  0  0  0  # atno 11005 bound_to 11000
  144.8276  140.6654  143.6312 LP  0  0  0  0  0  0  0  0  0  0  0  0  # atno 17320 bound_to 7965
  145.4142  139.1575  143.4109 LP  0  0  0  0  0  0  0  0  0  0  0  0  # atno 17321 bound_to 7965
  139.5162  144.6974  151.5590 LP  0  0  0  0  0  0  0  0  0  0  0  0  # atno 17342 bound_to 10162
  140.6290  143.9112  150.6589 LP  0  0  0  0  0  0  0  0  0  0  0  0  # atno 17343 bound_to 10162
  157.6384  130.8785  149.9402 LP  0  0  0  0  0  0  0  0  0  0  0  0  # atno 17370 bound_to 10713
  156.0910  130.3663  150.0395 LP  0  0  0  0  0  0  0  0  0  0  0  0  # atno 17371 bound_to 10713
  139.9204  135.0200  156.8042 LP  0  0  0  0  0  0  0  0  0  0  0  0  # atno 17394 bound_to 11000
  140.6416  133.9813  155.7710 LP  0  0  0  0  0  0  0  0  0  0  0  0  # atno 17395 bound_to 11000

$$$$
