AV-unprocessed.smi:1570|AV-procd|sdf|6314|dock3
  -GOLD-   22720 6513D 1   1.00000     0.00000
 Structure written by MMmdl.
 51 53  0  0  0  0  0  0  0  0  1 V2000
  149.7215  141.5569  157.2192 C   0  0  0  0  0  0  0  0  0  0  0  0
  151.2335  141.5604  156.9617 C   0  0  0  0  0  0  0  0  0  0  0  0
  151.9837  141.5359  158.2149 N   0  0  0  0  0  0  0  0  0  0  0  0
  152.8264  140.5618  158.6318 C   0  0  0  0  0  0  0  0  0  0  0  0
  153.1054  139.5333  158.0155 O   0  0  0  0  0  0  0  0  0  0  0  0
  153.2998  140.9086  159.8520 N   0  0  0  0  0  0  0  0  0  0  0  0
  154.2348  140.1401  160.6723 C   0  0  0  0  0  0  0  0  0  0  0  0
  155.6958  140.3565  160.2306 C   0  0  2  0  0  0  0  0  0  0  0  0
  155.9192  139.5916  159.0628 O   0  0  0  0  0  0  0  0  0  0  0  0
  156.6854  139.8528  161.3009 C   0  0  0  0  0  0  0  0  0  0  0  0
  156.6329  140.5503  162.5872 N   0  0  0  0  0  0  0  0  0  0  0  0
  157.8556  140.3266  163.3481 C   0  0  0  0  0  0  0  0  0  0  0  0
  157.8510  141.0875  164.6858 C   0  0  2  0  0  0  0  0  0  0  0  0
  159.0979  140.7863  165.5241 C   0  0  0  0  0  0  0  0  0  0  0  0
  156.7049  140.7044  165.4435 O   0  0  0  0  0  0  0  0  0  0  0  0
  155.4529  140.8546  164.7722 C   0  0  1  0  0  0  0  0  0  0  0  0
  155.0275  142.3301  164.6821 C   0  0  0  0  0  0  0  0  0  0  0  0
  155.4890  140.1459  163.4033 C   0  0  0  0  0  0  0  0  0  0  0  0
  152.7276  142.1300  160.2360 C   0  0  0  0  0  0  0  0  0  0  0  0
  152.8748  142.8945  161.4066 C   0  0  0  0  0  0  0  0  0  0  0  0
  152.1375  144.0988  161.4898 C   0  0  0  0  0  0  0  0  0  0  0  0
  151.2870  144.5053  160.4291 C   0  0  0  0  0  0  0  0  0  0  0  0
  151.1548  143.7155  159.2630 C   0  0  0  0  0  0  0  0  0  0  0  0
  151.8998  142.5246  159.2056 C   0  0  0  0  0  0  0  0  0  0  0  0
  149.1684  141.5770  156.2800 H   0  0  0  0  0  0  0  0  0  0  0  0
  149.4184  142.4270  157.8023 H   0  0  0  0  0  0  0  0  0  0  0  0
  149.4165  140.6639  157.7653 H   0  0  0  0  0  0  0  0  0  0  0  0
  151.5067  140.7001  156.3492 H   0  0  0  0  0  0  0  0  0  0  0  0
  151.5128  142.4423  156.3849 H   0  0  0  0  0  0  0  0  0  0  0  0
  154.1133  140.4727  161.7046 H   0  0  0  0  0  0  0  0  0  0  0  0
  153.9750  139.0808  160.6766 H   0  0  0  0  0  0  0  0  0  0  0  0
  155.8620  141.4111  160.0148 H   0  0  0  0  0  0  0  0  0  0  0  0
  156.1576  140.1819  158.3639 H   0  0  0  0  0  0  0  0  0  0  0  0
  156.5187  138.7879  161.4710 H   0  0  0  0  0  0  0  0  0  0  0  0
  157.6930  139.9293  160.8892 H   0  0  0  0  0  0  0  0  0  0  0  0
  157.9837  139.2591  163.5352 H   0  0  0  0  0  0  0  0  0  0  0  0
  158.7177  140.6450  162.7607 H   0  0  0  0  0  0  0  0  0  0  0  0
  157.8174  142.1603  164.4943 H   0  0  0  0  0  0  0  0  0  0  0  0
  160.0064  141.0670  164.9911 H   0  0  0  0  0  0  0  0  0  0  0  0
  159.1643  139.7249  165.7642 H   0  0  0  0  0  0  0  0  0  0  0  0
  159.0792  141.3399  166.4632 H   0  0  0  0  0  0  0  0  0  0  0  0
  154.7120  140.3478  165.3912 H   0  0  0  0  0  0  0  0  0  0  0  0
  154.0220  142.4186  164.2703 H   0  0  0  0  0  0  0  0  0  0  0  0
  155.6923  142.9105  164.0428 H   0  0  0  0  0  0  0  0  0  0  0  0
  155.0223  142.7939  165.6686 H   0  0  0  0  0  0  0  0  0  0  0  0
  154.5528  140.3446  162.8839 H   0  0  0  0  0  0  0  0  0  0  0  0
  155.5258  139.0677  163.5671 H   0  0  0  0  0  0  0  0  0  0  0  0
  153.5188  142.5782  162.2136 H   0  0  0  0  0  0  0  0  0  0  0  0
  152.2218  144.7151  162.3727 H   0  0  0  0  0  0  0  0  0  0  0  0
  150.7317  145.4277  160.5142 H   0  0  0  0  0  0  0  0  0  0  0  0
  150.5053  144.0173  158.4548 H   0  0  0  0  0  0  0  0  0  0  0  0
  1  2  1  0  0  0  0
  1 25  1  0  0  0  0
  1 26  1  0  0  0  0
  1 27  1  0  0  0  0
  2  3  1  0  0  0  0
  2 28  1  0  0  0  0
  2 29  1  0  0  0  0
  3 24  1  0  0  0  0
  3  4  1  0  0  0  0
  4  5  2  0  0  0  0
  4  6  1  0  0  0  0
  6  7  1  0  0  0  0
  6 19  1  0  0  0  0
  7  8  1  0  0  0  0
  7 30  1  0  0  0  0
  7 31  1  0  0  0  0
  8  9  1  0  0  0  0
  8 10  1  0  0  0  0
  8 32  1  0  0  0  0
  9 33  1  0  0  0  0
 10 11  1  0  0  0  0
 10 34  1  0  0  0  0
 10 35  1  0  0  0  0
 11 18  1  0  0  0  0
 11 12  1  0  0  0  0
 12 13  1  0  0  0  0
 12 36  1  0  0  0  0
 12 37  1  0  0  0  0
 13 14  1  0  0  0  0
 13 15  1  0  0  0  0
 13 38  1  0  0  0  0
 14 39  1  0  0  0  0
 14 40  1  0  0  0  0
 14 41  1  0  0  0  0
 15 16  1  0  0  0  0
 16 17  1  0  0  0  0
 16 18  1  0  0  0  0
 16 42  1  0  0  0  0
 17 43  1  0  0  0  0
 17 44  1  0  0  0  0
 17 45  1  0  0  0  0
 18 46  1  0  0  0  0
 18 47  1  0  0  0  0
 19 24  2  0  0  0  0
 19 20  1  0  0  0  0
 20 21  2  0  0  0  0
 20 48  1  0  0  0  0
 21 22  1  0  0  0  0
 21 49  1  0  0  0  0
 22 23  2  0  0  0  0
 22 50  1  0  0  0  0
 23 24  1  0  0  0  0
 23 51  1  0  0  0  0
M  END
> <s_m_source_file>
AV-unprocessed.smi

> <i_m_source_file_index>
1570

> <i_lp_mmshare_version>
43012

> <i_f3d_flags>
0

> <s_epik_input>
W2NIXTFbY0hdW2NIXVtjSF1jKGMxMiluKFtDSDJdW0NIM10pYyg9TyluMltDSDJdW0NASF0oW09IXSlbQ0gyXU4zW0NIMl1bQ0BASF0oW0NIM10pT1tDQEBIXShbQ0gzXSlbQ0gyXTM=

> <s_epik_cmdline>
J2VwaWtfcHl0aG9uJywgJy1waCcsICc3LjAnLCAnLXRuJywgJzgnLCAnLW1hJywgJzIwMCcsICctbWV0YWxfYmluZGluZycsICctaW1hZScsICc8aW5maWxlLm1hZT4nLCAnLW9tYWUnLCAnPG91dGZpbGUubWFlPic=

> <r_epik_Ionization_Penalty>
0.214359

> <r_epik_Ionization_Penalty_Charging>
2.30976e-09

> <r_epik_Ionization_Penalty_Neutral>
0.214359

> <r_epik_State_Penalty>
0.204533

> <r_epik_Charging_Adjusted_Penalty>
0.204533

> <i_epik_Tot_Q>
0

> <i_epik_Tot_abs_Q>
0

> <r_epik_Metal_State_Penalty>
0.204533

> <b_epik_Metal_Only>
0

> <s_lp_Force_Field>
OPLS_2005

> <r_lp_Energy>
63.7902

> <b_lp_Chiralities_Consistent>
1

> <s_lp_Variant>
AV-unprocessed.smi:1570-3

> <Gold.Version>
5.8.1

> <Gold.Id.Protein>
6NUR|6NUR_protein|mol2

> <Gold.PLP.Fitness>
47.8995

> <Gold.PLP.PLP>
-45.9069

> <Gold.PLP.part.hbond>
-3.0000

> <Gold.PLP.part.metal>
0.0000

> <Gold.PLP.part.buried>
-4.4186

> <Gold.PLP.part.nonpolar>
-37.9200

> <Gold.PLP.part.repulsive>
0.0000

> <Gold.PLP.ligand.clash>
0.0000

> <Gold.PLP.ligand.torsion>
0.5770

> <Gold.PLP.Chemscore.Hbond>
1.0000

> <Gold.PLP.Chemscore.CHOScore>
0.0000

> <Gold.PLP.Chemscore.Metal>
0.0000

> <Gold.Chemscore.Hbonds>
donor molecule, donor type, donor heavy atom, donor atom, acceptor molecule, acceptor atom, score
      P1  H  7997  8009       L1     5  1.00

> <Gold.PLP.Chemscore.Internal.Correction>
0.1465

> <Gold.Rescore>
     Score         DG    S(hbond)    S(metal)    S(lipo)     H(rot)  DE(clash)    DE(int)     intcor
     16.34     -17.62       0.97        0.00     120.96       2.06       0.54       0.73       ----

> <Gold.Chemscore.Fitness>
16.3394

> <Gold.Chemscore.DG>
-17.6183

> <Gold.Chemscore.ZeroCoef>
-5.4800

> <Gold.Chemscore.Hbond>
0.9740

> <Gold.Chemscore.Metal>
0.0000

> <Gold.Chemscore.Lipo>
120.9571

> <Gold.Chemscore.Internal_Hbond>
0.0000

> <Gold.Chemscore.DEClash>
0.5447

> <Gold.Chemscore.DEInternal>
0.7343

> <Gold.Chemscore.Rot>
2.0574

> <Gold.Chemscore.Internal.Correction>
   9.000000E+99

> <Gold.Chemscore.Hbonds>
donor molecule, donor type, donor heavy atom, donor atom, acceptor molecule, acceptor atom, score
      P1  H  7997  8009       L1     5  0.40

> <Gold.Chemscore.Hbond.Weighted>
-3.2532

> <Gold.Chemscore.Metal.Weighted>
-0.0000

> <Gold.Chemscore.Lipo.Weighted>
-14.1520

> <Gold.Chemscore.Internal_Hbond.Weighted>
0.0000

> <Gold.Chemscore.DEClash.Weighted>
0.5447

> <Gold.Chemscore.DEInternal.Weighted>
0.7343

> <Gold.Chemscore.Rot.Weighted>
5.2669

> <Gold.Chemscore.Internal.Correction.Weighted>
   9.000000E+99

> <Gold.Protein.RotatedTorsions>
[ 6907 6896 6895 6894 ] final  152.01 input  -60.11 | X-H torsion
[ 7974 7965 7964 7962 ] final    8.73 input  175.53 | X-H torsion
[ 8008 7997 7996 7995 ] final  154.03 input   59.86 | X-H torsion
[ 10167 10162 10161 10158 ] final  138.45 input  -65.29 | X-H torsion
[ 10718 10713 10712 10709 ] final   27.84 input   66.30 | X-H torsion
[ 10763 10752 10751 10750 ] final  -23.87 input  -60.55 | X-H torsion
[ 11005 11000 10999 10996 ] final -135.02 input  -57.11 | X-H torsion

> <Gold.Protein.ActiveResidues>
 VAL166  LYS551  ARG553  GLY616  TRP617  ASP618  TYR619  PRO620  LYS621  CYS622 
 ASP623  PHE694  ASN695  SER759  ASP760  ASP761  ALA762  ILE779  LEU786  VAL792 
 PHE793  MET794  SER795  GLU796  ALA797  LYS798  CYS799  TRP800  GLU811  SER814 

> <Gold.Protein.RotatedAtoms>
  152.0927  133.4209  159.4550 H   0  0  0  0  0  0  0  0  0  0  0  0  # atno 6907 bound_to 6896
  150.6862  134.2852  159.4653 H   0  0  0  0  0  0  0  0  0  0  0  0  # atno 6908 bound_to 6896
  152.0705  134.9536  160.0625 H   0  0  0  0  0  0  0  0  0  0  0  0  # atno 6909 bound_to 6896
  146.2412  139.9890  142.8428 H   0  0  0  0  0  0  0  0  0  0  0  0  # atno 7974 bound_to 7965
  156.2552  140.1978  156.6582 H   0  0  0  0  0  0  0  0  0  0  0  0  # atno 8008 bound_to 7997
  154.6484  140.0575  156.9953 H   0  0  0  0  0  0  0  0  0  0  0  0  # atno 8009 bound_to 7997
  155.1455  140.3246  155.4445 H   0  0  0  0  0  0  0  0  0  0  0  0  # atno 8010 bound_to 7997
  139.5110  144.6352  151.5715 H   0  0  0  0  0  0  0  0  0  0  0  0  # atno 10167 bound_to 10162
  157.2256  130.6999  149.6290 H   0  0  0  0  0  0  0  0  0  0  0  0  # atno 10718 bound_to 10713
  153.6747  135.6970  153.5136 H   0  0  0  0  0  0  0  0  0  0  0  0  # atno 10763 bound_to 10752
  153.2530  135.4269  155.0816 H   0  0  0  0  0  0  0  0  0  0  0  0  # atno 10764 bound_to 10752
  154.8417  135.3536  154.6291 H   0  0  0  0  0  0  0  0  0  0  0  0  # atno 10765 bound_to 10752
  140.8937  134.1779  157.4510 H   0  0  0  0  0  0  0  0  0  0  0  0  # atno 11005 bound_to 11000
  145.1521  140.9628  143.4427 LP  0  0  0  0  0  0  0  0  0  0  0  0  # atno 17320 bound_to 7965
  145.0195  139.3436  143.6079 LP  0  0  0  0  0  0  0  0  0  0  0  0  # atno 17321 bound_to 7965
  140.6099  143.9456  150.6445 LP  0  0  0  0  0  0  0  0  0  0  0  0  # atno 17342 bound_to 10162
  140.2695  143.3466  152.1251 LP  0  0  0  0  0  0  0  0  0  0  0  0  # atno 17343 bound_to 10162
  155.9679  130.4505  150.5701 LP  0  0  0  0  0  0  0  0  0  0  0  0  # atno 17370 bound_to 10713
  157.3531  131.0737  151.1697 LP  0  0  0  0  0  0  0  0  0  0  0  0  # atno 17371 bound_to 10713
  139.8733  134.9869  156.5345 LP  0  0  0  0  0  0  0  0  0  0  0  0  # atno 17394 bound_to 11000
  140.8316  133.8275  155.8989 LP  0  0  0  0  0  0  0  0  0  0  0  0  # atno 17395 bound_to 11000

$$$$
