AV-unprocessed.smi:3241|AV-procd|sdf|12388|dock8
  -GOLD-   2272018253D 1   1.00000     0.00000
 Structure written by MMmdl.
 44 45  0  0  0  0  0  0  0  0  2 V2000
  150.3493  139.0847  154.2284 C   0  0  0  0  0  0  0  0  0  0  0  0
  149.0857  139.7331  154.8179 C   0  0  1  0  0  0  0  0  0  0  0  0
  149.4434  141.0229  155.5837 C   0  0  0  0  0  0  0  0  0  0  0  0
  148.1977  141.6985  156.1768 C   0  0  0  0  0  0  0  0  0  0  0  0
  147.1577  141.9909  155.0866 C   0  0  0  0  0  0  0  0  0  0  0  0
  146.7848  140.7105  154.3251 C   0  0  0  0  0  0  0  0  0  0  0  0
  148.0298  140.0222  153.7270 C   0  0  2  0  0  0  0  0  0  0  0  0
  147.6496  138.7806  153.1466 O   0  0  0  0  0  0  0  0  0  0  0  0
  146.8145  138.8975  152.0045 C   0  0  0  0  0  0  0  0  0  0  0  0
  146.0477  137.5835  151.8257 C   0  0  0  0  0  0  0  0  0  0  0  0
  144.7536  137.6293  152.5331 N   0  3  0  0  0  0  0  0  0  0  0  0
  143.8443  136.5125  152.2072 C   0  0  0  0  0  0  0  0  0  0  0  0
  144.3004  135.2006  152.8656 C   0  0  0  0  0  0  0  0  0  0  0  0
  144.7573  134.2260  151.8913 N   0  0  0  0  0  0  0  0  0  0  0  0
  144.0418  133.6313  150.8736 C   0  0  0  0  0  0  0  0  0  0  0  0
  144.8939  132.7910  150.2159 C   0  0  0  0  0  0  0  0  0  0  0  0
  146.1240  132.9409  150.9148 C   0  0  0  0  0  0  0  0  0  0  0  0
  146.0399  133.8033  151.9153 N   0  0  0  0  0  0  0  0  0  0  0  0
  150.8167  139.7315  153.4854 H   0  0  0  0  0  0  0  0  0  0  0  0
  150.1211  138.1344  153.7454 H   0  0  0  0  0  0  0  0  0  0  0  0
  151.0873  138.8853  155.0061 H   0  0  0  0  0  0  0  0  0  0  0  0
  148.6544  139.0298  155.5320 H   0  0  0  0  0  0  0  0  0  0  0  0
  150.1497  140.7977  156.3836 H   0  0  0  0  0  0  0  0  0  0  0  0
  149.9486  141.7209  154.9145 H   0  0  0  0  0  0  0  0  0  0  0  0
  147.7588  141.0534  156.9390 H   0  0  0  0  0  0  0  0  0  0  0  0
  148.4798  142.6242  156.6794 H   0  0  0  0  0  0  0  0  0  0  0  0
  146.2658  142.4317  155.5327 H   0  0  0  0  0  0  0  0  0  0  0  0
  147.5538  142.7307  154.3895 H   0  0  0  0  0  0  0  0  0  0  0  0
  146.2772  140.0229  155.0028 H   0  0  0  0  0  0  0  0  0  0  0  0
  146.0680  140.9556  153.5417 H   0  0  0  0  0  0  0  0  0  0  0  0
  148.4824  140.6714  152.9745 H   0  0  0  0  0  0  0  0  0  0  0  0
  146.1078  139.7174  152.1342 H   0  0  0  0  0  0  0  0  0  0  0  0
  147.4074  139.1132  151.1142 H   0  0  0  0  0  0  0  0  0  0  0  0
  145.8846  137.3821  150.7662 H   0  0  0  0  0  0  0  0  0  0  0  0
  146.6397  136.7586  152.2244 H   0  0  0  0  0  0  0  0  0  0  0  0
  144.9277  137.6174  153.5285 H   0  0  0  0  0  0  0  0  0  0  0  0
  142.8410  136.7634  152.5534 H   0  0  0  0  0  0  0  0  0  0  0  0
  143.7879  136.3898  151.1245 H   0  0  0  0  0  0  0  0  0  0  0  0
  145.0978  135.3870  153.5869 H   0  0  0  0  0  0  0  0  0  0  0  0
  143.4732  134.7602  153.4233 H   0  0  0  0  0  0  0  0  0  0  0  0
  142.9984  133.8531  150.7034 H   0  0  0  0  0  0  0  0  0  0  0  0
  144.6722  132.1630  149.3658 H   0  0  0  0  0  0  0  0  0  0  0  0
  147.0691  132.4537  150.7254 H   0  0  0  0  0  0  0  0  0  0  0  0
  144.2930  138.4978  152.3003 H   0  0  0  0  0  0  0  0  0  0  0  0
  1  2  1  0  0  0  0
  1 19  1  0  0  0  0
  1 20  1  0  0  0  0
  1 21  1  0  0  0  0
  2  7  1  0  0  0  0
  2  3  1  0  0  0  0
  2 22  1  0  0  0  0
  3  4  1  0  0  0  0
  3 23  1  0  0  0  0
  3 24  1  0  0  0  0
  4  5  1  0  0  0  0
  4 25  1  0  0  0  0
  4 26  1  0  0  0  0
  5  6  1  0  0  0  0
  5 27  1  0  0  0  0
  5 28  1  0  0  0  0
  6  7  1  0  0  0  0
  6 29  1  0  0  0  0
  6 30  1  0  0  0  0
  7  8  1  0  0  0  0
  7 31  1  0  0  0  0
  8  9  1  0  0  0  0
  9 10  1  0  0  0  0
  9 32  1  0  0  0  0
  9 33  1  0  0  0  0
 10 11  1  0  0  0  0
 10 34  1  0  0  0  0
 10 35  1  0  0  0  0
 11 12  1  0  0  0  0
 11 36  1  0  0  0  0
 11 44  1  0  0  0  0
 12 13  1  0  0  0  0
 12 37  1  0  0  0  0
 12 38  1  0  0  0  0
 13 14  1  0  0  0  0
 13 39  1  0  0  0  0
 13 40  1  0  0  0  0
 14 18  1  0  0  0  0
 14 15  1  0  0  0  0
 15 16  2  0  0  0  0
 15 41  1  0  0  0  0
 16 17  1  0  0  0  0
 16 42  1  0  0  0  0
 17 18  2  0  0  0  0
 17 43  1  0  0  0  0
M  CHG  1  11   1
M  END
> <s_m_source_file>
AV-unprocessed.smi

> <i_m_source_file_index>
3241

> <i_lp_mmshare_version>
43012

> <i_f3d_flags>
0

> <s_epik_input>
W0NIM11bQ0BASF0xW0NIMl1bQ0gyXVtDSDJdW0NIMl1bQ0BIXTFPW0NIMl1bQ0gyXVtOSF1bQ0gyXVtDSDJdbjJbY0hdW2NIXVtjSF1uMg==

> <s_epik_cmdline>
J2VwaWtfcHl0aG9uJywgJy1waCcsICc3LjAnLCAnLXRuJywgJzgnLCAnLW1hJywgJzIwMCcsICctbWV0YWxfYmluZGluZycsICctaW1hZScsICc8aW5maWxlLm1hZT4nLCAnLW9tYWUnLCAnPG91dGZpbGUubWFlPic=

> <r_lp_tautomer_probability>
1

> <r_epik_Ionization_Penalty>
0.00924946

> <r_epik_Ionization_Penalty_Charging>
0.00924645

> <r_epik_Ionization_Penalty_Neutral>
3.00629e-06

> <r_epik_State_Penalty>
0.0070118

> <r_epik_Charging_Adjusted_Penalty>
0.0162583

> <i_epik_Tot_Q>
1

> <i_epik_Tot_abs_Q>
1

> <r_epik_Metal_State_Penalty>
0.00702523

> <b_epik_Metal_Only>
0

> <s_lp_Force_Field>
OPLS_2005

> <r_lp_Energy>
14.0519

> <b_lp_Chiralities_Consistent>
1

> <s_lp_Variant>
AV-unprocessed.smi:3241-4

> <Gold.Version>
5.8.1

> <Gold.Id.Protein>
6NUR|6NUR_protein|mol2

> <Gold.PLP.Fitness>
41.4381

> <Gold.PLP.PLP>
-30.8831

> <Gold.PLP.part.hbond>
-2.0000

> <Gold.PLP.part.metal>
0.0000

> <Gold.PLP.part.buried>
-0.4011

> <Gold.PLP.part.nonpolar>
-28.9852

> <Gold.PLP.part.repulsive>
0.5555

> <Gold.PLP.ligand.clash>
0.0000

> <Gold.PLP.ligand.torsion>
0.7866

> <Gold.PLP.Chemscore.Hbond>
2.0000

> <Gold.PLP.Chemscore.CHOScore>
2.0000

> <Gold.PLP.Chemscore.Metal>
0.0000

> <Gold.Chemscore.Hbonds>
donor molecule, donor type, donor heavy atom, donor atom, acceptor molecule, acceptor atom, score
      L1  H    11    44       P1 10175  1.92
      L1  C    15    41       P1 10186  1.00
      L1  C    17    43       P1 10747  1.00

> <Gold.PLP.Chemscore.Internal.Correction>
0.1282

> <Gold.Rescore>
     Score         DG    S(hbond)    S(metal)    S(lipo)     H(rot)  DE(clash)    DE(int)     intcor
     13.12     -13.96       1.00        0.00      85.47       1.89       0.11       0.73       ----

> <Gold.Chemscore.Fitness>
13.1229

> <Gold.Chemscore.DG>
-13.9634

> <Gold.Chemscore.ZeroCoef>
-5.4800

> <Gold.Chemscore.Hbond>
0.9952

> <Gold.Chemscore.Metal>
0.0000

> <Gold.Chemscore.Lipo>
85.4667

> <Gold.Chemscore.Internal_Hbond>
0.0000

> <Gold.Chemscore.DEClash>
0.1108

> <Gold.Chemscore.DEInternal>
0.7297

> <Gold.Chemscore.Rot>
1.8906

> <Gold.Chemscore.Internal.Correction>
   9.000000E+99

> <Gold.Chemscore.Hbonds>
donor molecule, donor type, donor heavy atom, donor atom, acceptor molecule, acceptor atom, score
      L1  H    11    44       P1 10175  0.91

> <Gold.Chemscore.Hbond.Weighted>
-3.3239

> <Gold.Chemscore.Metal.Weighted>
-0.0000

> <Gold.Chemscore.Lipo.Weighted>
-9.9996

> <Gold.Chemscore.Internal_Hbond.Weighted>
0.0000

> <Gold.Chemscore.DEClash.Weighted>
0.1108

> <Gold.Chemscore.DEInternal.Weighted>
0.7297

> <Gold.Chemscore.Rot.Weighted>
4.8400

> <Gold.Chemscore.Internal.Correction.Weighted>
   9.000000E+99

> <Gold.Protein.RotatedTorsions>
[ 6907 6896 6895 6894 ] final  164.30 input  -60.11 | X-H torsion
[ 7974 7965 7964 7962 ] final  167.46 input  175.53 | X-H torsion
[ 8008 7997 7996 7995 ] final  -23.22 input   59.86 | X-H torsion
[ 10167 10162 10161 10158 ] final -108.24 input  -65.29 | X-H torsion
[ 10718 10713 10712 10709 ] final   -9.63 input   66.30 | X-H torsion
[ 10763 10752 10751 10750 ] final  -46.65 input  -60.55 | X-H torsion
[ 11005 11000 10999 10996 ] final   14.65 input  -57.11 | X-H torsion

> <Gold.Protein.ActiveResidues>
 VAL166  LYS551  ARG553  GLY616  TRP617  ASP618  TYR619  PRO620  LYS621  CYS622 
 ASP623  PHE694  ASN695  SER759  ASP760  ASP761  ALA762  ILE779  LEU786  VAL792 
 PHE793  MET794  SER795  GLU796  ALA797  LYS798  CYS799  TRP800  GLU811  SER814 

> <Gold.Protein.RotatedAtoms>
  151.9119  133.3563  159.3866 H   0  0  0  0  0  0  0  0  0  0  0  0  # atno 6907 bound_to 6896
  150.7056  134.4723  159.5440 H   0  0  0  0  0  0  0  0  0  0  0  0  # atno 6908 bound_to 6896
  152.2331  134.8303  160.0522 H   0  0  0  0  0  0  0  0  0  0  0  0  # atno 6909 bound_to 6896
  144.7424  139.8764  143.6393 H   0  0  0  0  0  0  0  0  0  0  0  0  # atno 7974 bound_to 7965
  154.4598  140.1986  156.0276 H   0  0  0  0  0  0  0  0  0  0  0  0  # atno 8008 bound_to 7997
  156.0818  140.3270  155.7675 H   0  0  0  0  0  0  0  0  0  0  0  0  # atno 8009 bound_to 7997
  155.5099  140.0561  157.2916 H   0  0  0  0  0  0  0  0  0  0  0  0  # atno 8010 bound_to 7997
  140.1683  143.4063  152.1373 H   0  0  0  0  0  0  0  0  0  0  0  0  # atno 10167 bound_to 10162
  156.6853  130.5049  149.5959 H   0  0  0  0  0  0  0  0  0  0  0  0  # atno 10718 bound_to 10713
  154.0485  135.6634  153.4797 H   0  0  0  0  0  0  0  0  0  0  0  0  # atno 10763 bound_to 10752
  153.0473  135.5106  154.7774 H   0  0  0  0  0  0  0  0  0  0  0  0  # atno 10764 bound_to 10752
  154.6772  135.3039  154.9628 H   0  0  0  0  0  0  0  0  0  0  0  0  # atno 10765 bound_to 10752
  140.4672  134.1068  155.7726 H   0  0  0  0  0  0  0  0  0  0  0  0  # atno 11005 bound_to 11000
  146.1243  139.4266  143.0208 LP  0  0  0  0  0  0  0  0  0  0  0  0  # atno 17320 bound_to 7965
  145.7258  141.0059  143.1378 LP  0  0  0  0  0  0  0  0  0  0  0  0  # atno 17321 bound_to 7965
  139.5349  144.7199  151.4927 LP  0  0  0  0  0  0  0  0  0  0  0  0  # atno 17342 bound_to 10162
  140.6598  143.8522  150.6875 LP  0  0  0  0  0  0  0  0  0  0  0  0  # atno 17343 bound_to 10162
  156.1837  130.6516  151.0982 LP  0  0  0  0  0  0  0  0  0  0  0  0  # atno 17370 bound_to 10713
  157.7029  131.0768  150.6763 LP  0  0  0  0  0  0  0  0  0  0  0  0  # atno 17371 bound_to 10713
  141.1594  133.8821  157.1889 LP  0  0  0  0  0  0  0  0  0  0  0  0  # atno 17394 bound_to 11000
  139.9908  135.0065  156.9970 LP  0  0  0  0  0  0  0  0  0  0  0  0  # atno 17395 bound_to 11000

$$$$
