AV-unprocessed.smi:1320|AV-procd|sdf|5460|dock4
  -GOLD-   22720 5 33D 1   1.00000     0.00000
 Structure written by MMmdl.
 36 37  0  0  0  0  0  0  0  0  1 V2000
  151.4656  141.1450  156.7594 O   0  0  0  0  0  0  0  0  0  0  0  0
  150.8157  142.1540  156.4919 C   0  0  0  0  0  0  0  0  0  0  0  0
  149.8136  142.1773  155.5957 N   0  0  0  0  0  0  0  0  0  0  0  0
  149.3786  141.0483  154.7772 C   0  0  0  0  0  0  0  0  0  0  0  0
  147.9495  140.5831  155.1211 C   0  0  0  0  0  0  0  0  0  0  0  0
  146.9032  141.6816  155.0266 C   0  0  0  0  0  0  0  0  0  0  0  0
  146.7061  142.3805  153.8169 C   0  0  0  0  0  0  0  0  0  0  0  0
  145.7493  143.4135  153.7869 C   0  0  0  0  0  0  0  0  0  0  0  0
  145.0303  143.7066  154.9618 C   0  0  0  0  0  0  0  0  0  0  0  0
  145.3009  142.9501  156.1192 C   0  0  0  0  0  0  0  0  0  0  0  0
  146.2152  141.9573  156.1586 N   0  0  0  0  0  0  0  0  0  0  0  0
  151.0648  143.3346  157.0860 N   0  0  0  0  0  0  0  0  0  0  0  0
  152.0798  143.6404  158.0967 C   0  0  0  0  0  0  0  0  0  0  0  0
  151.9423  142.6978  159.3079 C   0  0  0  0  0  0  0  0  0  0  0  0
  151.9954  143.5907  160.5484 C   0  0  0  0  0  0  0  0  0  0  0  0
  151.4064  144.9176  160.0820 C   0  0  0  0  0  0  0  0  0  0  0  0
  151.9187  145.0717  158.6494 C   0  0  0  0  0  0  0  0  0  0  0  0
  149.3368  143.0550  155.4471 H   0  0  0  0  0  0  0  0  0  0  0  0
  149.4415  141.2939  153.7159 H   0  0  0  0  0  0  0  0  0  0  0  0
  150.0764  140.2264  154.9373 H   0  0  0  0  0  0  0  0  0  0  0  0
  147.6628  139.7668  154.4571 H   0  0  0  0  0  0  0  0  0  0  0  0
  147.9348  140.1666  156.1294 H   0  0  0  0  0  0  0  0  0  0  0  0
  147.2810  142.1383  152.9351 H   0  0  0  0  0  0  0  0  0  0  0  0
  145.5723  143.9729  152.8802 H   0  0  0  0  0  0  0  0  0  0  0  0
  144.2904  144.4931  154.9763 H   0  0  0  0  0  0  0  0  0  0  0  0
  144.7699  143.1480  157.0385 H   0  0  0  0  0  0  0  0  0  0  0  0
  150.4616  144.1018  156.8270 H   0  0  0  0  0  0  0  0  0  0  0  0
  153.0779  143.5218  157.6711 H   0  0  0  0  0  0  0  0  0  0  0  0
  150.9815  142.1804  159.2864 H   0  0  0  0  0  0  0  0  0  0  0  0
  152.7181  141.9318  159.3240 H   0  0  0  0  0  0  0  0  0  0  0  0
  151.4572  143.1652  161.3958 H   0  0  0  0  0  0  0  0  0  0  0  0
  153.0329  143.7372  160.8520 H   0  0  0  0  0  0  0  0  0  0  0  0
  150.3173  144.8545  160.0786 H   0  0  0  0  0  0  0  0  0  0  0  0
  151.6907  145.7528  160.7227 H   0  0  0  0  0  0  0  0  0  0  0  0
  152.8939  145.5603  158.6667 H   0  0  0  0  0  0  0  0  0  0  0  0
  151.2588  145.6994  158.0487 H   0  0  0  0  0  0  0  0  0  0  0  0
  1  2  2  0  0  0  0
  2  3  1  0  0  0  0
  2 12  1  0  0  0  0
  3  4  1  0  0  0  0
  3 18  1  0  0  0  0
  4  5  1  0  0  0  0
  4 19  1  0  0  0  0
  4 20  1  0  0  0  0
  5  6  1  0  0  0  0
  5 21  1  0  0  0  0
  5 22  1  0  0  0  0
  6 11  1  0  0  0  0
  6  7  2  0  0  0  0
  7  8  1  0  0  0  0
  7 23  1  0  0  0  0
  8  9  2  0  0  0  0
  8 24  1  0  0  0  0
  9 10  1  0  0  0  0
  9 25  1  0  0  0  0
 10 11  2  0  0  0  0
 10 26  1  0  0  0  0
 12 13  1  0  0  0  0
 12 27  1  0  0  0  0
 13 17  1  0  0  0  0
 13 14  1  0  0  0  0
 13 28  1  0  0  0  0
 14 15  1  0  0  0  0
 14 29  1  0  0  0  0
 14 30  1  0  0  0  0
 15 16  1  0  0  0  0
 15 31  1  0  0  0  0
 15 32  1  0  0  0  0
 16 17  1  0  0  0  0
 16 33  1  0  0  0  0
 16 34  1  0  0  0  0
 17 35  1  0  0  0  0
 17 36  1  0  0  0  0
M  END
> <s_m_source_file>
AV-unprocessed.smi

> <i_m_source_file_index>
1320

> <i_lp_mmshare_version>
43012

> <i_f3d_flags>
0

> <s_epik_input>
W0NIMl0xW0NIMl1bQ0gyXVtDSDJdW0NIXTFbTkhdQyg9TylbTkhdW0NIMl1bQ0gyXWMyW2NIXVtjSF1bY0hdW2NIXW4y

> <s_epik_cmdline>
J2VwaWtfcHl0aG9uJywgJy1waCcsICc3LjAnLCAnLXRuJywgJzgnLCAnLW1hJywgJzIwMCcsICctbWV0YWxfYmluZGluZycsICctaW1hZScsICc8aW5maWxlLm1hZT4nLCAnLW9tYWUnLCAnPG91dGZpbGUubWFlPic=

> <r_epik_Ionization_Penalty>
0.0441051

> <r_epik_Ionization_Penalty_Charging>
0

> <r_epik_Ionization_Penalty_Neutral>
0.0441051

> <r_epik_State_Penalty>
0.0373009

> <r_epik_Charging_Adjusted_Penalty>
0.0373009

> <i_epik_Tot_Q>
0

> <i_epik_Tot_abs_Q>
0

> <r_epik_Metal_State_Penalty>
0.0347078

> <b_epik_Metal_Only>
0

> <s_lp_Force_Field>
OPLS_2005

> <r_lp_Energy>
26.6462

> <b_lp_Chiralities_Consistent>
1

> <s_lp_Variant>
AV-unprocessed.smi:1320-1

> <Gold.Version>
5.8.1

> <Gold.Id.Protein>
6NUR|6NUR_protein|mol2

> <Gold.PLP.Fitness>
46.5331

> <Gold.PLP.PLP>
-40.7589

> <Gold.PLP.part.hbond>
-2.0000

> <Gold.PLP.part.metal>
0.0000

> <Gold.PLP.part.buried>
-7.0330

> <Gold.PLP.part.nonpolar>
-32.6002

> <Gold.PLP.part.repulsive>
0.3104

> <Gold.PLP.ligand.clash>
0.0000

> <Gold.PLP.ligand.torsion>
0.0598

> <Gold.PLP.Chemscore.Hbond>
1.9600

> <Gold.PLP.Chemscore.CHOScore>
0.0000

> <Gold.PLP.Chemscore.Metal>
0.0000

> <Gold.Chemscore.Hbonds>
donor molecule, donor type, donor heavy atom, donor atom, acceptor molecule, acceptor atom, score
      L1  H     3    18       P1  8028  1.00
      L1  H    12    27       P1  8028  0.95

> <Gold.PLP.Chemscore.Internal.Correction>
0.0138

> <Gold.Rescore>
     Score         DG    S(hbond)    S(metal)    S(lipo)     H(rot)  DE(clash)    DE(int)     intcor
     19.52     -19.61       1.92        0.00      98.92       1.51       0.07       0.02       ----

> <Gold.Chemscore.Fitness>
19.5173

> <Gold.Chemscore.DG>
-19.6064

> <Gold.Chemscore.ZeroCoef>
-5.4800

> <Gold.Chemscore.Hbond>
1.9186

> <Gold.Chemscore.Metal>
0.0000

> <Gold.Chemscore.Lipo>
98.9200

> <Gold.Chemscore.Internal_Hbond>
0.0000

> <Gold.Chemscore.DEClash>
0.0678

> <Gold.Chemscore.DEInternal>
0.0213

> <Gold.Chemscore.Rot>
1.5060

> <Gold.Chemscore.Internal.Correction>
   9.000000E+99

> <Gold.Chemscore.Hbonds>
donor molecule, donor type, donor heavy atom, donor atom, acceptor molecule, acceptor atom, score
      L1  H     3    18       P1  8028  1.00
      L1  H    12    27       P1  8028  0.85

> <Gold.Chemscore.Hbond.Weighted>
-6.4080

> <Gold.Chemscore.Metal.Weighted>
-0.0000

> <Gold.Chemscore.Lipo.Weighted>
-11.5736

> <Gold.Chemscore.Internal_Hbond.Weighted>
0.0000

> <Gold.Chemscore.DEClash.Weighted>
0.0678

> <Gold.Chemscore.DEInternal.Weighted>
0.0213

> <Gold.Chemscore.Rot.Weighted>
3.8553

> <Gold.Chemscore.Internal.Correction.Weighted>
   9.000000E+99

> <Gold.Protein.RotatedTorsions>
[ 6907 6896 6895 6894 ] final -143.70 input  -60.11 | X-H torsion
[ 7974 7965 7964 7962 ] final  161.67 input  175.53 | X-H torsion
[ 8008 7997 7996 7995 ] final  135.38 input   59.86 | X-H torsion
[ 10167 10162 10161 10158 ] final   28.98 input  -65.29 | X-H torsion
[ 10718 10713 10712 10709 ] final -154.88 input   66.30 | X-H torsion
[ 10763 10752 10751 10750 ] final  170.99 input  -60.55 | X-H torsion
[ 11005 11000 10999 10996 ] final   99.29 input  -57.11 | X-H torsion

> <Gold.Protein.ActiveResidues>
 VAL166  LYS551  ARG553  GLY616  TRP617  ASP618  TYR619  PRO620  LYS621  CYS622 
 ASP623  PHE694  ASN695  SER759  ASP760  ASP761  ALA762  ILE779  LEU786  VAL792 
 PHE793  MET794  SER795  GLU796  ALA797  LYS798  CYS799  TRP800  GLU811  SER814 

> <Gold.Protein.RotatedAtoms>
  151.1040  133.5222  159.2608 H   0  0  0  0  0  0  0  0  0  0  0  0  # atno 6907 bound_to 6896
  151.2041  135.0454  159.8894 H   0  0  0  0  0  0  0  0  0  0  0  0  # atno 6908 bound_to 6896
  152.5445  134.0865  159.8311 H   0  0  0  0  0  0  0  0  0  0  0  0  # atno 6909 bound_to 6896
  144.7674  139.7930  143.6310 H   0  0  0  0  0  0  0  0  0  0  0  0  # atno 7974 bound_to 7965
  156.3003  140.2472  156.3571 H   0  0  0  0  0  0  0  0  0  0  0  0  # atno 8008 bound_to 7997
  154.8911  140.0409  157.1858 H   0  0  0  0  0  0  0  0  0  0  0  0  # atno 8009 bound_to 7997
  154.8596  140.2918  155.5551 H   0  0  0  0  0  0  0  0  0  0  0  0  # atno 8010 bound_to 7997
  140.4805  144.0623  150.6264 H   0  0  0  0  0  0  0  0  0  0  0  0  # atno 10167 bound_to 10162
  156.5052  130.8410  151.2625 H   0  0  0  0  0  0  0  0  0  0  0  0  # atno 10718 bound_to 10713
  154.4056  135.2755  155.2069 H   0  0  0  0  0  0  0  0  0  0  0  0  # atno 10763 bound_to 10752
  154.4077  135.6030  153.5937 H   0  0  0  0  0  0  0  0  0  0  0  0  # atno 10764 bound_to 10752
  152.9831  135.5942  154.4330 H   0  0  0  0  0  0  0  0  0  0  0  0  # atno 10765 bound_to 10752
  139.8771  134.9089  156.4584 H   0  0  0  0  0  0  0  0  0  0  0  0  # atno 11005 bound_to 11000
  146.1794  139.4979  142.9876 LP  0  0  0  0  0  0  0  0  0  0  0  0  # atno 17320 bound_to 7965
  145.6427  141.0281  143.1803 LP  0  0  0  0  0  0  0  0  0  0  0  0  # atno 17321 bound_to 7965
  140.3863  143.2776  152.0112 LP  0  0  0  0  0  0  0  0  0  0  0  0  # atno 17342 bound_to 10162
  139.4833  144.6113  151.7427 LP  0  0  0  0  0  0  0  0  0  0  0  0  # atno 17343 bound_to 10162
  157.7458  130.9968  150.2793 LP  0  0  0  0  0  0  0  0  0  0  0  0  # atno 17370 bound_to 10713
  156.3293  130.3798  149.7505 LP  0  0  0  0  0  0  0  0  0  0  0  0  # atno 17371 bound_to 10713
  140.8881  133.7868  155.9541 LP  0  0  0  0  0  0  0  0  0  0  0  0  # atno 17394 bound_to 11000
  140.8782  134.2643  157.5157 LP  0  0  0  0  0  0  0  0  0  0  0  0  # atno 17395 bound_to 11000

$$$$
