AV-unprocessed.smi:1426|AV-procd|sdf|5808|dock3
  -GOLD-   22720 5463D 1   1.00000     0.00000
 Structure written by MMmdl.
 44 46  0  0  0  0  0  0  0  0  2 V2000
  152.3917  139.6004  156.9042 O   0  0  0  0  0  0  0  0  0  0  0  0
  151.6638  140.4129  157.4744 C   0  0  0  0  0  0  0  0  0  0  0  0
  150.5404  140.9080  156.9366 N   0  0  0  0  0  0  0  0  0  0  0  0
  150.0249  140.5669  155.6148 C   0  0  0  0  0  0  0  0  0  0  0  0
  148.6104  141.1320  155.3842 C   0  0  1  0  0  0  0  0  0  0  0  0
  148.1117  140.9804  153.9623 C   0  0  0  0  0  0  0  0  0  0  0  0
  146.6078  141.1661  154.1375 C   0  0  0  0  0  0  0  0  0  0  0  0
  146.3015  140.6432  155.4269 O   0  0  0  0  0  0  0  0  0  0  0  0
  147.5010  140.4230  156.1639 C   0  0  0  0  0  0  0  0  0  0  0  0
  151.8932  140.9349  158.6909 N   0  0  0  0  0  0  0  0  0  0  0  0
  152.9856  140.6721  159.5659 C   0  0  0  0  0  0  0  0  0  0  0  0
  153.5065  139.3612  159.7184 C   0  0  0  0  0  0  0  0  0  0  0  0
  154.5989  139.1335  160.5763 C   0  0  0  0  0  0  0  0  0  0  0  0
  155.1533  140.2200  161.2738 C   0  0  0  0  0  0  0  0  0  0  0  0
  154.6230  141.4512  161.1237 N   0  3  0  0  0  0  0  0  0  0  0  0
  153.5629  141.7319  160.3247 C   0  0  0  0  0  0  0  0  0  0  0  0
  153.1080  143.0696  160.2796 N   0  0  0  0  0  0  0  0  0  0  0  0
  152.0378  143.5158  161.1638 C   0  0  0  0  0  0  0  0  0  0  0  0
  151.5859  144.8570  160.5929 C   0  0  0  0  0  0  0  0  0  0  0  0
  151.7474  144.6430  159.0911 C   0  0  0  0  0  0  0  0  0  0  0  0
  152.9743  143.7308  158.9853 C   0  0  0  0  0  0  0  0  0  0  0  0
  150.0036  141.5725  157.4746 H   0  0  0  0  0  0  0  0  0  0  0  0
  150.7069  140.9290  154.8435 H   0  0  0  0  0  0  0  0  0  0  0  0
  150.0134  139.4802  155.5279 H   0  0  0  0  0  0  0  0  0  0  0  0
  148.5935  142.1932  155.6393 H   0  0  0  0  0  0  0  0  0  0  0  0
  148.5508  141.7032  153.2739 H   0  0  0  0  0  0  0  0  0  0  0  0
  148.3228  139.9780  153.5867 H   0  0  0  0  0  0  0  0  0  0  0  0
  146.3519  142.2262  154.1239 H   0  0  0  0  0  0  0  0  0  0  0  0
  146.0320  140.6686  153.3568 H   0  0  0  0  0  0  0  0  0  0  0  0
  147.6834  139.3483  156.2061 H   0  0  0  0  0  0  0  0  0  0  0  0
  147.4113  140.7900  157.1868 H   0  0  0  0  0  0  0  0  0  0  0  0
  151.2667  141.6703  158.9834 H   0  0  0  0  0  0  0  0  0  0  0  0
  153.0792  138.5206  159.1928 H   0  0  0  0  0  0  0  0  0  0  0  0
  155.0049  138.1396  160.6955 H   0  0  0  0  0  0  0  0  0  0  0  0
  155.9926  140.1420  161.9498 H   0  0  0  0  0  0  0  0  0  0  0  0
  151.2055  142.8110  161.1430 H   0  0  0  0  0  0  0  0  0  0  0  0
  152.3844  143.6103  162.1935 H   0  0  0  0  0  0  0  0  0  0  0  0
  150.5680  145.1214  160.8814 H   0  0  0  0  0  0  0  0  0  0  0  0
  152.2534  145.6514  160.9299 H   0  0  0  0  0  0  0  0  0  0  0  0
  150.8701  144.1257  158.7001 H   0  0  0  0  0  0  0  0  0  0  0  0
  151.8622  145.5751  158.5367 H   0  0  0  0  0  0  0  0  0  0  0  0
  153.8676  144.3291  158.8037 H   0  0  0  0  0  0  0  0  0  0  0  0
  152.8683  143.0175  158.1668 H   0  0  0  0  0  0  0  0  0  0  0  0
  155.0414  142.2171  161.6516 H   0  0  0  0  0  0  0  0  0  0  0  0
  1  2  2  0  0  0  0
  2  3  1  0  0  0  0
  2 10  1  0  0  0  0
  3  4  1  0  0  0  0
  3 22  1  0  0  0  0
  4  5  1  0  0  0  0
  4 23  1  0  0  0  0
  4 24  1  0  0  0  0
  5  9  1  0  0  0  0
  5  6  1  0  0  0  0
  5 25  1  0  0  0  0
  6  7  1  0  0  0  0
  6 26  1  0  0  0  0
  6 27  1  0  0  0  0
  7  8  1  0  0  0  0
  7 28  1  0  0  0  0
  7 29  1  0  0  0  0
  8  9  1  0  0  0  0
  9 30  1  0  0  0  0
  9 31  1  0  0  0  0
 10 11  1  0  0  0  0
 10 32  1  0  0  0  0
 11 16  1  0  0  0  0
 11 12  2  0  0  0  0
 12 13  1  0  0  0  0
 12 33  1  0  0  0  0
 13 14  2  0  0  0  0
 13 34  1  0  0  0  0
 14 15  1  0  0  0  0
 14 35  1  0  0  0  0
 15 16  2  0  0  0  0
 15 44  1  0  0  0  0
 16 17  1  0  0  0  0
 17 21  1  0  0  0  0
 17 18  1  0  0  0  0
 18 19  1  0  0  0  0
 18 36  1  0  0  0  0
 18 37  1  0  0  0  0
 19 20  1  0  0  0  0
 19 38  1  0  0  0  0
 19 39  1  0  0  0  0
 20 21  1  0  0  0  0
 20 40  1  0  0  0  0
 20 41  1  0  0  0  0
 21 42  1  0  0  0  0
 21 43  1  0  0  0  0
M  CHG  1  15   1
M  END
> <s_m_source_file>
AV-unprocessed.smi

> <i_m_source_file_index>
1426

> <i_lp_mmshare_version>
43012

> <i_f3d_flags>
0

> <s_epik_input>
W0NIMl0xT1tDSDJdW0NIMl1bQ0BIXTFbQ0gyXVtOSF1DKD1PKVtOSF1jMltjSF1bY0hdW2NIXW5jMk4zW0NIMl1bQ0gyXVtDSDJdW0NIMl0z

> <s_epik_cmdline>
J2VwaWtfcHl0aG9uJywgJy1waCcsICc3LjAnLCAnLXRuJywgJzgnLCAnLW1hJywgJzIwMCcsICctbWV0YWxfYmluZGluZycsICctaW1hZScsICc8aW5maWxlLm1hZT4nLCAnLW9tYWUnLCAnPG91dGZpbGUubWFlPic=

> <r_lp_tautomer_probability>
0.999994

> <r_epik_Ionization_Penalty>
1.10677

> <r_epik_Ionization_Penalty_Charging>
1.10675

> <r_epik_Ionization_Penalty_Neutral>
2.02663e-05

> <r_epik_State_Penalty>
1.16438

> <r_epik_Charging_Adjusted_Penalty>
2.27113

> <i_epik_Tot_Q>
1

> <i_epik_Tot_abs_Q>
1

> <r_epik_Metal_State_Penalty>
1.25078

> <b_epik_Metal_Only>
0

> <s_lp_Force_Field>
OPLS_2005

> <r_lp_Energy>
54.362

> <b_lp_Chiralities_Consistent>
1

> <s_lp_Variant>
AV-unprocessed.smi:1426-4

> <Gold.Version>
5.8.1

> <Gold.Id.Protein>
6NUR|6NUR_protein|mol2

> <Gold.PLP.Fitness>
45.6735

> <Gold.PLP.PLP>
-43.9299

> <Gold.PLP.part.hbond>
-2.0000

> <Gold.PLP.part.metal>
0.0000

> <Gold.PLP.part.buried>
-4.3587

> <Gold.PLP.part.nonpolar>
-37.1564

> <Gold.PLP.part.repulsive>
0.2667

> <Gold.PLP.ligand.clash>
0.0000

> <Gold.PLP.ligand.torsion>
0.8127

> <Gold.PLP.Chemscore.Hbond>
0.9913

> <Gold.PLP.Chemscore.CHOScore>
0.0000

> <Gold.PLP.Chemscore.Metal>
0.0000

> <Gold.Chemscore.Hbonds>
donor molecule, donor type, donor heavy atom, donor atom, acceptor molecule, acceptor atom, score
      P1  H  7997  8010       L1     1  0.94

> <Gold.PLP.Chemscore.Internal.Correction>
0.3953

> <Gold.Rescore>
     Score         DG    S(hbond)    S(metal)    S(lipo)     H(rot)  DE(clash)    DE(int)     intcor
     16.11     -17.81       0.99        0.00     107.63       1.40       0.10       1.60       ----

> <Gold.Chemscore.Fitness>
16.1089

> <Gold.Chemscore.DG>
-17.8051

> <Gold.Chemscore.ZeroCoef>
-5.4800

> <Gold.Chemscore.Hbond>
0.9946

> <Gold.Chemscore.Metal>
0.0000

> <Gold.Chemscore.Lipo>
107.6321

> <Gold.Chemscore.Internal_Hbond>
0.0000

> <Gold.Chemscore.DEClash>
0.1002

> <Gold.Chemscore.DEInternal>
1.5960

> <Gold.Chemscore.Rot>
1.4023

> <Gold.Chemscore.Internal.Correction>
   9.000000E+99

> <Gold.Chemscore.Hbonds>
donor molecule, donor type, donor heavy atom, donor atom, acceptor molecule, acceptor atom, score
      P1  H  7997  8010       L1     1  0.87

> <Gold.Chemscore.Hbond.Weighted>
-3.3219

> <Gold.Chemscore.Metal.Weighted>
-0.0000

> <Gold.Chemscore.Lipo.Weighted>
-12.5930

> <Gold.Chemscore.Internal_Hbond.Weighted>
0.0000

> <Gold.Chemscore.DEClash.Weighted>
0.1002

> <Gold.Chemscore.DEInternal.Weighted>
1.5960

> <Gold.Chemscore.Rot.Weighted>
3.5898

> <Gold.Chemscore.Internal.Correction.Weighted>
   9.000000E+99

> <Gold.Protein.RotatedTorsions>
[ 6907 6896 6895 6894 ] final  164.69 input  -60.11 | X-H torsion
[ 7974 7965 7964 7962 ] final   93.28 input  175.53 | X-H torsion
[ 8008 7997 7996 7995 ] final   63.11 input   59.86 | X-H torsion
[ 10167 10162 10161 10158 ] final   32.94 input  -65.29 | X-H torsion
[ 10718 10713 10712 10709 ] final -114.26 input   66.30 | X-H torsion
[ 10763 10752 10751 10750 ] final  -17.62 input  -60.55 | X-H torsion
[ 11005 11000 10999 10996 ] final -154.09 input  -57.11 | X-H torsion

> <Gold.Protein.ActiveResidues>
 VAL166  LYS551  ARG553  GLY616  TRP617  ASP618  TYR619  PRO620  LYS621  CYS622 
 ASP623  PHE694  ASN695  SER759  ASP760  ASP761  ALA762  ILE779  LEU786  VAL792 
 PHE793  MET794  SER795  GLU796  ALA797  LYS798  CYS799  TRP800  GLU811  SER814 

> <Gold.Protein.RotatedAtoms>
  151.9059  133.3549  159.3846 H   0  0  0  0  0  0  0  0  0  0  0  0  # atno 6907 bound_to 6896
  150.7069  134.4781  159.5466 H   0  0  0  0  0  0  0  0  0  0  0  0  # atno 6908 bound_to 6896
  152.2378  134.8259  160.0515 H   0  0  0  0  0  0  0  0  0  0  0  0  # atno 6909 bound_to 6896
  145.4811  139.2278  143.2882 H   0  0  0  0  0  0  0  0  0  0  0  0  # atno 7974 bound_to 7965
  155.6251  140.3496  155.4664 H   0  0  0  0  0  0  0  0  0  0  0  0  # atno 8008 bound_to 7997
  156.0048  140.1221  157.0535 H   0  0  0  0  0  0  0  0  0  0  0  0  # atno 8009 bound_to 7997
  154.4261  140.1093  156.5734 H   0  0  0  0  0  0  0  0  0  0  0  0  # atno 8010 bound_to 7997
  140.4452  144.1129  150.6181 H   0  0  0  0  0  0  0  0  0  0  0  0  # atno 10167 bound_to 10162
  156.0819  130.6017  150.8751 H   0  0  0  0  0  0  0  0  0  0  0  0  # atno 10718 bound_to 10713
  153.5767  135.7006  153.5481 H   0  0  0  0  0  0  0  0  0  0  0  0  # atno 10763 bound_to 10752
  153.3297  135.4051  155.1485 H   0  0  0  0  0  0  0  0  0  0  0  0  # atno 10764 bound_to 10752
  154.8624  135.3716  154.5292 H   0  0  0  0  0  0  0  0  0  0  0  0  # atno 10765 bound_to 10752
  140.7011  134.3936  157.5209 H   0  0  0  0  0  0  0  0  0  0  0  0  # atno 11005 bound_to 11000
  146.2340  140.5597  142.8963 LP  0  0  0  0  0  0  0  0  0  0  0  0  # atno 17320 bound_to 7965
  144.7888  140.5991  143.6555 LP  0  0  0  0  0  0  0  0  0  0  0  0  # atno 17321 bound_to 7965
  140.4271  143.2585  151.9642 LP  0  0  0  0  0  0  0  0  0  0  0  0  # atno 17342 bound_to 10162
  139.4792  144.5778  151.7983 LP  0  0  0  0  0  0  0  0  0  0  0  0  # atno 17343 bound_to 10162
  157.5938  131.0943  150.9074 LP  0  0  0  0  0  0  0  0  0  0  0  0  # atno 17370 bound_to 10713
  156.9245  130.5327  149.5279 LP  0  0  0  0  0  0  0  0  0  0  0  0  # atno 17371 bound_to 10713
  139.8896  134.8825  156.2410 LP  0  0  0  0  0  0  0  0  0  0  0  0  # atno 17394 bound_to 11000
  141.0163  133.7067  156.1194 LP  0  0  0  0  0  0  0  0  0  0  0  0  # atno 17395 bound_to 11000

$$$$
