AV-unprocessed.smi:715|AV-procd|sdf|3484|dock1
  -GOLD-   22720 0473D 1   1.00000     0.00000
 Structure written by MMmdl.
 39 40  0  0  0  0  0  0  0  0  1 V2000
  147.9512  140.9976  153.8719 C   0  0  0  0  0  0  0  0  0  0  0  0
  149.1975  140.4893  154.4038 N   0  0  0  0  0  0  0  0  0  0  0  0
  149.8665  139.3315  154.0708 C   0  0  0  0  0  0  0  0  0  0  0  0
  150.9966  139.2736  154.8374 C   0  0  0  0  0  0  0  0  0  0  0  0
  152.0657  138.2128  154.8460 C   0  0  2  0  0  0  0  0  0  0  0  0
  151.7143  137.1319  154.0054 O   0  0  0  0  0  0  0  0  0  0  0  0
  152.2770  137.6698  156.2700 C   0  0  0  0  0  0  0  0  0  0  0  0
  152.8853  138.6768  157.1302 N   0  0  0  0  0  0  0  0  0  0  0  0
  152.3053  139.1932  158.2228 C   0  0  0  0  0  0  0  0  0  0  0  0
  151.1839  138.8640  158.6098 O   0  0  0  0  0  0  0  0  0  0  0  0
  153.1180  140.2360  158.9979 C   0  0  0  0  0  0  0  0  0  0  0  0
  152.3225  141.5178  159.3225 C   0  0  0  0  0  0  0  0  0  0  0  0
  151.8940  142.3362  158.0988 C   0  0  0  0  0  0  0  0  0  0  0  0
  151.6077  143.7423  158.6381 C   0  0  0  0  0  0  0  0  0  0  0  0
  152.3787  143.8622  159.9620 C   0  0  0  0  0  0  0  0  0  0  0  0
  153.1136  142.5311  160.1530 C   0  0  0  0  0  0  0  0  0  0  0  0
  150.9256  140.4659  155.6157 C   0  0  0  0  0  0  0  0  0  0  0  0
  149.8478  141.1881  155.3562 N   0  0  0  0  0  0  0  0  0  0  0  0
  147.6191  140.3775  153.0389 H   0  0  0  0  0  0  0  0  0  0  0  0
  148.0886  142.0203  153.5187 H   0  0  0  0  0  0  0  0  0  0  0  0
  147.1875  140.9861  154.6501 H   0  0  0  0  0  0  0  0  0  0  0  0
  149.4886  138.6507  153.3222 H   0  0  0  0  0  0  0  0  0  0  0  0
  153.0041  138.6285  154.4761 H   0  0  0  0  0  0  0  0  0  0  0  0
  151.6213  137.4561  153.1226 H   0  0  0  0  0  0  0  0  0  0  0  0
  151.3092  137.4036  156.6993 H   0  0  0  0  0  0  0  0  0  0  0  0
  152.8800  136.7601  156.2600 H   0  0  0  0  0  0  0  0  0  0  0  0
  153.8129  138.9908  156.8835 H   0  0  0  0  0  0  0  0  0  0  0  0
  153.4582  139.7730  159.9246 H   0  0  0  0  0  0  0  0  0  0  0  0
  154.0167  140.4926  158.4346 H   0  0  0  0  0  0  0  0  0  0  0  0
  151.4270  141.2537  159.8884 H   0  0  0  0  0  0  0  0  0  0  0  0
  152.7132  142.3842  157.3797 H   0  0  0  0  0  0  0  0  0  0  0  0
  151.0317  141.9072  157.5873 H   0  0  0  0  0  0  0  0  0  0  0  0
  151.9048  144.5093  157.9219 H   0  0  0  0  0  0  0  0  0  0  0  0
  150.5395  143.8639  158.8217 H   0  0  0  0  0  0  0  0  0  0  0  0
  153.0726  144.7035  159.9573 H   0  0  0  0  0  0  0  0  0  0  0  0
  151.6775  144.0233  160.7819 H   0  0  0  0  0  0  0  0  0  0  0  0
  153.1877  142.2442  161.2025 H   0  0  0  0  0  0  0  0  0  0  0  0
  154.1288  142.6198  159.7633 H   0  0  0  0  0  0  0  0  0  0  0  0
  151.6235  140.8251  156.3576 H   0  0  0  0  0  0  0  0  0  0  0  0
  1  2  1  0  0  0  0
  1 19  1  0  0  0  0
  1 20  1  0  0  0  0
  1 21  1  0  0  0  0
  2 18  1  0  0  0  0
  2  3  1  0  0  0  0
  3  4  2  0  0  0  0
  3 22  1  0  0  0  0
  4  5  1  0  0  0  0
  4 17  1  0  0  0  0
  5  6  1  0  0  0  0
  5  7  1  0  0  0  0
  5 23  1  0  0  0  0
  6 24  1  0  0  0  0
  7  8  1  0  0  0  0
  7 25  1  0  0  0  0
  7 26  1  0  0  0  0
  8  9  1  0  0  0  0
  8 27  1  0  0  0  0
  9 10  2  0  0  0  0
  9 11  1  0  0  0  0
 11 12  1  0  0  0  0
 11 28  1  0  0  0  0
 11 29  1  0  0  0  0
 12 16  1  0  0  0  0
 12 13  1  0  0  0  0
 12 30  1  0  0  0  0
 13 14  1  0  0  0  0
 13 31  1  0  0  0  0
 13 32  1  0  0  0  0
 14 15  1  0  0  0  0
 14 33  1  0  0  0  0
 14 34  1  0  0  0  0
 15 16  1  0  0  0  0
 15 35  1  0  0  0  0
 15 36  1  0  0  0  0
 16 37  1  0  0  0  0
 16 38  1  0  0  0  0
 17 18  2  0  0  0  0
 17 39  1  0  0  0  0
M  END
> <s_m_source_file>
AV-unprocessed.smi

> <i_m_source_file_index>
715

> <i_lp_mmshare_version>
43012

> <i_f3d_flags>
0

> <s_epik_input>
W0NIM11uMVtjSF1jKFtjSF1uMSlbQ0BIXShbT0hdKVtDSDJdW05IXUMoPU8pW0NIMl1bQ0hdMltDSDJdW0NIMl1bQ0gyXVtDSDJdMg==

> <s_epik_cmdline>
J2VwaWtfcHl0aG9uJywgJy1waCcsICc3LjAnLCAnLXRuJywgJzgnLCAnLW1hJywgJzIwMCcsICctbWV0YWxfYmluZGluZycsICctaW1hZScsICc8aW5maWxlLm1hZT4nLCAnLW9tYWUnLCAnPG91dGZpbGUubWFlPic=

> <r_lp_tautomer_probability>
1

> <r_epik_Ionization_Penalty>
4.45533e-05

> <r_epik_Ionization_Penalty_Charging>
0

> <r_epik_Ionization_Penalty_Neutral>
4.45533e-05

> <r_epik_State_Penalty>
-0

> <r_epik_Charging_Adjusted_Penalty>
0

> <i_epik_Tot_Q>
0

> <i_epik_Tot_abs_Q>
0

> <r_epik_Metal_State_Penalty>
-0

> <b_epik_Metal_Only>
0

> <s_lp_Force_Field>
OPLS_2005

> <r_lp_Energy>
19.3798

> <b_lp_Chiralities_Consistent>
1

> <s_lp_Variant>
AV-unprocessed.smi:715-1

> <Gold.Version>
5.8.1

> <Gold.Id.Protein>
6NUR|6NUR_protein|mol2

> <Gold.PLP.Fitness>
44.1253

> <Gold.PLP.PLP>
-38.8815

> <Gold.PLP.part.hbond>
-2.1508

> <Gold.PLP.part.metal>
0.0000

> <Gold.PLP.part.buried>
-1.8387

> <Gold.PLP.part.nonpolar>
-34.2086

> <Gold.PLP.part.repulsive>
0.2226

> <Gold.PLP.ligand.clash>
0.0000

> <Gold.PLP.ligand.torsion>
0.2222

> <Gold.PLP.Chemscore.Hbond>
1.2176

> <Gold.PLP.Chemscore.CHOScore>
0.6555

> <Gold.PLP.Chemscore.Metal>
0.0000

> <Gold.Chemscore.Hbonds>
donor molecule, donor type, donor heavy atom, donor atom, acceptor molecule, acceptor atom, score
      L1  H     6    24       P1  7949  0.18
      P1  H 10752 10763       L1     6  1.00
      L1  C     3    22       P1  7948  0.23
      L1  C     3    22       P1  7957  0.44

> <Gold.PLP.Chemscore.Internal.Correction>
0.0690

> <Gold.Rescore>
     Score         DG    S(hbond)    S(metal)    S(lipo)     H(rot)  DE(clash)    DE(int)     intcor
     14.93     -15.27       1.17        0.00     100.39       2.29       0.01       0.33       ----

> <Gold.Chemscore.Fitness>
14.9286

> <Gold.Chemscore.DG>
-15.2660

> <Gold.Chemscore.ZeroCoef>
-5.4800

> <Gold.Chemscore.Hbond>
1.1659

> <Gold.Chemscore.Metal>
0.0000

> <Gold.Chemscore.Lipo>
100.3915

> <Gold.Chemscore.Internal_Hbond>
0.0000

> <Gold.Chemscore.DEClash>
0.0059

> <Gold.Chemscore.DEInternal>
0.3315

> <Gold.Chemscore.Rot>
2.2866

> <Gold.Chemscore.Internal.Correction>
   9.000000E+99

> <Gold.Chemscore.Hbonds>
donor molecule, donor type, donor heavy atom, donor atom, acceptor molecule, acceptor atom, score
      L1  H     6    24       P1  7949  0.17
      P1  H 10752 10763       L1     6  0.62

> <Gold.Chemscore.Hbond.Weighted>
-3.8940

> <Gold.Chemscore.Metal.Weighted>
-0.0000

> <Gold.Chemscore.Lipo.Weighted>
-11.7458

> <Gold.Chemscore.Internal_Hbond.Weighted>
0.0000

> <Gold.Chemscore.DEClash.Weighted>
0.0059

> <Gold.Chemscore.DEInternal.Weighted>
0.3315

> <Gold.Chemscore.Rot.Weighted>
5.8538

> <Gold.Chemscore.Internal.Correction.Weighted>
   9.000000E+99

> <Gold.Protein.RotatedTorsions>
[ 6907 6896 6895 6894 ] final -165.32 input  -60.11 | X-H torsion
[ 7974 7965 7964 7962 ] final   22.96 input  175.53 | X-H torsion
[ 8008 7997 7996 7995 ] final   54.06 input   59.86 | X-H torsion
[ 10167 10162 10161 10158 ] final -140.73 input  -65.29 | X-H torsion
[ 10718 10713 10712 10709 ] final  -29.85 input   66.30 | X-H torsion
[ 10763 10752 10751 10750 ] final   26.95 input  -60.55 | X-H torsion
[ 11005 11000 10999 10996 ] final -139.70 input  -57.11 | X-H torsion

> <Gold.Protein.ActiveResidues>
 VAL166  LYS551  ARG553  GLY616  TRP617  ASP618  TYR619  PRO620  LYS621  CYS622 
 ASP623  PHE694  ASN695  SER759  ASP760  ASP761  ALA762  ILE779  LEU786  VAL792 
 PHE793  MET794  SER795  GLU796  ALA797  LYS798  CYS799  TRP800  GLU811  SER814 

> <Gold.Protein.RotatedAtoms>
  151.4259  133.3684  159.2761 H   0  0  0  0  0  0  0  0  0  0  0  0  # atno 6907 bound_to 6896
  150.9260  134.8678  159.7531 H   0  0  0  0  0  0  0  0  0  0  0  0  # atno 6908 bound_to 6896
  152.5005  134.4200  159.9529 H   0  0  0  0  0  0  0  0  0  0  0  0  # atno 6909 bound_to 6896
  146.2006  139.7812  142.8764 H   0  0  0  0  0  0  0  0  0  0  0  0  # atno 7974 bound_to 7965
  155.4785  140.3467  155.4336 H   0  0  0  0  0  0  0  0  0  0  0  0  # atno 8008 bound_to 7997
  156.1054  140.1446  156.9439 H   0  0  0  0  0  0  0  0  0  0  0  0  # atno 8009 bound_to 7997
  154.4721  140.0897  156.7149 H   0  0  0  0  0  0  0  0  0  0  0  0  # atno 8010 bound_to 7997
  139.8253  143.7519  152.2666 H   0  0  0  0  0  0  0  0  0  0  0  0  # atno 10167 bound_to 10162
  156.4072  130.4401  149.7279 H   0  0  0  0  0  0  0  0  0  0  0  0  # atno 10718 bound_to 10713
  153.0588  135.6548  154.0513 H   0  0  0  0  0  0  0  0  0  0  0  0  # atno 10763 bound_to 10752
  154.0185  135.2922  155.3385 H   0  0  0  0  0  0  0  0  0  0  0  0  # atno 10764 bound_to 10752
  154.6916  135.5280  153.8468 H   0  0  0  0  0  0  0  0  0  0  0  0  # atno 10765 bound_to 10752
  140.8495  134.2304  157.4768 H   0  0  0  0  0  0  0  0  0  0  0  0  # atno 11005 bound_to 11000
  145.3497  141.0305  143.3345 LP  0  0  0  0  0  0  0  0  0  0  0  0  # atno 17320 bound_to 7965
  144.8675  139.5087  143.6783 LP  0  0  0  0  0  0  0  0  0  0  0  0  # atno 17321 bound_to 7965
  139.7710  144.7476  151.0224 LP  0  0  0  0  0  0  0  0  0  0  0  0  # atno 17342 bound_to 10162
  140.7810  143.4645  151.0232 LP  0  0  0  0  0  0  0  0  0  0  0  0  # atno 17343 bound_to 10162
  156.4272  130.7797  151.2816 LP  0  0  0  0  0  0  0  0  0  0  0  0  # atno 17370 bound_to 10713
  157.7506  131.0165  150.3547 LP  0  0  0  0  0  0  0  0  0  0  0  0  # atno 17371 bound_to 10713
  139.8704  134.9676  156.4602 LP  0  0  0  0  0  0  0  0  0  0  0  0  # atno 17394 bound_to 11000
  140.8806  133.7920  155.9463 LP  0  0  0  0  0  0  0  0  0  0  0  0  # atno 17395 bound_to 11000

$$$$
