AV-unprocessed.smi:2370|AV-procd|sdf|9435|dock2
  -GOLD-   2272013 63D 1   1.00000     0.00000
 Structure written by MMmdl.
 37 38  0  0  0  0  0  0  0  0  1 V2000
  146.8016  139.1108  153.0998 C   0  0  0  0  0  0  0  0  0  0  0  0
  148.1230  139.4004  153.5374 O   0  0  0  0  0  0  0  0  0  0  0  0
  148.2783  140.5815  154.3252 C   0  0  0  0  0  0  0  0  0  0  0  0
  149.7473  140.8249  154.7095 C   0  0  0  0  0  0  0  0  0  0  0  0
  149.8867  141.9845  155.5852 N   0  0  0  0  0  0  0  0  0  0  0  0
  150.6131  142.0291  156.7111 C   0  0  0  0  0  0  0  0  0  0  0  0
  151.2773  141.0811  157.1310 O   0  0  0  0  0  0  0  0  0  0  0  0
  150.5009  143.2251  157.3152 N   0  0  0  0  0  0  0  0  0  0  0  0
  151.0628  143.6393  158.5520 C   0  0  0  0  0  0  0  0  0  0  0  0
  151.8698  142.7522  159.3101 C   0  0  0  0  0  0  0  0  0  0  0  0
  152.4353  143.1947  160.5228 C   0  0  0  0  0  0  0  0  0  0  0  0
  153.2913  142.2622  161.3542 C   0  0  0  0  0  0  0  0  0  0  0  0
  152.1895  144.5161  160.9410 C   0  0  0  0  0  0  0  0  0  0  0  0
  151.3943  145.3348  160.1189 C   0  0  0  0  0  0  0  0  0  0  0  0
  150.8533  144.9135  158.9562 N   0  0  0  0  0  0  0  0  0  0  0  0
  147.5079  141.7205  153.6286 C   0  0  0  0  0  0  0  0  0  0  0  0
  146.9176  142.1002  154.9872 C   0  0  0  0  0  0  0  0  0  0  0  0
  147.2048  140.6650  155.4298 C   0  0  0  0  0  0  0  0  0  0  0  0
  146.8281  138.2517  152.4296 H   0  0  0  0  0  0  0  0  0  0  0  0
  146.3607  139.9437  152.5517 H   0  0  0  0  0  0  0  0  0  0  0  0
  146.1469  138.8518  153.9313 H   0  0  0  0  0  0  0  0  0  0  0  0
  150.1702  139.9362  155.1804 H   0  0  0  0  0  0  0  0  0  0  0  0
  150.3595  140.9914  153.8238 H   0  0  0  0  0  0  0  0  0  0  0  0
  149.3655  142.8089  155.3250 H   0  0  0  0  0  0  0  0  0  0  0  0
  149.8421  143.8695  156.9035 H   0  0  0  0  0  0  0  0  0  0  0  0
  152.0705  141.7460  158.9738 H   0  0  0  0  0  0  0  0  0  0  0  0
  153.7773  142.7942  162.1725 H   0  0  0  0  0  0  0  0  0  0  0  0
  154.0666  141.8061  160.7378 H   0  0  0  0  0  0  0  0  0  0  0  0
  152.6779  141.4674  161.7791 H   0  0  0  0  0  0  0  0  0  0  0  0
  152.6018  144.8981  161.8634 H   0  0  0  0  0  0  0  0  0  0  0  0
  151.1878  146.3566  160.4011 H   0  0  0  0  0  0  0  0  0  0  0  0
  148.1261  142.4955  153.1765 H   0  0  0  0  0  0  0  0  0  0  0  0
  146.7485  141.3629  152.9305 H   0  0  0  0  0  0  0  0  0  0  0  0
  147.5190  142.8386  155.5197 H   0  0  0  0  0  0  0  0  0  0  0  0
  145.8618  142.3713  154.9680 H   0  0  0  0  0  0  0  0  0  0  0  0
  146.3545  140.0020  155.2601 H   0  0  0  0  0  0  0  0  0  0  0  0
  147.5864  140.5742  156.4471 H   0  0  0  0  0  0  0  0  0  0  0  0
  1  2  1  0  0  0  0
  1 19  1  0  0  0  0
  1 20  1  0  0  0  0
  1 21  1  0  0  0  0
  2  3  1  0  0  0  0
  3 18  1  0  0  0  0
  3  4  1  0  0  0  0
  3 16  1  0  0  0  0
  4  5  1  0  0  0  0
  4 22  1  0  0  0  0
  4 23  1  0  0  0  0
  5  6  1  0  0  0  0
  5 24  1  0  0  0  0
  6  7  2  0  0  0  0
  6  8  1  0  0  0  0
  8  9  1  0  0  0  0
  8 25  1  0  0  0  0
  9 15  1  0  0  0  0
  9 10  2  0  0  0  0
 10 11  1  0  0  0  0
 10 26  1  0  0  0  0
 11 12  1  0  0  0  0
 11 13  2  0  0  0  0
 12 27  1  0  0  0  0
 12 28  1  0  0  0  0
 12 29  1  0  0  0  0
 13 14  1  0  0  0  0
 13 30  1  0  0  0  0
 14 15  2  0  0  0  0
 14 31  1  0  0  0  0
 16 17  1  0  0  0  0
 16 32  1  0  0  0  0
 16 33  1  0  0  0  0
 17 18  1  0  0  0  0
 17 34  1  0  0  0  0
 17 35  1  0  0  0  0
 18 36  1  0  0  0  0
 18 37  1  0  0  0  0
M  END
> <s_m_source_file>
AV-unprocessed.smi

> <i_m_source_file_index>
2370

> <i_lp_mmshare_version>
43012

> <i_f3d_flags>
0

> <s_epik_input>
W0NIMl0xW0NIMl1bQ0gyXUMxKE9bQ0gzXSlbQ0gyXVtOSF1DKD1PKVtOSF1jMltjSF1jKFtDSDNdKVtjSF1bY0hdbjI=

> <s_epik_cmdline>
J2VwaWtfcHl0aG9uJywgJy1waCcsICc3LjAnLCAnLXRuJywgJzgnLCAnLW1hJywgJzIwMCcsICctbWV0YWxfYmluZGluZycsICctaW1hZScsICc8aW5maWxlLm1hZT4nLCAnLW9tYWUnLCAnPG91dGZpbGUubWFlPic=

> <r_lp_tautomer_probability>
1

> <r_epik_Ionization_Penalty>
9.08611e-05

> <r_epik_Ionization_Penalty_Charging>
0

> <r_epik_Ionization_Penalty_Neutral>
9.08611e-05

> <r_epik_State_Penalty>
-0

> <r_epik_Charging_Adjusted_Penalty>
0

> <i_epik_Tot_Q>
0

> <i_epik_Tot_abs_Q>
0

> <r_epik_Metal_State_Penalty>
-0

> <b_epik_Metal_Only>
0

> <s_lp_Force_Field>
OPLS_2005

> <r_lp_Energy>
22.0857

> <b_lp_Chiralities_Consistent>
1

> <s_lp_Variant>
AV-unprocessed.smi:2370-1

> <Gold.Version>
5.8.1

> <Gold.Id.Protein>
6NUR|6NUR_protein|mol2

> <Gold.PLP.Fitness>
44.7461

> <Gold.PLP.PLP>
-38.9353

> <Gold.PLP.part.hbond>
-2.0000

> <Gold.PLP.part.metal>
0.0000

> <Gold.PLP.part.buried>
-6.7581

> <Gold.PLP.part.nonpolar>
-31.6490

> <Gold.PLP.part.repulsive>
2.0046

> <Gold.PLP.ligand.clash>
0.0000

> <Gold.PLP.ligand.torsion>
0.2308

> <Gold.PLP.Chemscore.Hbond>
2.0000

> <Gold.PLP.Chemscore.CHOScore>
0.0000

> <Gold.PLP.Chemscore.Metal>
0.0000

> <Gold.Chemscore.Hbonds>
donor molecule, donor type, donor heavy atom, donor atom, acceptor molecule, acceptor atom, score
      L1  H     5    24       P1  8028  1.00
      L1  H     8    25       P1  8028  1.00

> <Gold.PLP.Chemscore.Internal.Correction>
0.2725

> <Gold.Rescore>
     Score         DG    S(hbond)    S(metal)    S(lipo)     H(rot)  DE(clash)    DE(int)     intcor
     16.13     -18.69       1.88        0.00      90.89       1.45       0.08       2.48       ----

> <Gold.Chemscore.Fitness>
16.1316

> <Gold.Chemscore.DG>
-18.6902

> <Gold.Chemscore.ZeroCoef>
-5.4800

> <Gold.Chemscore.Hbond>
1.8845

> <Gold.Chemscore.Metal>
0.0000

> <Gold.Chemscore.Lipo>
90.8884

> <Gold.Chemscore.Internal_Hbond>
0.0000

> <Gold.Chemscore.DEClash>
0.0817

> <Gold.Chemscore.DEInternal>
2.4769

> <Gold.Chemscore.Rot>
1.4523

> <Gold.Chemscore.Internal.Correction>
   9.000000E+99

> <Gold.Chemscore.Hbonds>
donor molecule, donor type, donor heavy atom, donor atom, acceptor molecule, acceptor atom, score
      L1  H     5    24       P1  8028  0.91
      L1  H     8    25       P1  8028  0.97

> <Gold.Chemscore.Hbond.Weighted>
-6.2941

> <Gold.Chemscore.Metal.Weighted>
-0.0000

> <Gold.Chemscore.Lipo.Weighted>
-10.6339

> <Gold.Chemscore.Internal_Hbond.Weighted>
0.0000

> <Gold.Chemscore.DEClash.Weighted>
0.0817

> <Gold.Chemscore.DEInternal.Weighted>
2.4769

> <Gold.Chemscore.Rot.Weighted>
3.7179

> <Gold.Chemscore.Internal.Correction.Weighted>
   9.000000E+99

> <Gold.Protein.RotatedTorsions>
[ 6907 6896 6895 6894 ] final  -28.41 input  -60.11 | X-H torsion
[ 7974 7965 7964 7962 ] final   30.37 input  175.53 | X-H torsion
[ 8008 7997 7996 7995 ] final  -78.01 input   59.86 | X-H torsion
[ 10167 10162 10161 10158 ] final   22.40 input  -65.29 | X-H torsion
[ 10718 10713 10712 10709 ] final   60.04 input   66.30 | X-H torsion
[ 10763 10752 10751 10750 ] final  -14.82 input  -60.55 | X-H torsion
[ 11005 11000 10999 10996 ] final -167.55 input  -57.11 | X-H torsion

> <Gold.Protein.ActiveResidues>
 VAL166  LYS551  ARG553  GLY616  TRP617  ASP618  TYR619  PRO620  LYS621  CYS622 
 ASP623  PHE694  ASN695  SER759  ASP760  ASP761  ALA762  ILE779  LEU786  VAL792 
 PHE793  MET794  SER795  GLU796  ALA797  LYS798  CYS799  TRP800  GLU811  SER814 

> <Gold.Protein.RotatedAtoms>
  151.1334  135.0142  159.8592 H   0  0  0  0  0  0  0  0  0  0  0  0  # atno 6907 bound_to 6896
  152.5451  134.1583  159.8557 H   0  0  0  0  0  0  0  0  0  0  0  0  # atno 6908 bound_to 6896
  151.1652  133.4774  159.2627 H   0  0  0  0  0  0  0  0  0  0  0  0  # atno 6909 bound_to 6896
  146.1615  139.6797  142.9030 H   0  0  0  0  0  0  0  0  0  0  0  0  # atno 7974 bound_to 7965
  154.5649  140.0701  156.8877 H   0  0  0  0  0  0  0  0  0  0  0  0  # atno 8008 bound_to 7997
  155.2741  140.3367  155.4245 H   0  0  0  0  0  0  0  0  0  0  0  0  # atno 8009 bound_to 7997
  156.2073  140.1745  156.7758 H   0  0  0  0  0  0  0  0  0  0  0  0  # atno 8010 bound_to 7997
  140.5351  143.9774  150.6487 H   0  0  0  0  0  0  0  0  0  0  0  0  # atno 10167 bound_to 10162
  157.5723  130.8917  149.9287 H   0  0  0  0  0  0  0  0  0  0  0  0  # atno 10718 bound_to 10713
  153.5340  135.7014  153.5669 H   0  0  0  0  0  0  0  0  0  0  0  0  # atno 10763 bound_to 10752
  153.3664  135.3956  155.1756 H   0  0  0  0  0  0  0  0  0  0  0  0  # atno 10764 bound_to 10752
  154.8681  135.3801  154.4839 H   0  0  0  0  0  0  0  0  0  0  0  0  # atno 10765 bound_to 10752
  140.5520  134.5419  157.5124 H   0  0  0  0  0  0  0  0  0  0  0  0  # atno 11005 bound_to 11000
  145.4575  141.0431  143.2770 LP  0  0  0  0  0  0  0  0  0  0  0  0  # atno 17320 bound_to 7965
  144.8034  139.6097  143.7061 LP  0  0  0  0  0  0  0  0  0  0  0  0  # atno 17321 bound_to 7965
  140.3159  143.3168  152.0832 LP  0  0  0  0  0  0  0  0  0  0  0  0  # atno 17342 bound_to 10162
  139.4968  144.6606  151.6474 LP  0  0  0  0  0  0  0  0  0  0  0  0  # atno 17343 bound_to 10162
  156.0768  130.3678  150.0662 LP  0  0  0  0  0  0  0  0  0  0  0  0  # atno 17370 bound_to 10713
  156.8813  130.9557  151.3599 LP  0  0  0  0  0  0  0  0  0  0  0  0  # atno 17371 bound_to 10713
  139.9450  134.7718  156.0583 LP  0  0  0  0  0  0  0  0  0  0  0  0  # atno 17394 bound_to 11000
  141.1166  133.6626  156.3109 LP  0  0  0  0  0  0  0  0  0  0  0  0  # atno 17395 bound_to 11000

$$$$
