AV-unprocessed.smi:2526|AV-procd|sdf|9939|dock2
  -GOLD-   2272013583D 1   1.00000     0.00000
 Structure written by MMmdl.
 28 29  0  0  0  0  0  0  0  0  1 V2000
  146.6381  142.3017  154.7140 C   0  0  0  0  0  0  0  0  0  0  0  0
  147.9103  141.7034  155.0573 N   0  0  0  0  0  0  0  0  0  0  0  0
  148.7850  141.0162  154.2446 C   0  0  0  0  0  0  0  0  0  0  0  0
  149.8578  140.6441  155.0089 C   0  0  0  0  0  0  0  0  0  0  0  0
  151.1045  139.8743  154.6170 C   0  0  1  0  0  0  0  0  0  0  0  0
  152.0906  139.9004  155.7011 N   0  0  0  0  0  0  0  0  0  0  0  0
  152.3092  138.9325  156.6114 C   0  0  0  0  0  0  0  0  0  0  0  0
  153.0804  139.1025  157.5527 O   0  0  0  0  0  0  0  0  0  0  0  0
  151.6187  137.5682  156.4411 C   0  0  0  0  0  0  0  0  0  0  0  0
  150.4588  137.5664  155.4292 C   0  0  0  0  0  0  0  0  0  0  0  0
  150.8090  138.4127  154.1989 C   0  0  1  0  0  0  0  0  0  0  0  0
  149.7664  138.3206  153.1926 N   0  0  0  0  0  0  0  0  0  0  0  0
  149.5277  141.1582  156.2967 C   0  0  0  0  0  0  0  0  0  0  0  0
  148.3657  141.7899  156.3228 N   0  0  0  0  0  0  0  0  0  0  0  0
  146.4340  142.1631  153.6519 H   0  0  0  0  0  0  0  0  0  0  0  0
  146.6611  143.3696  154.9333 H   0  0  0  0  0  0  0  0  0  0  0  0
  145.8414  141.8330  155.2923 H   0  0  0  0  0  0  0  0  0  0  0  0
  148.5772  140.8539  153.1971 H   0  0  0  0  0  0  0  0  0  0  0  0
  151.5772  140.3709  153.7689 H   0  0  0  0  0  0  0  0  0  0  0  0
  152.5965  140.7662  155.8205 H   0  0  0  0  0  0  0  0  0  0  0  0
  152.3817  136.8630  156.1102 H   0  0  0  0  0  0  0  0  0  0  0  0
  151.2689  137.2124  157.4105 H   0  0  0  0  0  0  0  0  0  0  0  0
  150.2421  136.5398  155.1316 H   0  0  0  0  0  0  0  0  0  0  0  0
  149.5524  137.9433  155.9053 H   0  0  0  0  0  0  0  0  0  0  0  0
  151.7117  137.9947  153.7512 H   0  0  0  0  0  0  0  0  0  0  0  0
  149.9976  138.9110  152.4064 H   0  0  0  0  0  0  0  0  0  0  0  0
  149.7150  137.3755  152.8400 H   0  0  0  0  0  0  0  0  0  0  0  0
  150.1002  141.0918  157.2100 H   0  0  0  0  0  0  0  0  0  0  0  0
  1  2  1  0  0  0  0
  1 15  1  0  0  0  0
  1 16  1  0  0  0  0
  1 17  1  0  0  0  0
  2 14  1  0  0  0  0
  2  3  1  0  0  0  0
  3  4  2  0  0  0  0
  3 18  1  0  0  0  0
  4  5  1  0  0  0  0
  4 13  1  0  0  0  0
  5 11  1  0  0  0  0
  5  6  1  0  0  0  0
  5 19  1  0  0  0  0
  6  7  1  0  0  0  0
  6 20  1  0  0  0  0
  7  8  2  0  0  0  0
  7  9  1  0  0  0  0
  9 10  1  0  0  0  0
  9 21  1  0  0  0  0
  9 22  1  0  0  0  0
 10 11  1  0  0  0  0
 10 23  1  0  0  0  0
 10 24  1  0  0  0  0
 11 12  1  0  0  0  0
 11 25  1  0  0  0  0
 12 26  1  0  0  0  0
 12 27  1  0  0  0  0
 13 14  2  0  0  0  0
 13 28  1  0  0  0  0
M  END
> <s_m_source_file>
AV-unprocessed.smi

> <i_m_source_file_index>
2526

> <i_lp_mmshare_version>
43012

> <i_f3d_flags>
0

> <s_epik_input>
W0NIM11uMVtjSF1jKFtjSF1uMSlbQ0BASF0yW05IXUMoPU8pW0NIMl1bQ0gyXVtDQEhdMltOSDJd

> <s_epik_cmdline>
J2VwaWtfcHl0aG9uJywgJy1waCcsICc3LjAnLCAnLXRuJywgJzgnLCAnLW1hJywgJzIwMCcsICctbWV0YWxfYmluZGluZycsICctaW1hZScsICc8aW5maWxlLm1hZT4nLCAnLW9tYWUnLCAnPG91dGZpbGUubWFlPic=

> <r_lp_tautomer_probability>
1

> <r_epik_Ionization_Penalty>
2.50279

> <r_epik_Ionization_Penalty_Charging>
0

> <r_epik_Ionization_Penalty_Neutral>
2.50279

> <r_epik_State_Penalty>
2.66754

> <r_epik_Charging_Adjusted_Penalty>
2.66754

> <i_epik_Tot_Q>
0

> <i_epik_Tot_abs_Q>
0

> <r_epik_Metal_State_Penalty>
2.66721

> <b_epik_Metal_Only>
0

> <s_lp_Force_Field>
OPLS_2005

> <r_lp_Energy>
9.07018

> <b_lp_Chiralities_Consistent>
1

> <s_lp_Variant>
AV-unprocessed.smi:2526-6

> <Gold.Version>
5.8.1

> <Gold.Id.Protein>
6NUR|6NUR_protein|mol2

> <Gold.PLP.Fitness>
33.7783

> <Gold.PLP.PLP>
-22.0175

> <Gold.PLP.part.hbond>
-3.4724

> <Gold.PLP.part.metal>
0.0000

> <Gold.PLP.part.buried>
1.3951

> <Gold.PLP.part.nonpolar>
-20.0850

> <Gold.PLP.part.repulsive>
0.9453

> <Gold.PLP.ligand.clash>
0.0000

> <Gold.PLP.ligand.torsion>
0.1166

> <Gold.PLP.Chemscore.Hbond>
2.9920

> <Gold.PLP.Chemscore.CHOScore>
1.0000

> <Gold.PLP.Chemscore.Metal>
0.0000

> <Gold.Chemscore.Hbonds>
donor molecule, donor type, donor heavy atom, donor atom, acceptor molecule, acceptor atom, score
      L1  H    12    26       P1  7957  1.00
      L1  H    12    27       P1  7948  1.00
      P1  H  7997  8008       L1     8  1.00
      L1  C     3    18       P1  7957  1.00

> <Gold.PLP.Chemscore.Internal.Correction>
0.0179

> <Gold.Rescore>
     Score         DG    S(hbond)    S(metal)    S(lipo)     H(rot)  DE(clash)    DE(int)     intcor
     16.89     -17.52       2.90        0.00      42.16       1.00       0.26       0.37       ----

> <Gold.Chemscore.Fitness>
16.8931

> <Gold.Chemscore.DG>
-17.5230

> <Gold.Chemscore.ZeroCoef>
-5.4800

> <Gold.Chemscore.Hbond>
2.8955

> <Gold.Chemscore.Metal>
0.0000

> <Gold.Chemscore.Lipo>
42.1558

> <Gold.Chemscore.Internal_Hbond>
0.0000

> <Gold.Chemscore.DEClash>
0.2581

> <Gold.Chemscore.DEInternal>
0.3719

> <Gold.Chemscore.Rot>
1.0000

> <Gold.Chemscore.Internal.Correction>
   9.000000E+99

> <Gold.Chemscore.Hbonds>
donor molecule, donor type, donor heavy atom, donor atom, acceptor molecule, acceptor atom, score
      L1  H    12    26       P1  7957  0.39
      L1  H    12    27       P1  7948  0.42
      P1  H  7997  8008       L1     8  0.26

> <Gold.Chemscore.Hbond.Weighted>
-9.6708

> <Gold.Chemscore.Metal.Weighted>
-0.0000

> <Gold.Chemscore.Lipo.Weighted>
-4.9322

> <Gold.Chemscore.Internal_Hbond.Weighted>
0.0000

> <Gold.Chemscore.DEClash.Weighted>
0.2581

> <Gold.Chemscore.DEInternal.Weighted>
0.3719

> <Gold.Chemscore.Rot.Weighted>
2.5600

> <Gold.Chemscore.Internal.Correction.Weighted>
   9.000000E+99

> <Gold.Protein.RotatedTorsions>
[ 6907 6896 6895 6894 ] final -146.30 input  -60.11 | X-H torsion
[ 7974 7965 7964 7962 ] final -114.23 input  175.53 | X-H torsion
[ 8008 7997 7996 7995 ] final  -63.29 input   59.86 | X-H torsion
[ 10167 10162 10161 10158 ] final  130.75 input  -65.29 | X-H torsion
[ 10718 10713 10712 10709 ] final   20.47 input   66.30 | X-H torsion
[ 10763 10752 10751 10750 ] final  111.01 input  -60.55 | X-H torsion
[ 11005 11000 10999 10996 ] final  136.09 input  -57.11 | X-H torsion

> <Gold.Protein.ActiveResidues>
 VAL166  LYS551  ARG553  GLY616  TRP617  ASP618  TYR619  PRO620  LYS621  CYS622 
 ASP623  PHE694  ASN695  SER759  ASP760  ASP761  ALA762  ILE779  LEU786  VAL792 
 PHE793  MET794  SER795  GLU796  ALA797  LYS798  CYS799  TRP800  GLU811  SER814 

> <Gold.Protein.RotatedAtoms>
  151.1397  133.4980  159.2596 H   0  0  0  0  0  0  0  0  0  0  0  0  # atno 6907 bound_to 6896
  151.1668  135.0299  159.8744 H   0  0  0  0  0  0  0  0  0  0  0  0  # atno 6908 bound_to 6896
  152.5462  134.1265  159.8474 H   0  0  0  0  0  0  0  0  0  0  0  0  # atno 6909 bound_to 6896
  145.1227  140.8678  143.3804 H   0  0  0  0  0  0  0  0  0  0  0  0  # atno 7974 bound_to 7965
  154.4546  140.0978  156.6720 H   0  0  0  0  0  0  0  0  0  0  0  0  # atno 8008 bound_to 7997
  155.5178  140.3478  155.4382 H   0  0  0  0  0  0  0  0  0  0  0  0  # atno 8009 bound_to 7997
  156.0752  140.1359  156.9770 H   0  0  0  0  0  0  0  0  0  0  0  0  # atno 8010 bound_to 7997
  139.5416  144.6735  151.4608 H   0  0  0  0  0  0  0  0  0  0  0  0  # atno 10167 bound_to 10162
  157.1249  130.6565  149.5934 H   0  0  0  0  0  0  0  0  0  0  0  0  # atno 10718 bound_to 10713
  153.4572  135.3730  155.2318 H   0  0  0  0  0  0  0  0  0  0  0  0  # atno 10763 bound_to 10752
  154.8757  135.3900  154.3967 H   0  0  0  0  0  0  0  0  0  0  0  0  # atno 10764 bound_to 10752
  153.4535  135.7086  153.6158 H   0  0  0  0  0  0  0  0  0  0  0  0  # atno 10765 bound_to 10752
  140.0023  134.9473  157.0098 H   0  0  0  0  0  0  0  0  0  0  0  0  # atno 11005 bound_to 11000
  145.0723  139.3022  143.5826 LP  0  0  0  0  0  0  0  0  0  0  0  0  # atno 17320 bound_to 7965
  146.3520  140.0201  142.8659 LP  0  0  0  0  0  0  0  0  0  0  0  0  # atno 17321 bound_to 7965
  140.6647  143.8422  150.6928 LP  0  0  0  0  0  0  0  0  0  0  0  0  # atno 17342 bound_to 10162
  140.1828  143.4100  152.1920 LP  0  0  0  0  0  0  0  0  0  0  0  0  # atno 17343 bound_to 10162
  155.9820  130.4831  150.6860 LP  0  0  0  0  0  0  0  0  0  0  0  0  # atno 17370 bound_to 10713
  157.4444  131.0865  151.0911 LP  0  0  0  0  0  0  0  0  0  0  0  0  # atno 17371 bound_to 10713
  140.4706  134.1391  155.7202 LP  0  0  0  0  0  0  0  0  0  0  0  0  # atno 17394 bound_to 11000
  141.1651  133.8719  157.1738 LP  0  0  0  0  0  0  0  0  0  0  0  0  # atno 17395 bound_to 11000

$$$$
