AV-unprocessed.smi:1687|AV-procd|sdf|6768|dock4
  -GOLD-   22720 7523D 1   1.00000     0.00000
 Structure written by MMmdl.
 45 46  0  0  0  0  0  0  0  0  2 V2000
  144.0092  136.8639  152.5240 C   0  0  0  0  0  0  0  0  0  0  0  0
  145.4442  136.5519  152.0647 C   0  0  2  0  0  0  0  0  0  0  0  0
  146.2705  135.8332  153.1476 C   0  0  0  0  0  0  0  0  0  0  0  0
  146.6947  136.7820  154.2833 C   0  0  0  0  0  0  0  0  0  0  0  0
  147.4362  137.9534  153.7466 N   0  3  2  0  0  0  0  0  0  0  0  0
  148.0898  138.7795  154.8043 C   0  0  2  0  0  0  0  0  0  0  0  0
  147.0730  139.4238  155.7725 C   0  0  0  0  0  0  0  0  0  0  0  0
  149.0659  139.7952  154.1668 C   0  0  0  0  0  0  0  0  0  0  0  0
  149.3255  140.9436  155.0313 N   0  0  0  0  0  0  0  0  0  0  0  0
  150.2622  140.9986  155.9902 C   0  0  0  0  0  0  0  0  0  0  0  0
  151.0304  140.0691  156.2405 O   0  0  0  0  0  0  0  0  0  0  0  0
  150.2478  142.1880  156.6171 N   0  0  0  0  0  0  0  0  0  0  0  0
  151.0813  142.6308  157.6785 C   0  0  0  0  0  0  0  0  0  0  0  0
  151.3998  144.0074  157.6546 C   0  0  0  0  0  0  0  0  0  0  0  0
  152.2187  144.5466  158.6656 C   0  0  0  0  0  0  0  0  0  0  0  0
  152.6989  143.6939  159.6754 C   0  0  0  0  0  0  0  0  0  0  0  0
  152.3355  142.3356  159.6248 C   0  0  0  0  0  0  0  0  0  0  0  0
  151.5509  141.8166  158.6567 N   0  0  0  0  0  0  0  0  0  0  0  0
  146.6254  138.7117  152.7543 C   0  0  0  0  0  0  0  0  0  0  0  0
  146.2021  137.8045  151.5851 C   0  0  0  0  0  0  0  0  0  0  0  0
  143.9878  137.5357  153.3817 H   0  0  0  0  0  0  0  0  0  0  0  0
  143.4839  135.9518  152.8080 H   0  0  0  0  0  0  0  0  0  0  0  0
  143.4365  137.3336  151.7237 H   0  0  0  0  0  0  0  0  0  0  0  0
  145.3553  135.8749  151.2140 H   0  0  0  0  0  0  0  0  0  0  0  0
  145.7111  134.9890  153.5524 H   0  0  0  0  0  0  0  0  0  0  0  0
  147.1653  135.4094  152.6893 H   0  0  0  0  0  0  0  0  0  0  0  0
  145.8228  137.1164  154.8458 H   0  0  0  0  0  0  0  0  0  0  0  0
  147.3254  136.2314  154.9819 H   0  0  0  0  0  0  0  0  0  0  0  0
  148.7089  138.1048  155.3977 H   0  0  0  0  0  0  0  0  0  0  0  0
  147.5736  139.8621  156.6359 H   0  0  0  0  0  0  0  0  0  0  0  0
  146.3649  138.6920  156.1602 H   0  0  0  0  0  0  0  0  0  0  0  0
  146.5044  140.2200  155.2911 H   0  0  0  0  0  0  0  0  0  0  0  0
  150.0233  139.3090  153.9763 H   0  0  0  0  0  0  0  0  0  0  0  0
  148.7040  140.1320  153.1949 H   0  0  0  0  0  0  0  0  0  0  0  0
  148.7403  141.7550  154.8955 H   0  0  0  0  0  0  0  0  0  0  0  0
  149.5612  142.8557  156.2988 H   0  0  0  0  0  0  0  0  0  0  0  0
  151.0217  144.6489  156.8716 H   0  0  0  0  0  0  0  0  0  0  0  0
  152.4728  145.5963  158.6657 H   0  0  0  0  0  0  0  0  0  0  0  0
  153.3286  144.0707  160.4678 H   0  0  0  0  0  0  0  0  0  0  0  0
  152.6831  141.6475  160.3810 H   0  0  0  0  0  0  0  0  0  0  0  0
  145.7412  139.1337  153.2330 H   0  0  0  0  0  0  0  0  0  0  0  0
  147.1970  139.5507  152.3590 H   0  0  0  0  0  0  0  0  0  0  0  0
  147.0933  137.4954  151.0369 H   0  0  0  0  0  0  0  0  0  0  0  0
  145.5925  138.3664  150.8764 H   0  0  0  0  0  0  0  0  0  0  0  0
  148.2025  137.5545  153.2235 H   0  0  0  0  0  0  0  0  0  0  0  0
  1  2  1  0  0  0  0
  1 21  1  0  0  0  0
  1 22  1  0  0  0  0
  1 23  1  0  0  0  0
  2 20  1  0  0  0  0
  2  3  1  0  0  0  0
  2 24  1  0  0  0  0
  3  4  1  0  0  0  0
  3 25  1  0  0  0  0
  3 26  1  0  0  0  0
  4  5  1  0  0  0  0
  4 27  1  0  0  0  0
  4 28  1  0  0  0  0
  5  6  1  0  0  0  0
  5 19  1  0  0  0  0
  5 45  1  0  0  0  0
  6  7  1  0  0  0  0
  6  8  1  0  0  0  0
  6 29  1  0  0  0  0
  7 30  1  0  0  0  0
  7 31  1  0  0  0  0
  7 32  1  0  0  0  0
  8  9  1  0  0  0  0
  8 33  1  0  0  0  0
  8 34  1  0  0  0  0
  9 10  1  0  0  0  0
  9 35  1  0  0  0  0
 10 11  2  0  0  0  0
 10 12  1  0  0  0  0
 12 13  1  0  0  0  0
 12 36  1  0  0  0  0
 13 18  1  0  0  0  0
 13 14  2  0  0  0  0
 14 15  1  0  0  0  0
 14 37  1  0  0  0  0
 15 16  2  0  0  0  0
 15 38  1  0  0  0  0
 16 17  1  0  0  0  0
 16 39  1  0  0  0  0
 17 18  2  0  0  0  0
 17 40  1  0  0  0  0
 19 20  1  0  0  0  0
 19 41  1  0  0  0  0
 19 42  1  0  0  0  0
 20 43  1  0  0  0  0
 20 44  1  0  0  0  0
M  CHG  1   5   1
M  END
> <s_m_source_file>
AV-unprocessed.smi

> <i_m_source_file_index>
1687

> <i_lp_mmshare_version>
43012

> <i_f3d_flags>
0

> <s_epik_input>
W0NIM11bQ0hdMVtDSDJdW0NIMl1OKFtDSDJdW0NIMl0xKVtDQEhdKFtDSDNdKVtDSDJdW05IXUMoPU8pW05IXWMyW2NIXVtjSF1bY0hdW2NIXW4y

> <s_epik_cmdline>
J2VwaWtfcHl0aG9uJywgJy1waCcsICc3LjAnLCAnLXRuJywgJzgnLCAnLW1hJywgJzIwMCcsICctbWV0YWxfYmluZGluZycsICctaW1hZScsICc8aW5maWxlLm1hZT4nLCAnLW9tYWUnLCAnPG91dGZpbGUubWFlPic=

> <r_epik_Ionization_Penalty>
0.00142891

> <r_epik_Ionization_Penalty_Charging>
0.00139388

> <r_epik_Ionization_Penalty_Neutral>
3.50347e-05

> <r_epik_State_Penalty>
0.000929204

> <r_epik_Charging_Adjusted_Penalty>
0.00232308

> <i_epik_Tot_Q>
1

> <i_epik_Tot_abs_Q>
1

> <r_epik_Metal_State_Penalty>
-0

> <b_epik_Metal_Only>
0

> <s_lp_Force_Field>
OPLS_2005

> <r_lp_Energy>
23.5172

> <b_lp_Chiralities_Consistent>
1

> <s_lp_Variant>
AV-unprocessed.smi:1687-3

> <Gold.Version>
5.8.1

> <Gold.Id.Protein>
6NUR|6NUR_protein|mol2

> <Gold.PLP.Fitness>
43.5214

> <Gold.PLP.PLP>
-36.0015

> <Gold.PLP.part.hbond>
-2.0000

> <Gold.PLP.part.metal>
0.0000

> <Gold.PLP.part.buried>
0.8058

> <Gold.PLP.part.nonpolar>
-35.7221

> <Gold.PLP.part.repulsive>
0.2398

> <Gold.PLP.ligand.clash>
0.0000

> <Gold.PLP.ligand.torsion>
0.7762

> <Gold.PLP.Chemscore.Hbond>
2.9825

> <Gold.PLP.Chemscore.CHOScore>
0.0000

> <Gold.PLP.Chemscore.Metal>
0.0000

> <Gold.Chemscore.Hbonds>
donor molecule, donor type, donor heavy atom, donor atom, acceptor molecule, acceptor atom, score
      L1  H     5    45       P1  7948  1.98
      L1  H    12    36       P1  8028  0.86

> <Gold.PLP.Chemscore.Internal.Correction>
0.1247

> <Gold.Rescore>
     Score         DG    S(hbond)    S(metal)    S(lipo)     H(rot)  DE(clash)    DE(int)     intcor
     16.06     -18.15       1.82        0.00      89.12       1.50       0.40       1.69       ----

> <Gold.Chemscore.Fitness>
16.0613

> <Gold.Chemscore.DG>
-18.1473

> <Gold.Chemscore.ZeroCoef>
-5.4800

> <Gold.Chemscore.Hbond>
1.8170

> <Gold.Chemscore.Metal>
0.0000

> <Gold.Chemscore.Lipo>
89.1234

> <Gold.Chemscore.Internal_Hbond>
0.0000

> <Gold.Chemscore.DEClash>
0.3954

> <Gold.Chemscore.DEInternal>
1.6906

> <Gold.Chemscore.Rot>
1.4956

> <Gold.Chemscore.Internal.Correction>
   9.000000E+99

> <Gold.Chemscore.Hbonds>
donor molecule, donor type, donor heavy atom, donor atom, acceptor molecule, acceptor atom, score
      L1  H     5    45       P1  7948  0.89
      L1  H    12    36       P1  8028  0.82

> <Gold.Chemscore.Hbond.Weighted>
-6.0687

> <Gold.Chemscore.Metal.Weighted>
-0.0000

> <Gold.Chemscore.Lipo.Weighted>
-10.4274

> <Gold.Chemscore.Internal_Hbond.Weighted>
0.0000

> <Gold.Chemscore.DEClash.Weighted>
0.3954

> <Gold.Chemscore.DEInternal.Weighted>
1.6906

> <Gold.Chemscore.Rot.Weighted>
3.8289

> <Gold.Chemscore.Internal.Correction.Weighted>
   9.000000E+99

> <Gold.Protein.RotatedTorsions>
[ 6907 6896 6895 6894 ] final -175.35 input  -60.11 | X-H torsion
[ 7974 7965 7964 7962 ] final -136.09 input  175.53 | X-H torsion
[ 8008 7997 7996 7995 ] final -162.45 input   59.86 | X-H torsion
[ 10167 10162 10161 10158 ] final   -8.63 input  -65.29 | X-H torsion
[ 10718 10713 10712 10709 ] final -135.26 input   66.30 | X-H torsion
[ 10763 10752 10751 10750 ] final   51.22 input  -60.55 | X-H torsion
[ 11005 11000 10999 10996 ] final   96.41 input  -57.11 | X-H torsion

> <Gold.Protein.ActiveResidues>
 VAL166  LYS551  ARG553  GLY616  TRP617  ASP618  TYR619  PRO620  LYS621  CYS622 
 ASP623  PHE694  ASN695  SER759  ASP760  ASP761  ALA762  ILE779  LEU786  VAL792 
 PHE793  MET794  SER795  GLU796  ALA797  LYS798  CYS799  TRP800  GLU811  SER814 

> <Gold.Protein.RotatedAtoms>
  151.5871  133.3371  159.3019 H   0  0  0  0  0  0  0  0  0  0  0  0  # atno 6907 bound_to 6896
  150.8281  134.7524  159.6841 H   0  0  0  0  0  0  0  0  0  0  0  0  # atno 6908 bound_to 6896
  152.4368  134.5677  159.9964 H   0  0  0  0  0  0  0  0  0  0  0  0  # atno 6909 bound_to 6896
  144.8957  140.6703  143.5117 H   0  0  0  0  0  0  0  0  0  0  0  0  # atno 7974 bound_to 7965
  155.8069  140.0900  157.1926 H   0  0  0  0  0  0  0  0  0  0  0  0  # atno 8008 bound_to 7997
  154.3980  140.1462  156.3400 H   0  0  0  0  0  0  0  0  0  0  0  0  # atno 8009 bound_to 7997
  155.8405  140.3439  155.5631 H   0  0  0  0  0  0  0  0  0  0  0  0  # atno 8010 bound_to 7997
  140.7064  143.5947  150.8858 H   0  0  0  0  0  0  0  0  0  0  0  0  # atno 10167 bound_to 10162
  156.2643  130.7228  151.1173 H   0  0  0  0  0  0  0  0  0  0  0  0  # atno 10718 bound_to 10713
  152.9785  135.5853  154.4379 H   0  0  0  0  0  0  0  0  0  0  0  0  # atno 10763 bound_to 10752
  154.3984  135.2768  155.2114 H   0  0  0  0  0  0  0  0  0  0  0  0  # atno 10764 bound_to 10752
  154.3955  135.6115  153.5922 H   0  0  0  0  0  0  0  0  0  0  0  0  # atno 10765 bound_to 10752
  139.8782  134.8949  156.4155 H   0  0  0  0  0  0  0  0  0  0  0  0  # atno 11005 bound_to 11000
  145.3704  139.1660  143.4335 LP  0  0  0  0  0  0  0  0  0  0  0  0  # atno 17320 bound_to 7965
  146.3080  140.3776  142.8680 LP  0  0  0  0  0  0  0  0  0  0  0  0  # atno 17321 bound_to 7965
  139.9672  143.6097  152.2984 LP  0  0  0  0  0  0  0  0  0  0  0  0  # atno 17342 bound_to 10162
  139.6671  144.7662  151.1853 LP  0  0  0  0  0  0  0  0  0  0  0  0  # atno 17343 bound_to 10162
  157.7262  131.0648  150.5921 LP  0  0  0  0  0  0  0  0  0  0  0  0  # atno 17370 bound_to 10713
  156.6012  130.4355  149.5896 LP  0  0  0  0  0  0  0  0  0  0  0  0  # atno 17371 bound_to 10713
  140.9171  133.7671  155.9861 LP  0  0  0  0  0  0  0  0  0  0  0  0  # atno 17394 bound_to 11000
  140.8482  134.2986  157.5286 LP  0  0  0  0  0  0  0  0  0  0  0  0  # atno 17395 bound_to 11000

$$$$
