AV-unprocessed.smi:1401|AV-procd|sdf|5691|dock9
  -GOLD-   22720 5323D 1   1.00000     0.00000
 Structure written by MMmdl.
 48 50  0  0  0  0  0  0  0  0  1 V2000
  156.4336  140.6158  159.6496 C   0  0  0  0  0  0  0  0  0  0  0  0
  155.3210  139.6430  159.9335 C   0  0  0  0  0  0  0  0  0  0  0  0
  154.4705  139.4390  158.9818 N   0  0  0  0  0  0  0  0  0  0  0  0
  153.4086  138.5697  159.1408 N   0  0  0  0  0  0  0  0  0  0  0  0
  152.5274  138.4744  157.9681 C   0  0  0  0  0  0  0  0  0  0  0  0
  151.5307  139.6381  157.8763 C   0  0  0  0  0  0  0  0  0  0  0  0
  150.3816  139.5120  158.3013 O   0  0  0  0  0  0  0  0  0  0  0  0
  151.9971  140.7711  157.3298 N   0  0  0  0  0  0  0  0  0  0  0  0
  151.2245  141.9917  157.1056 C   0  0  1  0  0  0  0  0  0  0  0  0
  149.8448  141.6065  156.5438 C   0  0  0  0  0  0  0  0  0  0  0  0
  151.1366  142.7946  158.4271 C   0  0  1  0  0  0  0  0  0  0  0  0
  152.3794  142.6319  159.3398 C   0  0  0  0  0  0  0  0  0  0  0  0
  152.8097  144.0825  159.6178 C   0  0  2  0  0  0  0  0  0  0  0  0
  151.7659  144.7677  160.5183 C   0  0  0  0  0  0  0  0  0  0  0  0
  150.5753  144.9681  159.5623 C   0  0  0  0  0  0  0  0  0  0  0  0
  151.0799  144.3336  158.2518 C   0  0  1  0  0  0  0  0  0  0  0  0
  152.5506  144.7391  158.2690 C   0  0  0  0  0  0  0  0  0  0  0  0
  153.1579  137.8478  160.2714 C   0  0  0  0  0  0  0  0  0  0  0  0
  152.2024  137.0753  160.3661 O   0  0  0  0  0  0  0  0  0  0  0  0
  154.1255  138.0843  161.3448 C   0  0  0  0  0  0  0  0  0  0  0  0
  153.8953  137.3532  162.5489 C   0  0  0  0  0  0  0  0  0  0  0  0
  153.7219  136.7730  163.5357 N   0  0  0  0  0  0  0  0  0  0  0  0
  155.1676  138.9409  161.2038 C   0  0  0  0  0  0  0  0  0  0  0  0
  156.1991  139.2220  162.2878 C   0  0  0  0  0  0  0  0  0  0  0  0
  157.4053  140.1328  159.7513 H   0  0  0  0  0  0  0  0  0  0  0  0
  156.3982  141.4558  160.3433 H   0  0  0  0  0  0  0  0  0  0  0  0
  156.3725  141.0216  158.6388 H   0  0  0  0  0  0  0  0  0  0  0  0
  153.1155  138.4613  157.0486 H   0  0  0  0  0  0  0  0  0  0  0  0
  151.9909  137.5235  157.9856 H   0  0  0  0  0  0  0  0  0  0  0  0
  152.9570  140.7813  157.0171 H   0  0  0  0  0  0  0  0  0  0  0  0
  151.7339  142.6098  156.3645 H   0  0  0  0  0  0  0  0  0  0  0  0
  149.2549  142.4829  156.2791 H   0  0  0  0  0  0  0  0  0  0  0  0
  149.2710  141.0238  157.2651 H   0  0  0  0  0  0  0  0  0  0  0  0
  149.9450  141.0064  155.6386 H   0  0  0  0  0  0  0  0  0  0  0  0
  150.2483  142.4579  158.9642 H   0  0  0  0  0  0  0  0  0  0  0  0
  152.1530  142.0827  160.2542 H   0  0  0  0  0  0  0  0  0  0  0  0
  153.1868  142.1028  158.8309 H   0  0  0  0  0  0  0  0  0  0  0  0
  153.8325  144.1715  159.9850 H   0  0  0  0  0  0  0  0  0  0  0  0
  151.5064  144.1592  161.3853 H   0  0  0  0  0  0  0  0  0  0  0  0
  152.1330  145.7290  160.8803 H   0  0  0  0  0  0  0  0  0  0  0  0
  149.6605  144.5013  159.9293 H   0  0  0  0  0  0  0  0  0  0  0  0
  150.3728  146.0309  159.4235 H   0  0  0  0  0  0  0  0  0  0  0  0
  150.5255  144.6750  157.3786 H   0  0  0  0  0  0  0  0  0  0  0  0
  152.7018  145.8200  158.2784 H   0  0  0  0  0  0  0  0  0  0  0  0
  153.1346  144.3050  157.4559 H   0  0  0  0  0  0  0  0  0  0  0  0
  156.0034  138.6600  163.2007 H   0  0  0  0  0  0  0  0  0  0  0  0
  156.2002  140.2806  162.5498 H   0  0  0  0  0  0  0  0  0  0  0  0
  157.1981  138.9510  161.9448 H   0  0  0  0  0  0  0  0  0  0  0  0
  1  2  1  0  0  0  0
  1 25  1  0  0  0  0
  1 26  1  0  0  0  0
  1 27  1  0  0  0  0
  2 23  1  0  0  0  0
  2  3  2  0  0  0  0
  3  4  1  0  0  0  0
  4  5  1  0  0  0  0
  4 18  1  0  0  0  0
  5  6  1  0  0  0  0
  5 28  1  0  0  0  0
  5 29  1  0  0  0  0
  6  7  2  0  0  0  0
  6  8  1  0  0  0  0
  8  9  1  0  0  0  0
  8 30  1  0  0  0  0
  9 10  1  0  0  0  0
  9 11  1  0  0  0  0
  9 31  1  0  0  0  0
 10 32  1  0  0  0  0
 10 33  1  0  0  0  0
 10 34  1  0  0  0  0
 11 16  1  0  0  0  0
 11 12  1  0  0  0  0
 11 35  1  0  0  0  0
 12 13  1  0  0  0  0
 12 36  1  0  0  0  0
 12 37  1  0  0  0  0
 13 17  1  0  0  0  0
 13 14  1  0  0  0  0
 13 38  1  0  0  0  0
 14 15  1  0  0  0  0
 14 39  1  0  0  0  0
 14 40  1  0  0  0  0
 15 16  1  0  0  0  0
 15 41  1  0  0  0  0
 15 42  1  0  0  0  0
 16 17  1  0  0  0  0
 16 43  1  0  0  0  0
 17 44  1  0  0  0  0
 17 45  1  0  0  0  0
 18 19  2  0  0  0  0
 18 20  1  0  0  0  0
 20 21  1  0  0  0  0
 20 23  2  0  0  0  0
 21 22  3  0  0  0  0
 23 24  1  0  0  0  0
 24 46  1  0  0  0  0
 24 47  1  0  0  0  0
 24 48  1  0  0  0  0
M  END
> <s_m_source_file>
AV-unprocessed.smi

> <i_m_source_file_index>
1401

> <i_lp_mmshare_version>
43012

> <i_f3d_flags>
0

> <s_epik_input>
TiNDYyhjMVtDSDNdKWMoPU8pbihuYzFbQ0gzXSlbQ0gyXUMoPU8pW05IXVtDQEhdKFtDSDNdKVtDQEhdKFtDSDJdW0NASF0yMylbQ0BIXShbQ0gyXTMpW0NIMl1bQ0gyXTI=

> <s_epik_cmdline>
J2VwaWtfcHl0aG9uJywgJy1waCcsICc3LjAnLCAnLXRuJywgJzgnLCAnLW1hJywgJzIwMCcsICctbWV0YWxfYmluZGluZycsICctaW1hZScsICc8aW5maWxlLm1hZT4nLCAnLW9tYWUnLCAnPG91dGZpbGUubWFlPic=

> <r_lp_tautomer_probability>
1

> <r_epik_Ionization_Penalty>
2.16501e-08

> <r_epik_Ionization_Penalty_Charging>
2.29436e-11

> <r_epik_Ionization_Penalty_Neutral>
2.16271e-08

> <r_epik_State_Penalty>
-0

> <r_epik_Charging_Adjusted_Penalty>
2.29436e-11

> <i_epik_Tot_Q>
0

> <i_epik_Tot_abs_Q>
0

> <r_epik_Metal_State_Penalty>
-0

> <b_epik_Metal_Only>
0

> <s_lp_Force_Field>
OPLS_2005

> <r_lp_Energy>
65.5995

> <b_lp_Chiralities_Consistent>
1

> <s_lp_Variant>
AV-unprocessed.smi:1401-4

> <Gold.Version>
5.8.1

> <Gold.Id.Protein>
6NUR|6NUR_protein|mol2

> <Gold.PLP.Fitness>
47.7305

> <Gold.PLP.PLP>
-44.9120

> <Gold.PLP.part.hbond>
-2.0000

> <Gold.PLP.part.metal>
0.0000

> <Gold.PLP.part.buried>
-6.3229

> <Gold.PLP.part.nonpolar>
-37.4989

> <Gold.PLP.part.repulsive>
0.1413

> <Gold.PLP.ligand.clash>
0.0000

> <Gold.PLP.ligand.torsion>
1.6020

> <Gold.PLP.Chemscore.Hbond>
2.0000

> <Gold.PLP.Chemscore.CHOScore>
0.0000

> <Gold.PLP.Chemscore.Metal>
0.0000

> <Gold.Chemscore.Hbonds>
donor molecule, donor type, donor heavy atom, donor atom, acceptor molecule, acceptor atom, score
      P1  H  6896  6908       L1    19  1.00
      P1  H  7997  8008       L1     3  1.00

> <Gold.PLP.Chemscore.Internal.Correction>
0.0224

> <Gold.Rescore>
     Score         DG    S(hbond)    S(metal)    S(lipo)     H(rot)  DE(clash)    DE(int)     intcor
     19.54     -22.46       1.81        0.00     129.19       1.63       0.01       2.91       ----

> <Gold.Chemscore.Fitness>
19.5429

> <Gold.Chemscore.DG>
-22.4641

> <Gold.Chemscore.ZeroCoef>
-5.4800

> <Gold.Chemscore.Hbond>
1.8074

> <Gold.Chemscore.Metal>
0.0000

> <Gold.Chemscore.Lipo>
129.1900

> <Gold.Chemscore.Internal_Hbond>
0.0000

> <Gold.Chemscore.DEClash>
0.0140

> <Gold.Chemscore.DEInternal>
2.9072

> <Gold.Chemscore.Rot>
1.6281

> <Gold.Chemscore.Internal.Correction>
   9.000000E+99

> <Gold.Chemscore.Hbonds>
donor molecule, donor type, donor heavy atom, donor atom, acceptor molecule, acceptor atom, score
      P1  H  6896  6908       L1    19  0.93
      P1  H  7997  8008       L1     3  0.59

> <Gold.Chemscore.Hbond.Weighted>
-6.0367

> <Gold.Chemscore.Metal.Weighted>
-0.0000

> <Gold.Chemscore.Lipo.Weighted>
-15.1152

> <Gold.Chemscore.Internal_Hbond.Weighted>
0.0000

> <Gold.Chemscore.DEClash.Weighted>
0.0140

> <Gold.Chemscore.DEInternal.Weighted>
2.9072

> <Gold.Chemscore.Rot.Weighted>
4.1678

> <Gold.Chemscore.Internal.Correction.Weighted>
   9.000000E+99

> <Gold.Protein.RotatedTorsions>
[ 6907 6896 6895 6894 ] final  -95.77 input  -60.11 | X-H torsion
[ 7974 7965 7964 7962 ] final  113.61 input  175.53 | X-H torsion
[ 8008 7997 7996 7995 ] final -131.93 input   59.86 | X-H torsion
[ 10167 10162 10161 10158 ] final  -44.74 input  -65.29 | X-H torsion
[ 10718 10713 10712 10709 ] final -149.31 input   66.30 | X-H torsion
[ 10763 10752 10751 10750 ] final    3.21 input  -60.55 | X-H torsion
[ 11005 11000 10999 10996 ] final  -34.61 input  -57.11 | X-H torsion

> <Gold.Protein.ActiveResidues>
 VAL166  LYS551  ARG553  GLY616  TRP617  ASP618  TYR619  PRO620  LYS621  CYS622 
 ASP623  PHE694  ASN695  SER759  ASP760  ASP761  ALA762  ILE779  LEU786  VAL792 
 PHE793  MET794  SER795  GLU796  ALA797  LYS798  CYS799  TRP800  GLU811  SER814 

> <Gold.Protein.RotatedAtoms>
  150.6972  134.1607  159.4174 H   0  0  0  0  0  0  0  0  0  0  0  0  # atno 6907 bound_to 6896
  151.9587  135.0132  160.0555 H   0  0  0  0  0  0  0  0  0  0  0  0  # atno 6908 bound_to 6896
  152.1946  133.4762  159.5063 H   0  0  0  0  0  0  0  0  0  0  0  0  # atno 6909 bound_to 6896
  145.2148  139.2889  143.4249 H   0  0  0  0  0  0  0  0  0  0  0  0  # atno 7974 bound_to 7965
  155.3206  140.0462  157.3039 H   0  0  0  0  0  0  0  0  0  0  0  0  # atno 8008 bound_to 7997
  154.5382  140.2279  155.8652 H   0  0  0  0  0  0  0  0  0  0  0  0  # atno 8009 bound_to 7997
  156.1856  140.3063  155.9238 H   0  0  0  0  0  0  0  0  0  0  0  0  # atno 8010 bound_to 7997
  140.6885  143.2914  151.3539 H   0  0  0  0  0  0  0  0  0  0  0  0  # atno 10167 bound_to 10162
  156.4315  130.8078  151.2305 H   0  0  0  0  0  0  0  0  0  0  0  0  # atno 10718 bound_to 10713
  153.2861  135.6944  153.7338 H   0  0  0  0  0  0  0  0  0  0  0  0  # atno 10763 bound_to 10752
  153.6306  135.3411  155.3041 H   0  0  0  0  0  0  0  0  0  0  0  0  # atno 10764 bound_to 10752
  154.8510  135.4408  154.1930 H   0  0  0  0  0  0  0  0  0  0  0  0  # atno 10765 bound_to 10752
  140.9730  133.7099  156.1555 H   0  0  0  0  0  0  0  0  0  0  0  0  # atno 11005 bound_to 11000
  146.3389  140.2435  142.8596 LP  0  0  0  0  0  0  0  0  0  0  0  0  # atno 17320 bound_to 7965
  144.9822  140.8469  143.5390 LP  0  0  0  0  0  0  0  0  0  0  0  0  # atno 17321 bound_to 7965
  139.6265  144.0804  152.2439 LP  0  0  0  0  0  0  0  0  0  0  0  0  # atno 17342 bound_to 10162
  140.0265  144.6113  150.7523 LP  0  0  0  0  0  0  0  0  0  0  0  0  # atno 17343 bound_to 10162
  157.7508  131.0197  150.3676 LP  0  0  0  0  0  0  0  0  0  0  0  0  # atno 17370 bound_to 10713
  156.4015  130.3916  149.6956 LP  0  0  0  0  0  0  0  0  0  0  0  0  # atno 17371 bound_to 10713
  140.7301  134.4264  157.5567 LP  0  0  0  0  0  0  0  0  0  0  0  0  # atno 17394 bound_to 11000
  139.8919  134.8767  156.2295 LP  0  0  0  0  0  0  0  0  0  0  0  0  # atno 17395 bound_to 11000

$$$$
