AV-unprocessed.smi:532|AV-procd|sdf|2848|dock9
  -GOLD-   2262023343D 1   1.00000     0.00000
 Structure written by MMmdl.
 49 51  0  0  0  0  0  0  0  0  1 V2000
  153.0798  138.0691  158.7621 C   0  0  0  0  0  0  0  0  0  0  0  0
  152.8090  137.2834  157.6148 O   0  0  0  0  0  0  0  0  0  0  0  0
  151.8192  137.8621  156.7819 C   0  0  0  0  0  0  0  0  0  0  0  0
  152.3028  139.2517  156.3364 C   0  0  0  0  0  0  0  0  0  0  0  0
  151.1990  140.1395  155.9831 N   0  0  0  0  0  0  0  0  0  0  0  0
  150.8575  141.3569  156.5009 C   0  0  0  0  0  0  0  0  0  0  0  0
  151.5816  142.0084  157.5105 N   0  0  0  0  0  0  0  0  0  0  0  0
  151.5559  143.4609  157.6997 C   0  0  0  0  0  0  0  0  0  0  0  0
  151.2197  143.8474  159.1536 C   0  0  2  0  0  0  0  0  0  0  0  0
  151.1420  145.3704  159.3250 C   0  0  0  0  0  0  0  0  0  0  0  0
  152.2462  143.2238  160.1136 C   0  0  0  0  0  0  0  0  0  0  0  0
  152.3626  141.7119  159.8628 C   0  0  2  0  0  0  0  0  0  0  0  0
  153.4433  141.0725  160.7445 C   0  0  0  0  0  0  0  0  0  0  0  0
  152.6332  141.4540  158.3667 C   0  0  0  0  0  0  0  0  0  0  0  0
  149.7388  141.8737  155.9806 N   0  0  0  0  0  0  0  0  0  0  0  0
  149.3424  140.9273  155.0514 C   0  0  0  0  0  0  0  0  0  0  0  0
  150.1992  139.8766  155.0426 C   0  0  0  0  0  0  0  0  0  0  0  0
  150.0007  138.7101  154.1698 C   0  0  0  0  0  0  0  0  0  0  0  0
  150.7492  137.7354  154.1570 O   0  0  0  0  0  0  0  0  0  0  0  0
  148.9047  138.8161  153.3799 N   0  0  0  0  0  0  0  0  0  0  0  0
  148.0095  139.8491  153.3340 C   0  0  0  0  0  0  0  0  0  0  0  0
  147.0583  139.8047  152.5543 O   0  0  0  0  0  0  0  0  0  0  0  0
  148.2180  140.9099  154.1776 N   0  0  0  0  0  0  0  0  0  0  0  0
  147.2893  142.0420  154.1747 C   0  0  0  0  0  0  0  0  0  0  0  0
  148.7268  138.0430  152.7555 H   0  0  0  0  0  0  0  0  0  0  0  0
  153.8448  137.5826  159.3674 H   0  0  0  0  0  0  0  0  0  0  0  0
  152.1878  138.1869  159.3788 H   0  0  0  0  0  0  0  0  0  0  0  0
  153.4474  139.0581  158.4855 H   0  0  0  0  0  0  0  0  0  0  0  0
  151.6343  137.2180  155.9221 H   0  0  0  0  0  0  0  0  0  0  0  0
  150.8771  137.9396  157.3251 H   0  0  0  0  0  0  0  0  0  0  0  0
  152.8842  139.7175  157.1318 H   0  0  0  0  0  0  0  0  0  0  0  0
  152.9924  139.1728  155.5004 H   0  0  0  0  0  0  0  0  0  0  0  0
  152.5202  143.8794  157.4071 H   0  0  0  0  0  0  0  0  0  0  0  0
  150.8155  143.9068  157.0349 H   0  0  0  0  0  0  0  0  0  0  0  0
  150.2367  143.4379  159.3923 H   0  0  0  0  0  0  0  0  0  0  0  0
  152.0973  145.8439  159.0965 H   0  0  0  0  0  0  0  0  0  0  0  0
  150.8741  145.6368  160.3478 H   0  0  0  0  0  0  0  0  0  0  0  0
  150.3901  145.8016  158.6638 H   0  0  0  0  0  0  0  0  0  0  0  0
  153.2191  143.6958  159.9681 H   0  0  0  0  0  0  0  0  0  0  0  0
  151.9585  143.4133  161.1483 H   0  0  0  0  0  0  0  0  0  0  0  0
  151.4094  141.2539  160.1285 H   0  0  0  0  0  0  0  0  0  0  0  0
  154.4287  141.4854  160.5263 H   0  0  0  0  0  0  0  0  0  0  0  0
  153.4905  139.9948  160.5849 H   0  0  0  0  0  0  0  0  0  0  0  0
  153.2377  141.2404  161.8020 H   0  0  0  0  0  0  0  0  0  0  0  0
  152.7589  140.3916  158.1847 H   0  0  0  0  0  0  0  0  0  0  0  0
  153.5849  141.9058  158.0829 H   0  0  0  0  0  0  0  0  0  0  0  0
  146.2634  141.7026  154.3237 H   0  0  0  0  0  0  0  0  0  0  0  0
  147.3384  142.5696  153.2214 H   0  0  0  0  0  0  0  0  0  0  0  0
  147.5068  142.7640  154.9615 H   0  0  0  0  0  0  0  0  0  0  0  0
  1  2  1  0  0  0  0
  1 26  1  0  0  0  0
  1 27  1  0  0  0  0
  1 28  1  0  0  0  0
  2  3  1  0  0  0  0
  3  4  1  0  0  0  0
  3 29  1  0  0  0  0
  3 30  1  0  0  0  0
  4  5  1  0  0  0  0
  4 31  1  0  0  0  0
  4 32  1  0  0  0  0
  5 17  1  0  0  0  0
  5  6  1  0  0  0  0
  6  7  1  0  0  0  0
  6 15  2  0  0  0  0
  7 14  1  0  0  0  0
  7  8  1  0  0  0  0
  8  9  1  0  0  0  0
  8 33  1  0  0  0  0
  8 34  1  0  0  0  0
  9 10  1  0  0  0  0
  9 11  1  0  0  0  0
  9 35  1  0  0  0  0
 10 36  1  0  0  0  0
 10 37  1  0  0  0  0
 10 38  1  0  0  0  0
 11 12  1  0  0  0  0
 11 39  1  0  0  0  0
 11 40  1  0  0  0  0
 12 13  1  0  0  0  0
 12 14  1  0  0  0  0
 12 41  1  0  0  0  0
 13 42  1  0  0  0  0
 13 43  1  0  0  0  0
 13 44  1  0  0  0  0
 14 45  1  0  0  0  0
 14 46  1  0  0  0  0
 15 16  1  0  0  0  0
 16 23  1  0  0  0  0
 16 17  2  0  0  0  0
 17 18  1  0  0  0  0
 18 19  2  0  0  0  0
 18 20  1  0  0  0  0
 20 25  1  0  0  0  0
 20 21  1  0  0  0  0
 21 22  2  0  0  0  0
 21 23  1  0  0  0  0
 23 24  1  0  0  0  0
 24 47  1  0  0  0  0
 24 48  1  0  0  0  0
 24 49  1  0  0  0  0
M  END
> <s_m_source_file>
AV-unprocessed.smi

> <i_m_source_file_index>
532

> <i_lp_mmshare_version>
43012

> <i_f3d_flags>
0

> <s_epik_input>
W0NIM11uMWMoPU8pW25IXWMoPU8pYyhjMTIpbihbQ0gyXVtDSDJdT1tDSDNdKWMobjIpTjNbQ0gyXVtDQEBIXShbQ0gzXSlbQ0gyXVtDQEBIXShbQ0gzXSlbQ0gyXTM=

> <s_epik_cmdline>
J2VwaWtfcHl0aG9uJywgJy1waCcsICc3LjAnLCAnLXRuJywgJzgnLCAnLW1hJywgJzIwMCcsICctbWV0YWxfYmluZGluZycsICctaW1hZScsICc8aW5maWxlLm1hZT4nLCAnLW9tYWUnLCAnPG91dGZpbGUubWFlPic=

> <r_lp_tautomer_probability>
1

> <r_epik_Ionization_Penalty>
0.000642525

> <r_epik_Ionization_Penalty_Charging>
0.000121571

> <r_epik_Ionization_Penalty_Neutral>
0.000520954

> <r_epik_State_Penalty>
-0

> <r_epik_Charging_Adjusted_Penalty>
0.000121571

> <i_epik_Tot_Q>
0

> <i_epik_Tot_abs_Q>
0

> <r_epik_Metal_State_Penalty>
0.0931709

> <b_epik_Metal_Only>
0

> <s_lp_Force_Field>
OPLS_2005

> <r_lp_Energy>
38.055

> <b_lp_Chiralities_Consistent>
1

> <s_lp_Variant>
AV-unprocessed.smi:532-1

> <Gold.Version>
5.8.1

> <Gold.Id.Protein>
6NUR|6NUR_protein|mol2

> <Gold.PLP.Fitness>
47.7258

> <Gold.PLP.PLP>
-45.3408

> <Gold.PLP.part.hbond>
-2.0000

> <Gold.PLP.part.metal>
0.0000

> <Gold.PLP.part.buried>
-5.5933

> <Gold.PLP.part.nonpolar>
-40.5585

> <Gold.PLP.part.repulsive>
2.3046

> <Gold.PLP.ligand.clash>
0.0000

> <Gold.PLP.ligand.torsion>
0.3287

> <Gold.PLP.Chemscore.Hbond>
1.0000

> <Gold.PLP.Chemscore.CHOScore>
0.0000

> <Gold.PLP.Chemscore.Metal>
0.0000

> <Gold.Chemscore.Hbonds>
donor molecule, donor type, donor heavy atom, donor atom, acceptor molecule, acceptor atom, score
      L1  H    20    25       P1  7948  1.00

> <Gold.PLP.Chemscore.Internal.Correction>
0.0425

> <Gold.Rescore>
     Score         DG    S(hbond)    S(metal)    S(lipo)     H(rot)  DE(clash)    DE(int)     intcor
     15.52     -16.98       0.98        0.00     101.70       1.43       0.17       1.30       ----

> <Gold.Chemscore.Fitness>
15.5162

> <Gold.Chemscore.DG>
-16.9820

> <Gold.Chemscore.ZeroCoef>
-5.4800

> <Gold.Chemscore.Hbond>
0.9789

> <Gold.Chemscore.Metal>
0.0000

> <Gold.Chemscore.Lipo>
101.7043

> <Gold.Chemscore.Internal_Hbond>
0.0000

> <Gold.Chemscore.DEClash>
0.1676

> <Gold.Chemscore.DEInternal>
1.2982

> <Gold.Chemscore.Rot>
1.4324

> <Gold.Chemscore.Internal.Correction>
   9.000000E+99

> <Gold.Chemscore.Hbonds>
donor molecule, donor type, donor heavy atom, donor atom, acceptor molecule, acceptor atom, score
      L1  H    20    25       P1  7948  0.95

> <Gold.Chemscore.Hbond.Weighted>
-3.2695

> <Gold.Chemscore.Metal.Weighted>
-0.0000

> <Gold.Chemscore.Lipo.Weighted>
-11.8994

> <Gold.Chemscore.Internal_Hbond.Weighted>
0.0000

> <Gold.Chemscore.DEClash.Weighted>
0.1676

> <Gold.Chemscore.DEInternal.Weighted>
1.2982

> <Gold.Chemscore.Rot.Weighted>
3.6669

> <Gold.Chemscore.Internal.Correction.Weighted>
   9.000000E+99

> <Gold.Protein.RotatedTorsions>
[ 6907 6896 6895 6894 ] final  -94.70 input  -60.11 | X-H torsion
[ 7974 7965 7964 7962 ] final  -87.99 input  175.53 | X-H torsion
[ 8008 7997 7996 7995 ] final   20.28 input   59.86 | X-H torsion
[ 10167 10162 10161 10158 ] final  -67.93 input  -65.29 | X-H torsion
[ 10718 10713 10712 10709 ] final  -82.75 input   66.30 | X-H torsion
[ 10763 10752 10751 10750 ] final    4.54 input  -60.55 | X-H torsion
[ 11005 11000 10999 10996 ] final   27.07 input  -57.11 | X-H torsion

> <Gold.Protein.ActiveResidues>
 VAL166  LYS551  ARG553  GLY616  TRP617  ASP618  TYR619  PRO620  LYS621  CYS622 
 ASP623  PHE694  ASN695  SER759  ASP760  ASP761  ALA762  ILE779  LEU786  VAL792 
 PHE793  MET794  SER795  GLU796  ALA797  LYS798  CYS799  TRP800  GLU811  SER814 

> <Gold.Protein.RotatedAtoms>
  150.6947  134.1771  159.4234 H   0  0  0  0  0  0  0  0  0  0  0  0  # atno 6907 bound_to 6896
  151.9747  135.0057  160.0564 H   0  0  0  0  0  0  0  0  0  0  0  0  # atno 6908 bound_to 6896
  152.1810  133.4672  159.4995 H   0  0  0  0  0  0  0  0  0  0  0  0  # atno 6909 bound_to 6896
  145.4592  140.9561  143.1979 H   0  0  0  0  0  0  0  0  0  0  0  0  # atno 7974 bound_to 7965
  154.9333  140.3043  155.5157 H   0  0  0  0  0  0  0  0  0  0  0  0  # atno 8008 bound_to 7997
  156.3002  140.2350  156.4332 H   0  0  0  0  0  0  0  0  0  0  0  0  # atno 8009 bound_to 7997
  154.8216  140.0423  157.1403 H   0  0  0  0  0  0  0  0  0  0  0  0  # atno 8010 bound_to 7997
  140.5546  143.2312  151.6846 H   0  0  0  0  0  0  0  0  0  0  0  0  # atno 10167 bound_to 10162
  156.0028  130.4644  150.4152 H   0  0  0  0  0  0  0  0  0  0  0  0  # atno 10718 bound_to 10713
  153.2700  135.6931  153.7490 H   0  0  0  0  0  0  0  0  0  0  0  0  # atno 10763 bound_to 10752
  153.6517  135.3375  155.3103 H   0  0  0  0  0  0  0  0  0  0  0  0  # atno 10764 bound_to 10752
  154.8460  135.4456  154.1719 H   0  0  0  0  0  0  0  0  0  0  0  0  # atno 10765 bound_to 10752
  140.3302  134.2446  155.7703 H   0  0  0  0  0  0  0  0  0  0  0  0  # atno 11005 bound_to 11000
  144.8013  139.6135  143.7070 LP  0  0  0  0  0  0  0  0  0  0  0  0  # atno 17320 bound_to 7965
  146.2461  139.6100  142.9459 LP  0  0  0  0  0  0  0  0  0  0  0  0  # atno 17321 bound_to 7965
  139.5042  144.3763  152.0421 LP  0  0  0  0  0  0  0  0  0  0  0  0  # atno 17342 bound_to 10162
  140.2883  144.3783  150.6097 LP  0  0  0  0  0  0  0  0  0  0  0  0  # atno 17343 bound_to 10162
  157.2212  131.0483  151.2545 LP  0  0  0  0  0  0  0  0  0  0  0  0  # atno 17370 bound_to 10713
  157.3798  130.7225  149.6622 LP  0  0  0  0  0  0  0  0  0  0  0  0  # atno 17371 bound_to 10713
  141.2065  133.7831  157.0173 LP  0  0  0  0  0  0  0  0  0  0  0  0  # atno 17394 bound_to 11000
  140.0867  134.9617  157.1711 LP  0  0  0  0  0  0  0  0  0  0  0  0  # atno 17395 bound_to 11000

$$$$
