AV-unprocessed.smi:743|AV-procd|sdf|3565|dock1
  -GOLD-   22720 0563D 1   1.00000     0.00000
 Structure written by MMmdl.
 28 29  0  0  0  0  0  0  0  0  1 V2000
  148.6753  141.2392  153.9551 C   0  0  0  0  0  0  0  0  0  0  0  0
  149.6059  141.1747  155.0616 N   0  0  0  0  0  0  0  0  0  0  0  0
  149.5554  141.8423  156.2657 C   0  0  0  0  0  0  0  0  0  0  0  0
  150.6536  141.4705  156.9921 C   0  0  0  0  0  0  0  0  0  0  0  0
  151.0784  141.9018  158.3765 C   0  0  1  0  0  0  0  0  0  0  0  0
  152.2188  141.1047  158.8403 N   0  0  0  0  0  0  0  0  0  0  0  0
  153.2739  141.5338  159.5558 C   0  0  0  0  0  0  0  0  0  0  0  0
  154.1516  140.7598  159.9308 O   0  0  0  0  0  0  0  0  0  0  0  0
  153.3971  143.0290  159.8822 C   0  0  0  0  0  0  0  0  0  0  0  0
  152.0727  143.7926  159.7373 C   0  0  0  0  0  0  0  0  0  0  0  0
  151.3782  143.4193  158.4227 C   0  0  2  0  0  0  0  0  0  0  0  0
  150.1609  144.1967  158.2747 N   0  0  0  0  0  0  0  0  0  0  0  0
  151.3191  140.5548  156.1264 C   0  0  0  0  0  0  0  0  0  0  0  0
  150.6933  140.3827  154.9737 N   0  0  0  0  0  0  0  0  0  0  0  0
  152.0417  143.6804  157.5968 H   0  0  0  0  0  0  0  0  0  0  0  0
  147.7100  141.6096  154.3017 H   0  0  0  0  0  0  0  0  0  0  0  0
  148.5372  140.2476  153.5221 H   0  0  0  0  0  0  0  0  0  0  0  0
  149.0620  141.9138  153.1909 H   0  0  0  0  0  0  0  0  0  0  0  0
  148.7495  142.5207  156.5051 H   0  0  0  0  0  0  0  0  0  0  0  0
  150.2767  141.6909  159.0861 H   0  0  0  0  0  0  0  0  0  0  0  0
  152.1831  140.1183  158.6272 H   0  0  0  0  0  0  0  0  0  0  0  0
  153.7901  143.1510  160.8921 H   0  0  0  0  0  0  0  0  0  0  0  0
  154.1383  143.4544  159.2049 H   0  0  0  0  0  0  0  0  0  0  0  0
  151.4231  143.5658  160.5844 H   0  0  0  0  0  0  0  0  0  0  0  0
  152.2672  144.8651  159.7731 H   0  0  0  0  0  0  0  0  0  0  0  0
  149.8717  144.1943  157.3070 H   0  0  0  0  0  0  0  0  0  0  0  0
  149.4148  143.7605  158.7972 H   0  0  0  0  0  0  0  0  0  0  0  0
  152.2370  140.0136  156.3024 H   0  0  0  0  0  0  0  0  0  0  0  0
  1  2  1  0  0  0  0
  1 16  1  0  0  0  0
  1 17  1  0  0  0  0
  1 18  1  0  0  0  0
  2 14  1  0  0  0  0
  2  3  1  0  0  0  0
  3  4  2  0  0  0  0
  3 19  1  0  0  0  0
  4  5  1  0  0  0  0
  4 13  1  0  0  0  0
  5 11  1  0  0  0  0
  5  6  1  0  0  0  0
  5 20  1  0  0  0  0
  6  7  1  0  0  0  0
  6 21  1  0  0  0  0
  7  8  2  0  0  0  0
  7  9  1  0  0  0  0
  9 10  1  0  0  0  0
  9 22  1  0  0  0  0
  9 23  1  0  0  0  0
 10 11  1  0  0  0  0
 10 24  1  0  0  0  0
 10 25  1  0  0  0  0
 11 15  1  0  0  0  0
 11 12  1  0  0  0  0
 12 26  1  0  0  0  0
 12 27  1  0  0  0  0
 13 14  2  0  0  0  0
 13 28  1  0  0  0  0
M  END
> <s_m_source_file>
AV-unprocessed.smi

> <i_m_source_file_index>
743

> <i_lp_mmshare_version>
43012

> <i_f3d_flags>
0

> <s_epik_input>
W0NIM11uMVtjSF1jKFtjSF1uMSlbQ0BASF0yW05IXUMoPU8pW0NIMl1bQ0gyXVtDQEBIXTJbTkgyXQ==

> <s_epik_cmdline>
J2VwaWtfcHl0aG9uJywgJy1waCcsICc3LjAnLCAnLXRuJywgJzgnLCAnLW1hJywgJzIwMCcsICctbWV0YWxfYmluZGluZycsICctaW1hZScsICc8aW5maWxlLm1hZT4nLCAnLW9tYWUnLCAnPG91dGZpbGUubWFlPic=

> <r_lp_tautomer_probability>
1

> <r_epik_Ionization_Penalty>
2.50279

> <r_epik_Ionization_Penalty_Charging>
0

> <r_epik_Ionization_Penalty_Neutral>
2.50279

> <r_epik_State_Penalty>
2.66754

> <r_epik_Charging_Adjusted_Penalty>
2.66754

> <i_epik_Tot_Q>
0

> <i_epik_Tot_abs_Q>
0

> <r_epik_Metal_State_Penalty>
2.66721

> <b_epik_Metal_Only>
0

> <s_lp_Force_Field>
OPLS_2005

> <r_lp_Energy>
8.34042

> <b_lp_Chiralities_Consistent>
1

> <s_lp_Variant>
AV-unprocessed.smi:743-6

> <Gold.Version>
5.8.1

> <Gold.Id.Protein>
6NUR|6NUR_protein|mol2

> <Gold.PLP.Fitness>
38.9700

> <Gold.PLP.PLP>
-30.9773

> <Gold.PLP.part.hbond>
-3.0000

> <Gold.PLP.part.metal>
0.0000

> <Gold.PLP.part.buried>
-3.3045

> <Gold.PLP.part.nonpolar>
-25.2173

> <Gold.PLP.part.repulsive>
0.1719

> <Gold.PLP.ligand.clash>
0.0000

> <Gold.PLP.ligand.torsion>
0.0713

> <Gold.PLP.Chemscore.Hbond>
2.0000

> <Gold.PLP.Chemscore.CHOScore>
0.7031

> <Gold.PLP.Chemscore.Metal>
0.0000

> <Gold.Chemscore.Hbonds>
donor molecule, donor type, donor heavy atom, donor atom, acceptor molecule, acceptor atom, score
      L1  H    12    26       P1  8028  1.00
      P1  H  7989  7998       L1    14  1.00
      L1  C     3    19       P1  8028  0.76

> <Gold.PLP.Chemscore.Internal.Correction>
0.0260

> <Gold.Rescore>
     Score         DG    S(hbond)    S(metal)    S(lipo)     H(rot)  DE(clash)    DE(int)     intcor
     14.75     -14.94       1.26        0.00      66.70       1.00       0.04       0.15       ----

> <Gold.Chemscore.Fitness>
14.7507

> <Gold.Chemscore.DG>
-14.9415

> <Gold.Chemscore.ZeroCoef>
-5.4800

> <Gold.Chemscore.Hbond>
1.2629

> <Gold.Chemscore.Metal>
0.0000

> <Gold.Chemscore.Lipo>
66.6952

> <Gold.Chemscore.Internal_Hbond>
0.0000

> <Gold.Chemscore.DEClash>
0.0407

> <Gold.Chemscore.DEInternal>
0.1500

> <Gold.Chemscore.Rot>
1.0000

> <Gold.Chemscore.Internal.Correction>
   9.000000E+99

> <Gold.Chemscore.Hbonds>
donor molecule, donor type, donor heavy atom, donor atom, acceptor molecule, acceptor atom, score
      L1  H    12    26       P1  8028  0.54
      P1  H  7989  7998       L1    14  0.58

> <Gold.Chemscore.Hbond.Weighted>
-4.2181

> <Gold.Chemscore.Metal.Weighted>
-0.0000

> <Gold.Chemscore.Lipo.Weighted>
-7.8033

> <Gold.Chemscore.Internal_Hbond.Weighted>
0.0000

> <Gold.Chemscore.DEClash.Weighted>
0.0407

> <Gold.Chemscore.DEInternal.Weighted>
0.1500

> <Gold.Chemscore.Rot.Weighted>
2.5600

> <Gold.Chemscore.Internal.Correction.Weighted>
   9.000000E+99

> <Gold.Protein.RotatedTorsions>
[ 6907 6896 6895 6894 ] final   -9.36 input  -60.11 | X-H torsion
[ 7974 7965 7964 7962 ] final -119.11 input  175.53 | X-H torsion
[ 8008 7997 7996 7995 ] final  -63.81 input   59.86 | X-H torsion
[ 10167 10162 10161 10158 ] final -171.48 input  -65.29 | X-H torsion
[ 10718 10713 10712 10709 ] final  176.12 input   66.30 | X-H torsion
[ 10763 10752 10751 10750 ] final   66.40 input  -60.55 | X-H torsion
[ 11005 11000 10999 10996 ] final   15.10 input  -57.11 | X-H torsion

> <Gold.Protein.ActiveResidues>
 VAL166  LYS551  ARG553  GLY616  TRP617  ASP618  TYR619  PRO620  LYS621  CYS622 
 ASP623  PHE694  ASN695  SER759  ASP760  ASP761  ALA762  ILE779  LEU786  VAL792 
 PHE793  MET794  SER795  GLU796  ALA797  LYS798  CYS799  TRP800  GLU811  SER814 

> <Gold.Protein.RotatedAtoms>
  151.4190  135.0995  159.9607 H   0  0  0  0  0  0  0  0  0  0  0  0  # atno 6907 bound_to 6896
  152.4995  133.8725  159.7316 H   0  0  0  0  0  0  0  0  0  0  0  0  # atno 6908 bound_to 6896
  150.9237  133.6792  159.2854 H   0  0  0  0  0  0  0  0  0  0  0  0  # atno 6909 bound_to 6896
  145.0662  140.8326  143.4123 H   0  0  0  0  0  0  0  0  0  0  0  0  # atno 7974 bound_to 7965
  154.4575  140.0967  156.6800 H   0  0  0  0  0  0  0  0  0  0  0  0  # atno 8008 bound_to 7997
  155.5092  140.3476  155.4367 H   0  0  0  0  0  0  0  0  0  0  0  0  # atno 8009 bound_to 7997
  156.0807  140.1372  156.9704 H   0  0  0  0  0  0  0  0  0  0  0  0  # atno 8010 bound_to 7997
  139.5800  144.1445  152.1502 H   0  0  0  0  0  0  0  0  0  0  0  0  # atno 10167 bound_to 10162
  156.9248  130.9952  151.2998 H   0  0  0  0  0  0  0  0  0  0  0  0  # atno 10718 bound_to 10713
  153.0138  135.5321  154.6818 H   0  0  0  0  0  0  0  0  0  0  0  0  # atno 10763 bound_to 10752
  154.5976  135.2865  155.0572 H   0  0  0  0  0  0  0  0  0  0  0  0  # atno 10764 bound_to 10752
  154.1641  135.6543  153.5045 H   0  0  0  0  0  0  0  0  0  0  0  0  # atno 10765 bound_to 10752
  140.4621  134.1117  155.7718 H   0  0  0  0  0  0  0  0  0  0  0  0  # atno 11005 bound_to 11000
  145.1348  139.2609  143.5520 LP  0  0  0  0  0  0  0  0  0  0  0  0  # atno 17320 bound_to 7965
  146.3527  140.1009  142.8608 LP  0  0  0  0  0  0  0  0  0  0  0  0  # atno 17321 bound_to 7965
  140.0996  144.5550  150.6998 LP  0  0  0  0  0  0  0  0  0  0  0  0  # atno 17342 bound_to 10162
  140.7079  143.2482  151.4671 LP  0  0  0  0  0  0  0  0  0  0  0  0  # atno 17343 bound_to 10162
  157.5885  130.8426  149.8624 LP  0  0  0  0  0  0  0  0  0  0  0  0  # atno 17370 bound_to 10713
  156.0474  130.3725  150.1283 LP  0  0  0  0  0  0  0  0  0  0  0  0  # atno 17371 bound_to 10713
  141.1616  133.8781  157.1831 LP  0  0  0  0  0  0  0  0  0  0  0  0  # atno 17394 bound_to 11000
  139.9939  135.0054  157.0037 LP  0  0  0  0  0  0  0  0  0  0  0  0  # atno 17395 bound_to 11000

$$$$
