AV-unprocessed.smi:2838|AV-procd|sdf|10929|dock2
  -GOLD-   2272015373D 1   1.00000     0.00000
 Structure written by MMmdl.
 48 49  0  0  0  0  0  0  0  0  1 V2000
  144.2367  135.6880  153.4253 C   0  0  0  0  0  0  0  0  0  0  0  0
  144.9771  136.1109  152.1446 C   0  0  1  0  0  0  0  0  0  0  0  0
  146.2830  136.6461  152.5332 N   0  0  0  0  0  0  0  0  0  0  0  0
  146.5120  137.5321  153.5142 C   0  0  0  0  0  0  0  0  0  0  0  0
  145.6270  138.0101  154.2228 O   0  0  0  0  0  0  0  0  0  0  0  0
  147.8230  137.8092  153.6177 N   0  0  0  0  0  0  0  0  0  0  0  0
  148.4699  138.7039  154.5123 C   0  0  0  0  0  0  0  0  0  0  0  0
  149.6885  139.2950  154.1237 C   0  0  0  0  0  0  0  0  0  0  0  0
  150.3484  140.1632  154.9186 N   0  0  0  0  0  0  0  0  0  0  0  0
  149.7846  140.4853  156.0902 C   0  0  0  0  0  0  0  0  0  0  0  0
  150.6105  141.3564  157.0532 C   0  0  0  0  0  0  0  0  0  0  0  0
  149.8013  141.6981  158.3264 C   0  0  0  0  0  0  0  0  0  0  0  0
  150.9782  142.7117  156.4043 C   0  0  0  0  0  0  0  0  0  0  0  0
  151.8990  140.6095  157.4441 C   0  0  0  0  0  0  0  0  0  0  0  0
  148.6480  139.9602  156.5665 N   0  0  0  0  0  0  0  0  0  0  0  0
  147.9783  139.0886  155.7825 C   0  0  0  0  0  0  0  0  0  0  0  0
  145.1402  134.9558  151.1203 C   0  0  0  0  0  0  0  0  0  0  0  0
  143.8646  134.0967  150.9813 C   0  0  0  0  0  0  0  0  0  0  0  0
  144.0854  132.9152  150.0234 C   0  0  0  0  0  0  0  0  0  0  0  0
  145.1750  132.1211  150.4746 O   0  0  0  0  0  0  0  0  0  0  0  0
  146.4029  132.8378  150.4925 C   0  0  0  0  0  0  0  0  0  0  0  0
  146.3121  134.0175  151.4739 C   0  0  0  0  0  0  0  0  0  0  0  0
  143.2047  135.4036  153.2217 H   0  0  0  0  0  0  0  0  0  0  0  0
  144.2008  136.5078  154.1439 H   0  0  0  0  0  0  0  0  0  0  0  0
  144.7284  134.8439  153.9096 H   0  0  0  0  0  0  0  0  0  0  0  0
  144.3845  136.8968  151.6736 H   0  0  0  0  0  0  0  0  0  0  0  0
  147.0780  136.3122  152.0085 H   0  0  0  0  0  0  0  0  0  0  0  0
  148.4365  137.2874  153.0092 H   0  0  0  0  0  0  0  0  0  0  0  0
  150.1447  139.0646  153.1719 H   0  0  0  0  0  0  0  0  0  0  0  0
  150.3655  142.3526  158.9916 H   0  0  0  0  0  0  0  0  0  0  0  0
  149.5494  140.8071  158.9027 H   0  0  0  0  0  0  0  0  0  0  0  0
  148.8687  142.2071  158.0796 H   0  0  0  0  0  0  0  0  0  0  0  0
  150.0874  143.2578  156.0911 H   0  0  0  0  0  0  0  0  0  0  0  0
  151.6146  142.5860  155.5277 H   0  0  0  0  0  0  0  0  0  0  0  0
  151.5252  143.3492  157.1000 H   0  0  0  0  0  0  0  0  0  0  0  0
  152.5084  141.1990  158.1297 H   0  0  0  0  0  0  0  0  0  0  0  0
  152.5092  140.3884  156.5677 H   0  0  0  0  0  0  0  0  0  0  0  0
  151.6741  139.6619  157.9352 H   0  0  0  0  0  0  0  0  0  0  0  0
  147.0478  138.7234  156.1870 H   0  0  0  0  0  0  0  0  0  0  0  0
  145.3484  135.3972  150.1442 H   0  0  0  0  0  0  0  0  0  0  0  0
  143.5672  133.7181  151.9601 H   0  0  0  0  0  0  0  0  0  0  0  0
  143.0309  134.6949  150.6133 H   0  0  0  0  0  0  0  0  0  0  0  0
  143.1906  132.2940  149.9845 H   0  0  0  0  0  0  0  0  0  0  0  0
  144.2720  133.2662  149.0074 H   0  0  0  0  0  0  0  0  0  0  0  0
  147.1998  132.1595  150.7975 H   0  0  0  0  0  0  0  0  0  0  0  0
  146.6489  133.1857  149.4880 H   0  0  0  0  0  0  0  0  0  0  0  0
  147.2587  134.5566  151.4589 H   0  0  0  0  0  0  0  0  0  0  0  0
  146.1860  133.6349  152.4878 H   0  0  0  0  0  0  0  0  0  0  0  0
  1  2  1  0  0  0  0
  1 23  1  0  0  0  0
  1 24  1  0  0  0  0
  1 25  1  0  0  0  0
  2  3  1  0  0  0  0
  2 17  1  0  0  0  0
  2 26  1  0  0  0  0
  3  4  1  0  0  0  0
  3 27  1  0  0  0  0
  4  5  2  0  0  0  0
  4  6  1  0  0  0  0
  6  7  1  0  0  0  0
  6 28  1  0  0  0  0
  7 16  1  0  0  0  0
  7  8  2  0  0  0  0
  8  9  1  0  0  0  0
  8 29  1  0  0  0  0
  9 10  2  0  0  0  0
 10 11  1  0  0  0  0
 10 15  1  0  0  0  0
 11 12  1  0  0  0  0
 11 13  1  0  0  0  0
 11 14  1  0  0  0  0
 12 30  1  0  0  0  0
 12 31  1  0  0  0  0
 12 32  1  0  0  0  0
 13 33  1  0  0  0  0
 13 34  1  0  0  0  0
 13 35  1  0  0  0  0
 14 36  1  0  0  0  0
 14 37  1  0  0  0  0
 14 38  1  0  0  0  0
 15 16  2  0  0  0  0
 16 39  1  0  0  0  0
 17 22  1  0  0  0  0
 17 18  1  0  0  0  0
 17 40  1  0  0  0  0
 18 19  1  0  0  0  0
 18 41  1  0  0  0  0
 18 42  1  0  0  0  0
 19 20  1  0  0  0  0
 19 43  1  0  0  0  0
 19 44  1  0  0  0  0
 20 21  1  0  0  0  0
 21 22  1  0  0  0  0
 21 45  1  0  0  0  0
 21 46  1  0  0  0  0
 22 47  1  0  0  0  0
 22 48  1  0  0  0  0
M  END
> <s_m_source_file>
AV-unprocessed.smi

> <i_m_source_file_index>
2838

> <i_lp_mmshare_version>
43012

> <i_f3d_flags>
0

> <s_epik_input>
W0NIMl0xW0NIMl1PW0NIMl1bQ0gyXVtDSF0xW0NASF0oW0NIM10pW05IXUMoPU8pW05IXWMyW2NIXW5jKEMoW0NIM10pKFtDSDNdKVtDSDNdKW5bY0hdMg==

> <s_epik_cmdline>
J2VwaWtfcHl0aG9uJywgJy1waCcsICc3LjAnLCAnLXRuJywgJzgnLCAnLW1hJywgJzIwMCcsICctbWV0YWxfYmluZGluZycsICctaW1hZScsICc8aW5maWxlLm1hZT4nLCAnLW9tYWUnLCAnPG91dGZpbGUubWFlPic=

> <r_lp_tautomer_probability>
1

> <r_epik_Ionization_Penalty>
2.74753e-05

> <r_epik_Ionization_Penalty_Charging>
0

> <r_epik_Ionization_Penalty_Neutral>
2.74753e-05

> <r_epik_State_Penalty>
-0

> <r_epik_Charging_Adjusted_Penalty>
0

> <i_epik_Tot_Q>
0

> <i_epik_Tot_abs_Q>
0

> <r_epik_Metal_State_Penalty>
-0

> <b_epik_Metal_Only>
0

> <s_lp_Force_Field>
OPLS_2005

> <r_lp_Energy>
9.11835

> <b_lp_Chiralities_Consistent>
1

> <s_lp_Variant>
AV-unprocessed.smi:2838-2

> <Gold.Version>
5.8.1

> <Gold.Id.Protein>
6NUR|6NUR_protein|mol2

> <Gold.PLP.Fitness>
38.9918

> <Gold.PLP.PLP>
-29.2391

> <Gold.PLP.part.hbond>
-3.0000

> <Gold.PLP.part.metal>
0.0000

> <Gold.PLP.part.buried>
-2.2060

> <Gold.PLP.part.nonpolar>
-24.8262

> <Gold.PLP.part.repulsive>
0.3727

> <Gold.PLP.ligand.clash>
0.0000

> <Gold.PLP.ligand.torsion>
0.7547

> <Gold.PLP.Chemscore.Hbond>
2.7940

> <Gold.PLP.Chemscore.CHOScore>
0.9078

> <Gold.PLP.Chemscore.Metal>
0.0000

> <Gold.Chemscore.Hbonds>
donor molecule, donor type, donor heavy atom, donor atom, acceptor molecule, acceptor atom, score
      L1  H     3    27       P1  7948  0.98
      L1  H     6    28       P1  7948  1.00
      P1  H  7989  7998       L1     9  0.83
      L1  C     8    29       P1  7957  0.93

> <Gold.PLP.Chemscore.Internal.Correction>
0.1567

> <Gold.Rescore>
     Score         DG    S(hbond)    S(metal)    S(lipo)     H(rot)  DE(clash)    DE(int)     intcor
     15.34     -18.56       2.03        0.00      83.07       1.34       0.39       2.83       ----

> <Gold.Chemscore.Fitness>
15.3358

> <Gold.Chemscore.DG>
-18.5622

> <Gold.Chemscore.ZeroCoef>
-5.4800

> <Gold.Chemscore.Hbond>
2.0304

> <Gold.Chemscore.Metal>
0.0000

> <Gold.Chemscore.Lipo>
83.0700

> <Gold.Chemscore.Internal_Hbond>
0.0000

> <Gold.Chemscore.DEClash>
0.3918

> <Gold.Chemscore.DEInternal>
2.8345

> <Gold.Chemscore.Rot>
1.3354

> <Gold.Chemscore.Internal.Correction>
   9.000000E+99

> <Gold.Chemscore.Hbonds>
donor molecule, donor type, donor heavy atom, donor atom, acceptor molecule, acceptor atom, score
      L1  H     3    27       P1  7948  0.92
      L1  H     6    28       P1  7948  0.99
      P1  H  7989  7998       L1     9  0.13

> <Gold.Chemscore.Hbond.Weighted>
-6.7815

> <Gold.Chemscore.Metal.Weighted>
-0.0000

> <Gold.Chemscore.Lipo.Weighted>
-9.7192

> <Gold.Chemscore.Internal_Hbond.Weighted>
0.0000

> <Gold.Chemscore.DEClash.Weighted>
0.3918

> <Gold.Chemscore.DEInternal.Weighted>
2.8345

> <Gold.Chemscore.Rot.Weighted>
3.4185

> <Gold.Chemscore.Internal.Correction.Weighted>
   9.000000E+99

> <Gold.Protein.RotatedTorsions>
[ 6907 6896 6895 6894 ] final   43.77 input  -60.11 | X-H torsion
[ 7974 7965 7964 7962 ] final  -95.85 input  175.53 | X-H torsion
[ 8008 7997 7996 7995 ] final  -99.89 input   59.86 | X-H torsion
[ 10167 10162 10161 10158 ] final   48.41 input  -65.29 | X-H torsion
[ 10718 10713 10712 10709 ] final -143.29 input   66.30 | X-H torsion
[ 10763 10752 10751 10750 ] final  -81.31 input  -60.55 | X-H torsion
[ 11005 11000 10999 10996 ] final   55.71 input  -57.11 | X-H torsion

> <Gold.Protein.ActiveResidues>
 VAL166  LYS551  ARG553  GLY616  TRP617  ASP618  TYR619  PRO620  LYS621  CYS622 
 ASP623  PHE694  ASN695  SER759  ASP760  ASP761  ALA762  ILE779  LEU786  VAL792 
 PHE793  MET794  SER795  GLU796  ALA797  LYS798  CYS799  TRP800  GLU811  SER814 

> <Gold.Protein.RotatedAtoms>
  152.2243  134.8383  160.0481 H   0  0  0  0  0  0  0  0  0  0  0  0  # atno 6907 bound_to 6896
  151.9155  133.3567  159.3887 H   0  0  0  0  0  0  0  0  0  0  0  0  # atno 6908 bound_to 6896
  150.7008  134.4614  159.5426 H   0  0  0  0  0  0  0  0  0  0  0  0  # atno 6909 bound_to 6896
  145.3546  140.9482  143.2535 H   0  0  0  0  0  0  0  0  0  0  0  0  # atno 7974 bound_to 7965
  154.8210  140.0444  157.1410 H   0  0  0  0  0  0  0  0  0  0  0  0  # atno 8008 bound_to 7997
  154.9260  140.3033  155.5172 H   0  0  0  0  0  0  0  0  0  0  0  0  # atno 8009 bound_to 7997
  156.2980  140.2332  156.4315 H   0  0  0  0  0  0  0  0  0  0  0  0  # atno 8010 bound_to 7997
  140.2935  144.3018  150.6235 H   0  0  0  0  0  0  0  0  0  0  0  0  # atno 10167 bound_to 10162
  156.3561  130.7714  151.1874 H   0  0  0  0  0  0  0  0  0  0  0  0  # atno 10718 bound_to 10713
  154.5620  135.5631  153.7016 H   0  0  0  0  0  0  0  0  0  0  0  0  # atno 10763 bound_to 10752
  153.0021  135.6276  154.2232 H   0  0  0  0  0  0  0  0  0  0  0  0  # atno 10764 bound_to 10752
  154.2170  135.2871  155.2918 H   0  0  0  0  0  0  0  0  0  0  0  0  # atno 10765 bound_to 10752
  140.0586  134.5635  155.9179 H   0  0  0  0  0  0  0  0  0  0  0  0  # atno 11005 bound_to 11000
  144.8692  139.5063  143.6776 LP  0  0  0  0  0  0  0  0  0  0  0  0  # atno 17320 bound_to 7965
  146.2953  139.7261  142.9131 LP  0  0  0  0  0  0  0  0  0  0  0  0  # atno 17321 bound_to 7965
  140.5712  143.2181  151.7596 LP  0  0  0  0  0  0  0  0  0  0  0  0  # atno 17342 bound_to 10162
  139.4932  144.4214  151.9973 LP  0  0  0  0  0  0  0  0  0  0  0  0  # atno 17343 bound_to 10162
  157.7467  131.0413  150.4642 LP  0  0  0  0  0  0  0  0  0  0  0  0  # atno 17370 bound_to 10713
  156.4845  130.4081  149.6442 LP  0  0  0  0  0  0  0  0  0  0  0  0  # atno 17371 bound_to 10713
  141.1963  133.6591  156.5685 LP  0  0  0  0  0  0  0  0  0  0  0  0  # atno 17394 bound_to 11000
  140.3806  134.7527  157.4658 LP  0  0  0  0  0  0  0  0  0  0  0  0  # atno 17395 bound_to 11000

$$$$
