AV-unprocessed.smi:2706|AV-procd|sdf|10448|dock4
  -GOLD-   2272014493D 1   1.00000     0.00000
 Structure written by MMmdl.
 44 47  0  0  0  0  0  0  0  0  2 V2000
  145.3486  143.2488  155.5475 C   0  0  0  0  0  0  0  0  0  0  0  0
  145.9769  142.8014  154.3111 N   0  0  0  0  0  0  0  0  0  0  0  0
  146.0809  143.7094  153.1740 C   0  0  0  0  0  0  0  0  0  0  0  0
  146.6358  141.5540  154.2746 C   0  0  0  0  0  0  0  0  0  0  0  0
  147.8334  141.2891  154.9800 C   0  0  0  0  0  0  0  0  0  0  0  0
  148.4269  140.0156  154.8887 C   0  0  0  0  0  0  0  0  0  0  0  0
  147.8215  139.0206  154.0967 C   0  0  0  0  0  0  0  0  0  0  0  0
  146.6221  139.3175  153.4024 C   0  0  0  0  0  0  0  0  0  0  0  0
  145.9073  138.4106  152.5704 N   0  0  0  0  0  0  0  0  0  0  0  0
  145.7561  137.0783  152.6819 C   0  0  0  0  0  0  0  0  0  0  0  0
  146.2336  136.3756  153.5718 O   0  0  0  0  0  0  0  0  0  0  0  0
  145.0053  136.5943  151.6822 N   0  0  0  0  0  0  0  0  0  0  0  0
  144.6487  135.2242  151.5001 C   0  0  2  0  0  0  0  0  0  0  0  0
  145.7807  134.2181  151.4653 C   0  0  1  0  0  0  0  0  0  0  0  0
  145.6601  132.6966  151.5145 C   0  0  1  0  0  0  0  0  0  0  0  0
  144.2145  132.2582  151.8277 C   0  0  0  0  0  0  0  0  0  0  0  0
  143.4657  132.6264  150.5276 C   0  0  0  0  0  0  0  0  0  0  0  0
  144.5887  133.2236  149.6545 C   0  0  2  0  0  0  0  0  0  0  0  0
  145.7595  132.3243  150.0387 C   0  0  0  0  0  0  0  0  0  0  0  0
  145.0439  134.5804  150.1869 C   0  0  1  0  0  0  0  0  0  0  0  0
  146.0970  140.5583  153.5287 N   0  3  0  0  0  0  0  0  0  0  0  0
  146.0785  143.2839  156.3571 H   0  0  0  0  0  0  0  0  0  0  0  0
  144.5405  142.5749  155.8340 H   0  0  0  0  0  0  0  0  0  0  0  0
  144.9248  144.2474  155.4383 H   0  0  0  0  0  0  0  0  0  0  0  0
  147.1190  144.0007  153.0110 H   0  0  0  0  0  0  0  0  0  0  0  0
  145.5006  144.6178  153.3379 H   0  0  0  0  0  0  0  0  0  0  0  0
  145.7047  143.2357  152.2668 H   0  0  0  0  0  0  0  0  0  0  0  0
  148.3071  142.0422  155.5918 H   0  0  0  0  0  0  0  0  0  0  0  0
  149.3411  139.8032  155.4235 H   0  0  0  0  0  0  0  0  0  0  0  0
  148.2979  138.0548  154.0455 H   0  0  0  0  0  0  0  0  0  0  0  0
  145.4507  138.8326  151.7754 H   0  0  0  0  0  0  0  0  0  0  0  0
  144.6547  137.2433  150.9929 H   0  0  0  0  0  0  0  0  0  0  0  0
  143.7099  134.9107  151.9500 H   0  0  0  0  0  0  0  0  0  0  0  0
  146.7984  134.5969  151.5454 H   0  0  0  0  0  0  0  0  0  0  0  0
  146.4150  132.2424  152.1567 H   0  0  0  0  0  0  0  0  0  0  0  0
  144.1676  131.1823  152.0018 H   0  0  0  0  0  0  0  0  0  0  0  0
  143.8088  132.7510  152.7116 H   0  0  0  0  0  0  0  0  0  0  0  0
  143.0500  131.7318  150.0618 H   0  0  0  0  0  0  0  0  0  0  0  0
  142.6429  133.3233  150.6895 H   0  0  0  0  0  0  0  0  0  0  0  0
  144.3613  133.2528  148.5885 H   0  0  0  0  0  0  0  0  0  0  0  0
  146.7034  132.6254  149.5804 H   0  0  0  0  0  0  0  0  0  0  0  0
  145.5854  131.2650  149.8388 H   0  0  0  0  0  0  0  0  0  0  0  0
  145.6051  135.1834  149.4749 H   0  0  0  0  0  0  0  0  0  0  0  0
  145.2335  140.7654  153.0274 H   0  0  0  0  0  0  0  0  0  0  0  0
  1  2  1  0  0  0  0
  1 22  1  0  0  0  0
  1 23  1  0  0  0  0
  1 24  1  0  0  0  0
  2  3  1  0  0  0  0
  2  4  1  0  0  0  0
  3 25  1  0  0  0  0
  3 26  1  0  0  0  0
  3 27  1  0  0  0  0
  4 21  1  0  0  0  0
  4  5  2  0  0  0  0
  5  6  1  0  0  0  0
  5 28  1  0  0  0  0
  6  7  2  0  0  0  0
  6 29  1  0  0  0  0
  7  8  1  0  0  0  0
  7 30  1  0  0  0  0
  8  9  1  0  0  0  0
  8 21  2  0  0  0  0
  9 10  1  0  0  0  0
  9 31  1  0  0  0  0
 10 11  2  0  0  0  0
 10 12  1  0  0  0  0
 12 13  1  0  0  0  0
 12 32  1  0  0  0  0
 13 20  1  0  0  0  0
 13 14  1  0  0  0  0
 13 33  1  0  0  0  0
 14 20  1  0  0  0  0
 14 15  1  0  0  0  0
 14 34  1  0  0  0  0
 15 19  1  0  0  0  0
 15 16  1  0  0  0  0
 15 35  1  0  0  0  0
 16 17  1  0  0  0  0
 16 36  1  0  0  0  0
 16 37  1  0  0  0  0
 17 18  1  0  0  0  0
 17 38  1  0  0  0  0
 17 39  1  0  0  0  0
 18 19  1  0  0  0  0
 18 20  1  0  0  0  0
 18 40  1  0  0  0  0
 19 41  1  0  0  0  0
 19 42  1  0  0  0  0
 20 43  1  0  0  0  0
 21 44  1  0  0  0  0
M  CHG  1  21   1
M  END
> <s_m_source_file>
AV-unprocessed.smi

> <i_m_source_file_index>
2706

> <i_lp_mmshare_version>
43012

> <i_f3d_flags>
0

> <s_epik_input>
W0NIM11OKFtDSDNdKWMxW2NIXVtjSF1bY0hdYyhuMSlbTkhdQyg9TylbTkhdW0NASF0yW0NAQEhdM1tDQEBIXShbQ0gyXTQpW0NIMl1bQ0gyXVtDQEBIXTRbQ0BIXTIz

> <s_epik_cmdline>
J2VwaWtfcHl0aG9uJywgJy1waCcsICc3LjAnLCAnLXRuJywgJzgnLCAnLW1hJywgJzIwMCcsICctbWV0YWxfYmluZGluZycsICctaW1hZScsICc8aW5maWxlLm1hZT4nLCAnLW9tYWUnLCAnPG91dGZpbGUubWFlPic=

> <r_lp_tautomer_probability>
0.999994

> <r_epik_Ionization_Penalty>
1.8105

> <r_epik_Ionization_Penalty_Charging>
1.79227

> <r_epik_Ionization_Penalty_Neutral>
0.0182286

> <r_epik_State_Penalty>
1.90588

> <r_epik_Charging_Adjusted_Penalty>
3.69815

> <i_epik_Tot_Q>
1

> <i_epik_Tot_abs_Q>
1

> <r_epik_Metal_State_Penalty>
1.93501

> <b_epik_Metal_Only>
0

> <s_lp_Force_Field>
OPLS_2005

> <r_lp_Energy>
87.3902

> <b_lp_Chiralities_Consistent>
1

> <s_lp_Variant>
AV-unprocessed.smi:2706-5

> <Gold.Version>
5.8.1

> <Gold.Id.Protein>
6NUR|6NUR_protein|mol2

> <Gold.PLP.Fitness>
46.2182

> <Gold.PLP.PLP>
-39.6032

> <Gold.PLP.part.hbond>
-3.0803

> <Gold.PLP.part.metal>
0.0000

> <Gold.PLP.part.buried>
-0.6023

> <Gold.PLP.part.nonpolar>
-37.8477

> <Gold.PLP.part.repulsive>
2.3535

> <Gold.PLP.ligand.clash>
0.0000

> <Gold.PLP.ligand.torsion>
1.6042

> <Gold.PLP.Chemscore.Hbond>
3.2564

> <Gold.PLP.Chemscore.CHOScore>
0.0000

> <Gold.PLP.Chemscore.Metal>
0.0000

> <Gold.Chemscore.Hbonds>
donor molecule, donor type, donor heavy atom, donor atom, acceptor molecule, acceptor atom, score
      L1  H    12    32       P1 10171  1.00
      L1  H    21    44       P1 10175  2.00

> <Gold.PLP.Chemscore.Internal.Correction>
0.0543

> <Gold.Rescore>
     Score         DG    S(hbond)    S(metal)    S(lipo)     H(rot)  DE(clash)    DE(int)     intcor
     13.70     -21.01       2.00        0.00      97.46       1.00       3.68       3.63       ----

> <Gold.Chemscore.Fitness>
13.7015

> <Gold.Chemscore.DG>
-21.0145

> <Gold.Chemscore.ZeroCoef>
-5.4800

> <Gold.Chemscore.Hbond>
2.0034

> <Gold.Chemscore.Metal>
0.0000

> <Gold.Chemscore.Lipo>
97.4633

> <Gold.Chemscore.Internal_Hbond>
0.0000

> <Gold.Chemscore.DEClash>
3.6826

> <Gold.Chemscore.DEInternal>
3.6304

> <Gold.Chemscore.Rot>
1.0000

> <Gold.Chemscore.Internal.Correction>
   9.000000E+99

> <Gold.Chemscore.Hbonds>
donor molecule, donor type, donor heavy atom, donor atom, acceptor molecule, acceptor atom, score
      L1  H     9    31       P1 10171  0.01
      L1  H    12    32       P1 10171  0.99
      L1  H    21    44       P1 10175  0.60

> <Gold.Chemscore.Hbond.Weighted>
-6.6913

> <Gold.Chemscore.Metal.Weighted>
-0.0000

> <Gold.Chemscore.Lipo.Weighted>
-11.4032

> <Gold.Chemscore.Internal_Hbond.Weighted>
0.0000

> <Gold.Chemscore.DEClash.Weighted>
3.6826

> <Gold.Chemscore.DEInternal.Weighted>
3.6304

> <Gold.Chemscore.Rot.Weighted>
2.5600

> <Gold.Chemscore.Internal.Correction.Weighted>
   9.000000E+99

> <Gold.Protein.RotatedTorsions>
[ 6907 6896 6895 6894 ] final  -73.91 input  -60.11 | X-H torsion
[ 7974 7965 7964 7962 ] final   53.45 input  175.53 | X-H torsion
[ 8008 7997 7996 7995 ] final  102.51 input   59.86 | X-H torsion
[ 10167 10162 10161 10158 ] final -152.63 input  -65.29 | X-H torsion
[ 10718 10713 10712 10709 ] final  176.43 input   66.30 | X-H torsion
[ 10763 10752 10751 10750 ] final   91.89 input  -60.55 | X-H torsion
[ 11005 11000 10999 10996 ] final  154.61 input  -57.11 | X-H torsion

> <Gold.Protein.ActiveResidues>
 VAL166  LYS551  ARG553  GLY616  TRP617  ASP618  TYR619  PRO620  LYS621  CYS622 
 ASP623  PHE694  ASN695  SER759  ASP760  ASP761  ALA762  ILE779  LEU786  VAL792 
 PHE793  MET794  SER795  GLU796  ALA797  LYS798  CYS799  TRP800  GLU811  SER814 

> <Gold.Protein.RotatedAtoms>
  150.7112  134.4947  159.5532 H   0  0  0  0  0  0  0  0  0  0  0  0  # atno 6907 bound_to 6896
  152.2557  134.8083  160.0448 H   0  0  0  0  0  0  0  0  0  0  0  0  # atno 6908 bound_to 6896
  151.8815  133.3461  159.3804 H   0  0  0  0  0  0  0  0  0  0  0  0  # atno 6909 bound_to 6896
  145.9711  139.4150  143.0190 H   0  0  0  0  0  0  0  0  0  0  0  0  # atno 7974 bound_to 7965
  156.1400  140.3180  155.8480 H   0  0  0  0  0  0  0  0  0  0  0  0  # atno 8008 bound_to 7997
  155.4173  140.0510  157.3045 H   0  0  0  0  0  0  0  0  0  0  0  0  # atno 8009 bound_to 7997
  154.4968  140.2114  155.9442 H   0  0  0  0  0  0  0  0  0  0  0  0  # atno 8010 bound_to 7997
  139.7165  143.9025  152.2488 H   0  0  0  0  0  0  0  0  0  0  0  0  # atno 10167 bound_to 10162
  156.9202  130.9938  151.3006 H   0  0  0  0  0  0  0  0  0  0  0  0  # atno 10718 bound_to 10713
  153.2132  135.4381  155.0403 H   0  0  0  0  0  0  0  0  0  0  0  0  # atno 10763 bound_to 10752
  154.8211  135.3338  154.7038 H   0  0  0  0  0  0  0  0  0  0  0  0  # atno 10764 bound_to 10752
  153.7474  135.7000  153.5009 H   0  0  0  0  0  0  0  0  0  0  0  0  # atno 10765 bound_to 10752
  140.1505  134.8678  157.2448 H   0  0  0  0  0  0  0  0  0  0  0  0  # atno 11005 bound_to 11000
  145.7905  140.9816  143.1051 LP  0  0  0  0  0  0  0  0  0  0  0  0  # atno 17320 bound_to 7965
  144.6837  139.9677  143.7481 LP  0  0  0  0  0  0  0  0  0  0  0  0  # atno 17321 bound_to 7965
  139.8909  144.6966  150.8772 LP  0  0  0  0  0  0  0  0  0  0  0  0  # atno 17342 bound_to 10162
  140.7745  143.3587  151.1870 LP  0  0  0  0  0  0  0  0  0  0  0  0  # atno 17343 bound_to 10162
  157.5912  130.8445  149.8663 LP  0  0  0  0  0  0  0  0  0  0  0  0  # atno 17370 bound_to 10713
  156.0494  130.3721  150.1237 LP  0  0  0  0  0  0  0  0  0  0  0  0  # atno 17371 bound_to 10713
  140.2611  134.3571  155.7406 LP  0  0  0  0  0  0  0  0  0  0  0  0  # atno 17394 bound_to 11000
  141.2198  133.7370  156.9081 LP  0  0  0  0  0  0  0  0  0  0  0  0  # atno 17395 bound_to 11000

$$$$
