AV-unprocessed.smi:13|AV-procd|sdf|72|dock10
  -GOLD-   2262015193D 1   1.00000     0.00000
 Structure written by MMmdl.
 54 58  0  0  0  0  0  0  0  0  1 V2000
  154.3040  137.4605  162.4388 C   0  0  0  0  0  0  0  0  0  0  0  0
  154.5478  137.8253  160.9749 C   0  0  0  0  0  0  0  0  0  0  0  0
  156.0282  138.2145  160.8577 C   0  0  0  0  0  0  0  0  0  0  0  0
  154.0482  136.8038  159.9389 C   0  0  0  0  0  0  0  0  0  0  0  0
  153.6244  137.9397  159.1391 N   0  0  0  0  0  0  0  0  0  0  0  0
  152.4424  137.7104  158.3841 C   0  0  0  0  0  0  0  0  0  0  0  0
  151.4468  136.9049  158.8439 N   0  0  0  0  0  0  0  0  0  0  0  0
  150.3368  136.7092  158.1265 C   0  0  0  0  0  0  0  0  0  0  0  0
  150.0176  137.2095  156.9323 N   0  0  0  0  0  0  0  0  0  0  0  0
  151.0125  138.0101  156.4554 C   0  0  0  0  0  0  0  0  0  0  0  0
  152.2395  138.3090  157.1118 C   0  0  0  0  0  0  0  0  0  0  0  0
  152.9999  139.1664  156.3276 N   0  0  0  0  0  0  0  0  0  0  0  0
  152.2630  139.3659  155.2691 C   0  0  0  0  0  0  0  0  0  0  0  0
  151.0584  138.6979  155.2546 N   0  0  0  0  0  0  0  0  0  0  0  0
  150.0408  138.7456  154.2144 C   0  0  0  0  0  0  0  0  0  0  0  0
  148.8511  139.6972  154.5036 C   0  0  2  0  0  0  0  0  0  0  0  0
  148.2134  139.2060  155.6688 O   0  0  0  0  0  0  0  0  0  0  0  0
  147.8020  139.7945  153.3950 C   0  0  0  0  0  0  0  0  0  0  0  0
  147.2699  141.2124  153.5507 C   0  0  0  0  0  0  0  0  0  0  0  0
  148.4445  141.9449  153.8509 O   0  0  0  0  0  0  0  0  0  0  0  0
  149.2290  141.1739  154.7539 C   0  0  0  0  0  0  0  0  0  0  0  0
  153.5045  138.7669  160.3348 C   0  0  2  0  0  0  0  0  0  0  0  0
  153.7963  140.2371  160.0329 C   0  0  2  0  0  0  0  0  0  0  0  0
  153.9152  141.1163  161.2801 C   0  0  0  0  0  0  0  0  0  0  0  0
  153.3964  142.4753  160.8299 C   0  0  0  0  0  0  0  0  0  0  0  0
  152.8674  142.2266  159.4167 C   0  0  0  0  0  0  0  0  0  0  0  0
  152.6984  140.8202  159.3482 O   0  0  0  0  0  0  0  0  0  0  0  0
  154.9462  136.6399  162.7597 H   0  0  0  0  0  0  0  0  0  0  0  0
  153.2730  137.1470  162.6058 H   0  0  0  0  0  0  0  0  0  0  0  0
  154.4938  138.3078  163.0984 H   0  0  0  0  0  0  0  0  0  0  0  0
  156.2855  138.5303  159.8462 H   0  0  0  0  0  0  0  0  0  0  0  0
  156.6794  137.3753  161.1041 H   0  0  0  0  0  0  0  0  0  0  0  0
  156.2854  139.0345  161.5282 H   0  0  0  0  0  0  0  0  0  0  0  0
  154.8317  136.2057  159.4728 H   0  0  0  0  0  0  0  0  0  0  0  0
  153.2164  136.1914  160.2933 H   0  0  0  0  0  0  0  0  0  0  0  0
  149.5997  136.0595  158.5744 H   0  0  0  0  0  0  0  0  0  0  0  0
  152.5823  140.0158  154.4677 H   0  0  0  0  0  0  0  0  0  0  0  0
  150.5291  139.0371  153.2832 H   0  0  0  0  0  0  0  0  0  0  0  0
  149.6748  137.7302  154.0564 H   0  0  0  0  0  0  0  0  0  0  0  0
  148.8706  138.8284  156.2332 H   0  0  0  0  0  0  0  0  0  0  0  0
  148.2559  139.7169  152.4089 H   0  0  0  0  0  0  0  0  0  0  0  0
  147.0227  139.0337  153.4574 H   0  0  0  0  0  0  0  0  0  0  0  0
  146.7823  141.5832  152.6488 H   0  0  0  0  0  0  0  0  0  0  0  0
  146.5657  141.2819  154.3814 H   0  0  0  0  0  0  0  0  0  0  0  0
  149.0030  141.4845  155.7754 H   0  0  0  0  0  0  0  0  0  0  0  0
  150.2834  141.3849  154.5872 H   0  0  0  0  0  0  0  0  0  0  0  0
  152.5467  138.6343  160.8411 H   0  0  0  0  0  0  0  0  0  0  0  0
  154.6926  140.3495  159.4193 H   0  0  0  0  0  0  0  0  0  0  0  0
  153.2830  140.7308  162.0813 H   0  0  0  0  0  0  0  0  0  0  0  0
  154.9373  141.1634  161.6559 H   0  0  0  0  0  0  0  0  0  0  0  0
  152.5973  142.8113  161.4918 H   0  0  0  0  0  0  0  0  0  0  0  0
  154.1771  143.2365  160.8315 H   0  0  0  0  0  0  0  0  0  0  0  0
  151.9334  142.7521  159.2166 H   0  0  0  0  0  0  0  0  0  0  0  0
  153.6006  142.5364  158.6703 H   0  0  0  0  0  0  0  0  0  0  0  0
  1  2  1  0  0  0  0
  1 28  1  0  0  0  0
  1 29  1  0  0  0  0
  1 30  1  0  0  0  0
  2 22  1  0  0  0  0
  2  3  1  0  0  0  0
  2  4  1  0  0  0  0
  3 31  1  0  0  0  0
  3 32  1  0  0  0  0
  3 33  1  0  0  0  0
  4  5  1  0  0  0  0
  4 34  1  0  0  0  0
  4 35  1  0  0  0  0
  5  6  1  0  0  0  0
  5 22  1  0  0  0  0
  6 11  1  0  0  0  0
  6  7  2  0  0  0  0
  7  8  1  0  0  0  0
  8  9  2  0  0  0  0
  8 36  1  0  0  0  0
  9 10  1  0  0  0  0
 10 14  1  0  0  0  0
 10 11  2  0  0  0  0
 11 12  1  0  0  0  0
 12 13  2  0  0  0  0
 13 14  1  0  0  0  0
 13 37  1  0  0  0  0
 14 15  1  0  0  0  0
 15 16  1  0  0  0  0
 15 38  1  0  0  0  0
 15 39  1  0  0  0  0
 16 21  1  0  0  0  0
 16 17  1  0  0  0  0
 16 18  1  0  0  0  0
 17 40  1  0  0  0  0
 18 19  1  0  0  0  0
 18 41  1  0  0  0  0
 18 42  1  0  0  0  0
 19 20  1  0  0  0  0
 19 43  1  0  0  0  0
 19 44  1  0  0  0  0
 20 21  1  0  0  0  0
 21 45  1  0  0  0  0
 21 46  1  0  0  0  0
 22 23  1  0  0  0  0
 22 47  1  0  0  0  0
 23 27  1  0  0  0  0
 23 24  1  0  0  0  0
 23 48  1  0  0  0  0
 24 25  1  0  0  0  0
 24 49  1  0  0  0  0
 24 50  1  0  0  0  0
 25 26  1  0  0  0  0
 25 51  1  0  0  0  0
 25 52  1  0  0  0  0
 26 27  1  0  0  0  0
 26 53  1  0  0  0  0
 26 54  1  0  0  0  0
M  END
> <s_m_source_file>
AV-unprocessed.smi

> <i_m_source_file_index>
13

> <i_lp_mmshare_version>
43012

> <i_f3d_flags>
0

> <s_epik_input>
TzFbQ0gyXVtDSDJdW0NIMl1bQ0BIXTFbQ0BASF0yTihbQ0gyXUMyKFtDSDNdKVtDSDNdKWMobltjSF1uMyljKGMzNCluW2NIXW40W0NIMl1bQ0BAXTUoW09IXSlbQ0gyXVtDSDJdT1tDSDJdNQ==

> <s_epik_cmdline>
J2VwaWtfcHl0aG9uJywgJy1waCcsICc3LjAnLCAnLXRuJywgJzgnLCAnLW1hJywgJzIwMCcsICctbWV0YWxfYmluZGluZycsICctaW1hZScsICc8aW5maWxlLm1hZT4nLCAnLW9tYWUnLCAnPG91dGZpbGUubWFlPic=

> <r_lp_tautomer_probability>
1

> <r_epik_Ionization_Penalty>
0.00202764

> <r_epik_Ionization_Penalty_Charging>
0

> <r_epik_Ionization_Penalty_Neutral>
0.00202764

> <r_epik_State_Penalty>
0.00134017

> <r_epik_Charging_Adjusted_Penalty>
0.00134017

> <i_epik_Tot_Q>
0

> <i_epik_Tot_abs_Q>
0

> <r_epik_Metal_State_Penalty>
-0

> <b_epik_Metal_Only>
0

> <s_lp_Force_Field>
OPLS_2005

> <r_lp_Energy>
64.4217

> <b_lp_Chiralities_Consistent>
1

> <s_lp_Variant>
AV-unprocessed.smi:13-4

> <Gold.Version>
5.8.1

> <Gold.Id.Protein>
6NUR|6NUR_protein|mol2

> <Gold.PLP.Fitness>
49.1992

> <Gold.PLP.PLP>
-43.1177

> <Gold.PLP.part.hbond>
-3.0000

> <Gold.PLP.part.metal>
0.0000

> <Gold.PLP.part.buried>
-3.7863

> <Gold.PLP.part.nonpolar>
-36.9124

> <Gold.PLP.part.repulsive>
0.1911

> <Gold.PLP.ligand.clash>
0.0000

> <Gold.PLP.ligand.torsion>
0.8697

> <Gold.PLP.Chemscore.Hbond>
2.4553

> <Gold.PLP.Chemscore.CHOScore>
0.0000

> <Gold.PLP.Chemscore.Metal>
0.0000

> <Gold.Chemscore.Hbonds>
donor molecule, donor type, donor heavy atom, donor atom, acceptor molecule, acceptor atom, score
      P1  H  6896  6908       L1     7  0.81
      P1  H  7997  8010       L1    12  1.00
      P1  H  8011  8017       L1    20  0.40

> <Gold.PLP.Chemscore.Internal.Correction>
0.4551

> <Gold.Rescore>
     Score         DG    S(hbond)    S(metal)    S(lipo)     H(rot)  DE(clash)    DE(int)     intcor
     16.35     -18.74       1.90        0.00     109.39       2.30       1.47       0.92       ----

> <Gold.Chemscore.Fitness>
16.3457

> <Gold.Chemscore.DG>
-18.7354

> <Gold.Chemscore.ZeroCoef>
-5.4800

> <Gold.Chemscore.Hbond>
1.8992

> <Gold.Chemscore.Metal>
0.0000

> <Gold.Chemscore.Lipo>
109.3943

> <Gold.Chemscore.Internal_Hbond>
0.0000

> <Gold.Chemscore.DEClash>
1.4730

> <Gold.Chemscore.DEInternal>
0.9167

> <Gold.Chemscore.Rot>
2.2996

> <Gold.Chemscore.Internal.Correction>
   9.000000E+99

> <Gold.Chemscore.Hbonds>
donor molecule, donor type, donor heavy atom, donor atom, acceptor molecule, acceptor atom, score
      P1  H  6896  6908       L1     7  0.15
      P1  H  7997  8010       L1    12  0.94
      P1  H  8011  8017       L1    20  0.16

> <Gold.Chemscore.Hbond.Weighted>
-6.3432

> <Gold.Chemscore.Metal.Weighted>
-0.0000

> <Gold.Chemscore.Lipo.Weighted>
-12.7991

> <Gold.Chemscore.Internal_Hbond.Weighted>
0.0000

> <Gold.Chemscore.DEClash.Weighted>
1.4730

> <Gold.Chemscore.DEInternal.Weighted>
0.9167

> <Gold.Chemscore.Rot.Weighted>
5.8869

> <Gold.Chemscore.Internal.Correction.Weighted>
   9.000000E+99

> <Gold.Protein.RotatedTorsions>
[ 6907 6896 6895 6894 ] final -131.82 input  -60.11 | X-H torsion
[ 7974 7965 7964 7962 ] final  -23.56 input  175.53 | X-H torsion
[ 8008 7997 7996 7995 ] final   68.91 input   59.86 | X-H torsion
[ 10167 10162 10161 10158 ] final  -70.43 input  -65.29 | X-H torsion
[ 10718 10713 10712 10709 ] final -126.36 input   66.30 | X-H torsion
[ 10763 10752 10751 10750 ] final  -66.58 input  -60.55 | X-H torsion
[ 11005 11000 10999 10996 ] final   89.03 input  -57.11 | X-H torsion

> <Gold.Protein.ActiveResidues>
 VAL166  LYS551  ARG553  GLY616  TRP617  ASP618  TYR619  PRO620  LYS621  CYS622 
 ASP623  PHE694  ASN695  SER759  ASP760  ASP761  ALA762  ILE779  LEU786  VAL792 
 PHE793  MET794  SER795  GLU796  ALA797  LYS798  CYS799  TRP800  GLU811  SER814 

> <Gold.Protein.RotatedAtoms>
  150.9553  133.6505  159.2764 H   0  0  0  0  0  0  0  0  0  0  0  0  # atno 6907 bound_to 6896
  151.3846  135.0944  159.9516 H   0  0  0  0  0  0  0  0  0  0  0  0  # atno 6908 bound_to 6896
  152.5126  133.9080  159.7528 H   0  0  0  0  0  0  0  0  0  0  0  0  # atno 6909 bound_to 6896
  146.1609  140.4632  142.8572 H   0  0  0  0  0  0  0  0  0  0  0  0  # atno 7974 bound_to 7965
  155.7156  140.3494  155.4993 H   0  0  0  0  0  0  0  0  0  0  0  0  # atno 8008 bound_to 7997
  155.9316  140.1085  157.1149 H   0  0  0  0  0  0  0  0  0  0  0  0  # atno 8009 bound_to 7997
  154.4086  140.1230  156.4797 H   0  0  0  0  0  0  0  0  0  0  0  0  # atno 8010 bound_to 7997
  140.5353  143.2318  151.7188 H   0  0  0  0  0  0  0  0  0  0  0  0  # atno 10167 bound_to 10162
  156.1758  130.6698  151.0240 H   0  0  0  0  0  0  0  0  0  0  0  0  # atno 10718 bound_to 10713
  154.3620  135.6114  153.5695 H   0  0  0  0  0  0  0  0  0  0  0  0  # atno 10763 bound_to 10752
  152.9793  135.5817  154.4622 H   0  0  0  0  0  0  0  0  0  0  0  0  # atno 10764 bound_to 10752
  154.4362  135.2849  155.1857 H   0  0  0  0  0  0  0  0  0  0  0  0  # atno 10765 bound_to 10752
  139.8884  134.8525  156.3084 H   0  0  0  0  0  0  0  0  0  0  0  0  # atno 11005 bound_to 11000
  144.8025  140.6239  143.6468 LP  0  0  0  0  0  0  0  0  0  0  0  0  # atno 17320 bound_to 7965
  145.4592  139.1515  143.3876 LP  0  0  0  0  0  0  0  0  0  0  0  0  # atno 17321 bound_to 7965
  139.4969  144.4052  152.0139 LP  0  0  0  0  0  0  0  0  0  0  0  0  # atno 17342 bound_to 10162
  140.3157  144.3486  150.6022 LP  0  0  0  0  0  0  0  0  0  0  0  0  # atno 17343 bound_to 10162
  157.6835  131.0831  150.7307 LP  0  0  0  0  0  0  0  0  0  0  0  0  # atno 17370 bound_to 10713
  156.7365  130.4726  149.5487 LP  0  0  0  0  0  0  0  0  0  0  0  0  # atno 17371 bound_to 10713
  140.9866  133.7234  156.0752 LP  0  0  0  0  0  0  0  0  0  0  0  0  # atno 17394 bound_to 11000
  140.7679  134.3865  157.5513 LP  0  0  0  0  0  0  0  0  0  0  0  0  # atno 17395 bound_to 11000

$$$$
