AV-unprocessed.smi:1027|AV-procd|sdf|4469|dock2
  -GOLD-   22720 2443D 1   1.00000     0.00000
 Structure written by MMmdl.
 35 36  0  0  0  0  0  0  0  0  1 V2000
  147.8683  132.9614  152.6540 C   0  0  0  0  0  0  0  0  0  0  0  0
  149.0489  132.4867  153.5204 C   0  0  0  0  0  0  0  0  0  0  0  0
  148.8245  131.0168  153.9258 C   0  0  0  0  0  0  0  0  0  0  0  0
  149.2905  133.4106  154.7451 C   0  0  2  0  0  0  0  0  0  0  0  0
  148.1411  133.3807  155.7674 C   0  0  0  0  0  0  0  0  0  0  0  0
  149.4746  134.7989  154.3194 N   0  0  0  0  0  0  0  0  0  0  0  0
  150.0089  135.7866  155.0539 C   0  0  0  0  0  0  0  0  0  0  0  0
  150.4368  135.6323  156.1980 O   0  0  0  0  0  0  0  0  0  0  0  0
  150.0109  136.9471  154.3746 N   0  0  0  0  0  0  0  0  0  0  0  0
  150.4859  138.2153  154.8010 C   0  0  0  0  0  0  0  0  0  0  0  0
  151.5412  138.8367  154.2570 N   0  0  0  0  0  0  0  0  0  0  0  0
  151.7915  140.0594  154.8640 N   0  0  0  0  0  0  0  0  0  0  0  0
  150.9224  140.3263  155.8462 C   0  0  0  0  0  0  0  0  0  0  0  0
  150.9928  141.5801  156.6521 C   0  0  0  0  0  0  0  0  0  0  0  0
  151.3194  141.5332  158.1272 C   0  0  0  0  0  0  0  0  0  0  0  0
  149.9341  141.9214  157.6781 C   0  0  0  0  0  0  0  0  0  0  0  0
  149.6989  139.0870  156.1051 S   0  0  0  0  0  0  0  0  0  0  0  0
  146.9492  133.0239  153.2372 H   0  0  0  0  0  0  0  0  0  0  0  0
  147.6882  132.2751  151.8261 H   0  0  0  0  0  0  0  0  0  0  0  0
  148.0551  133.9405  152.2139 H   0  0  0  0  0  0  0  0  0  0  0  0
  149.9425  132.5141  152.8951 H   0  0  0  0  0  0  0  0  0  0  0  0
  147.9751  130.9197  154.6030 H   0  0  0  0  0  0  0  0  0  0  0  0
  149.6973  130.5938  154.4229 H   0  0  0  0  0  0  0  0  0  0  0  0
  148.6261  130.3940  153.0532 H   0  0  0  0  0  0  0  0  0  0  0  0
  150.1884  133.0627  155.2593 H   0  0  0  0  0  0  0  0  0  0  0  0
  148.0364  132.3998  156.2303 H   0  0  0  0  0  0  0  0  0  0  0  0
  147.1884  133.6371  155.3030 H   0  0  0  0  0  0  0  0  0  0  0  0
  148.3181  134.0921  156.5752 H   0  0  0  0  0  0  0  0  0  0  0  0
  149.1568  135.0262  153.3888 H   0  0  0  0  0  0  0  0  0  0  0  0
  149.6142  136.9236  153.4468 H   0  0  0  0  0  0  0  0  0  0  0  0
  151.4115  142.3935  156.0629 H   0  0  0  0  0  0  0  0  0  0  0  0
  151.4424  140.5546  158.5871 H   0  0  0  0  0  0  0  0  0  0  0  0
  151.9596  142.3187  158.5236 H   0  0  0  0  0  0  0  0  0  0  0  0
  149.6490  142.9668  157.7750 H   0  0  0  0  0  0  0  0  0  0  0  0
  149.1357  141.2033  157.8543 H   0  0  0  0  0  0  0  0  0  0  0  0
  1  2  1  0  0  0  0
  1 18  1  0  0  0  0
  1 19  1  0  0  0  0
  1 20  1  0  0  0  0
  2  3  1  0  0  0  0
  2  4  1  0  0  0  0
  2 21  1  0  0  0  0
  3 22  1  0  0  0  0
  3 23  1  0  0  0  0
  3 24  1  0  0  0  0
  4  5  1  0  0  0  0
  4  6  1  0  0  0  0
  4 25  1  0  0  0  0
  5 26  1  0  0  0  0
  5 27  1  0  0  0  0
  5 28  1  0  0  0  0
  6  7  1  0  0  0  0
  6 29  1  0  0  0  0
  7  8  2  0  0  0  0
  7  9  1  0  0  0  0
  9 10  1  0  0  0  0
  9 30  1  0  0  0  0
 10 17  1  0  0  0  0
 10 11  2  0  0  0  0
 11 12  1  0  0  0  0
 12 13  2  0  0  0  0
 13 14  1  0  0  0  0
 13 17  1  0  0  0  0
 14 16  1  0  0  0  0
 14 15  1  0  0  0  0
 14 31  1  0  0  0  0
 15 16  1  0  0  0  0
 15 32  1  0  0  0  0
 15 33  1  0  0  0  0
 16 34  1  0  0  0  0
 16 35  1  0  0  0  0
M  END
> <s_m_source_file>
AV-unprocessed.smi

> <i_m_source_file_index>
1027

> <i_lp_mmshare_version>
43012

> <i_f3d_flags>
0

> <s_epik_input>
W0NIM11bQ0hdKFtDSDNdKVtDQEhdKFtDSDNdKVtOSF1DKD1PKVtOSF1jMW5uYyhzMSlbQ0hdMltDSDJdW0NIMl0y

> <s_epik_cmdline>
J2VwaWtfcHl0aG9uJywgJy1waCcsICc3LjAnLCAnLXRuJywgJzgnLCAnLW1hJywgJzIwMCcsICctbWV0YWxfYmluZGluZycsICctaW1hZScsICc8aW5maWxlLm1hZT4nLCAnLW9tYWUnLCAnPG91dGZpbGUubWFlPic=

> <r_lp_tautomer_probability>
1

> <r_epik_Ionization_Penalty>
0.000943246

> <r_epik_Ionization_Penalty_Charging>
0

> <r_epik_Ionization_Penalty_Neutral>
0.000943246

> <r_epik_State_Penalty>
-0

> <r_epik_Charging_Adjusted_Penalty>
0

> <i_epik_Tot_Q>
0

> <i_epik_Tot_abs_Q>
0

> <r_epik_Metal_State_Penalty>
0.281646

> <b_epik_Metal_Only>
0

> <s_lp_Force_Field>
OPLS_2005

> <r_lp_Energy>
3.85842

> <b_lp_Chiralities_Consistent>
1

> <s_lp_Variant>
AV-unprocessed.smi:1027-1

> <Gold.Version>
5.8.1

> <Gold.Id.Protein>
6NUR|6NUR_protein|mol2

> <Gold.PLP.Fitness>
33.8289

> <Gold.PLP.PLP>
-27.2838

> <Gold.PLP.part.hbond>
-3.8856

> <Gold.PLP.part.metal>
0.0000

> <Gold.PLP.part.buried>
-3.8627

> <Gold.PLP.part.nonpolar>
-21.0616

> <Gold.PLP.part.repulsive>
0.2969

> <Gold.PLP.ligand.clash>
0.0000

> <Gold.PLP.ligand.torsion>
0.8931

> <Gold.PLP.Chemscore.Hbond>
2.7200

> <Gold.PLP.Chemscore.CHOScore>
0.0000

> <Gold.PLP.Chemscore.Metal>
0.0000

> <Gold.Chemscore.Hbonds>
donor molecule, donor type, donor heavy atom, donor atom, acceptor molecule, acceptor atom, score
      L1  H     6    29       P1  7948  0.90
      L1  H     9    30       P1  7948  1.00
      P1  H  7989  7998       L1    12  0.67

> <Gold.PLP.Chemscore.Internal.Correction>
0.1714

> <Gold.Rescore>
     Score         DG    S(hbond)    S(metal)    S(lipo)     H(rot)  DE(clash)    DE(int)     intcor
     12.61     -13.43       1.74        0.00      48.74       1.39       0.05       0.77       ----

> <Gold.Chemscore.Fitness>
12.6140

> <Gold.Chemscore.DG>
-13.4343

> <Gold.Chemscore.ZeroCoef>
-5.4800

> <Gold.Chemscore.Hbond>
1.7388

> <Gold.Chemscore.Metal>
0.0000

> <Gold.Chemscore.Lipo>
48.7415

> <Gold.Chemscore.Internal_Hbond>
0.0000

> <Gold.Chemscore.DEClash>
0.0540

> <Gold.Chemscore.DEInternal>
0.7663

> <Gold.Chemscore.Rot>
1.3890

> <Gold.Chemscore.Internal.Correction>
   9.000000E+99

> <Gold.Chemscore.Hbonds>
donor molecule, donor type, donor heavy atom, donor atom, acceptor molecule, acceptor atom, score
      L1  H     6    29       P1  7948  0.17
      L1  H     9    30       P1  7948  0.70
      P1  H  7989  7998       L1    12  0.06

> <Gold.Chemscore.Hbond.Weighted>
-5.8074

> <Gold.Chemscore.Metal.Weighted>
-0.0000

> <Gold.Chemscore.Lipo.Weighted>
-5.7028

> <Gold.Chemscore.Internal_Hbond.Weighted>
0.0000

> <Gold.Chemscore.DEClash.Weighted>
0.0540

> <Gold.Chemscore.DEInternal.Weighted>
0.7663

> <Gold.Chemscore.Rot.Weighted>
3.5559

> <Gold.Chemscore.Internal.Correction.Weighted>
   9.000000E+99

> <Gold.Protein.RotatedTorsions>
[ 6907 6896 6895 6894 ] final -133.14 input  -60.11 | X-H torsion
[ 7974 7965 7964 7962 ] final -133.16 input  175.53 | X-H torsion
[ 8008 7997 7996 7995 ] final -172.31 input   59.86 | X-H torsion
[ 10167 10162 10161 10158 ] final   36.73 input  -65.29 | X-H torsion
[ 10718 10713 10712 10709 ] final   -5.48 input   66.30 | X-H torsion
[ 10763 10752 10751 10750 ] final   88.26 input  -60.55 | X-H torsion
[ 11005 11000 10999 10996 ] final    0.17 input  -57.11 | X-H torsion

> <Gold.Protein.ActiveResidues>
 VAL166  LYS551  ARG553  GLY616  TRP617  ASP618  TYR619  PRO620  LYS621  CYS622 
 ASP623  PHE694  ASN695  SER759  ASP760  ASP761  ALA762  ILE779  LEU786  VAL792 
 PHE793  MET794  SER795  GLU796  ALA797  LYS798  CYS799  TRP800  GLU811  SER814 

> <Gold.Protein.RotatedAtoms>
  150.9706  133.6348  159.2738 H   0  0  0  0  0  0  0  0  0  0  0  0  # atno 6907 bound_to 6896
  151.3638  135.0908  159.9453 H   0  0  0  0  0  0  0  0  0  0  0  0  # atno 6908 bound_to 6896
  152.5181  133.9274  159.7618 H   0  0  0  0  0  0  0  0  0  0  0  0  # atno 6909 bound_to 6896
  144.9219  140.7024  143.4960 H   0  0  0  0  0  0  0  0  0  0  0  0  # atno 7974 bound_to 7965
  155.9429  140.1112  157.1041 H   0  0  0  0  0  0  0  0  0  0  0  0  # atno 8008 bound_to 7997
  154.4093  140.1215  156.5017 H   0  0  0  0  0  0  0  0  0  0  0  0  # atno 8009 bound_to 7997
  155.6939  140.3472  155.4907 H   0  0  0  0  0  0  0  0  0  0  0  0  # atno 8010 bound_to 7997
  140.4100  144.1606  150.6139 H   0  0  0  0  0  0  0  0  0  0  0  0  # atno 10167 bound_to 10162
  156.7460  130.5224  149.5814 H   0  0  0  0  0  0  0  0  0  0  0  0  # atno 10718 bound_to 10713
  153.1750  135.4513  154.9953 H   0  0  0  0  0  0  0  0  0  0  0  0  # atno 10763 bound_to 10752
  154.7992  135.3249  154.7594 H   0  0  0  0  0  0  0  0  0  0  0  0  # atno 10764 bound_to 10752
  153.8066  135.6958  153.4902 H   0  0  0  0  0  0  0  0  0  0  0  0  # atno 10765 bound_to 10752
  140.6295  133.9588  155.8267 H   0  0  0  0  0  0  0  0  0  0  0  0  # atno 11005 bound_to 11000
  145.3283  139.1767  143.4551 LP  0  0  0  0  0  0  0  0  0  0  0  0  # atno 17320 bound_to 7965
  146.3208  140.3309  142.8640 LP  0  0  0  0  0  0  0  0  0  0  0  0  # atno 17321 bound_to 7965
  140.4648  143.2435  151.9170 LP  0  0  0  0  0  0  0  0  0  0  0  0  # atno 17342 bound_to 10162
  139.4783  144.5430  151.8500 LP  0  0  0  0  0  0  0  0  0  0  0  0  # atno 17343 bound_to 10162
  156.1433  130.6259  151.0497 LP  0  0  0  0  0  0  0  0  0  0  0  0  # atno 17370 bound_to 10713
  157.6798  131.0841  150.7400 LP  0  0  0  0  0  0  0  0  0  0  0  0  # atno 17371 bound_to 10713
  141.0685  134.0240  157.3559 LP  0  0  0  0  0  0  0  0  0  0  0  0  # atno 17394 bound_to 11000
  139.9121  135.0192  156.7736 LP  0  0  0  0  0  0  0  0  0  0  0  0  # atno 17395 bound_to 11000

$$$$
