AV-unprocessed.smi:56|AV-procd|sdf|577|dock2
  -GOLD-   2262016483D 1   1.00000     0.00000
 Structure written by MMmdl.
 23 24  0  0  0  0  0  0  0  0  2 V2000
  146.6702  132.8525  149.9608 O   0  0  0  0  0  0  0  0  0  0  0  0
  145.5237  132.6383  150.7686 C   0  0  1  0  0  0  0  0  0  0  0  0
  145.7262  131.4467  151.6802 C   0  0  0  0  0  0  0  0  0  0  0  0
  145.9237  130.0732  151.3377 C   0  0  0  0  0  0  0  0  0  0  0  0
  146.0543  129.4391  152.5400 C   0  0  0  0  0  0  0  0  0  0  0  0
  145.9375  130.4072  153.5073 N   0  0  0  0  0  0  0  0  0  0  0  0
  145.7390  131.6354  152.9950 N   0  0  0  0  0  0  0  0  0  0  0  0
  145.1936  133.9338  151.5175 C   0  0  0  0  0  0  0  0  0  0  0  0
  144.4485  134.7994  150.4901 C   0  0  0  0  0  0  0  0  0  0  0  0
  143.9745  133.8851  149.4304 N   0  3  0  0  0  0  0  0  0  0  0  0
  144.3110  132.5081  149.8355 C   0  0  0  0  0  0  0  0  0  0  0  0
  145.9923  130.2488  154.5037 H   0  0  0  0  0  0  0  0  0  0  0  0
  147.2825  132.1474  150.1010 H   0  0  0  0  0  0  0  0  0  0  0  0
  145.9666  129.6174  150.3598 H   0  0  0  0  0  0  0  0  0  0  0  0
  146.2188  128.3995  152.7832 H   0  0  0  0  0  0  0  0  0  0  0  0
  144.5125  133.7124  152.3412 H   0  0  0  0  0  0  0  0  0  0  0  0
  146.0690  134.4241  151.9459 H   0  0  0  0  0  0  0  0  0  0  0  0
  143.6144  135.3341  150.9456 H   0  0  0  0  0  0  0  0  0  0  0  0
  145.1169  135.5362  150.0435 H   0  0  0  0  0  0  0  0  0  0  0  0
  142.9800  133.9817  149.2806 H   0  0  0  0  0  0  0  0  0  0  0  0
  144.4832  131.8514  148.9816 H   0  0  0  0  0  0  0  0  0  0  0  0
  143.4474  132.1259  150.3812 H   0  0  0  0  0  0  0  0  0  0  0  0
  144.4694  134.1028  148.5773 H   0  0  0  0  0  0  0  0  0  0  0  0
  1  2  1  0  0  0  0
  1 13  1  0  0  0  0
  2 11  1  0  0  0  0
  2  8  1  0  0  0  0
  2  3  1  0  0  0  0
  3  7  2  0  0  0  0
  3  4  1  0  0  0  0
  4  5  2  0  0  0  0
  4 14  1  0  0  0  0
  5  6  1  0  0  0  0
  5 15  1  0  0  0  0
  6  7  1  0  0  0  0
  6 12  1  0  0  0  0
  8  9  1  0  0  0  0
  8 16  1  0  0  0  0
  8 17  1  0  0  0  0
  9 10  1  0  0  0  0
  9 18  1  0  0  0  0
  9 19  1  0  0  0  0
 10 11  1  0  0  0  0
 10 20  1  0  0  0  0
 10 23  1  0  0  0  0
 11 21  1  0  0  0  0
 11 22  1  0  0  0  0
M  CHG  1  10   1
M  END
> <s_m_source_file>
AV-unprocessed.smi

> <i_m_source_file_index>
56

> <i_lp_mmshare_version>
43012

> <i_f3d_flags>
0

> <s_epik_input>
W0NIMl0xW05IXVtDSDJdW0NIMl1bQ0BAXTEoW09IXSljMltjSF1bY0hdbltuSF0y

> <s_epik_cmdline>
J2VwaWtfcHl0aG9uJywgJy1waCcsICc3LjAnLCAnLXRuJywgJzgnLCAnLW1hJywgJzIwMCcsICctbWV0YWxfYmluZGluZycsICctaW1hZScsICc8aW5maWxlLm1hZT4nLCAnLW9tYWUnLCAnPG91dGZpbGUubWFlPic=

> <r_lp_tautomer_probability>
0.5

> <r_epik_Ionization_Penalty>
0.000592189

> <r_epik_Ionization_Penalty_Charging>
0.00059155

> <r_epik_Ionization_Penalty_Neutral>
6.39784e-07

> <r_epik_State_Penalty>
0.41068

> <r_epik_Charging_Adjusted_Penalty>
0.411271

> <i_epik_Tot_Q>
1

> <i_epik_Tot_abs_Q>
1

> <r_epik_Metal_State_Penalty>
0.410682

> <b_epik_Metal_Only>
0

> <s_lp_Force_Field>
OPLS_2005

> <r_lp_Energy>
24.7564

> <b_lp_Chiralities_Consistent>
1

> <s_lp_Variant>
AV-unprocessed.smi:56-1

> <Gold.Version>
5.8.1

> <Gold.Id.Protein>
6NUR|6NUR_protein|mol2

> <Gold.PLP.Fitness>
33.5277

> <Gold.PLP.PLP>
-22.3329

> <Gold.PLP.part.hbond>
-5.3967

> <Gold.PLP.part.metal>
0.0000

> <Gold.PLP.part.buried>
-3.3806

> <Gold.PLP.part.nonpolar>
-15.0500

> <Gold.PLP.part.repulsive>
0.2845

> <Gold.PLP.ligand.clash>
0.0000

> <Gold.PLP.ligand.torsion>
0.0572

> <Gold.PLP.Chemscore.Hbond>
3.7625

> <Gold.PLP.Chemscore.CHOScore>
0.0000

> <Gold.PLP.Chemscore.Metal>
0.0000

> <Gold.Chemscore.Hbonds>
donor molecule, donor type, donor heavy atom, donor atom, acceptor molecule, acceptor atom, score
      L1  H     1    13       P1 10747  0.76
      L1  H    10    20       P1 10186  1.98
      L1  H    10    23       P1  7921  0.99

> <Gold.PLP.Chemscore.Internal.Correction>
0.0218

> <Gold.Rescore>
     Score         DG    S(hbond)    S(metal)    S(lipo)     H(rot)  DE(clash)    DE(int)     intcor
     17.35     -17.61       2.72        0.00      58.84       1.50       0.24       0.01       ----

> <Gold.Chemscore.Fitness>
17.3508

> <Gold.Chemscore.DG>
-17.6077

> <Gold.Chemscore.ZeroCoef>
-5.4800

> <Gold.Chemscore.Hbond>
2.7186

> <Gold.Chemscore.Metal>
0.0000

> <Gold.Chemscore.Lipo>
58.8357

> <Gold.Chemscore.Internal_Hbond>
0.0000

> <Gold.Chemscore.DEClash>
0.2421

> <Gold.Chemscore.DEInternal>
0.0148

> <Gold.Chemscore.Rot>
1.4985

> <Gold.Chemscore.Internal.Correction>
   9.000000E+99

> <Gold.Chemscore.Hbonds>
donor molecule, donor type, donor heavy atom, donor atom, acceptor molecule, acceptor atom, score
      L1  H     1    13       P1 10747  0.77
      L1  H    10    20       P1 10186  0.92
      L1  H    10    23       P1  7921  0.88

> <Gold.Chemscore.Hbond.Weighted>
-9.0802

> <Gold.Chemscore.Metal.Weighted>
-0.0000

> <Gold.Chemscore.Lipo.Weighted>
-6.8838

> <Gold.Chemscore.Internal_Hbond.Weighted>
0.0000

> <Gold.Chemscore.DEClash.Weighted>
0.2421

> <Gold.Chemscore.DEInternal.Weighted>
0.0148

> <Gold.Chemscore.Rot.Weighted>
3.8362

> <Gold.Chemscore.Internal.Correction.Weighted>
   9.000000E+99

> <Gold.Protein.RotatedTorsions>
[ 6907 6896 6895 6894 ] final -157.76 input  -60.11 | X-H torsion
[ 7974 7965 7964 7962 ] final  114.91 input  175.53 | X-H torsion
[ 8008 7997 7996 7995 ] final  130.48 input   59.86 | X-H torsion
[ 10167 10162 10161 10158 ] final   70.53 input  -65.29 | X-H torsion
[ 10718 10713 10712 10709 ] final  174.08 input   66.30 | X-H torsion
[ 10763 10752 10751 10750 ] final -128.45 input  -60.55 | X-H torsion
[ 11005 11000 10999 10996 ] final  135.67 input  -57.11 | X-H torsion

> <Gold.Protein.ActiveResidues>
 VAL166  LYS551  ARG553  GLY616  TRP617  ASP618  TYR619  PRO620  LYS621  CYS622 
 ASP623  PHE694  ASN695  SER759  ASP760  ASP761  ALA762  ILE779  LEU786  VAL792 
 PHE793  MET794  SER795  GLU796  ALA797  LYS798  CYS799  TRP800  GLU811  SER814 

> <Gold.Protein.RotatedAtoms>
  151.3079  133.4093  159.2644 H   0  0  0  0  0  0  0  0  0  0  0  0  # atno 6907 bound_to 6896
  151.0140  134.9419  159.8033 H   0  0  0  0  0  0  0  0  0  0  0  0  # atno 6908 bound_to 6896
  152.5308  134.3043  159.9142 H   0  0  0  0  0  0  0  0  0  0  0  0  # atno 6909 bound_to 6896
  145.1985  139.2964  143.4331 H   0  0  0  0  0  0  0  0  0  0  0  0  # atno 7974 bound_to 7965
  156.2955  140.2595  156.2770 H   0  0  0  0  0  0  0  0  0  0  0  0  # atno 8008 bound_to 7997
  154.9639  140.0392  157.2222 H   0  0  0  0  0  0  0  0  0  0  0  0  # atno 8009 bound_to 7997
  154.7921  140.2813  155.5989 H   0  0  0  0  0  0  0  0  0  0  0  0  # atno 8010 bound_to 7997
  140.0560  144.5272  150.7329 H   0  0  0  0  0  0  0  0  0  0  0  0  # atno 10167 bound_to 10162
  156.9548  131.0042  151.2941 H   0  0  0  0  0  0  0  0  0  0  0  0  # atno 10718 bound_to 10713
  154.8756  135.3928  154.3758 H   0  0  0  0  0  0  0  0  0  0  0  0  # atno 10763 bound_to 10752
  153.4512  135.7028  153.6113 H   0  0  0  0  0  0  0  0  0  0  0  0  # atno 10764 bound_to 10752
  153.4652  135.3803  155.2329 H   0  0  0  0  0  0  0  0  0  0  0  0  # atno 10765 bound_to 10752
  139.9995  134.9484  157.0039 H   0  0  0  0  0  0  0  0  0  0  0  0  # atno 11005 bound_to 11000
  146.3422  140.2222  142.8591 LP  0  0  0  0  0  0  0  0  0  0  0  0  # atno 17320 bound_to 7965
  144.9971  140.8599  143.5304 LP  0  0  0  0  0  0  0  0  0  0  0  0  # atno 17321 bound_to 7965
  140.7194  143.2575  151.4327 LP  0  0  0  0  0  0  0  0  0  0  0  0  # atno 17342 bound_to 10162
  139.5923  144.1472  152.2103 LP  0  0  0  0  0  0  0  0  0  0  0  0  # atno 17343 bound_to 10162
  157.5698  130.8302  149.8376 LP  0  0  0  0  0  0  0  0  0  0  0  0  # atno 17370 bound_to 10713
  156.0347  130.3754  150.1592 LP  0  0  0  0  0  0  0  0  0  0  0  0  # atno 17371 bound_to 10713
  140.4755  134.1343  155.7209 LP  0  0  0  0  0  0  0  0  0  0  0  0  # atno 17394 bound_to 11000
  141.1631  133.8756  157.1793 LP  0  0  0  0  0  0  0  0  0  0  0  0  # atno 17395 bound_to 11000

$$$$
