AV-unprocessed.smi:1956|AV-procd|sdf|7900|dock2
  -GOLD-   2272010 53D 1   1.00000     0.00000
 Structure written by MMmdl.
 46 47  0  0  0  0  0  0  0  0  2 V2000
  152.5305  140.7660  158.7931 C   0  0  0  0  0  0  0  0  0  0  0  0
  153.0653  139.9301  157.7728 O   0  0  0  0  0  0  0  0  0  0  0  0
  152.2366  139.5475  156.7382 C   0  0  0  0  0  0  0  0  0  0  0  0
  152.7573  138.7093  155.7329 C   0  0  0  0  0  0  0  0  0  0  0  0
  151.9203  138.3155  154.6717 C   0  0  0  0  0  0  0  0  0  0  0  0
  150.5791  138.7687  154.6525 C   0  0  0  0  0  0  0  0  0  0  0  0
  149.6367  138.4623  153.6324 N   0  0  0  0  0  0  0  0  0  0  0  0
  148.4550  139.0467  153.3707 C   0  0  0  0  0  0  0  0  0  0  0  0
  147.9928  140.0221  153.9605 O   0  0  0  0  0  0  0  0  0  0  0  0
  147.8223  138.4311  152.3617 N   0  0  0  0  0  0  0  0  0  0  0  0
  146.5188  138.8187  151.8265 C   0  0  0  0  0  0  0  0  0  0  0  0
  145.9413  137.7921  150.8270 C   0  0  0  0  0  0  0  0  0  0  0  0
  146.0780  136.3865  151.2882 N   0  3  1  0  0  0  0  0  0  0  0  0
  145.8101  136.2382  152.7412 C   0  0  0  0  0  0  0  0  0  0  0  0
  146.1070  134.8059  153.2116 C   0  0  0  0  0  0  0  0  0  0  0  0
  145.2989  133.7848  152.4012 C   0  0  0  0  0  0  0  0  0  0  0  0
  145.5590  133.9693  150.8963 C   0  0  1  0  0  0  0  0  0  0  0  0
  144.7342  132.9802  150.0608 C   0  0  0  0  0  0  0  0  0  0  0  0
  145.2799  135.4274  150.4796 C   0  0  0  0  0  0  0  0  0  0  0  0
  150.1589  139.6116  155.7024 C   0  0  0  0  0  0  0  0  0  0  0  0
  150.9564  139.9938  156.7218 N   0  0  0  0  0  0  0  0  0  0  0  0
  153.3040  140.9718  159.5327 H   0  0  0  0  0  0  0  0  0  0  0  0
  151.6992  140.2843  159.3098 H   0  0  0  0  0  0  0  0  0  0  0  0
  152.1955  141.7228  158.3896 H   0  0  0  0  0  0  0  0  0  0  0  0
  153.7846  138.3779  155.7725 H   0  0  0  0  0  0  0  0  0  0  0  0
  152.3315  137.6896  153.8960 H   0  0  0  0  0  0  0  0  0  0  0  0
  149.9111  137.7186  153.0070 H   0  0  0  0  0  0  0  0  0  0  0  0
  148.2815  137.6470  151.9210 H   0  0  0  0  0  0  0  0  0  0  0  0
  145.8167  138.9784  152.6462 H   0  0  0  0  0  0  0  0  0  0  0  0
  146.6360  139.7872  151.3408 H   0  0  0  0  0  0  0  0  0  0  0  0
  144.8828  138.0169  150.6903 H   0  0  0  0  0  0  0  0  0  0  0  0
  146.4007  137.9122  149.8449 H   0  0  0  0  0  0  0  0  0  0  0  0
  146.4330  136.9340  153.3045 H   0  0  0  0  0  0  0  0  0  0  0  0
  144.7714  136.4985  152.9505 H   0  0  0  0  0  0  0  0  0  0  0  0
  147.1729  134.5988  153.1062 H   0  0  0  0  0  0  0  0  0  0  0  0
  145.8758  134.7061  154.2724 H   0  0  0  0  0  0  0  0  0  0  0  0
  145.5635  132.7729  152.7104 H   0  0  0  0  0  0  0  0  0  0  0  0
  144.2358  133.9078  152.6139 H   0  0  0  0  0  0  0  0  0  0  0  0
  146.6132  133.7608  150.7072 H   0  0  0  0  0  0  0  0  0  0  0  0
  143.6644  133.1328  150.2078 H   0  0  0  0  0  0  0  0  0  0  0  0
  144.9634  131.9494  150.3329 H   0  0  0  0  0  0  0  0  0  0  0  0
  144.9430  133.0937  148.9966 H   0  0  0  0  0  0  0  0  0  0  0  0
  144.2182  135.6555  150.5893 H   0  0  0  0  0  0  0  0  0  0  0  0
  145.5203  135.5471  149.4233 H   0  0  0  0  0  0  0  0  0  0  0  0
  149.1483  139.9925  155.7283 H   0  0  0  0  0  0  0  0  0  0  0  0
  147.0497  136.1426  151.1594 H   0  0  0  0  0  0  0  0  0  0  0  0
  1  2  1  0  0  0  0
  1 22  1  0  0  0  0
  1 23  1  0  0  0  0
  1 24  1  0  0  0  0
  2  3  1  0  0  0  0
  3 21  1  0  0  0  0
  3  4  2  0  0  0  0
  4  5  1  0  0  0  0
  4 25  1  0  0  0  0
  5  6  2  0  0  0  0
  5 26  1  0  0  0  0
  6  7  1  0  0  0  0
  6 20  1  0  0  0  0
  7  8  1  0  0  0  0
  7 27  1  0  0  0  0
  8  9  2  0  0  0  0
  8 10  1  0  0  0  0
 10 11  1  0  0  0  0
 10 28  1  0  0  0  0
 11 12  1  0  0  0  0
 11 29  1  0  0  0  0
 11 30  1  0  0  0  0
 12 13  1  0  0  0  0
 12 31  1  0  0  0  0
 12 32  1  0  0  0  0
 13 19  1  0  0  0  0
 13 14  1  0  0  0  0
 13 46  1  0  0  0  0
 14 15  1  0  0  0  0
 14 33  1  0  0  0  0
 14 34  1  0  0  0  0
 15 16  1  0  0  0  0
 15 35  1  0  0  0  0
 15 36  1  0  0  0  0
 16 17  1  0  0  0  0
 16 37  1  0  0  0  0
 16 38  1  0  0  0  0
 17 18  1  0  0  0  0
 17 19  1  0  0  0  0
 17 39  1  0  0  0  0
 18 40  1  0  0  0  0
 18 41  1  0  0  0  0
 18 42  1  0  0  0  0
 19 43  1  0  0  0  0
 19 44  1  0  0  0  0
 20 21  2  0  0  0  0
 20 45  1  0  0  0  0
M  CHG  1  13   1
M  END
> <s_m_source_file>
AV-unprocessed.smi

> <i_m_source_file_index>
1956

> <i_lp_mmshare_version>
43012

> <i_f3d_flags>
0

> <s_epik_input>
W0NIM11PYzFbY0hdW2NIXWMoW2NIXW4xKVtOSF1DKD1PKVtOSF1bQ0gyXVtDSDJdTjJbQ0gyXVtDSDJdW0NIMl1bQ0BASF0oW0NIM10pW0NIMl0y

> <s_epik_cmdline>
J2VwaWtfcHl0aG9uJywgJy1waCcsICc3LjAnLCAnLXRuJywgJzgnLCAnLW1hJywgJzIwMCcsICctbWV0YWxfYmluZGluZycsICctaW1hZScsICc8aW5maWxlLm1hZT4nLCAnLW9tYWUnLCAnPG91dGZpbGUubWFlPic=

> <r_lp_tautomer_probability>
1

> <r_epik_Ionization_Penalty>
0.00179545

> <r_epik_Ionization_Penalty_Charging>
0.00171832

> <r_epik_Ionization_Penalty_Neutral>
7.7124e-05

> <r_epik_State_Penalty>
0.0011618

> <r_epik_Charging_Adjusted_Penalty>
0.00288012

> <i_epik_Tot_Q>
1

> <i_epik_Tot_abs_Q>
1

> <r_epik_Metal_State_Penalty>
-0

> <b_epik_Metal_Only>
0

> <s_lp_Force_Field>
OPLS_2005

> <r_lp_Energy>
26.1696

> <b_lp_Chiralities_Consistent>
1

> <s_lp_Variant>
AV-unprocessed.smi:1956-1

> <Gold.Version>
5.8.1

> <Gold.Id.Protein>
6NUR|6NUR_protein|mol2

> <Gold.PLP.Fitness>
47.3480

> <Gold.PLP.PLP>
-33.3926

> <Gold.PLP.part.hbond>
-5.9053

> <Gold.PLP.part.metal>
0.0000

> <Gold.PLP.part.buried>
5.6485

> <Gold.PLP.part.nonpolar>
-34.2026

> <Gold.PLP.part.repulsive>
0.3754

> <Gold.PLP.ligand.clash>
0.0000

> <Gold.PLP.ligand.torsion>
0.2769

> <Gold.PLP.Chemscore.Hbond>
4.8000

> <Gold.PLP.Chemscore.CHOScore>
0.0000

> <Gold.PLP.Chemscore.Metal>
0.0000

> <Gold.Chemscore.Hbonds>
donor molecule, donor type, donor heavy atom, donor atom, acceptor molecule, acceptor atom, score
      L1  H     7    27       P1  7948  0.71
      L1  H    10    28       P1  7948  1.00
      L1  H    13    46       P1  7948  1.98
      P1  H  7997  8009       L1     2  0.95

> <Gold.PLP.Chemscore.Internal.Correction>
0.1092

> <Gold.Rescore>
     Score         DG    S(hbond)    S(metal)    S(lipo)     H(rot)  DE(clash)    DE(int)     intcor
     16.97     -20.70       2.89        0.00      84.92       1.71       2.18       1.56       ----

> <Gold.Chemscore.Fitness>
16.9680

> <Gold.Chemscore.DG>
-20.7015

> <Gold.Chemscore.ZeroCoef>
-5.4800

> <Gold.Chemscore.Hbond>
2.8939

> <Gold.Chemscore.Metal>
0.0000

> <Gold.Chemscore.Lipo>
84.9179

> <Gold.Chemscore.Internal_Hbond>
0.0000

> <Gold.Chemscore.DEClash>
2.1764

> <Gold.Chemscore.DEInternal>
1.5571

> <Gold.Chemscore.Rot>
1.7107

> <Gold.Chemscore.Internal.Correction>
   9.000000E+99

> <Gold.Chemscore.Hbonds>
donor molecule, donor type, donor heavy atom, donor atom, acceptor molecule, acceptor atom, score
      L1  H     7    27       P1  7948  0.24
      L1  H    10    28       P1  7948  0.93
      L1  H    13    46       P1  7948  0.91
      P1  H  7997  8009       L1     2  0.21

> <Gold.Chemscore.Hbond.Weighted>
-9.6655

> <Gold.Chemscore.Metal.Weighted>
-0.0000

> <Gold.Chemscore.Lipo.Weighted>
-9.9354

> <Gold.Chemscore.Internal_Hbond.Weighted>
0.0000

> <Gold.Chemscore.DEClash.Weighted>
2.1764

> <Gold.Chemscore.DEInternal.Weighted>
1.5571

> <Gold.Chemscore.Rot.Weighted>
4.3794

> <Gold.Chemscore.Internal.Correction.Weighted>
   9.000000E+99

> <Gold.Protein.RotatedTorsions>
[ 6907 6896 6895 6894 ] final   57.28 input  -60.11 | X-H torsion
[ 7974 7965 7964 7962 ] final  156.34 input  175.53 | X-H torsion
[ 8008 7997 7996 7995 ] final  162.15 input   59.86 | X-H torsion
[ 10167 10162 10161 10158 ] final -146.94 input  -65.29 | X-H torsion
[ 10718 10713 10712 10709 ] final  -32.23 input   66.30 | X-H torsion
[ 10763 10752 10751 10750 ] final  -98.01 input  -60.55 | X-H torsion
[ 11005 11000 10999 10996 ] final   32.52 input  -57.11 | X-H torsion

> <Gold.Protein.ActiveResidues>
 VAL166  LYS551  ARG553  GLY616  TRP617  ASP618  TYR619  PRO620  LYS621  CYS622 
 ASP623  PHE694  ASN695  SER759  ASP760  ASP761  ALA762  ILE779  LEU786  VAL792 
 PHE793  MET794  SER795  GLU796  ALA797  LYS798  CYS799  TRP800  GLU811  SER814 

> <Gold.Protein.RotatedAtoms>
  152.3717  134.6724  160.0173 H   0  0  0  0  0  0  0  0  0  0  0  0  # atno 6907 bound_to 6896
  151.7015  133.3306  159.3276 H   0  0  0  0  0  0  0  0  0  0  0  0  # atno 6908 bound_to 6896
  150.7678  134.6546  159.6351 H   0  0  0  0  0  0  0  0  0  0  0  0  # atno 6909 bound_to 6896
  144.7969  139.7190  143.6198 H   0  0  0  0  0  0  0  0  0  0  0  0  # atno 7974 bound_to 7965
  156.2052  140.1758  156.7815 H   0  0  0  0  0  0  0  0  0  0  0  0  # atno 8008 bound_to 7997
  154.5645  140.0693  156.8901 H   0  0  0  0  0  0  0  0  0  0  0  0  # atno 8009 bound_to 7997
  155.2786  140.3347  155.4262 H   0  0  0  0  0  0  0  0  0  0  0  0  # atno 8010 bound_to 7997
  139.7667  143.8297  152.2617 H   0  0  0  0  0  0  0  0  0  0  0  0  # atno 10167 bound_to 10162
  156.3774  130.4350  149.7496 H   0  0  0  0  0  0  0  0  0  0  0  0  # atno 10718 bound_to 10713
  154.7377  135.5025  153.9069 H   0  0  0  0  0  0  0  0  0  0  0  0  # atno 10763 bound_to 10752
  153.1012  135.6685  153.9678 H   0  0  0  0  0  0  0  0  0  0  0  0  # atno 10764 bound_to 10752
  153.9464  135.3062  155.3420 H   0  0  0  0  0  0  0  0  0  0  0  0  # atno 10765 bound_to 10752
  140.2726  134.3064  155.7823 H   0  0  0  0  0  0  0  0  0  0  0  0  # atno 11005 bound_to 11000
  146.2240  139.5688  142.9599 LP  0  0  0  0  0  0  0  0  0  0  0  0  # atno 17320 bound_to 7965
  145.5651  141.0400  143.2205 LP  0  0  0  0  0  0  0  0  0  0  0  0  # atno 17321 bound_to 7965
  139.8319  144.7250  150.9440 LP  0  0  0  0  0  0  0  0  0  0  0  0  # atno 17342 bound_to 10162
  140.7811  143.4062  151.1067 LP  0  0  0  0  0  0  0  0  0  0  0  0  # atno 17343 bound_to 10162
  156.4599  130.7947  151.2967 LP  0  0  0  0  0  0  0  0  0  0  0  0  # atno 17370 bound_to 10713
  157.7489  131.0069  150.3169 LP  0  0  0  0  0  0  0  0  0  0  0  0  # atno 17371 bound_to 10713
  141.2175  133.7476  156.9358 LP  0  0  0  0  0  0  0  0  0  0  0  0  # atno 17394 bound_to 11000
  140.1358  134.9326  157.2400 LP  0  0  0  0  0  0  0  0  0  0  0  0  # atno 17395 bound_to 11000

$$$$
