AV-unprocessed.smi:1684|AV-procd|sdf|6754|dock10
  -GOLD-   22720 7513D 1   1.00000     0.00000
 Structure written by MMmdl.
 42 43  0  0  0  0  0  0  0  0  1 V2000
  145.4953  135.4887  151.0180 C   0  0  0  0  0  0  0  0  0  0  0  0
  145.3846  133.9801  151.1670 C   0  0  0  0  0  0  0  0  0  0  0  0
  144.3173  133.3014  150.5413 C   0  0  0  0  0  0  0  0  0  0  0  0
  144.2151  131.9068  150.6812 C   0  0  0  0  0  0  0  0  0  0  0  0
  145.1907  131.2458  151.4471 C   0  0  0  0  0  0  0  0  0  0  0  0
  146.2141  131.8863  152.0479 N   0  0  0  0  0  0  0  0  0  0  0  0
  146.3279  133.2325  151.9223 C   0  0  0  0  0  0  0  0  0  0  0  0
  147.3844  133.9736  152.5228 N   0  0  0  0  0  0  0  0  0  0  0  0
  147.9569  133.7913  153.7257 C   0  0  0  0  0  0  0  0  0  0  0  0
  147.6338  132.9305  154.5449 O   0  0  0  0  0  0  0  0  0  0  0  0
  148.9354  134.6854  153.9326 N   0  0  0  0  0  0  0  0  0  0  0  0
  149.7355  134.8131  155.1498 C   0  0  1  0  0  0  0  0  0  0  0  0
  150.1044  133.4151  155.6643 C   0  0  0  0  0  0  0  0  0  0  0  0
  150.9945  135.6598  154.8678 C   0  0  0  0  0  0  0  0  0  0  0  0
  150.9114  137.0684  155.2581 N   0  0  0  0  0  0  0  0  0  0  0  0
  152.2055  137.7463  155.2139 C   0  0  0  0  0  0  0  0  0  0  0  0
  152.0890  139.2282  155.6109 C   0  0  0  0  0  0  0  0  0  0  0  0
  151.1442  139.8781  154.7666 O   0  0  0  0  0  0  0  0  0  0  0  0
  149.8562  139.2733  154.8170 C   0  0  0  0  0  0  0  0  0  0  0  0
  149.9666  137.7924  154.4151 C   0  0  0  0  0  0  0  0  0  0  0  0
  144.6857  135.8880  150.4065 H   0  0  0  0  0  0  0  0  0  0  0  0
  146.4388  135.7573  150.5420 H   0  0  0  0  0  0  0  0  0  0  0  0
  145.4482  135.9726  151.9939 H   0  0  0  0  0  0  0  0  0  0  0  0
  143.5837  133.8407  149.9601 H   0  0  0  0  0  0  0  0  0  0  0  0
  143.4104  131.3582  150.2145 H   0  0  0  0  0  0  0  0  0  0  0  0
  145.1496  130.1750  151.5807 H   0  0  0  0  0  0  0  0  0  0  0  0
  147.7461  134.7348  151.9681 H   0  0  0  0  0  0  0  0  0  0  0  0
  149.1240  135.3543  153.2007 H   0  0  0  0  0  0  0  0  0  0  0  0
  149.1572  135.2951  155.9386 H   0  0  0  0  0  0  0  0  0  0  0  0
  150.6824  133.4778  156.5866 H   0  0  0  0  0  0  0  0  0  0  0  0
  150.7004  132.8656  154.9349 H   0  0  0  0  0  0  0  0  0  0  0  0
  149.2108  132.8267  155.8761 H   0  0  0  0  0  0  0  0  0  0  0  0
  151.8559  135.1984  155.3534 H   0  0  0  0  0  0  0  0  0  0  0  0
  151.1963  135.6067  153.7969 H   0  0  0  0  0  0  0  0  0  0  0  0
  152.9112  137.2628  155.8882 H   0  0  0  0  0  0  0  0  0  0  0  0
  152.6286  137.6728  154.2109 H   0  0  0  0  0  0  0  0  0  0  0  0
  151.7830  139.3245  156.6537 H   0  0  0  0  0  0  0  0  0  0  0  0
  153.0551  139.7240  155.5133 H   0  0  0  0  0  0  0  0  0  0  0  0
  149.4390  139.3716  155.8204 H   0  0  0  0  0  0  0  0  0  0  0  0
  149.1870  139.8013  154.1375 H   0  0  0  0  0  0  0  0  0  0  0  0
  150.2747  137.7244  153.3705 H   0  0  0  0  0  0  0  0  0  0  0  0
  148.9816  137.3286  154.4800 H   0  0  0  0  0  0  0  0  0  0  0  0
  1  2  1  0  0  0  0
  1 21  1  0  0  0  0
  1 22  1  0  0  0  0
  1 23  1  0  0  0  0
  2  7  1  0  0  0  0
  2  3  2  0  0  0  0
  3  4  1  0  0  0  0
  3 24  1  0  0  0  0
  4  5  2  0  0  0  0
  4 25  1  0  0  0  0
  5  6  1  0  0  0  0
  5 26  1  0  0  0  0
  6  7  2  0  0  0  0
  7  8  1  0  0  0  0
  8  9  1  0  0  0  0
  8 27  1  0  0  0  0
  9 10  2  0  0  0  0
  9 11  1  0  0  0  0
 11 12  1  0  0  0  0
 11 28  1  0  0  0  0
 12 13  1  0  0  0  0
 12 14  1  0  0  0  0
 12 29  1  0  0  0  0
 13 30  1  0  0  0  0
 13 31  1  0  0  0  0
 13 32  1  0  0  0  0
 14 15  1  0  0  0  0
 14 33  1  0  0  0  0
 14 34  1  0  0  0  0
 15 20  1  0  0  0  0
 15 16  1  0  0  0  0
 16 17  1  0  0  0  0
 16 35  1  0  0  0  0
 16 36  1  0  0  0  0
 17 18  1  0  0  0  0
 17 37  1  0  0  0  0
 17 38  1  0  0  0  0
 18 19  1  0  0  0  0
 19 20  1  0  0  0  0
 19 39  1  0  0  0  0
 19 40  1  0  0  0  0
 20 41  1  0  0  0  0
 20 42  1  0  0  0  0
M  END
> <s_m_source_file>
AV-unprocessed.smi

> <i_m_source_file_index>
1684

> <i_lp_mmshare_version>
43012

> <i_f3d_flags>
0

> <s_epik_input>
W0NIM11jMVtjSF1bY0hdW2NIXW5jMVtOSF1DKD1PKVtOSF1bQ0BIXShbQ0gzXSlbQ0gyXU4yW0NIMl1bQ0gyXU9bQ0gyXVtDSDJdMg==

> <s_epik_cmdline>
J2VwaWtfcHl0aG9uJywgJy1waCcsICc3LjAnLCAnLXRuJywgJzgnLCAnLW1hJywgJzIwMCcsICctbWV0YWxfYmluZGluZycsICctaW1hZScsICc8aW5maWxlLm1hZT4nLCAnLW9tYWUnLCAnPG91dGZpbGUubWFlPic=

> <r_epik_Ionization_Penalty>
0.26605

> <r_epik_Ionization_Penalty_Charging>
0

> <r_epik_Ionization_Penalty_Neutral>
0.26605

> <r_epik_State_Penalty>
0.257924

> <r_epik_Charging_Adjusted_Penalty>
0.257924

> <i_epik_Tot_Q>
0

> <i_epik_Tot_abs_Q>
0

> <r_epik_Metal_State_Penalty>
0.257922

> <b_epik_Metal_Only>
0

> <s_lp_Force_Field>
OPLS_2005

> <r_lp_Energy>
28.5554

> <b_lp_Chiralities_Consistent>
1

> <s_lp_Variant>
AV-unprocessed.smi:1684-2

> <Gold.Version>
5.8.1

> <Gold.Id.Protein>
6NUR|6NUR_protein|mol2

> <Gold.PLP.Fitness>
41.0250

> <Gold.PLP.PLP>
-34.2996

> <Gold.PLP.part.hbond>
-3.0000

> <Gold.PLP.part.metal>
0.0000

> <Gold.PLP.part.buried>
-4.5163

> <Gold.PLP.part.nonpolar>
-27.3629

> <Gold.PLP.part.repulsive>
0.3455

> <Gold.PLP.ligand.clash>
0.0000

> <Gold.PLP.ligand.torsion>
1.1158

> <Gold.PLP.Chemscore.Hbond>
2.9760

> <Gold.PLP.Chemscore.CHOScore>
0.0000

> <Gold.PLP.Chemscore.Metal>
0.0000

> <Gold.Chemscore.Hbonds>
donor molecule, donor type, donor heavy atom, donor atom, acceptor molecule, acceptor atom, score
      L1  H     8    27       P1  7948  0.96
      L1  H    11    28       P1  7948  1.00
      P1  H  7989  7998       L1    18  1.00

> <Gold.PLP.Chemscore.Internal.Correction>
0.0289

> <Gold.Rescore>
     Score         DG    S(hbond)    S(metal)    S(lipo)     H(rot)  DE(clash)    DE(int)     intcor
     17.00     -19.71       2.73        0.00      75.61       1.46       0.04       2.67       ----

> <Gold.Chemscore.Fitness>
17.0014

> <Gold.Chemscore.DG>
-19.7074

> <Gold.Chemscore.ZeroCoef>
-5.4800

> <Gold.Chemscore.Hbond>
2.7287

> <Gold.Chemscore.Metal>
0.0000

> <Gold.Chemscore.Lipo>
75.6078

> <Gold.Chemscore.Internal_Hbond>
0.0000

> <Gold.Chemscore.DEClash>
0.0366

> <Gold.Chemscore.DEInternal>
2.6694

> <Gold.Chemscore.Rot>
1.4581

> <Gold.Chemscore.Internal.Correction>
   9.000000E+99

> <Gold.Chemscore.Hbonds>
donor molecule, donor type, donor heavy atom, donor atom, acceptor molecule, acceptor atom, score
      L1  H     8    27       P1  7948  0.46
      L1  H    11    28       P1  7948  0.29
      P1  H  7989  7998       L1    18  0.98

> <Gold.Chemscore.Hbond.Weighted>
-9.1140

> <Gold.Chemscore.Metal.Weighted>
-0.0000

> <Gold.Chemscore.Lipo.Weighted>
-8.8461

> <Gold.Chemscore.Internal_Hbond.Weighted>
0.0000

> <Gold.Chemscore.DEClash.Weighted>
0.0366

> <Gold.Chemscore.DEInternal.Weighted>
2.6694

> <Gold.Chemscore.Rot.Weighted>
3.7327

> <Gold.Chemscore.Internal.Correction.Weighted>
   9.000000E+99

> <Gold.Protein.RotatedTorsions>
[ 6907 6896 6895 6894 ] final   54.68 input  -60.11 | X-H torsion
[ 7974 7965 7964 7962 ] final   49.37 input  175.53 | X-H torsion
[ 8008 7997 7996 7995 ] final  164.83 input   59.86 | X-H torsion
[ 10167 10162 10161 10158 ] final  165.20 input  -65.29 | X-H torsion
[ 10718 10713 10712 10709 ] final  135.96 input   66.30 | X-H torsion
[ 10763 10752 10751 10750 ] final   91.52 input  -60.55 | X-H torsion
[ 11005 11000 10999 10996 ] final   93.84 input  -57.11 | X-H torsion

> <Gold.Protein.ActiveResidues>
 VAL166  LYS551  ARG553  GLY616  TRP617  ASP618  TYR619  PRO620  LYS621  CYS622 
 ASP623  PHE694  ASN695  SER759  ASP760  ASP761  ALA762  ILE779  LEU786  VAL792 
 PHE793  MET794  SER795  GLU796  ALA797  LYS798  CYS799  TRP800  GLU811  SER814 

> <Gold.Protein.RotatedAtoms>
  152.3464  134.7066  160.0248 H   0  0  0  0  0  0  0  0  0  0  0  0  # atno 6907 bound_to 6896
  151.7434  133.3318  159.3380 H   0  0  0  0  0  0  0  0  0  0  0  0  # atno 6908 bound_to 6896
  150.7511  134.6190  159.6171 H   0  0  0  0  0  0  0  0  0  0  0  0  # atno 6909 bound_to 6896
  146.0115  139.4548  142.9953 H   0  0  0  0  0  0  0  0  0  0  0  0  # atno 7974 bound_to 7965
  156.1849  140.1686  156.8204 H   0  0  0  0  0  0  0  0  0  0  0  0  # atno 8008 bound_to 7997
  154.5403  140.0738  156.8530 H   0  0  0  0  0  0  0  0  0  0  0  0  # atno 8009 bound_to 7997
  155.3229  140.3374  155.4243 H   0  0  0  0  0  0  0  0  0  0  0  0  # atno 8010 bound_to 7997
  139.4902  144.4156  151.9247 H   0  0  0  0  0  0  0  0  0  0  0  0  # atno 10167 bound_to 10162
  157.4517  131.1066  151.0026 H   0  0  0  0  0  0  0  0  0  0  0  0  # atno 10718 bound_to 10713
  153.2092  135.4394  155.0359 H   0  0  0  0  0  0  0  0  0  0  0  0  # atno 10763 bound_to 10752
  154.8190  135.3329  154.7095 H   0  0  0  0  0  0  0  0  0  0  0  0  # atno 10764 bound_to 10752
  153.7534  135.6996  153.4996 H   0  0  0  0  0  0  0  0  0  0  0  0  # atno 10765 bound_to 10752
  139.8805  134.8812  156.3776 H   0  0  0  0  0  0  0  0  0  0  0  0  # atno 11005 bound_to 11000
  145.7335  141.0034  143.1339 LP  0  0  0  0  0  0  0  0  0  0  0  0  # atno 17320 bound_to 7965
  144.6955  139.9013  143.7458 LP  0  0  0  0  0  0  0  0  0  0  0  0  # atno 17321 bound_to 7965
  140.3599  144.2986  150.5935 LP  0  0  0  0  0  0  0  0  0  0  0  0  # atno 17342 bound_to 10162
  140.5412  143.2223  151.8082 LP  0  0  0  0  0  0  0  0  0  0  0  0  # atno 17343 bound_to 10162
  157.0854  130.5920  149.5428 LP  0  0  0  0  0  0  0  0  0  0  0  0  # atno 17370 bound_to 10713
  155.9990  130.5065  150.7590 LP  0  0  0  0  0  0  0  0  0  0  0  0  # atno 17371 bound_to 10713
  140.9421  133.7507  156.0160 LP  0  0  0  0  0  0  0  0  0  0  0  0  # atno 17394 bound_to 11000
  140.8207  134.3293  157.5382 LP  0  0  0  0  0  0  0  0  0  0  0  0  # atno 17395 bound_to 11000

$$$$
