AV-unprocessed.smi:2858|AV-procd|sdf|11003|dock9
  -GOLD-   2272015463D 1   1.00000     0.00000
 Structure written by MMmdl.
 39 40  0  0  0  0  0  0  0  0  3 V2000
  144.4911  144.6473  154.3602 O   0  0  0  0  0  0  0  0  0  0  0  0
  144.7617  143.5009  154.7110 C   0  0  0  0  0  0  0  0  0  0  0  0
  145.9309  142.7980  153.9688 C   0  0  0  0  0  0  0  0  0  0  0  0
  145.8854  141.3141  154.1165 N   0  3  1  0  0  0  0  0  0  0  0  0
  147.0333  140.6224  153.4768 C   0  0  0  0  0  0  0  0  0  0  0  0
  148.1614  140.2955  154.4701 C   0  0  0  0  0  0  0  0  0  0  0  0
  149.4330  141.1169  154.1991 C   0  0  0  0  0  0  0  0  0  0  0  0
  149.7053  142.0634  155.2750 N   0  0  0  0  0  0  0  0  0  0  0  0
  150.5298  141.8363  156.3079 C   0  0  0  0  0  0  0  0  0  0  0  0
  151.1580  140.7872  156.4540 O   0  0  0  0  0  0  0  0  0  0  0  0
  150.5688  142.8905  157.1421 N   0  0  0  0  0  0  0  0  0  0  0  0
  151.3388  143.0454  158.3258 C   0  0  0  0  0  0  0  0  0  0  0  0
  151.1650  144.2774  158.9960 C   0  0  0  0  0  0  0  0  0  0  0  0
  151.8869  144.5305  160.1787 C   0  0  0  0  0  0  0  0  0  0  0  0
  152.7649  143.5438  160.6615 C   0  0  0  0  0  0  0  0  0  0  0  0
  152.8800  142.3454  159.9333 C   0  0  0  0  0  0  0  0  0  0  0  0
  152.1898  142.1010  158.7992 N   0  0  0  0  0  0  0  0  0  0  0  0
  145.6988  140.9060  155.5330 C   0  0  0  0  0  0  0  0  0  0  0  0
  144.3395  141.4015  156.0619 C   0  0  0  0  0  0  0  0  0  0  0  0
  144.1491  142.8168  155.7267 N   0  5  0  0  0  0  0  0  0  0  0  0
  145.8814  143.0740  152.9161 H   0  0  0  0  0  0  0  0  0  0  0  0
  146.8728  143.1821  154.3629 H   0  0  0  0  0  0  0  0  0  0  0  0
  146.6875  139.7179  152.9746 H   0  0  0  0  0  0  0  0  0  0  0  0
  147.4446  141.2698  152.7010 H   0  0  0  0  0  0  0  0  0  0  0  0
  147.8098  140.4873  155.4847 H   0  0  0  0  0  0  0  0  0  0  0  0
  148.4129  139.2360  154.4224 H   0  0  0  0  0  0  0  0  0  0  0  0
  150.2927  140.4523  154.1098 H   0  0  0  0  0  0  0  0  0  0  0  0
  149.3516  141.6485  153.2495 H   0  0  0  0  0  0  0  0  0  0  0  0
  149.2273  142.9517  155.2328 H   0  0  0  0  0  0  0  0  0  0  0  0
  149.9821  143.6757  156.9017 H   0  0  0  0  0  0  0  0  0  0  0  0
  150.4850  145.0244  158.6123 H   0  0  0  0  0  0  0  0  0  0  0  0
  151.7678  145.4654  160.7062 H   0  0  0  0  0  0  0  0  0  0  0  0
  153.3347  143.7005  161.5653 H   0  0  0  0  0  0  0  0  0  0  0  0
  153.5437  141.5624  160.2692 H   0  0  0  0  0  0  0  0  0  0  0  0
  145.7400  139.8202  155.6272 H   0  0  0  0  0  0  0  0  0  0  0  0
  146.5145  141.3073  156.1372 H   0  0  0  0  0  0  0  0  0  0  0  0
  143.5514  140.7909  155.6205 H   0  0  0  0  0  0  0  0  0  0  0  0
  144.2848  141.2261  157.1361 H   0  0  0  0  0  0  0  0  0  0  0  0
  145.0517  141.0045  153.6377 H   0  0  0  0  0  0  0  0  0  0  0  0
  1  2  2  0  0  0  0
  2 20  1  0  0  0  0
  2  3  1  0  0  0  0
  3  4  1  0  0  0  0
  3 21  1  0  0  0  0
  3 22  1  0  0  0  0
  4  5  1  0  0  0  0
  4 18  1  0  0  0  0
  4 39  1  0  0  0  0
  5  6  1  0  0  0  0
  5 23  1  0  0  0  0
  5 24  1  0  0  0  0
  6  7  1  0  0  0  0
  6 25  1  0  0  0  0
  6 26  1  0  0  0  0
  7  8  1  0  0  0  0
  7 27  1  0  0  0  0
  7 28  1  0  0  0  0
  8  9  1  0  0  0  0
  8 29  1  0  0  0  0
  9 10  2  0  0  0  0
  9 11  1  0  0  0  0
 11 12  1  0  0  0  0
 11 30  1  0  0  0  0
 12 17  1  0  0  0  0
 12 13  2  0  0  0  0
 13 14  1  0  0  0  0
 13 31  1  0  0  0  0
 14 15  2  0  0  0  0
 14 32  1  0  0  0  0
 15 16  1  0  0  0  0
 15 33  1  0  0  0  0
 16 17  2  0  0  0  0
 16 34  1  0  0  0  0
 18 19  1  0  0  0  0
 18 35  1  0  0  0  0
 18 36  1  0  0  0  0
 19 20  1  0  0  0  0
 19 37  1  0  0  0  0
 19 38  1  0  0  0  0
M  CHG  1   4   1
M  CHG  1  20  -1
M  END
> <s_m_source_file>
AV-unprocessed.smi

> <i_m_source_file_index>
2858

> <i_lp_mmshare_version>
43012

> <i_f3d_flags>
0

> <s_epik_input>
Tz1DMVtDSDJdTihbQ0gyXVtDSDJdW05IXTEpW0NIMl1bQ0gyXVtDSDJdW05IXUMoPU8pW05IXWMyW2NIXVtjSF1bY0hdW2NIXW4y

> <s_epik_cmdline>
J2VwaWtfcHl0aG9uJywgJy1waCcsICc3LjAnLCAnLXRuJywgJzgnLCAnLW1hJywgJzIwMCcsICctbWV0YWxfYmluZGluZycsICctaW1hZScsICc8aW5maWxlLm1hZT4nLCAnLW9tYWUnLCAnPG91dGZpbGUubWFlPic=

> <r_epik_Ionization_Penalty>
5.09835

> <r_epik_Ionization_Penalty_Charging>
5.09831

> <r_epik_Ionization_Penalty_Neutral>
4.20822e-05

> <r_epik_State_Penalty>
5.19693

> <r_epik_Charging_Adjusted_Penalty>
10.2952

> <i_epik_Tot_Q>
0

> <i_epik_Tot_abs_Q>
2

> <r_epik_Metal_State_Penalty>
1.27693

> <b_epik_Metal_Only>
1

> <s_lp_Force_Field>
OPLS_2005

> <r_lp_Energy>
14.6847

> <b_lp_Chiralities_Consistent>
1

> <s_lp_Variant>
AV-unprocessed.smi:2858-5

> <Gold.Version>
5.8.1

> <Gold.Id.Protein>
6NUR|6NUR_protein|mol2

> <Gold.PLP.Fitness>
45.9188

> <Gold.PLP.PLP>
-36.5125

> <Gold.PLP.part.hbond>
-3.0000

> <Gold.PLP.part.metal>
0.0000

> <Gold.PLP.part.buried>
-3.0961

> <Gold.PLP.part.nonpolar>
-30.6701

> <Gold.PLP.part.repulsive>
0.4789

> <Gold.PLP.ligand.clash>
0.0000

> <Gold.PLP.ligand.torsion>
1.3234

> <Gold.PLP.Chemscore.Hbond>
4.0000

> <Gold.PLP.Chemscore.CHOScore>
0.0000

> <Gold.PLP.Chemscore.Metal>
0.0000

> <Gold.Chemscore.Hbonds>
donor molecule, donor type, donor heavy atom, donor atom, acceptor molecule, acceptor atom, score
      L1  H     4    39       P1 10175  2.00
      L1  H     8    29       P1  8028  1.00
      L1  H    11    30       P1  8028  1.00

> <Gold.PLP.Chemscore.Internal.Correction>
0.0529

> <Gold.Rescore>
     Score         DG    S(hbond)    S(metal)    S(lipo)     H(rot)  DE(clash)    DE(int)     intcor
     16.21     -18.89       2.91        0.00      75.94       2.02       0.02       2.66       ----

> <Gold.Chemscore.Fitness>
16.2135

> <Gold.Chemscore.DG>
-18.8948

> <Gold.Chemscore.ZeroCoef>
-5.4800

> <Gold.Chemscore.Hbond>
2.9055

> <Gold.Chemscore.Metal>
0.0000

> <Gold.Chemscore.Lipo>
75.9388

> <Gold.Chemscore.Internal_Hbond>
0.0000

> <Gold.Chemscore.DEClash>
0.0241

> <Gold.Chemscore.DEInternal>
2.6572

> <Gold.Chemscore.Rot>
2.0213

> <Gold.Chemscore.Internal.Correction>
   9.000000E+99

> <Gold.Chemscore.Hbonds>
donor molecule, donor type, donor heavy atom, donor atom, acceptor molecule, acceptor atom, score
      L1  H     4    39       P1 10175  0.70
      L1  H     8    29       P1  8028  0.99
      L1  H    11    30       P1  8028  0.96

> <Gold.Chemscore.Hbond.Weighted>
-9.7043

> <Gold.Chemscore.Metal.Weighted>
-0.0000

> <Gold.Chemscore.Lipo.Weighted>
-8.8848

> <Gold.Chemscore.Internal_Hbond.Weighted>
0.0000

> <Gold.Chemscore.DEClash.Weighted>
0.0241

> <Gold.Chemscore.DEInternal.Weighted>
2.6572

> <Gold.Chemscore.Rot.Weighted>
5.1744

> <Gold.Chemscore.Internal.Correction.Weighted>
   9.000000E+99

> <Gold.Protein.RotatedTorsions>
[ 6907 6896 6895 6894 ] final -156.71 input  -60.11 | X-H torsion
[ 7974 7965 7964 7962 ] final -103.84 input  175.53 | X-H torsion
[ 8008 7997 7996 7995 ] final -139.61 input   59.86 | X-H torsion
[ 10167 10162 10161 10158 ] final  122.84 input  -65.29 | X-H torsion
[ 10718 10713 10712 10709 ] final -143.42 input   66.30 | X-H torsion
[ 10763 10752 10751 10750 ] final   40.57 input  -60.55 | X-H torsion
[ 11005 11000 10999 10996 ] final   26.72 input  -57.11 | X-H torsion

> <Gold.Protein.ActiveResidues>
 VAL166  LYS551  ARG553  GLY616  TRP617  ASP618  TYR619  PRO620  LYS621  CYS622 
 ASP623  PHE694  ASN695  SER759  ASP760  ASP761  ALA762  ILE779  LEU786  VAL792 
 PHE793  MET794  SER795  GLU796  ALA797  LYS798  CYS799  TRP800  GLU811  SER814 

> <Gold.Protein.RotatedAtoms>
  151.2918  133.4162  159.2633 H   0  0  0  0  0  0  0  0  0  0  0  0  # atno 6907 bound_to 6896
  151.0271  134.9512  159.8101 H   0  0  0  0  0  0  0  0  0  0  0  0  # atno 6908 bound_to 6896
  152.5337  134.2880  159.9085 H   0  0  0  0  0  0  0  0  0  0  0  0  # atno 6909 bound_to 6896
  145.2507  140.9237  143.3097 H   0  0  0  0  0  0  0  0  0  0  0  0  # atno 7974 bound_to 7965
  155.4477  140.0536  157.3004 H   0  0  0  0  0  0  0  0  0  0  0  0  # atno 8008 bound_to 7997
  154.4790  140.2073  155.9764 H   0  0  0  0  0  0  0  0  0  0  0  0  # atno 8009 bound_to 7997
  156.1177  140.3193  155.8168 H   0  0  0  0  0  0  0  0  0  0  0  0  # atno 8010 bound_to 7997
  139.5834  144.6996  151.3469 H   0  0  0  0  0  0  0  0  0  0  0  0  # atno 10167 bound_to 10162
  156.3577  130.7722  151.1885 H   0  0  0  0  0  0  0  0  0  0  0  0  # atno 10718 bound_to 10713
  152.9932  135.6187  154.2647 H   0  0  0  0  0  0  0  0  0  0  0  0  # atno 10763 bound_to 10752
  154.2382  135.2789  155.2866 H   0  0  0  0  0  0  0  0  0  0  0  0  # atno 10764 bound_to 10752
  154.5392  135.5766  153.6882 H   0  0  0  0  0  0  0  0  0  0  0  0  # atno 10765 bound_to 10752
  140.3340  134.2406  155.7698 H   0  0  0  0  0  0  0  0  0  0  0  0  # atno 11005 bound_to 11000
  144.9505  139.4088  143.6404 LP  0  0  0  0  0  0  0  0  0  0  0  0  # atno 17320 bound_to 7965
  146.3303  139.8510  142.8873 LP  0  0  0  0  0  0  0  0  0  0  0  0  # atno 17321 bound_to 7965
  140.7110  143.7391  150.7566 LP  0  0  0  0  0  0  0  0  0  0  0  0  # atno 17342 bound_to 10162
  140.0930  143.4860  152.2468 LP  0  0  0  0  0  0  0  0  0  0  0  0  # atno 17343 bound_to 10162
  157.7469  131.0409  150.4620 LP  0  0  0  0  0  0  0  0  0  0  0  0  # atno 17370 bound_to 10713
  156.4826  130.4077  149.6453 LP  0  0  0  0  0  0  0  0  0  0  0  0  # atno 17371 bound_to 10713
  141.2056  133.7856  157.0224 LP  0  0  0  0  0  0  0  0  0  0  0  0  # atno 17394 bound_to 11000
  140.0837  134.9633  157.1665 LP  0  0  0  0  0  0  0  0  0  0  0  0  # atno 17395 bound_to 11000

$$$$
