AV-unprocessed.smi:2459|AV-procd|sdf|9713|dock8
  -GOLD-   2272013353D 1   1.00000     0.00000
 Structure written by MMmdl.
 46 47  0  0  0  0  0  0  0  0  1 V2000
  154.9329  134.9272  160.9312 C   0  0  0  0  0  0  0  0  0  0  0  0
  154.5348  134.3693  159.6799 O   0  0  0  0  0  0  0  0  0  0  0  0
  155.0231  134.9850  158.4787 C   0  0  0  0  0  0  0  0  0  0  0  0
  156.5427  135.2554  158.5842 C   0  0  0  0  0  0  0  0  0  0  0  0
  154.7665  133.9634  157.3568 C   0  0  0  0  0  0  0  0  0  0  0  0
  154.2328  136.2775  158.1662 C   0  0  0  0  0  0  0  0  0  0  0  0
  153.6044  136.3677  157.1114 O   0  0  0  0  0  0  0  0  0  0  0  0
  154.2900  137.2493  159.0975 N   0  0  0  0  0  0  0  0  0  0  0  0
  153.6966  138.5405  159.0847 C   0  0  0  0  0  0  0  0  0  0  0  0
  153.9835  139.4043  160.1603 C   0  0  0  0  0  0  0  0  0  0  0  0
  153.4801  140.6504  160.2733 N   0  0  0  0  0  0  0  0  0  0  0  0
  152.6449  141.0995  159.3071 C   0  0  0  0  0  0  0  0  0  0  0  0
  152.1396  142.4020  159.4416 N   0  0  0  0  0  0  0  0  0  0  0  0
  152.5365  143.2909  158.3527 C   0  0  0  0  0  0  0  0  0  0  0  0
  151.7733  144.6241  158.4320 C   0  0  0  0  0  0  0  0  0  0  0  0
  151.9461  145.2738  159.8147 C   0  0  0  0  0  0  0  0  0  0  0  0
  151.5441  144.2852  160.9216 C   0  0  0  0  0  0  0  0  0  0  0  0
  152.3126  142.9602  160.7803 C   0  0  0  0  0  0  0  0  0  0  0  0
  152.2772  140.3083  158.1924 C   0  0  0  0  0  0  0  0  0  0  0  0
  151.3297  140.8320  157.1272 C   0  0  0  0  0  0  0  0  0  0  0  0
  152.8099  139.0063  158.0854 C   0  0  0  0  0  0  0  0  0  0  0  0
  154.3877  134.4277  161.7315 H   0  0  0  0  0  0  0  0  0  0  0  0
  154.7194  135.9934  161.0064 H   0  0  0  0  0  0  0  0  0  0  0  0
  155.9950  134.7711  161.1193 H   0  0  0  0  0  0  0  0  0  0  0  0
  156.9630  135.5477  157.6209 H   0  0  0  0  0  0  0  0  0  0  0  0
  157.0771  134.3633  158.9125 H   0  0  0  0  0  0  0  0  0  0  0  0
  156.7706  136.0562  159.2886 H   0  0  0  0  0  0  0  0  0  0  0  0
  155.1129  134.3328  156.3905 H   0  0  0  0  0  0  0  0  0  0  0  0
  153.7050  133.7315  157.2612 H   0  0  0  0  0  0  0  0  0  0  0  0
  155.2868  133.0259  157.5556 H   0  0  0  0  0  0  0  0  0  0  0  0
  154.8966  137.0606  159.8829 H   0  0  0  0  0  0  0  0  0  0  0  0
  154.6438  139.0895  160.9552 H   0  0  0  0  0  0  0  0  0  0  0  0
  153.6104  143.4753  158.4064 H   0  0  0  0  0  0  0  0  0  0  0  0
  152.3419  142.8079  157.3941 H   0  0  0  0  0  0  0  0  0  0  0  0
  152.1223  145.3015  157.6523 H   0  0  0  0  0  0  0  0  0  0  0  0
  150.7139  144.4490  158.2401 H   0  0  0  0  0  0  0  0  0  0  0  0
  152.9860  145.5730  159.9510 H   0  0  0  0  0  0  0  0  0  0  0  0
  151.3471  146.1822  159.8831 H   0  0  0  0  0  0  0  0  0  0  0  0
  151.7311  144.7230  161.9023 H   0  0  0  0  0  0  0  0  0  0  0  0
  150.4720  144.0916  160.8669 H   0  0  0  0  0  0  0  0  0  0  0  0
  151.9601  142.2451  161.5249 H   0  0  0  0  0  0  0  0  0  0  0  0
  153.3738  143.1257  160.9724 H   0  0  0  0  0  0  0  0  0  0  0  0
  151.1576  140.0899  156.3473 H   0  0  0  0  0  0  0  0  0  0  0  0
  151.7431  141.7254  156.6581 H   0  0  0  0  0  0  0  0  0  0  0  0
  150.3665  141.0890  157.5686 H   0  0  0  0  0  0  0  0  0  0  0  0
  152.5200  138.3886  157.2500 H   0  0  0  0  0  0  0  0  0  0  0  0
  1  2  1  0  0  0  0
  1 22  1  0  0  0  0
  1 23  1  0  0  0  0
  1 24  1  0  0  0  0
  2  3  1  0  0  0  0
  3  4  1  0  0  0  0
  3  5  1  0  0  0  0
  3  6  1  0  0  0  0
  4 25  1  0  0  0  0
  4 26  1  0  0  0  0
  4 27  1  0  0  0  0
  5 28  1  0  0  0  0
  5 29  1  0  0  0  0
  5 30  1  0  0  0  0
  6  7  2  0  0  0  0
  6  8  1  0  0  0  0
  8  9  1  0  0  0  0
  8 31  1  0  0  0  0
  9 21  1  0  0  0  0
  9 10  2  0  0  0  0
 10 11  1  0  0  0  0
 10 32  1  0  0  0  0
 11 12  2  0  0  0  0
 12 13  1  0  0  0  0
 12 19  1  0  0  0  0
 13 18  1  0  0  0  0
 13 14  1  0  0  0  0
 14 15  1  0  0  0  0
 14 33  1  0  0  0  0
 14 34  1  0  0  0  0
 15 16  1  0  0  0  0
 15 35  1  0  0  0  0
 15 36  1  0  0  0  0
 16 17  1  0  0  0  0
 16 37  1  0  0  0  0
 16 38  1  0  0  0  0
 17 18  1  0  0  0  0
 17 39  1  0  0  0  0
 17 40  1  0  0  0  0
 18 41  1  0  0  0  0
 18 42  1  0  0  0  0
 19 20  1  0  0  0  0
 19 21  2  0  0  0  0
 20 43  1  0  0  0  0
 20 44  1  0  0  0  0
 20 45  1  0  0  0  0
 21 46  1  0  0  0  0
M  END
> <s_m_source_file>
AV-unprocessed.smi

> <i_m_source_file_index>
2459

> <i_lp_mmshare_version>
43012

> <i_f3d_flags>
0

> <s_epik_input>
W0NIM11PQyhbQ0gzXSkoW0NIM10pQyg9TylbTkhdYzFbY0hdbmMoYyhbQ0gzXSlbY0hdMSlOMltDSDJdW0NIMl1bQ0gyXVtDSDJdW0NIMl0y

> <s_epik_cmdline>
J2VwaWtfcHl0aG9uJywgJy1waCcsICc3LjAnLCAnLXRuJywgJzgnLCAnLW1hJywgJzIwMCcsICctbWV0YWxfYmluZGluZycsICctaW1hZScsICc8aW5maWxlLm1hZT4nLCAnLW9tYWUnLCAnPG91dGZpbGUubWFlPic=

> <r_lp_tautomer_probability>
1

> <r_epik_Ionization_Penalty>
0.0966188

> <r_epik_Ionization_Penalty_Charging>
0

> <r_epik_Ionization_Penalty_Neutral>
0.0966188

> <r_epik_State_Penalty>
1.07001

> <r_epik_Charging_Adjusted_Penalty>
1.07001

> <i_epik_Tot_Q>
0

> <i_epik_Tot_abs_Q>
0

> <r_epik_Metal_State_Penalty>
1.00145

> <b_epik_Metal_Only>
0

> <s_lp_Force_Field>
OPLS_2005

> <r_lp_Energy>
29.1962

> <b_lp_Chiralities_Consistent>
1

> <s_lp_Variant>
AV-unprocessed.smi:2459-2

> <Gold.Version>
5.8.1

> <Gold.Id.Protein>
6NUR|6NUR_protein|mol2

> <Gold.PLP.Fitness>
40.7928

> <Gold.PLP.PLP>
-35.7119

> <Gold.PLP.part.hbond>
-1.9891

> <Gold.PLP.part.metal>
0.0000

> <Gold.PLP.part.buried>
-5.8287

> <Gold.PLP.part.nonpolar>
-27.9798

> <Gold.PLP.part.repulsive>
0.0761

> <Gold.PLP.ligand.clash>
0.0000

> <Gold.PLP.ligand.torsion>
0.4026

> <Gold.PLP.Chemscore.Hbond>
1.8938

> <Gold.PLP.Chemscore.CHOScore>
0.0000

> <Gold.PLP.Chemscore.Metal>
0.0000

> <Gold.Chemscore.Hbonds>
donor molecule, donor type, donor heavy atom, donor atom, acceptor molecule, acceptor atom, score
      P1  H  6896  6908       L1     2  0.90
      P1  H 10752 10763       L1     7  1.00

> <Gold.PLP.Chemscore.Internal.Correction>
0.2050

> <Gold.Rescore>
     Score         DG    S(hbond)    S(metal)    S(lipo)     H(rot)  DE(clash)    DE(int)     intcor
     13.12     -16.79       0.99        0.00      97.30       1.32       0.10       3.56       ----

> <Gold.Chemscore.Fitness>
13.1246

> <Gold.Chemscore.DG>
-16.7922

> <Gold.Chemscore.ZeroCoef>
-5.4800

> <Gold.Chemscore.Hbond>
0.9895

> <Gold.Chemscore.Metal>
0.0000

> <Gold.Chemscore.Lipo>
97.2962

> <Gold.Chemscore.Internal_Hbond>
0.0000

> <Gold.Chemscore.DEClash>
0.1040

> <Gold.Chemscore.DEInternal>
3.5636

> <Gold.Chemscore.Rot>
1.3189

> <Gold.Chemscore.Internal.Correction>
   9.000000E+99

> <Gold.Chemscore.Hbonds>
donor molecule, donor type, donor heavy atom, donor atom, acceptor molecule, acceptor atom, score
      P1  H  6896  6908       L1     2  0.16
      P1  H 10752 10763       L1     7  0.95

> <Gold.Chemscore.Hbond.Weighted>
-3.3050

> <Gold.Chemscore.Metal.Weighted>
-0.0000

> <Gold.Chemscore.Lipo.Weighted>
-11.3837

> <Gold.Chemscore.Internal_Hbond.Weighted>
0.0000

> <Gold.Chemscore.DEClash.Weighted>
0.1040

> <Gold.Chemscore.DEInternal.Weighted>
3.5636

> <Gold.Chemscore.Rot.Weighted>
3.3764

> <Gold.Chemscore.Internal.Correction.Weighted>
   9.000000E+99

> <Gold.Protein.RotatedTorsions>
[ 6907 6896 6895 6894 ] final  -48.04 input  -60.11 | X-H torsion
[ 7974 7965 7964 7962 ] final  -53.77 input  175.53 | X-H torsion
[ 8008 7997 7996 7995 ] final  -64.63 input   59.86 | X-H torsion
[ 10167 10162 10161 10158 ] final  119.26 input  -65.29 | X-H torsion
[ 10718 10713 10712 10709 ] final   72.63 input   66.30 | X-H torsion
[ 10763 10752 10751 10750 ] final  125.19 input  -60.55 | X-H torsion
[ 11005 11000 10999 10996 ] final   -8.66 input  -57.11 | X-H torsion

> <Gold.Protein.ActiveResidues>
 VAL166  LYS551  ARG553  GLY616  TRP617  ASP618  TYR619  PRO620  LYS621  CYS622 
 ASP623  PHE694  ASN695  SER759  ASP760  ASP761  ALA762  ILE779  LEU786  VAL792 
 PHE793  MET794  SER795  GLU796  ALA797  LYS798  CYS799  TRP800  GLU811  SER814 

> <Gold.Protein.RotatedAtoms>
  150.8946  134.8353  159.7316 H   0  0  0  0  0  0  0  0  0  0  0  0  # atno 6907 bound_to 6896
  152.4857  134.4596  159.9611 H   0  0  0  0  0  0  0  0  0  0  0  0  # atno 6908 bound_to 6896
  151.4655  133.3543  159.2851 H   0  0  0  0  0  0  0  0  0  0  0  0  # atno 6909 bound_to 6896
  145.8931  140.8055  142.9781 H   0  0  0  0  0  0  0  0  0  0  0  0  # atno 7974 bound_to 7965
  154.4623  140.0950  156.6927 H   0  0  0  0  0  0  0  0  0  0  0  0  # atno 8008 bound_to 7997
  155.4958  140.3472  155.4344 H   0  0  0  0  0  0  0  0  0  0  0  0  # atno 8009 bound_to 7997
  156.0893  140.1393  156.9601 H   0  0  0  0  0  0  0  0  0  0  0  0  # atno 8010 bound_to 7997
  139.6057  144.7069  151.2958 H   0  0  0  0  0  0  0  0  0  0  0  0  # atno 10167 bound_to 10162
  157.6510  130.9588  150.0956 H   0  0  0  0  0  0  0  0  0  0  0  0  # atno 10718 bound_to 10713
  153.6734  135.3326  155.3159 H   0  0  0  0  0  0  0  0  0  0  0  0  # atno 10763 bound_to 10752
  154.8485  135.4392  154.1681 H   0  0  0  0  0  0  0  0  0  0  0  0  # atno 10764 bound_to 10752
  153.2679  135.6997  153.7587 H   0  0  0  0  0  0  0  0  0  0  0  0  # atno 10765 bound_to 10752
  140.7259  133.8789  155.8856 H   0  0  0  0  0  0  0  0  0  0  0  0  # atno 11005 bound_to 11000
  144.6731  140.1560  143.7426 LP  0  0  0  0  0  0  0  0  0  0  0  0  # atno 17320 bound_to 7965
  145.8884  139.2362  143.1564 LP  0  0  0  0  0  0  0  0  0  0  0  0  # atno 17321 bound_to 7965
  140.7283  143.6939  150.7900 LP  0  0  0  0  0  0  0  0  0  0  0  0  # atno 17342 bound_to 10162
  140.0524  143.5236  152.2667 LP  0  0  0  0  0  0  0  0  0  0  0  0  # atno 17343 bound_to 10162
  156.1893  130.3654  149.8931 LP  0  0  0  0  0  0  0  0  0  0  0  0  # atno 17370 bound_to 10713
  156.6864  130.8878  151.3582 LP  0  0  0  0  0  0  0  0  0  0  0  0  # atno 17371 bound_to 10713
  140.9963  134.1211  157.4360 LP  0  0  0  0  0  0  0  0  0  0  0  0  # atno 17394 bound_to 11000
  139.8837  135.0055  156.6320 LP  0  0  0  0  0  0  0  0  0  0  0  0  # atno 17395 bound_to 11000

$$$$
