AV-unprocessed.smi:56|AV-procd|sdf|578|dock4
  -GOLD-   2262016483D 1   1.00000     0.00000
 Structure written by MMmdl.
 23 24  0  0  0  0  0  0  0  0  2 V2000
  144.9200  134.1993  150.6527 O   0  0  0  0  0  0  0  0  0  0  0  0
  144.9296  132.7846  150.5457 C   0  0  2  0  0  0  0  0  0  0  0  0
  145.9659  132.1847  151.4721 C   0  0  0  0  0  0  0  0  0  0  0  0
  146.8531  132.8430  152.3788 C   0  0  0  0  0  0  0  0  0  0  0  0
  147.5663  131.8292  152.9519 C   0  0  0  0  0  0  0  0  0  0  0  0
  147.1038  130.6622  152.3943 N   0  0  0  0  0  0  0  0  0  0  0  0
  146.1293  130.8666  151.4895 N   0  0  0  0  0  0  0  0  0  0  0  0
  145.1246  132.3981  149.0757 C   0  0  0  0  0  0  0  0  0  0  0  0
  143.7324  132.5503  148.4443 C   0  0  0  0  0  0  0  0  0  0  0  0
  142.7597  132.5421  149.5567 N   0  3  0  0  0  0  0  0  0  0  0  0
  143.5007  132.2856  150.8052 C   0  0  0  0  0  0  0  0  0  0  0  0
  147.4388  129.7349  152.6154 H   0  0  0  0  0  0  0  0  0  0  0  0
  144.1966  134.5418  150.1518 H   0  0  0  0  0  0  0  0  0  0  0  0
  146.9568  133.8988  152.5799 H   0  0  0  0  0  0  0  0  0  0  0  0
  148.3504  131.8408  153.6948 H   0  0  0  0  0  0  0  0  0  0  0  0
  145.8969  132.9804  148.5712 H   0  0  0  0  0  0  0  0  0  0  0  0
  145.4192  131.3490  149.0133 H   0  0  0  0  0  0  0  0  0  0  0  0
  143.6476  133.4984  147.9123 H   0  0  0  0  0  0  0  0  0  0  0  0
  143.5226  131.7475  147.7370 H   0  0  0  0  0  0  0  0  0  0  0  0
  142.3337  133.4560  149.6138 H   0  0  0  0  0  0  0  0  0  0  0  0
  143.4938  131.2049  150.9531 H   0  0  0  0  0  0  0  0  0  0  0  0
  143.0270  132.7442  151.6743 H   0  0  0  0  0  0  0  0  0  0  0  0
  142.0451  131.8423  149.4138 H   0  0  0  0  0  0  0  0  0  0  0  0
  1  2  1  0  0  0  0
  1 13  1  0  0  0  0
  2 11  1  0  0  0  0
  2  8  1  0  0  0  0
  2  3  1  0  0  0  0
  3  7  2  0  0  0  0
  3  4  1  0  0  0  0
  4  5  2  0  0  0  0
  4 14  1  0  0  0  0
  5  6  1  0  0  0  0
  5 15  1  0  0  0  0
  6  7  1  0  0  0  0
  6 12  1  0  0  0  0
  8  9  1  0  0  0  0
  8 16  1  0  0  0  0
  8 17  1  0  0  0  0
  9 10  1  0  0  0  0
  9 18  1  0  0  0  0
  9 19  1  0  0  0  0
 10 11  1  0  0  0  0
 10 20  1  0  0  0  0
 10 23  1  0  0  0  0
 11 21  1  0  0  0  0
 11 22  1  0  0  0  0
M  CHG  1  10   1
M  END
> <s_m_source_file>
AV-unprocessed.smi

> <i_m_source_file_index>
56

> <i_lp_mmshare_version>
43012

> <i_f3d_flags>
0

> <s_epik_input>
W0NIMl0xW05IXVtDSDJdW0NIMl1bQ0BAXTEoW09IXSljMltjSF1bY0hdbltuSF0y

> <s_epik_cmdline>
J2VwaWtfcHl0aG9uJywgJy1waCcsICc3LjAnLCAnLXRuJywgJzgnLCAnLW1hJywgJzIwMCcsICctbWV0YWxfYmluZGluZycsICctaW1hZScsICc8aW5maWxlLm1hZT4nLCAnLW9tYWUnLCAnPG91dGZpbGUubWFlPic=

> <r_lp_tautomer_probability>
0.5

> <r_epik_Ionization_Penalty>
0.000592189

> <r_epik_Ionization_Penalty_Charging>
0.00059155

> <r_epik_Ionization_Penalty_Neutral>
6.39784e-07

> <r_epik_State_Penalty>
0.41068

> <r_epik_Charging_Adjusted_Penalty>
0.411271

> <i_epik_Tot_Q>
1

> <i_epik_Tot_abs_Q>
1

> <r_epik_Metal_State_Penalty>
0.410682

> <b_epik_Metal_Only>
0

> <s_lp_Force_Field>
OPLS_2005

> <r_lp_Energy>
24.7565

> <b_lp_Chiralities_Consistent>
1

> <s_lp_Variant>
AV-unprocessed.smi:56-2

> <Gold.Version>
5.8.1

> <Gold.Id.Protein>
6NUR|6NUR_protein|mol2

> <Gold.PLP.Fitness>
32.1609

> <Gold.PLP.PLP>
-23.1698

> <Gold.PLP.part.hbond>
-3.0628

> <Gold.PLP.part.metal>
0.0000

> <Gold.PLP.part.buried>
-2.4218

> <Gold.PLP.part.nonpolar>
-17.6486

> <Gold.PLP.part.repulsive>
0.4799

> <Gold.PLP.ligand.clash>
0.0000

> <Gold.PLP.ligand.torsion>
0.0154

> <Gold.PLP.Chemscore.Hbond>
3.0000

> <Gold.PLP.Chemscore.CHOScore>
0.0000

> <Gold.PLP.Chemscore.Metal>
0.0000

> <Gold.Chemscore.Hbonds>
donor molecule, donor type, donor heavy atom, donor atom, acceptor molecule, acceptor atom, score
      L1  H    10    20       P1 10186  2.00
      L1  H    10    23       P1 10952  1.00

> <Gold.PLP.Chemscore.Internal.Correction>
0.0218

> <Gold.Rescore>
     Score         DG    S(hbond)    S(metal)    S(lipo)     H(rot)  DE(clash)    DE(int)     intcor
     15.58     -15.76       1.99        0.00      63.73       1.50       0.17       0.01       ----

> <Gold.Chemscore.Fitness>
15.5777

> <Gold.Chemscore.DG>
-15.7590

> <Gold.Chemscore.ZeroCoef>
-5.4800

> <Gold.Chemscore.Hbond>
1.9937

> <Gold.Chemscore.Metal>
0.0000

> <Gold.Chemscore.Lipo>
63.7280

> <Gold.Chemscore.Internal_Hbond>
0.0000

> <Gold.Chemscore.DEClash>
0.1702

> <Gold.Chemscore.DEInternal>
0.0110

> <Gold.Chemscore.Rot>
1.4985

> <Gold.Chemscore.Internal.Correction>
   9.000000E+99

> <Gold.Chemscore.Hbonds>
donor molecule, donor type, donor heavy atom, donor atom, acceptor molecule, acceptor atom, score
      L1  H    10    20       P1 10186  0.94
      L1  H    10    23       P1 10952  1.00

> <Gold.Chemscore.Hbond.Weighted>
-6.6590

> <Gold.Chemscore.Metal.Weighted>
-0.0000

> <Gold.Chemscore.Lipo.Weighted>
-7.4562

> <Gold.Chemscore.Internal_Hbond.Weighted>
0.0000

> <Gold.Chemscore.DEClash.Weighted>
0.1702

> <Gold.Chemscore.DEInternal.Weighted>
0.0110

> <Gold.Chemscore.Rot.Weighted>
3.8362

> <Gold.Chemscore.Internal.Correction.Weighted>
   9.000000E+99

> <Gold.Protein.RotatedTorsions>
[ 6907 6896 6895 6894 ] final  173.33 input  -60.11 | X-H torsion
[ 7974 7965 7964 7962 ] final   49.05 input  175.53 | X-H torsion
[ 8008 7997 7996 7995 ] final   19.41 input   59.86 | X-H torsion
[ 10167 10162 10161 10158 ] final  -75.53 input  -65.29 | X-H torsion
[ 10718 10713 10712 10709 ] final  -60.80 input   66.30 | X-H torsion
[ 10763 10752 10751 10750 ] final   20.87 input  -60.55 | X-H torsion
[ 11005 11000 10999 10996 ] final -107.61 input  -57.11 | X-H torsion

> <Gold.Protein.ActiveResidues>
 VAL166  LYS551  ARG553  GLY616  TRP617  ASP618  TYR619  PRO620  LYS621  CYS622 
 ASP623  PHE694  ASN695  SER759  ASP760  ASP761  ALA762  ILE779  LEU786  VAL792 
 PHE793  MET794  SER795  GLU796  ALA797  LYS798  CYS799  TRP800  GLU811  SER814 

> <Gold.Protein.RotatedAtoms>
  151.7701  133.3340  159.3441 H   0  0  0  0  0  0  0  0  0  0  0  0  # atno 6907 bound_to 6896
  150.7465  134.6026  159.6054 H   0  0  0  0  0  0  0  0  0  0  0  0  # atno 6908 bound_to 6896
  152.3347  134.7215  160.0331 H   0  0  0  0  0  0  0  0  0  0  0  0  # atno 6909 bound_to 6896
  146.0146  139.4581  142.9935 H   0  0  0  0  0  0  0  0  0  0  0  0  # atno 7974 bound_to 7965
  154.9203  140.3026  155.5219 H   0  0  0  0  0  0  0  0  0  0  0  0  # atno 8008 bound_to 7997
  156.3010  140.2372  156.4189 H   0  0  0  0  0  0  0  0  0  0  0  0  # atno 8009 bound_to 7997
  154.8337  140.0417  157.1483 H   0  0  0  0  0  0  0  0  0  0  0  0  # atno 8010 bound_to 7997
  140.4934  143.2375  151.7870 H   0  0  0  0  0  0  0  0  0  0  0  0  # atno 10167 bound_to 10162
  156.0965  130.4192  150.0905 H   0  0  0  0  0  0  0  0  0  0  0  0  # atno 10718 bound_to 10713
  153.1041  135.6680  153.9618 H   0  0  0  0  0  0  0  0  0  0  0  0  # atno 10763 bound_to 10752
  153.9180  135.3017  155.3449 H   0  0  0  0  0  0  0  0  0  0  0  0  # atno 10764 bound_to 10752
  154.7462  135.5056  153.9284 H   0  0  0  0  0  0  0  0  0  0  0  0  # atno 10765 bound_to 10752
  141.0945  133.8995  157.1996 H   0  0  0  0  0  0  0  0  0  0  0  0  # atno 11005 bound_to 11000
  145.7289  141.0049  143.1362 LP  0  0  0  0  0  0  0  0  0  0  0  0  # atno 17320 bound_to 7965
  144.6966  139.8960  143.7456 LP  0  0  0  0  0  0  0  0  0  0  0  0  # atno 17321 bound_to 7965
  139.4856  144.4619  151.9531 LP  0  0  0  0  0  0  0  0  0  0  0  0  # atno 17342 bound_to 10162
  140.3706  144.2860  150.5920 LP  0  0  0  0  0  0  0  0  0  0  0  0  # atno 17343 bound_to 10162
  156.8902  130.9586  151.3589 LP  0  0  0  0  0  0  0  0  0  0  0  0  # atno 17370 bound_to 10713
  157.6127  130.8595  149.8978 LP  0  0  0  0  0  0  0  0  0  0  0  0  # atno 17371 bound_to 10713
  139.9778  135.0108  156.9676 LP  0  0  0  0  0  0  0  0  0  0  0  0  # atno 17394 bound_to 11000
  140.5173  134.0943  155.7284 LP  0  0  0  0  0  0  0  0  0  0  0  0  # atno 17395 bound_to 11000

$$$$
