AV-unprocessed.smi:3068|AV-procd|sdf|11709|dock5
  -GOLD-   2272017113D 1   1.00000     0.00000
 Structure written by MMmdl.
 39 41  0  0  0  0  0  0  0  0  1 V2000
  154.3016  139.0807  154.8864 N   0  0  0  0  0  0  0  0  0  0  0  0
  153.1536  138.9687  154.9792 C   0  0  0  0  0  0  0  0  0  0  0  0
  151.7079  138.8273  155.0967 C   0  0  0  0  0  0  0  0  0  0  0  0
  150.9728  139.1862  154.0186 N   0  0  0  0  0  0  0  0  0  0  0  0
  149.6321  139.0604  154.1147 C   0  0  0  0  0  0  0  0  0  0  0  0
  149.0189  138.5747  155.2857 C   0  0  0  0  0  0  0  0  0  0  0  0
  149.7444  138.2132  156.3649 N   0  0  0  0  0  0  0  0  0  0  0  0
  151.0930  138.3378  156.2838 C   0  0  0  0  0  0  0  0  0  0  0  0
  151.8637  137.9634  157.4003 N   0  0  0  0  0  0  0  0  0  0  0  0
  152.7399  138.9107  158.0798 C   0  0  0  0  0  0  0  0  0  0  0  0
  152.0124  140.2071  158.4721 C   0  0  1  0  0  0  0  0  0  0  0  0
  152.7714  140.9745  159.5700 C   0  0  0  0  0  0  0  0  0  0  0  0
  152.1255  142.2403  159.8932 N   0  0  0  0  0  0  0  0  0  0  0  0
  152.8592  142.9619  160.9315 C   0  0  0  0  0  0  0  0  0  0  0  0
  152.1791  144.2853  161.3165 C   0  0  0  0  0  0  0  0  0  0  0  0
  152.0007  145.1732  160.0767 C   0  0  0  0  0  0  0  0  0  0  0  0
  151.2778  144.3922  158.9684 C   0  0  0  0  0  0  0  0  0  0  0  0
  151.9900  143.0541  158.6814 C   0  0  2  0  0  0  0  0  0  0  0  0
  151.2559  142.2732  157.5724 C   0  0  0  0  0  0  0  0  0  0  0  0
  151.9268  141.0427  157.3202 O   0  0  0  0  0  0  0  0  0  0  0  0
  149.0466  139.3474  153.2536 H   0  0  0  0  0  0  0  0  0  0  0  0
  147.9459  138.4756  155.3569 H   0  0  0  0  0  0  0  0  0  0  0  0
  151.9814  136.9812  157.6050 H   0  0  0  0  0  0  0  0  0  0  0  0
  153.1740  138.4371  158.9611 H   0  0  0  0  0  0  0  0  0  0  0  0
  153.5757  139.1422  157.4190 H   0  0  0  0  0  0  0  0  0  0  0  0
  151.0071  139.9766  158.8285 H   0  0  0  0  0  0  0  0  0  0  0  0
  152.8344  140.3563  160.4664 H   0  0  0  0  0  0  0  0  0  0  0  0
  153.7968  141.1553  159.2435 H   0  0  0  0  0  0  0  0  0  0  0  0
  152.9472  142.3356  161.8200 H   0  0  0  0  0  0  0  0  0  0  0  0
  153.8771  143.1629  160.5939 H   0  0  0  0  0  0  0  0  0  0  0  0
  151.2067  144.0798  161.7658 H   0  0  0  0  0  0  0  0  0  0  0  0
  152.7683  144.8063  162.0713 H   0  0  0  0  0  0  0  0  0  0  0  0
  151.4428  146.0744  160.3320 H   0  0  0  0  0  0  0  0  0  0  0  0
  152.9772  145.4996  159.7169 H   0  0  0  0  0  0  0  0  0  0  0  0
  150.2469  144.2032  159.2708 H   0  0  0  0  0  0  0  0  0  0  0  0
  151.2300  144.9971  158.0622 H   0  0  0  0  0  0  0  0  0  0  0  0
  152.9895  143.2850  158.3084 H   0  0  0  0  0  0  0  0  0  0  0  0
  150.2199  142.0755  157.8529 H   0  0  0  0  0  0  0  0  0  0  0  0
  151.2319  142.8533  156.6497 H   0  0  0  0  0  0  0  0  0  0  0  0
  1  2  3  0  0  0  0
  2  3  1  0  0  0  0
  3  8  1  0  0  0  0
  3  4  2  0  0  0  0
  4  5  1  0  0  0  0
  5  6  2  0  0  0  0
  5 21  1  0  0  0  0
  6  7  1  0  0  0  0
  6 22  1  0  0  0  0
  7  8  2  0  0  0  0
  8  9  1  0  0  0  0
  9 10  1  0  0  0  0
  9 23  1  0  0  0  0
 10 11  1  0  0  0  0
 10 24  1  0  0  0  0
 10 25  1  0  0  0  0
 11 20  1  0  0  0  0
 11 12  1  0  0  0  0
 11 26  1  0  0  0  0
 12 13  1  0  0  0  0
 12 27  1  0  0  0  0
 12 28  1  0  0  0  0
 13 18  1  0  0  0  0
 13 14  1  0  0  0  0
 14 15  1  0  0  0  0
 14 29  1  0  0  0  0
 14 30  1  0  0  0  0
 15 16  1  0  0  0  0
 15 31  1  0  0  0  0
 15 32  1  0  0  0  0
 16 17  1  0  0  0  0
 16 33  1  0  0  0  0
 16 34  1  0  0  0  0
 17 18  1  0  0  0  0
 17 35  1  0  0  0  0
 17 36  1  0  0  0  0
 18 19  1  0  0  0  0
 18 37  1  0  0  0  0
 19 20  1  0  0  0  0
 19 38  1  0  0  0  0
 19 39  1  0  0  0  0
M  END
> <s_m_source_file>
AV-unprocessed.smi

> <i_m_source_file_index>
3068

> <i_lp_mmshare_version>
43012

> <i_f3d_flags>
0

> <s_epik_input>
TiNDYzFuW2NIXVtjSF1uYzFbTkhdW0NIMl1bQ0BIXShbQ0gyXTIpT1tDSDJdW0NAQEhdKE4yMylbQ0gyXVtDSDJdW0NIMl1bQ0gyXTM=

> <s_epik_cmdline>
J2VwaWtfcHl0aG9uJywgJy1waCcsICc3LjAnLCAnLXRuJywgJzgnLCAnLW1hJywgJzIwMCcsICctbWV0YWxfYmluZGluZycsICctaW1hZScsICc8aW5maWxlLm1hZT4nLCAnLW9tYWUnLCAnPG91dGZpbGUubWFlPic=

> <r_epik_Ionization_Penalty>
1.22359

> <r_epik_Ionization_Penalty_Charging>
0

> <r_epik_Ionization_Penalty_Neutral>
1.22359

> <r_epik_State_Penalty>
1.29103

> <r_epik_Charging_Adjusted_Penalty>
1.29103

> <i_epik_Tot_Q>
0

> <i_epik_Tot_abs_Q>
0

> <r_epik_Metal_State_Penalty>
1.29103

> <b_epik_Metal_Only>
0

> <s_lp_Force_Field>
OPLS_2005

> <r_lp_Energy>
45.8407

> <b_lp_Chiralities_Consistent>
1

> <s_lp_Variant>
AV-unprocessed.smi:3068-12

> <Gold.Version>
5.8.1

> <Gold.Id.Protein>
6NUR|6NUR_protein|mol2

> <Gold.PLP.Fitness>
44.8897

> <Gold.PLP.PLP>
-37.9031

> <Gold.PLP.part.hbond>
-1.9185

> <Gold.PLP.part.metal>
0.0000

> <Gold.PLP.part.buried>
-5.4667

> <Gold.PLP.part.nonpolar>
-30.8557

> <Gold.PLP.part.repulsive>
0.2369

> <Gold.PLP.ligand.clash>
0.0000

> <Gold.PLP.ligand.torsion>
0.7678

> <Gold.PLP.Chemscore.Hbond>
1.9920

> <Gold.PLP.Chemscore.CHOScore>
0.8483

> <Gold.PLP.Chemscore.Metal>
0.0000

> <Gold.Chemscore.Hbonds>
donor molecule, donor type, donor heavy atom, donor atom, acceptor molecule, acceptor atom, score
      P1  H  7989  7998       L1     4  1.00
      P1  H  7997  8010       L1     1  0.56
      L1  C     5    21       P1  7957  1.00

> <Gold.PLP.Chemscore.Internal.Correction>
0.0011

> <Gold.Rescore>
     Score         DG    S(hbond)    S(metal)    S(lipo)     H(rot)  DE(clash)    DE(int)     intcor
     15.49     -16.98       0.90        0.00     101.14       1.30       0.01       1.48       ----

> <Gold.Chemscore.Fitness>
15.4898

> <Gold.Chemscore.DG>
-16.9802

> <Gold.Chemscore.ZeroCoef>
-5.4800

> <Gold.Chemscore.Hbond>
0.8981

> <Gold.Chemscore.Metal>
0.0000

> <Gold.Chemscore.Lipo>
101.1408

> <Gold.Chemscore.Internal_Hbond>
0.0000

> <Gold.Chemscore.DEClash>
0.0110

> <Gold.Chemscore.DEInternal>
1.4794

> <Gold.Chemscore.Rot>
1.3019

> <Gold.Chemscore.Internal.Correction>
   9.000000E+99

> <Gold.Chemscore.Hbonds>
donor molecule, donor type, donor heavy atom, donor atom, acceptor molecule, acceptor atom, score
      P1  H  7989  7998       L1     4  0.51
      P1  H  7997  8010       L1     1  0.28

> <Gold.Chemscore.Hbond.Weighted>
-2.9995

> <Gold.Chemscore.Metal.Weighted>
-0.0000

> <Gold.Chemscore.Lipo.Weighted>
-11.8335

> <Gold.Chemscore.Internal_Hbond.Weighted>
0.0000

> <Gold.Chemscore.DEClash.Weighted>
0.0110

> <Gold.Chemscore.DEInternal.Weighted>
1.4794

> <Gold.Chemscore.Rot.Weighted>
3.3327

> <Gold.Chemscore.Internal.Correction.Weighted>
   9.000000E+99

> <Gold.Protein.RotatedTorsions>
[ 6907 6896 6895 6894 ] final -102.57 input  -60.11 | X-H torsion
[ 7974 7965 7964 7962 ] final  -71.27 input  175.53 | X-H torsion
[ 8008 7997 7996 7995 ] final  118.71 input   59.86 | X-H torsion
[ 10167 10162 10161 10158 ] final   73.21 input  -65.29 | X-H torsion
[ 10718 10713 10712 10709 ] final  -12.63 input   66.30 | X-H torsion
[ 10763 10752 10751 10750 ] final -172.55 input  -60.55 | X-H torsion
[ 11005 11000 10999 10996 ] final  -19.47 input  -57.11 | X-H torsion

> <Gold.Protein.ActiveResidues>
 VAL166  LYS551  ARG553  GLY616  TRP617  ASP618  TYR619  PRO620  LYS621  CYS622 
 ASP623  PHE694  ASN695  SER759  ASP760  ASP761  ALA762  ILE779  LEU786  VAL792 
 PHE793  MET794  SER795  GLU796  ALA797  LYS798  CYS799  TRP800  GLU811  SER814 

> <Gold.Protein.RotatedAtoms>
  150.7202  134.0562  159.3814 H   0  0  0  0  0  0  0  0  0  0  0  0  # atno 6907 bound_to 6896
  151.8540  135.0545  160.0471 H   0  0  0  0  0  0  0  0  0  0  0  0  # atno 6908 bound_to 6896
  152.2768  133.5398  159.5510 H   0  0  0  0  0  0  0  0  0  0  0  0  # atno 6909 bound_to 6896
  145.6803  140.9190  143.0836 H   0  0  0  0  0  0  0  0  0  0  0  0  # atno 7974 bound_to 7965
  156.2560  140.2869  156.0877 H   0  0  0  0  0  0  0  0  0  0  0  0  # atno 8008 bound_to 7997
  155.1497  140.0397  157.2835 H   0  0  0  0  0  0  0  0  0  0  0  0  # atno 8009 bound_to 7997
  154.6469  140.2535  155.7264 H   0  0  0  0  0  0  0  0  0  0  0  0  # atno 8010 bound_to 7997
  140.0270  144.5496  150.7537 H   0  0  0  0  0  0  0  0  0  0  0  0  # atno 10167 bound_to 10162
  156.6418  130.4930  149.6092 H   0  0  0  0  0  0  0  0  0  0  0  0  # atno 10718 bound_to 10713
  154.6179  135.2872  155.0359 H   0  0  0  0  0  0  0  0  0  0  0  0  # atno 10763 bound_to 10752
  154.1564  135.6495  153.4979 H   0  0  0  0  0  0  0  0  0  0  0  0  # atno 10764 bound_to 10752
  153.0223  135.5368  154.6958 H   0  0  0  0  0  0  0  0  0  0  0  0  # atno 10765 bound_to 10752
  140.8369  133.7955  155.9819 H   0  0  0  0  0  0  0  0  0  0  0  0  # atno 11005 bound_to 11000
  144.7028  139.8687  143.7439 LP  0  0  0  0  0  0  0  0  0  0  0  0  # atno 17320 bound_to 7965
  146.0970  139.3963  143.0370 LP  0  0  0  0  0  0  0  0  0  0  0  0  # atno 17321 bound_to 7965
  140.7318  143.2699  151.3923 LP  0  0  0  0  0  0  0  0  0  0  0  0  # atno 17342 bound_to 10162
  139.6101  144.1115  152.2290 LP  0  0  0  0  0  0  0  0  0  0  0  0  # atno 17343 bound_to 10162
  156.2153  130.6704  151.1312 LP  0  0  0  0  0  0  0  0  0  0  0  0  # atno 17370 bound_to 10713
  157.7168  131.0705  150.6294 LP  0  0  0  0  0  0  0  0  0  0  0  0  # atno 17371 bound_to 10713
  140.8937  134.2464  157.5080 LP  0  0  0  0  0  0  0  0  0  0  0  0  # atno 17394 bound_to 11000
  139.8704  134.9674  156.4594 LP  0  0  0  0  0  0  0  0  0  0  0  0  # atno 17395 bound_to 11000

$$$$
