AV-unprocessed.smi:2144|AV-procd|sdf|8730|dock5
  -GOLD-   2272011493D 1   1.00000     0.00000
 Structure written by MMmdl.
 40 42  0  0  0  0  0  0  0  0  1 V2000
  155.3010  140.7873  162.0322 O   0  0  0  0  0  0  0  0  0  0  0  0
  153.9908  140.4910  161.6011 C   0  0  0  0  0  0  0  0  0  0  0  0
  153.3187  141.6534  160.9353 C   0  0  0  0  0  0  0  0  0  0  0  0
  153.1183  142.8047  161.5777 N   0  0  0  0  0  0  0  0  0  0  0  0
  152.5086  143.5880  160.6181 C   0  0  0  0  0  0  0  0  0  0  0  0
  152.0504  144.9236  160.6782 C   0  0  0  0  0  0  0  0  0  0  0  0
  151.4573  145.5262  159.5495 C   0  0  0  0  0  0  0  0  0  0  0  0
  151.3154  144.8041  158.3470 C   0  0  0  0  0  0  0  0  0  0  0  0
  151.7635  143.4716  158.2666 C   0  0  0  0  0  0  0  0  0  0  0  0
  152.3518  142.8735  159.3972 C   0  0  0  0  0  0  0  0  0  0  0  0
  152.8799  141.6109  159.6503 N   0  0  0  0  0  0  0  0  0  0  0  0
  152.9464  140.5099  158.6967 C   0  0  0  0  0  0  0  0  0  0  0  0
  151.5653  139.8864  158.4073 C   0  0  2  0  0  0  0  0  0  0  0  0
  151.6748  138.4796  158.3334 O   0  0  0  0  0  0  0  0  0  0  0  0
  150.9593  140.3958  157.0918 C   0  0  0  0  0  0  0  0  0  0  0  0
  149.6569  140.9009  157.3543 O   0  0  0  0  0  0  0  0  0  0  0  0
  148.8542  141.2321  156.2837 C   0  0  0  0  0  0  0  0  0  0  0  0
  149.2172  141.0362  154.9266 C   0  0  0  0  0  0  0  0  0  0  0  0
  148.3346  141.4033  153.8921 C   0  0  0  0  0  0  0  0  0  0  0  0
  147.0829  141.9682  154.1979 C   0  0  0  0  0  0  0  0  0  0  0  0
  146.7144  142.1666  155.5411 C   0  0  0  0  0  0  0  0  0  0  0  0
  147.5958  141.8002  156.5765 C   0  0  0  0  0  0  0  0  0  0  0  0
  147.2290  141.9964  157.8656 F   0  0  0  0  0  0  0  0  0  0  0  0
  155.7414  141.2655  161.3466 H   0  0  0  0  0  0  0  0  0  0  0  0
  154.0395  139.6557  160.9018 H   0  0  0  0  0  0  0  0  0  0  0  0
  153.3920  140.1495  162.4453 H   0  0  0  0  0  0  0  0  0  0  0  0
  152.1574  145.4857  161.5941 H   0  0  0  0  0  0  0  0  0  0  0  0
  151.1113  146.5479  159.6065 H   0  0  0  0  0  0  0  0  0  0  0  0
  150.8624  145.2737  157.4860 H   0  0  0  0  0  0  0  0  0  0  0  0
  151.6569  142.9165  157.3466 H   0  0  0  0  0  0  0  0  0  0  0  0
  153.3794  140.8979  157.7740 H   0  0  0  0  0  0  0  0  0  0  0  0
  153.6351  139.7457  159.0536 H   0  0  0  0  0  0  0  0  0  0  0  0
  150.8778  140.1152  159.2220 H   0  0  0  0  0  0  0  0  0  0  0  0
  152.1395  138.2563  157.5412 H   0  0  0  0  0  0  0  0  0  0  0  0
  151.5973  141.1696  156.6612 H   0  0  0  0  0  0  0  0  0  0  0  0
  150.8906  139.5750  156.3757 H   0  0  0  0  0  0  0  0  0  0  0  0
  150.1677  140.6048  154.6519 H   0  0  0  0  0  0  0  0  0  0  0  0
  148.6193  141.2505  152.8615 H   0  0  0  0  0  0  0  0  0  0  0  0
  146.4069  142.2487  153.4035 H   0  0  0  0  0  0  0  0  0  0  0  0
  145.7543  142.6002  155.7787 H   0  0  0  0  0  0  0  0  0  0  0  0
  1  2  1  0  0  0  0
  1 24  1  0  0  0  0
  2  3  1  0  0  0  0
  2 25  1  0  0  0  0
  2 26  1  0  0  0  0
  3 11  1  0  0  0  0
  3  4  2  0  0  0  0
  4  5  1  0  0  0  0
  5 10  2  0  0  0  0
  5  6  1  0  0  0  0
  6  7  2  0  0  0  0
  6 27  1  0  0  0  0
  7  8  1  0  0  0  0
  7 28  1  0  0  0  0
  8  9  2  0  0  0  0
  8 29  1  0  0  0  0
  9 10  1  0  0  0  0
  9 30  1  0  0  0  0
 10 11  1  0  0  0  0
 11 12  1  0  0  0  0
 12 13  1  0  0  0  0
 12 31  1  0  0  0  0
 12 32  1  0  0  0  0
 13 14  1  0  0  0  0
 13 15  1  0  0  0  0
 13 33  1  0  0  0  0
 14 34  1  0  0  0  0
 15 16  1  0  0  0  0
 15 35  1  0  0  0  0
 15 36  1  0  0  0  0
 16 17  1  0  0  0  0
 17 22  1  0  0  0  0
 17 18  2  0  0  0  0
 18 19  1  0  0  0  0
 18 37  1  0  0  0  0
 19 20  2  0  0  0  0
 19 38  1  0  0  0  0
 20 21  1  0  0  0  0
 20 39  1  0  0  0  0
 21 22  2  0  0  0  0
 21 40  1  0  0  0  0
 22 23  1  0  0  0  0
M  END
> <s_m_source_file>
AV-unprocessed.smi

> <i_m_source_file_index>
2144

> <i_lp_mmshare_version>
43012

> <i_f3d_flags>
0

> <s_epik_input>
W2NIXTFbY0hdW2NIXVtjSF1jKGMxMiluKGMobjIpW0NIMl1bT0hdKVtDSDJdW0NASF0oW09IXSlbQ0gyXU9jM1tjSF1bY0hdW2NIXVtjSF1jM0Y=

> <s_epik_cmdline>
J2VwaWtfcHl0aG9uJywgJy1waCcsICc3LjAnLCAnLXRuJywgJzgnLCAnLW1hJywgJzIwMCcsICctbWV0YWxfYmluZGluZycsICctaW1hZScsICc8aW5maWxlLm1hZT4nLCAnLW9tYWUnLCAnPG91dGZpbGUubWFlPic=

> <r_lp_tautomer_probability>
1

> <r_epik_Ionization_Penalty>
0.0547315

> <r_epik_Ionization_Penalty_Charging>
0

> <r_epik_Ionization_Penalty_Neutral>
0.0547315

> <r_epik_State_Penalty>
0.047032

> <r_epik_Charging_Adjusted_Penalty>
0.047032

> <i_epik_Tot_Q>
0

> <i_epik_Tot_abs_Q>
0

> <r_epik_Metal_State_Penalty>
4.89471e-05

> <b_epik_Metal_Only>
0

> <s_lp_Force_Field>
OPLS_2005

> <r_lp_Energy>
15.0425

> <b_lp_Chiralities_Consistent>
1

> <s_lp_Variant>
AV-unprocessed.smi:2144-1

> <Gold.Version>
5.8.1

> <Gold.Id.Protein>
6NUR|6NUR_protein|mol2

> <Gold.PLP.Fitness>
48.7689

> <Gold.PLP.PLP>
-51.4775

> <Gold.PLP.part.hbond>
-1.0000

> <Gold.PLP.part.metal>
0.0000

> <Gold.PLP.part.buried>
-4.3081

> <Gold.PLP.part.nonpolar>
-45.8612

> <Gold.PLP.part.repulsive>
0.0892

> <Gold.PLP.ligand.clash>
0.0000

> <Gold.PLP.ligand.torsion>
1.4371

> <Gold.PLP.Chemscore.Hbond>
0.0000

> <Gold.PLP.Chemscore.CHOScore>
0.0000

> <Gold.PLP.Chemscore.Metal>
0.0000

> <Gold.PLP.Chemscore.Internal.Correction>
0.1657

> <Gold.Rescore>
     Score         DG    S(hbond)    S(metal)    S(lipo)     H(rot)  DE(clash)    DE(int)     intcor
     10.84     -12.79       0.00        0.00     132.95       3.22       0.42       1.53       ----

> <Gold.Chemscore.Fitness>
10.8406

> <Gold.Chemscore.DG>
-12.7927

> <Gold.Chemscore.ZeroCoef>
-5.4800

> <Gold.Chemscore.Hbond>
0.0000

> <Gold.Chemscore.Metal>
0.0000

> <Gold.Chemscore.Lipo>
132.9476

> <Gold.Chemscore.Internal_Hbond>
0.0000

> <Gold.Chemscore.DEClash>
0.4187

> <Gold.Chemscore.DEInternal>
1.5333

> <Gold.Chemscore.Rot>
3.2196

> <Gold.Chemscore.Internal.Correction>
   9.000000E+99

> <Gold.Chemscore.Hbond.Weighted>
-0.0000

> <Gold.Chemscore.Metal.Weighted>
-0.0000

> <Gold.Chemscore.Lipo.Weighted>
-15.5549

> <Gold.Chemscore.Internal_Hbond.Weighted>
0.0000

> <Gold.Chemscore.DEClash.Weighted>
0.4187

> <Gold.Chemscore.DEInternal.Weighted>
1.5333

> <Gold.Chemscore.Rot.Weighted>
8.2422

> <Gold.Chemscore.Internal.Correction.Weighted>
   9.000000E+99

> <Gold.Protein.RotatedTorsions>
[ 6907 6896 6895 6894 ] final  158.51 input  -60.11 | X-H torsion
[ 7974 7965 7964 7962 ] final -164.64 input  175.53 | X-H torsion
[ 8008 7997 7996 7995 ] final  -69.62 input   59.86 | X-H torsion
[ 10167 10162 10161 10158 ] final -116.09 input  -65.29 | X-H torsion
[ 10718 10713 10712 10709 ] final  -33.61 input   66.30 | X-H torsion
[ 10763 10752 10751 10750 ] final   80.77 input  -60.55 | X-H torsion
[ 11005 11000 10999 10996 ] final   76.38 input  -57.11 | X-H torsion

> <Gold.Protein.ActiveResidues>
 VAL166  LYS551  ARG553  GLY616  TRP617  ASP618  TYR619  PRO620  LYS621  CYS622 
 ASP623  PHE694  ASN695  SER759  ASP760  ASP761  ALA762  ILE779  LEU786  VAL792 
 PHE793  MET794  SER795  GLU796  ALA797  LYS798  CYS799  TRP800  GLU811  SER814 

> <Gold.Protein.RotatedAtoms>
  151.9993  133.3819  159.4174 H   0  0  0  0  0  0  0  0  0  0  0  0  # atno 6907 bound_to 6896
  150.6912  134.3852  159.5061 H   0  0  0  0  0  0  0  0  0  0  0  0  # atno 6908 bound_to 6896
  152.1596  134.8922  160.0593 H   0  0  0  0  0  0  0  0  0  0  0  0  # atno 6909 bound_to 6896
  144.7291  140.2931  143.6217 H   0  0  0  0  0  0  0  0  0  0  0  0  # atno 7974 bound_to 7965
  154.4952  140.0850  156.7680 H   0  0  0  0  0  0  0  0  0  0  0  0  # atno 8008 bound_to 7997
  155.4135  140.3442  155.4247 H   0  0  0  0  0  0  0  0  0  0  0  0  # atno 8009 bound_to 7997
  156.1384  140.1522  156.8947 H   0  0  0  0  0  0  0  0  0  0  0  0  # atno 8010 bound_to 7997
  140.0830  143.4770  152.1915 H   0  0  0  0  0  0  0  0  0  0  0  0  # atno 10167 bound_to 10162
  156.3605  130.4323  149.7628 H   0  0  0  0  0  0  0  0  0  0  0  0  # atno 10718 bound_to 10713
  153.1061  135.4790  154.8953 H   0  0  0  0  0  0  0  0  0  0  0  0  # atno 10763 bound_to 10752
  154.7431  135.3087  154.8695 H   0  0  0  0  0  0  0  0  0  0  0  0  # atno 10764 bound_to 10752
  153.9297  135.6846  153.4799 H   0  0  0  0  0  0  0  0  0  0  0  0  # atno 10765 bound_to 10752
  139.9301  134.7596  156.1389 H   0  0  0  0  0  0  0  0  0  0  0  0  # atno 11005 bound_to 11000
  145.7835  139.1900  143.2144 LP  0  0  0  0  0  0  0  0  0  0  0  0  # atno 17320 bound_to 7965
  146.0814  140.7759  142.9639 LP  0  0  0  0  0  0  0  0  0  0  0  0  # atno 17321 bound_to 7965
  139.5768  144.7491  151.3743 LP  0  0  0  0  0  0  0  0  0  0  0  0  # atno 17342 bound_to 10162
  140.7068  143.7493  150.7496 LP  0  0  0  0  0  0  0  0  0  0  0  0  # atno 17343 bound_to 10162
  156.4793  130.8033  151.3048 LP  0  0  0  0  0  0  0  0  0  0  0  0  # atno 17370 bound_to 10713
  157.7473  131.0011  150.2949 LP  0  0  0  0  0  0  0  0  0  0  0  0  # atno 17371 bound_to 10713
  141.0884  133.6724  156.2486 LP  0  0  0  0  0  0  0  0  0  0  0  0  # atno 17394 bound_to 11000
  140.6227  134.5345  157.5549 LP  0  0  0  0  0  0  0  0  0  0  0  0  # atno 17395 bound_to 11000

$$$$
