AV-unprocessed.smi:1199|AV-procd|sdf|5020|dock6
  -GOLD-   22720 4 43D 1   1.00000     0.00000
 Structure written by MMmdl.
 42 43  0  0  0  0  0  0  0  0  2 V2000
  149.4947  133.7131  154.1304 C   0  0  0  0  0  0  0  0  0  0  0  0
  149.1388  134.9393  154.9816 C   0  0  2  0  0  0  0  0  0  0  0  0
  147.6267  135.2591  154.9121 C   0  0  0  0  0  0  0  0  0  0  0  0
  147.0857  135.2520  153.5277 N   0  3  0  0  0  0  0  0  0  0  0  0
  146.6424  133.9090  153.0852 C   0  0  0  0  0  0  0  0  0  0  0  0
  146.1548  133.9562  151.6256 C   0  0  0  0  0  0  0  0  0  0  0  0
  145.1243  134.9272  151.4895 O   0  0  0  0  0  0  0  0  0  0  0  0
  145.5730  136.2326  151.8328 C   0  0  0  0  0  0  0  0  0  0  0  0
  146.0093  136.2476  153.3065 C   0  0  0  0  0  0  0  0  0  0  0  0
  149.9328  136.0846  154.5368 N   0  0  0  0  0  0  0  0  0  0  0  0
  150.7243  136.8403  155.3144 C   0  0  0  0  0  0  0  0  0  0  0  0
  150.9362  136.6013  156.5033 O   0  0  0  0  0  0  0  0  0  0  0  0
  151.3572  138.0700  154.6521 C   0  0  0  0  0  0  0  0  0  0  0  0
  151.1055  139.2952  155.4239 N   0  0  0  0  0  0  0  0  0  0  0  0
  150.3042  140.2221  154.7753 N   0  0  0  0  0  0  0  0  0  0  0  0
  150.0396  141.3517  155.3396 C   0  0  0  0  0  0  0  0  0  0  0  0
  149.2445  142.2417  154.6608 O   0  0  0  0  0  0  0  0  0  0  0  0
  150.5634  141.6760  156.6484 C   0  0  0  0  0  0  0  0  0  0  0  0
  151.3372  140.7636  157.2760 C   0  0  0  0  0  0  0  0  0  0  0  0
  151.6560  139.4725  156.6649 C   0  0  0  0  0  0  0  0  0  0  0  0
  152.3648  138.6250  157.2086 O   0  0  0  0  0  0  0  0  0  0  0  0
  149.1632  142.9912  155.2305 H   0  0  0  0  0  0  0  0  0  0  0  0
  148.9369  132.8350  154.4570 H   0  0  0  0  0  0  0  0  0  0  0  0
  150.5561  133.4747  154.2088 H   0  0  0  0  0  0  0  0  0  0  0  0
  149.2677  133.8780  153.0765 H   0  0  0  0  0  0  0  0  0  0  0  0
  149.4002  134.6918  156.0114 H   0  0  0  0  0  0  0  0  0  0  0  0
  147.0960  134.5058  155.4966 H   0  0  0  0  0  0  0  0  0  0  0  0
  147.4119  136.2175  155.3870 H   0  0  0  0  0  0  0  0  0  0  0  0
  147.4655  133.1986  153.1721 H   0  0  0  0  0  0  0  0  0  0  0  0
  145.8413  133.5561  153.7367 H   0  0  0  0  0  0  0  0  0  0  0  0
  146.9741  134.1879  150.9448 H   0  0  0  0  0  0  0  0  0  0  0  0
  145.7641  132.9827  151.3295 H   0  0  0  0  0  0  0  0  0  0  0  0
  146.3925  136.5366  151.1789 H   0  0  0  0  0  0  0  0  0  0  0  0
  144.7585  136.9396  151.6742 H   0  0  0  0  0  0  0  0  0  0  0  0
  145.1587  136.0188  153.9502 H   0  0  0  0  0  0  0  0  0  0  0  0
  146.3492  137.2471  153.5745 H   0  0  0  0  0  0  0  0  0  0  0  0
  149.8339  136.3536  153.5682 H   0  0  0  0  0  0  0  0  0  0  0  0
  152.4291  137.8897  154.5529 H   0  0  0  0  0  0  0  0  0  0  0  0
  150.9816  138.1909  153.6341 H   0  0  0  0  0  0  0  0  0  0  0  0
  150.3332  142.6274  157.1053 H   0  0  0  0  0  0  0  0  0  0  0  0
  151.7336  140.9921  158.2545 H   0  0  0  0  0  0  0  0  0  0  0  0
  147.8531  135.5076  152.9219 H   0  0  0  0  0  0  0  0  0  0  0  0
  1  2  1  0  0  0  0
  1 23  1  0  0  0  0
  1 24  1  0  0  0  0
  1 25  1  0  0  0  0
  2  3  1  0  0  0  0
  2 10  1  0  0  0  0
  2 26  1  0  0  0  0
  3  4  1  0  0  0  0
  3 27  1  0  0  0  0
  3 28  1  0  0  0  0
  4  9  1  0  0  0  0
  4  5  1  0  0  0  0
  4 42  1  0  0  0  0
  5  6  1  0  0  0  0
  5 29  1  0  0  0  0
  5 30  1  0  0  0  0
  6  7  1  0  0  0  0
  6 31  1  0  0  0  0
  6 32  1  0  0  0  0
  7  8  1  0  0  0  0
  8  9  1  0  0  0  0
  8 33  1  0  0  0  0
  8 34  1  0  0  0  0
  9 35  1  0  0  0  0
  9 36  1  0  0  0  0
 10 11  1  0  0  0  0
 10 37  1  0  0  0  0
 11 12  2  0  0  0  0
 11 13  1  0  0  0  0
 13 38  1  0  0  0  0
 13 39  1  0  0  0  0
 13 14  1  0  0  0  0
 14 15  1  0  0  0  0
 14 20  1  0  0  0  0
 15 16  2  0  0  0  0
 16 17  1  0  0  0  0
 16 18  1  0  0  0  0
 17 22  1  0  0  0  0
 18 40  1  0  0  0  0
 18 19  2  0  0  0  0
 19 41  1  0  0  0  0
 19 20  1  0  0  0  0
 20 21  2  0  0  0  0
M  CHG  1   4   1
M  END
> <s_m_source_file>
AV-unprocessed.smi

> <i_m_source_file_index>
1199

> <i_lp_mmshare_version>
43012

> <i_f3d_flags>
0

> <s_epik_input>
W0NIMl0xW0NIMl1PW0NIMl1bQ0gyXU4xW0NIMl1bQ0BASF0oW0NIM10pW05IXUMoPU8pW0NIMl1uMltuSF1jKD1PKVtjSF1bY0hdYzI9Tw==

> <s_epik_cmdline>
J2VwaWtfcHl0aG9uJywgJy1waCcsICc3LjAnLCAnLXRuJywgJzgnLCAnLW1hJywgJzIwMCcsICctbWV0YWxfYmluZGluZycsICctaW1hZScsICc8aW5maWxlLm1hZT4nLCAnLW9tYWUnLCAnPG91dGZpbGUubWFlPic=

> <r_lp_tautomer_probability>
0.9996

> <r_epik_Ionization_Penalty>
2.86815

> <r_epik_Ionization_Penalty_Charging>
0.656653

> <r_epik_Ionization_Penalty_Neutral>
2.21149

> <r_epik_State_Penalty>
2.43136

> <r_epik_Charging_Adjusted_Penalty>
3.08801

> <i_epik_Tot_Q>
1

> <i_epik_Tot_abs_Q>
1

> <r_epik_Metal_State_Penalty>
2.43136

> <b_epik_Metal_Only>
0

> <s_lp_Force_Field>
OPLS_2005

> <r_lp_Energy>
31.3185

> <b_lp_Chiralities_Consistent>
1

> <s_lp_Variant>
AV-unprocessed.smi:1199-7

> <Gold.Version>
5.8.1

> <Gold.Id.Protein>
6NUR|6NUR_protein|mol2

> <Gold.PLP.Fitness>
46.9829

> <Gold.PLP.PLP>
-33.4800

> <Gold.PLP.part.hbond>
-5.2123

> <Gold.PLP.part.metal>
0.0000

> <Gold.PLP.part.buried>
-4.0567

> <Gold.PLP.part.nonpolar>
-24.4483

> <Gold.PLP.part.repulsive>
0.3100

> <Gold.PLP.ligand.clash>
0.0000

> <Gold.PLP.ligand.torsion>
0.6366

> <Gold.PLP.Chemscore.Hbond>
4.9049

> <Gold.PLP.Chemscore.CHOScore>
0.0000

> <Gold.PLP.Chemscore.Metal>
0.0000

> <Gold.Chemscore.Hbonds>
donor molecule, donor type, donor heavy atom, donor atom, acceptor molecule, acceptor atom, score
      L1  H     4    42       P1  7948  2.00
      L1  H    10    37       P1  7948  0.95
      L1  H    17    22       P1  8028  1.00
      P1  H  7989  7998       L1    15  0.76
      P1  H  8011  8017       L1    17  0.03

> <Gold.PLP.Chemscore.Internal.Correction>
0.0613

> <Gold.Rescore>
     Score         DG    S(hbond)    S(metal)    S(lipo)     H(rot)  DE(clash)    DE(int)     intcor
     13.16     -15.06       3.50        0.00      48.42       3.03       0.01       1.89       ----

> <Gold.Chemscore.Fitness>
13.1594

> <Gold.Chemscore.DG>
-15.0593

> <Gold.Chemscore.ZeroCoef>
-5.4800

> <Gold.Chemscore.Hbond>
3.4972

> <Gold.Chemscore.Metal>
0.0000

> <Gold.Chemscore.Lipo>
48.4168

> <Gold.Chemscore.Internal_Hbond>
0.0000

> <Gold.Chemscore.DEClash>
0.0110

> <Gold.Chemscore.DEInternal>
1.8889

> <Gold.Chemscore.Rot>
3.0336

> <Gold.Chemscore.Internal.Correction>
   9.000000E+99

> <Gold.Chemscore.Hbonds>
donor molecule, donor type, donor heavy atom, donor atom, acceptor molecule, acceptor atom, score
      L1  H     4    42       P1  7948  1.00
      L1  H    10    37       P1  7948  0.21
      L1  H    17    22       P1  8028  0.99
      P1  H  7989  7998       L1    15  0.03
      P1  H  8011  8017       L1    17  0.03

> <Gold.Chemscore.Hbond.Weighted>
-11.6806

> <Gold.Chemscore.Metal.Weighted>
-0.0000

> <Gold.Chemscore.Lipo.Weighted>
-5.6648

> <Gold.Chemscore.Internal_Hbond.Weighted>
0.0000

> <Gold.Chemscore.DEClash.Weighted>
0.0110

> <Gold.Chemscore.DEInternal.Weighted>
1.8889

> <Gold.Chemscore.Rot.Weighted>
7.7661

> <Gold.Chemscore.Internal.Correction.Weighted>
   9.000000E+99

> <Gold.Protein.RotatedTorsions>
[ 6907 6896 6895 6894 ] final  -85.25 input  -60.11 | X-H torsion
[ 7974 7965 7964 7962 ] final   19.04 input  175.53 | X-H torsion
[ 8008 7997 7996 7995 ] final  -84.37 input   59.86 | X-H torsion
[ 10167 10162 10161 10158 ] final  102.55 input  -65.29 | X-H torsion
[ 10718 10713 10712 10709 ] final  170.78 input   66.30 | X-H torsion
[ 10763 10752 10751 10750 ] final -174.89 input  -60.55 | X-H torsion
[ 11005 11000 10999 10996 ] final -178.89 input  -57.11 | X-H torsion

> <Gold.Protein.ActiveResidues>
 VAL166  LYS551  ARG553  GLY616  TRP617  ASP618  TYR619  PRO620  LYS621  CYS622 
 ASP623  PHE694  ASN695  SER759  ASP760  ASP761  ALA762  ILE779  LEU786  VAL792 
 PHE793  MET794  SER795  GLU796  ALA797  LYS798  CYS799  TRP800  GLU811  SER814 

> <Gold.Protein.RotatedAtoms>
  150.6871  134.3233  159.4795 H   0  0  0  0  0  0  0  0  0  0  0  0  # atno 6907 bound_to 6896
  152.1106  134.9274  160.0576 H   0  0  0  0  0  0  0  0  0  0  0  0  # atno 6908 bound_to 6896
  152.0518  133.3988  159.4417 H   0  0  0  0  0  0  0  0  0  0  0  0  # atno 6909 bound_to 6896
  146.2164  139.8371  142.8648 H   0  0  0  0  0  0  0  0  0  0  0  0  # atno 7974 bound_to 7965
  154.6291  140.0606  156.9710 H   0  0  0  0  0  0  0  0  0  0  0  0  # atno 8008 bound_to 7997
  155.1695  140.3289  155.4377 H   0  0  0  0  0  0  0  0  0  0  0  0  # atno 8009 bound_to 7997
  156.2473  140.1917  156.6797 H   0  0  0  0  0  0  0  0  0  0  0  0  # atno 8010 bound_to 7997
  139.7340  144.7029  151.0678 H   0  0  0  0  0  0  0  0  0  0  0  0  # atno 10167 bound_to 10162
  157.0031  131.0182  151.2825 H   0  0  0  0  0  0  0  0  0  0  0  0  # atno 10718 bound_to 10713
  154.5909  135.2845  155.0636 H   0  0  0  0  0  0  0  0  0  0  0  0  # atno 10763 bound_to 10752
  154.1937  135.6436  153.5071 H   0  0  0  0  0  0  0  0  0  0  0  0  # atno 10764 bound_to 10752
  153.0121  135.5452  154.6594 H   0  0  0  0  0  0  0  0  0  0  0  0  # atno 10765 bound_to 10752
  140.4248  134.6573  157.4682 H   0  0  0  0  0  0  0  0  0  0  0  0  # atno 11005 bound_to 11000
  145.2937  141.0175  143.3648 LP  0  0  0  0  0  0  0  0  0  0  0  0  # atno 17320 bound_to 7965
  144.9058  139.4591  143.6611 LP  0  0  0  0  0  0  0  0  0  0  0  0  # atno 17321 bound_to 7965
  140.7776  143.5008  150.9774 LP  0  0  0  0  0  0  0  0  0  0  0  0  # atno 17342 bound_to 10162
  139.8696  143.7210  152.3167 LP  0  0  0  0  0  0  0  0  0  0  0  0  # atno 17343 bound_to 10162
  157.5375  130.8098  149.7989 LP  0  0  0  0  0  0  0  0  0  0  0  0  # atno 17370 bound_to 10713
  156.0163  130.3812  150.2099 LP  0  0  0  0  0  0  0  0  0  0  0  0  # atno 17371 bound_to 10713
  140.0175  134.6597  155.9288 LP  0  0  0  0  0  0  0  0  0  0  0  0  # atno 17394 bound_to 11000
  141.1769  133.6541  156.4866 LP  0  0  0  0  0  0  0  0  0  0  0  0  # atno 17395 bound_to 11000

$$$$
