AV-unprocessed.smi:2746|AV-procd|sdf|10576|dock10
  -GOLD-   2272015 33D 1   1.00000     0.00000
 Structure written by MMmdl.
 38 39  0  0  0  0  0  0  0  0  3 V2000
  145.5488  135.6696  150.8063 C   0  0  0  0  0  0  0  0  0  0  0  0
  144.8121  135.5164  151.9193 C   0  0  0  0  0  0  0  0  0  0  0  0
  144.0565  136.6244  152.6324 C   0  0  1  0  0  0  0  0  0  0  0  0
  143.3421  136.0659  153.8709 C   0  0  0  0  0  0  0  0  0  0  0  0
  144.8989  137.7449  153.0498 N   0  5  0  0  0  0  0  0  0  0  0  0
  146.0241  137.6207  153.8141 C   0  0  0  0  0  0  0  0  0  0  0  0
  146.4293  136.6424  154.4521 O   0  0  0  0  0  0  0  0  0  0  0  0
  146.8560  138.8812  153.8482 C   0  0  0  0  0  0  0  0  0  0  0  0
  148.1923  138.8690  154.3144 C   0  0  0  0  0  0  0  0  0  0  0  0
  148.9463  140.0663  154.3319 C   0  0  0  0  0  0  0  0  0  0  0  0
  150.2737  140.0997  154.7810 N   0  0  0  0  0  0  0  0  0  0  0  0
  150.4628  140.8997  155.9848 C   0  0  0  0  0  0  0  0  0  0  0  0
  151.9595  140.9800  156.3319 C   0  0  0  0  0  0  0  0  0  0  0  0
  152.4891  139.6642  156.4670 O   0  0  0  0  0  0  0  0  0  0  0  0
  152.3667  138.9112  155.2635 C   0  0  0  0  0  0  0  0  0  0  0  0
  150.8810  138.7789  154.8860 C   0  0  0  0  0  0  0  0  0  0  0  0
  148.3432  141.2590  153.8806 C   0  0  0  0  0  0  0  0  0  0  0  0
  147.0112  141.2255  153.4257 C   0  0  0  0  0  0  0  0  0  0  0  0
  146.3324  140.0594  153.4265 N   0  3  0  0  0  0  0  0  0  0  0  0
  145.6655  136.6268  150.3165 H   0  0  0  0  0  0  0  0  0  0  0  0
  146.0536  134.8230  150.3653 H   0  0  0  0  0  0  0  0  0  0  0  0
  144.7383  134.5338  152.3619 H   0  0  0  0  0  0  0  0  0  0  0  0
  143.2756  136.9645  151.9497 H   0  0  0  0  0  0  0  0  0  0  0  0
  142.6690  135.2521  153.5998 H   0  0  0  0  0  0  0  0  0  0  0  0
  142.7426  136.8337  154.3615 H   0  0  0  0  0  0  0  0  0  0  0  0
  144.0523  135.6781  154.6027 H   0  0  0  0  0  0  0  0  0  0  0  0
  148.6408  137.9469  154.6546 H   0  0  0  0  0  0  0  0  0  0  0  0
  150.0596  141.9013  155.8312 H   0  0  0  0  0  0  0  0  0  0  0  0
  149.9163  140.4552  156.8175 H   0  0  0  0  0  0  0  0  0  0  0  0
  152.5084  141.5278  155.5643 H   0  0  0  0  0  0  0  0  0  0  0  0
  152.1003  141.5178  157.2695 H   0  0  0  0  0  0  0  0  0  0  0  0
  152.9307  139.3919  154.4623 H   0  0  0  0  0  0  0  0  0  0  0  0
  152.8058  137.9252  155.4150 H   0  0  0  0  0  0  0  0  0  0  0  0
  150.3600  138.1898  155.6420 H   0  0  0  0  0  0  0  0  0  0  0  0
  150.7819  138.2484  153.9380 H   0  0  0  0  0  0  0  0  0  0  0  0
  148.8939  142.1884  153.8816 H   0  0  0  0  0  0  0  0  0  0  0  0
  146.4711  142.0875  153.0630 H   0  0  0  0  0  0  0  0  0  0  0  0
  145.3677  140.0480  153.0918 H   0  0  0  0  0  0  0  0  0  0  0  0
  1  2  2  0  0  0  0
  1 20  1  0  0  0  0
  1 21  1  0  0  0  0
  2  3  1  0  0  0  0
  2 22  1  0  0  0  0
  3  4  1  0  0  0  0
  3  5  1  0  0  0  0
  3 23  1  0  0  0  0
  4 24  1  0  0  0  0
  4 25  1  0  0  0  0
  4 26  1  0  0  0  0
  5  6  1  0  0  0  0
  6  7  2  0  0  0  0
  6  8  1  0  0  0  0
  8 19  1  0  0  0  0
  8  9  2  0  0  0  0
  9 10  1  0  0  0  0
  9 27  1  0  0  0  0
 10 11  1  0  0  0  0
 10 17  2  0  0  0  0
 11 16  1  0  0  0  0
 11 12  1  0  0  0  0
 12 13  1  0  0  0  0
 12 28  1  0  0  0  0
 12 29  1  0  0  0  0
 13 14  1  0  0  0  0
 13 30  1  0  0  0  0
 13 31  1  0  0  0  0
 14 15  1  0  0  0  0
 15 16  1  0  0  0  0
 15 32  1  0  0  0  0
 15 33  1  0  0  0  0
 16 34  1  0  0  0  0
 16 35  1  0  0  0  0
 17 18  1  0  0  0  0
 17 36  1  0  0  0  0
 18 19  2  0  0  0  0
 18 37  1  0  0  0  0
 19 38  1  0  0  0  0
M  CHG  1   5  -1
M  CHG  1  19   1
M  END
> <s_m_source_file>
AV-unprocessed.smi

> <i_m_source_file_index>
2746

> <i_lp_mmshare_version>
43012

> <i_f3d_flags>
0

> <s_epik_input>
W0NIMl09W0NIXVtDQEhdKFtDSDNdKVtOSF1DKD1PKWMxW2NIXWMoW2NIXVtjSF1uMSlOMltDSDJdW0NIMl1PW0NIMl1bQ0gyXTI=

> <s_epik_cmdline>
J2VwaWtfcHl0aG9uJywgJy1waCcsICc3LjAnLCAnLXRuJywgJzgnLCAnLW1hJywgJzIwMCcsICctbWV0YWxfYmluZGluZycsICctaW1hZScsICc8aW5maWxlLm1hZT4nLCAnLW9tYWUnLCAnPG91dGZpbGUubWFlPic=

> <r_lp_tautomer_probability>
1

> <r_epik_Ionization_Penalty>
4.23471

> <r_epik_Ionization_Penalty_Charging>
4.23471

> <r_epik_Ionization_Penalty_Neutral>
3.18831e-12

> <r_epik_State_Penalty>
4.68748

> <r_epik_Charging_Adjusted_Penalty>
8.92219

> <i_epik_Tot_Q>
0

> <i_epik_Tot_abs_Q>
2

> <r_epik_Metal_State_Penalty>
1.16626

> <b_epik_Metal_Only>
1

> <s_lp_Force_Field>
OPLS_2005

> <r_lp_Energy>
17.3094

> <b_lp_Chiralities_Consistent>
1

> <s_lp_Variant>
AV-unprocessed.smi:2746-6

> <Gold.Version>
5.8.1

> <Gold.Id.Protein>
6NUR|6NUR_protein|mol2

> <Gold.PLP.Fitness>
40.9088

> <Gold.PLP.PLP>
-30.0688

> <Gold.PLP.part.hbond>
-3.0000

> <Gold.PLP.part.metal>
0.0000

> <Gold.PLP.part.buried>
-5.6510

> <Gold.PLP.part.nonpolar>
-23.0683

> <Gold.PLP.part.repulsive>
0.9932

> <Gold.PLP.ligand.clash>
0.0593

> <Gold.PLP.ligand.torsion>
0.4003

> <Gold.PLP.Chemscore.Hbond>
3.8420

> <Gold.PLP.Chemscore.CHOScore>
0.0000

> <Gold.PLP.Chemscore.Metal>
0.0000

> <Gold.Chemscore.Hbonds>
donor molecule, donor type, donor heavy atom, donor atom, acceptor molecule, acceptor atom, score
      L1  H    19    38       P1 10175  2.00
      P1  H  7989  7998       L1    11  0.85
      P1  H  7997  8010       L1    14  0.99

> <Gold.PLP.Chemscore.Internal.Correction>
0.1740

> <Gold.Rescore>
     Score         DG    S(hbond)    S(metal)    S(lipo)     H(rot)  DE(clash)    DE(int)     intcor
     14.32     -14.83       1.05        0.00      77.96       1.27       0.03       0.48       ----

> <Gold.Chemscore.Fitness>
14.3193

> <Gold.Chemscore.DG>
-14.8312

> <Gold.Chemscore.ZeroCoef>
-5.4800

> <Gold.Chemscore.Hbond>
1.0456

> <Gold.Chemscore.Metal>
0.0000

> <Gold.Chemscore.Lipo>
77.9565

> <Gold.Chemscore.Internal_Hbond>
0.0000

> <Gold.Chemscore.DEClash>
0.0341

> <Gold.Chemscore.DEInternal>
0.4777

> <Gold.Chemscore.Rot>
1.2742

> <Gold.Chemscore.Internal.Correction>
   9.000000E+99

> <Gold.Chemscore.Hbonds>
donor molecule, donor type, donor heavy atom, donor atom, acceptor molecule, acceptor atom, score
      L1  H    19    38       P1 10175  1.00
      P1  H  7989  7998       L1    11  0.05
      P1  H  7997  8010       L1    14  0.18

> <Gold.Chemscore.Hbond.Weighted>
-3.4922

> <Gold.Chemscore.Metal.Weighted>
-0.0000

> <Gold.Chemscore.Lipo.Weighted>
-9.1209

> <Gold.Chemscore.Internal_Hbond.Weighted>
0.0000

> <Gold.Chemscore.DEClash.Weighted>
0.0341

> <Gold.Chemscore.DEInternal.Weighted>
0.4777

> <Gold.Chemscore.Rot.Weighted>
3.2619

> <Gold.Chemscore.Internal.Correction.Weighted>
   9.000000E+99

> <Gold.Protein.RotatedTorsions>
[ 6907 6896 6895 6894 ] final  148.47 input  -60.11 | X-H torsion
[ 7974 7965 7964 7962 ] final  -95.16 input  175.53 | X-H torsion
[ 8008 7997 7996 7995 ] final   52.20 input   59.86 | X-H torsion
[ 10167 10162 10161 10158 ] final   60.92 input  -65.29 | X-H torsion
[ 10718 10713 10712 10709 ] final -109.64 input   66.30 | X-H torsion
[ 10763 10752 10751 10750 ] final -167.76 input  -60.55 | X-H torsion
[ 11005 11000 10999 10996 ] final -178.52 input  -57.11 | X-H torsion

> <Gold.Protein.ActiveResidues>
 VAL166  LYS551  ARG553  GLY616  TRP617  ASP618  TYR619  PRO620  LYS621  CYS622 
 ASP623  PHE694  ASN695  SER759  ASP760  ASP761  ALA762  ILE779  LEU786  VAL792 
 PHE793  MET794  SER795  GLU796  ALA797  LYS798  CYS799  TRP800  GLU811  SER814 

> <Gold.Protein.RotatedAtoms>
  152.1411  133.4464  159.4766 H   0  0  0  0  0  0  0  0  0  0  0  0  # atno 6907 bound_to 6896
  150.6886  134.2304  159.4441 H   0  0  0  0  0  0  0  0  0  0  0  0  # atno 6908 bound_to 6896
  152.0195  134.9830  160.0621 H   0  0  0  0  0  0  0  0  0  0  0  0  # atno 6909 bound_to 6896
  145.3638  140.9495  143.2486 H   0  0  0  0  0  0  0  0  0  0  0  0  # atno 7974 bound_to 7965
  155.4479  140.3457  155.4297 H   0  0  0  0  0  0  0  0  0  0  0  0  # atno 8008 bound_to 7997
  156.1238  140.1494  156.9196 H   0  0  0  0  0  0  0  0  0  0  0  0  # atno 8009 bound_to 7997
  154.4843  140.0860  156.7430 H   0  0  0  0  0  0  0  0  0  0  0  0  # atno 8010 bound_to 7997
  140.1604  144.4376  150.6712 H   0  0  0  0  0  0  0  0  0  0  0  0  # atno 10167 bound_to 10162
  156.0548  130.5774  150.8128 H   0  0  0  0  0  0  0  0  0  0  0  0  # atno 10718 bound_to 10713
  154.6699  135.2937  154.9756 H   0  0  0  0  0  0  0  0  0  0  0  0  # atno 10763 bound_to 10752
  154.0787  135.6607  153.4838 H   0  0  0  0  0  0  0  0  0  0  0  0  # atno 10764 bound_to 10752
  153.0480  135.5192  154.7689 H   0  0  0  0  0  0  0  0  0  0  0  0  # atno 10765 bound_to 10752
  140.4289  134.6537  157.4702 H   0  0  0  0  0  0  0  0  0  0  0  0  # atno 11005 bound_to 11000
  144.8627  139.5154  143.6805 LP  0  0  0  0  0  0  0  0  0  0  0  0  # atno 17320 bound_to 7965
  146.2916  139.7155  142.9157 LP  0  0  0  0  0  0  0  0  0  0  0  0  # atno 17321 bound_to 7965
  140.6646  143.2263  151.5773 LP  0  0  0  0  0  0  0  0  0  0  0  0  # atno 17342 bound_to 10162
  139.5384  144.2717  152.1299 LP  0  0  0  0  0  0  0  0  0  0  0  0  # atno 17343 bound_to 10162
  157.5508  131.0944  150.9699 LP  0  0  0  0  0  0  0  0  0  0  0  0  # atno 17370 bound_to 10713
  156.9959  130.5581  149.5307 LP  0  0  0  0  0  0  0  0  0  0  0  0  # atno 17371 bound_to 10713
  140.0148  134.6635  155.9326 LP  0  0  0  0  0  0  0  0  0  0  0  0  # atno 17394 bound_to 11000
  141.1754  133.6540  156.4808 LP  0  0  0  0  0  0  0  0  0  0  0  0  # atno 17395 bound_to 11000

$$$$
