AV-unprocessed.smi:41|AV-procd|sdf|386|dock8
  -GOLD-   2262016243D 1   1.00000     0.00000
 Structure written by MMmdl.
 26 27  0  0  0  0  0  0  0  0  1 V2000
  150.3037  139.2112  153.7321 N   0  0  0  0  0  0  0  0  0  0  0  0
  150.5459  139.8718  154.8736 C   0  0  0  0  0  0  0  0  0  0  0  0
  151.5867  139.5257  155.6059 N   0  0  0  0  0  0  0  0  0  0  0  0
  151.9140  140.1400  156.7864 C   0  0  0  0  0  0  0  0  0  0  0  0
  152.8856  139.7578  157.4374 O   0  0  0  0  0  0  0  0  0  0  0  0
  151.0983  141.2190  157.2125 N   0  0  0  0  0  0  0  0  0  0  0  0
  151.3396  141.8761  158.4945 C   0  0  1  0  0  0  0  0  0  0  0  0
  152.8080  142.2979  158.7252 C   0  0  0  0  0  0  0  0  0  0  0  0
  152.7720  143.6650  159.8978 S   0  0  0  0  0  0  0  0  0  0  0  0
  150.9728  143.7368  159.7302 C   0  0  1  0  0  0  0  0  0  0  0  0
  150.4148  145.1683  159.6695 C   0  0  0  0  0  0  0  0  0  0  0  0
  149.0326  145.2006  159.9633 O   0  0  0  0  0  0  0  0  0  0  0  0
  150.5457  143.0151  158.5877 O   0  0  0  0  0  0  0  0  0  0  0  0
  149.9817  141.5668  156.4621 C   0  0  0  0  0  0  0  0  0  0  0  0
  149.6764  140.9421  155.3047 C   0  0  0  0  0  0  0  0  0  0  0  0
  148.5971  141.2998  154.5877 F   0  0  0  0  0  0  0  0  0  0  0  0
  151.0368  141.2202  159.3126 H   0  0  0  0  0  0  0  0  0  0  0  0
  150.5491  143.2338  160.6009 H   0  0  0  0  0  0  0  0  0  0  0  0
  149.5060  139.4624  153.1659 H   0  0  0  0  0  0  0  0  0  0  0  0
  150.9179  138.4641  153.4421 H   0  0  0  0  0  0  0  0  0  0  0  0
  153.3875  141.4558  159.1033 H   0  0  0  0  0  0  0  0  0  0  0  0
  153.2794  142.6551  157.8121 H   0  0  0  0  0  0  0  0  0  0  0  0
  150.9527  145.8223  160.3565 H   0  0  0  0  0  0  0  0  0  0  0  0
  150.5522  145.5752  158.6673 H   0  0  0  0  0  0  0  0  0  0  0  0
  148.5542  145.2699  159.1514 H   0  0  0  0  0  0  0  0  0  0  0  0
  149.3161  142.3470  156.8004 H   0  0  0  0  0  0  0  0  0  0  0  0
  1  2  1  0  0  0  0
  1 19  1  0  0  0  0
  1 20  1  0  0  0  0
  2 15  1  0  0  0  0
  2  3  2  0  0  0  0
  3  4  1  0  0  0  0
  4  5  2  0  0  0  0
  4  6  1  0  0  0  0
  6  7  1  0  0  0  0
  6 14  1  0  0  0  0
  7 17  1  0  0  0  0
  7 13  1  0  0  0  0
  7  8  1  0  0  0  0
  8  9  1  0  0  0  0
  8 21  1  0  0  0  0
  8 22  1  0  0  0  0
  9 10  1  0  0  0  0
 10 18  1  0  0  0  0
 10 11  1  0  0  0  0
 10 13  1  0  0  0  0
 11 12  1  0  0  0  0
 11 23  1  0  0  0  0
 11 24  1  0  0  0  0
 12 25  1  0  0  0  0
 14 15  2  0  0  0  0
 14 26  1  0  0  0  0
 15 16  1  0  0  0  0
M  END
> <s_m_source_file>
AV-unprocessed.smi

> <i_m_source_file_index>
41

> <i_lp_mmshare_version>
43012

> <i_f3d_flags>
0

> <s_epik_input>
W05IMl1jMW5jKD1PKW4oW2NIXWMxRilbQ0BASF0yW0NIMl1TW0NAQEhdKE8yKVtDSDJdW09IXQ==

> <s_epik_cmdline>
J2VwaWtfcHl0aG9uJywgJy1waCcsICc3LjAnLCAnLXRuJywgJzgnLCAnLW1hJywgJzIwMCcsICctbWV0YWxfYmluZGluZycsICctaW1hZScsICc8aW5maWxlLm1hZT4nLCAnLW9tYWUnLCAnPG91dGZpbGUubWFlPic=

> <r_lp_tautomer_probability>
1

> <r_epik_Ionization_Penalty>
0.000101883

> <r_epik_Ionization_Penalty_Charging>
1.48607e-08

> <r_epik_Ionization_Penalty_Neutral>
0.000101868

> <r_epik_State_Penalty>
-0

> <r_epik_Charging_Adjusted_Penalty>
1.48607e-08

> <i_epik_Tot_Q>
0

> <i_epik_Tot_abs_Q>
0

> <r_epik_Metal_State_Penalty>
-0

> <b_epik_Metal_Only>
0

> <s_epik_Chemistry_Notes>
This compound contains an acetal/aminal-like group ( X-CH(R)-Y where X, Y are N, S, or O) that may be acid/base labile, releasing an aldehyde.

> <s_lp_Force_Field>
OPLS_2005

> <r_lp_Energy>
14.0891

> <b_lp_Chiralities_Consistent>
1

> <s_lp_Variant>
AV-unprocessed.smi:41-4

> <Gold.Version>
5.8.1

> <Gold.Id.Protein>
6NUR|6NUR_protein|mol2

> <Gold.PLP.Fitness>
42.2483

> <Gold.PLP.PLP>
-32.1203

> <Gold.PLP.part.hbond>
-4.0000

> <Gold.PLP.part.metal>
0.0000

> <Gold.PLP.part.buried>
-1.9466

> <Gold.PLP.part.nonpolar>
-25.8329

> <Gold.PLP.part.repulsive>
1.0850

> <Gold.PLP.ligand.clash>
0.0000

> <Gold.PLP.ligand.torsion>
0.4151

> <Gold.PLP.Chemscore.Hbond>
2.6373

> <Gold.PLP.Chemscore.CHOScore>
1.0000

> <Gold.PLP.Chemscore.Metal>
0.0000

> <Gold.Chemscore.Hbonds>
donor molecule, donor type, donor heavy atom, donor atom, acceptor molecule, acceptor atom, score
      L1  H     1    19       P1  7957  0.41
      L1  H    12    25       P1  8029  0.83
      P1  H  7997  8010       L1     5  1.00
      L1  C    14    26       P1  8028  0.63

> <Gold.PLP.Chemscore.Internal.Correction>
0.0464

> <Gold.Rescore>
     Score         DG    S(hbond)    S(metal)    S(lipo)     H(rot)  DE(clash)    DE(int)     intcor
     11.71     -13.76       2.30        0.00      53.11       2.19       0.05       2.00       ----

> <Gold.Chemscore.Fitness>
11.7126

> <Gold.Chemscore.DG>
-13.7601

> <Gold.Chemscore.ZeroCoef>
-5.4800

> <Gold.Chemscore.Hbond>
2.2993

> <Gold.Chemscore.Metal>
0.0000

> <Gold.Chemscore.Lipo>
53.1125

> <Gold.Chemscore.Internal_Hbond>
0.0000

> <Gold.Chemscore.DEClash>
0.0465

> <Gold.Chemscore.DEInternal>
2.0009

> <Gold.Chemscore.Rot>
2.1929

> <Gold.Chemscore.Internal.Correction>
   9.000000E+99

> <Gold.Chemscore.Hbonds>
donor molecule, donor type, donor heavy atom, donor atom, acceptor molecule, acceptor atom, score
      L1  H     1    19       P1  7957  0.40
      L1  H    12    25       P1  8029  0.82
      P1  H  7997  8010       L1     5  0.81

> <Gold.Chemscore.Hbond.Weighted>
-7.6797

> <Gold.Chemscore.Metal.Weighted>
-0.0000

> <Gold.Chemscore.Lipo.Weighted>
-6.2142

> <Gold.Chemscore.Internal_Hbond.Weighted>
0.0000

> <Gold.Chemscore.DEClash.Weighted>
0.0465

> <Gold.Chemscore.DEInternal.Weighted>
2.0009

> <Gold.Chemscore.Rot.Weighted>
5.6137

> <Gold.Chemscore.Internal.Correction.Weighted>
   9.000000E+99

> <Gold.Protein.RotatedTorsions>
[ 6907 6896 6895 6894 ] final -173.95 input  -60.11 | X-H torsion
[ 7974 7965 7964 7962 ] final -154.45 input  175.53 | X-H torsion
[ 8008 7997 7996 7995 ] final   62.22 input   59.86 | X-H torsion
[ 10167 10162 10161 10158 ] final  137.09 input  -65.29 | X-H torsion
[ 10718 10713 10712 10709 ] final  -81.37 input   66.30 | X-H torsion
[ 10763 10752 10751 10750 ] final  152.32 input  -60.55 | X-H torsion
[ 11005 11000 10999 10996 ] final   30.03 input  -57.11 | X-H torsion

> <Gold.Protein.ActiveResidues>
 VAL166  LYS551  ARG553  GLY616  TRP617  ASP618  TYR619  PRO620  LYS621  CYS622 
 ASP623  PHE694  ASN695  SER759  ASP760  ASP761  ALA762  ILE779  LEU786  VAL792 
 PHE793  MET794  SER795  GLU796  ALA797  LYS798  CYS799  TRP800  GLU811  SER814 

> <Gold.Protein.RotatedAtoms>
  151.5644  133.3398  159.2977 H   0  0  0  0  0  0  0  0  0  0  0  0  # atno 6907 bound_to 6896
  150.8404  134.7696  159.6938 H   0  0  0  0  0  0  0  0  0  0  0  0  # atno 6908 bound_to 6896
  152.4472  134.5476  159.9909 H   0  0  0  0  0  0  0  0  0  0  0  0  # atno 6909 bound_to 6896
  144.7689  140.4386  143.5922 H   0  0  0  0  0  0  0  0  0  0  0  0  # atno 7974 bound_to 7965
  155.6108  140.3495  155.4622 H   0  0  0  0  0  0  0  0  0  0  0  0  # atno 8008 bound_to 7997
  156.0156  140.1242  157.0434 H   0  0  0  0  0  0  0  0  0  0  0  0  # atno 8009 bound_to 7997
  154.4296  140.1073  156.5876 H   0  0  0  0  0  0  0  0  0  0  0  0  # atno 8010 bound_to 7997
  139.5157  144.6429  151.5519 H   0  0  0  0  0  0  0  0  0  0  0  0  # atno 10167 bound_to 10162
  156.0052  130.4602  150.3942 H   0  0  0  0  0  0  0  0  0  0  0  0  # atno 10718 bound_to 10713
  154.1181  135.2834  155.3215 H   0  0  0  0  0  0  0  0  0  0  0  0  # atno 10763 bound_to 10752
  154.6442  135.5391  153.7829 H   0  0  0  0  0  0  0  0  0  0  0  0  # atno 10764 bound_to 10752
  153.0322  135.6494  154.1336 H   0  0  0  0  0  0  0  0  0  0  0  0  # atno 10765 bound_to 10752
  140.2986  134.2782  155.7759 H   0  0  0  0  0  0  0  0  0  0  0  0  # atno 11005 bound_to 11000
  145.6385  139.1546  143.2929 LP  0  0  0  0  0  0  0  0  0  0  0  0  # atno 17320 bound_to 7965
  146.1819  140.6483  142.9185 LP  0  0  0  0  0  0  0  0  0  0  0  0  # atno 17321 bound_to 7965
  140.6203  143.9271  150.6521 LP  0  0  0  0  0  0  0  0  0  0  0  0  # atno 17342 bound_to 10162
  140.2542  143.3570  152.1379 LP  0  0  0  0  0  0  0  0  0  0  0  0  # atno 17343 bound_to 10162
  157.2015  131.0439  151.2648 LP  0  0  0  0  0  0  0  0  0  0  0  0  # atno 17370 bound_to 10713
  157.3971  130.7313  149.6740 LP  0  0  0  0  0  0  0  0  0  0  0  0  # atno 17371 bound_to 10713
  141.2132  133.7631  156.9733 LP  0  0  0  0  0  0  0  0  0  0  0  0  # atno 17394 bound_to 11000
  140.1129  134.9465  157.2092 LP  0  0  0  0  0  0  0  0  0  0  0  0  # atno 17395 bound_to 11000

$$$$
