AV-unprocessed.smi:1261|AV-procd|sdf|5308|dock10
  -GOLD-   22720 4433D 1   1.00000     0.00000
 Structure written by MMmdl.
 50 51  0  0  0  0  0  0  0  0  2 V2000
  153.3802  141.5470  160.6529 C   0  0  0  0  0  0  0  0  0  0  0  0
  152.4085  142.4160  159.8419 C   0  0  1  0  0  0  0  0  0  0  0  0
  153.0190  143.7938  159.5276 C   0  0  0  0  0  0  0  0  0  0  0  0
  152.0783  144.6485  158.6583 C   0  0  2  0  0  0  0  0  0  0  0  0
  150.8746  145.2011  159.4425 C   0  0  0  0  0  0  0  0  0  0  0  0
  151.6461  143.8663  157.4021 C   0  0  0  0  0  0  0  0  0  0  0  0
  151.0386  142.5562  157.7531 N   0  3  1  0  0  0  0  0  0  0  0  0
  150.4792  141.8592  156.5671 C   0  0  0  0  0  0  0  0  0  0  0  0
  149.6017  140.6580  156.9560 C   0  0  0  0  0  0  0  0  0  0  0  0
  150.3816  139.3334  156.9398 C   0  0  0  0  0  0  0  0  0  0  0  0
  149.5127  138.2047  157.2469 N   0  0  0  0  0  0  0  0  0  0  0  0
  148.6454  138.1501  158.2725 C   0  0  0  0  0  0  0  0  0  0  0  0
  148.5175  139.0670  159.0831 O   0  0  0  0  0  0  0  0  0  0  0  0
  147.7719  136.8921  158.4229 C   0  0  0  0  0  0  0  0  0  0  0  0
  147.6246  136.3963  159.8014 N   0  0  0  0  0  0  0  0  0  0  0  0
  147.1135  137.3319  160.6882 N   0  0  0  0  0  0  0  0  0  0  0  0
  146.9339  137.0164  161.9264 C   0  0  0  0  0  0  0  0  0  0  0  0
  146.4289  137.9743  162.7711 O   0  0  0  0  0  0  0  0  0  0  0  0
  147.2547  135.6933  162.4156 C   0  0  0  0  0  0  0  0  0  0  0  0
  147.7547  134.7894  161.5448 C   0  0  0  0  0  0  0  0  0  0  0  0
  147.9769  135.1165  160.1352 C   0  0  0  0  0  0  0  0  0  0  0  0
  148.4478  134.3192  159.3244 O   0  0  0  0  0  0  0  0  0  0  0  0
  151.9772  141.7127  158.5403 C   0  0  0  0  0  0  0  0  0  0  0  0
  146.9422  138.7505  162.6081 H   0  0  0  0  0  0  0  0  0  0  0  0
  154.2990  141.3543  160.0983 H   0  0  0  0  0  0  0  0  0  0  0  0
  152.9331  140.5838  160.9006 H   0  0  0  0  0  0  0  0  0  0  0  0
  153.6531  142.0329  161.5902 H   0  0  0  0  0  0  0  0  0  0  0  0
  151.5198  142.5645  160.4566 H   0  0  0  0  0  0  0  0  0  0  0  0
  153.2631  144.3214  160.4505 H   0  0  0  0  0  0  0  0  0  0  0  0
  153.9630  143.6557  158.9982 H   0  0  0  0  0  0  0  0  0  0  0  0
  152.6480  145.5160  158.3228 H   0  0  0  0  0  0  0  0  0  0  0  0
  150.2139  144.4075  159.7908 H   0  0  0  0  0  0  0  0  0  0  0  0
  150.2807  145.8730  158.8224 H   0  0  0  0  0  0  0  0  0  0  0  0
  151.2014  145.7672  160.3153 H   0  0  0  0  0  0  0  0  0  0  0  0
  150.9387  144.4662  156.8278 H   0  0  0  0  0  0  0  0  0  0  0  0
  152.5080  143.6961  156.7544 H   0  0  0  0  0  0  0  0  0  0  0  0
  149.8589  142.5550  156.0001 H   0  0  0  0  0  0  0  0  0  0  0  0
  151.2859  141.5528  155.8993 H   0  0  0  0  0  0  0  0  0  0  0  0
  149.1779  140.8080  157.9485 H   0  0  0  0  0  0  0  0  0  0  0  0
  148.7578  140.5877  156.2681 H   0  0  0  0  0  0  0  0  0  0  0  0
  150.8148  139.1670  155.9532 H   0  0  0  0  0  0  0  0  0  0  0  0
  151.2148  139.3688  157.6438 H   0  0  0  0  0  0  0  0  0  0  0  0
  149.5612  137.4077  156.6283 H   0  0  0  0  0  0  0  0  0  0  0  0
  146.7895  137.1174  158.0040 H   0  0  0  0  0  0  0  0  0  0  0  0
  148.1803  136.1059  157.7854 H   0  0  0  0  0  0  0  0  0  0  0  0
  147.0947  135.4419  163.4539 H   0  0  0  0  0  0  0  0  0  0  0  0
  147.9976  133.7975  161.8967 H   0  0  0  0  0  0  0  0  0  0  0  0
  152.8507  141.4757  157.9304 H   0  0  0  0  0  0  0  0  0  0  0  0
  151.5060  140.7637  158.7936 H   0  0  0  0  0  0  0  0  0  0  0  0
  150.2550  142.7658  158.3552 H   0  0  0  0  0  0  0  0  0  0  0  0
  1  2  1  0  0  0  0
  1 25  1  0  0  0  0
  1 26  1  0  0  0  0
  1 27  1  0  0  0  0
  2 23  1  0  0  0  0
  2  3  1  0  0  0  0
  2 28  1  0  0  0  0
  3  4  1  0  0  0  0
  3 29  1  0  0  0  0
  3 30  1  0  0  0  0
  4  5  1  0  0  0  0
  4  6  1  0  0  0  0
  4 31  1  0  0  0  0
  5 32  1  0  0  0  0
  5 33  1  0  0  0  0
  5 34  1  0  0  0  0
  6  7  1  0  0  0  0
  6 35  1  0  0  0  0
  6 36  1  0  0  0  0
  7  8  1  0  0  0  0
  7 23  1  0  0  0  0
  7 50  1  0  0  0  0
  8  9  1  0  0  0  0
  8 37  1  0  0  0  0
  8 38  1  0  0  0  0
  9 10  1  0  0  0  0
  9 39  1  0  0  0  0
  9 40  1  0  0  0  0
 10 11  1  0  0  0  0
 10 41  1  0  0  0  0
 10 42  1  0  0  0  0
 11 12  1  0  0  0  0
 11 43  1  0  0  0  0
 12 13  2  0  0  0  0
 12 14  1  0  0  0  0
 14 44  1  0  0  0  0
 14 45  1  0  0  0  0
 14 15  1  0  0  0  0
 15 16  1  0  0  0  0
 15 21  1  0  0  0  0
 16 17  2  0  0  0  0
 17 18  1  0  0  0  0
 17 19  1  0  0  0  0
 18 24  1  0  0  0  0
 19 46  1  0  0  0  0
 19 20  2  0  0  0  0
 20 47  1  0  0  0  0
 20 21  1  0  0  0  0
 21 22  2  0  0  0  0
 23 48  1  0  0  0  0
 23 49  1  0  0  0  0
M  CHG  1   7   1
M  END
> <s_m_source_file>
AV-unprocessed.smi

> <i_m_source_file_index>
1261

> <i_lp_mmshare_version>
43012

> <i_f3d_flags>
0

> <s_epik_input>
W0NIM11bQ0BASF0xW0NIMl1bQ0BASF0oW0NIM10pW0NIMl1OKFtDSDJdMSlbQ0gyXVtDSDJdW0NIMl1bTkhdQyg9TylbQ0gyXW4yW25IXWMoPU8pW2NIXVtjSF1jMj1P

> <s_epik_cmdline>
J2VwaWtfcHl0aG9uJywgJy1waCcsICc3LjAnLCAnLXRuJywgJzgnLCAnLW1hJywgJzIwMCcsICctbWV0YWxfYmluZGluZycsICctaW1hZScsICc8aW5maWxlLm1hZT4nLCAnLW9tYWUnLCAnPG91dGZpbGUubWFlPic=

> <r_lp_tautomer_probability>
0.9996

> <r_epik_Ionization_Penalty>
2.1425

> <r_epik_Ionization_Penalty_Charging>
0.000312112

> <r_epik_Ionization_Penalty_Neutral>
2.14218

> <r_epik_State_Penalty>
1.71978

> <r_epik_Charging_Adjusted_Penalty>
1.72009

> <i_epik_Tot_Q>
1

> <i_epik_Tot_abs_Q>
1

> <r_epik_Metal_State_Penalty>
1.71978

> <b_epik_Metal_Only>
0

> <s_lp_Force_Field>
OPLS_2005

> <r_lp_Energy>
29.1446

> <b_lp_Chiralities_Consistent>
1

> <s_lp_Variant>
AV-unprocessed.smi:1261-8

> <Gold.Version>
5.8.1

> <Gold.Id.Protein>
6NUR|6NUR_protein|mol2

> <Gold.PLP.Fitness>
48.7566

> <Gold.PLP.PLP>
-44.1935

> <Gold.PLP.part.hbond>
-5.6669

> <Gold.PLP.part.metal>
0.0000

> <Gold.PLP.part.buried>
-2.8516

> <Gold.PLP.part.nonpolar>
-36.1364

> <Gold.PLP.part.repulsive>
0.0438

> <Gold.PLP.ligand.clash>
0.0000

> <Gold.PLP.ligand.torsion>
0.5909

> <Gold.PLP.Chemscore.Hbond>
1.9000

> <Gold.PLP.Chemscore.CHOScore>
0.0000

> <Gold.PLP.Chemscore.Metal>
0.0000

> <Gold.Chemscore.Hbonds>
donor molecule, donor type, donor heavy atom, donor atom, acceptor molecule, acceptor atom, score
      P1  H  6896  6908       L1    22  0.63
      P1  H  6934  6947       L1    16  0.85

> <Gold.PLP.Chemscore.Internal.Correction>
0.0449

> <Gold.Rescore>
     Score         DG    S(hbond)    S(metal)    S(lipo)     H(rot)  DE(clash)    DE(int)     intcor
     10.28     -13.89       1.00        0.00     112.03       3.14       0.40       3.21       ----

> <Gold.Chemscore.Fitness>
10.2754

> <Gold.Chemscore.DG>
-13.8881

> <Gold.Chemscore.ZeroCoef>
-5.4800

> <Gold.Chemscore.Hbond>
0.9959

> <Gold.Chemscore.Metal>
0.0000

> <Gold.Chemscore.Lipo>
112.0316

> <Gold.Chemscore.Internal_Hbond>
0.0000

> <Gold.Chemscore.DEClash>
0.4013

> <Gold.Chemscore.DEInternal>
3.2113

> <Gold.Chemscore.Rot>
3.1352

> <Gold.Chemscore.Internal.Correction>
   9.000000E+99

> <Gold.Chemscore.Hbonds>
donor molecule, donor type, donor heavy atom, donor atom, acceptor molecule, acceptor atom, score
      P1  H  6896  6908       L1    22  0.51
      P1  H  6934  6947       L1    16  0.15

> <Gold.Chemscore.Hbond.Weighted>
-3.3264

> <Gold.Chemscore.Metal.Weighted>
-0.0000

> <Gold.Chemscore.Lipo.Weighted>
-13.1077

> <Gold.Chemscore.Internal_Hbond.Weighted>
0.0000

> <Gold.Chemscore.DEClash.Weighted>
0.4013

> <Gold.Chemscore.DEInternal.Weighted>
3.2113

> <Gold.Chemscore.Rot.Weighted>
8.0260

> <Gold.Chemscore.Internal.Correction.Weighted>
   9.000000E+99

> <Gold.Protein.RotatedTorsions>
[ 6907 6896 6895 6894 ] final  146.44 input  -60.11 | X-H torsion
[ 7974 7965 7964 7962 ] final   21.54 input  175.53 | X-H torsion
[ 8008 7997 7996 7995 ] final   29.84 input   59.86 | X-H torsion
[ 10167 10162 10161 10158 ] final   52.73 input  -65.29 | X-H torsion
[ 10718 10713 10712 10709 ] final  -41.09 input   66.30 | X-H torsion
[ 10763 10752 10751 10750 ] final  -12.54 input  -60.55 | X-H torsion
[ 11005 11000 10999 10996 ] final   52.98 input  -57.11 | X-H torsion

> <Gold.Protein.ActiveResidues>
 VAL166  LYS551  ARG553  GLY616  TRP617  ASP618  TYR619  PRO620  LYS621  CYS622 
 ASP623  PHE694  ASN695  SER759  ASP760  ASP761  ALA762  ILE779  LEU786  VAL792 
 PHE793  MET794  SER795  GLU796  ALA797  LYS798  CYS799  TRP800  GLU811  SER814 

> <Gold.Protein.RotatedAtoms>
  152.1678  133.4624  159.4893 H   0  0  0  0  0  0  0  0  0  0  0  0  # atno 6907 bound_to 6896
  150.6915  134.1991  159.4324 H   0  0  0  0  0  0  0  0  0  0  0  0  # atno 6908 bound_to 6896
  151.9896  134.9986  160.0611 H   0  0  0  0  0  0  0  0  0  0  0  0  # atno 6909 bound_to 6896
  146.2067  139.8013  142.8720 H   0  0  0  0  0  0  0  0  0  0  0  0  # atno 7974 bound_to 7965
  155.0809  140.3210  155.4602 H   0  0  0  0  0  0  0  0  0  0  0  0  # atno 8008 bound_to 7997
  156.2767  140.2095  156.5882 H   0  0  0  0  0  0  0  0  0  0  0  0  # atno 8009 bound_to 7997
  154.6979  140.0510  157.0416 H   0  0  0  0  0  0  0  0  0  0  0  0  # atno 8010 bound_to 7997
  140.2483  144.3507  150.6356 H   0  0  0  0  0  0  0  0  0  0  0  0  # atno 10167 bound_to 10162
  156.2742  130.4210  149.8405 H   0  0  0  0  0  0  0  0  0  0  0  0  # atno 10718 bound_to 10713
  153.5000  135.7017  153.5837 H   0  0  0  0  0  0  0  0  0  0  0  0  # atno 10763 bound_to 10752
  153.3972  135.3881  155.1963 H   0  0  0  0  0  0  0  0  0  0  0  0  # atno 10764 bound_to 10752
  154.8711  135.3873  154.4470 H   0  0  0  0  0  0  0  0  0  0  0  0  # atno 10765 bound_to 10752
  140.0805  134.5345  155.8952 H   0  0  0  0  0  0  0  0  0  0  0  0  # atno 11005 bound_to 11000
  145.3293  141.0263  143.3455 LP  0  0  0  0  0  0  0  0  0  0  0  0  # atno 17320 bound_to 7965
  144.8810  139.4904  143.6723 LP  0  0  0  0  0  0  0  0  0  0  0  0  # atno 17321 bound_to 7965
  140.6060  143.2168  151.6979 LP  0  0  0  0  0  0  0  0  0  0  0  0  # atno 17342 bound_to 10162
  139.5054  144.3717  152.0463 LP  0  0  0  0  0  0  0  0  0  0  0  0  # atno 17343 bound_to 10162
  156.5876  130.8492  151.3399 LP  0  0  0  0  0  0  0  0  0  0  0  0  # atno 17370 bound_to 10713
  157.7294  130.9670  150.1784 LP  0  0  0  0  0  0  0  0  0  0  0  0  # atno 17371 bound_to 10713
  141.2045  133.6639  156.6123 LP  0  0  0  0  0  0  0  0  0  0  0  0  # atno 17394 bound_to 11000
  140.3495  134.7780  157.4456 LP  0  0  0  0  0  0  0  0  0  0  0  0  # atno 17395 bound_to 11000

$$$$
