AV-unprocessed.smi:285|AV-procd|sdf|2168|dock3
  -GOLD-   2262021523D 1   1.00000     0.00000
 Structure written by MMmdl.
 31 33  0  0  0  0  0  0  0  0  1 V2000
  155.1793  141.0314  160.9048 N   0  0  0  0  0  0  0  0  0  0  0  0
  154.0085  141.4784  160.4297 C   0  0  0  0  0  0  0  0  0  0  0  0
  153.4557  142.5712  161.0061 N   0  0  0  0  0  0  0  0  0  0  0  0
  152.2877  143.0374  160.5518 C   0  0  0  0  0  0  0  0  0  0  0  0
  151.5301  142.5678  159.5569 N   0  0  0  0  0  0  0  0  0  0  0  0
  152.0895  141.4657  158.9747 C   0  0  0  0  0  0  0  0  0  0  0  0
  153.3233  140.8600  159.3535 C   0  0  0  0  0  0  0  0  0  0  0  0
  153.5825  139.7559  158.5507 N   0  0  0  0  0  0  0  0  0  0  0  0
  152.5509  139.7318  157.7535 C   0  0  0  0  0  0  0  0  0  0  0  0
  152.3881  138.3734  156.4286 Br  0  0  0  0  0  0  0  0  0  0  0  0
  151.6005  140.7125  157.9259 N   0  0  0  0  0  0  0  0  0  0  0  0
  150.3312  140.9417  157.1722 C   0  0  1  0  0  0  0  0  0  0  0  0
  150.5384  141.9075  156.0104 C   0  0  0  0  0  0  0  0  0  0  0  0
  149.5605  141.3761  154.9678 C   0  0  2  0  0  0  0  0  0  0  0  0
  148.5169  142.3039  154.7460 O   0  0  0  0  0  0  0  0  0  0  0  0
  149.0116  140.0640  155.5652 C   0  0  1  0  0  0  0  0  0  0  0  0
  148.9530  138.9087  154.5543 C   0  0  0  0  0  0  0  0  0  0  0  0
  150.1479  138.8578  153.8044 O   0  0  0  0  0  0  0  0  0  0  0  0
  149.9304  139.7449  156.6020 O   0  0  0  0  0  0  0  0  0  0  0  0
  155.6125  140.2175  160.4924 H   0  0  0  0  0  0  0  0  0  0  0  0
  155.6273  141.5097  161.6731 H   0  0  0  0  0  0  0  0  0  0  0  0
  151.9054  143.9119  161.0572 H   0  0  0  0  0  0  0  0  0  0  0  0
  149.5936  141.2844  157.8982 H   0  0  0  0  0  0  0  0  0  0  0  0
  150.3541  142.9346  156.3286 H   0  0  0  0  0  0  0  0  0  0  0  0
  151.5604  141.8338  155.6369 H   0  0  0  0  0  0  0  0  0  0  0  0
  150.0882  141.1985  154.0298 H   0  0  0  0  0  0  0  0  0  0  0  0
  148.7841  143.1456  155.0827 H   0  0  0  0  0  0  0  0  0  0  0  0
  148.0310  140.2408  156.0130 H   0  0  0  0  0  0  0  0  0  0  0  0
  148.8579  137.9569  155.0778 H   0  0  0  0  0  0  0  0  0  0  0  0
  148.0908  139.0039  153.8932 H   0  0  0  0  0  0  0  0  0  0  0  0
  150.0082  139.3078  152.9853 H   0  0  0  0  0  0  0  0  0  0  0  0
  1  2  1  0  0  0  0
  1 20  1  0  0  0  0
  1 21  1  0  0  0  0
  2  7  1  0  0  0  0
  2  3  2  0  0  0  0
  3  4  1  0  0  0  0
  4  5  2  0  0  0  0
  4 22  1  0  0  0  0
  5  6  1  0  0  0  0
  6 11  1  0  0  0  0
  6  7  2  0  0  0  0
  7  8  1  0  0  0  0
  8  9  2  0  0  0  0
  9 10  1  0  0  0  0
  9 11  1  0  0  0  0
 11 12  1  0  0  0  0
 12 19  1  0  0  0  0
 12 13  1  0  0  0  0
 12 23  1  0  0  0  0
 13 14  1  0  0  0  0
 13 24  1  0  0  0  0
 13 25  1  0  0  0  0
 14 15  1  0  0  0  0
 14 16  1  0  0  0  0
 14 26  1  0  0  0  0
 15 27  1  0  0  0  0
 16 17  1  0  0  0  0
 16 19  1  0  0  0  0
 16 28  1  0  0  0  0
 17 18  1  0  0  0  0
 17 29  1  0  0  0  0
 17 30  1  0  0  0  0
 18 31  1  0  0  0  0
M  END
> <s_m_source_file>
AV-unprocessed.smi

> <i_m_source_file_index>
285

> <i_lp_mmshare_version>
43012

> <i_f3d_flags>
0

> <s_epik_input>
bjFbY0hdbmMoW05IMl0pYyhjMTIpbmMoQnIpbjJbQ0BASF0zW0NIMl1bQ0BASF0oW09IXSlbQ0BIXShPMylbQ0gyXVtPSF0=

> <s_epik_cmdline>
J2VwaWtfcHl0aG9uJywgJy1waCcsICc3LjAnLCAnLXRuJywgJzgnLCAnLW1hJywgJzIwMCcsICctbWV0YWxfYmluZGluZycsICctaW1hZScsICc8aW5maWxlLm1hZT4nLCAnLW9tYWUnLCAnPG91dGZpbGUubWFlPic=

> <r_lp_tautomer_probability>
1

> <r_epik_Ionization_Penalty>
0.000103242

> <r_epik_Ionization_Penalty_Charging>
0

> <r_epik_Ionization_Penalty_Neutral>
0.000103242

> <r_epik_State_Penalty>
-0

> <r_epik_Charging_Adjusted_Penalty>
0

> <i_epik_Tot_Q>
0

> <i_epik_Tot_abs_Q>
0

> <r_epik_Metal_State_Penalty>
-0

> <b_epik_Metal_Only>
0

> <s_epik_Chemistry_Notes>
This compound contains an acetal/aminal-like group ( X-CH(R)-Y where X, Y are N, S, or O) that may be acid/base labile, releasing an aldehyde.

> <s_lp_Force_Field>
OPLS_2005

> <r_lp_Energy>
33.2332

> <b_lp_Chiralities_Consistent>
1

> <s_lp_Variant>
AV-unprocessed.smi:285-4

> <Gold.Version>
5.8.1

> <Gold.Id.Protein>
6NUR|6NUR_protein|mol2

> <Gold.PLP.Fitness>
39.4613

> <Gold.PLP.PLP>
-32.0593

> <Gold.PLP.part.hbond>
-4.4316

> <Gold.PLP.part.metal>
0.0000

> <Gold.PLP.part.buried>
-5.3179

> <Gold.PLP.part.nonpolar>
-22.4356

> <Gold.PLP.part.repulsive>
0.0347

> <Gold.PLP.ligand.clash>
0.0000

> <Gold.PLP.ligand.torsion>
0.7962

> <Gold.PLP.Chemscore.Hbond>
2.9920

> <Gold.PLP.Chemscore.CHOScore>
0.0000

> <Gold.PLP.Chemscore.Metal>
0.0000

> <Gold.Chemscore.Hbonds>
donor molecule, donor type, donor heavy atom, donor atom, acceptor molecule, acceptor atom, score
      L1  H    15    27       P1  8028  1.00
      L1  H    18    31       P1  7957  1.00
      P1  H  7997  8008       L1     8  0.94

> <Gold.PLP.Chemscore.Internal.Correction>
0.0185

> <Gold.Rescore>
     Score         DG    S(hbond)    S(metal)    S(lipo)     H(rot)  DE(clash)    DE(int)     intcor
      9.04     -11.13       2.63        0.00      40.22       3.06       0.03       2.06       ----

> <Gold.Chemscore.Fitness>
9.0354

> <Gold.Chemscore.DG>
-11.1350

> <Gold.Chemscore.ZeroCoef>
-5.4800

> <Gold.Chemscore.Hbond>
2.6301

> <Gold.Chemscore.Metal>
0.0000

> <Gold.Chemscore.Lipo>
40.2195

> <Gold.Chemscore.Internal_Hbond>
0.0000

> <Gold.Chemscore.DEClash>
0.0350

> <Gold.Chemscore.DEInternal>
2.0646

> <Gold.Chemscore.Rot>
3.0607

> <Gold.Chemscore.Internal.Correction>
   9.000000E+99

> <Gold.Chemscore.Hbonds>
donor molecule, donor type, donor heavy atom, donor atom, acceptor molecule, acceptor atom, score
      L1  H    15    27       P1  8028  1.00
      L1  H    18    31       P1  7957  0.94
      P1  H  7997  8008       L1     8  0.18

> <Gold.Chemscore.Hbond.Weighted>
-8.7846

> <Gold.Chemscore.Metal.Weighted>
-0.0000

> <Gold.Chemscore.Lipo.Weighted>
-4.7057

> <Gold.Chemscore.Internal_Hbond.Weighted>
0.0000

> <Gold.Chemscore.DEClash.Weighted>
0.0350

> <Gold.Chemscore.DEInternal.Weighted>
2.0646

> <Gold.Chemscore.Rot.Weighted>
7.8354

> <Gold.Chemscore.Internal.Correction.Weighted>
   9.000000E+99

> <Gold.Protein.RotatedTorsions>
[ 6907 6896 6895 6894 ] final -100.09 input  -60.11 | X-H torsion
[ 7974 7965 7964 7962 ] final  -15.96 input  175.53 | X-H torsion
[ 8008 7997 7996 7995 ] final -111.53 input   59.86 | X-H torsion
[ 10167 10162 10161 10158 ] final   74.47 input  -65.29 | X-H torsion
[ 10718 10713 10712 10709 ] final  -58.37 input   66.30 | X-H torsion
[ 10763 10752 10751 10750 ] final  137.24 input  -60.55 | X-H torsion
[ 11005 11000 10999 10996 ] final  -51.80 input  -57.11 | X-H torsion

> <Gold.Protein.ActiveResidues>
 VAL166  LYS551  ARG553  GLY616  TRP617  ASP618  TYR619  PRO620  LYS621  CYS622 
 ASP623  PHE694  ASN695  SER759  ASP760  ASP761  ALA762  ILE779  LEU786  VAL792 
 PHE793  MET794  SER795  GLU796  ALA797  LYS798  CYS799  TRP800  GLU811  SER814 

> <Gold.Protein.RotatedAtoms>
  150.7103  134.0940  159.3941 H   0  0  0  0  0  0  0  0  0  0  0  0  # atno 6907 bound_to 6896
  151.8926  135.0408  160.0508 H   0  0  0  0  0  0  0  0  0  0  0  0  # atno 6908 bound_to 6896
  152.2479  133.5155  159.5345 H   0  0  0  0  0  0  0  0  0  0  0  0  # atno 6909 bound_to 6896
  146.2009  140.3568  142.8424 H   0  0  0  0  0  0  0  0  0  0  0  0  # atno 7974 bound_to 7965
  154.9913  140.0395  157.2320 H   0  0  0  0  0  0  0  0  0  0  0  0  # atno 8008 bound_to 7997
  154.7626  140.2787  155.6179 H   0  0  0  0  0  0  0  0  0  0  0  0  # atno 8009 bound_to 7997
  156.2907  140.2625  156.2408 H   0  0  0  0  0  0  0  0  0  0  0  0  # atno 8010 bound_to 7997
  140.0134  144.5596  150.7640 H   0  0  0  0  0  0  0  0  0  0  0  0  # atno 10167 bound_to 10162
  156.1140  130.4172  150.0568 H   0  0  0  0  0  0  0  0  0  0  0  0  # atno 10718 bound_to 10713
  153.8698  135.3057  155.3441 H   0  0  0  0  0  0  0  0  0  0  0  0  # atno 10763 bound_to 10752
  154.7811  135.4835  153.9849 H   0  0  0  0  0  0  0  0  0  0  0  0  # atno 10764 bound_to 10752
  153.1413  135.6824  153.9119 H   0  0  0  0  0  0  0  0  0  0  0  0  # atno 10765 bound_to 10752
  141.0890  133.6636  156.3930 H   0  0  0  0  0  0  0  0  0  0  0  0  # atno 11005 bound_to 11000
  144.8681  140.7234  143.6064 LP  0  0  0  0  0  0  0  0  0  0  0  0  # atno 17320 bound_to 7965
  145.3488  139.1712  143.4446 LP  0  0  0  0  0  0  0  0  0  0  0  0  # atno 17321 bound_to 7965
  140.7372  143.2763  151.3733 LP  0  0  0  0  0  0  0  0  0  0  0  0  # atno 17342 bound_to 10162
  139.6189  144.0946  152.2372 LP  0  0  0  0  0  0  0  0  0  0  0  0  # atno 17343 bound_to 10162
  156.8524  130.9463  151.3624 LP  0  0  0  0  0  0  0  0  0  0  0  0  # atno 17370 bound_to 10713
  157.6323  130.8739  149.9295 LP  0  0  0  0  0  0  0  0  0  0  0  0  # atno 17371 bound_to 10713
  140.5296  134.6225  157.5345 LP  0  0  0  0  0  0  0  0  0  0  0  0  # atno 17394 bound_to 11000
  139.9713  134.7289  156.0036 LP  0  0  0  0  0  0  0  0  0  0  0  0  # atno 17395 bound_to 11000

$$$$
