AV-unprocessed.smi:1252|AV-procd|sdf|5266|dock1
  -GOLD-   22720 4383D 1   1.00000     0.00000
 Structure written by MMmdl.
 44 45  0  0  0  0  0  0  0  0  2 V2000
  140.6841  141.1791  155.6157 C   0  0  0  0  0  0  0  0  0  0  0  0
  141.8673  142.0273  155.1133 C   0  0  2  0  0  0  0  0  0  0  0  0
  143.1682  141.7713  155.8888 C   0  0  0  0  0  0  0  0  0  0  0  0
  143.2618  142.0465  157.0851 O   0  0  0  0  0  0  0  0  0  0  0  0
  144.1851  141.2786  155.1656 N   0  0  0  0  0  0  0  0  0  0  0  0
  145.5681  141.1309  155.6129 C   0  0  0  0  0  0  0  0  0  0  0  0
  146.4647  142.3478  155.2297 C   0  0  0  0  0  0  0  0  0  0  0  0
  146.3812  142.5302  153.6935 C   0  0  0  0  0  0  0  0  0  0  0  0
  145.8726  143.6161  155.8858 C   0  0  0  0  0  0  0  0  0  0  0  0
  147.8939  142.1136  155.6530 N   0  3  0  0  0  0  0  0  0  0  0  0
  148.1446  142.0733  157.1213 C   0  0  0  0  0  0  0  0  0  0  0  0
  149.6531  141.9941  157.4134 C   0  0  0  0  0  0  0  0  0  0  0  0
  150.2159  140.8635  156.7633 O   0  0  0  0  0  0  0  0  0  0  0  0
  150.0658  140.9392  155.3531 C   0  0  0  0  0  0  0  0  0  0  0  0
  148.5706  140.9586  154.9991 C   0  0  0  0  0  0  0  0  0  0  0  0
  141.5504  143.4496  155.1537 N   0  0  0  0  0  0  0  0  0  0  0  0
  141.2726  144.3121  154.1720 C   0  0  0  0  0  0  0  0  0  0  0  0
  140.9781  145.5323  154.5974 N   0  0  0  0  0  0  0  0  0  0  0  0
  141.1121  145.3438  155.9434 C   0  0  0  0  0  0  0  0  0  0  0  0
  141.4345  144.1100  156.3309 N   0  0  0  0  0  0  0  0  0  0  0  0
  140.9024  140.1134  155.5373 H   0  0  0  0  0  0  0  0  0  0  0  0
  139.7891  141.3722  155.0236 H   0  0  0  0  0  0  0  0  0  0  0  0
  140.4424  141.3942  156.6575 H   0  0  0  0  0  0  0  0  0  0  0  0
  142.0526  141.7511  154.0737 H   0  0  0  0  0  0  0  0  0  0  0  0
  143.9990  141.0573  154.1979 H   0  0  0  0  0  0  0  0  0  0  0  0
  145.6067  140.9407  156.6870 H   0  0  0  0  0  0  0  0  0  0  0  0
  145.9524  140.2181  155.1578 H   0  0  0  0  0  0  0  0  0  0  0  0
  145.3480  142.5028  153.3456 H   0  0  0  0  0  0  0  0  0  0  0  0
  146.9246  141.7487  153.1617 H   0  0  0  0  0  0  0  0  0  0  0  0
  146.7829  143.4902  153.3693 H   0  0  0  0  0  0  0  0  0  0  0  0
  144.8522  143.7892  155.5417 H   0  0  0  0  0  0  0  0  0  0  0  0
  146.4450  144.5107  155.6416 H   0  0  0  0  0  0  0  0  0  0  0  0
  145.8273  143.5375  156.9717 H   0  0  0  0  0  0  0  0  0  0  0  0
  147.7642  142.9642  157.6173 H   0  0  0  0  0  0  0  0  0  0  0  0
  147.6401  141.2146  157.5648 H   0  0  0  0  0  0  0  0  0  0  0  0
  150.1605  142.9034  157.0901 H   0  0  0  0  0  0  0  0  0  0  0  0
  149.8223  141.9027  158.4864 H   0  0  0  0  0  0  0  0  0  0  0  0
  150.5722  141.8235  154.9632 H   0  0  0  0  0  0  0  0  0  0  0  0
  150.5471  140.0717  154.9014 H   0  0  0  0  0  0  0  0  0  0  0  0
  148.1136  140.0226  155.3214 H   0  0  0  0  0  0  0  0  0  0  0  0
  148.4783  141.0036  153.9155 H   0  0  0  0  0  0  0  0  0  0  0  0
  141.2715  144.0377  153.1271 H   0  0  0  0  0  0  0  0  0  0  0  0
  140.9480  146.1344  156.6605 H   0  0  0  0  0  0  0  0  0  0  0  0
  148.3901  142.9313  155.3281 H   0  0  0  0  0  0  0  0  0  0  0  0
  1  2  1  0  0  0  0
  1 21  1  0  0  0  0
  1 22  1  0  0  0  0
  1 23  1  0  0  0  0
  2  3  1  0  0  0  0
  2 16  1  0  0  0  0
  2 24  1  0  0  0  0
  3  4  2  0  0  0  0
  3  5  1  0  0  0  0
  5  6  1  0  0  0  0
  5 25  1  0  0  0  0
  6  7  1  0  0  0  0
  6 26  1  0  0  0  0
  6 27  1  0  0  0  0
  7  8  1  0  0  0  0
  7  9  1  0  0  0  0
  7 10  1  0  0  0  0
  8 28  1  0  0  0  0
  8 29  1  0  0  0  0
  8 30  1  0  0  0  0
  9 31  1  0  0  0  0
  9 32  1  0  0  0  0
  9 33  1  0  0  0  0
 10 15  1  0  0  0  0
 10 11  1  0  0  0  0
 10 44  1  0  0  0  0
 11 12  1  0  0  0  0
 11 34  1  0  0  0  0
 11 35  1  0  0  0  0
 12 13  1  0  0  0  0
 12 36  1  0  0  0  0
 12 37  1  0  0  0  0
 13 14  1  0  0  0  0
 14 15  1  0  0  0  0
 14 38  1  0  0  0  0
 14 39  1  0  0  0  0
 15 40  1  0  0  0  0
 15 41  1  0  0  0  0
 16 20  1  0  0  0  0
 16 17  1  0  0  0  0
 17 18  2  0  0  0  0
 17 42  1  0  0  0  0
 18 19  1  0  0  0  0
 19 20  2  0  0  0  0
 19 43  1  0  0  0  0
M  CHG  1  10   1
M  END
> <s_m_source_file>
AV-unprocessed.smi

> <i_m_source_file_index>
1252

> <i_lp_mmshare_version>
43012

> <i_f3d_flags>
0

> <s_epik_input>
bjFbY0hdbltjSF1uMVtDQEhdKFtDSDNdKUMoPU8pW05IXVtDSDJdQyhbQ0gzXSkoW0NIM10pTjJbQ0gyXVtDSDJdT1tDSDJdW0NIMl0y

> <s_epik_cmdline>
J2VwaWtfcHl0aG9uJywgJy1waCcsICc3LjAnLCAnLXRuJywgJzgnLCAnLW1hJywgJzIwMCcsICctbWV0YWxfYmluZGluZycsICctaW1hZScsICc8aW5maWxlLm1hZT4nLCAnLW9tYWUnLCAnPG91dGZpbGUubWFlPic=

> <r_lp_tautomer_probability>
1

> <r_epik_Ionization_Penalty>
0.71326

> <r_epik_Ionization_Penalty_Charging>
0.713252

> <r_epik_Ionization_Penalty_Neutral>
8.22342e-06

> <r_epik_State_Penalty>
0.737017

> <r_epik_Charging_Adjusted_Penalty>
1.45027

> <i_epik_Tot_Q>
1

> <i_epik_Tot_abs_Q>
1

> <r_epik_Metal_State_Penalty>
0.73702

> <b_epik_Metal_Only>
0

> <s_lp_Force_Field>
OPLS_2005

> <r_lp_Energy>
34.1677

> <b_lp_Chiralities_Consistent>
1

> <s_lp_Variant>
AV-unprocessed.smi:1252-3

> <Gold.Version>
5.8.1

> <Gold.Id.Protein>
6NUR|6NUR_protein|mol2

> <Gold.PLP.Fitness>
35.0905

> <Gold.PLP.PLP>
-20.7096

> <Gold.PLP.part.hbond>
-2.0000

> <Gold.PLP.part.metal>
0.0000

> <Gold.PLP.part.buried>
-4.0405

> <Gold.PLP.part.nonpolar>
-14.8362

> <Gold.PLP.part.repulsive>
0.1255

> <Gold.PLP.ligand.clash>
0.0000

> <Gold.PLP.ligand.torsion>
0.4122

> <Gold.PLP.Chemscore.Hbond>
3.0000

> <Gold.PLP.Chemscore.CHOScore>
1.9997

> <Gold.PLP.Chemscore.Metal>
0.0000

> <Gold.Chemscore.Hbonds>
donor molecule, donor type, donor heavy atom, donor atom, acceptor molecule, acceptor atom, score
      L1  H     5    25       P1 10175  1.00
      L1  H    10    44       P1  8028  1.89
      L1  C    17    42       P1 10162  1.00
      L1  C    17    42       P1 10174  0.95

> <Gold.PLP.Chemscore.Internal.Correction>
0.2062

> <Gold.Rescore>
     Score         DG    S(hbond)    S(metal)    S(lipo)     H(rot)  DE(clash)    DE(int)     intcor
      9.47     -10.03       1.96        0.00      39.55       2.59       0.06       0.50       ----

> <Gold.Chemscore.Fitness>
9.4740

> <Gold.Chemscore.DG>
-10.0347

> <Gold.Chemscore.ZeroCoef>
-5.4800

> <Gold.Chemscore.Hbond>
1.9606

> <Gold.Chemscore.Metal>
0.0000

> <Gold.Chemscore.Lipo>
39.5513

> <Gold.Chemscore.Internal_Hbond>
0.0000

> <Gold.Chemscore.DEClash>
0.0559

> <Gold.Chemscore.DEInternal>
0.5048

> <Gold.Chemscore.Rot>
2.5864

> <Gold.Chemscore.Internal.Correction>
   9.000000E+99

> <Gold.Chemscore.Hbonds>
donor molecule, donor type, donor heavy atom, donor atom, acceptor molecule, acceptor atom, score
      L1  H     5    25       P1 10175  0.78
      L1  H    10    44       P1  8028  0.90

> <Gold.Chemscore.Hbond.Weighted>
-6.5483

> <Gold.Chemscore.Metal.Weighted>
-0.0000

> <Gold.Chemscore.Lipo.Weighted>
-4.6275

> <Gold.Chemscore.Internal_Hbond.Weighted>
0.0000

> <Gold.Chemscore.DEClash.Weighted>
0.0559

> <Gold.Chemscore.DEInternal.Weighted>
0.5048

> <Gold.Chemscore.Rot.Weighted>
6.6211

> <Gold.Chemscore.Internal.Correction.Weighted>
   9.000000E+99

> <Gold.Protein.RotatedTorsions>
[ 6907 6896 6895 6894 ] final   -8.55 input  -60.11 | X-H torsion
[ 7974 7965 7964 7962 ] final -109.66 input  175.53 | X-H torsion
[ 8008 7997 7996 7995 ] final -172.76 input   59.86 | X-H torsion
[ 10167 10162 10161 10158 ] final   79.26 input  -65.29 | X-H torsion
[ 10718 10713 10712 10709 ] final  -94.80 input   66.30 | X-H torsion
[ 10763 10752 10751 10750 ] final   20.71 input  -60.55 | X-H torsion
[ 11005 11000 10999 10996 ] final  -51.54 input  -57.11 | X-H torsion

> <Gold.Protein.ActiveResidues>
 VAL166  LYS551  ARG553  GLY616  TRP617  ASP618  TYR619  PRO620  LYS621  CYS622 
 ASP623  PHE694  ASN695  SER759  ASP760  ASP761  ALA762  ILE779  LEU786  VAL792 
 PHE793  MET794  SER795  GLU796  ALA797  LYS798  CYS799  TRP800  GLU811  SER814 

> <Gold.Protein.RotatedAtoms>
  151.4319  135.1010  159.9644 H   0  0  0  0  0  0  0  0  0  0  0  0  # atno 6907 bound_to 6896
  152.4953  133.8610  159.7260 H   0  0  0  0  0  0  0  0  0  0  0  0  # atno 6908 bound_to 6896
  150.9149  133.6893  159.2873 H   0  0  0  0  0  0  0  0  0  0  0  0  # atno 6909 bound_to 6896
  145.1777  140.8956  143.3498 H   0  0  0  0  0  0  0  0  0  0  0  0  # atno 7974 bound_to 7965
  155.9487  140.1122  157.0995 H   0  0  0  0  0  0  0  0  0  0  0  0  # atno 8008 bound_to 7997
  154.4105  140.1205  156.5089 H   0  0  0  0  0  0  0  0  0  0  0  0  # atno 8009 bound_to 7997
  155.6870  140.3473  155.4880 H   0  0  0  0  0  0  0  0  0  0  0  0  # atno 8010 bound_to 7997
  139.9622  144.5953  150.8061 H   0  0  0  0  0  0  0  0  0  0  0  0  # atno 10167 bound_to 10162
  156.0033  130.5082  150.5980 H   0  0  0  0  0  0  0  0  0  0  0  0  # atno 10718 bound_to 10713
  153.1055  135.6683  153.9594 H   0  0  0  0  0  0  0  0  0  0  0  0  # atno 10763 bound_to 10752
  153.9153  135.3020  155.3449 H   0  0  0  0  0  0  0  0  0  0  0  0  # atno 10764 bound_to 10752
  154.7476  135.5050  153.9308 H   0  0  0  0  0  0  0  0  0  0  0  0  # atno 10765 bound_to 10752
  141.0876  133.6639  156.3892 H   0  0  0  0  0  0  0  0  0  0  0  0  # atno 11005 bound_to 11000
  145.0167  139.3460  143.6092 LP  0  0  0  0  0  0  0  0  0  0  0  0  # atno 17320 bound_to 7965
  146.3458  139.9452  142.8736 LP  0  0  0  0  0  0  0  0  0  0  0  0  # atno 17321 bound_to 7965
  140.7549  143.3036  151.3017 LP  0  0  0  0  0  0  0  0  0  0  0  0  # atno 17342 bound_to 10162
  139.6545  144.0301  152.2650 LP  0  0  0  0  0  0  0  0  0  0  0  0  # atno 17343 bound_to 10162
  157.3834  131.0784  151.1457 LP  0  0  0  0  0  0  0  0  0  0  0  0  # atno 17370 bound_to 10713
  157.2172  130.6465  149.5797 LP  0  0  0  0  0  0  0  0  0  0  0  0  # atno 17371 bound_to 10713
  140.5327  134.6197  157.5355 LP  0  0  0  0  0  0  0  0  0  0  0  0  # atno 17394 bound_to 11000
  139.9697  134.7314  156.0067 LP  0  0  0  0  0  0  0  0  0  0  0  0  # atno 17395 bound_to 11000

$$$$
