AV-unprocessed.smi:1158|AV-procd|sdf|4912|dock2
  -GOLD-   22720 3493D 1   1.00000     0.00000
 Structure written by MMmdl.
 43 44  0  0  0  0  0  0  0  0  2 V2000
  145.2740  133.0647  151.8939 C   0  0  0  0  0  0  0  0  0  0  0  0
  146.4251  133.4131  152.6553 O   0  0  0  0  0  0  0  0  0  0  0  0
  147.2104  132.3975  153.1671 C   0  0  0  0  0  0  0  0  0  0  0  0
  146.8148  131.1147  152.9692 N   0  0  0  0  0  0  0  0  0  0  0  0
  147.5766  130.1221  153.4724 C   0  0  0  0  0  0  0  0  0  0  0  0
  148.7584  130.3519  154.1998 C   0  0  0  0  0  0  0  0  0  0  0  0
  149.1712  131.6812  154.4063 C   0  0  0  0  0  0  0  0  0  0  0  0
  148.3907  132.7347  153.8706 C   0  0  0  0  0  0  0  0  0  0  0  0
  148.7048  134.1135  154.0305 N   0  0  0  0  0  0  0  0  0  0  0  0
  149.5861  134.6851  154.8687 C   0  0  0  0  0  0  0  0  0  0  0  0
  150.2925  134.0879  155.6801 O   0  0  0  0  0  0  0  0  0  0  0  0
  149.6180  136.0154  154.7030 N   0  0  0  0  0  0  0  0  0  0  0  0
  150.4855  136.9325  155.4370 C   0  0  2  0  0  0  0  0  0  0  0  0
  150.1242  136.9554  156.9323 C   0  0  0  0  0  0  0  0  0  0  0  0
  150.9726  137.9894  157.6903 C   0  0  0  0  0  0  0  0  0  0  0  0
  150.8250  139.3481  157.1049 N   0  3  1  0  0  0  0  0  0  0  0  0
  151.5362  140.3774  157.9080 C   0  0  0  0  0  0  0  0  0  0  0  0
  150.8404  141.7497  157.8911 C   0  0  0  0  0  0  0  0  0  0  0  0
  151.6988  142.6855  158.2940 F   0  0  0  0  0  0  0  0  0  0  0  0
  150.4048  142.0734  156.6744 F   0  0  0  0  0  0  0  0  0  0  0  0
  151.1939  139.3604  155.6638 C   0  0  0  0  0  0  0  0  0  0  0  0
  150.3556  138.3508  154.8608 C   0  0  0  0  0  0  0  0  0  0  0  0
  144.7657  133.9740  151.5736 H   0  0  0  0  0  0  0  0  0  0  0  0
  144.5662  132.4805  152.4839 H   0  0  0  0  0  0  0  0  0  0  0  0
  145.5427  132.5034  150.9979 H   0  0  0  0  0  0  0  0  0  0  0  0
  147.2306  129.1145  153.2950 H   0  0  0  0  0  0  0  0  0  0  0  0
  149.3334  129.5272  154.5944 H   0  0  0  0  0  0  0  0  0  0  0  0
  150.0658  131.8618  154.9810 H   0  0  0  0  0  0  0  0  0  0  0  0
  148.2525  134.7324  153.3734 H   0  0  0  0  0  0  0  0  0  0  0  0
  149.0060  136.4211  154.0100 H   0  0  0  0  0  0  0  0  0  0  0  0
  151.5227  136.6105  155.3239 H   0  0  0  0  0  0  0  0  0  0  0  0
  149.0663  137.1919  157.0564 H   0  0  0  0  0  0  0  0  0  0  0  0
  150.2737  135.9688  157.3727 H   0  0  0  0  0  0  0  0  0  0  0  0
  150.6636  138.0008  158.7362 H   0  0  0  0  0  0  0  0  0  0  0  0
  152.0241  137.6977  157.6743 H   0  0  0  0  0  0  0  0  0  0  0  0
  151.5612  140.0444  158.9467 H   0  0  0  0  0  0  0  0  0  0  0  0
  152.5772  140.4604  157.5918 H   0  0  0  0  0  0  0  0  0  0  0  0
  149.9900  141.7841  158.5730 H   0  0  0  0  0  0  0  0  0  0  0  0
  151.0359  140.3495  155.2384 H   0  0  0  0  0  0  0  0  0  0  0  0
  152.2563  139.1355  155.5566 H   0  0  0  0  0  0  0  0  0  0  0  0
  150.6712  138.3598  153.8167 H   0  0  0  0  0  0  0  0  0  0  0  0
  149.3097  138.6613  154.8702 H   0  0  0  0  0  0  0  0  0  0  0  0
  149.8415  139.5716  157.1602 H   0  0  0  0  0  0  0  0  0  0  0  0
  1  2  1  0  0  0  0
  1 23  1  0  0  0  0
  1 24  1  0  0  0  0
  1 25  1  0  0  0  0
  2  3  1  0  0  0  0
  3  8  1  0  0  0  0
  3  4  2  0  0  0  0
  4  5  1  0  0  0  0
  5  6  2  0  0  0  0
  5 26  1  0  0  0  0
  6  7  1  0  0  0  0
  6 27  1  0  0  0  0
  7  8  2  0  0  0  0
  7 28  1  0  0  0  0
  8  9  1  0  0  0  0
  9 10  1  0  0  0  0
  9 29  1  0  0  0  0
 10 11  2  0  0  0  0
 10 12  1  0  0  0  0
 12 13  1  0  0  0  0
 12 30  1  0  0  0  0
 13 22  1  0  0  0  0
 13 14  1  0  0  0  0
 13 31  1  0  0  0  0
 14 15  1  0  0  0  0
 14 32  1  0  0  0  0
 14 33  1  0  0  0  0
 15 16  1  0  0  0  0
 15 34  1  0  0  0  0
 15 35  1  0  0  0  0
 16 17  1  0  0  0  0
 16 21  1  0  0  0  0
 16 43  1  0  0  0  0
 17 18  1  0  0  0  0
 17 36  1  0  0  0  0
 17 37  1  0  0  0  0
 18 19  1  0  0  0  0
 18 20  1  0  0  0  0
 18 38  1  0  0  0  0
 21 22  1  0  0  0  0
 21 39  1  0  0  0  0
 21 40  1  0  0  0  0
 22 41  1  0  0  0  0
 22 42  1  0  0  0  0
M  CHG  1  16   1
M  END
> <s_m_source_file>
AV-unprocessed.smi

> <i_m_source_file_index>
1158

> <i_lp_mmshare_version>
43012

> <i_f3d_flags>
0

> <s_epik_input>
W0NIM11PYzFuW2NIXVtjSF1bY0hdYzFbTkhdQyg9TylbTkhdW0NIXTJbQ0gyXVtDSDJdTihbQ0gyXVtDSF0oRilGKVtDSDJdW0NIMl0y

> <s_epik_cmdline>
J2VwaWtfcHl0aG9uJywgJy1waCcsICc3LjAnLCAnLXRuJywgJzgnLCAnLW1hJywgJzIwMCcsICctbWV0YWxfYmluZGluZycsICctaW1hZScsICc8aW5maWxlLm1hZT4nLCAnLW9tYWUnLCAnPG91dGZpbGUubWFlPic=

> <r_lp_tautomer_probability>
1

> <r_epik_Ionization_Penalty>
0.802109

> <r_epik_Ionization_Penalty_Charging>
0.802031

> <r_epik_Ionization_Penalty_Neutral>
7.83352e-05

> <r_epik_State_Penalty>
0.833408

> <r_epik_Charging_Adjusted_Penalty>
1.63544

> <i_epik_Tot_Q>
1

> <i_epik_Tot_abs_Q>
1

> <r_epik_Metal_State_Penalty>
0.833416

> <b_epik_Metal_Only>
0

> <s_lp_Force_Field>
OPLS_2005

> <r_lp_Energy>
21.1994

> <b_lp_Chiralities_Consistent>
1

> <s_lp_Variant>
AV-unprocessed.smi:1158-2

> <Gold.Version>
5.8.1

> <Gold.Id.Protein>
6NUR|6NUR_protein|mol2

> <Gold.PLP.Fitness>
39.5179

> <Gold.PLP.PLP>
-34.7263

> <Gold.PLP.part.hbond>
-2.2352

> <Gold.PLP.part.metal>
0.0000

> <Gold.PLP.part.buried>
-5.0163

> <Gold.PLP.part.nonpolar>
-28.3628

> <Gold.PLP.part.repulsive>
1.1719

> <Gold.PLP.ligand.clash>
0.0000

> <Gold.PLP.ligand.torsion>
0.5961

> <Gold.PLP.Chemscore.Hbond>
1.9600

> <Gold.PLP.Chemscore.CHOScore>
0.0000

> <Gold.PLP.Chemscore.Metal>
0.0000

> <Gold.Chemscore.Hbonds>
donor molecule, donor type, donor heavy atom, donor atom, acceptor molecule, acceptor atom, score
      L1  H     9    29       P1  7948  0.38
      L1  H    12    30       P1  7948  0.44

> <Gold.PLP.Chemscore.Internal.Correction>
0.1038

> <Gold.Rescore>
     Score         DG    S(hbond)    S(metal)    S(lipo)     H(rot)  DE(clash)    DE(int)     intcor
     11.87     -13.51       1.52        0.00      59.65       1.58       0.01       1.63       ----

> <Gold.Chemscore.Fitness>
11.8656

> <Gold.Chemscore.DG>
-13.5110

> <Gold.Chemscore.ZeroCoef>
-5.4800

> <Gold.Chemscore.Hbond>
1.5236

> <Gold.Chemscore.Metal>
0.0000

> <Gold.Chemscore.Lipo>
59.6534

> <Gold.Chemscore.Internal_Hbond>
0.0000

> <Gold.Chemscore.DEClash>
0.0135

> <Gold.Chemscore.DEInternal>
1.6319

> <Gold.Chemscore.Rot>
1.5770

> <Gold.Chemscore.Internal.Correction>
   9.000000E+99

> <Gold.Chemscore.Hbonds>
donor molecule, donor type, donor heavy atom, donor atom, acceptor molecule, acceptor atom, score
      L1  H     9    29       P1  7948  0.30
      L1  H    12    30       P1  7948  0.43

> <Gold.Chemscore.Hbond.Weighted>
-5.0887

> <Gold.Chemscore.Metal.Weighted>
-0.0000

> <Gold.Chemscore.Lipo.Weighted>
-6.9795

> <Gold.Chemscore.Internal_Hbond.Weighted>
0.0000

> <Gold.Chemscore.DEClash.Weighted>
0.0135

> <Gold.Chemscore.DEInternal.Weighted>
1.6319

> <Gold.Chemscore.Rot.Weighted>
4.0371

> <Gold.Chemscore.Internal.Correction.Weighted>
   9.000000E+99

> <Gold.Protein.RotatedTorsions>
[ 6907 6896 6895 6894 ] final  -19.36 input  -60.11 | X-H torsion
[ 7974 7965 7964 7962 ] final -168.52 input  175.53 | X-H torsion
[ 8008 7997 7996 7995 ] final  -48.74 input   59.86 | X-H torsion
[ 10167 10162 10161 10158 ] final   46.52 input  -65.29 | X-H torsion
[ 10718 10713 10712 10709 ] final -126.05 input   66.30 | X-H torsion
[ 10763 10752 10751 10750 ] final   94.78 input  -60.55 | X-H torsion
[ 11005 11000 10999 10996 ] final -160.52 input  -57.11 | X-H torsion

> <Gold.Protein.ActiveResidues>
 VAL166  LYS551  ARG553  GLY616  TRP617  ASP618  TYR619  PRO620  LYS621  CYS622 
 ASP623  PHE694  ASN695  SER759  ASP760  ASP761  ALA762  ILE779  LEU786  VAL792 
 PHE793  MET794  SER795  GLU796  ALA797  LYS798  CYS799  TRP800  GLU811  SER814 

> <Gold.Protein.RotatedAtoms>
  151.2642  135.0664  159.9109 H   0  0  0  0  0  0  0  0  0  0  0  0  # atno 6907 bound_to 6896
  152.5361  134.0198  159.7987 H   0  0  0  0  0  0  0  0  0  0  0  0  # atno 6908 bound_to 6896
  151.0426  133.5643  159.2680 H   0  0  0  0  0  0  0  0  0  0  0  0  # atno 6909 bound_to 6896
  144.7201  140.2358  143.6298 H   0  0  0  0  0  0  0  0  0  0  0  0  # atno 7974 bound_to 7965
  154.4033  140.1314  156.4388 H   0  0  0  0  0  0  0  0  0  0  0  0  # atno 8008 bound_to 7997
  155.7479  140.3488  155.5116 H   0  0  0  0  0  0  0  0  0  0  0  0  # atno 8009 bound_to 7997
  155.8977  140.1014  157.1363 H   0  0  0  0  0  0  0  0  0  0  0  0  # atno 8010 bound_to 7997
  140.3130  144.2797  150.6196 H   0  0  0  0  0  0  0  0  0  0  0  0  # atno 10167 bound_to 10162
  156.1731  130.6681  151.0206 H   0  0  0  0  0  0  0  0  0  0  0  0  # atno 10718 bound_to 10713
  153.2456  135.4277  155.0744 H   0  0  0  0  0  0  0  0  0  0  0  0  # atno 10763 bound_to 10752
  154.8360  135.3413  154.6586 H   0  0  0  0  0  0  0  0  0  0  0  0  # atno 10764 bound_to 10752
  153.7009  135.7028  153.5120 H   0  0  0  0  0  0  0  0  0  0  0  0  # atno 10765 bound_to 10752
  140.6305  134.4656  157.5229 H   0  0  0  0  0  0  0  0  0  0  0  0  # atno 11005 bound_to 11000
  145.8367  139.2111  143.1851 LP  0  0  0  0  0  0  0  0  0  0  0  0  # atno 17320 bound_to 7965
  146.0383  140.8190  142.9841 LP  0  0  0  0  0  0  0  0  0  0  0  0  # atno 17321 bound_to 7965
  140.5551  143.2200  151.7861 LP  0  0  0  0  0  0  0  0  0  0  0  0  # atno 17342 bound_to 10162
  139.4889  144.4425  151.9748 LP  0  0  0  0  0  0  0  0  0  0  0  0  # atno 17343 bound_to 10162
  157.6816  131.0836  150.7353 LP  0  0  0  0  0  0  0  0  0  0  0  0  # atno 17370 bound_to 10713
  156.7412  130.4739  149.5477 LP  0  0  0  0  0  0  0  0  0  0  0  0  # atno 17371 bound_to 10713
  139.9118  134.8329  156.1503 LP  0  0  0  0  0  0  0  0  0  0  0  0  # atno 17394 bound_to 11000
  141.0678  133.6811  156.2080 LP  0  0  0  0  0  0  0  0  0  0  0  0  # atno 17395 bound_to 11000

$$$$
