AV-unprocessed.smi:506|AV-procd|sdf|2751|dock8
  -GOLD-   2262023223D 1   1.00000     0.00000
 Structure written by MMmdl.
 41 43  0  0  0  0  0  0  0  0  2 V2000
  147.0750  134.5737  162.1156 C   0  0  0  0  0  0  0  0  0  0  0  0
  147.1752  134.3121  160.7234 O   0  0  0  0  0  0  0  0  0  0  0  0
  147.9848  135.1316  159.9665 C   0  0  0  0  0  0  0  0  0  0  0  0
  148.2007  134.7587  158.6255 C   0  0  0  0  0  0  0  0  0  0  0  0
  149.0106  135.5412  157.7812 C   0  0  0  0  0  0  0  0  0  0  0  0
  149.6249  136.7161  158.2573 C   0  0  0  0  0  0  0  0  0  0  0  0
  150.3961  137.4266  157.3628 O   0  0  0  0  0  0  0  0  0  0  0  0
  151.0594  138.5934  157.8268 C   0  0  0  0  0  0  0  0  0  0  0  0
  151.5459  139.3913  156.6113 C   0  0  0  0  0  0  0  0  0  0  0  0
  151.2086  140.8159  156.7230 N   0  0  0  0  0  0  0  0  0  0  0  0
  150.3635  141.5824  155.9755 C   0  0  0  0  0  0  0  0  0  0  0  0
  149.5444  141.1244  154.8108 C   0  0  0  0  0  0  0  0  0  0  0  0
  148.8372  142.1716  154.1801 O   0  0  0  0  0  0  0  0  0  0  0  0
  150.4056  142.8444  156.4914 N   0  3  0  0  0  0  0  0  0  0  0  0
  151.2778  142.8833  157.5797 C   0  0  0  0  0  0  0  0  0  0  0  0
  151.6434  143.9313  158.4188 C   0  0  0  0  0  0  0  0  0  0  0  0
  152.5616  143.6286  159.4460 C   0  0  0  0  0  0  0  0  0  0  0  0
  153.0778  142.3266  159.6093 C   0  0  0  0  0  0  0  0  0  0  0  0
  152.7004  141.2721  158.7516 C   0  0  0  0  0  0  0  0  0  0  0  0
  151.7947  141.5811  157.7371 C   0  0  0  0  0  0  0  0  0  0  0  0
  149.4152  137.0927  159.6068 C   0  0  0  0  0  0  0  0  0  0  0  0
  148.6039  136.3100  160.4514 C   0  0  0  0  0  0  0  0  0  0  0  0
  146.4000  133.8486  162.5700 H   0  0  0  0  0  0  0  0  0  0  0  0
  146.6682  135.5679  162.3062 H   0  0  0  0  0  0  0  0  0  0  0  0
  148.0427  134.4777  162.6100 H   0  0  0  0  0  0  0  0  0  0  0  0
  147.7380  133.8629  158.2378 H   0  0  0  0  0  0  0  0  0  0  0  0
  149.1595  135.2368  156.7556 H   0  0  0  0  0  0  0  0  0  0  0  0
  150.3774  139.2074  158.4171 H   0  0  0  0  0  0  0  0  0  0  0  0
  151.9061  138.3187  158.4580 H   0  0  0  0  0  0  0  0  0  0  0  0
  152.6232  139.2895  156.4771 H   0  0  0  0  0  0  0  0  0  0  0  0
  151.0831  139.0091  155.7009 H   0  0  0  0  0  0  0  0  0  0  0  0
  150.1981  140.6471  154.0803 H   0  0  0  0  0  0  0  0  0  0  0  0
  148.8304  140.3726  155.1486 H   0  0  0  0  0  0  0  0  0  0  0  0
  148.9208  142.9511  154.7083 H   0  0  0  0  0  0  0  0  0  0  0  0
  151.2476  144.9290  158.2970 H   0  0  0  0  0  0  0  0  0  0  0  0
  152.8754  144.4102  160.1227 H   0  0  0  0  0  0  0  0  0  0  0  0
  153.7778  142.1322  160.4090 H   0  0  0  0  0  0  0  0  0  0  0  0
  153.1002  140.2780  158.8864 H   0  0  0  0  0  0  0  0  0  0  0  0
  149.8657  137.9816  160.0211 H   0  0  0  0  0  0  0  0  0  0  0  0
  148.4712  136.6379  161.4712 H   0  0  0  0  0  0  0  0  0  0  0  0
  149.8685  143.6187  156.1220 H   0  0  0  0  0  0  0  0  0  0  0  0
  1  2  1  0  0  0  0
  1 23  1  0  0  0  0
  1 24  1  0  0  0  0
  1 25  1  0  0  0  0
  2  3  1  0  0  0  0
  3 22  1  0  0  0  0
  3  4  2  0  0  0  0
  4  5  1  0  0  0  0
  4 26  1  0  0  0  0
  5  6  2  0  0  0  0
  5 27  1  0  0  0  0
  6  7  1  0  0  0  0
  6 21  1  0  0  0  0
  7  8  1  0  0  0  0
  8  9  1  0  0  0  0
  8 28  1  0  0  0  0
  8 29  1  0  0  0  0
  9 10  1  0  0  0  0
  9 30  1  0  0  0  0
  9 31  1  0  0  0  0
 10 20  1  0  0  0  0
 10 11  1  0  0  0  0
 11 12  1  0  0  0  0
 11 14  2  0  0  0  0
 12 13  1  0  0  0  0
 12 32  1  0  0  0  0
 12 33  1  0  0  0  0
 13 34  1  0  0  0  0
 14 15  1  0  0  0  0
 14 41  1  0  0  0  0
 15 20  2  0  0  0  0
 15 16  1  0  0  0  0
 16 17  2  0  0  0  0
 16 35  1  0  0  0  0
 17 18  1  0  0  0  0
 17 36  1  0  0  0  0
 18 19  2  0  0  0  0
 18 37  1  0  0  0  0
 19 20  1  0  0  0  0
 19 38  1  0  0  0  0
 21 22  2  0  0  0  0
 21 39  1  0  0  0  0
 22 40  1  0  0  0  0
M  CHG  1  14   1
M  END
> <s_m_source_file>
AV-unprocessed.smi

> <i_m_source_file_index>
506

> <i_lp_mmshare_version>
43012

> <i_f3d_flags>
0

> <s_epik_input>
W0NIM11PYzFbY0hdW2NIXWMoW2NIXVtjSF0xKU9bQ0gyXVtDSDJdbihjKG4yKVtDSDJdW09IXSljKGMyMylbY0hdW2NIXVtjSF1bY0hdMw==

> <s_epik_cmdline>
J2VwaWtfcHl0aG9uJywgJy1waCcsICc3LjAnLCAnLXRuJywgJzgnLCAnLW1hJywgJzIwMCcsICctbWV0YWxfYmluZGluZycsICctaW1hZScsICc8aW5maWxlLm1hZT4nLCAnLW9tYWUnLCAnPG91dGZpbGUubWFlPic=

> <r_lp_tautomer_probability>
1

> <r_epik_Ionization_Penalty>
1.51027

> <r_epik_Ionization_Penalty_Charging>
1.50942

> <r_epik_Ionization_Penalty_Neutral>
0.000855784

> <r_epik_State_Penalty>
1.60032

> <r_epik_Charging_Adjusted_Penalty>
3.10973

> <i_epik_Tot_Q>
1

> <i_epik_Tot_abs_Q>
1

> <r_epik_Metal_State_Penalty>
5.65193

> <b_epik_Metal_Only>
0

> <s_lp_Force_Field>
OPLS_2005

> <r_lp_Energy>
22.2088

> <b_lp_Chiralities_Consistent>
1

> <s_lp_Variant>
AV-unprocessed.smi:506-2

> <Gold.Version>
5.8.1

> <Gold.Id.Protein>
6NUR|6NUR_protein|mol2

> <Gold.PLP.Fitness>
52.5149

> <Gold.PLP.PLP>
-43.5302

> <Gold.PLP.part.hbond>
-3.0000

> <Gold.PLP.part.metal>
0.0000

> <Gold.PLP.part.buried>
-4.2703

> <Gold.PLP.part.nonpolar>
-35.6917

> <Gold.PLP.part.repulsive>
0.0773

> <Gold.PLP.ligand.clash>
0.0000

> <Gold.PLP.ligand.torsion>
0.4924

> <Gold.PLP.Chemscore.Hbond>
3.3172

> <Gold.PLP.Chemscore.CHOScore>
0.0000

> <Gold.PLP.Chemscore.Metal>
0.0000

> <Gold.Chemscore.Hbonds>
donor molecule, donor type, donor heavy atom, donor atom, acceptor molecule, acceptor atom, score
      L1  H    13    34       P1  8028  1.00
      L1  H    14    41       P1  8028  2.00
      P1  H  8011  8017       L1    13  0.26

> <Gold.PLP.Chemscore.Internal.Correction>
0.0179

> <Gold.Rescore>
     Score         DG    S(hbond)    S(metal)    S(lipo)     H(rot)  DE(clash)    DE(int)     intcor
     18.86     -19.39       2.16        0.00     112.91       2.54       0.00       0.53       ----

> <Gold.Chemscore.Fitness>
18.8611

> <Gold.Chemscore.DG>
-19.3938

> <Gold.Chemscore.ZeroCoef>
-5.4800

> <Gold.Chemscore.Hbond>
2.1596

> <Gold.Chemscore.Metal>
0.0000

> <Gold.Chemscore.Lipo>
112.9144

> <Gold.Chemscore.Internal_Hbond>
0.0000

> <Gold.Chemscore.DEClash>
0.0033

> <Gold.Chemscore.DEInternal>
0.5293

> <Gold.Chemscore.Rot>
2.5431

> <Gold.Chemscore.Internal.Correction>
   9.000000E+99

> <Gold.Chemscore.Hbonds>
donor molecule, donor type, donor heavy atom, donor atom, acceptor molecule, acceptor atom, score
      L1  H    13    34       P1  8028  0.97
      L1  H    14    41       P1  8028  0.94
      P1  H  8011  8017       L1    13  0.09

> <Gold.Chemscore.Hbond.Weighted>
-7.2131

> <Gold.Chemscore.Metal.Weighted>
-0.0000

> <Gold.Chemscore.Lipo.Weighted>
-13.2110

> <Gold.Chemscore.Internal_Hbond.Weighted>
0.0000

> <Gold.Chemscore.DEClash.Weighted>
0.0033

> <Gold.Chemscore.DEInternal.Weighted>
0.5293

> <Gold.Chemscore.Rot.Weighted>
6.5103

> <Gold.Chemscore.Internal.Correction.Weighted>
   9.000000E+99

> <Gold.Protein.RotatedTorsions>
[ 6907 6896 6895 6894 ] final -168.09 input  -60.11 | X-H torsion
[ 7974 7965 7964 7962 ] final  -35.98 input  175.53 | X-H torsion
[ 8008 7997 7996 7995 ] final  -66.03 input   59.86 | X-H torsion
[ 10167 10162 10161 10158 ] final   87.82 input  -65.29 | X-H torsion
[ 10718 10713 10712 10709 ] final  126.50 input   66.30 | X-H torsion
[ 10763 10752 10751 10750 ] final   41.74 input  -60.55 | X-H torsion
[ 11005 11000 10999 10996 ] final  -58.72 input  -57.11 | X-H torsion

> <Gold.Protein.ActiveResidues>
 VAL166  LYS551  ARG553  GLY616  TRP617  ASP618  TYR619  PRO620  LYS621  CYS622 
 ASP623  PHE694  ASN695  SER759  ASP760  ASP761  ALA762  ILE779  LEU786  VAL792 
 PHE793  MET794  SER795  GLU796  ALA797  LYS798  CYS799  TRP800  GLU811  SER814 

> <Gold.Protein.RotatedAtoms>
  151.4699  133.3571  159.2821 H   0  0  0  0  0  0  0  0  0  0  0  0  # atno 6907 bound_to 6896
  150.8968  134.8378  159.7343 H   0  0  0  0  0  0  0  0  0  0  0  0  # atno 6908 bound_to 6896
  152.4856  134.4615  159.9658 H   0  0  0  0  0  0  0  0  0  0  0  0  # atno 6909 bound_to 6896
  146.0700  140.6224  142.8957 H   0  0  0  0  0  0  0  0  0  0  0  0  # atno 7974 bound_to 7965
  154.4708  140.0921  156.7140 H   0  0  0  0  0  0  0  0  0  0  0  0  # atno 8008 bound_to 7997
  155.4729  140.3465  155.4310 H   0  0  0  0  0  0  0  0  0  0  0  0  # atno 8009 bound_to 7997
  156.1036  140.1429  156.9423 H   0  0  0  0  0  0  0  0  0  0  0  0  # atno 8010 bound_to 7997
  139.8735  144.6479  150.8922 H   0  0  0  0  0  0  0  0  0  0  0  0  # atno 10167 bound_to 10162
  157.5414  131.1097  150.8853 H   0  0  0  0  0  0  0  0  0  0  0  0  # atno 10718 bound_to 10713
  152.9900  135.6152  154.2837 H   0  0  0  0  0  0  0  0  0  0  0  0  # atno 10763 bound_to 10752
  154.2565  135.2783  155.2797 H   0  0  0  0  0  0  0  0  0  0  0  0  # atno 10764 bound_to 10752
  154.5243  135.5806  153.6763 H   0  0  0  0  0  0  0  0  0  0  0  0  # atno 10765 bound_to 10752
  141.1219  133.6613  156.4962 H   0  0  0  0  0  0  0  0  0  0  0  0  # atno 11005 bound_to 11000
  144.7226  140.4422  143.6997 LP  0  0  0  0  0  0  0  0  0  0  0  0  # atno 17320 bound_to 7965
  145.6408  139.1549  143.2917 LP  0  0  0  0  0  0  0  0  0  0  0  0  # atno 17321 bound_to 7965
  140.7756  143.3644  151.1767 LP  0  0  0  0  0  0  0  0  0  0  0  0  # atno 17342 bound_to 10162
  139.7261  143.9146  152.3003 LP  0  0  0  0  0  0  0  0  0  0  0  0  # atno 17343 bound_to 10162
  156.9404  130.5382  149.5280 LP  0  0  0  0  0  0  0  0  0  0  0  0  # atno 17370 bound_to 10713
  156.0500  130.5570  150.8967 LP  0  0  0  0  0  0  0  0  0  0  0  0  # atno 17371 bound_to 10713
  140.4483  134.6952  157.5026 LP  0  0  0  0  0  0  0  0  0  0  0  0  # atno 17394 bound_to 11000
  140.0183  134.6586  155.9277 LP  0  0  0  0  0  0  0  0  0  0  0  0  # atno 17395 bound_to 11000

$$$$
