AV-unprocessed.smi:1056|AV-procd|sdf|4633|dock1
  -GOLD-   22720 3133D 1   1.00000     0.00000
 Structure written by MMmdl.
 45 47  0  0  0  0  0  0  0  0  2 V2000
  153.4146  142.5907  162.0509 C   0  0  0  0  0  0  0  0  0  0  0  0
  152.8556  142.2246  160.6873 C   0  0  0  0  0  0  0  0  0  0  0  0
  153.2383  141.0001  160.0945 C   0  0  0  0  0  0  0  0  0  0  0  0
  152.7425  140.6228  158.8275 C   0  0  0  0  0  0  0  0  0  0  0  0
  152.9793  139.4889  158.0692 N   0  0  0  0  0  0  0  0  0  0  0  0
  152.2321  139.7232  156.9943 C   0  0  0  0  0  0  0  0  0  0  0  0
  151.5423  140.8798  156.9645 N   0  0  0  0  0  0  0  0  0  0  0  0
  150.6654  141.3546  155.9107 C   0  0  0  0  0  0  0  0  0  0  0  0
  149.1895  141.4062  156.3561 C   0  0  1  0  0  0  0  0  0  0  0  0
  148.9411  142.6396  156.9998 O   0  0  0  0  0  0  0  0  0  0  0  0
  148.2038  141.2759  155.1779 C   0  0  0  0  0  0  0  0  0  0  0  0
  147.1614  142.3334  155.1797 N   0  3  1  0  0  0  0  0  0  0  0  0
  146.5883  142.6137  153.8412 C   0  0  0  0  0  0  0  0  0  0  0  0
  145.6877  143.8600  153.9018 C   0  0  0  0  0  0  0  0  0  0  0  0
  144.8189  143.8811  155.0764 N   0  0  0  0  0  0  0  0  0  0  0  0
  144.9571  143.1009  156.1608 C   0  0  0  0  0  0  0  0  0  0  0  0
  144.1931  143.1838  157.1187 O   0  0  0  0  0  0  0  0  0  0  0  0
  146.1034  142.0787  156.1907 C   0  0  0  0  0  0  0  0  0  0  0  0
  151.8462  141.5113  158.1652 C   0  0  0  0  0  0  0  0  0  0  0  0
  151.4566  142.7319  158.7446 C   0  0  0  0  0  0  0  0  0  0  0  0
  151.9631  143.0943  160.0101 C   0  0  0  0  0  0  0  0  0  0  0  0
  151.5410  144.4163  160.6262 C   0  0  0  0  0  0  0  0  0  0  0  0
  154.0221  141.7836  162.4618 H   0  0  0  0  0  0  0  0  0  0  0  0
  152.6081  142.7919  162.7562 H   0  0  0  0  0  0  0  0  0  0  0  0
  154.0419  143.4793  161.9781 H   0  0  0  0  0  0  0  0  0  0  0  0
  153.9191  140.3383  160.6099 H   0  0  0  0  0  0  0  0  0  0  0  0
  152.1863  139.0149  156.1798 H   0  0  0  0  0  0  0  0  0  0  0  0
  151.0039  142.3400  155.5868 H   0  0  0  0  0  0  0  0  0  0  0  0
  150.7848  140.6876  155.0563 H   0  0  0  0  0  0  0  0  0  0  0  0
  149.0002  140.6259  157.0924 H   0  0  0  0  0  0  0  0  0  0  0  0
  148.7205  143.2839  156.3438 H   0  0  0  0  0  0  0  0  0  0  0  0
  148.7354  141.2990  154.2249 H   0  0  0  0  0  0  0  0  0  0  0  0
  147.7249  140.2970  155.2362 H   0  0  0  0  0  0  0  0  0  0  0  0
  147.3687  142.7744  153.0986 H   0  0  0  0  0  0  0  0  0  0  0  0
  146.0112  141.7483  153.5110 H   0  0  0  0  0  0  0  0  0  0  0  0
  146.3077  144.7567  153.9358 H   0  0  0  0  0  0  0  0  0  0  0  0
  145.0797  143.9339  152.9999 H   0  0  0  0  0  0  0  0  0  0  0  0
  144.0568  144.5446  155.0686 H   0  0  0  0  0  0  0  0  0  0  0  0
  145.6770  141.0875  156.0285 H   0  0  0  0  0  0  0  0  0  0  0  0
  146.5476  142.0777  157.1871 H   0  0  0  0  0  0  0  0  0  0  0  0
  150.7756  143.3843  158.2191 H   0  0  0  0  0  0  0  0  0  0  0  0
  150.8894  144.9779  159.9560 H   0  0  0  0  0  0  0  0  0  0  0  0
  152.4132  145.0347  160.8394 H   0  0  0  0  0  0  0  0  0  0  0  0
  150.9994  144.2480  161.5571 H   0  0  0  0  0  0  0  0  0  0  0  0
  147.6206  143.1829  155.4754 H   0  0  0  0  0  0  0  0  0  0  0  0
  1  2  1  0  0  0  0
  1 23  1  0  0  0  0
  1 24  1  0  0  0  0
  1 25  1  0  0  0  0
  2 21  1  0  0  0  0
  2  3  2  0  0  0  0
  3  4  1  0  0  0  0
  3 26  1  0  0  0  0
  4 19  2  0  0  0  0
  4  5  1  0  0  0  0
  5  6  2  0  0  0  0
  6  7  1  0  0  0  0
  6 27  1  0  0  0  0
  7  8  1  0  0  0  0
  7 19  1  0  0  0  0
  8  9  1  0  0  0  0
  8 28  1  0  0  0  0
  8 29  1  0  0  0  0
  9 10  1  0  0  0  0
  9 11  1  0  0  0  0
  9 30  1  0  0  0  0
 10 31  1  0  0  0  0
 11 12  1  0  0  0  0
 11 32  1  0  0  0  0
 11 33  1  0  0  0  0
 12 18  1  0  0  0  0
 12 13  1  0  0  0  0
 12 45  1  0  0  0  0
 13 14  1  0  0  0  0
 13 34  1  0  0  0  0
 13 35  1  0  0  0  0
 14 15  1  0  0  0  0
 14 36  1  0  0  0  0
 14 37  1  0  0  0  0
 15 16  1  0  0  0  0
 15 38  1  0  0  0  0
 16 17  2  0  0  0  0
 16 18  1  0  0  0  0
 18 39  1  0  0  0  0
 18 40  1  0  0  0  0
 19 20  1  0  0  0  0
 20 21  2  0  0  0  0
 20 41  1  0  0  0  0
 21 22  1  0  0  0  0
 22 42  1  0  0  0  0
 22 43  1  0  0  0  0
 22 44  1  0  0  0  0
M  CHG  1  12   1
M  END
> <s_m_source_file>
AV-unprocessed.smi

> <i_m_source_file_index>
1056

> <i_lp_mmshare_version>
43012

> <i_f3d_flags>
0

> <s_epik_input>
W0NIM11jKFtjSF0xKWMoW0NIM10pW2NIXWMoYzEyKW4oW2NIXW4yKVtDSDJdW0NASF0oW09IXSlbQ0gyXU4zW0NIMl1bQ0gyXVtOSF1DKD1PKVtDSDJdMw==

> <s_epik_cmdline>
J2VwaWtfcHl0aG9uJywgJy1waCcsICc3LjAnLCAnLXRuJywgJzgnLCAnLW1hJywgJzIwMCcsICctbWV0YWxfYmluZGluZycsICctaW1hZScsICc8aW5maWxlLm1hZT4nLCAnLW9tYWUnLCAnPG91dGZpbGUubWFlPic=

> <r_epik_Ionization_Penalty>
0.153633

> <r_epik_Ionization_Penalty_Charging>
0.0674887

> <r_epik_Ionization_Penalty_Neutral>
0.0861443

> <r_epik_State_Penalty>
0.135155

> <r_epik_Charging_Adjusted_Penalty>
0.202644

> <i_epik_Tot_Q>
1

> <i_epik_Tot_abs_Q>
1

> <r_epik_Metal_State_Penalty>
0.190685

> <b_epik_Metal_Only>
0

> <s_lp_Force_Field>
OPLS_2005

> <r_lp_Energy>
24.5126

> <b_lp_Chiralities_Consistent>
1

> <s_lp_Variant>
AV-unprocessed.smi:1056-4

> <Gold.Version>
5.8.1

> <Gold.Id.Protein>
6NUR|6NUR_protein|mol2

> <Gold.PLP.Fitness>
54.1872

> <Gold.PLP.PLP>
-45.0562

> <Gold.PLP.part.hbond>
-2.8871

> <Gold.PLP.part.metal>
0.0000

> <Gold.PLP.part.buried>
-6.3241

> <Gold.PLP.part.nonpolar>
-34.3407

> <Gold.PLP.part.repulsive>
0.1129

> <Gold.PLP.ligand.clash>
0.0000

> <Gold.PLP.ligand.torsion>
1.2552

> <Gold.PLP.Chemscore.Hbond>
3.8296

> <Gold.PLP.Chemscore.CHOScore>
0.0000

> <Gold.PLP.Chemscore.Metal>
0.0000

> <Gold.Chemscore.Hbonds>
donor molecule, donor type, donor heavy atom, donor atom, acceptor molecule, acceptor atom, score
      L1  H    10    31       P1  8028  1.00
      L1  H    12    45       P1  8028  2.00
      P1  H  7997  8010       L1     5  0.66

> <Gold.PLP.Chemscore.Internal.Correction>
0.1526

> <Gold.Rescore>
     Score         DG    S(hbond)    S(metal)    S(lipo)     H(rot)  DE(clash)    DE(int)     intcor
     15.15     -17.63       1.52        0.00     112.53       2.38       0.02       2.47       ----

> <Gold.Chemscore.Fitness>
15.1452

> <Gold.Chemscore.DG>
-17.6343

> <Gold.Chemscore.ZeroCoef>
-5.4800

> <Gold.Chemscore.Hbond>
1.5199

> <Gold.Chemscore.Metal>
0.0000

> <Gold.Chemscore.Lipo>
112.5312

> <Gold.Chemscore.Internal_Hbond>
0.0000

> <Gold.Chemscore.DEClash>
0.0174

> <Gold.Chemscore.DEInternal>
2.4717

> <Gold.Chemscore.Rot>
2.3783

> <Gold.Chemscore.Internal.Correction>
   9.000000E+99

> <Gold.Chemscore.Hbonds>
donor molecule, donor type, donor heavy atom, donor atom, acceptor molecule, acceptor atom, score
      L1  H    10    31       P1  8028  0.90
      L1  H    12    45       P1  8028  0.29
      P1  H  7997  8010       L1     5  0.02

> <Gold.Chemscore.Hbond.Weighted>
-5.0765

> <Gold.Chemscore.Metal.Weighted>
-0.0000

> <Gold.Chemscore.Lipo.Weighted>
-13.1661

> <Gold.Chemscore.Internal_Hbond.Weighted>
0.0000

> <Gold.Chemscore.DEClash.Weighted>
0.0174

> <Gold.Chemscore.DEInternal.Weighted>
2.4717

> <Gold.Chemscore.Rot.Weighted>
6.0884

> <Gold.Chemscore.Internal.Correction.Weighted>
   9.000000E+99

> <Gold.Protein.RotatedTorsions>
[ 6907 6896 6895 6894 ] final   89.60 input  -60.11 | X-H torsion
[ 7974 7965 7964 7962 ] final -109.62 input  175.53 | X-H torsion
[ 8008 7997 7996 7995 ] final   19.26 input   59.86 | X-H torsion
[ 10167 10162 10161 10158 ] final  -53.73 input  -65.29 | X-H torsion
[ 10718 10713 10712 10709 ] final   13.01 input   66.30 | X-H torsion
[ 10763 10752 10751 10750 ] final   19.54 input  -60.55 | X-H torsion
[ 11005 11000 10999 10996 ] final -162.87 input  -57.11 | X-H torsion

> <Gold.Protein.ActiveResidues>
 VAL166  LYS551  ARG553  GLY616  TRP617  ASP618  TYR619  PRO620  LYS621  CYS622 
 ASP623  PHE694  ASN695  SER759  ASP760  ASP761  ALA762  ILE779  LEU786  VAL792 
 PHE793  MET794  SER795  GLU796  ALA797  LYS798  CYS799  TRP800  GLU811  SER814 

> <Gold.Protein.RotatedAtoms>
  152.5437  134.1942  159.8685 H   0  0  0  0  0  0  0  0  0  0  0  0  # atno 6907 bound_to 6896
  151.1935  133.4646  159.2602 H   0  0  0  0  0  0  0  0  0  0  0  0  # atno 6908 bound_to 6896
  151.1060  135.0011  159.8526 H   0  0  0  0  0  0  0  0  0  0  0  0  # atno 6909 bound_to 6896
  145.1783  140.8959  143.3495 H   0  0  0  0  0  0  0  0  0  0  0  0  # atno 7974 bound_to 7965
  154.9181  140.3023  155.5230 H   0  0  0  0  0  0  0  0  0  0  0  0  # atno 8008 bound_to 7997
  156.3011  140.2376  156.4164 H   0  0  0  0  0  0  0  0  0  0  0  0  # atno 8009 bound_to 7997
  154.8358  140.0416  157.1496 H   0  0  0  0  0  0  0  0  0  0  0  0  # atno 8010 bound_to 7997
  140.6469  143.2541  151.4834 H   0  0  0  0  0  0  0  0  0  0  0  0  # atno 10167 bound_to 10162
  157.0184  130.6145  149.5717 H   0  0  0  0  0  0  0  0  0  0  0  0  # atno 10718 bound_to 10713
  153.1153  135.6706  153.9428 H   0  0  0  0  0  0  0  0  0  0  0  0  # atno 10763 bound_to 10752
  153.8959  135.3041  155.3449 H   0  0  0  0  0  0  0  0  0  0  0  0  # atno 10764 bound_to 10752
  154.7570  135.5007  153.9471 H   0  0  0  0  0  0  0  0  0  0  0  0  # atno 10765 bound_to 10752
  140.6044  134.4914  157.5209 H   0  0  0  0  0  0  0  0  0  0  0  0  # atno 11005 bound_to 11000
  145.0162  139.3465  143.6095 LP  0  0  0  0  0  0  0  0  0  0  0  0  # atno 17320 bound_to 7965
  146.3457  139.9444  142.8737 LP  0  0  0  0  0  0  0  0  0  0  0  0  # atno 17321 bound_to 7965
  139.5680  144.1996  152.1794 LP  0  0  0  0  0  0  0  0  0  0  0  0  # atno 17342 bound_to 10162
  140.1283  144.5311  150.6818 LP  0  0  0  0  0  0  0  0  0  0  0  0  # atno 17343 bound_to 10162
  156.0111  130.5202  150.7990 LP  0  0  0  0  0  0  0  0  0  0  0  0  # atno 17370 bound_to 10713
  157.5268  131.0934  151.0007 LP  0  0  0  0  0  0  0  0  0  0  0  0  # atno 17371 bound_to 10713
  139.9218  134.8133  156.1187 LP  0  0  0  0  0  0  0  0  0  0  0  0  # atno 17394 bound_to 11000
  141.0850  133.6738  156.2417 LP  0  0  0  0  0  0  0  0  0  0  0  0  # atno 17395 bound_to 11000

$$$$
