AV-unprocessed.smi:1207|AV-procd|sdf|5058|dock2
  -GOLD-   22720 4 93D 1   1.00000     0.00000
 Structure written by MMmdl.
 53 55  0  0  0  0  0  0  0  0  3 V2000
  152.6894  143.1229  160.5355 C   0  0  0  0  0  0  0  0  0  0  0  0
  152.2082  142.3445  159.3228 C   0  0  0  0  0  0  0  0  0  0  0  0
  151.2198  142.9262  158.4971 C   0  0  0  0  0  0  0  0  0  0  0  0
  150.7978  142.1887  157.3973 C   0  0  0  0  0  0  0  0  0  0  0  0
  149.8544  142.4771  156.4088 N   0  3  0  0  0  0  0  0  0  0  0  0
  149.7826  141.4377  155.5315 C   0  0  0  0  0  0  0  0  0  0  0  0
  150.6654  140.4886  155.9472 N   0  0  0  0  0  0  0  0  0  0  0  0
  150.9844  139.1749  155.3717 C   0  0  0  0  0  0  0  0  0  0  0  0
  149.8931  138.6633  154.4110 C   0  0  1  0  0  0  0  0  0  0  0  0
  150.5053  138.0920  153.2708 O   0  0  0  0  0  0  0  0  0  0  0  0
  148.9839  137.6072  155.0705 C   0  0  0  0  0  0  0  0  0  0  0  0
  149.4482  136.2256  154.7857 N   0  3  1  0  0  0  0  0  0  0  0  0
  150.7796  135.9458  155.3714 C   0  0  0  0  0  0  0  0  0  0  0  0
  148.4437  135.1869  155.1306 C   0  0  0  0  0  0  0  0  0  0  0  0
  148.8720  133.8369  154.6207 C   0  0  0  0  0  0  0  0  0  0  0  0
  148.3497  133.1302  153.4998 C   0  0  0  0  0  0  0  0  0  0  0  0
  147.2610  133.5536  152.5554 C   0  0  0  0  0  0  0  0  0  0  0  0
  148.9531  131.9676  153.3240 N   0  0  0  0  0  0  0  0  0  0  0  0
  149.9018  131.8701  154.3462 O   0  0  0  0  0  0  0  0  0  0  0  0
  149.8346  132.9931  155.1049 C   0  0  0  0  0  0  0  0  0  0  0  0
  150.7804  133.0713  156.2554 C   0  0  0  0  0  0  0  0  0  0  0  0
  151.3244  140.9158  157.1049 C   0  0  0  0  0  0  0  0  0  0  0  0
  152.3016  140.3294  157.9056 C   0  0  0  0  0  0  0  0  0  0  0  0
  152.7423  141.0624  159.0306 C   0  0  0  0  0  0  0  0  0  0  0  0
  153.8044  140.4469  159.9257 C   0  0  0  0  0  0  0  0  0  0  0  0
  152.1880  144.0877  160.6156 H   0  0  0  0  0  0  0  0  0  0  0  0
  153.7616  143.3097  160.4709 H   0  0  0  0  0  0  0  0  0  0  0  0
  152.4885  142.5666  161.4513 H   0  0  0  0  0  0  0  0  0  0  0  0
  150.8098  143.9022  158.7128 H   0  0  0  0  0  0  0  0  0  0  0  0
  149.1387  141.3773  154.6658 H   0  0  0  0  0  0  0  0  0  0  0  0
  151.9387  139.2669  154.8510 H   0  0  0  0  0  0  0  0  0  0  0  0
  151.1442  138.4732  156.1915 H   0  0  0  0  0  0  0  0  0  0  0  0
  149.2984  139.5116  154.0748 H   0  0  0  0  0  0  0  0  0  0  0  0
  149.9152  137.4559  152.8954 H   0  0  0  0  0  0  0  0  0  0  0  0
  148.9651  137.7865  156.1469 H   0  0  0  0  0  0  0  0  0  0  0  0
  147.9530  137.7149  154.7287 H   0  0  0  0  0  0  0  0  0  0  0  0
  150.7441  135.9848  156.4608 H   0  0  0  0  0  0  0  0  0  0  0  0
  151.5140  136.6745  155.0270 H   0  0  0  0  0  0  0  0  0  0  0  0
  151.1393  134.9603  155.0753 H   0  0  0  0  0  0  0  0  0  0  0  0
  148.2805  135.1810  156.2090 H   0  0  0  0  0  0  0  0  0  0  0  0
  147.4763  135.4436  154.6999 H   0  0  0  0  0  0  0  0  0  0  0  0
  146.3851  133.9060  153.1003 H   0  0  0  0  0  0  0  0  0  0  0  0
  146.9398  132.7321  151.9143 H   0  0  0  0  0  0  0  0  0  0  0  0
  147.5996  134.3646  151.9105 H   0  0  0  0  0  0  0  0  0  0  0  0
  150.8231  134.0805  156.6643 H   0  0  0  0  0  0  0  0  0  0  0  0
  151.7877  132.7916  155.9464 H   0  0  0  0  0  0  0  0  0  0  0  0
  150.4722  132.3959  157.0536 H   0  0  0  0  0  0  0  0  0  0  0  0
  152.7093  139.3548  157.6826 H   0  0  0  0  0  0  0  0  0  0  0  0
  154.1032  139.4600  159.5710 H   0  0  0  0  0  0  0  0  0  0  0  0
  153.4302  140.3352  160.9437 H   0  0  0  0  0  0  0  0  0  0  0  0
  154.6952  141.0751  159.9511 H   0  0  0  0  0  0  0  0  0  0  0  0
  149.5711  136.1870  153.7835 H   0  0  0  0  0  0  0  0  0  0  0  0
  149.2995  143.3207  156.3354 H   0  0  0  0  0  0  0  0  0  0  0  0
  1  2  1  0  0  0  0
  1 26  1  0  0  0  0
  1 27  1  0  0  0  0
  1 28  1  0  0  0  0
  2 24  1  0  0  0  0
  2  3  2  0  0  0  0
  3  4  1  0  0  0  0
  3 29  1  0  0  0  0
  4 22  2  0  0  0  0
  4  5  1  0  0  0  0
  5  6  2  0  0  0  0
  5 53  1  0  0  0  0
  6  7  1  0  0  0  0
  6 30  1  0  0  0  0
  7  8  1  0  0  0  0
  7 22  1  0  0  0  0
  8  9  1  0  0  0  0
  8 31  1  0  0  0  0
  8 32  1  0  0  0  0
  9 10  1  0  0  0  0
  9 11  1  0  0  0  0
  9 33  1  0  0  0  0
 10 34  1  0  0  0  0
 11 12  1  0  0  0  0
 11 35  1  0  0  0  0
 11 36  1  0  0  0  0
 12 13  1  0  0  0  0
 12 14  1  0  0  0  0
 12 52  1  0  0  0  0
 13 37  1  0  0  0  0
 13 38  1  0  0  0  0
 13 39  1  0  0  0  0
 14 15  1  0  0  0  0
 14 40  1  0  0  0  0
 14 41  1  0  0  0  0
 15 20  2  0  0  0  0
 15 16  1  0  0  0  0
 16 17  1  0  0  0  0
 16 18  2  0  0  0  0
 17 42  1  0  0  0  0
 17 43  1  0  0  0  0
 17 44  1  0  0  0  0
 18 19  1  0  0  0  0
 19 20  1  0  0  0  0
 20 21  1  0  0  0  0
 21 45  1  0  0  0  0
 21 46  1  0  0  0  0
 21 47  1  0  0  0  0
 22 23  1  0  0  0  0
 23 24  2  0  0  0  0
 23 48  1  0  0  0  0
 24 25  1  0  0  0  0
 25 49  1  0  0  0  0
 25 50  1  0  0  0  0
 25 51  1  0  0  0  0
M  CHG  1   5   1
M  CHG  1  12   1
M  END
> <s_m_source_file>
AV-unprocessed.smi

> <i_m_source_file_index>
1207

> <i_lp_mmshare_version>
43012

> <i_f3d_flags>
0

> <s_epik_input>
W0NIM11jKFtjSF0xKWMoW0NIM10pW2NIXWMoYzEyKW4oW2NIXW4yKVtDSDJdW0NASF0oW09IXSlbQ0gyXU4oW0NIM10pW0NIMl1jM2MoW0NIM10pbm9jM1tDSDNd

> <s_epik_cmdline>
J2VwaWtfcHl0aG9uJywgJy1waCcsICc3LjAnLCAnLXRuJywgJzgnLCAnLW1hJywgJzIwMCcsICctbWV0YWxfYmluZGluZycsICctaW1hZScsICc8aW5maWxlLm1hZT4nLCAnLW9tYWUnLCAnPG91dGZpbGUubWFlPic=

> <r_epik_Ionization_Penalty>
1.77463

> <r_epik_Ionization_Penalty_Charging>
1.77463

> <r_epik_Ionization_Penalty_Neutral>
3.70885e-06

> <r_epik_State_Penalty>
1.85225

> <r_epik_Charging_Adjusted_Penalty>
3.62688

> <i_epik_Tot_Q>
2

> <i_epik_Tot_abs_Q>
2

> <r_epik_Metal_State_Penalty>
1.92674

> <b_epik_Metal_Only>
0

> <s_lp_Force_Field>
OPLS_2005

> <r_lp_Energy>
18.8212

> <b_lp_Chiralities_Consistent>
1

> <s_lp_Variant>
AV-unprocessed.smi:1207-10

> <Gold.Version>
5.8.1

> <Gold.Id.Protein>
6NUR|6NUR_protein|mol2

> <Gold.PLP.Fitness>
58.3322

> <Gold.PLP.PLP>
-46.2570

> <Gold.PLP.part.hbond>
-4.8853

> <Gold.PLP.part.metal>
0.0000

> <Gold.PLP.part.buried>
-3.1845

> <Gold.PLP.part.nonpolar>
-39.3158

> <Gold.PLP.part.repulsive>
0.2661

> <Gold.PLP.ligand.clash>
0.0000

> <Gold.PLP.ligand.torsion>
1.5535

> <Gold.PLP.Chemscore.Hbond>
4.9825

> <Gold.PLP.Chemscore.CHOScore>
0.0000

> <Gold.PLP.Chemscore.Metal>
0.0000

> <Gold.Chemscore.Hbonds>
donor molecule, donor type, donor heavy atom, donor atom, acceptor molecule, acceptor atom, score
      L1  H     5    53       P1  8028  2.00
      L1  H    10    34       P1  7948  0.95
      L1  H    12    52       P1  7948  2.00

> <Gold.PLP.Chemscore.Internal.Correction>
0.2348

> <Gold.Rescore>
     Score         DG    S(hbond)    S(metal)    S(lipo)     H(rot)  DE(clash)    DE(int)     intcor
     19.11     -20.89       2.61        0.00     112.72       2.54       0.25       1.53       ----

> <Gold.Chemscore.Fitness>
19.1101

> <Gold.Chemscore.DG>
-20.8913

> <Gold.Chemscore.ZeroCoef>
-5.4800

> <Gold.Chemscore.Hbond>
2.6086

> <Gold.Chemscore.Metal>
0.0000

> <Gold.Chemscore.Lipo>
112.7218

> <Gold.Chemscore.Internal_Hbond>
0.0000

> <Gold.Chemscore.DEClash>
0.2517

> <Gold.Chemscore.DEInternal>
1.5295

> <Gold.Chemscore.Rot>
2.5351

> <Gold.Chemscore.Internal.Correction>
   9.000000E+99

> <Gold.Chemscore.Hbonds>
donor molecule, donor type, donor heavy atom, donor atom, acceptor molecule, acceptor atom, score
      L1  H     5    53       P1  8028  0.97
      L1  H    10    34       P1  7948  0.22
      L1  H    12    52       P1  7948  0.53

> <Gold.Chemscore.Hbond.Weighted>
-8.7128

> <Gold.Chemscore.Metal.Weighted>
-0.0000

> <Gold.Chemscore.Lipo.Weighted>
-13.1884

> <Gold.Chemscore.Internal_Hbond.Weighted>
0.0000

> <Gold.Chemscore.DEClash.Weighted>
0.2517

> <Gold.Chemscore.DEInternal.Weighted>
1.5295

> <Gold.Chemscore.Rot.Weighted>
6.4900

> <Gold.Chemscore.Internal.Correction.Weighted>
   9.000000E+99

> <Gold.Protein.RotatedTorsions>
[ 6907 6896 6895 6894 ] final  -32.20 input  -60.11 | X-H torsion
[ 7974 7965 7964 7962 ] final   32.90 input  175.53 | X-H torsion
[ 8008 7997 7996 7995 ] final -126.66 input   59.86 | X-H torsion
[ 10167 10162 10161 10158 ] final  -66.46 input  -65.29 | X-H torsion
[ 10718 10713 10712 10709 ] final  105.10 input   66.30 | X-H torsion
[ 10763 10752 10751 10750 ] final   18.61 input  -60.55 | X-H torsion
[ 11005 11000 10999 10996 ] final   79.10 input  -57.11 | X-H torsion

> <Gold.Protein.ActiveResidues>
 VAL166  LYS551  ARG553  GLY616  TRP617  ASP618  TYR619  PRO620  LYS621  CYS622 
 ASP623  PHE694  ASN695  SER759  ASP760  ASP761  ALA762  ILE779  LEU786  VAL792 
 PHE793  MET794  SER795  GLU796  ALA797  LYS798  CYS799  TRP800  GLU811  SER814 

> <Gold.Protein.RotatedAtoms>
  151.0819  134.9863  159.8360 H   0  0  0  0  0  0  0  0  0  0  0  0  # atno 6907 bound_to 6896
  152.5420  134.2171  159.8783 H   0  0  0  0  0  0  0  0  0  0  0  0  # atno 6908 bound_to 6896
  151.2202  133.4463  159.2634 H   0  0  0  0  0  0  0  0  0  0  0  0  # atno 6909 bound_to 6896
  146.1456  139.6466  142.9133 H   0  0  0  0  0  0  0  0  0  0  0  0  # atno 7974 bound_to 7965
  155.2334  140.0426  157.2965 H   0  0  0  0  0  0  0  0  0  0  0  0  # atno 8008 bound_to 7997
  154.5874  140.2417  155.7939 H   0  0  0  0  0  0  0  0  0  0  0  0  # atno 8009 bound_to 7997
  156.2235  140.2962  156.0019 H   0  0  0  0  0  0  0  0  0  0  0  0  # atno 8010 bound_to 7997
  140.5655  143.2314  151.6642 H   0  0  0  0  0  0  0  0  0  0  0  0  # atno 10167 bound_to 10162
  157.6717  131.0820  150.5806 H   0  0  0  0  0  0  0  0  0  0  0  0  # atno 10718 bound_to 10713
  153.1234  135.6724  153.9297 H   0  0  0  0  0  0  0  0  0  0  0  0  # atno 10763 bound_to 10752
  153.8805  135.3059  155.3446 H   0  0  0  0  0  0  0  0  0  0  0  0  # atno 10764 bound_to 10752
  154.7643  135.4972  153.9603 H   0  0  0  0  0  0  0  0  0  0  0  0  # atno 10765 bound_to 10752
  139.9186  134.7816  156.1735 H   0  0  0  0  0  0  0  0  0  0  0  0  # atno 11005 bound_to 11000
  145.4945  141.0438  143.2575 LP  0  0  0  0  0  0  0  0  0  0  0  0  # atno 17320 bound_to 7965
  144.7842  139.6461  143.7141 LP  0  0  0  0  0  0  0  0  0  0  0  0  # atno 17321 bound_to 7965
  139.5091  144.3588  152.0582 LP  0  0  0  0  0  0  0  0  0  0  0  0  # atno 17342 bound_to 10162
  140.2720  144.3954  150.6148 LP  0  0  0  0  0  0  0  0  0  0  0  0  # atno 17343 bound_to 10162
  156.6107  130.4379  149.5860 LP  0  0  0  0  0  0  0  0  0  0  0  0  # atno 17370 bound_to 10713
  156.2433  130.6864  151.1576 LP  0  0  0  0  0  0  0  0  0  0  0  0  # atno 17371 bound_to 10713
  141.0686  133.6807  156.2094 LP  0  0  0  0  0  0  0  0  0  0  0  0  # atno 17394 bound_to 11000
  140.6544  134.5033  157.5579 LP  0  0  0  0  0  0  0  0  0  0  0  0  # atno 17395 bound_to 11000

$$$$
