AV-unprocessed.smi:713|AV-procd|sdf|3478|dock5
  -GOLD-   22720 0473D 1   1.00000     0.00000
 Structure written by MMmdl.
 41 42  0  0  0  0  0  0  0  0  1 V2000
  153.8527  141.4428  161.3395 C   0  0  0  0  0  0  0  0  0  0  0  0
  152.7143  141.4334  160.2991 C   0  0  2  0  0  0  0  0  0  0  0  0
  152.9776  140.4403  159.1569 C   0  0  0  0  0  0  0  0  0  0  0  0
  154.0767  139.8968  159.0400 O   0  0  0  0  0  0  0  0  0  0  0  0
  151.9547  140.2141  158.3171 N   0  0  0  0  0  0  0  0  0  0  0  0
  151.9902  139.3204  157.1635 C   0  0  2  0  0  0  0  0  0  0  0  0
  151.5993  140.1021  155.8959 C   0  0  0  0  0  0  0  0  0  0  0  0
  151.5665  139.1884  154.6611 C   0  0  0  0  0  0  0  0  0  0  0  0
  150.6290  137.9909  154.8788 C   0  0  0  0  0  0  0  0  0  0  0  0
  151.0186  137.1956  156.1377 C   0  0  2  0  0  0  0  0  0  0  0  0
  149.8429  135.7873  156.3799 S   0  0  0  0  0  0  0  0  0  0  0  0
  150.0950  134.7813  154.8585 C   0  0  0  0  0  0  0  0  0  0  0  0
  150.2961  134.9898  157.5300 O   0  0  0  0  0  0  0  0  0  0  0  0
  148.4725  136.3211  156.3619 O   0  0  0  0  0  0  0  0  0  0  0  0
  151.0498  138.1151  157.3745 C   0  0  0  0  0  0  0  0  0  0  0  0
  152.4406  142.7603  159.7585 N   0  0  0  0  0  0  0  0  0  0  0  0
  153.2431  143.5191  158.9305 C   0  0  0  0  0  0  0  0  0  0  0  0
  152.6058  144.7073  158.7150 C   0  0  0  0  0  0  0  0  0  0  0  0
  151.4088  144.5907  159.4741 C   0  0  0  0  0  0  0  0  0  0  0  0
  151.3168  143.4315  160.1041 N   0  0  0  0  0  0  0  0  0  0  0  0
  153.9950  140.4524  161.7732 H   0  0  0  0  0  0  0  0  0  0  0  0
  153.6247  142.1271  162.1572 H   0  0  0  0  0  0  0  0  0  0  0  0
  154.8052  141.7520  160.9070 H   0  0  0  0  0  0  0  0  0  0  0  0
  151.8108  141.1095  160.8188 H   0  0  0  0  0  0  0  0  0  0  0  0
  151.0873  140.7021  158.4869 H   0  0  0  0  0  0  0  0  0  0  0  0
  153.0109  138.9543  157.0360 H   0  0  0  0  0  0  0  0  0  0  0  0
  150.6181  140.5599  156.0307 H   0  0  0  0  0  0  0  0  0  0  0  0
  152.3016  140.9199  155.7285 H   0  0  0  0  0  0  0  0  0  0  0  0
  151.2461  139.7562  153.7870 H   0  0  0  0  0  0  0  0  0  0  0  0
  152.5734  138.8298  154.4443 H   0  0  0  0  0  0  0  0  0  0  0  0
  149.6010  138.3443  154.9707 H   0  0  0  0  0  0  0  0  0  0  0  0
  150.6551  137.3422  154.0028 H   0  0  0  0  0  0  0  0  0  0  0  0
  152.0075  136.7608  155.9876 H   0  0  0  0  0  0  0  0  0  0  0  0
  149.3774  133.9613  154.8482 H   0  0  0  0  0  0  0  0  0  0  0  0
  151.1032  134.3690  154.8451 H   0  0  0  0  0  0  0  0  0  0  0  0
  149.9419  135.4043  153.9775 H   0  0  0  0  0  0  0  0  0  0  0  0
  151.3709  137.5497  158.2484 H   0  0  0  0  0  0  0  0  0  0  0  0
  150.0425  138.4732  157.5912 H   0  0  0  0  0  0  0  0  0  0  0  0
  154.1922  143.1541  158.5665 H   0  0  0  0  0  0  0  0  0  0  0  0
  152.9454  145.5358  158.1116 H   0  0  0  0  0  0  0  0  0  0  0  0
  150.6118  145.3105  159.5897 H   0  0  0  0  0  0  0  0  0  0  0  0
  1  2  1  0  0  0  0
  1 21  1  0  0  0  0
  1 22  1  0  0  0  0
  1 23  1  0  0  0  0
  2  3  1  0  0  0  0
  2 16  1  0  0  0  0
  2 24  1  0  0  0  0
  3  4  2  0  0  0  0
  3  5  1  0  0  0  0
  5  6  1  0  0  0  0
  5 25  1  0  0  0  0
  6 15  1  0  0  0  0
  6  7  1  0  0  0  0
  6 26  1  0  0  0  0
  7  8  1  0  0  0  0
  7 27  1  0  0  0  0
  7 28  1  0  0  0  0
  8  9  1  0  0  0  0
  8 29  1  0  0  0  0
  8 30  1  0  0  0  0
  9 10  1  0  0  0  0
  9 31  1  0  0  0  0
  9 32  1  0  0  0  0
 10 11  1  0  0  0  0
 10 15  1  0  0  0  0
 10 33  1  0  0  0  0
 11 12  1  0  0  0  0
 11 13  2  0  0  0  0
 11 14  2  0  0  0  0
 12 34  1  0  0  0  0
 12 35  1  0  0  0  0
 12 36  1  0  0  0  0
 15 37  1  0  0  0  0
 15 38  1  0  0  0  0
 16 20  1  0  0  0  0
 16 17  1  0  0  0  0
 17 18  2  0  0  0  0
 17 39  1  0  0  0  0
 18 19  1  0  0  0  0
 18 40  1  0  0  0  0
 19 20  2  0  0  0  0
 19 41  1  0  0  0  0
M  END
> <s_m_source_file>
AV-unprocessed.smi

> <i_m_source_file_index>
713

> <i_lp_mmshare_version>
43012

> <i_f3d_flags>
0

> <s_epik_input>
bjFbY0hdW2NIXVtjSF1uMVtDQEhdKFtDSDNdKUMoPU8pW05IXVtDQEBIXTJbQ0gyXVtDSDJdW0NIMl1bQ0BIXShbQ0gyXTIpUyg9TykoPU8pW0NIM10=

> <s_epik_cmdline>
J2VwaWtfcHl0aG9uJywgJy1waCcsICc3LjAnLCAnLXRuJywgJzgnLCAnLW1hJywgJzIwMCcsICctbWV0YWxfYmluZGluZycsICctaW1hZScsICc8aW5maWxlLm1hZT4nLCAnLW9tYWUnLCAnPG91dGZpbGUubWFlPic=

> <r_lp_tautomer_probability>
1

> <r_epik_Ionization_Penalty>
4.07816e-05

> <r_epik_Ionization_Penalty_Charging>
0

> <r_epik_Ionization_Penalty_Neutral>
4.07816e-05

> <r_epik_State_Penalty>
-0

> <r_epik_Charging_Adjusted_Penalty>
0

> <i_epik_Tot_Q>
0

> <i_epik_Tot_abs_Q>
0

> <r_epik_Metal_State_Penalty>
-0

> <b_epik_Metal_Only>
0

> <s_lp_Force_Field>
OPLS_2005

> <r_lp_Energy>
7.47495

> <b_lp_Chiralities_Consistent>
1

> <s_lp_Variant>
AV-unprocessed.smi:713-5

> <Gold.Version>
5.8.1

> <Gold.Id.Protein>
6NUR|6NUR_protein|mol2

> <Gold.PLP.Fitness>
45.2800

> <Gold.PLP.PLP>
-40.9747

> <Gold.PLP.part.hbond>
-2.3418

> <Gold.PLP.part.metal>
0.0000

> <Gold.PLP.part.buried>
-4.3784

> <Gold.PLP.part.nonpolar>
-34.8599

> <Gold.PLP.part.repulsive>
0.1729

> <Gold.PLP.ligand.clash>
0.0000

> <Gold.PLP.ligand.torsion>
0.3534

> <Gold.PLP.Chemscore.Hbond>
1.5920

> <Gold.PLP.Chemscore.CHOScore>
0.0000

> <Gold.PLP.Chemscore.Metal>
0.0000

> <Gold.Chemscore.Hbonds>
donor molecule, donor type, donor heavy atom, donor atom, acceptor molecule, acceptor atom, score
      P1  H  6896  6908       L1    13  0.60
      P1  H  7997  8009       L1     4  1.00

> <Gold.PLP.Chemscore.Internal.Correction>
0.2361

> <Gold.Rescore>
     Score         DG    S(hbond)    S(metal)    S(lipo)     H(rot)  DE(clash)    DE(int)     intcor
     17.70     -18.13       1.71        0.00      97.07       1.72       0.01       0.41       ----

> <Gold.Chemscore.Fitness>
17.7017

> <Gold.Chemscore.DG>
-18.1276

> <Gold.Chemscore.ZeroCoef>
-5.4800

> <Gold.Chemscore.Hbond>
1.7084

> <Gold.Chemscore.Metal>
0.0000

> <Gold.Chemscore.Lipo>
97.0709

> <Gold.Chemscore.Internal_Hbond>
0.0000

> <Gold.Chemscore.DEClash>
0.0130

> <Gold.Chemscore.DEInternal>
0.4129

> <Gold.Chemscore.Rot>
1.7249

> <Gold.Chemscore.Internal.Correction>
   9.000000E+99

> <Gold.Chemscore.Hbonds>
donor molecule, donor type, donor heavy atom, donor atom, acceptor molecule, acceptor atom, score
      P1  H  6896  6908       L1    13  0.57
      P1  H  7997  8009       L1     4  0.91

> <Gold.Chemscore.Hbond.Weighted>
-5.7060

> <Gold.Chemscore.Metal.Weighted>
-0.0000

> <Gold.Chemscore.Lipo.Weighted>
-11.3573

> <Gold.Chemscore.Internal_Hbond.Weighted>
0.0000

> <Gold.Chemscore.DEClash.Weighted>
0.0130

> <Gold.Chemscore.DEInternal.Weighted>
0.4129

> <Gold.Chemscore.Rot.Weighted>
4.4157

> <Gold.Chemscore.Internal.Correction.Weighted>
   9.000000E+99

> <Gold.Protein.RotatedTorsions>
[ 6907 6896 6895 6894 ] final  138.11 input  -60.11 | X-H torsion
[ 7974 7965 7964 7962 ] final -120.13 input  175.53 | X-H torsion
[ 8008 7997 7996 7995 ] final  128.75 input   59.86 | X-H torsion
[ 10167 10162 10161 10158 ] final   11.88 input  -65.29 | X-H torsion
[ 10718 10713 10712 10709 ] final  -81.48 input   66.30 | X-H torsion
[ 10763 10752 10751 10750 ] final  166.93 input  -60.55 | X-H torsion
[ 11005 11000 10999 10996 ] final   20.46 input  -57.11 | X-H torsion

> <Gold.Protein.ActiveResidues>
 VAL166  LYS551  ARG553  GLY616  TRP617  ASP618  TYR619  PRO620  LYS621  CYS622 
 ASP623  PHE694  ASN695  SER759  ASP760  ASP761  ALA762  ILE779  LEU786  VAL792 
 PHE793  MET794  SER795  GLU796  ALA797  LYS798  CYS799  TRP800  GLU811  SER814 

> <Gold.Protein.RotatedAtoms>
  152.2704  133.5377  159.5435 H   0  0  0  0  0  0  0  0  0  0  0  0  # atno 6907 bound_to 6896
  150.7157  134.0705  159.3872 H   0  0  0  0  0  0  0  0  0  0  0  0  # atno 6908 bound_to 6896
  151.8620  135.0521  160.0521 H   0  0  0  0  0  0  0  0  0  0  0  0  # atno 6909 bound_to 6896
  145.0548  140.8246  143.4188 H   0  0  0  0  0  0  0  0  0  0  0  0  # atno 7974 bound_to 7965
  156.2922  140.2637  156.2487 H   0  0  0  0  0  0  0  0  0  0  0  0  # atno 8008 bound_to 7997
  154.9904  140.0389  157.2335 H   0  0  0  0  0  0  0  0  0  0  0  0  # atno 8009 bound_to 7997
  154.7691  140.2775  155.6157 H   0  0  0  0  0  0  0  0  0  0  0  0  # atno 8010 bound_to 7997
  140.6104  143.8420  150.7059 H   0  0  0  0  0  0  0  0  0  0  0  0  # atno 10167 bound_to 10162
  156.0050  130.4605  150.3959 H   0  0  0  0  0  0  0  0  0  0  0  0  # atno 10718 bound_to 10713
  154.3463  135.2753  155.2396 H   0  0  0  0  0  0  0  0  0  0  0  0  # atno 10763 bound_to 10752
  154.4645  135.5899  153.6282 H   0  0  0  0  0  0  0  0  0  0  0  0  # atno 10764 bound_to 10752
  152.9853  135.6073  154.3669 H   0  0  0  0  0  0  0  0  0  0  0  0  # atno 10765 bound_to 10752
  140.4023  134.1705  155.7664 H   0  0  0  0  0  0  0  0  0  0  0  0  # atno 11005 bound_to 11000
  145.1482  139.2530  143.5455 LP  0  0  0  0  0  0  0  0  0  0  0  0  # atno 17320 bound_to 7965
  146.3520  140.1178  142.8601 LP  0  0  0  0  0  0  0  0  0  0  0  0  # atno 17321 bound_to 7965
  140.1987  143.3977  152.1808 LP  0  0  0  0  0  0  0  0  0  0  0  0  # atno 17342 bound_to 10162
  139.5357  144.7206  151.4903 LP  0  0  0  0  0  0  0  0  0  0  0  0  # atno 17343 bound_to 10162
  157.2030  131.0442  151.2640 LP  0  0  0  0  0  0  0  0  0  0  0  0  # atno 17370 bound_to 10713
  157.3958  130.7306  149.6730 LP  0  0  0  0  0  0  0  0  0  0  0  0  # atno 17371 bound_to 10713
  141.1852  133.8328  157.1113 LP  0  0  0  0  0  0  0  0  0  0  0  0  # atno 17394 bound_to 11000
  140.0327  134.9893  157.0811 LP  0  0  0  0  0  0  0  0  0  0  0  0  # atno 17395 bound_to 11000

$$$$
