AV-unprocessed.smi:1740|AV-procd|sdf|7009|dock3
  -GOLD-   22720 8223D 1   1.00000     0.00000
 Structure written by MMmdl.
 52 54  0  0  0  0  0  0  0  0  2 V2000
  150.6055  142.6771  154.8505 N   0  0  0  0  0  0  0  0  0  0  0  0
  151.2773  142.1653  155.8850 C   0  0  0  0  0  0  0  0  0  0  0  0
  151.2424  142.6669  157.0064 O   0  0  0  0  0  0  0  0  0  0  0  0
  152.1165  140.9104  155.6185 C   0  0  0  0  0  0  0  0  0  0  0  0
  151.3590  139.7671  155.0583 N   0  0  0  0  0  0  0  0  0  0  0  0
  150.4335  139.1752  156.0360 C   0  0  0  0  0  0  0  0  0  0  0  0
  149.6213  138.0361  155.3942 C   0  0  0  0  0  0  0  0  0  0  0  0
  150.5424  136.9488  154.8177 C   0  0  0  0  0  0  0  0  0  0  0  0
  149.7709  135.9418  154.0954 N   0  0  0  0  0  0  0  0  0  0  0  0
  149.7291  134.6375  154.4012 C   0  0  0  0  0  0  0  0  0  0  0  0
  150.3475  134.1348  155.3395 O   0  0  0  0  0  0  0  0  0  0  0  0
  148.9135  133.9667  153.5708 N   0  0  0  0  0  0  0  0  0  0  0  0
  148.5923  132.5810  153.6065 C   0  0  0  0  0  0  0  0  0  0  0  0
  149.4846  131.6420  154.1843 C   0  0  0  0  0  0  0  0  0  0  0  0
  149.1826  130.2679  154.1422 C   0  0  0  0  0  0  0  0  0  0  0  0
  147.9997  129.8509  153.5086 C   0  0  0  0  0  0  0  0  0  0  0  0
  147.1769  130.7677  152.9585 N   0  3  0  0  0  0  0  0  0  0  0  0
  147.4043  132.1050  152.9795 C   0  0  0  0  0  0  0  0  0  0  0  0
  146.4440  132.9491  152.3764 N   0  0  0  0  0  0  0  0  0  0  0  0
  146.8367  133.8797  151.3242 C   0  0  0  0  0  0  0  0  0  0  0  0
  145.5272  134.3213  150.6765 C   0  0  0  0  0  0  0  0  0  0  0  0
  144.6780  133.0566  150.7602 C   0  0  0  0  0  0  0  0  0  0  0  0
  145.1221  132.4077  152.0752 C   0  0  0  0  0  0  0  0  0  0  0  0
  151.5581  137.6067  153.8740 C   0  0  0  0  0  0  0  0  0  0  0  0
  152.3041  138.7536  154.5777 C   0  0  0  0  0  0  0  0  0  0  0  0
  150.0345  143.4997  154.9797 H   0  0  0  0  0  0  0  0  0  0  0  0
  150.6671  142.2350  153.9448 H   0  0  0  0  0  0  0  0  0  0  0  0
  152.9112  141.1946  154.9270 H   0  0  0  0  0  0  0  0  0  0  0  0
  152.6080  140.6082  156.5453 H   0  0  0  0  0  0  0  0  0  0  0  0
  150.9868  138.8041  156.9007 H   0  0  0  0  0  0  0  0  0  0  0  0
  149.7311  139.9204  156.4093 H   0  0  0  0  0  0  0  0  0  0  0  0
  148.9489  137.6042  156.1364 H   0  0  0  0  0  0  0  0  0  0  0  0
  148.9879  138.4448  154.6052 H   0  0  0  0  0  0  0  0  0  0  0  0
  151.0900  136.4724  155.6334 H   0  0  0  0  0  0  0  0  0  0  0  0
  149.2287  136.2661  153.3081 H   0  0  0  0  0  0  0  0  0  0  0  0
  148.3886  134.5225  152.9116 H   0  0  0  0  0  0  0  0  0  0  0  0
  150.4111  131.9559  154.6410 H   0  0  0  0  0  0  0  0  0  0  0  0
  149.8561  129.5446  154.5787 H   0  0  0  0  0  0  0  0  0  0  0  0
  147.6897  128.8196  153.4216 H   0  0  0  0  0  0  0  0  0  0  0  0
  147.3941  134.7256  151.7276 H   0  0  0  0  0  0  0  0  0  0  0  0
  147.4593  133.3782  150.5821 H   0  0  0  0  0  0  0  0  0  0  0  0
  145.0683  135.1177  151.2640 H   0  0  0  0  0  0  0  0  0  0  0  0
  145.6578  134.6828  149.6560 H   0  0  0  0  0  0  0  0  0  0  0  0
  143.6069  133.2583  150.7275 H   0  0  0  0  0  0  0  0  0  0  0  0
  144.9213  132.3984  149.9249 H   0  0  0  0  0  0  0  0  0  0  0  0
  145.1303  131.3194  151.9962 H   0  0  0  0  0  0  0  0  0  0  0  0
  144.4378  132.6852  152.8776 H   0  0  0  0  0  0  0  0  0  0  0  0
  152.2744  136.8644  153.5201 H   0  0  0  0  0  0  0  0  0  0  0  0
  151.0513  137.9946  152.9887 H   0  0  0  0  0  0  0  0  0  0  0  0
  153.0011  139.2040  153.8697 H   0  0  0  0  0  0  0  0  0  0  0  0
  152.9002  138.3655  155.4058 H   0  0  0  0  0  0  0  0  0  0  0  0
  146.3257  130.4334  152.5061 H   0  0  0  0  0  0  0  0  0  0  0  0
  1  2  1  0  0  0  0
  1 26  1  0  0  0  0
  1 27  1  0  0  0  0
  2  3  2  0  0  0  0
  2  4  1  0  0  0  0
  4  5  1  0  0  0  0
  4 28  1  0  0  0  0
  4 29  1  0  0  0  0
  5 25  1  0  0  0  0
  5  6  1  0  0  0  0
  6  7  1  0  0  0  0
  6 30  1  0  0  0  0
  6 31  1  0  0  0  0
  7  8  1  0  0  0  0
  7 32  1  0  0  0  0
  7 33  1  0  0  0  0
  8  9  1  0  0  0  0
  8 24  1  0  0  0  0
  8 34  1  0  0  0  0
  9 10  1  0  0  0  0
  9 35  1  0  0  0  0
 10 11  2  0  0  0  0
 10 12  1  0  0  0  0
 12 13  1  0  0  0  0
 12 36  1  0  0  0  0
 13 18  1  0  0  0  0
 13 14  2  0  0  0  0
 14 15  1  0  0  0  0
 14 37  1  0  0  0  0
 15 16  2  0  0  0  0
 15 38  1  0  0  0  0
 16 17  1  0  0  0  0
 16 39  1  0  0  0  0
 17 18  2  0  0  0  0
 17 52  1  0  0  0  0
 18 19  1  0  0  0  0
 19 23  1  0  0  0  0
 19 20  1  0  0  0  0
 20 21  1  0  0  0  0
 20 40  1  0  0  0  0
 20 41  1  0  0  0  0
 21 22  1  0  0  0  0
 21 42  1  0  0  0  0
 21 43  1  0  0  0  0
 22 23  1  0  0  0  0
 22 44  1  0  0  0  0
 22 45  1  0  0  0  0
 23 46  1  0  0  0  0
 23 47  1  0  0  0  0
 24 25  1  0  0  0  0
 24 48  1  0  0  0  0
 24 49  1  0  0  0  0
 25 50  1  0  0  0  0
 25 51  1  0  0  0  0
M  CHG  1  17   1
M  END
> <s_m_source_file>
AV-unprocessed.smi

> <i_m_source_file_index>
1740

> <i_lp_mmshare_version>
43012

> <i_f3d_flags>
0

> <s_epik_input>
W05IMl1DKD1PKVtDSDJdTjFbQ0gyXVtDSDJdW0NIXShbQ0gyXVtDSDJdMSlbTkhdQyg9TylbTkhdYzJbY0hdW2NIXVtjSF1uYzJOM1tDSDJdW0NIMl1bQ0gyXVtDSDJdMw==

> <s_epik_cmdline>
J2VwaWtfcHl0aG9uJywgJy1waCcsICc3LjAnLCAnLXRuJywgJzgnLCAnLW1hJywgJzIwMCcsICctbWV0YWxfYmluZGluZycsICctaW1hZScsICc8aW5maWxlLm1hZT4nLCAnLW9tYWUnLCAnPG91dGZpbGUubWFlPic=

> <r_epik_Ionization_Penalty>
1.24114

> <r_epik_Ionization_Penalty_Charging>
1.08532

> <r_epik_Ionization_Penalty_Neutral>
0.155817

> <r_epik_State_Penalty>
1.33508

> <r_epik_Charging_Adjusted_Penalty>
2.4204

> <i_epik_Tot_Q>
1

> <i_epik_Tot_abs_Q>
1

> <r_epik_Metal_State_Penalty>
1.43573

> <b_epik_Metal_Only>
0

> <s_lp_Force_Field>
OPLS_2005

> <r_lp_Energy>
46.1835

> <b_lp_Chiralities_Consistent>
1

> <s_lp_Variant>
AV-unprocessed.smi:1740-4

> <Gold.Version>
5.8.1

> <Gold.Id.Protein>
6NUR|6NUR_protein|mol2

> <Gold.PLP.Fitness>
45.9374

> <Gold.PLP.PLP>
-40.0490

> <Gold.PLP.part.hbond>
-3.8488

> <Gold.PLP.part.metal>
0.0000

> <Gold.PLP.part.buried>
-4.5655

> <Gold.PLP.part.nonpolar>
-29.8856

> <Gold.PLP.part.repulsive>
0.4594

> <Gold.PLP.ligand.clash>
0.0000

> <Gold.PLP.ligand.torsion>
0.4092

> <Gold.PLP.Chemscore.Hbond>
2.1105

> <Gold.PLP.Chemscore.CHOScore>
0.0000

> <Gold.PLP.Chemscore.Metal>
0.0000

> <Gold.Chemscore.Hbonds>
donor molecule, donor type, donor heavy atom, donor atom, acceptor molecule, acceptor atom, score
      L1  H     1    26       P1  8028  1.00
      L1  H     9    35       P1  7948  0.75
      L1  H    12    36       P1  7948  0.58

> <Gold.PLP.Chemscore.Internal.Correction>
0.3752

> <Gold.Rescore>
     Score         DG    S(hbond)    S(metal)    S(lipo)     H(rot)  DE(clash)    DE(int)     intcor
     13.12     -15.08       1.83        0.00      77.63       2.19       0.11       1.85       ----

> <Gold.Chemscore.Fitness>
13.1172

> <Gold.Chemscore.DG>
-15.0792

> <Gold.Chemscore.ZeroCoef>
-5.4800

> <Gold.Chemscore.Hbond>
1.8341

> <Gold.Chemscore.Metal>
0.0000

> <Gold.Chemscore.Lipo>
77.6275

> <Gold.Chemscore.Internal_Hbond>
0.0000

> <Gold.Chemscore.DEClash>
0.1150

> <Gold.Chemscore.DEInternal>
1.8469

> <Gold.Chemscore.Rot>
2.1911

> <Gold.Chemscore.Internal.Correction>
   9.000000E+99

> <Gold.Chemscore.Hbonds>
donor molecule, donor type, donor heavy atom, donor atom, acceptor molecule, acceptor atom, score
      L1  H     1    26       P1  8028  1.00
      L1  H     9    35       P1  7948  0.63
      L1  H    12    36       P1  7948  0.18

> <Gold.Chemscore.Hbond.Weighted>
-6.1260

> <Gold.Chemscore.Metal.Weighted>
-0.0000

> <Gold.Chemscore.Lipo.Weighted>
-9.0824

> <Gold.Chemscore.Internal_Hbond.Weighted>
0.0000

> <Gold.Chemscore.DEClash.Weighted>
0.1150

> <Gold.Chemscore.DEInternal.Weighted>
1.8469

> <Gold.Chemscore.Rot.Weighted>
5.6092

> <Gold.Chemscore.Internal.Correction.Weighted>
   9.000000E+99

> <Gold.Protein.RotatedTorsions>
[ 6907 6896 6895 6894 ] final  144.69 input  -60.11 | X-H torsion
[ 7974 7965 7964 7962 ] final  172.61 input  175.53 | X-H torsion
[ 8008 7997 7996 7995 ] final   18.44 input   59.86 | X-H torsion
[ 10167 10162 10161 10158 ] final   78.66 input  -65.29 | X-H torsion
[ 10718 10713 10712 10709 ] final  -19.37 input   66.30 | X-H torsion
[ 10763 10752 10751 10750 ] final -112.48 input  -60.55 | X-H torsion
[ 11005 11000 10999 10996 ] final -111.93 input  -57.11 | X-H torsion

> <Gold.Protein.ActiveResidues>
 VAL166  LYS551  ARG553  GLY616  TRP617  ASP618  TYR619  PRO620  LYS621  CYS622 
 ASP623  PHE694  ASN695  SER759  ASP760  ASP761  ALA762  ILE779  LEU786  VAL792 
 PHE793  MET794  SER795  GLU796  ALA797  LYS798  CYS799  TRP800  GLU811  SER814 

> <Gold.Protein.RotatedAtoms>
  152.1904  133.4769  159.5004 H   0  0  0  0  0  0  0  0  0  0  0  0  # atno 6907 bound_to 6896
  150.6950  134.1719  159.4224 H   0  0  0  0  0  0  0  0  0  0  0  0  # atno 6908 bound_to 6896
  151.9634  135.0112  160.0599 H   0  0  0  0  0  0  0  0  0  0  0  0  # atno 6909 bound_to 6896
  144.7264  139.9524  143.6432 H   0  0  0  0  0  0  0  0  0  0  0  0  # atno 7974 bound_to 7965
  154.9060  140.3007  155.5292 H   0  0  0  0  0  0  0  0  0  0  0  0  # atno 8008 bound_to 7997
  156.3017  140.2398  156.4029 H   0  0  0  0  0  0  0  0  0  0  0  0  # atno 8009 bound_to 7997
  154.8473  140.0411  157.1570 H   0  0  0  0  0  0  0  0  0  0  0  0  # atno 8010 bound_to 7997
  139.9686  144.5911  150.8006 H   0  0  0  0  0  0  0  0  0  0  0  0  # atno 10167 bound_to 10162
  156.5466  130.4691  149.6472 H   0  0  0  0  0  0  0  0  0  0  0  0  # atno 10718 bound_to 10713
  154.8352  135.4489  154.1201 H   0  0  0  0  0  0  0  0  0  0  0  0  # atno 10763 bound_to 10752
  153.2439  135.6919  153.7759 H   0  0  0  0  0  0  0  0  0  0  0  0  # atno 10764 bound_to 10752
  153.7096  135.3359  155.3219 H   0  0  0  0  0  0  0  0  0  0  0  0  # atno 10765 bound_to 10752
  141.0705  133.9387  157.2494 H   0  0  0  0  0  0  0  0  0  0  0  0  # atno 11005 bound_to 11000
  146.0701  139.3690  143.0528 LP  0  0  0  0  0  0  0  0  0  0  0  0  # atno 17320 bound_to 7965
  145.7979  140.9784  143.1014 LP  0  0  0  0  0  0  0  0  0  0  0  0  # atno 17321 bound_to 7965
  140.7529  143.3000  151.3106 LP  0  0  0  0  0  0  0  0  0  0  0  0  # atno 17342 bound_to 10162
  139.6499  144.0382  152.2618 LP  0  0  0  0  0  0  0  0  0  0  0  0  # atno 17343 bound_to 10162
  156.2923  130.7131  151.1982 LP  0  0  0  0  0  0  0  0  0  0  0  0  # atno 17370 bound_to 10713
  157.7395  131.0528  150.5225 LP  0  0  0  0  0  0  0  0  0  0  0  0  # atno 17371 bound_to 10713
  139.9519  135.0173  156.9017 LP  0  0  0  0  0  0  0  0  0  0  0  0  # atno 17394 bound_to 11000
  140.5683  134.0468  155.7422 LP  0  0  0  0  0  0  0  0  0  0  0  0  # atno 17395 bound_to 11000

$$$$
