AV-unprocessed.smi:2021|AV-procd|sdf|8175|dock1
  -GOLD-   2272010423D 1   1.00000     0.00000
 Structure written by MMmdl.
 42 43  0  0  0  0  0  0  0  0  2 V2000
  147.9794  127.7307  151.1717 C   0  0  0  0  0  0  0  0  0  0  0  0
  148.0361  128.1207  152.6563 C   0  0  0  0  0  0  0  0  0  0  0  0
  147.8682  126.8764  153.5445 C   0  0  0  0  0  0  0  0  0  0  0  0
  146.9789  129.2001  152.9752 C   0  0  0  0  0  0  0  0  0  0  0  0
  147.4238  130.5724  152.6203 N   0  3  1  0  0  0  0  0  0  0  0  0
  146.3037  131.5106  152.3609 C   0  0  0  0  0  0  0  0  0  0  0  0
  146.8435  132.8941  151.9655 C   0  0  0  0  0  0  0  0  0  0  0  0
  147.7023  133.3789  152.9895 O   0  0  0  0  0  0  0  0  0  0  0  0
  148.8376  132.5432  153.1847 C   0  0  1  0  0  0  0  0  0  0  0  0
  149.7412  133.2288  154.2280 C   0  0  0  0  0  0  0  0  0  0  0  0
  149.8997  134.6606  153.9917 N   0  0  0  0  0  0  0  0  0  0  0  0
  150.7441  135.4603  154.6587 C   0  0  0  0  0  0  0  0  0  0  0  0
  151.4651  135.0670  155.5757 O   0  0  0  0  0  0  0  0  0  0  0  0
  150.6916  136.7212  154.1945 N   0  0  0  0  0  0  0  0  0  0  0  0
  151.4288  137.8525  154.6347 C   0  0  0  0  0  0  0  0  0  0  0  0
  152.7169  137.8021  155.0084 N   0  0  0  0  0  0  0  0  0  0  0  0
  153.1943  139.0477  155.3956 N   0  0  0  0  0  0  0  0  0  0  0  0
  152.2487  139.9868  155.2993 C   0  0  0  0  0  0  0  0  0  0  0  0
  150.6818  139.4412  154.7271 S   0  0  0  0  0  0  0  0  0  0  0  0
  148.3553  131.1433  153.6226 C   0  0  0  0  0  0  0  0  0  0  0  0
  147.0107  127.3043  150.9089 H   0  0  0  0  0  0  0  0  0  0  0  0
  148.7445  126.9926  150.9285 H   0  0  0  0  0  0  0  0  0  0  0  0
  148.1464  128.5970  150.5307 H   0  0  0  0  0  0  0  0  0  0  0  0
  149.0309  128.5282  152.8339 H   0  0  0  0  0  0  0  0  0  0  0  0
  146.8908  126.4144  153.3986 H   0  0  0  0  0  0  0  0  0  0  0  0
  147.9651  127.1228  154.6019 H   0  0  0  0  0  0  0  0  0  0  0  0
  148.6261  126.1265  153.3155 H   0  0  0  0  0  0  0  0  0  0  0  0
  146.0405  128.9847  152.4617 H   0  0  0  0  0  0  0  0  0  0  0  0
  146.7558  129.1541  154.0424 H   0  0  0  0  0  0  0  0  0  0  0  0
  145.6638  131.1350  151.5635 H   0  0  0  0  0  0  0  0  0  0  0  0
  145.6836  131.5971  153.2546 H   0  0  0  0  0  0  0  0  0  0  0  0
  147.3765  132.8493  151.0145 H   0  0  0  0  0  0  0  0  0  0  0  0
  146.0196  133.5962  151.8356 H   0  0  0  0  0  0  0  0  0  0  0  0
  149.3788  132.4641  152.2401 H   0  0  0  0  0  0  0  0  0  0  0  0
  149.3431  133.0693  155.2314 H   0  0  0  0  0  0  0  0  0  0  0  0
  150.7316  132.7732  154.2163 H   0  0  0  0  0  0  0  0  0  0  0  0
  149.3446  135.0640  153.2510 H   0  0  0  0  0  0  0  0  0  0  0  0
  150.0556  136.8918  153.4297 H   0  0  0  0  0  0  0  0  0  0  0  0
  152.4752  141.0080  155.5677 H   0  0  0  0  0  0  0  0  0  0  0  0
  147.8580  131.2004  154.5923 H   0  0  0  0  0  0  0  0  0  0  0  0
  149.2108  130.4767  153.7383 H   0  0  0  0  0  0  0  0  0  0  0  0
  147.9501  130.4920  151.7618 H   0  0  0  0  0  0  0  0  0  0  0  0
  1  2  1  0  0  0  0
  1 21  1  0  0  0  0
  1 22  1  0  0  0  0
  1 23  1  0  0  0  0
  2  3  1  0  0  0  0
  2  4  1  0  0  0  0
  2 24  1  0  0  0  0
  3 25  1  0  0  0  0
  3 26  1  0  0  0  0
  3 27  1  0  0  0  0
  4  5  1  0  0  0  0
  4 28  1  0  0  0  0
  4 29  1  0  0  0  0
  5 20  1  0  0  0  0
  5  6  1  0  0  0  0
  5 42  1  0  0  0  0
  6  7  1  0  0  0  0
  6 30  1  0  0  0  0
  6 31  1  0  0  0  0
  7  8  1  0  0  0  0
  7 32  1  0  0  0  0
  7 33  1  0  0  0  0
  8  9  1  0  0  0  0
  9 10  1  0  0  0  0
  9 20  1  0  0  0  0
  9 34  1  0  0  0  0
 10 11  1  0  0  0  0
 10 35  1  0  0  0  0
 10 36  1  0  0  0  0
 11 12  1  0  0  0  0
 11 37  1  0  0  0  0
 12 13  2  0  0  0  0
 12 14  1  0  0  0  0
 14 15  1  0  0  0  0
 14 38  1  0  0  0  0
 15 19  1  0  0  0  0
 15 16  2  0  0  0  0
 16 17  1  0  0  0  0
 17 18  2  0  0  0  0
 18 19  1  0  0  0  0
 18 39  1  0  0  0  0
 20 40  1  0  0  0  0
 20 41  1  0  0  0  0
M  CHG  1   5   1
M  END
> <s_m_source_file>
AV-unprocessed.smi

> <i_m_source_file_index>
2021

> <i_lp_mmshare_version>
43012

> <i_f3d_flags>
0

> <s_epik_input>
W0NIM11bQ0hdKFtDSDNdKVtDSDJdTjFbQ0gyXVtDSDJdT1tDQEhdKFtDSDJdMSlbQ0gyXVtOSF1DKD1PKVtOSF1jMm5uW2NIXXMy

> <s_epik_cmdline>
J2VwaWtfcHl0aG9uJywgJy1waCcsICc3LjAnLCAnLXRuJywgJzgnLCAnLW1hJywgJzIwMCcsICctbWV0YWxfYmluZGluZycsICctaW1hZScsICc8aW5maWxlLm1hZT4nLCAnLW9tYWUnLCAnPG91dGZpbGUubWFlPic=

> <r_lp_tautomer_probability>
1

> <r_epik_Ionization_Penalty>
0.102019

> <r_epik_Ionization_Penalty_Charging>
0.098413

> <r_epik_Ionization_Penalty_Neutral>
0.00360555

> <r_epik_State_Penalty>
0.0884988

> <r_epik_Charging_Adjusted_Penalty>
0.186912

> <i_epik_Tot_Q>
1

> <i_epik_Tot_abs_Q>
1

> <r_epik_Metal_State_Penalty>
0.454709

> <b_epik_Metal_Only>
0

> <s_lp_Force_Field>
OPLS_2005

> <r_lp_Energy>
17.0767

> <b_lp_Chiralities_Consistent>
1

> <s_lp_Variant>
AV-unprocessed.smi:2021-1

> <Gold.Version>
5.8.1

> <Gold.Id.Protein>
6NUR|6NUR_protein|mol2

> <Gold.PLP.Fitness>
51.2565

> <Gold.PLP.PLP>
-38.3913

> <Gold.PLP.part.hbond>
-7.0525

> <Gold.PLP.part.metal>
0.0000

> <Gold.PLP.part.buried>
-3.6040

> <Gold.PLP.part.nonpolar>
-28.4557

> <Gold.PLP.part.repulsive>
0.3544

> <Gold.PLP.ligand.clash>
0.0000

> <Gold.PLP.ligand.torsion>
0.9007

> <Gold.PLP.Chemscore.Hbond>
4.8040

> <Gold.PLP.Chemscore.CHOScore>
0.0000

> <Gold.PLP.Chemscore.Metal>
0.0000

> <Gold.Chemscore.Hbonds>
donor molecule, donor type, donor heavy atom, donor atom, acceptor molecule, acceptor atom, score
      L1  H     5    42       P1 10747  1.00
      L1  H    11    37       P1  7948  0.60
      L1  H    14    38       P1  7948  0.85
      P1  H  7997  8010       L1    17  0.59
      P1  H 10752 10763       L1    13  0.90

> <Gold.PLP.Chemscore.Internal.Correction>
0.2547

> <Gold.Rescore>
     Score         DG    S(hbond)    S(metal)    S(lipo)     H(rot)  DE(clash)    DE(int)     intcor
     19.24     -20.31       3.47        0.00      68.93       1.88       0.06       1.02       ----

> <Gold.Chemscore.Fitness>
19.2355

> <Gold.Chemscore.DG>
-20.3116

> <Gold.Chemscore.ZeroCoef>
-5.4800

> <Gold.Chemscore.Hbond>
3.4677

> <Gold.Chemscore.Metal>
0.0000

> <Gold.Chemscore.Lipo>
68.9347

> <Gold.Chemscore.Internal_Hbond>
0.0000

> <Gold.Chemscore.DEClash>
0.0589

> <Gold.Chemscore.DEInternal>
1.0171

> <Gold.Chemscore.Rot>
1.8812

> <Gold.Chemscore.Internal.Correction>
   9.000000E+99

> <Gold.Chemscore.Hbonds>
donor molecule, donor type, donor heavy atom, donor atom, acceptor molecule, acceptor atom, score
      L1  H     5    42       P1 10747  1.00
      L1  H    11    37       P1  7948  0.04
      L1  H    14    38       P1  7948  0.13
      P1  H  7997  8010       L1    17  0.07
      P1  H 10752 10763       L1    13  0.31

> <Gold.Chemscore.Hbond.Weighted>
-11.5821

> <Gold.Chemscore.Metal.Weighted>
-0.0000

> <Gold.Chemscore.Lipo.Weighted>
-8.0654

> <Gold.Chemscore.Internal_Hbond.Weighted>
0.0000

> <Gold.Chemscore.DEClash.Weighted>
0.0589

> <Gold.Chemscore.DEInternal.Weighted>
1.0171

> <Gold.Chemscore.Rot.Weighted>
4.8159

> <Gold.Chemscore.Internal.Correction.Weighted>
   9.000000E+99

> <Gold.Protein.RotatedTorsions>
[ 6907 6896 6895 6894 ] final -154.31 input  -60.11 | X-H torsion
[ 7974 7965 7964 7962 ] final   49.72 input  175.53 | X-H torsion
[ 8008 7997 7996 7995 ] final   69.34 input   59.86 | X-H torsion
[ 10167 10162 10161 10158 ] final  123.58 input  -65.29 | X-H torsion
[ 10718 10713 10712 10709 ] final  178.31 input   66.30 | X-H torsion
[ 10763 10752 10751 10750 ] final   84.91 input  -60.55 | X-H torsion
[ 11005 11000 10999 10996 ] final  154.80 input  -57.11 | X-H torsion

> <Gold.Protein.ActiveResidues>
 VAL166  LYS551  ARG553  GLY616  TRP617  ASP618  TYR619  PRO620  LYS621  CYS622 
 ASP623  PHE694  ASN695  SER759  ASP760  ASP761  ALA762  ILE779  LEU786  VAL792 
 PHE793  MET794  SER795  GLU796  ALA797  LYS798  CYS799  TRP800  GLU811  SER814 

> <Gold.Protein.RotatedAtoms>
  151.2556  133.4328  159.2613 H   0  0  0  0  0  0  0  0  0  0  0  0  # atno 6907 bound_to 6896
  151.0578  134.9716  159.8255 H   0  0  0  0  0  0  0  0  0  0  0  0  # atno 6908 bound_to 6896
  152.5393  134.2507  159.8950 H   0  0  0  0  0  0  0  0  0  0  0  0  # atno 6909 bound_to 6896
  146.0082  139.4513  142.9973 H   0  0  0  0  0  0  0  0  0  0  0  0  # atno 7974 bound_to 7965
  155.7222  140.3493  155.5021 H   0  0  0  0  0  0  0  0  0  0  0  0  # atno 8008 bound_to 7997
  155.9259  140.1075  157.1192 H   0  0  0  0  0  0  0  0  0  0  0  0  # atno 8009 bound_to 7997
  154.4077  140.1240  156.4727 H   0  0  0  0  0  0  0  0  0  0  0  0  # atno 8010 bound_to 7997
  139.5791  144.6978  151.3574 H   0  0  0  0  0  0  0  0  0  0  0  0  # atno 10167 bound_to 10162
  156.8925  130.9852  151.3047 H   0  0  0  0  0  0  0  0  0  0  0  0  # atno 10718 bound_to 10713
  153.1425  135.4637  154.9517 H   0  0  0  0  0  0  0  0  0  0  0  0  # atno 10763 bound_to 10752
  154.7759  135.3173  154.8095 H   0  0  0  0  0  0  0  0  0  0  0  0  # atno 10764 bound_to 10752
  153.8615  135.6912  153.4836 H   0  0  0  0  0  0  0  0  0  0  0  0  # atno 10765 bound_to 10752
  140.1522  134.8667  157.2469 H   0  0  0  0  0  0  0  0  0  0  0  0  # atno 11005 bound_to 11000
  145.7383  141.0017  143.1314 LP  0  0  0  0  0  0  0  0  0  0  0  0  # atno 17320 bound_to 7965
  144.6943  139.9068  143.7461 LP  0  0  0  0  0  0  0  0  0  0  0  0  # atno 17321 bound_to 7965
  140.7071  143.7485  150.7501 LP  0  0  0  0  0  0  0  0  0  0  0  0  # atno 17342 bound_to 10162
  140.1013  143.4785  152.2423 LP  0  0  0  0  0  0  0  0  0  0  0  0  # atno 17343 bound_to 10162
  157.6075  130.8558  149.8899 LP  0  0  0  0  0  0  0  0  0  0  0  0  # atno 17370 bound_to 10713
  156.0622  130.3698  150.0957 LP  0  0  0  0  0  0  0  0  0  0  0  0  # atno 17371 bound_to 10713
  140.2591  134.3593  155.7413 LP  0  0  0  0  0  0  0  0  0  0  0  0  # atno 17394 bound_to 11000
  141.2200  133.7359  156.9052 LP  0  0  0  0  0  0  0  0  0  0  0  0  # atno 17395 bound_to 11000

$$$$
