AV-unprocessed.smi:2893|AV-procd|sdf|11122|dock3
  -GOLD-   2272015593D 1   1.00000     0.00000
 Structure written by MMmdl.
 37 39  0  0  0  0  0  0  0  0  1 V2000
  149.2667  136.3838  159.5412 C   0  0  0  0  0  0  0  0  0  0  0  0
  149.9117  136.7607  158.2011 C   0  0  0  0  0  0  0  0  0  0  0  0
  149.4543  135.8910  157.1239 N   0  0  0  0  0  0  0  0  0  0  0  0
  150.2486  135.2917  156.2202 C   0  0  0  0  0  0  0  0  0  0  0  0
  151.4714  135.4384  156.1948 O   0  0  0  0  0  0  0  0  0  0  0  0
  149.5506  134.4435  155.1909 C   0  0  0  0  0  0  0  0  0  0  0  0
  150.1874  133.2967  154.6686 C   0  0  0  0  0  0  0  0  0  0  0  0
  149.4858  132.5290  153.7236 C   0  0  0  0  0  0  0  0  0  0  0  0
  148.1927  132.9536  153.3643 C   0  0  0  0  0  0  0  0  0  0  0  0
  147.4697  132.2018  152.4272 N   0  0  0  0  0  0  0  0  0  0  0  0
  146.0182  132.3078  152.3220 C   0  0  2  0  0  0  0  0  0  0  0  0
  145.3954  131.0853  151.6406 C   0  0  0  0  0  0  0  0  0  0  0  0
  144.5983  131.7285  150.4987 C   0  0  1  0  0  0  0  0  0  0  0  0
  143.3968  132.5369  151.0080 C   0  0  0  0  0  0  0  0  0  0  0  0
  144.0784  133.7680  151.6049 C   0  0  0  0  0  0  0  0  0  0  0  0
  145.5622  133.4441  151.3859 C   0  0  2  0  0  0  0  0  0  0  0  0
  145.4839  132.7729  150.1384 O   0  0  0  0  0  0  0  0  0  0  0  0
  147.6300  134.0623  153.9051 N   0  0  0  0  0  0  0  0  0  0  0  0
  148.2975  134.7934  154.8037 N   0  0  0  0  0  0  0  0  0  0  0  0
  149.5934  137.0593  160.3320 H   0  0  0  0  0  0  0  0  0  0  0  0
  149.5358  135.3703  159.8405 H   0  0  0  0  0  0  0  0  0  0  0  0
  148.1791  136.4394  159.4845 H   0  0  0  0  0  0  0  0  0  0  0  0
  149.6505  137.7873  157.9438 H   0  0  0  0  0  0  0  0  0  0  0  0
  150.9994  136.7272  158.2801 H   0  0  0  0  0  0  0  0  0  0  0  0
  148.4604  135.7227  157.0606 H   0  0  0  0  0  0  0  0  0  0  0  0
  151.1819  133.0086  154.9772 H   0  0  0  0  0  0  0  0  0  0  0  0
  149.9278  131.6427  153.2924 H   0  0  0  0  0  0  0  0  0  0  0  0
  147.9661  131.6706  151.7267 H   0  0  0  0  0  0  0  0  0  0  0  0
  145.5969  132.4382  153.3197 H   0  0  0  0  0  0  0  0  0  0  0  0
  146.1570  130.4174  151.2349 H   0  0  0  0  0  0  0  0  0  0  0  0
  144.7634  130.5055  152.3140 H   0  0  0  0  0  0  0  0  0  0  0  0
  144.3592  131.0424  149.6859 H   0  0  0  0  0  0  0  0  0  0  0  0
  142.7428  132.8243  150.1840 H   0  0  0  0  0  0  0  0  0  0  0  0
  142.8059  131.9826  151.7378 H   0  0  0  0  0  0  0  0  0  0  0  0
  143.7944  134.6662  151.0554 H   0  0  0  0  0  0  0  0  0  0  0  0
  143.8352  133.9203  152.6570 H   0  0  0  0  0  0  0  0  0  0  0  0
  146.2040  134.3256  151.3864 H   0  0  0  0  0  0  0  0  0  0  0  0
  1  2  1  0  0  0  0
  1 20  1  0  0  0  0
  1 21  1  0  0  0  0
  1 22  1  0  0  0  0
  2  3  1  0  0  0  0
  2 23  1  0  0  0  0
  2 24  1  0  0  0  0
  3  4  1  0  0  0  0
  3 25  1  0  0  0  0
  4  5  2  0  0  0  0
  4  6  1  0  0  0  0
  6 19  1  0  0  0  0
  6  7  2  0  0  0  0
  7  8  1  0  0  0  0
  7 26  1  0  0  0  0
  8  9  2  0  0  0  0
  8 27  1  0  0  0  0
  9 10  1  0  0  0  0
  9 18  1  0  0  0  0
 10 11  1  0  0  0  0
 10 28  1  0  0  0  0
 11 16  1  0  0  0  0
 11 12  1  0  0  0  0
 11 29  1  0  0  0  0
 12 13  1  0  0  0  0
 12 30  1  0  0  0  0
 12 31  1  0  0  0  0
 13 17  1  0  0  0  0
 13 14  1  0  0  0  0
 13 32  1  0  0  0  0
 14 15  1  0  0  0  0
 14 33  1  0  0  0  0
 14 34  1  0  0  0  0
 15 16  1  0  0  0  0
 15 35  1  0  0  0  0
 15 36  1  0  0  0  0
 16 17  1  0  0  0  0
 16 37  1  0  0  0  0
 18 19  2  0  0  0  0
M  END
> <s_m_source_file>
AV-unprocessed.smi

> <i_m_source_file_index>
2893

> <i_lp_mmshare_version>
43012

> <i_f3d_flags>
0

> <s_epik_input>
W0NIM11bQ0gyXVtOSF1DKD1PKWMxW2NIXVtjSF1jKG5uMSlbTkhdW0NASF0oW0NIMl1bQ0BASF0yMylbQ0BASF0oTzMpW0NIMl1bQ0gyXTI=

> <s_epik_cmdline>
J2VwaWtfcHl0aG9uJywgJy1waCcsICc3LjAnLCAnLXRuJywgJzgnLCAnLW1hJywgJzIwMCcsICctbWV0YWxfYmluZGluZycsICctaW1hZScsICc8aW5maWxlLm1hZT4nLCAnLW9tYWUnLCAnPG91dGZpbGUubWFlPic=

> <r_lp_tautomer_probability>
1

> <r_epik_Ionization_Penalty>
0.00432031

> <r_epik_Ionization_Penalty_Charging>
0

> <r_epik_Ionization_Penalty_Neutral>
0.00432031

> <r_epik_State_Penalty>
-0

> <r_epik_Charging_Adjusted_Penalty>
0

> <i_epik_Tot_Q>
0

> <i_epik_Tot_abs_Q>
0

> <r_epik_Metal_State_Penalty>
-0

> <b_epik_Metal_Only>
0

> <s_lp_Force_Field>
OPLS_2005

> <r_lp_Energy>
51.3486

> <b_lp_Chiralities_Consistent>
1

> <s_lp_Variant>
AV-unprocessed.smi:2893-1

> <Gold.Version>
5.8.1

> <Gold.Id.Protein>
6NUR|6NUR_protein|mol2

> <Gold.PLP.Fitness>
35.8764

> <Gold.PLP.PLP>
-31.6954

> <Gold.PLP.part.hbond>
-2.0000

> <Gold.PLP.part.metal>
0.0000

> <Gold.PLP.part.buried>
-6.5910

> <Gold.PLP.part.nonpolar>
-23.2591

> <Gold.PLP.part.repulsive>
0.6936

> <Gold.PLP.ligand.clash>
0.0000

> <Gold.PLP.ligand.torsion>
0.9211

> <Gold.PLP.Chemscore.Hbond>
2.0000

> <Gold.PLP.Chemscore.CHOScore>
0.0000

> <Gold.PLP.Chemscore.Metal>
0.0000

> <Gold.Chemscore.Hbonds>
donor molecule, donor type, donor heavy atom, donor atom, acceptor molecule, acceptor atom, score
      L1  H    10    28       P1 10747  1.00
      P1  H 10752 10763       L1     5  1.00

> <Gold.PLP.Chemscore.Internal.Correction>
0.0231

> <Gold.Rescore>
     Score         DG    S(hbond)    S(metal)    S(lipo)     H(rot)  DE(clash)    DE(int)     intcor
     15.75     -17.02       1.97        0.00      68.80       1.21       0.29       0.97       ----

> <Gold.Chemscore.Fitness>
15.7539

> <Gold.Chemscore.DG>
-17.0191

> <Gold.Chemscore.ZeroCoef>
-5.4800

> <Gold.Chemscore.Hbond>
1.9693

> <Gold.Chemscore.Metal>
0.0000

> <Gold.Chemscore.Lipo>
68.7966

> <Gold.Chemscore.Internal_Hbond>
0.0000

> <Gold.Chemscore.DEClash>
0.2947

> <Gold.Chemscore.DEInternal>
0.9705

> <Gold.Chemscore.Rot>
1.2061

> <Gold.Chemscore.Internal.Correction>
   9.000000E+99

> <Gold.Chemscore.Hbonds>
donor molecule, donor type, donor heavy atom, donor atom, acceptor molecule, acceptor atom, score
      L1  H    10    28       P1 10747  0.99
      P1  H 10752 10763       L1     5  0.94

> <Gold.Chemscore.Hbond.Weighted>
-6.5775

> <Gold.Chemscore.Metal.Weighted>
-0.0000

> <Gold.Chemscore.Lipo.Weighted>
-8.0492

> <Gold.Chemscore.Internal_Hbond.Weighted>
0.0000

> <Gold.Chemscore.DEClash.Weighted>
0.2947

> <Gold.Chemscore.DEInternal.Weighted>
0.9705

> <Gold.Chemscore.Rot.Weighted>
3.0876

> <Gold.Chemscore.Internal.Correction.Weighted>
   9.000000E+99

> <Gold.Protein.RotatedTorsions>
[ 6907 6896 6895 6894 ] final -109.45 input  -60.11 | X-H torsion
[ 7974 7965 7964 7962 ] final  173.67 input  175.53 | X-H torsion
[ 8008 7997 7996 7995 ] final -149.12 input   59.86 | X-H torsion
[ 10167 10162 10161 10158 ] final  -24.85 input  -65.29 | X-H torsion
[ 10718 10713 10712 10709 ] final   81.67 input   66.30 | X-H torsion
[ 10763 10752 10751 10750 ] final   80.10 input  -60.55 | X-H torsion
[ 11005 11000 10999 10996 ] final  164.64 input  -57.11 | X-H torsion

> <Gold.Protein.ActiveResidues>
 VAL166  LYS551  ARG553  GLY616  TRP617  ASP618  TYR619  PRO620  LYS621  CYS622 
 ASP623  PHE694  ASN695  SER759  ASP760  ASP761  ALA762  ILE779  LEU786  VAL792 
 PHE793  MET794  SER795  GLU796  ALA797  LYS798  CYS799  TRP800  GLU811  SER814 

> <Gold.Protein.RotatedAtoms>
  150.7563  133.9528  159.3490 H   0  0  0  0  0  0  0  0  0  0  0  0  # atno 6907 bound_to 6896
  151.7446  135.0844  160.0330 H   0  0  0  0  0  0  0  0  0  0  0  0  # atno 6908 bound_to 6896
  152.3506  133.6137  159.5978 H   0  0  0  0  0  0  0  0  0  0  0  0  # atno 6909 bound_to 6896
  144.7238  139.9683  143.6436 H   0  0  0  0  0  0  0  0  0  0  0  0  # atno 7974 bound_to 7965
  155.6026  140.0663  157.2729 H   0  0  0  0  0  0  0  0  0  0  0  0  # atno 8008 bound_to 7997
  154.4275  140.1815  156.1236 H   0  0  0  0  0  0  0  0  0  0  0  0  # atno 8009 bound_to 7997
  156.0148  140.3323  155.6981 H   0  0  0  0  0  0  0  0  0  0  0  0  # atno 8010 bound_to 7997
  140.7287  143.4316  151.0793 H   0  0  0  0  0  0  0  0  0  0  0  0  # atno 10167 bound_to 10162
  157.6839  131.0014  150.2261 H   0  0  0  0  0  0  0  0  0  0  0  0  # atno 10718 bound_to 10713
  153.1006  135.4815  154.8860 H   0  0  0  0  0  0  0  0  0  0  0  0  # atno 10763 bound_to 10752
  154.7375  135.3074  154.8789 H   0  0  0  0  0  0  0  0  0  0  0  0  # atno 10764 bound_to 10752
  153.9407  135.6834  153.4798 H   0  0  0  0  0  0  0  0  0  0  0  0  # atno 10765 bound_to 10752
  140.2480  134.7999  157.3475 H   0  0  0  0  0  0  0  0  0  0  0  0  # atno 11005 bound_to 11000
  146.0583  139.3578  143.0597 LP  0  0  0  0  0  0  0  0  0  0  0  0  # atno 17320 bound_to 7965
  145.8126  140.9718  143.0941 LP  0  0  0  0  0  0  0  0  0  0  0  0  # atno 17321 bound_to 7965
  139.7974  143.8133  152.3159 LP  0  0  0  0  0  0  0  0  0  0  0  0  # atno 17342 bound_to 10162
  139.8137  144.7325  150.9663 LP  0  0  0  0  0  0  0  0  0  0  0  0  # atno 17343 bound_to 10162
  156.2903  130.3745  149.7848 LP  0  0  0  0  0  0  0  0  0  0  0  0  # atno 17370 bound_to 10713
  156.5509  130.8341  151.3299 LP  0  0  0  0  0  0  0  0  0  0  0  0  # atno 17371 bound_to 10713
  140.1586  134.4757  155.7910 LP  0  0  0  0  0  0  0  0  0  0  0  0  # atno 17394 bound_to 11000
  141.2204  133.6892  156.7505 LP  0  0  0  0  0  0  0  0  0  0  0  0  # atno 17395 bound_to 11000

$$$$
