AV-unprocessed.smi:3308|AV-procd|sdf|12715|dock2
  -GOLD-   2272019 53D 1   1.00000     0.00000
 Structure written by MMmdl.
 40 41  0  0  0  0  0  0  0  0  1 V2000
  153.0343  137.9912  156.5051 C   0  0  0  0  0  0  0  0  0  0  0  0
  151.7955  138.8466  156.1878 C   0  0  1  0  0  0  0  0  0  0  0  0
  152.2195  140.2413  156.3358 N   0  0  0  0  0  0  0  0  0  0  0  0
  151.3367  141.0694  157.1754 C   0  0  0  0  0  0  0  0  0  0  0  0
  151.9241  141.3932  158.5622 C   0  0  0  0  0  0  0  0  0  0  0  0
  152.2824  140.4574  159.2787 O   0  0  0  0  0  0  0  0  0  0  0  0
  152.0257  142.6790  158.9637 N   0  0  0  0  0  0  0  0  0  0  0  0
  152.5327  143.0652  160.2795 C   0  0  0  0  0  0  0  0  0  0  0  0
  152.2140  144.5525  160.4290 C   0  0  0  0  0  0  0  0  0  0  0  0
  152.1535  145.0634  158.9971 C   0  0  0  0  0  0  0  0  0  0  0  0
  151.6506  143.8643  158.1932 C   0  0  0  0  0  0  0  0  0  0  0  0
  151.2393  138.6113  154.7553 C   0  0  1  0  0  0  0  0  0  0  0  0
  150.9430  137.1283  154.4549 C   0  0  0  0  0  0  0  0  0  0  0  0
  150.0487  139.4159  154.5022 N   0  0  0  0  0  0  0  0  0  0  0  0
  148.8336  139.0028  153.9955 C   0  0  0  0  0  0  0  0  0  0  0  0
  148.0317  140.1041  153.9041 C   0  0  0  0  0  0  0  0  0  0  0  0
  148.8546  141.1618  154.3811 C   0  0  0  0  0  0  0  0  0  0  0  0
  150.0601  140.7487  154.7359 N   0  0  0  0  0  0  0  0  0  0  0  0
  152.7936  136.9286  156.5248 H   0  0  0  0  0  0  0  0  0  0  0  0
  153.4414  138.2380  157.4866 H   0  0  0  0  0  0  0  0  0  0  0  0
  153.8251  138.1423  155.7693 H   0  0  0  0  0  0  0  0  0  0  0  0
  151.0233  138.5854  156.9126 H   0  0  0  0  0  0  0  0  0  0  0  0
  153.1685  140.2653  156.6810 H   0  0  0  0  0  0  0  0  0  0  0  0
  151.1672  142.0155  156.6616 H   0  0  0  0  0  0  0  0  0  0  0  0
  150.3635  140.5888  157.2370 H   0  0  0  0  0  0  0  0  0  0  0  0
  152.0795  142.4820  161.0828 H   0  0  0  0  0  0  0  0  0  0  0  0
  153.6107  142.8995  160.3065 H   0  0  0  0  0  0  0  0  0  0  0  0
  151.2374  144.6717  160.8999 H   0  0  0  0  0  0  0  0  0  0  0  0
  152.9462  145.0830  161.0383 H   0  0  0  0  0  0  0  0  0  0  0  0
  151.5175  145.9423  158.8873 H   0  0  0  0  0  0  0  0  0  0  0  0
  153.1566  145.3329  158.6638 H   0  0  0  0  0  0  0  0  0  0  0  0
  152.0817  143.8609  157.1912 H   0  0  0  0  0  0  0  0  0  0  0  0
  150.5644  143.8992  158.1020 H   0  0  0  0  0  0  0  0  0  0  0  0
  151.9971  138.9343  154.0394 H   0  0  0  0  0  0  0  0  0  0  0  0
  151.8536  136.5300  154.4469 H   0  0  0  0  0  0  0  0  0  0  0  0
  150.4807  137.0140  153.4738 H   0  0  0  0  0  0  0  0  0  0  0  0
  150.2663  136.6966  155.1932 H   0  0  0  0  0  0  0  0  0  0  0  0
  148.6447  137.9705  153.7400 H   0  0  0  0  0  0  0  0  0  0  0  0
  147.0133  140.1479  153.5475 H   0  0  0  0  0  0  0  0  0  0  0  0
  148.6153  142.2105  154.4765 H   0  0  0  0  0  0  0  0  0  0  0  0
  1  2  1  0  0  0  0
  1 19  1  0  0  0  0
  1 20  1  0  0  0  0
  1 21  1  0  0  0  0
  2  3  1  0  0  0  0
  2 12  1  0  0  0  0
  2 22  1  0  0  0  0
  3  4  1  0  0  0  0
  3 23  1  0  0  0  0
  4  5  1  0  0  0  0
  4 24  1  0  0  0  0
  4 25  1  0  0  0  0
  5  6  2  0  0  0  0
  5  7  1  0  0  0  0
  7 11  1  0  0  0  0
  7  8  1  0  0  0  0
  8  9  1  0  0  0  0
  8 26  1  0  0  0  0
  8 27  1  0  0  0  0
  9 10  1  0  0  0  0
  9 28  1  0  0  0  0
  9 29  1  0  0  0  0
 10 11  1  0  0  0  0
 10 30  1  0  0  0  0
 10 31  1  0  0  0  0
 11 32  1  0  0  0  0
 11 33  1  0  0  0  0
 12 13  1  0  0  0  0
 12 14  1  0  0  0  0
 12 34  1  0  0  0  0
 13 35  1  0  0  0  0
 13 36  1  0  0  0  0
 13 37  1  0  0  0  0
 14 18  1  0  0  0  0
 14 15  1  0  0  0  0
 15 16  2  0  0  0  0
 15 38  1  0  0  0  0
 16 17  1  0  0  0  0
 16 39  1  0  0  0  0
 17 18  2  0  0  0  0
 17 40  1  0  0  0  0
M  END
> <s_m_source_file>
AV-unprocessed.smi

> <i_m_source_file_index>
3308

> <i_lp_mmshare_version>
43012

> <i_f3d_flags>
0

> <s_epik_input>
bjFbY0hdW2NIXVtjSF1uMVtDQEBIXShbQ0gzXSlbQ0BIXShbQ0gzXSlbTkhdW0NIMl1DKD1PKU4yW0NIMl1bQ0gyXVtDSDJdW0NIMl0y

> <s_epik_cmdline>
J2VwaWtfcHl0aG9uJywgJy1waCcsICc3LjAnLCAnLXRuJywgJzgnLCAnLW1hJywgJzIwMCcsICctbWV0YWxfYmluZGluZycsICctaW1hZScsICc8aW5maWxlLm1hZT4nLCAnLW9tYWUnLCAnPG91dGZpbGUubWFlPic=

> <r_lp_tautomer_probability>
1

> <r_epik_Ionization_Penalty>
0.918676

> <r_epik_Ionization_Penalty_Charging>
0

> <r_epik_Ionization_Penalty_Neutral>
0.918676

> <r_epik_State_Penalty>
0.958258

> <r_epik_Charging_Adjusted_Penalty>
0.958258

> <i_epik_Tot_Q>
0

> <i_epik_Tot_abs_Q>
0

> <r_epik_Metal_State_Penalty>
0.956879

> <b_epik_Metal_Only>
0

> <s_lp_Force_Field>
OPLS_2005

> <r_lp_Energy>
35.595

> <b_lp_Chiralities_Consistent>
1

> <s_lp_Variant>
AV-unprocessed.smi:3308-8

> <Gold.Version>
5.8.1

> <Gold.Id.Protein>
6NUR|6NUR_protein|mol2

> <Gold.PLP.Fitness>
44.7251

> <Gold.PLP.PLP>
-41.8326

> <Gold.PLP.part.hbond>
-1.9404

> <Gold.PLP.part.metal>
0.0000

> <Gold.PLP.part.buried>
-0.6019

> <Gold.PLP.part.nonpolar>
-38.8044

> <Gold.PLP.part.repulsive>
0.1120

> <Gold.PLP.ligand.clash>
0.0000

> <Gold.PLP.ligand.torsion>
1.1565

> <Gold.PLP.Chemscore.Hbond>
0.3920

> <Gold.PLP.Chemscore.CHOScore>
1.3082

> <Gold.PLP.Chemscore.Metal>
0.0000

> <Gold.Chemscore.Hbonds>
donor molecule, donor type, donor heavy atom, donor atom, acceptor molecule, acceptor atom, score
      P1  H  7989  7998       L1    18  0.32
      L1  C    15    38       P1  7948  0.92
      L1  C    17    40       P1  8028  0.41

> <Gold.PLP.Chemscore.Internal.Correction>
0.1050

> <Gold.Rescore>
     Score         DG    S(hbond)    S(metal)    S(lipo)     H(rot)  DE(clash)    DE(int)     intcor
     11.04     -14.95       0.61        0.00     101.17       1.72       0.08       3.82       ----

> <Gold.Chemscore.Fitness>
11.0412

> <Gold.Chemscore.DG>
-14.9463

> <Gold.Chemscore.ZeroCoef>
-5.4800

> <Gold.Chemscore.Hbond>
0.6084

> <Gold.Chemscore.Metal>
0.0000

> <Gold.Chemscore.Lipo>
101.1733

> <Gold.Chemscore.Internal_Hbond>
0.0000

> <Gold.Chemscore.DEClash>
0.0801

> <Gold.Chemscore.DEInternal>
3.8249

> <Gold.Chemscore.Rot>
1.7200

> <Gold.Chemscore.Internal.Correction>
   9.000000E+99

> <Gold.Chemscore.Hbonds>
donor molecule, donor type, donor heavy atom, donor atom, acceptor molecule, acceptor atom, score
      P1  H  7989  7998       L1    18  0.01

> <Gold.Chemscore.Hbond.Weighted>
-2.0321

> <Gold.Chemscore.Metal.Weighted>
-0.0000

> <Gold.Chemscore.Lipo.Weighted>
-11.8373

> <Gold.Chemscore.Internal_Hbond.Weighted>
0.0000

> <Gold.Chemscore.DEClash.Weighted>
0.0801

> <Gold.Chemscore.DEInternal.Weighted>
3.8249

> <Gold.Chemscore.Rot.Weighted>
4.4031

> <Gold.Chemscore.Internal.Correction.Weighted>
   9.000000E+99

> <Gold.Protein.RotatedTorsions>
[ 6907 6896 6895 6894 ] final  -55.29 input  -60.11 | X-H torsion
[ 7974 7965 7964 7962 ] final  146.36 input  175.53 | X-H torsion
[ 8008 7997 7996 7995 ] final   53.18 input   59.86 | X-H torsion
[ 10167 10162 10161 10158 ] final  -62.28 input  -65.29 | X-H torsion
[ 10718 10713 10712 10709 ] final  156.50 input   66.30 | X-H torsion
[ 10763 10752 10751 10750 ] final  -88.60 input  -60.55 | X-H torsion
[ 11005 11000 10999 10996 ] final   -6.54 input  -57.11 | X-H torsion

> <Gold.Protein.ActiveResidues>
 VAL166  LYS551  ARG553  GLY616  TRP617  ASP618  TYR619  PRO620  LYS621  CYS622 
 ASP623  PHE694  ASN695  SER759  ASP760  ASP761  ALA762  ILE779  LEU786  VAL792 
 PHE793  MET794  SER795  GLU796  ALA797  LYS798  CYS799  TRP800  GLU811  SER814 

> <Gold.Protein.RotatedAtoms>
  150.8264  134.7497  159.6816 H   0  0  0  0  0  0  0  0  0  0  0  0  # atno 6907 bound_to 6896
  152.4374  134.5655  159.9916 H   0  0  0  0  0  0  0  0  0  0  0  0  # atno 6908 bound_to 6896
  151.5826  133.3338  159.3047 H   0  0  0  0  0  0  0  0  0  0  0  0  # atno 6909 bound_to 6896
  144.8677  139.5896  143.5901 H   0  0  0  0  0  0  0  0  0  0  0  0  # atno 7974 bound_to 7965
  155.4640  140.3463  155.4316 H   0  0  0  0  0  0  0  0  0  0  0  0  # atno 8008 bound_to 7997
  156.1142  140.1469  156.9324 H   0  0  0  0  0  0  0  0  0  0  0  0  # atno 8009 bound_to 7997
  154.4778  140.0879  156.7282 H   0  0  0  0  0  0  0  0  0  0  0  0  # atno 8010 bound_to 7997
  140.5949  143.2349  151.6057 H   0  0  0  0  0  0  0  0  0  0  0  0  # atno 10167 bound_to 10162
  157.2041  131.0683  151.2008 H   0  0  0  0  0  0  0  0  0  0  0  0  # atno 10718 bound_to 10713
  154.6463  135.5371  153.7849 H   0  0  0  0  0  0  0  0  0  0  0  0  # atno 10763 bound_to 10752
  153.0361  135.6471  154.1083 H   0  0  0  0  0  0  0  0  0  0  0  0  # atno 10764 bound_to 10752
  154.1004  135.2933  155.3232 H   0  0  0  0  0  0  0  0  0  0  0  0  # atno 10765 bound_to 10752
  140.7031  133.8973  155.8697 H   0  0  0  0  0  0  0  0  0  0  0  0  # atno 11005 bound_to 11000
  146.2908  139.7133  142.9162 LP  0  0  0  0  0  0  0  0  0  0  0  0  # atno 17320 bound_to 7965
  145.4190  141.0404  143.2975 LP  0  0  0  0  0  0  0  0  0  0  0  0  # atno 17321 bound_to 7965
  139.5252  144.3082  152.1015 LP  0  0  0  0  0  0  0  0  0  0  0  0  # atno 17342 bound_to 10162
  140.2253  144.4424  150.6324 LP  0  0  0  0  0  0  0  0  0  0  0  0  # atno 17343 bound_to 10162
  157.3738  130.7195  149.6583 LP  0  0  0  0  0  0  0  0  0  0  0  0  # atno 17370 bound_to 10713
  155.9697  130.4191  150.4361 LP  0  0  0  0  0  0  0  0  0  0  0  0  # atno 17371 bound_to 10713
  141.0147  134.0972  157.4184 LP  0  0  0  0  0  0  0  0  0  0  0  0  # atno 17394 bound_to 11000
  139.8891  135.0103  156.6661 LP  0  0  0  0  0  0  0  0  0  0  0  0  # atno 17395 bound_to 11000

$$$$
