AV-unprocessed.smi:1703|AV-procd|sdf|6861|dock4
  -GOLD-   22720 8 53D 1   1.00000     0.00000
 Structure written by MMmdl.
 49 51  0  0  0  0  0  0  0  0  2 V2000
  150.5846  133.5690  155.5588 C   0  0  0  0  0  0  0  0  0  0  0  0
  149.8938  134.8129  154.9895 C   0  0  2  0  0  0  0  0  0  0  0  0
  150.8693  135.9927  154.8264 C   0  0  0  0  0  0  0  0  0  0  0  0
  150.1438  137.1965  154.3558 N   0  3  2  0  0  0  0  0  0  0  0  0
  151.0282  138.3528  154.0620 C   0  0  0  0  0  0  0  0  0  0  0  0
  151.7751  138.8511  155.3146 C   0  0  1  0  0  0  0  0  0  0  0  0
  152.9100  139.5890  154.9020 O   0  0  0  0  0  0  0  0  0  0  0  0
  150.8785  139.7367  156.2033 C   0  0  0  0  0  0  0  0  0  0  0  0
  151.4747  140.0172  157.5032 N   0  0  0  0  0  0  0  0  0  0  0  0
  151.9814  139.1346  158.4010 C   0  0  0  0  0  0  0  0  0  0  0  0
  151.9814  137.6564  158.1584 C   0  0  0  0  0  0  0  0  0  0  0  0
  151.4251  136.9282  159.2318 O   0  0  0  0  0  0  0  0  0  0  0  0
  152.4768  139.6641  159.5198 N   0  0  0  0  0  0  0  0  0  0  0  0
  152.2675  141.0166  159.3350 C   0  0  0  0  0  0  0  0  0  0  0  0
  152.5751  142.1156  160.1686 C   0  0  0  0  0  0  0  0  0  0  0  0
  152.2627  143.4293  159.7622 C   0  0  0  0  0  0  0  0  0  0  0  0
  151.6382  143.6627  158.5200 C   0  0  0  0  0  0  0  0  0  0  0  0
  151.3226  142.5818  157.6743 C   0  0  0  0  0  0  0  0  0  0  0  0
  151.6385  141.2721  158.0834 C   0  0  0  0  0  0  0  0  0  0  0  0
  149.0488  137.5354  155.2945 C   0  0  0  0  0  0  0  0  0  0  0  0
  148.1021  136.3357  155.4955 C   0  0  1  0  0  0  0  0  0  0  0  0
  147.1928  136.0613  154.2842 C   0  0  0  0  0  0  0  0  0  0  0  0
  148.8473  135.1816  155.8846 O   0  0  0  0  0  0  0  0  0  0  0  0
  151.3924  133.2352  154.9069 H   0  0  0  0  0  0  0  0  0  0  0  0
  149.8785  132.7444  155.6609 H   0  0  0  0  0  0  0  0  0  0  0  0
  151.0086  133.7678  156.5435 H   0  0  0  0  0  0  0  0  0  0  0  0
  149.4729  134.5490  154.0192 H   0  0  0  0  0  0  0  0  0  0  0  0
  151.3619  136.2107  155.7753 H   0  0  0  0  0  0  0  0  0  0  0  0
  151.6510  135.7186  154.1187 H   0  0  0  0  0  0  0  0  0  0  0  0
  151.7660  138.0706  153.3088 H   0  0  0  0  0  0  0  0  0  0  0  0
  150.4371  139.1568  153.6208 H   0  0  0  0  0  0  0  0  0  0  0  0
  152.1244  138.0044  155.9040 H   0  0  0  0  0  0  0  0  0  0  0  0
  153.2818  139.1725  154.1391 H   0  0  0  0  0  0  0  0  0  0  0  0
  150.6709  140.6853  155.7062 H   0  0  0  0  0  0  0  0  0  0  0  0
  149.9090  139.2621  156.3550 H   0  0  0  0  0  0  0  0  0  0  0  0
  151.4338  137.4301  157.2441 H   0  0  0  0  0  0  0  0  0  0  0  0
  153.0060  137.3170  158.0021 H   0  0  0  0  0  0  0  0  0  0  0  0
  151.6308  137.3764  160.0378 H   0  0  0  0  0  0  0  0  0  0  0  0
  153.0532  141.9474  161.1222 H   0  0  0  0  0  0  0  0  0  0  0  0
  152.5033  144.2618  160.4073 H   0  0  0  0  0  0  0  0  0  0  0  0
  151.4024  144.6722  158.2165 H   0  0  0  0  0  0  0  0  0  0  0  0
  150.8455  142.7594  156.7225 H   0  0  0  0  0  0  0  0  0  0  0  0
  149.4805  137.8298  156.2526 H   0  0  0  0  0  0  0  0  0  0  0  0
  148.4856  138.3934  154.9247 H   0  0  0  0  0  0  0  0  0  0  0  0
  147.4456  136.5679  156.3346 H   0  0  0  0  0  0  0  0  0  0  0  0
  146.5406  136.9131  154.0905 H   0  0  0  0  0  0  0  0  0  0  0  0
  146.5561  135.1948  154.4645 H   0  0  0  0  0  0  0  0  0  0  0  0
  147.7598  135.8760  153.3723 H   0  0  0  0  0  0  0  0  0  0  0  0
  149.7002  136.9530  153.4811 H   0  0  0  0  0  0  0  0  0  0  0  0
  1  2  1  0  0  0  0
  1 24  1  0  0  0  0
  1 25  1  0  0  0  0
  1 26  1  0  0  0  0
  2 23  1  0  0  0  0
  2  3  1  0  0  0  0
  2 27  1  0  0  0  0
  3  4  1  0  0  0  0
  3 28  1  0  0  0  0
  3 29  1  0  0  0  0
  4  5  1  0  0  0  0
  4 20  1  0  0  0  0
  4 49  1  0  0  0  0
  5  6  1  0  0  0  0
  5 30  1  0  0  0  0
  5 31  1  0  0  0  0
  6  7  1  0  0  0  0
  6  8  1  0  0  0  0
  6 32  1  0  0  0  0
  7 33  1  0  0  0  0
  8  9  1  0  0  0  0
  8 34  1  0  0  0  0
  8 35  1  0  0  0  0
  9 19  1  0  0  0  0
  9 10  1  0  0  0  0
 10 11  1  0  0  0  0
 10 13  2  0  0  0  0
 11 12  1  0  0  0  0
 11 36  1  0  0  0  0
 11 37  1  0  0  0  0
 12 38  1  0  0  0  0
 13 14  1  0  0  0  0
 14 19  2  0  0  0  0
 14 15  1  0  0  0  0
 15 16  2  0  0  0  0
 15 39  1  0  0  0  0
 16 17  1  0  0  0  0
 16 40  1  0  0  0  0
 17 18  2  0  0  0  0
 17 41  1  0  0  0  0
 18 19  1  0  0  0  0
 18 42  1  0  0  0  0
 20 21  1  0  0  0  0
 20 43  1  0  0  0  0
 20 44  1  0  0  0  0
 21 22  1  0  0  0  0
 21 23  1  0  0  0  0
 21 45  1  0  0  0  0
 22 46  1  0  0  0  0
 22 47  1  0  0  0  0
 22 48  1  0  0  0  0
M  CHG  1   4   1
M  END
> <s_m_source_file>
AV-unprocessed.smi

> <i_m_source_file_index>
1703

> <i_lp_mmshare_version>
43012

> <i_f3d_flags>
0

> <s_epik_input>
W0NIM11bQ0BASF0xW0NIMl1OKFtDSDJdW0NASF0oTzEpW0NIM10pW0NIMl1bQ0BIXShbT0hdKVtDSDJdbihjKG4yKVtDSDJdW09IXSljKGMyMylbY0hdW2NIXVtjSF1bY0hdMw==

> <s_epik_cmdline>
J2VwaWtfcHl0aG9uJywgJy1waCcsICc3LjAnLCAnLXRuJywgJzgnLCAnLW1hJywgJzIwMCcsICctbWV0YWxfYmluZGluZycsICctaW1hZScsICc8aW5maWxlLm1hZT4nLCAnLW9tYWUnLCAnPG91dGZpbGUubWFlPic=

> <r_epik_Ionization_Penalty>
0.655661

> <r_epik_Ionization_Penalty_Charging>
0.608065

> <r_epik_Ionization_Penalty_Neutral>
0.0475963

> <r_epik_State_Penalty>
0.695267

> <r_epik_Charging_Adjusted_Penalty>
1.30333

> <i_epik_Tot_Q>
1

> <i_epik_Tot_abs_Q>
1

> <r_epik_Metal_State_Penalty>
0.653591

> <b_epik_Metal_Only>
0

> <s_lp_Force_Field>
OPLS_2005

> <r_lp_Energy>
24.4185

> <b_lp_Chiralities_Consistent>
1

> <s_lp_Variant>
AV-unprocessed.smi:1703-9

> <Gold.Version>
5.8.1

> <Gold.Id.Protein>
6NUR|6NUR_protein|mol2

> <Gold.PLP.Fitness>
52.9441

> <Gold.PLP.PLP>
-41.4168

> <Gold.PLP.part.hbond>
-4.0000

> <Gold.PLP.part.metal>
0.0000

> <Gold.PLP.part.buried>
-6.5413

> <Gold.PLP.part.nonpolar>
-31.3515

> <Gold.PLP.part.repulsive>
0.0683

> <Gold.PLP.ligand.clash>
0.0000

> <Gold.PLP.ligand.torsion>
0.3867

> <Gold.PLP.Chemscore.Hbond>
4.0745

> <Gold.PLP.Chemscore.CHOScore>
0.0000

> <Gold.PLP.Chemscore.Metal>
0.0000

> <Gold.Chemscore.Hbonds>
donor molecule, donor type, donor heavy atom, donor atom, acceptor molecule, acceptor atom, score
      L1  H     4    49       P1  7948  2.00
      P1  H  6896  6908       L1    12  0.85
      P1  H  7989  7998       L1     7  0.05
      P1  H  7997  8009       L1     7  1.00

> <Gold.PLP.Chemscore.Internal.Correction>
0.0771

> <Gold.Rescore>
     Score         DG    S(hbond)    S(metal)    S(lipo)     H(rot)  DE(clash)    DE(int)     intcor
     18.27     -18.90       2.46        0.00     109.42       2.96       0.12       0.51       ----

> <Gold.Chemscore.Fitness>
18.2730

> <Gold.Chemscore.DG>
-18.9016

> <Gold.Chemscore.ZeroCoef>
-5.4800

> <Gold.Chemscore.Hbond>
2.4551

> <Gold.Chemscore.Metal>
0.0000

> <Gold.Chemscore.Lipo>
109.4170

> <Gold.Chemscore.Internal_Hbond>
0.0000

> <Gold.Chemscore.DEClash>
0.1232

> <Gold.Chemscore.DEInternal>
0.5054

> <Gold.Chemscore.Rot>
2.9611

> <Gold.Chemscore.Internal.Correction>
   9.000000E+99

> <Gold.Chemscore.Hbonds>
donor molecule, donor type, donor heavy atom, donor atom, acceptor molecule, acceptor atom, score
      L1  H     4    49       P1  7948  0.65
      P1  H  6896  6908       L1    12  0.14
      P1  H  7997  8009       L1     7  0.39

> <Gold.Chemscore.Hbond.Weighted>
-8.2002

> <Gold.Chemscore.Metal.Weighted>
-0.0000

> <Gold.Chemscore.Lipo.Weighted>
-12.8018

> <Gold.Chemscore.Internal_Hbond.Weighted>
0.0000

> <Gold.Chemscore.DEClash.Weighted>
0.1232

> <Gold.Chemscore.DEInternal.Weighted>
0.5054

> <Gold.Chemscore.Rot.Weighted>
7.5803

> <Gold.Chemscore.Internal.Correction.Weighted>
   9.000000E+99

> <Gold.Protein.RotatedTorsions>
[ 6907 6896 6895 6894 ] final -128.14 input  -60.11 | X-H torsion
[ 7974 7965 7964 7962 ] final  177.82 input  175.53 | X-H torsion
[ 8008 7997 7996 7995 ] final -133.56 input   59.86 | X-H torsion
[ 10167 10162 10161 10158 ] final  -57.29 input  -65.29 | X-H torsion
[ 10718 10713 10712 10709 ] final  155.90 input   66.30 | X-H torsion
[ 10763 10752 10751 10750 ] final -132.46 input  -60.55 | X-H torsion
[ 11005 11000 10999 10996 ] final -119.90 input  -57.11 | X-H torsion

> <Gold.Protein.ActiveResidues>
 VAL166  LYS551  ARG553  GLY616  TRP617  ASP618  TYR619  PRO620  LYS621  CYS622 
 ASP623  PHE694  ASN695  SER759  ASP760  ASP761  ALA762  ILE779  LEU786  VAL792 
 PHE793  MET794  SER795  GLU796  ALA797  LYS798  CYS799  TRP800  GLU811  SER814 

> <Gold.Protein.RotatedAtoms>
  150.9147  133.6954  159.2846 H   0  0  0  0  0  0  0  0  0  0  0  0  # atno 6907 bound_to 6896
  151.4429  135.1021  159.9685 H   0  0  0  0  0  0  0  0  0  0  0  0  # atno 6908 bound_to 6896
  152.4948  133.8551  159.7276 H   0  0  0  0  0  0  0  0  0  0  0  0  # atno 6909 bound_to 6896
  144.7164  140.0304  143.6439 H   0  0  0  0  0  0  0  0  0  0  0  0  # atno 7974 bound_to 7965
  155.3476  140.0475  157.3046 H   0  0  0  0  0  0  0  0  0  0  0  0  # atno 8008 bound_to 7997
  154.5244  140.2236  155.8881 H   0  0  0  0  0  0  0  0  0  0  0  0  # atno 8009 bound_to 7997
  156.1724  140.3093  155.9003 H   0  0  0  0  0  0  0  0  0  0  0  0  # atno 8010 bound_to 7997
  140.6267  143.2441  151.5345 H   0  0  0  0  0  0  0  0  0  0  0  0  # atno 10167 bound_to 10162
  157.2122  131.0700  151.1962 H   0  0  0  0  0  0  0  0  0  0  0  0  # atno 10718 bound_to 10713
  154.8743  135.3797  154.4413 H   0  0  0  0  0  0  0  0  0  0  0  0  # atno 10763 bound_to 10752
  153.5098  135.7030  153.5792 H   0  0  0  0  0  0  0  0  0  0  0  0  # atno 10764 bound_to 10752
  153.4087  135.3930  155.2002 H   0  0  0  0  0  0  0  0  0  0  0  0  # atno 10765 bound_to 10752
  141.0182  134.0164  157.3320 H   0  0  0  0  0  0  0  0  0  0  0  0  # atno 11005 bound_to 11000
  146.0107  139.3167  143.0872 LP  0  0  0  0  0  0  0  0  0  0  0  0  # atno 17320 bound_to 7965
  145.8685  140.9434  143.0663 LP  0  0  0  0  0  0  0  0  0  0  0  0  # atno 17321 bound_to 7965
  139.5486  144.2454  152.1489 LP  0  0  0  0  0  0  0  0  0  0  0  0  # atno 17342 bound_to 10162
  140.1687  144.4956  150.6591 LP  0  0  0  0  0  0  0  0  0  0  0  0  # atno 17343 bound_to 10162
  157.3660  130.7156  149.6533 LP  0  0  0  0  0  0  0  0  0  0  0  0  # atno 17370 bound_to 10713
  155.9689  130.4212  150.4458 LP  0  0  0  0  0  0  0  0  0  0  0  0  # atno 17371 bound_to 10713
  139.9130  135.0193  156.7768 LP  0  0  0  0  0  0  0  0  0  0  0  0  # atno 17394 bound_to 11000
  140.6618  133.9638  155.7809 LP  0  0  0  0  0  0  0  0  0  0  0  0  # atno 17395 bound_to 11000

$$$$
