AV-unprocessed.smi:91|AV-procd|sdf|835|dock2
  -GOLD-   2262017263D 1   1.00000     0.00000
 Structure written by MMmdl.
 60 63  0  0  0  0  0  0  0  0  1 V2000
  148.4806  132.9598  152.9095 C   0  0  0  0  0  0  0  0  0  0  0  0
  149.0346  132.0847  153.8759 O   0  0  0  0  0  0  0  0  0  0  0  0
  150.1582  132.6452  154.5370 C   0  0  0  0  0  0  0  0  0  0  0  0
  149.7326  133.8764  155.3490 C   0  0  2  0  0  0  0  0  0  0  0  0
  150.9013  134.8331  155.6432 C   0  0  0  0  0  0  0  0  0  0  0  0
  150.4527  135.9182  156.5064 N   0  0  0  0  0  0  0  0  0  0  0  0
  151.3043  136.9724  156.5839 C   0  0  0  0  0  0  0  0  0  0  0  0
  151.5881  137.7020  155.4712 N   0  0  0  0  0  0  0  0  0  0  0  0
  152.4145  138.7497  155.5414 C   0  0  0  0  0  0  0  0  0  0  0  0
  153.0584  139.2345  156.6045 N   0  0  0  0  0  0  0  0  0  0  0  0
  152.7867  138.5013  157.7215 C   0  0  0  0  0  0  0  0  0  0  0  0
  151.9318  137.3659  157.8000 C   0  0  0  0  0  0  0  0  0  0  0  0
  151.9158  136.8769  159.1016 N   0  0  0  0  0  0  0  0  0  0  0  0
  152.7075  137.6823  159.7559 C   0  0  0  0  0  0  0  0  0  0  0  0
  153.2665  138.6907  159.0045 N   0  0  0  0  0  0  0  0  0  0  0  0
  154.1730  139.7256  159.4685 C   0  0  0  0  0  0  0  0  0  0  0  0
  153.5559  140.6257  160.5674 C   0  0  1  0  0  0  0  0  0  0  0  0
  154.3885  140.6292  161.8726 C   0  0  0  0  0  0  0  0  0  0  0  0
  155.7671  140.7884  161.6063 O   0  0  0  0  0  0  0  0  0  0  0  0
  153.2769  142.0551  160.0384 C   0  0  2  0  0  0  0  0  0  0  0  0
  152.5707  142.9762  161.0177 C   0  0  0  0  0  0  0  0  0  0  0  0
  152.0291  144.0681  160.1018 C   0  0  0  0  0  0  0  0  0  0  0  0
  151.7470  143.4268  158.8631 O   0  0  0  0  0  0  0  0  0  0  0  0
  152.3055  142.1169  158.8547 C   0  0  0  0  0  0  0  0  0  0  0  0
  149.8390  135.4389  157.7423 C   0  0  0  0  0  0  0  0  0  0  0  0
  148.6769  134.4634  157.4482 C   0  0  0  0  0  0  0  0  0  0  0  0
  148.2673  133.7434  158.7424 C   0  0  0  0  0  0  0  0  0  0  0  0
  147.4475  135.1905  156.8625 C   0  0  0  0  0  0  0  0  0  0  0  0
  149.1325  133.4315  156.5661 O   0  0  0  0  0  0  0  0  0  0  0  0
  147.6229  132.4846  152.4338 H   0  0  0  0  0  0  0  0  0  0  0  0
  149.2070  133.1990  152.1316 H   0  0  0  0  0  0  0  0  0  0  0  0
  148.1394  133.8889  153.3680 H   0  0  0  0  0  0  0  0  0  0  0  0
  150.5976  131.9013  155.2038 H   0  0  0  0  0  0  0  0  0  0  0  0
  150.9244  132.9241  153.8119 H   0  0  0  0  0  0  0  0  0  0  0  0
  148.9830  134.4043  154.7597 H   0  0  0  0  0  0  0  0  0  0  0  0
  151.7095  134.3024  156.1481 H   0  0  0  0  0  0  0  0  0  0  0  0
  151.3083  135.2076  154.7045 H   0  0  0  0  0  0  0  0  0  0  0  0
  152.5829  139.2753  154.6129 H   0  0  0  0  0  0  0  0  0  0  0  0
  152.9011  137.5676  160.8128 H   0  0  0  0  0  0  0  0  0  0  0  0
  155.0833  139.2495  159.8348 H   0  0  0  0  0  0  0  0  0  0  0  0
  154.4649  140.3198  158.6024 H   0  0  0  0  0  0  0  0  0  0  0  0
  152.5903  140.1886  160.8267 H   0  0  0  0  0  0  0  0  0  0  0  0
  154.0661  141.4295  162.5381 H   0  0  0  0  0  0  0  0  0  0  0  0
  154.2441  139.7041  162.4305 H   0  0  0  0  0  0  0  0  0  0  0  0
  155.9195  140.6034  160.6921 H   0  0  0  0  0  0  0  0  0  0  0  0
  154.2155  142.5243  159.7391 H   0  0  0  0  0  0  0  0  0  0  0  0
  151.7462  142.4547  161.5060 H   0  0  0  0  0  0  0  0  0  0  0  0
  153.2299  143.3734  161.7900 H   0  0  0  0  0  0  0  0  0  0  0  0
  151.1439  144.5546  160.5117 H   0  0  0  0  0  0  0  0  0  0  0  0
  152.7882  144.8326  159.9317 H   0  0  0  0  0  0  0  0  0  0  0  0
  152.7931  141.9064  157.9025 H   0  0  0  0  0  0  0  0  0  0  0  0
  151.4930  141.3997  158.9822 H   0  0  0  0  0  0  0  0  0  0  0  0
  150.6038  134.9355  158.3360 H   0  0  0  0  0  0  0  0  0  0  0  0
  149.4746  136.2793  158.3352 H   0  0  0  0  0  0  0  0  0  0  0  0
  147.9228  134.4501  159.4981 H   0  0  0  0  0  0  0  0  0  0  0  0
  149.1045  133.1881  159.1667 H   0  0  0  0  0  0  0  0  0  0  0  0
  147.4612  133.0320  158.5608 H   0  0  0  0  0  0  0  0  0  0  0  0
  147.0279  135.8903  157.5856 H   0  0  0  0  0  0  0  0  0  0  0  0
  146.6623  134.4821  156.5970 H   0  0  0  0  0  0  0  0  0  0  0  0
  147.6888  135.7668  155.9700 H   0  0  0  0  0  0  0  0  0  0  0  0
  1  2  1  0  0  0  0
  1 30  1  0  0  0  0
  1 31  1  0  0  0  0
  1 32  1  0  0  0  0
  2  3  1  0  0  0  0
  3  4  1  0  0  0  0
  3 33  1  0  0  0  0
  3 34  1  0  0  0  0
  4 29  1  0  0  0  0
  4  5  1  0  0  0  0
  4 35  1  0  0  0  0
  5  6  1  0  0  0  0
  5 36  1  0  0  0  0
  5 37  1  0  0  0  0
  6  7  1  0  0  0  0
  6 25  1  0  0  0  0
  7 12  1  0  0  0  0
  7  8  2  0  0  0  0
  8  9  1  0  0  0  0
  9 10  2  0  0  0  0
  9 38  1  0  0  0  0
 10 11  1  0  0  0  0
 11 15  1  0  0  0  0
 11 12  2  0  0  0  0
 12 13  1  0  0  0  0
 13 14  2  0  0  0  0
 14 15  1  0  0  0  0
 14 39  1  0  0  0  0
 15 16  1  0  0  0  0
 16 17  1  0  0  0  0
 16 40  1  0  0  0  0
 16 41  1  0  0  0  0
 17 18  1  0  0  0  0
 17 20  1  0  0  0  0
 17 42  1  0  0  0  0
 18 19  1  0  0  0  0
 18 43  1  0  0  0  0
 18 44  1  0  0  0  0
 19 45  1  0  0  0  0
 20 24  1  0  0  0  0
 20 21  1  0  0  0  0
 20 46  1  0  0  0  0
 21 22  1  0  0  0  0
 21 47  1  0  0  0  0
 21 48  1  0  0  0  0
 22 23  1  0  0  0  0
 22 49  1  0  0  0  0
 22 50  1  0  0  0  0
 23 24  1  0  0  0  0
 24 51  1  0  0  0  0
 24 52  1  0  0  0  0
 25 26  1  0  0  0  0
 25 53  1  0  0  0  0
 25 54  1  0  0  0  0
 26 27  1  0  0  0  0
 26 28  1  0  0  0  0
 26 29  1  0  0  0  0
 27 55  1  0  0  0  0
 27 56  1  0  0  0  0
 27 57  1  0  0  0  0
 28 58  1  0  0  0  0
 28 59  1  0  0  0  0
 28 60  1  0  0  0  0
M  END
> <s_m_source_file>
AV-unprocessed.smi

> <i_m_source_file_index>
91

> <i_lp_mmshare_version>
43012

> <i_f3d_flags>
0

> <s_epik_input>
W0NIM11PW0NIMl1bQ0BASF0oTzEpW0NIMl1OKFtDSDJdQzEoW0NIM10pW0NIM10pYyhuW2NIXW4yKWMoYzIzKW5bY0hdbjNbQ0gyXVtDQEhdKFtDSDJdW09IXSlbQ0BASF00W0NIMl1bQ0gyXU9bQ0gyXTQ=

> <s_epik_cmdline>
J2VwaWtfcHl0aG9uJywgJy1waCcsICc3LjAnLCAnLXRuJywgJzgnLCAnLW1hJywgJzIwMCcsICctbWV0YWxfYmluZGluZycsICctaW1hZScsICc8aW5maWxlLm1hZT4nLCAnLW9tYWUnLCAnPG91dGZpbGUubWFlPic=

> <r_lp_tautomer_probability>
1

> <r_epik_Ionization_Penalty>
8.63591e-05

> <r_epik_Ionization_Penalty_Charging>
0

> <r_epik_Ionization_Penalty_Neutral>
8.63591e-05

> <r_epik_State_Penalty>
-0

> <r_epik_Charging_Adjusted_Penalty>
0

> <i_epik_Tot_Q>
0

> <i_epik_Tot_abs_Q>
0

> <r_epik_Metal_State_Penalty>
-0

> <b_epik_Metal_Only>
0

> <s_lp_Force_Field>
OPLS_2005

> <r_lp_Energy>
46.4326

> <b_lp_Chiralities_Consistent>
1

> <s_lp_Variant>
AV-unprocessed.smi:91-3

> <Gold.Version>
5.8.1

> <Gold.Id.Protein>
6NUR|6NUR_protein|mol2

> <Gold.PLP.Fitness>
48.7487

> <Gold.PLP.PLP>
-45.0182

> <Gold.PLP.part.hbond>
-3.0000

> <Gold.PLP.part.metal>
0.0000

> <Gold.PLP.part.buried>
-7.7078

> <Gold.PLP.part.nonpolar>
-36.1147

> <Gold.PLP.part.repulsive>
0.1818

> <Gold.PLP.ligand.clash>
0.0000

> <Gold.PLP.ligand.torsion>
1.3847

> <Gold.PLP.Chemscore.Hbond>
1.9425

> <Gold.PLP.Chemscore.CHOScore>
0.0000

> <Gold.PLP.Chemscore.Metal>
0.0000

> <Gold.Chemscore.Hbonds>
donor molecule, donor type, donor heavy atom, donor atom, acceptor molecule, acceptor atom, score
      P1  H  6896  6909       L1    13  0.90
      P1  H  7997  8010       L1    10  1.00

> <Gold.PLP.Chemscore.Internal.Correction>
0.6723

> <Gold.Rescore>
     Score         DG    S(hbond)    S(metal)    S(lipo)     H(rot)  DE(clash)    DE(int)     intcor
     12.02     -14.77       1.77        0.00      95.27       3.03       0.09       2.66       ----

> <Gold.Chemscore.Fitness>
12.0218

> <Gold.Chemscore.DG>
-14.7727

> <Gold.Chemscore.ZeroCoef>
-5.4800

> <Gold.Chemscore.Hbond>
1.7661

> <Gold.Chemscore.Metal>
0.0000

> <Gold.Chemscore.Lipo>
95.2717

> <Gold.Chemscore.Internal_Hbond>
0.0000

> <Gold.Chemscore.DEClash>
0.0871

> <Gold.Chemscore.DEInternal>
2.6639

> <Gold.Chemscore.Rot>
3.0284

> <Gold.Chemscore.Internal.Correction>
   9.000000E+99

> <Gold.Chemscore.Hbonds>
donor molecule, donor type, donor heavy atom, donor atom, acceptor molecule, acceptor atom, score
      P1  H  6896  6909       L1    13  0.83
      P1  H  7997  8010       L1    10  0.93

> <Gold.Chemscore.Hbond.Weighted>
-5.8988

> <Gold.Chemscore.Metal.Weighted>
-0.0000

> <Gold.Chemscore.Lipo.Weighted>
-11.1468

> <Gold.Chemscore.Internal_Hbond.Weighted>
0.0000

> <Gold.Chemscore.DEClash.Weighted>
0.0871

> <Gold.Chemscore.DEInternal.Weighted>
2.6639

> <Gold.Chemscore.Rot.Weighted>
7.7528

> <Gold.Chemscore.Internal.Correction.Weighted>
   9.000000E+99

> <Gold.Protein.RotatedTorsions>
[ 6907 6896 6895 6894 ] final  107.77 input  -60.11 | X-H torsion
[ 7974 7965 7964 7962 ] final -140.87 input  175.53 | X-H torsion
[ 8008 7997 7996 7995 ] final   69.64 input   59.86 | X-H torsion
[ 10167 10162 10161 10158 ] final -156.27 input  -65.29 | X-H torsion
[ 10718 10713 10712 10709 ] final -154.04 input   66.30 | X-H torsion
[ 10763 10752 10751 10750 ] final  -51.64 input  -60.55 | X-H torsion
[ 11005 11000 10999 10996 ] final    4.44 input  -57.11 | X-H torsion

> <Gold.Protein.ActiveResidues>
 VAL166  LYS551  ARG553  GLY616  TRP617  ASP618  TYR619  PRO620  LYS621  CYS622 
 ASP623  PHE694  ASN695  SER759  ASP760  ASP761  ALA762  ILE779  LEU786  VAL792 
 PHE793  MET794  SER795  GLU796  ALA797  LYS798  CYS799  TRP800  GLU811  SER814 

> <Gold.Protein.RotatedAtoms>
  152.5140  133.9185  159.7522 H   0  0  0  0  0  0  0  0  0  0  0  0  # atno 6907 bound_to 6896
  150.9562  133.6486  159.2769 H   0  0  0  0  0  0  0  0  0  0  0  0  # atno 6908 bound_to 6896
  151.3747  135.0934  159.9529 H   0  0  0  0  0  0  0  0  0  0  0  0  # atno 6909 bound_to 6896
  144.8563  140.6147  143.5357 H   0  0  0  0  0  0  0  0  0  0  0  0  # atno 7974 bound_to 7965
  155.7268  140.3492  155.5041 H   0  0  0  0  0  0  0  0  0  0  0  0  # atno 8008 bound_to 7997
  155.9219  140.1069  157.1221 H   0  0  0  0  0  0  0  0  0  0  0  0  # atno 8009 bound_to 7997
  154.4071  140.1248  156.4678 H   0  0  0  0  0  0  0  0  0  0  0  0  # atno 8010 bound_to 7997
  139.6863  143.9495  152.2363 H   0  0  0  0  0  0  0  0  0  0  0  0  # atno 10167 bound_to 10162
  156.4940  130.8360  151.2582 H   0  0  0  0  0  0  0  0  0  0  0  0  # atno 10718 bound_to 10713
  154.1298  135.6522  153.4920 H   0  0  0  0  0  0  0  0  0  0  0  0  # atno 10763 bound_to 10752
  153.0198  135.5290  154.7012 H   0  0  0  0  0  0  0  0  0  0  0  0  # atno 10764 bound_to 10752
  154.6244  135.2968  155.0260 H   0  0  0  0  0  0  0  0  0  0  0  0  # atno 10765 bound_to 10752
  140.5819  134.0005  155.8051 H   0  0  0  0  0  0  0  0  0  0  0  0  # atno 11005 bound_to 11000
  145.4400  139.1537  143.3975 LP  0  0  0  0  0  0  0  0  0  0  0  0  # atno 17320 bound_to 7965
  146.2825  140.4521  142.8770 LP  0  0  0  0  0  0  0  0  0  0  0  0  # atno 17321 bound_to 7965
  139.9299  144.6748  150.8374 LP  0  0  0  0  0  0  0  0  0  0  0  0  # atno 17342 bound_to 10162
  140.7669  143.3316  151.2398 LP  0  0  0  0  0  0  0  0  0  0  0  0  # atno 17343 bound_to 10162
  157.7470  131.0004  150.2925 LP  0  0  0  0  0  0  0  0  0  0  0  0  # atno 17370 bound_to 10713
  156.3399  130.3813  149.7418 LP  0  0  0  0  0  0  0  0  0  0  0  0  # atno 17371 bound_to 10713
  141.0991  133.9797  157.3110 LP  0  0  0  0  0  0  0  0  0  0  0  0  # atno 17394 bound_to 11000
  139.9313  135.0199  156.8410 LP  0  0  0  0  0  0  0  0  0  0  0  0  # atno 17395 bound_to 11000

$$$$
