AV-unprocessed.smi:2784|AV-procd|sdf|10737|dock3
  -GOLD-   2272015173D 1   1.00000     0.00000
 Structure written by MMmdl.
 31 32  0  0  0  0  0  0  0  0  1 V2000
  148.2915  145.1099  160.7939 C   0  0  0  0  0  0  0  0  0  0  0  0
  148.9821  143.9597  160.3341 O   0  0  0  0  0  0  0  0  0  0  0  0
  149.9918  144.2457  159.3756 C   0  0  1  0  0  0  0  0  0  0  0  0
  150.9238  145.3718  159.8431 C   0  0  0  0  0  0  0  0  0  0  0  0
  152.2735  145.0310  159.2219 C   0  0  0  0  0  0  0  0  0  0  0  0
  152.3457  143.5082  159.3193 C   0  0  0  0  0  0  0  0  0  0  0  0
  150.8969  143.0086  159.1731 C   0  0  2  0  0  0  0  0  0  0  0  0
  150.7015  142.4078  157.8559 N   0  0  0  0  0  0  0  0  0  0  0  0
  151.2763  141.2738  157.4285 C   0  0  0  0  0  0  0  0  0  0  0  0
  152.0573  140.6321  158.1385 O   0  0  0  0  0  0  0  0  0  0  0  0
  150.8941  141.0005  156.1246 N   0  0  0  0  0  0  0  0  0  0  0  0
  151.1257  139.8216  155.6345 C   0  0  0  0  0  0  0  0  0  0  0  0
  151.7444  138.6868  156.1529 N   0  0  0  0  0  0  0  0  0  0  0  0
  151.7283  137.7163  155.1907 C   0  0  0  0  0  0  0  0  0  0  0  0
  151.1279  138.2138  154.1136 C   0  0  0  0  0  0  0  0  0  0  0  0
  150.7482  139.5002  154.3553 O   0  0  0  0  0  0  0  0  0  0  0  0
  147.5281  144.8120  161.5125 H   0  0  0  0  0  0  0  0  0  0  0  0
  147.7940  145.6250  159.9713 H   0  0  0  0  0  0  0  0  0  0  0  0
  148.9625  145.8109  161.2914 H   0  0  0  0  0  0  0  0  0  0  0  0
  149.5393  144.5291  158.4227 H   0  0  0  0  0  0  0  0  0  0  0  0
  150.5667  146.3607  159.5551 H   0  0  0  0  0  0  0  0  0  0  0  0
  151.0136  145.3535  160.9302 H   0  0  0  0  0  0  0  0  0  0  0  0
  152.2849  145.3353  158.1744 H   0  0  0  0  0  0  0  0  0  0  0  0
  153.1054  145.5247  159.7245 H   0  0  0  0  0  0  0  0  0  0  0  0
  153.0302  143.0802  158.5859 H   0  0  0  0  0  0  0  0  0  0  0  0
  152.7212  143.2320  160.3055 H   0  0  0  0  0  0  0  0  0  0  0  0
  150.7083  142.2572  159.9427 H   0  0  0  0  0  0  0  0  0  0  0  0
  150.0816  142.8907  157.2217 H   0  0  0  0  0  0  0  0  0  0  0  0
  152.1499  138.5596  157.0694 H   0  0  0  0  0  0  0  0  0  0  0  0
  152.1612  136.7462  155.3851 H   0  0  0  0  0  0  0  0  0  0  0  0
  150.9047  137.7997  153.1414 H   0  0  0  0  0  0  0  0  0  0  0  0
  1  2  1  0  0  0  0
  1 17  1  0  0  0  0
  1 18  1  0  0  0  0
  1 19  1  0  0  0  0
  2  3  1  0  0  0  0
  3  7  1  0  0  0  0
  3  4  1  0  0  0  0
  3 20  1  0  0  0  0
  4  5  1  0  0  0  0
  4 21  1  0  0  0  0
  4 22  1  0  0  0  0
  5  6  1  0  0  0  0
  5 23  1  0  0  0  0
  5 24  1  0  0  0  0
  6  7  1  0  0  0  0
  6 25  1  0  0  0  0
  6 26  1  0  0  0  0
  7  8  1  0  0  0  0
  7 27  1  0  0  0  0
  8 28  1  0  0  0  0
  8  9  1  0  0  0  0
  9 11  1  0  0  0  0
  9 10  2  0  0  0  0
 11 12  2  0  0  0  0
 12 16  1  0  0  0  0
 12 13  1  0  0  0  0
 13 29  1  0  0  0  0
 13 14  1  0  0  0  0
 14 30  1  0  0  0  0
 14 15  2  0  0  0  0
 15 31  1  0  0  0  0
 15 16  1  0  0  0  0
M  END
> <s_m_source_file>
AV-unprocessed.smi

> <i_m_source_file_index>
2784

> <i_lp_mmshare_version>
43012

> <i_f3d_flags>
0

> <s_epik_input>
W0NIM11PW0NAQEhdMVtDSDJdW0NIMl1bQ0gyXVtDQEhdMVtOSF1DKD1PKVtOSF1jMm5bY0hdW2NIXW8y

> <s_epik_cmdline>
J2VwaWtfcHl0aG9uJywgJy1waCcsICc3LjAnLCAnLXRuJywgJzgnLCAnLW1hJywgJzIwMCcsICctbWV0YWxfYmluZGluZycsICctaW1hZScsICc8aW5maWxlLm1hZT4nLCAnLW9tYWUnLCAnPG91dGZpbGUubWFlPic=

> <r_lp_tautomer_probability>
0.107061

> <r_epik_Ionization_Penalty>
1.29244

> <r_epik_Ionization_Penalty_Charging>
1.29208

> <r_epik_Ionization_Penalty_Neutral>
0.000359742

> <r_epik_State_Penalty>
2.59896

> <r_epik_Charging_Adjusted_Penalty>
3.89105

> <i_epik_Tot_Q>
0

> <i_epik_Tot_abs_Q>
0

> <r_epik_Metal_State_Penalty>
3.62496

> <b_epik_Metal_Only>
0

> <s_lp_Force_Field>
OPLS_2005

> <r_lp_Energy>
42.837

> <b_lp_Chiralities_Consistent>
1

> <s_lp_Variant>
AV-unprocessed.smi:2784-12

> <Gold.Version>
5.8.1

> <Gold.Id.Protein>
6NUR|6NUR_protein|mol2

> <Gold.PLP.Fitness>
40.1329

> <Gold.PLP.PLP>
-32.4789

> <Gold.PLP.part.hbond>
-2.0000

> <Gold.PLP.part.metal>
0.0000

> <Gold.PLP.part.buried>
-7.7013

> <Gold.PLP.part.nonpolar>
-24.4329

> <Gold.PLP.part.repulsive>
0.4890

> <Gold.PLP.ligand.clash>
0.0000

> <Gold.PLP.ligand.torsion>
0.1513

> <Gold.PLP.Chemscore.Hbond>
1.5580

> <Gold.PLP.Chemscore.CHOScore>
1.0922

> <Gold.PLP.Chemscore.Metal>
0.0000

> <Gold.Chemscore.Hbonds>
donor molecule, donor type, donor heavy atom, donor atom, acceptor molecule, acceptor atom, score
      P1  H  6933  6944       L1     2  0.64
      P1  H  7989  7998       L1    16  0.90
      L1  C    15    31       P1  7948  0.13
      L1  C    15    31       P1  7949  0.95

> <Gold.PLP.Chemscore.Internal.Correction>
0.0059

> <Gold.Rescore>
     Score         DG    S(hbond)    S(metal)    S(lipo)     H(rot)  DE(clash)    DE(int)     intcor
     15.45     -15.58       1.71        0.00      66.38       1.32       0.00       0.12       ----

> <Gold.Chemscore.Fitness>
15.4495

> <Gold.Chemscore.DG>
-15.5755

> <Gold.Chemscore.ZeroCoef>
-5.4800

> <Gold.Chemscore.Hbond>
1.7117

> <Gold.Chemscore.Metal>
0.0000

> <Gold.Chemscore.Lipo>
66.3815

> <Gold.Chemscore.Internal_Hbond>
0.0000

> <Gold.Chemscore.DEClash>
0.0038

> <Gold.Chemscore.DEInternal>
0.1222

> <Gold.Chemscore.Rot>
1.3235

> <Gold.Chemscore.Internal.Correction>
   9.000000E+99

> <Gold.Chemscore.Hbonds>
donor molecule, donor type, donor heavy atom, donor atom, acceptor molecule, acceptor atom, score
      P1  H  6933  6944       L1     2  0.49
      P1  H  7989  7998       L1    16  0.17

> <Gold.Chemscore.Hbond.Weighted>
-5.7170

> <Gold.Chemscore.Metal.Weighted>
-0.0000

> <Gold.Chemscore.Lipo.Weighted>
-7.7666

> <Gold.Chemscore.Internal_Hbond.Weighted>
0.0000

> <Gold.Chemscore.DEClash.Weighted>
0.0038

> <Gold.Chemscore.DEInternal.Weighted>
0.1222

> <Gold.Chemscore.Rot.Weighted>
3.3882

> <Gold.Chemscore.Internal.Correction.Weighted>
   9.000000E+99

> <Gold.Protein.RotatedTorsions>
[ 6907 6896 6895 6894 ] final   13.12 input  -60.11 | X-H torsion
[ 7974 7965 7964 7962 ] final   58.60 input  175.53 | X-H torsion
[ 8008 7997 7996 7995 ] final   84.80 input   59.86 | X-H torsion
[ 10167 10162 10161 10158 ] final  142.06 input  -65.29 | X-H torsion
[ 10718 10713 10712 10709 ] final  135.61 input   66.30 | X-H torsion
[ 10763 10752 10751 10750 ] final   21.27 input  -60.55 | X-H torsion
[ 11005 11000 10999 10996 ] final   75.12 input  -57.11 | X-H torsion

> <Gold.Protein.ActiveResidues>
 VAL166  LYS551  ARG553  GLY616  TRP617  ASP618  TYR619  PRO620  LYS621  CYS622 
 ASP623  PHE694  ASN695  SER759  ASP760  ASP761  ALA762  ILE779  LEU786  VAL792 
 PHE793  MET794  SER795  GLU796  ALA797  LYS798  CYS799  TRP800  GLU811  SER814 

> <Gold.Protein.RotatedAtoms>
  151.7813  135.0761  160.0373 H   0  0  0  0  0  0  0  0  0  0  0  0  # atno 6907 bound_to 6896
  152.3221  133.5860  159.5760 H   0  0  0  0  0  0  0  0  0  0  0  0  # atno 6908 bound_to 6896
  150.7375  133.9911  159.3649 H   0  0  0  0  0  0  0  0  0  0  0  0  # atno 6909 bound_to 6896
  145.9163  139.3694  143.0505 H   0  0  0  0  0  0  0  0  0  0  0  0  # atno 7974 bound_to 7965
  155.9417  140.3407  155.6333 H   0  0  0  0  0  0  0  0  0  0  0  0  # atno 8008 bound_to 7997
  155.7031  140.0762  157.2421 H   0  0  0  0  0  0  0  0  0  0  0  0  # atno 8009 bound_to 7997
  154.4104  140.1636  156.2200 H   0  0  0  0  0  0  0  0  0  0  0  0  # atno 8010 bound_to 7997
  139.5004  144.6132  151.6225 H   0  0  0  0  0  0  0  0  0  0  0  0  # atno 10167 bound_to 10162
  157.4552  131.1069  150.9986 H   0  0  0  0  0  0  0  0  0  0  0  0  # atno 10718 bound_to 10713
  153.1009  135.6672  153.9675 H   0  0  0  0  0  0  0  0  0  0  0  0  # atno 10763 bound_to 10752
  153.9246  135.3010  155.3448 H   0  0  0  0  0  0  0  0  0  0  0  0  # atno 10764 bound_to 10752
  154.7429  135.5071  153.9229 H   0  0  0  0  0  0  0  0  0  0  0  0  # atno 10765 bound_to 10752
  139.9358  134.7491  156.1232 H   0  0  0  0  0  0  0  0  0  0  0  0  # atno 11005 bound_to 11000
  145.8607  140.9477  143.0702 LP  0  0  0  0  0  0  0  0  0  0  0  0  # atno 17320 bound_to 7965
  144.6748  140.0526  143.7478 LP  0  0  0  0  0  0  0  0  0  0  0  0  # atno 17321 bound_to 7965
  140.5812  143.9942  150.6269 LP  0  0  0  0  0  0  0  0  0  0  0  0  # atno 17342 bound_to 10162
  140.3092  143.3209  152.0895 LP  0  0  0  0  0  0  0  0  0  0  0  0  # atno 17343 bound_to 10162
  157.0802  130.5900  149.5419 LP  0  0  0  0  0  0  0  0  0  0  0  0  # atno 17370 bound_to 10713
  156.0004  130.5082  150.7642 LP  0  0  0  0  0  0  0  0  0  0  0  0  # atno 17371 bound_to 10713
  141.0971  133.6691  156.2670 LP  0  0  0  0  0  0  0  0  0  0  0  0  # atno 17394 bound_to 11000
  140.6079  134.5488  157.5528 LP  0  0  0  0  0  0  0  0  0  0  0  0  # atno 17395 bound_to 11000

$$$$
