AV-unprocessed.smi:3017|AV-procd|sdf|11478|dock9
  -GOLD-   2272016413D 1   1.00000     0.00000
 Structure written by MMmdl.
 37 38  0  0  0  0  0  0  0  0  1 V2000
  152.5335  143.0860  159.5998 C   0  0  0  0  0  0  0  0  0  0  0  0
  152.9674  141.6610  159.2287 C   0  0  1  0  0  0  0  0  0  0  0  0
  153.7292  140.9835  160.3840 C   0  0  0  0  0  0  0  0  0  0  0  0
  154.1609  139.5560  160.0137 C   0  0  0  0  0  0  0  0  0  0  0  0
  152.9587  138.7038  159.5745 C   0  0  0  0  0  0  0  0  0  0  0  0
  152.1815  139.3625  158.4214 C   0  0  2  0  0  0  0  0  0  0  0  0
  153.0238  139.3586  157.2751 O   0  0  0  0  0  0  0  0  0  0  0  0
  152.3945  138.9296  156.0736 C   0  0  0  0  0  0  0  0  0  0  0  0
  151.2783  139.9062  155.6948 C   0  0  0  0  0  0  0  0  0  0  0  0
  151.3449  141.0693  156.0915 O   0  0  0  0  0  0  0  0  0  0  0  0
  150.2715  139.4128  154.9485 N   0  0  0  0  0  0  0  0  0  0  0  0
  149.1349  140.0961  154.4435 C   0  0  0  0  0  0  0  0  0  0  0  0
  148.2355  139.3118  153.6832 C   0  0  0  0  0  0  0  0  0  0  0  0
  147.1111  139.8203  153.1315 N   0  0  0  0  0  0  0  0  0  0  0  0
  146.8773  141.1336  153.3395 C   0  0  0  0  0  0  0  0  0  0  0  0
  147.7616  141.9300  154.0942 C   0  0  0  0  0  0  0  0  0  0  0  0
  148.8831  141.4151  154.6436 N   0  0  0  0  0  0  0  0  0  0  0  0
  151.7624  140.7993  158.8003 C   0  0  0  0  0  0  0  0  0  0  0  0
  151.8502  143.0846  160.4497 H   0  0  0  0  0  0  0  0  0  0  0  0
  152.0257  143.5704  158.7652 H   0  0  0  0  0  0  0  0  0  0  0  0
  153.3933  143.7022  159.8638 H   0  0  0  0  0  0  0  0  0  0  0  0
  153.6464  141.7391  158.3781 H   0  0  0  0  0  0  0  0  0  0  0  0
  154.6076  141.5731  160.6494 H   0  0  0  0  0  0  0  0  0  0  0  0
  153.0988  140.9521  161.2736 H   0  0  0  0  0  0  0  0  0  0  0  0
  154.8981  139.5940  159.2104 H   0  0  0  0  0  0  0  0  0  0  0  0
  154.6568  139.0862  160.8632 H   0  0  0  0  0  0  0  0  0  0  0  0
  153.2944  137.7094  159.2787 H   0  0  0  0  0  0  0  0  0  0  0  0
  152.2899  138.5612  160.4244 H   0  0  0  0  0  0  0  0  0  0  0  0
  151.2935  138.7603  158.2212 H   0  0  0  0  0  0  0  0  0  0  0  0
  153.1202  138.8876  155.2604 H   0  0  0  0  0  0  0  0  0  0  0  0
  151.9649  137.9347  156.1897 H   0  0  0  0  0  0  0  0  0  0  0  0
  150.3409  138.4360  154.7014 H   0  0  0  0  0  0  0  0  0  0  0  0
  148.4200  138.2611  153.5124 H   0  0  0  0  0  0  0  0  0  0  0  0
  145.9824  141.5510  152.9024 H   0  0  0  0  0  0  0  0  0  0  0  0
  147.5695  142.9801  154.2568 H   0  0  0  0  0  0  0  0  0  0  0  0
  151.0455  140.7522  159.6212 H   0  0  0  0  0  0  0  0  0  0  0  0
  151.2351  141.2770  157.9751 H   0  0  0  0  0  0  0  0  0  0  0  0
  1  2  1  0  0  0  0
  1 19  1  0  0  0  0
  1 20  1  0  0  0  0
  1 21  1  0  0  0  0
  2 18  1  0  0  0  0
  2  3  1  0  0  0  0
  2 22  1  0  0  0  0
  3  4  1  0  0  0  0
  3 23  1  0  0  0  0
  3 24  1  0  0  0  0
  4  5  1  0  0  0  0
  4 25  1  0  0  0  0
  4 26  1  0  0  0  0
  5  6  1  0  0  0  0
  5 27  1  0  0  0  0
  5 28  1  0  0  0  0
  6  7  1  0  0  0  0
  6 18  1  0  0  0  0
  6 29  1  0  0  0  0
  7  8  1  0  0  0  0
  8  9  1  0  0  0  0
  8 30  1  0  0  0  0
  8 31  1  0  0  0  0
  9 10  2  0  0  0  0
  9 11  1  0  0  0  0
 11 12  1  0  0  0  0
 11 32  1  0  0  0  0
 12 17  1  0  0  0  0
 12 13  2  0  0  0  0
 13 14  1  0  0  0  0
 13 33  1  0  0  0  0
 14 15  2  0  0  0  0
 15 16  1  0  0  0  0
 15 34  1  0  0  0  0
 16 17  2  0  0  0  0
 16 35  1  0  0  0  0
 18 36  1  0  0  0  0
 18 37  1  0  0  0  0
M  END
> <s_m_source_file>
AV-unprocessed.smi

> <i_m_source_file_index>
3017

> <i_lp_mmshare_version>
43012

> <i_f3d_flags>
0

> <s_epik_input>
W0NIM11bQ0BASF0xW0NIMl1bQ0gyXVtDSDJdW0NASF0oW0NIMl0xKU9bQ0gyXUMoPU8pW05IXWMyW2NIXW5bY0hdW2NIXW4y

> <s_epik_cmdline>
J2VwaWtfcHl0aG9uJywgJy1waCcsICc3LjAnLCAnLXRuJywgJzgnLCAnLW1hJywgJzIwMCcsICctbWV0YWxfYmluZGluZycsICctaW1hZScsICc8aW5maWxlLm1hZT4nLCAnLW9tYWUnLCAnPG91dGZpbGUubWFlPic=

> <r_lp_tautomer_probability>
1

> <r_epik_Ionization_Penalty>
2.89243e-06

> <r_epik_Ionization_Penalty_Charging>
0

> <r_epik_Ionization_Penalty_Neutral>
2.89243e-06

> <r_epik_State_Penalty>
-0

> <r_epik_Charging_Adjusted_Penalty>
0

> <i_epik_Tot_Q>
0

> <i_epik_Tot_abs_Q>
0

> <r_epik_Metal_State_Penalty>
-0

> <b_epik_Metal_Only>
0

> <s_lp_Force_Field>
OPLS_2005

> <r_lp_Energy>
20.5114

> <b_lp_Chiralities_Consistent>
1

> <s_lp_Variant>
AV-unprocessed.smi:3017-4

> <Gold.Version>
5.8.1

> <Gold.Id.Protein>
6NUR|6NUR_protein|mol2

> <Gold.PLP.Fitness>
40.9278

> <Gold.PLP.PLP>
-33.2545

> <Gold.PLP.part.hbond>
-1.1209

> <Gold.PLP.part.metal>
0.0000

> <Gold.PLP.part.buried>
-2.2035

> <Gold.PLP.part.nonpolar>
-29.5450

> <Gold.PLP.part.repulsive>
0.4927

> <Gold.PLP.ligand.clash>
0.0000

> <Gold.PLP.ligand.torsion>
1.0033

> <Gold.PLP.Chemscore.Hbond>
1.0000

> <Gold.PLP.Chemscore.CHOScore>
2.2238

> <Gold.PLP.Chemscore.Metal>
0.0000

> <Gold.Chemscore.Hbonds>
donor molecule, donor type, donor heavy atom, donor atom, acceptor molecule, acceptor atom, score
      P1  H  7997  8008       L1     7  0.90
      L1  C    13    33       P1  7948  0.69
      L1  C    15    34       P1 10175  0.49
      L1  C    16    35       P1  8028  0.96

> <Gold.PLP.Chemscore.Internal.Correction>
0.0083

> <Gold.Rescore>
     Score         DG    S(hbond)    S(metal)    S(lipo)     H(rot)  DE(clash)    DE(int)     intcor
     10.11     -14.65       0.88        0.00      86.44       1.51       0.04       4.49       ----

> <Gold.Chemscore.Fitness>
10.1126

> <Gold.Chemscore.DG>
-14.6496

> <Gold.Chemscore.ZeroCoef>
-5.4800

> <Gold.Chemscore.Hbond>
0.8764

> <Gold.Chemscore.Metal>
0.0000

> <Gold.Chemscore.Lipo>
86.4352

> <Gold.Chemscore.Internal_Hbond>
0.0000

> <Gold.Chemscore.DEClash>
0.0443

> <Gold.Chemscore.DEInternal>
4.4927

> <Gold.Chemscore.Rot>
1.5119

> <Gold.Chemscore.Internal.Correction>
   9.000000E+99

> <Gold.Chemscore.Hbonds>
donor molecule, donor type, donor heavy atom, donor atom, acceptor molecule, acceptor atom, score
      P1  H  7997  8008       L1     7  0.18

> <Gold.Chemscore.Hbond.Weighted>
-2.9272

> <Gold.Chemscore.Metal.Weighted>
-0.0000

> <Gold.Chemscore.Lipo.Weighted>
-10.1129

> <Gold.Chemscore.Internal_Hbond.Weighted>
0.0000

> <Gold.Chemscore.DEClash.Weighted>
0.0443

> <Gold.Chemscore.DEInternal.Weighted>
4.4927

> <Gold.Chemscore.Rot.Weighted>
3.8706

> <Gold.Chemscore.Internal.Correction.Weighted>
   9.000000E+99

> <Gold.Protein.RotatedTorsions>
[ 6907 6896 6895 6894 ] final -137.34 input  -60.11 | X-H torsion
[ 7974 7965 7964 7962 ] final   67.24 input  175.53 | X-H torsion
[ 8008 7997 7996 7995 ] final  -55.73 input   59.86 | X-H torsion
[ 10167 10162 10161 10158 ] final  102.03 input  -65.29 | X-H torsion
[ 10718 10713 10712 10709 ] final  -47.55 input   66.30 | X-H torsion
[ 10763 10752 10751 10750 ] final -111.26 input  -60.55 | X-H torsion
[ 11005 11000 10999 10996 ] final   59.41 input  -57.11 | X-H torsion

> <Gold.Protein.ActiveResidues>
 VAL166  LYS551  ARG553  GLY616  TRP617  ASP618  TYR619  PRO620  LYS621  CYS622 
 ASP623  PHE694  ASN695  SER759  ASP760  ASP761  ALA762  ILE779  LEU786  VAL792 
 PHE793  MET794  SER795  GLU796  ALA797  LYS798  CYS799  TRP800  GLU811  SER814 

> <Gold.Protein.RotatedAtoms>
  151.0212  133.5875  159.2670 H   0  0  0  0  0  0  0  0  0  0  0  0  # atno 6907 bound_to 6896
  151.2991  135.0762  159.9242 H   0  0  0  0  0  0  0  0  0  0  0  0  # atno 6908 bound_to 6896
  152.5323  133.9897  159.7899 H   0  0  0  0  0  0  0  0  0  0  0  0  # atno 6909 bound_to 6896
  145.8170  139.3063  143.1066 H   0  0  0  0  0  0  0  0  0  0  0  0  # atno 7974 bound_to 7965
  154.4205  140.1146  156.5524 H   0  0  0  0  0  0  0  0  0  0  0  0  # atno 8008 bound_to 7997
  155.6396  140.3496  155.4691 H   0  0  0  0  0  0  0  0  0  0  0  0  # atno 8009 bound_to 7997
  155.9881  140.1174  157.0653 H   0  0  0  0  0  0  0  0  0  0  0  0  # atno 8010 bound_to 7997
  139.7385  144.7017  151.0611 H   0  0  0  0  0  0  0  0  0  0  0  0  # atno 10167 bound_to 10162
  156.2074  130.4159  149.9160 H   0  0  0  0  0  0  0  0  0  0  0  0  # atno 10718 bound_to 10713
  154.8291  135.4534  154.1011 H   0  0  0  0  0  0  0  0  0  0  0  0  # atno 10763 bound_to 10752
  153.2300  135.6904  153.7907 H   0  0  0  0  0  0  0  0  0  0  0  0  # atno 10764 bound_to 10752
  153.7293  135.3329  155.3259 H   0  0  0  0  0  0  0  0  0  0  0  0  # atno 10765 bound_to 10752
  140.0306  134.6018  155.9513 H   0  0  0  0  0  0  0  0  0  0  0  0  # atno 11005 bound_to 11000
  145.9716  140.8755  143.0159 LP  0  0  0  0  0  0  0  0  0  0  0  0  # atno 17320 bound_to 7965
  144.6751  140.1954  143.7392 LP  0  0  0  0  0  0  0  0  0  0  0  0  # atno 17321 bound_to 7965
  140.7782  143.4954  150.9840 LP  0  0  0  0  0  0  0  0  0  0  0  0  # atno 17342 bound_to 10162
  139.8642  143.7275  152.3171 LP  0  0  0  0  0  0  0  0  0  0  0  0  # atno 17343 bound_to 10162
  156.6850  130.8873  151.3581 LP  0  0  0  0  0  0  0  0  0  0  0  0  # atno 17370 bound_to 10713
  157.7019  130.9343  150.0813 LP  0  0  0  0  0  0  0  0  0  0  0  0  # atno 17371 bound_to 10713
  141.1828  133.6550  156.5093 LP  0  0  0  0  0  0  0  0  0  0  0  0  # atno 17394 bound_to 11000
  140.4233  134.7168  157.4902 LP  0  0  0  0  0  0  0  0  0  0  0  0  # atno 17395 bound_to 11000

$$$$
