AV-unprocessed.smi:1141|AV-procd|sdf|4872|dock4
  -GOLD-   22720 3443D 1   1.00000     0.00000
 Structure written by MMmdl.
 45 46  0  0  0  0  0  0  0  0  1 V2000
  150.7649  137.5714  154.5281 C   0  0  0  0  0  0  0  0  0  0  0  0
  152.0240  137.3303  155.1304 O   0  0  0  0  0  0  0  0  0  0  0  0
  152.8716  138.4684  155.0880 C   0  0  0  0  0  0  0  0  0  0  0  0
  152.1465  139.6649  155.7040 C   0  0  0  0  0  0  0  0  0  0  0  0
  151.2672  140.2355  155.0597 O   0  0  0  0  0  0  0  0  0  0  0  0
  152.5632  140.0406  156.9268 N   0  0  0  0  0  0  0  0  0  0  0  0
  152.1049  141.1275  157.7244 C   0  0  0  0  0  0  0  0  0  0  0  0
  151.0786  142.0030  157.2960 C   0  0  0  0  0  0  0  0  0  0  0  0
  150.6435  143.0263  158.1569 C   0  0  0  0  0  0  0  0  0  0  0  0
  151.2380  143.1405  159.4265 C   0  0  0  0  0  0  0  0  0  0  0  0
  150.8107  144.1446  160.2710 O   0  0  0  0  0  0  0  0  0  0  0  0
  150.0420  145.2082  159.7190 C   0  0  0  0  0  0  0  0  0  0  0  0
  152.2101  142.2983  159.8506 N   0  0  0  0  0  0  0  0  0  0  0  0
  152.6376  141.3104  159.0283 C   0  0  0  0  0  0  0  0  0  0  0  0
  153.6607  140.4697  159.5100 N   0  0  0  0  0  0  0  0  0  0  0  0
  154.4817  141.0804  160.5562 C   0  0  0  0  0  0  0  0  0  0  0  0
  155.7192  140.2123  160.8535 C   0  0  0  0  0  0  0  0  0  0  0  0
  155.2798  138.8475  161.1729 N   0  0  0  0  0  0  0  0  0  0  0  0
  155.4111  138.3017  162.4053 C   0  0  0  0  0  0  0  0  0  0  0  0
  154.8483  136.9032  162.6683 C   0  0  0  0  0  0  0  0  0  0  0  0
  155.9661  138.8863  163.3358 O   0  0  0  0  0  0  0  0  0  0  0  0
  154.5750  138.2361  160.0374 C   0  0  0  0  0  0  0  0  0  0  0  0
  153.3131  139.0642  159.7314 C   0  0  0  0  0  0  0  0  0  0  0  0
  150.1521  136.6720  154.5882 H   0  0  0  0  0  0  0  0  0  0  0  0
  150.8757  137.8339  153.4751 H   0  0  0  0  0  0  0  0  0  0  0  0
  150.2326  138.3768  155.0360 H   0  0  0  0  0  0  0  0  0  0  0  0
  153.7890  138.2829  155.6489 H   0  0  0  0  0  0  0  0  0  0  0  0
  153.1486  138.6965  154.0570 H   0  0  0  0  0  0  0  0  0  0  0  0
  153.3598  139.5395  157.2938 H   0  0  0  0  0  0  0  0  0  0  0  0
  150.6048  141.8960  156.3324 H   0  0  0  0  0  0  0  0  0  0  0  0
  149.8621  143.7061  157.8509 H   0  0  0  0  0  0  0  0  0  0  0  0
  149.7834  145.9141  160.5081 H   0  0  0  0  0  0  0  0  0  0  0  0
  149.1106  144.8421  159.2844 H   0  0  0  0  0  0  0  0  0  0  0  0
  150.6023  145.7532  158.9579 H   0  0  0  0  0  0  0  0  0  0  0  0
  154.7985  142.0821  160.2660 H   0  0  0  0  0  0  0  0  0  0  0  0
  153.8788  141.1906  161.4587 H   0  0  0  0  0  0  0  0  0  0  0  0
  156.3747  140.1837  159.9817 H   0  0  0  0  0  0  0  0  0  0  0  0
  156.3047  140.6686  161.6526 H   0  0  0  0  0  0  0  0  0  0  0  0
  153.7735  136.8785  162.4866 H   0  0  0  0  0  0  0  0  0  0  0  0
  155.0164  136.6102  163.7053 H   0  0  0  0  0  0  0  0  0  0  0  0
  155.3345  136.1642  162.0310 H   0  0  0  0  0  0  0  0  0  0  0  0
  155.2366  138.2333  159.1697 H   0  0  0  0  0  0  0  0  0  0  0  0
  154.3004  137.1949  160.1986 H   0  0  0  0  0  0  0  0  0  0  0  0
  152.6116  138.9851  160.5634 H   0  0  0  0  0  0  0  0  0  0  0  0
  152.8133  138.6670  158.8471 H   0  0  0  0  0  0  0  0  0  0  0  0
  1  2  1  0  0  0  0
  1 24  1  0  0  0  0
  1 25  1  0  0  0  0
  1 26  1  0  0  0  0
  2  3  1  0  0  0  0
  3  4  1  0  0  0  0
  3 27  1  0  0  0  0
  3 28  1  0  0  0  0
  4  5  2  0  0  0  0
  4  6  1  0  0  0  0
  6  7  1  0  0  0  0
  6 29  1  0  0  0  0
  7 14  1  0  0  0  0
  7  8  2  0  0  0  0
  8  9  1  0  0  0  0
  8 30  1  0  0  0  0
  9 10  2  0  0  0  0
  9 31  1  0  0  0  0
 10 11  1  0  0  0  0
 10 13  1  0  0  0  0
 11 12  1  0  0  0  0
 12 32  1  0  0  0  0
 12 33  1  0  0  0  0
 12 34  1  0  0  0  0
 13 14  2  0  0  0  0
 14 15  1  0  0  0  0
 15 23  1  0  0  0  0
 15 16  1  0  0  0  0
 16 17  1  0  0  0  0
 16 35  1  0  0  0  0
 16 36  1  0  0  0  0
 17 18  1  0  0  0  0
 17 37  1  0  0  0  0
 17 38  1  0  0  0  0
 18 19  1  0  0  0  0
 18 22  1  0  0  0  0
 19 20  1  0  0  0  0
 19 21  2  0  0  0  0
 20 39  1  0  0  0  0
 20 40  1  0  0  0  0
 20 41  1  0  0  0  0
 22 23  1  0  0  0  0
 22 42  1  0  0  0  0
 22 43  1  0  0  0  0
 23 44  1  0  0  0  0
 23 45  1  0  0  0  0
M  END
> <s_m_source_file>
AV-unprocessed.smi

> <i_m_source_file_index>
1141

> <i_lp_mmshare_version>
43012

> <i_f3d_flags>
0

> <s_epik_input>
W0NIM11PW0NIMl1DKD1PKVtOSF1jMVtjSF1bY0hdYyhPW0NIM10pbmMxTjJbQ0gyXVtDSDJdTihDKD1PKVtDSDNdKVtDSDJdW0NIMl0y

> <s_epik_cmdline>
J2VwaWtfcHl0aG9uJywgJy1waCcsICc3LjAnLCAnLXRuJywgJzgnLCAnLW1hJywgJzIwMCcsICctbWV0YWxfYmluZGluZycsICctaW1hZScsICc8aW5maWxlLm1hZT4nLCAnLW9tYWUnLCAnPG91dGZpbGUubWFlPic=

> <r_lp_tautomer_probability>
1

> <r_epik_Ionization_Penalty>
0.000141552

> <r_epik_Ionization_Penalty_Charging>
0

> <r_epik_Ionization_Penalty_Neutral>
0.000141552

> <r_epik_State_Penalty>
-0

> <r_epik_Charging_Adjusted_Penalty>
0

> <i_epik_Tot_Q>
0

> <i_epik_Tot_abs_Q>
0

> <r_epik_Metal_State_Penalty>
-0

> <b_epik_Metal_Only>
0

> <s_lp_Force_Field>
OPLS_2005

> <r_lp_Energy>
39.8062

> <b_lp_Chiralities_Consistent>
1

> <s_lp_Variant>
AV-unprocessed.smi:1141-1

> <Gold.Version>
5.8.1

> <Gold.Id.Protein>
6NUR|6NUR_protein|mol2

> <Gold.PLP.Fitness>
42.2131

> <Gold.PLP.PLP>
-37.6205

> <Gold.PLP.part.hbond>
-2.1950

> <Gold.PLP.part.metal>
0.0000

> <Gold.PLP.part.buried>
-6.8965

> <Gold.PLP.part.nonpolar>
-30.6120

> <Gold.PLP.part.repulsive>
1.8431

> <Gold.PLP.ligand.clash>
0.0012

> <Gold.PLP.ligand.torsion>
0.7693

> <Gold.PLP.Chemscore.Hbond>
1.9120

> <Gold.PLP.Chemscore.CHOScore>
0.0000

> <Gold.PLP.Chemscore.Metal>
0.0000

> <Gold.Chemscore.Hbonds>
donor molecule, donor type, donor heavy atom, donor atom, acceptor molecule, acceptor atom, score
      P1  H  7989  7998       L1     5  1.00
      P1  H 10752 10764       L1     2  0.86

> <Gold.PLP.Chemscore.Internal.Correction>
0.3964

> <Gold.Rescore>
     Score         DG    S(hbond)    S(metal)    S(lipo)     H(rot)  DE(clash)    DE(int)     intcor
     10.84     -15.16       1.56        0.00      76.46       1.75       0.09       4.23       ----

> <Gold.Chemscore.Fitness>
10.8386

> <Gold.Chemscore.DG>
-15.1583

> <Gold.Chemscore.ZeroCoef>
-5.4800

> <Gold.Chemscore.Hbond>
1.5634

> <Gold.Chemscore.Metal>
0.0000

> <Gold.Chemscore.Lipo>
76.4584

> <Gold.Chemscore.Internal_Hbond>
0.0000

> <Gold.Chemscore.DEClash>
0.0871

> <Gold.Chemscore.DEInternal>
4.2326

> <Gold.Chemscore.Rot>
1.7535

> <Gold.Chemscore.Internal.Correction>
   9.000000E+99

> <Gold.Chemscore.Hbonds>
donor molecule, donor type, donor heavy atom, donor atom, acceptor molecule, acceptor atom, score
      P1  H  7989  7998       L1     5  0.95
      P1  H 10752 10764       L1     2  0.65

> <Gold.Chemscore.Hbond.Weighted>
-5.2216

> <Gold.Chemscore.Metal.Weighted>
-0.0000

> <Gold.Chemscore.Lipo.Weighted>
-8.9456

> <Gold.Chemscore.Internal_Hbond.Weighted>
0.0000

> <Gold.Chemscore.DEClash.Weighted>
0.0871

> <Gold.Chemscore.DEInternal.Weighted>
4.2326

> <Gold.Chemscore.Rot.Weighted>
4.4890

> <Gold.Chemscore.Internal.Correction.Weighted>
   9.000000E+99

> <Gold.Protein.RotatedTorsions>
[ 6907 6896 6895 6894 ] final  -15.37 input  -60.11 | X-H torsion
[ 7974 7965 7964 7962 ] final   55.58 input  175.53 | X-H torsion
[ 8008 7997 7996 7995 ] final   62.23 input   59.86 | X-H torsion
[ 10167 10162 10161 10158 ] final  178.44 input  -65.29 | X-H torsion
[ 10718 10713 10712 10709 ] final  158.18 input   66.30 | X-H torsion
[ 10763 10752 10751 10750 ] final  -55.35 input  -60.55 | X-H torsion
[ 11005 11000 10999 10996 ] final  -50.47 input  -57.11 | X-H torsion

> <Gold.Protein.ActiveResidues>
 VAL166  LYS551  ARG553  GLY616  TRP617  ASP618  TYR619  PRO620  LYS621  CYS622 
 ASP623  PHE694  ASN695  SER759  ASP760  ASP761  ALA762  ILE779  LEU786  VAL792 
 PHE793  MET794  SER795  GLU796  ALA797  LYS798  CYS799  TRP800  GLU811  SER814 

> <Gold.Protein.RotatedAtoms>
  151.3250  135.0828  159.9318 H   0  0  0  0  0  0  0  0  0  0  0  0  # atno 6907 bound_to 6896
  152.5248  133.9600  159.7723 H   0  0  0  0  0  0  0  0  0  0  0  0  # atno 6908 bound_to 6896
  150.9928  133.6080  159.2736 H   0  0  0  0  0  0  0  0  0  0  0  0  # atno 6909 bound_to 6896
  145.9489  139.3954  143.0318 H   0  0  0  0  0  0  0  0  0  0  0  0  # atno 7974 bound_to 7965
  155.6110  140.3495  155.4622 H   0  0  0  0  0  0  0  0  0  0  0  0  # atno 8008 bound_to 7997
  156.0154  140.1242  157.0435 H   0  0  0  0  0  0  0  0  0  0  0  0  # atno 8009 bound_to 7997
  154.4296  140.1073  156.5875 H   0  0  0  0  0  0  0  0  0  0  0  0  # atno 8010 bound_to 7997
  139.5294  144.2680  152.0652 H   0  0  0  0  0  0  0  0  0  0  0  0  # atno 10167 bound_to 10162
  157.1813  131.0633  151.2130 H   0  0  0  0  0  0  0  0  0  0  0  0  # atno 10718 bound_to 10713
  154.1893  135.6430  153.5055 H   0  0  0  0  0  0  0  0  0  0  0  0  # atno 10763 bound_to 10752
  153.0039  135.5425  154.6432 H   0  0  0  0  0  0  0  0  0  0  0  0  # atno 10764 bound_to 10752
  154.5816  135.2926  155.0699 H   0  0  0  0  0  0  0  0  0  0  0  0  # atno 10765 bound_to 10752
  141.0818  133.6651  156.3736 H   0  0  0  0  0  0  0  0  0  0  0  0  # atno 11005 bound_to 11000
  145.8198  140.9685  143.0905 LP  0  0  0  0  0  0  0  0  0  0  0  0  # atno 17320 bound_to 7965
  144.6792  140.0027  143.7484 LP  0  0  0  0  0  0  0  0  0  0  0  0  # atno 17321 bound_to 7965
  140.2141  144.4533  150.6372 LP  0  0  0  0  0  0  0  0  0  0  0  0  # atno 17342 bound_to 10162
  140.6461  143.2214  151.6182 LP  0  0  0  0  0  0  0  0  0  0  0  0  # atno 17343 bound_to 10162
  157.3949  130.7302  149.6724 LP  0  0  0  0  0  0  0  0  0  0  0  0  # atno 17370 bound_to 10713
  155.9724  130.4136  150.4092 LP  0  0  0  0  0  0  0  0  0  0  0  0  # atno 17371 bound_to 10713
  140.5452  134.6082  157.5391 LP  0  0  0  0  0  0  0  0  0  0  0  0  # atno 17394 bound_to 11000
  139.9632  134.7417  156.0192 LP  0  0  0  0  0  0  0  0  0  0  0  0  # atno 17395 bound_to 11000

$$$$
