AV-unprocessed.smi:1308|AV-procd|sdf|5441|dock6
  -GOLD-   22720 5 03D 1   1.00000     0.00000
 Structure written by MMmdl.
 45 45  0  0  0  0  0  0  0  0  1 V2000
  149.1175  140.9732  154.6894 C   0  0  0  0  0  0  0  0  0  0  0  0
  150.2539  140.2535  155.3827 C   0  0  0  0  0  0  0  0  0  0  0  0
  149.9665  139.8864  156.6870 N   0  0  0  0  0  0  0  0  0  0  0  0
  150.9436  139.2153  157.4012 C   0  0  0  0  0  0  0  0  0  0  0  0
  150.5484  138.8486  158.8214 C   0  0  0  0  0  0  0  0  0  0  0  0
  152.1481  138.9288  156.8446 C   0  0  0  0  0  0  0  0  0  0  0  0
  153.2535  138.1901  157.5987 C   0  0  0  0  0  0  0  0  0  0  0  0
  153.9333  138.9610  158.7332 C   0  0  0  0  0  0  0  0  0  0  0  0
  154.9371  138.5086  159.2840 O   0  0  0  0  0  0  0  0  0  0  0  0
  153.3708  140.1375  159.0574 N   0  0  0  0  0  0  0  0  0  0  0  0
  153.8362  141.1009  160.0584 C   0  0  1  0  0  0  0  0  0  0  0  0
  155.3168  141.4668  159.8522 C   0  0  0  0  0  0  0  0  0  0  0  0
  152.9297  142.3488  160.1575 C   0  0  0  0  0  0  0  0  0  0  0  0
  152.9917  143.2656  158.9191 C   0  0  0  0  0  0  0  0  0  0  0  0
  152.0890  144.5126  159.0123 C   0  0  0  0  0  0  0  0  0  0  0  0
  152.2727  145.4634  157.8173 C   0  0  0  0  0  0  0  0  0  0  0  0
  152.3336  145.2618  160.3312 C   0  0  0  0  0  0  0  0  0  0  0  0
  152.4011  139.3574  155.4487 C   0  0  0  0  0  0  0  0  0  0  0  0
  153.4785  139.1433  154.8943 O   0  0  0  0  0  0  0  0  0  0  0  0
  151.3732  140.0269  154.7650 N   0  0  0  0  0  0  0  0  0  0  0  0
  149.0850  140.0809  157.1395 H   0  0  0  0  0  0  0  0  0  0  0  0
  149.4009  141.2674  153.6781 H   0  0  0  0  0  0  0  0  0  0  0  0
  148.8437  141.8729  155.2410 H   0  0  0  0  0  0  0  0  0  0  0  0
  148.2422  140.3262  154.6229 H   0  0  0  0  0  0  0  0  0  0  0  0
  151.2430  139.2880  159.5377 H   0  0  0  0  0  0  0  0  0  0  0  0
  150.5559  137.7666  158.9523 H   0  0  0  0  0  0  0  0  0  0  0  0
  149.5475  139.2076  159.0650 H   0  0  0  0  0  0  0  0  0  0  0  0
  154.0222  137.8412  156.9085 H   0  0  0  0  0  0  0  0  0  0  0  0
  152.8271  137.2802  158.0223 H   0  0  0  0  0  0  0  0  0  0  0  0
  152.5461  140.4058  158.5402 H   0  0  0  0  0  0  0  0  0  0  0  0
  153.7712  140.5775  161.0129 H   0  0  0  0  0  0  0  0  0  0  0  0
  155.6857  142.0713  160.6811 H   0  0  0  0  0  0  0  0  0  0  0  0
  155.4712  142.0402  158.9379 H   0  0  0  0  0  0  0  0  0  0  0  0
  155.9396  140.5735  159.7958 H   0  0  0  0  0  0  0  0  0  0  0  0
  151.9046  142.0099  160.3052 H   0  0  0  0  0  0  0  0  0  0  0  0
  153.1819  142.9250  161.0481 H   0  0  0  0  0  0  0  0  0  0  0  0
  154.0214  143.5976  158.7822 H   0  0  0  0  0  0  0  0  0  0  0  0
  152.7390  142.6946  158.0247 H   0  0  0  0  0  0  0  0  0  0  0  0
  151.0503  144.1794  159.0202 H   0  0  0  0  0  0  0  0  0  0  0  0
  153.3072  145.7975  157.7323 H   0  0  0  0  0  0  0  0  0  0  0  0
  151.6468  146.3498  157.9238 H   0  0  0  0  0  0  0  0  0  0  0  0
  151.9959  144.9896  156.8759 H   0  0  0  0  0  0  0  0  0  0  0  0
  153.3623  145.6174  160.4002 H   0  0  0  0  0  0  0  0  0  0  0  0
  152.1447  144.6193  161.1918 H   0  0  0  0  0  0  0  0  0  0  0  0
  151.6761  146.1272  160.4200 H   0  0  0  0  0  0  0  0  0  0  0  0
  1 22  1  0  0  0  0
  1 23  1  0  0  0  0
  1 24  1  0  0  0  0
  1  2  1  0  0  0  0
  2  3  1  0  0  0  0
  2 20  2  0  0  0  0
  3  4  1  0  0  0  0
  3 21  1  0  0  0  0
  4  6  2  0  0  0  0
  4  5  1  0  0  0  0
  5 25  1  0  0  0  0
  5 26  1  0  0  0  0
  5 27  1  0  0  0  0
  6 18  1  0  0  0  0
  6  7  1  0  0  0  0
  7  8  1  0  0  0  0
  7 28  1  0  0  0  0
  7 29  1  0  0  0  0
  8  9  2  0  0  0  0
  8 10  1  0  0  0  0
 10 11  1  0  0  0  0
 10 30  1  0  0  0  0
 11 12  1  0  0  0  0
 11 13  1  0  0  0  0
 11 31  1  0  0  0  0
 12 32  1  0  0  0  0
 12 33  1  0  0  0  0
 12 34  1  0  0  0  0
 13 14  1  0  0  0  0
 13 35  1  0  0  0  0
 13 36  1  0  0  0  0
 14 15  1  0  0  0  0
 14 37  1  0  0  0  0
 14 38  1  0  0  0  0
 15 16  1  0  0  0  0
 15 17  1  0  0  0  0
 15 39  1  0  0  0  0
 16 40  1  0  0  0  0
 16 41  1  0  0  0  0
 16 42  1  0  0  0  0
 17 43  1  0  0  0  0
 17 44  1  0  0  0  0
 17 45  1  0  0  0  0
 18 19  2  0  0  0  0
 18 20  1  0  0  0  0
M  END
> <s_m_source_file>
AV-unprocessed.smi

> <i_m_source_file_index>
1308

> <i_lp_mmshare_version>
43012

> <i_f3d_flags>
0

> <s_epik_input>
W0NIM11jMW5jKFtDSDNdKWMoYyg9TylbbkhdMSlbQ0gyXUMoPU8pW05IXVtDQEhdKFtDSDNdKVtDSDJdW0NIMl1bQ0hdKFtDSDNdKVtDSDNd

> <s_epik_cmdline>
J2VwaWtfcHl0aG9uJywgJy1waCcsICc3LjAnLCAnLXRuJywgJzgnLCAnLW1hJywgJzIwMCcsICctbWV0YWxfYmluZGluZycsICctaW1hZScsICc8aW5maWxlLm1hZT4nLCAnLW9tYWUnLCAnPG91dGZpbGUubWFlPic=

> <r_lp_tautomer_probability>
0.156392

> <r_epik_Ionization_Penalty>
0.0141156

> <r_epik_Ionization_Penalty_Charging>
0.0139937

> <r_epik_Ionization_Penalty_Neutral>
0.00012188

> <r_epik_State_Penalty>
1.52994

> <r_epik_Charging_Adjusted_Penalty>
1.54393

> <i_epik_Tot_Q>
0

> <i_epik_Tot_abs_Q>
0

> <r_epik_Metal_State_Penalty>
1.70663

> <b_epik_Metal_Only>
0

> <s_lp_Force_Field>
OPLS_2005

> <r_lp_Energy>
10.3869

> <b_lp_Chiralities_Consistent>
1

> <s_lp_Variant>
AV-unprocessed.smi:1308-4

> <Gold.Version>
5.8.1

> <Gold.Id.Protein>
6NUR|6NUR_protein|mol2

> <Gold.PLP.Fitness>
46.3754

> <Gold.PLP.PLP>
-40.7863

> <Gold.PLP.part.hbond>
-1.9546

> <Gold.PLP.part.metal>
0.0000

> <Gold.PLP.part.buried>
-6.0285

> <Gold.PLP.part.nonpolar>
-33.4182

> <Gold.PLP.part.repulsive>
0.1929

> <Gold.PLP.ligand.clash>
0.0000

> <Gold.PLP.ligand.torsion>
0.2464

> <Gold.PLP.Chemscore.Hbond>
2.0000

> <Gold.PLP.Chemscore.CHOScore>
0.0000

> <Gold.PLP.Chemscore.Metal>
0.0000

> <Gold.Chemscore.Hbonds>
donor molecule, donor type, donor heavy atom, donor atom, acceptor molecule, acceptor atom, score
      P1  H  7989  7998       L1    20  1.00
      P1  H  7997  8010       L1    19  1.00

> <Gold.PLP.Chemscore.Internal.Correction>
0.0820

> <Gold.Rescore>
     Score         DG    S(hbond)    S(metal)    S(lipo)     H(rot)  DE(clash)    DE(int)     intcor
     18.08     -18.51       1.91        0.00     100.42       1.98       0.05       0.39       ----

> <Gold.Chemscore.Fitness>
18.0785

> <Gold.Chemscore.DG>
-18.5147

> <Gold.Chemscore.ZeroCoef>
-5.4800

> <Gold.Chemscore.Hbond>
1.9052

> <Gold.Chemscore.Metal>
0.0000

> <Gold.Chemscore.Lipo>
100.4190

> <Gold.Chemscore.Internal_Hbond>
0.0000

> <Gold.Chemscore.DEClash>
0.0506

> <Gold.Chemscore.DEInternal>
0.3855

> <Gold.Chemscore.Rot>
1.9835

> <Gold.Chemscore.Internal.Correction>
   9.000000E+99

> <Gold.Chemscore.Hbonds>
donor molecule, donor type, donor heavy atom, donor atom, acceptor molecule, acceptor atom, score
      P1  H  7989  7998       L1    20  0.88
      P1  H  7997  8010       L1    19  0.30

> <Gold.Chemscore.Hbond.Weighted>
-6.3634

> <Gold.Chemscore.Metal.Weighted>
-0.0000

> <Gold.Chemscore.Lipo.Weighted>
-11.7490

> <Gold.Chemscore.Internal_Hbond.Weighted>
0.0000

> <Gold.Chemscore.DEClash.Weighted>
0.0506

> <Gold.Chemscore.DEInternal.Weighted>
0.3855

> <Gold.Chemscore.Rot.Weighted>
5.0778

> <Gold.Chemscore.Internal.Correction.Weighted>
   9.000000E+99

> <Gold.Protein.RotatedTorsions>
[ 6907 6896 6895 6894 ] final -134.48 input  -60.11 | X-H torsion
[ 7974 7965 7964 7962 ] final  151.46 input  175.53 | X-H torsion
[ 8008 7997 7996 7995 ] final  111.92 input   59.86 | X-H torsion
[ 10167 10162 10161 10158 ] final  132.72 input  -65.29 | X-H torsion
[ 10718 10713 10712 10709 ] final -113.95 input   66.30 | X-H torsion
[ 10763 10752 10751 10750 ] final   14.10 input  -60.55 | X-H torsion
[ 11005 11000 10999 10996 ] final  142.25 input  -57.11 | X-H torsion

> <Gold.Protein.ActiveResidues>
 VAL166  LYS551  ARG553  GLY616  TRP617  ASP618  TYR619  PRO620  LYS621  CYS622 
 ASP623  PHE694  ASN695  SER759  ASP760  ASP761  ALA762  ILE779  LEU786  VAL792 
 PHE793  MET794  SER795  GLU796  ALA797  LYS798  CYS799  TRP800  GLU811  SER814 

> <Gold.Protein.RotatedAtoms>
  150.9864  133.6193  159.2714 H   0  0  0  0  0  0  0  0  0  0  0  0  # atno 6907 bound_to 6896
  151.3430  135.0867  159.9387 H   0  0  0  0  0  0  0  0  0  0  0  0  # atno 6908 bound_to 6896
  152.5232  133.9471  159.7709 H   0  0  0  0  0  0  0  0  0  0  0  0  # atno 6909 bound_to 6896
  144.8291  139.6540  143.6067 H   0  0  0  0  0  0  0  0  0  0  0  0  # atno 7974 bound_to 7965
  156.2157  140.3010  155.9834 H   0  0  0  0  0  0  0  0  0  0  0  0  # atno 8008 bound_to 7997
  155.2612  140.0430  157.3014 H   0  0  0  0  0  0  0  0  0  0  0  0  # atno 8009 bound_to 7997
  154.5764  140.2363  155.8125 H   0  0  0  0  0  0  0  0  0  0  0  0  # atno 8010 bound_to 7997
  139.5327  144.6649  151.4893 H   0  0  0  0  0  0  0  0  0  0  0  0  # atno 10167 bound_to 10162
  156.0799  130.6001  150.8711 H   0  0  0  0  0  0  0  0  0  0  0  0  # atno 10718 bound_to 10713
  153.1655  135.6803  153.8681 H   0  0  0  0  0  0  0  0  0  0  0  0  # atno 10763 bound_to 10752
  153.8062  135.3149  155.3397 H   0  0  0  0  0  0  0  0  0  0  0  0  # atno 10764 bound_to 10752
  154.7962  135.4805  154.0258 H   0  0  0  0  0  0  0  0  0  0  0  0  # atno 10765 bound_to 10752
  140.0462  134.9279  157.0935 H   0  0  0  0  0  0  0  0  0  0  0  0  # atno 11005 bound_to 11000
  146.2595  139.6377  142.9372 LP  0  0  0  0  0  0  0  0  0  0  0  0  # atno 17320 bound_to 7965
  145.4935  141.0438  143.2580 LP  0  0  0  0  0  0  0  0  0  0  0  0  # atno 17321 bound_to 7965
  140.6516  143.8686  150.6791 LP  0  0  0  0  0  0  0  0  0  0  0  0  # atno 17342 bound_to 10162
  140.2052  143.3927  152.1761 LP  0  0  0  0  0  0  0  0  0  0  0  0  # atno 17343 bound_to 10162
  157.5911  131.0944  150.9117 LP  0  0  0  0  0  0  0  0  0  0  0  0  # atno 17370 bound_to 10713
  156.9292  130.5343  149.5279 LP  0  0  0  0  0  0  0  0  0  0  0  0  # atno 17371 bound_to 10713
  140.3989  134.2104  155.7164 LP  0  0  0  0  0  0  0  0  0  0  0  0  # atno 17394 bound_to 11000
  141.1908  133.8209  157.0904 LP  0  0  0  0  0  0  0  0  0  0  0  0  # atno 17395 bound_to 11000

$$$$
