AV-unprocessed.smi:1085|AV-procd|sdf|4721|dock7
  -GOLD-   22720 3253D 1   1.00000     0.00000
 Structure written by MMmdl.
 33 34  0  0  0  0  0  0  0  0  1 V2000
  152.6192  139.8911  156.0297 O   0  0  0  0  0  0  0  0  0  0  0  0
  151.4381  139.5795  156.1781 C   0  0  0  0  0  0  0  0  0  0  0  0
  150.6959  138.8451  155.0605 C   0  0  0  0  0  0  0  0  0  0  0  0
  149.5509  139.6098  154.6018 N   0  0  0  0  0  0  0  0  0  0  0  0
  148.6871  139.3858  153.6095 C   0  0  0  0  0  0  0  0  0  0  0  0
  147.7886  140.3543  153.5161 N   0  0  0  0  0  0  0  0  0  0  0  0
  148.1504  141.2192  154.5354 N   0  0  0  0  0  0  0  0  0  0  0  0
  149.1949  140.7823  155.1837 N   0  0  0  0  0  0  0  0  0  0  0  0
  150.7342  139.8499  157.2890 N   0  0  0  0  0  0  0  0  0  0  0  0
  151.2373  140.5616  158.4596 C   0  0  1  0  0  0  0  0  0  0  0  0
  152.6301  140.0347  158.8602 C   0  0  0  0  0  0  0  0  0  0  0  0
  153.2100  140.8308  160.0384 C   0  0  0  0  0  0  0  0  0  0  0  0
  153.2609  142.3338  159.7241 C   0  0  0  0  0  0  0  0  0  0  0  0
  151.8715  142.8809  159.3349 C   0  0  1  0  0  0  0  0  0  0  0  0
  151.9101  144.3928  159.0308 C   0  0  0  0  0  0  0  0  0  0  0  0
  150.7332  144.8132  158.5661 F   0  0  0  0  0  0  0  0  0  0  0  0
  152.2040  145.0735  160.1385 F   0  0  0  0  0  0  0  0  0  0  0  0
  152.8500  144.6524  158.1220 F   0  0  0  0  0  0  0  0  0  0  0  0
  151.2929  142.0706  158.1548 C   0  0  0  0  0  0  0  0  0  0  0  0
  151.3635  138.6751  154.2147 H   0  0  0  0  0  0  0  0  0  0  0  0
  150.3649  137.8671  155.4134 H   0  0  0  0  0  0  0  0  0  0  0  0
  148.7203  138.5251  152.9580 H   0  0  0  0  0  0  0  0  0  0  0  0
  149.7689  139.5536  157.3189 H   0  0  0  0  0  0  0  0  0  0  0  0
  150.5462  140.4064  159.2904 H   0  0  0  0  0  0  0  0  0  0  0  0
  152.5746  138.9790  159.1280 H   0  0  0  0  0  0  0  0  0  0  0  0
  153.3098  140.1015  158.0095 H   0  0  0  0  0  0  0  0  0  0  0  0
  152.6018  140.6626  160.9280 H   0  0  0  0  0  0  0  0  0  0  0  0
  154.2104  140.4666  160.2748 H   0  0  0  0  0  0  0  0  0  0  0  0
  153.6466  142.8707  160.5912 H   0  0  0  0  0  0  0  0  0  0  0  0
  153.9687  142.5102  158.9132 H   0  0  0  0  0  0  0  0  0  0  0  0
  151.2088  142.7381  160.1902 H   0  0  0  0  0  0  0  0  0  0  0  0
  151.8997  142.2416  157.2643 H   0  0  0  0  0  0  0  0  0  0  0  0
  150.2911  142.4295  157.9162 H   0  0  0  0  0  0  0  0  0  0  0  0
  1  2  2  0  0  0  0
  2  3  1  0  0  0  0
  2  9  1  0  0  0  0
  3  4  1  0  0  0  0
  3 20  1  0  0  0  0
  3 21  1  0  0  0  0
  4  8  1  0  0  0  0
  4  5  1  0  0  0  0
  5  6  2  0  0  0  0
  5 22  1  0  0  0  0
  6  7  1  0  0  0  0
  7  8  2  0  0  0  0
  9 10  1  0  0  0  0
  9 23  1  0  0  0  0
 10 19  1  0  0  0  0
 10 11  1  0  0  0  0
 10 24  1  0  0  0  0
 11 12  1  0  0  0  0
 11 25  1  0  0  0  0
 11 26  1  0  0  0  0
 12 13  1  0  0  0  0
 12 27  1  0  0  0  0
 12 28  1  0  0  0  0
 13 14  1  0  0  0  0
 13 29  1  0  0  0  0
 13 30  1  0  0  0  0
 14 15  1  0  0  0  0
 14 19  1  0  0  0  0
 14 31  1  0  0  0  0
 15 16  1  0  0  0  0
 15 17  1  0  0  0  0
 15 18  1  0  0  0  0
 19 32  1  0  0  0  0
 19 33  1  0  0  0  0
M  END
> <s_m_source_file>
AV-unprocessed.smi

> <i_m_source_file_index>
1085

> <i_lp_mmshare_version>
43012

> <i_f3d_flags>
0

> <s_epik_input>
bjFubltjSF1uMVtDSDJdQyg9TylbTkhdW0NAQEhdMltDSDJdW0NIMl1bQ0gyXVtDQEBIXShDKEYpKEYpRilbQ0gyXTI=

> <s_epik_cmdline>
J2VwaWtfcHl0aG9uJywgJy1waCcsICc3LjAnLCAnLXRuJywgJzgnLCAnLW1hJywgJzIwMCcsICctbWV0YWxfYmluZGluZycsICctaW1hZScsICc8aW5maWxlLm1hZT4nLCAnLW9tYWUnLCAnPG91dGZpbGUubWFlPic=

> <r_lp_tautomer_probability>
1

> <r_epik_Ionization_Penalty>
8.41315e-07

> <r_epik_Ionization_Penalty_Charging>
0

> <r_epik_Ionization_Penalty_Neutral>
8.41315e-07

> <r_epik_State_Penalty>
-0

> <r_epik_Charging_Adjusted_Penalty>
0

> <i_epik_Tot_Q>
0

> <i_epik_Tot_abs_Q>
0

> <r_epik_Metal_State_Penalty>
-0

> <b_epik_Metal_Only>
0

> <s_lp_Force_Field>
OPLS_2005

> <r_lp_Energy>
12.0143

> <b_lp_Chiralities_Consistent>
1

> <s_lp_Variant>
AV-unprocessed.smi:1085-2

> <Gold.Version>
5.8.1

> <Gold.Id.Protein>
6NUR|6NUR_protein|mol2

> <Gold.PLP.Fitness>
45.5364

> <Gold.PLP.PLP>
-39.6324

> <Gold.PLP.part.hbond>
-1.0000

> <Gold.PLP.part.metal>
0.0000

> <Gold.PLP.part.buried>
-2.5415

> <Gold.PLP.part.nonpolar>
-36.7864

> <Gold.PLP.part.repulsive>
0.8824

> <Gold.PLP.ligand.clash>
0.0000

> <Gold.PLP.ligand.torsion>
0.3315

> <Gold.PLP.Chemscore.Hbond>
1.0000

> <Gold.PLP.Chemscore.CHOScore>
1.1812

> <Gold.PLP.Chemscore.Metal>
0.0000

> <Gold.Chemscore.Hbonds>
donor molecule, donor type, donor heavy atom, donor atom, acceptor molecule, acceptor atom, score
      P1  H  7997  8010       L1     1  1.00
      L1  C     5    22       P1  7948  1.00
      L1  C     5    22       P1  7957  0.18

> <Gold.PLP.Chemscore.Internal.Correction>
0.0234

> <Gold.Rescore>
     Score         DG    S(hbond)    S(metal)    S(lipo)     H(rot)  DE(clash)    DE(int)     intcor
     10.41     -12.03       1.00        0.00      72.30       2.05       0.09       1.54       ----

> <Gold.Chemscore.Fitness>
10.4054

> <Gold.Chemscore.DG>
-12.0336

> <Gold.Chemscore.ZeroCoef>
-5.4800

> <Gold.Chemscore.Hbond>
0.9976

> <Gold.Chemscore.Metal>
0.0000

> <Gold.Chemscore.Lipo>
72.2955

> <Gold.Chemscore.Internal_Hbond>
0.0000

> <Gold.Chemscore.DEClash>
0.0872

> <Gold.Chemscore.DEInternal>
1.5411

> <Gold.Chemscore.Rot>
2.0456

> <Gold.Chemscore.Internal.Correction>
   9.000000E+99

> <Gold.Chemscore.Hbonds>
donor molecule, donor type, donor heavy atom, donor atom, acceptor molecule, acceptor atom, score
      P1  H  7997  8010       L1     1  1.00

> <Gold.Chemscore.Hbond.Weighted>
-3.3318

> <Gold.Chemscore.Metal.Weighted>
-0.0000

> <Gold.Chemscore.Lipo.Weighted>
-8.4586

> <Gold.Chemscore.Internal_Hbond.Weighted>
0.0000

> <Gold.Chemscore.DEClash.Weighted>
0.0872

> <Gold.Chemscore.DEInternal.Weighted>
1.5411

> <Gold.Chemscore.Rot.Weighted>
5.2368

> <Gold.Chemscore.Internal.Correction.Weighted>
   9.000000E+99

> <Gold.Protein.RotatedTorsions>
[ 6907 6896 6895 6894 ] final -130.88 input  -60.11 | X-H torsion
[ 7974 7965 7964 7962 ] final -134.33 input  175.53 | X-H torsion
[ 8008 7997 7996 7995 ] final   89.92 input   59.86 | X-H torsion
[ 10167 10162 10161 10158 ] final   39.46 input  -65.29 | X-H torsion
[ 10718 10713 10712 10709 ] final   27.32 input   66.30 | X-H torsion
[ 10763 10752 10751 10750 ] final  167.64 input  -60.55 | X-H torsion
[ 11005 11000 10999 10996 ] final  -75.69 input  -57.11 | X-H torsion

> <Gold.Protein.ActiveResidues>
 VAL166  LYS551  ARG553  GLY616  TRP617  ASP618  TYR619  PRO620  LYS621  CYS622 
 ASP623  PHE694  ASN695  SER759  ASP760  ASP761  ALA762  ILE779  LEU786  VAL792 
 PHE793  MET794  SER795  GLU796  ALA797  LYS798  CYS799  TRP800  GLU811  SER814 

> <Gold.Protein.RotatedAtoms>
  150.9447  133.6617  159.2783 H   0  0  0  0  0  0  0  0  0  0  0  0  # atno 6907 bound_to 6896
  151.3993  135.0967  159.9560 H   0  0  0  0  0  0  0  0  0  0  0  0  # atno 6908 bound_to 6896
  152.5084  133.8944  159.7465 H   0  0  0  0  0  0  0  0  0  0  0  0  # atno 6909 bound_to 6896
  144.9112  140.6897  143.5024 H   0  0  0  0  0  0  0  0  0  0  0  0  # atno 7974 bound_to 7965
  156.0058  140.3355  155.6891 H   0  0  0  0  0  0  0  0  0  0  0  0  # atno 8008 bound_to 7997
  155.6227  140.0676  157.2691 H   0  0  0  0  0  0  0  0  0  0  0  0  # atno 8009 bound_to 7997
  154.4264  140.1774  156.1376 H   0  0  0  0  0  0  0  0  0  0  0  0  # atno 8010 bound_to 7997
  140.3837  144.1945  150.6130 H   0  0  0  0  0  0  0  0  0  0  0  0  # atno 10167 bound_to 10162
  157.2186  130.6968  149.6260 H   0  0  0  0  0  0  0  0  0  0  0  0  # atno 10718 bound_to 10713
  154.3568  135.2753  155.2342 H   0  0  0  0  0  0  0  0  0  0  0  0  # atno 10763 bound_to 10752
  154.4547  135.5922  153.6218 H   0  0  0  0  0  0  0  0  0  0  0  0  # atno 10764 bound_to 10752
  152.9846  135.6050  154.3785 H   0  0  0  0  0  0  0  0  0  0  0  0  # atno 10765 bound_to 10752
  141.1647  133.6956  156.7555 H   0  0  0  0  0  0  0  0  0  0  0  0  # atno 11005 bound_to 11000
  145.3451  139.1721  143.4465 LP  0  0  0  0  0  0  0  0  0  0  0  0  # atno 17320 bound_to 7965
  146.3159  140.3497  142.8655 LP  0  0  0  0  0  0  0  0  0  0  0  0  # atno 17321 bound_to 7965
  140.4911  143.2347  151.8817 LP  0  0  0  0  0  0  0  0  0  0  0  0  # atno 17342 bound_to 10162
  139.4793  144.5165  151.8861 LP  0  0  0  0  0  0  0  0  0  0  0  0  # atno 17343 bound_to 10162
  155.9684  130.4527  150.5785 LP  0  0  0  0  0  0  0  0  0  0  0  0  # atno 17370 bound_to 10713
  157.3599  131.0748  151.1645 LP  0  0  0  0  0  0  0  0  0  0  0  0  # atno 17371 bound_to 10713
  140.2573  134.8494  157.3724 LP  0  0  0  0  0  0  0  0  0  0  0  0  # atno 17394 bound_to 11000
  140.1645  134.4686  155.7872 LP  0  0  0  0  0  0  0  0  0  0  0  0  # atno 17395 bound_to 11000

$$$$
