AV-unprocessed.smi:2321|AV-procd|sdf|9282|dock1
  -GOLD-   2272012503D 1   1.00000     0.00000
 Structure written by MMmdl.
 36 37  0  0  0  0  0  0  0  0  1 V2000
  151.1613  140.9492  156.4815 O   0  0  0  0  0  0  0  0  0  0  0  0
  150.3782  141.8935  156.4093 C   0  0  0  0  0  0  0  0  0  0  0  0
  149.2784  141.9234  155.6315 N   0  0  0  0  0  0  0  0  0  0  0  0
  148.7760  140.9281  154.7504 C   0  0  0  0  0  0  0  0  0  0  0  0
  149.3062  139.6196  154.6414 C   0  0  0  0  0  0  0  0  0  0  0  0
  148.7028  138.7210  153.7386 C   0  0  0  0  0  0  0  0  0  0  0  0
  147.6362  139.0376  152.9740 N   0  0  0  0  0  0  0  0  0  0  0  0
  147.1248  140.2813  153.0915 C   0  0  0  0  0  0  0  0  0  0  0  0
  147.6521  141.2556  153.9626 C   0  0  0  0  0  0  0  0  0  0  0  0
  147.0882  142.4858  154.0355 F   0  0  0  0  0  0  0  0  0  0  0  0
  150.5863  143.0221  157.1128 N   0  0  0  0  0  0  0  0  0  0  0  0
  151.6735  143.3274  158.0459 C   0  0  1  0  0  0  0  0  0  0  0  0
  151.2108  144.4167  159.0299 C   0  0  0  0  0  0  0  0  0  0  0  0
  152.3017  144.7344  160.0631 C   0  0  0  0  0  0  0  0  0  0  0  0
  152.7417  143.4689  160.8156 C   0  0  0  0  0  0  0  0  0  0  0  0
  153.2177  142.3671  159.8456 C   0  0  1  0  0  0  0  0  0  0  0  0
  153.6788  141.0985  160.5927 C   0  0  0  0  0  0  0  0  0  0  0  0
  154.3418  141.4170  161.7048 F   0  0  0  0  0  0  0  0  0  0  0  0
  152.6237  140.3516  160.9183 F   0  0  0  0  0  0  0  0  0  0  0  0
  154.4758  140.3718  159.8092 F   0  0  0  0  0  0  0  0  0  0  0  0
  152.1155  142.0602  158.8090 C   0  0  0  0  0  0  0  0  0  0  0  0
  148.7746  142.7982  155.6194 H   0  0  0  0  0  0  0  0  0  0  0  0
  150.1444  139.2852  155.2327 H   0  0  0  0  0  0  0  0  0  0  0  0
  149.0848  137.7164  153.6330 H   0  0  0  0  0  0  0  0  0  0  0  0
  146.2679  140.5066  152.4739 H   0  0  0  0  0  0  0  0  0  0  0  0
  149.9172  143.7648  156.9687 H   0  0  0  0  0  0  0  0  0  0  0  0
  152.5252  143.7261  157.4917 H   0  0  0  0  0  0  0  0  0  0  0  0
  150.9460  145.3246  158.4865 H   0  0  0  0  0  0  0  0  0  0  0  0
  150.3069  144.0910  159.5470 H   0  0  0  0  0  0  0  0  0  0  0  0
  153.1617  145.1810  159.5628 H   0  0  0  0  0  0  0  0  0  0  0  0
  151.9359  145.4788  160.7710 H   0  0  0  0  0  0  0  0  0  0  0  0
  153.5386  143.7238  161.5148 H   0  0  0  0  0  0  0  0  0  0  0  0
  151.9108  143.0984  161.4172 H   0  0  0  0  0  0  0  0  0  0  0  0
  154.0814  142.7552  159.3033 H   0  0  0  0  0  0  0  0  0  0  0  0
  151.2544  141.6171  159.3112 H   0  0  0  0  0  0  0  0  0  0  0  0
  152.4765  141.3101  158.1047 H   0  0  0  0  0  0  0  0  0  0  0  0
  1  2  2  0  0  0  0
  2  3  1  0  0  0  0
  2 11  1  0  0  0  0
  3  4  1  0  0  0  0
  3 22  1  0  0  0  0
  4  9  1  0  0  0  0
  4  5  2  0  0  0  0
  5  6  1  0  0  0  0
  5 23  1  0  0  0  0
  6  7  2  0  0  0  0
  6 24  1  0  0  0  0
  7  8  1  0  0  0  0
  8  9  2  0  0  0  0
  8 25  1  0  0  0  0
  9 10  1  0  0  0  0
 11 12  1  0  0  0  0
 11 26  1  0  0  0  0
 12 21  1  0  0  0  0
 12 13  1  0  0  0  0
 12 27  1  0  0  0  0
 13 14  1  0  0  0  0
 13 28  1  0  0  0  0
 13 29  1  0  0  0  0
 14 15  1  0  0  0  0
 14 30  1  0  0  0  0
 14 31  1  0  0  0  0
 15 16  1  0  0  0  0
 15 32  1  0  0  0  0
 15 33  1  0  0  0  0
 16 17  1  0  0  0  0
 16 21  1  0  0  0  0
 16 34  1  0  0  0  0
 17 18  1  0  0  0  0
 17 19  1  0  0  0  0
 17 20  1  0  0  0  0
 21 35  1  0  0  0  0
 21 36  1  0  0  0  0
M  END
> <s_m_source_file>
AV-unprocessed.smi

> <i_m_source_file_index>
2321

> <i_lp_mmshare_version>
43012

> <i_f3d_flags>
0

> <s_epik_input>
RkMoRikoRilbQ0BASF0oW0NIMl0xKVtDSDJdW0NIMl1bQ0gyXVtDQEhdMVtOSF1DKD1PKVtOSF1jMltjSF1bY0hdbltjSF1jMkY=

> <s_epik_cmdline>
J2VwaWtfcHl0aG9uJywgJy1waCcsICc3LjAnLCAnLXRuJywgJzgnLCAnLW1hJywgJzIwMCcsICctbWV0YWxfYmluZGluZycsICctaW1hZScsICc8aW5maWxlLm1hZT4nLCAnLW9tYWUnLCAnPG91dGZpbGUubWFlPic=

> <r_epik_Ionization_Penalty>
0.00319438

> <r_epik_Ionization_Penalty_Charging>
0

> <r_epik_Ionization_Penalty_Neutral>
0.00319438

> <r_epik_State_Penalty>
0.00222511

> <r_epik_Charging_Adjusted_Penalty>
0.00222511

> <i_epik_Tot_Q>
0

> <i_epik_Tot_abs_Q>
0

> <r_epik_Metal_State_Penalty>
-0

> <b_epik_Metal_Only>
0

> <s_lp_Force_Field>
OPLS_2005

> <r_lp_Energy>
26.7556

> <b_lp_Chiralities_Consistent>
1

> <s_lp_Variant>
AV-unprocessed.smi:2321-2

> <Gold.Version>
5.8.1

> <Gold.Id.Protein>
6NUR|6NUR_protein|mol2

> <Gold.PLP.Fitness>
50.3119

> <Gold.PLP.PLP>
-40.5737

> <Gold.PLP.part.hbond>
-2.0000

> <Gold.PLP.part.metal>
0.0000

> <Gold.PLP.part.buried>
-2.0803

> <Gold.PLP.part.nonpolar>
-38.1071

> <Gold.PLP.part.repulsive>
1.9507

> <Gold.PLP.ligand.clash>
0.0066

> <Gold.PLP.ligand.torsion>
0.8756

> <Gold.PLP.Chemscore.Hbond>
1.8240

> <Gold.PLP.Chemscore.CHOScore>
2.0000

> <Gold.PLP.Chemscore.Metal>
0.0000

> <Gold.Chemscore.Hbonds>
donor molecule, donor type, donor heavy atom, donor atom, acceptor molecule, acceptor atom, score
      L1  H     3    22       P1  8028  0.94
      L1  H    11    26       P1  8028  0.91
      L1  C     6    24       P1  7948  1.00
      L1  C     8    25       P1 10175  0.89

> <Gold.PLP.Chemscore.Internal.Correction>
0.0242

> <Gold.Rescore>
     Score         DG    S(hbond)    S(metal)    S(lipo)     H(rot)  DE(clash)    DE(int)     intcor
     17.44     -21.94       1.87        0.00     109.19       1.00       0.98       3.52       ----

> <Gold.Chemscore.Fitness>
17.4392

> <Gold.Chemscore.DG>
-21.9394

> <Gold.Chemscore.ZeroCoef>
-5.4800

> <Gold.Chemscore.Hbond>
1.8696

> <Gold.Chemscore.Metal>
0.0000

> <Gold.Chemscore.Lipo>
109.1872

> <Gold.Chemscore.Internal_Hbond>
0.0000

> <Gold.Chemscore.DEClash>
0.9813

> <Gold.Chemscore.DEInternal>
3.5189

> <Gold.Chemscore.Rot>
1.0000

> <Gold.Chemscore.Internal.Correction>
   9.000000E+99

> <Gold.Chemscore.Hbonds>
donor molecule, donor type, donor heavy atom, donor atom, acceptor molecule, acceptor atom, score
      L1  H     3    22       P1  8028  0.91
      L1  H    11    26       P1  8028  0.87

> <Gold.Chemscore.Hbond.Weighted>
-6.2445

> <Gold.Chemscore.Metal.Weighted>
-0.0000

> <Gold.Chemscore.Lipo.Weighted>
-12.7749

> <Gold.Chemscore.Internal_Hbond.Weighted>
0.0000

> <Gold.Chemscore.DEClash.Weighted>
0.9813

> <Gold.Chemscore.DEInternal.Weighted>
3.5189

> <Gold.Chemscore.Rot.Weighted>
2.5600

> <Gold.Chemscore.Internal.Correction.Weighted>
   9.000000E+99

> <Gold.Protein.RotatedTorsions>
[ 6907 6896 6895 6894 ] final  156.64 input  -60.11 | X-H torsion
[ 7974 7965 7964 7962 ] final  -14.39 input  175.53 | X-H torsion
[ 8008 7997 7996 7995 ] final  -56.72 input   59.86 | X-H torsion
[ 10167 10162 10161 10158 ] final  127.42 input  -65.29 | X-H torsion
[ 10718 10713 10712 10709 ] final  118.37 input   66.30 | X-H torsion
[ 10763 10752 10751 10750 ] final  151.49 input  -60.55 | X-H torsion
[ 11005 11000 10999 10996 ] final   94.09 input  -57.11 | X-H torsion

> <Gold.Protein.ActiveResidues>
 VAL166  LYS551  ARG553  GLY616  TRP617  ASP618  TYR619  PRO620  LYS621  CYS622 
 ASP623  PHE694  ASN695  SER759  ASP760  ASP761  ALA762  ILE779  LEU786  VAL792 
 PHE793  MET794  SER795  GLU796  ALA797  LYS798  CYS799  TRP800  GLU811  SER814 

> <Gold.Protein.RotatedAtoms>
  152.0267  133.3920  159.4280 H   0  0  0  0  0  0  0  0  0  0  0  0  # atno 6907 bound_to 6896
  150.6885  134.3566  159.4941 H   0  0  0  0  0  0  0  0  0  0  0  0  # atno 6908 bound_to 6896
  152.1347  134.9108  160.0607 H   0  0  0  0  0  0  0  0  0  0  0  0  # atno 6909 bound_to 6896
  146.2076  140.3342  142.8402 H   0  0  0  0  0  0  0  0  0  0  0  0  # atno 7974 bound_to 7965
  154.4241  140.1123  156.5683 H   0  0  0  0  0  0  0  0  0  0  0  0  # atno 8008 bound_to 7997
  155.6238  140.3495  155.4642 H   0  0  0  0  0  0  0  0  0  0  0  0  # atno 8009 bound_to 7997
  156.0002  140.1197  157.0544 H   0  0  0  0  0  0  0  0  0  0  0  0  # atno 8010 bound_to 7997
  139.5579  144.6862  151.4127 H   0  0  0  0  0  0  0  0  0  0  0  0  # atno 10167 bound_to 10162
  157.6035  131.1047  150.7746 H   0  0  0  0  0  0  0  0  0  0  0  0  # atno 10718 bound_to 10713
  154.1047  135.2843  155.3244 H   0  0  0  0  0  0  0  0  0  0  0  0  # atno 10763 bound_to 10752
  154.6531  135.5361  153.7929 H   0  0  0  0  0  0  0  0  0  0  0  0  # atno 10764 bound_to 10752
  153.0366  135.6515  154.1209 H   0  0  0  0  0  0  0  0  0  0  0  0  # atno 10765 bound_to 10752
  139.8802  134.8826  156.3813 H   0  0  0  0  0  0  0  0  0  0  0  0  # atno 11005 bound_to 11000
  144.8831  140.7426  143.5974 LP  0  0  0  0  0  0  0  0  0  0  0  0  # atno 17320 bound_to 7965
  145.3263  139.1773  143.4561 LP  0  0  0  0  0  0  0  0  0  0  0  0  # atno 17321 bound_to 7965
  140.6855  143.7983  150.7180 LP  0  0  0  0  0  0  0  0  0  0  0  0  # atno 17342 bound_to 10162
  140.1450  143.4408  152.2169 LP  0  0  0  0  0  0  0  0  0  0  0  0  # atno 17343 bound_to 10162
  156.8140  130.4962  149.5352 LP  0  0  0  0  0  0  0  0  0  0  0  0  # atno 17370 bound_to 10713
  156.1114  130.6043  151.0053 LP  0  0  0  0  0  0  0  0  0  0  0  0  # atno 17371 bound_to 10713
  140.9397  133.7523  156.0130 LP  0  0  0  0  0  0  0  0  0  0  0  0  # atno 17394 bound_to 11000
  140.8234  134.3263  157.5374 LP  0  0  0  0  0  0  0  0  0  0  0  0  # atno 17395 bound_to 11000

$$$$
