AV-unprocessed.smi:1697|AV-procd|sdf|6804|dock4
  -GOLD-   22720 7573D 1   1.00000     0.00000
 Structure written by MMmdl.
 54 56  0  0  0  0  0  0  0  0  2 V2000
  144.1424  134.2935  151.2320 C   0  0  0  0  0  0  0  0  0  0  0  0
  144.2305  135.5608  152.0936 C   0  0  0  0  0  0  0  0  0  0  0  0
  145.2842  136.4212  151.6778 O   0  0  0  0  0  0  0  0  0  0  0  0
  145.4762  137.5806  152.4788 C   0  0  2  0  0  0  0  0  0  0  0  0
  146.5282  138.4706  151.8024 C   0  0  0  0  0  0  0  0  0  0  0  0
  146.8837  139.6759  152.6893 C   0  0  0  0  0  0  0  0  0  0  0  0
  147.3570  139.2364  154.0276 N   0  3  1  0  0  0  0  0  0  0  0  0
  147.8374  140.3695  154.8596 C   0  0  0  0  0  0  0  0  0  0  0  0
  149.3476  140.6226  154.6875 C   0  0  1  0  0  0  0  0  0  0  0  0
  149.5841  141.1052  153.3784 O   0  0  0  0  0  0  0  0  0  0  0  0
  149.8835  141.6426  155.7101 C   0  0  0  0  0  0  0  0  0  0  0  0
  150.9405  141.0880  156.5362 N   0  0  0  0  0  0  0  0  0  0  0  0
  151.6711  139.9818  156.2969 C   0  0  0  0  0  0  0  0  0  0  0  0
  152.5901  139.6527  157.2001 N   0  0  0  0  0  0  0  0  0  0  0  0
  152.4404  140.6645  158.1331 C   0  0  0  0  0  0  0  0  0  0  0  0
  153.1197  140.9009  159.3482 C   0  0  0  0  0  0  0  0  0  0  0  0
  152.7949  142.0147  160.1553 C   0  0  0  0  0  0  0  0  0  0  0  0
  153.5489  142.2290  161.4559 C   0  0  0  0  0  0  0  0  0  0  0  0
  151.7764  142.9143  159.7492 C   0  0  0  0  0  0  0  0  0  0  0  0
  151.4102  144.1172  160.6004 C   0  0  0  0  0  0  0  0  0  0  0  0
  151.0884  142.6933  158.5379 C   0  0  0  0  0  0  0  0  0  0  0  0
  151.4191  141.5802  157.7452 C   0  0  0  0  0  0  0  0  0  0  0  0
  146.3440  138.3906  154.7150 C   0  0  0  0  0  0  0  0  0  0  0  0
  145.9836  137.1605  153.8670 C   0  0  0  0  0  0  0  0  0  0  0  0
  143.2742  133.6968  151.5125 H   0  0  0  0  0  0  0  0  0  0  0  0
  145.0230  133.6627  151.3504 H   0  0  0  0  0  0  0  0  0  0  0  0
  144.0458  134.5445  150.1754 H   0  0  0  0  0  0  0  0  0  0  0  0
  143.2979  136.1174  151.9994 H   0  0  0  0  0  0  0  0  0  0  0  0
  144.3347  135.3100  153.1501 H   0  0  0  0  0  0  0  0  0  0  0  0
  144.5528  138.1536  152.5852 H   0  0  0  0  0  0  0  0  0  0  0  0
  147.4289  137.8894  151.5997 H   0  0  0  0  0  0  0  0  0  0  0  0
  146.1581  138.8147  150.8359 H   0  0  0  0  0  0  0  0  0  0  0  0
  147.6613  140.2618  152.1976 H   0  0  0  0  0  0  0  0  0  0  0  0
  146.0172  140.3294  152.8043 H   0  0  0  0  0  0  0  0  0  0  0  0
  147.3010  141.2827  154.5959 H   0  0  0  0  0  0  0  0  0  0  0  0
  147.5975  140.1706  155.9053 H   0  0  0  0  0  0  0  0  0  0  0  0
  149.9010  139.6918  154.8069 H   0  0  0  0  0  0  0  0  0  0  0  0
  149.3809  140.4197  152.7601 H   0  0  0  0  0  0  0  0  0  0  0  0
  150.2590  142.5346  155.2064 H   0  0  0  0  0  0  0  0  0  0  0  0
  149.0797  141.9713  156.3700 H   0  0  0  0  0  0  0  0  0  0  0  0
  151.5163  139.3807  155.4127 H   0  0  0  0  0  0  0  0  0  0  0  0
  153.8950  140.2156  159.6577 H   0  0  0  0  0  0  0  0  0  0  0  0
  152.8646  142.1923  162.3038 H   0  0  0  0  0  0  0  0  0  0  0  0
  154.0478  143.1982  161.4543 H   0  0  0  0  0  0  0  0  0  0  0  0
  154.3097  141.4628  161.6066 H   0  0  0  0  0  0  0  0  0  0  0  0
  150.6069  144.6968  160.1451 H   0  0  0  0  0  0  0  0  0  0  0  0
  152.2704  144.7759  160.7216 H   0  0  0  0  0  0  0  0  0  0  0  0
  151.0753  143.7991  161.5877 H   0  0  0  0  0  0  0  0  0  0  0  0
  150.3109  143.3703  158.2165 H   0  0  0  0  0  0  0  0  0  0  0  0
  146.7185  138.0533  155.6806 H   0  0  0  0  0  0  0  0  0  0  0  0
  145.4488  138.9815  154.9150 H   0  0  0  0  0  0  0  0  0  0  0  0
  145.2301  136.5648  154.3818 H   0  0  0  0  0  0  0  0  0  0  0  0
  146.8614  136.5213  153.7616 H   0  0  0  0  0  0  0  0  0  0  0  0
  148.1640  138.6518  153.8597 H   0  0  0  0  0  0  0  0  0  0  0  0
  1  2  1  0  0  0  0
  1 25  1  0  0  0  0
  1 26  1  0  0  0  0
  1 27  1  0  0  0  0
  2  3  1  0  0  0  0
  2 28  1  0  0  0  0
  2 29  1  0  0  0  0
  3  4  1  0  0  0  0
  4 24  1  0  0  0  0
  4  5  1  0  0  0  0
  4 30  1  0  0  0  0
  5  6  1  0  0  0  0
  5 31  1  0  0  0  0
  5 32  1  0  0  0  0
  6  7  1  0  0  0  0
  6 33  1  0  0  0  0
  6 34  1  0  0  0  0
  7  8  1  0  0  0  0
  7 23  1  0  0  0  0
  7 54  1  0  0  0  0
  8  9  1  0  0  0  0
  8 35  1  0  0  0  0
  8 36  1  0  0  0  0
  9 10  1  0  0  0  0
  9 11  1  0  0  0  0
  9 37  1  0  0  0  0
 10 38  1  0  0  0  0
 11 12  1  0  0  0  0
 11 39  1  0  0  0  0
 11 40  1  0  0  0  0
 12 22  1  0  0  0  0
 12 13  1  0  0  0  0
 13 14  2  0  0  0  0
 13 41  1  0  0  0  0
 14 15  1  0  0  0  0
 15 22  2  0  0  0  0
 15 16  1  0  0  0  0
 16 17  2  0  0  0  0
 16 42  1  0  0  0  0
 17 18  1  0  0  0  0
 17 19  1  0  0  0  0
 18 43  1  0  0  0  0
 18 44  1  0  0  0  0
 18 45  1  0  0  0  0
 19 20  1  0  0  0  0
 19 21  2  0  0  0  0
 20 46  1  0  0  0  0
 20 47  1  0  0  0  0
 20 48  1  0  0  0  0
 21 22  1  0  0  0  0
 21 49  1  0  0  0  0
 23 24  1  0  0  0  0
 23 50  1  0  0  0  0
 23 51  1  0  0  0  0
 24 52  1  0  0  0  0
 24 53  1  0  0  0  0
M  CHG  1   7   1
M  END
> <s_m_source_file>
AV-unprocessed.smi

> <i_m_source_file_index>
1697

> <i_lp_mmshare_version>
43012

> <i_f3d_flags>
0

> <s_epik_input>
W0NIM11bQ0gyXU9bQ0hdMVtDSDJdW0NIMl1OKFtDSDJdW0NIMl0xKVtDSDJdW0NASF0oW09IXSlbQ0gyXW4oW2NIXW4yKWMoYzIzKVtjSF1jKFtDSDNdKWMoW2NIXTMpW0NIM10=

> <s_epik_cmdline>
J2VwaWtfcHl0aG9uJywgJy1waCcsICc3LjAnLCAnLXRuJywgJzgnLCAnLW1hJywgJzIwMCcsICctbWV0YWxfYmluZGluZycsICctaW1hZScsICc8aW5maWxlLm1hZT4nLCAnLW9tYWUnLCAnPG91dGZpbGUubWFlPic=

> <r_epik_Ionization_Penalty>
0.112476

> <r_epik_Ionization_Penalty_Charging>
0.0244612

> <r_epik_Ionization_Penalty_Neutral>
0.0880147

> <r_epik_State_Penalty>
0.0961447

> <r_epik_Charging_Adjusted_Penalty>
0.120606

> <i_epik_Tot_Q>
1

> <i_epik_Tot_abs_Q>
1

> <r_epik_Metal_State_Penalty>
0.0206204

> <b_epik_Metal_Only>
0

> <s_lp_Force_Field>
OPLS_2005

> <r_lp_Energy>
24.3812

> <b_lp_Chiralities_Consistent>
1

> <s_lp_Variant>
AV-unprocessed.smi:1697-2

> <Gold.Version>
5.8.1

> <Gold.Id.Protein>
6NUR|6NUR_protein|mol2

> <Gold.PLP.Fitness>
52.9476

> <Gold.PLP.PLP>
-47.0210

> <Gold.PLP.part.hbond>
-3.7119

> <Gold.PLP.part.metal>
0.0000

> <Gold.PLP.part.buried>
-3.9228

> <Gold.PLP.part.nonpolar>
-39.9383

> <Gold.PLP.part.repulsive>
0.2189

> <Gold.PLP.ligand.clash>
0.0000

> <Gold.PLP.ligand.torsion>
1.5127

> <Gold.PLP.Chemscore.Hbond>
2.9000

> <Gold.PLP.Chemscore.CHOScore>
0.0000

> <Gold.PLP.Chemscore.Metal>
0.0000

> <Gold.Chemscore.Hbonds>
donor molecule, donor type, donor heavy atom, donor atom, acceptor molecule, acceptor atom, score
      L1  H    10    38       P1  7957  0.78
      P1  H  7989  7998       L1    10  0.14
      P1  H  7997  8010       L1    14  1.00
      P1  H  8011  8017       L1    10  1.00

> <Gold.PLP.Chemscore.Internal.Correction>
0.2520

> <Gold.Rescore>
     Score         DG    S(hbond)    S(metal)    S(lipo)     H(rot)  DE(clash)    DE(int)     intcor
     19.38     -21.10       1.88        0.00     129.62       2.27       0.09       1.63       ----

> <Gold.Chemscore.Fitness>
19.3792

> <Gold.Chemscore.DG>
-21.1046

> <Gold.Chemscore.ZeroCoef>
-5.4800

> <Gold.Chemscore.Hbond>
1.8780

> <Gold.Chemscore.Metal>
0.0000

> <Gold.Chemscore.Lipo>
129.6230

> <Gold.Chemscore.Internal_Hbond>
0.0000

> <Gold.Chemscore.DEClash>
0.0935

> <Gold.Chemscore.DEInternal>
1.6319

> <Gold.Chemscore.Rot>
2.2710

> <Gold.Chemscore.Internal.Correction>
   9.000000E+99

> <Gold.Chemscore.Hbonds>
donor molecule, donor type, donor heavy atom, donor atom, acceptor molecule, acceptor atom, score
      L1  H    10    38       P1  7957  0.79
      P1  H  7989  7998       L1    10  0.01
      P1  H  7997  8010       L1    14  0.16
      P1  H  8011  8017       L1    10  0.25

> <Gold.Chemscore.Hbond.Weighted>
-6.2724

> <Gold.Chemscore.Metal.Weighted>
-0.0000

> <Gold.Chemscore.Lipo.Weighted>
-15.1659

> <Gold.Chemscore.Internal_Hbond.Weighted>
0.0000

> <Gold.Chemscore.DEClash.Weighted>
0.0935

> <Gold.Chemscore.DEInternal.Weighted>
1.6319

> <Gold.Chemscore.Rot.Weighted>
5.8137

> <Gold.Chemscore.Internal.Correction.Weighted>
   9.000000E+99

> <Gold.Protein.RotatedTorsions>
[ 6907 6896 6895 6894 ] final   15.55 input  -60.11 | X-H torsion
[ 7974 7965 7964 7962 ] final   20.83 input  175.53 | X-H torsion
[ 8008 7997 7996 7995 ] final   75.27 input   59.86 | X-H torsion
[ 10167 10162 10161 10158 ] final   86.08 input  -65.29 | X-H torsion
[ 10718 10713 10712 10709 ] final  -68.26 input   66.30 | X-H torsion
[ 10763 10752 10751 10750 ] final -155.56 input  -60.55 | X-H torsion
[ 11005 11000 10999 10996 ] final   53.74 input  -57.11 | X-H torsion

> <Gold.Protein.ActiveResidues>
 VAL166  LYS551  ARG553  GLY616  TRP617  ASP618  TYR619  PRO620  LYS621  CYS622 
 ASP623  PHE694  ASN695  SER759  ASP760  ASP761  ALA762  ILE779  LEU786  VAL792 
 PHE793  MET794  SER795  GLU796  ALA797  LYS798  CYS799  TRP800  GLU811  SER814 

> <Gold.Protein.RotatedAtoms>
  151.8199  135.0655  160.0423 H   0  0  0  0  0  0  0  0  0  0  0  0  # atno 6907 bound_to 6896
  152.2959  133.5602  159.5595 H   0  0  0  0  0  0  0  0  0  0  0  0  # atno 6908 bound_to 6896
  150.7251  134.0278  159.3765 H   0  0  0  0  0  0  0  0  0  0  0  0  # atno 6909 bound_to 6896
  146.2096  139.8114  142.8699 H   0  0  0  0  0  0  0  0  0  0  0  0  # atno 7974 bound_to 7965
  155.8105  140.3473  155.5455 H   0  0  0  0  0  0  0  0  0  0  0  0  # atno 8008 bound_to 7997
  155.8446  140.0947  157.1733 H   0  0  0  0  0  0  0  0  0  0  0  0  # atno 8009 bound_to 7997
  154.4006  140.1388  156.3757 H   0  0  0  0  0  0  0  0  0  0  0  0  # atno 8010 bound_to 7997
  139.8912  144.6384  150.8737 H   0  0  0  0  0  0  0  0  0  0  0  0  # atno 10167 bound_to 10162
  156.0515  130.4291  150.1974 H   0  0  0  0  0  0  0  0  0  0  0  0  # atno 10718 bound_to 10713
  154.7778  135.3165  154.8055 H   0  0  0  0  0  0  0  0  0  0  0  0  # atno 10763 bound_to 10752
  153.8774  135.6838  153.4774 H   0  0  0  0  0  0  0  0  0  0  0  0  # atno 10764 bound_to 10752
  153.1406  135.4741  154.9426 H   0  0  0  0  0  0  0  0  0  0  0  0  # atno 10765 bound_to 10752
  140.0742  134.5427  155.9014 H   0  0  0  0  0  0  0  0  0  0  0  0  # atno 11005 bound_to 11000
  145.3192  141.0239  143.3510 LP  0  0  0  0  0  0  0  0  0  0  0  0  # atno 17320 bound_to 7965
  144.8879  139.4814  143.6692 LP  0  0  0  0  0  0  0  0  0  0  0  0  # atno 17321 bound_to 7965
  140.7726  143.3509  151.2017 LP  0  0  0  0  0  0  0  0  0  0  0  0  # atno 17342 bound_to 10162
  139.7108  143.9380  152.2946 LP  0  0  0  0  0  0  0  0  0  0  0  0  # atno 17343 bound_to 10162
  157.0057  130.9935  151.3379 LP  0  0  0  0  0  0  0  0  0  0  0  0  # atno 17370 bound_to 10713
  157.5445  130.8141  149.8069 LP  0  0  0  0  0  0  0  0  0  0  0  0  # atno 17371 bound_to 10713
  141.2023  133.6624  156.6000 LP  0  0  0  0  0  0  0  0  0  0  0  0  # atno 17394 bound_to 11000
  140.3582  134.7710  157.4515 LP  0  0  0  0  0  0  0  0  0  0  0  0  # atno 17395 bound_to 11000

$$$$
