AV-unprocessed.smi:2008|AV-procd|sdf|8141|dock3
  -GOLD-   2272010373D 1   1.00000     0.00000
 Structure written by MMmdl.
 46 47  0  0  0  0  0  0  0  0  2 V2000
  151.0279  141.7833  157.8883 C   0  0  0  0  0  0  0  0  0  0  0  0
  151.0445  141.5568  156.4831 O   0  0  0  0  0  0  0  0  0  0  0  0
  150.5682  140.3521  156.0081 C   0  0  0  0  0  0  0  0  0  0  0  0
  150.0430  139.4243  156.9291 C   0  0  0  0  0  0  0  0  0  0  0  0
  149.5575  138.1912  156.4534 C   0  0  0  0  0  0  0  0  0  0  0  0
  149.6048  137.9269  155.0635 C   0  0  0  0  0  0  0  0  0  0  0  0
  149.1655  136.7189  154.4555 N   0  0  0  0  0  0  0  0  0  0  0  0
  148.7647  135.5768  155.0399 C   0  0  0  0  0  0  0  0  0  0  0  0
  148.6762  135.3854  156.2523 O   0  0  0  0  0  0  0  0  0  0  0  0
  148.4525  134.6467  154.1262 N   0  0  0  0  0  0  0  0  0  0  0  0
  147.9865  133.3006  154.4393 C   0  0  0  0  0  0  0  0  0  0  0  0
  148.5611  132.2636  153.4536 C   0  0  0  0  0  0  0  0  0  0  0  0
  147.6227  131.9687  152.3339 N   0  3  2  0  0  0  0  0  0  0  0  0
  147.0440  133.2300  151.7865 C   0  0  0  0  0  0  0  0  0  0  0  0
  146.1747  132.9801  150.5480 C   0  0  0  0  0  0  0  0  0  0  0  0
  145.0467  132.0049  150.8816 C   0  0  0  0  0  0  0  0  0  0  0  0
  145.6478  130.7110  151.4349 C   0  0  0  0  0  0  0  0  0  0  0  0
  146.5601  130.9602  152.6581 C   0  0  1  0  0  0  0  0  0  0  0  0
  147.1327  129.6003  153.1131 C   0  0  0  0  0  0  0  0  0  0  0  0
  150.1583  138.9189  154.2276 C   0  0  0  0  0  0  0  0  0  0  0  0
  150.6266  140.1021  154.6769 N   0  0  0  0  0  0  0  0  0  0  0  0
  151.4352  142.7721  158.0986 H   0  0  0  0  0  0  0  0  0  0  0  0
  151.6411  141.0535  158.4188 H   0  0  0  0  0  0  0  0  0  0  0  0
  150.0119  141.7532  158.2844 H   0  0  0  0  0  0  0  0  0  0  0  0
  150.0179  139.6524  157.9845 H   0  0  0  0  0  0  0  0  0  0  0  0
  149.1748  137.4770  157.1651 H   0  0  0  0  0  0  0  0  0  0  0  0
  149.1163  136.7406  153.4474 H   0  0  0  0  0  0  0  0  0  0  0  0
  148.5438  134.8860  153.1494 H   0  0  0  0  0  0  0  0  0  0  0  0
  148.2423  133.0677  155.4729 H   0  0  0  0  0  0  0  0  0  0  0  0
  146.8975  133.2983  154.3838 H   0  0  0  0  0  0  0  0  0  0  0  0
  149.5026  132.6695  153.0947 H   0  0  0  0  0  0  0  0  0  0  0  0
  148.8188  131.3347  153.9648 H   0  0  0  0  0  0  0  0  0  0  0  0
  146.4491  133.7208  152.5588 H   0  0  0  0  0  0  0  0  0  0  0  0
  147.8345  133.9285  151.5155 H   0  0  0  0  0  0  0  0  0  0  0  0
  145.7579  133.9213  150.1885 H   0  0  0  0  0  0  0  0  0  0  0  0
  146.7871  132.5811  149.7381 H   0  0  0  0  0  0  0  0  0  0  0  0
  144.3728  132.4482  151.6159 H   0  0  0  0  0  0  0  0  0  0  0  0
  144.4511  131.7958  149.9925 H   0  0  0  0  0  0  0  0  0  0  0  0
  144.8404  130.0282  151.7026 H   0  0  0  0  0  0  0  0  0  0  0  0
  146.2172  130.2154  150.6470 H   0  0  0  0  0  0  0  0  0  0  0  0
  145.9475  131.3633  153.4662 H   0  0  0  0  0  0  0  0  0  0  0  0
  146.3472  128.8453  153.1595 H   0  0  0  0  0  0  0  0  0  0  0  0
  147.5670  129.6348  154.1109 H   0  0  0  0  0  0  0  0  0  0  0  0
  147.8927  129.2364  152.4211 H   0  0  0  0  0  0  0  0  0  0  0  0
  150.2270  138.7607  153.1611 H   0  0  0  0  0  0  0  0  0  0  0  0
  148.1773  131.5559  151.5975 H   0  0  0  0  0  0  0  0  0  0  0  0
  1  2  1  0  0  0  0
  1 22  1  0  0  0  0
  1 23  1  0  0  0  0
  1 24  1  0  0  0  0
  2  3  1  0  0  0  0
  3 21  1  0  0  0  0
  3  4  2  0  0  0  0
  4  5  1  0  0  0  0
  4 25  1  0  0  0  0
  5  6  2  0  0  0  0
  5 26  1  0  0  0  0
  6  7  1  0  0  0  0
  6 20  1  0  0  0  0
  7  8  1  0  0  0  0
  7 27  1  0  0  0  0
  8  9  2  0  0  0  0
  8 10  1  0  0  0  0
 10 11  1  0  0  0  0
 10 28  1  0  0  0  0
 11 12  1  0  0  0  0
 11 29  1  0  0  0  0
 11 30  1  0  0  0  0
 12 13  1  0  0  0  0
 12 31  1  0  0  0  0
 12 32  1  0  0  0  0
 13 18  1  0  0  0  0
 13 14  1  0  0  0  0
 13 46  1  0  0  0  0
 14 15  1  0  0  0  0
 14 33  1  0  0  0  0
 14 34  1  0  0  0  0
 15 16  1  0  0  0  0
 15 35  1  0  0  0  0
 15 36  1  0  0  0  0
 16 17  1  0  0  0  0
 16 37  1  0  0  0  0
 16 38  1  0  0  0  0
 17 18  1  0  0  0  0
 17 39  1  0  0  0  0
 17 40  1  0  0  0  0
 18 19  1  0  0  0  0
 18 41  1  0  0  0  0
 19 42  1  0  0  0  0
 19 43  1  0  0  0  0
 19 44  1  0  0  0  0
 20 21  2  0  0  0  0
 20 45  1  0  0  0  0
M  CHG  1  13   1
M  END
> <s_m_source_file>
AV-unprocessed.smi

> <i_m_source_file_index>
2008

> <i_lp_mmshare_version>
43012

> <i_f3d_flags>
0

> <s_epik_input>
W0NIM11PYzFbY0hdW2NIXWMoW2NIXW4xKVtOSF1DKD1PKVtOSF1bQ0gyXVtDSDJdTjJbQ0gyXVtDSDJdW0NIMl1bQ0gyXVtDQEhdMltDSDNd

> <s_epik_cmdline>
J2VwaWtfcHl0aG9uJywgJy1waCcsICc3LjAnLCAnLXRuJywgJzgnLCAnLW1hJywgJzIwMCcsICctbWV0YWxfYmluZGluZycsICctaW1hZScsICc8aW5maWxlLm1hZT4nLCAnLW9tYWUnLCAnPG91dGZpbGUubWFlPic=

> <r_lp_tautomer_probability>
1

> <r_epik_Ionization_Penalty>
0.00219526

> <r_epik_Ionization_Penalty_Charging>
0.00211816

> <r_epik_Ionization_Penalty_Neutral>
7.71003e-05

> <r_epik_State_Penalty>
0.00145254

> <r_epik_Charging_Adjusted_Penalty>
0.0035707

> <i_epik_Tot_Q>
1

> <i_epik_Tot_abs_Q>
1

> <r_epik_Metal_State_Penalty>
-0

> <b_epik_Metal_Only>
0

> <s_lp_Force_Field>
OPLS_2005

> <r_lp_Energy>
23.4607

> <b_lp_Chiralities_Consistent>
1

> <s_lp_Variant>
AV-unprocessed.smi:2008-1

> <Gold.Version>
5.8.1

> <Gold.Id.Protein>
6NUR|6NUR_protein|mol2

> <Gold.PLP.Fitness>
47.2596

> <Gold.PLP.PLP>
-34.1657

> <Gold.PLP.part.hbond>
-4.0000

> <Gold.PLP.part.metal>
0.0000

> <Gold.PLP.part.buried>
-5.2648

> <Gold.PLP.part.nonpolar>
-25.0378

> <Gold.PLP.part.repulsive>
0.1593

> <Gold.PLP.ligand.clash>
0.7109

> <Gold.PLP.ligand.torsion>
0.5965

> <Gold.PLP.Chemscore.Hbond>
3.9760

> <Gold.PLP.Chemscore.CHOScore>
1.0000

> <Gold.PLP.Chemscore.Metal>
0.0000

> <Gold.Chemscore.Hbonds>
donor molecule, donor type, donor heavy atom, donor atom, acceptor molecule, acceptor atom, score
      L1  H     7    27       P1  7948  1.00
      L1  H    10    28       P1  7948  0.96
      L1  H    13    46       P1 10747  1.00
      P1  H  7989  7998       L1    21  1.00
      L1  C    20    45       P1  7957  1.00

> <Gold.PLP.Chemscore.Internal.Correction>
0.0698

> <Gold.Rescore>
     Score         DG    S(hbond)    S(metal)    S(lipo)     H(rot)  DE(clash)    DE(int)     intcor
     20.04     -21.76       3.36        0.00      80.80       1.71       0.04       1.69       ----

> <Gold.Chemscore.Fitness>
20.0357

> <Gold.Chemscore.DG>
-21.7646

> <Gold.Chemscore.ZeroCoef>
-5.4800

> <Gold.Chemscore.Hbond>
3.3566

> <Gold.Chemscore.Metal>
0.0000

> <Gold.Chemscore.Lipo>
80.7964

> <Gold.Chemscore.Internal_Hbond>
0.0000

> <Gold.Chemscore.DEClash>
0.0355

> <Gold.Chemscore.DEInternal>
1.6934

> <Gold.Chemscore.Rot>
1.7107

> <Gold.Chemscore.Internal.Correction>
   9.000000E+99

> <Gold.Chemscore.Hbonds>
donor molecule, donor type, donor heavy atom, donor atom, acceptor molecule, acceptor atom, score
      L1  H     7    27       P1  7948  0.99
      L1  H    10    28       P1  7948  0.56
      L1  H    13    46       P1 10747  1.00
      P1  H  7989  7998       L1    21  0.78

> <Gold.Chemscore.Hbond.Weighted>
-11.2109

> <Gold.Chemscore.Metal.Weighted>
-0.0000

> <Gold.Chemscore.Lipo.Weighted>
-9.4532

> <Gold.Chemscore.Internal_Hbond.Weighted>
0.0000

> <Gold.Chemscore.DEClash.Weighted>
0.0355

> <Gold.Chemscore.DEInternal.Weighted>
1.6934

> <Gold.Chemscore.Rot.Weighted>
4.3794

> <Gold.Chemscore.Internal.Correction.Weighted>
   9.000000E+99

> <Gold.Protein.RotatedTorsions>
[ 6907 6896 6895 6894 ] final   42.78 input  -60.11 | X-H torsion
[ 7974 7965 7964 7962 ] final -160.11 input  175.53 | X-H torsion
[ 8008 7997 7996 7995 ] final  -36.52 input   59.86 | X-H torsion
[ 10167 10162 10161 10158 ] final   18.93 input  -65.29 | X-H torsion
[ 10718 10713 10712 10709 ] final -166.04 input   66.30 | X-H torsion
[ 10763 10752 10751 10750 ] final   92.72 input  -60.55 | X-H torsion
[ 11005 11000 10999 10996 ] final -133.65 input  -57.11 | X-H torsion

> <Gold.Protein.ActiveResidues>
 VAL166  LYS551  ARG553  GLY616  TRP617  ASP618  TYR619  PRO620  LYS621  CYS622 
 ASP623  PHE694  ASN695  SER759  ASP760  ASP761  ALA762  ILE779  LEU786  VAL792 
 PHE793  MET794  SER795  GLU796  ALA797  LYS798  CYS799  TRP800  GLU811  SER814 

> <Gold.Protein.RotatedAtoms>
  152.2121  134.8492  160.0495 H   0  0  0  0  0  0  0  0  0  0  0  0  # atno 6907 bound_to 6896
  151.9306  133.3605  159.3938 H   0  0  0  0  0  0  0  0  0  0  0  0  # atno 6908 bound_to 6896
  150.6979  134.4466  159.5361 H   0  0  0  0  0  0  0  0  0  0  0  0  # atno 6909 bound_to 6896
  144.7439  140.3589  143.6100 H   0  0  0  0  0  0  0  0  0  0  0  0  # atno 7974 bound_to 7965
  154.4071  140.1628  156.2387 H   0  0  0  0  0  0  0  0  0  0  0  0  # atno 8008 bound_to 7997
  155.9219  140.3420  155.6157 H   0  0  0  0  0  0  0  0  0  0  0  0  # atno 8009 bound_to 7997
  155.7211  140.0768  157.2321 H   0  0  0  0  0  0  0  0  0  0  0  0  # atno 8010 bound_to 7997
  140.5617  143.9325  150.6647 H   0  0  0  0  0  0  0  0  0  0  0  0  # atno 10167 bound_to 10162
  156.6621  130.9050  151.3031 H   0  0  0  0  0  0  0  0  0  0  0  0  # atno 10718 bound_to 10713
  153.2223  135.4351  155.0503 H   0  0  0  0  0  0  0  0  0  0  0  0  # atno 10763 bound_to 10752
  154.8256  135.3359  154.6909 H   0  0  0  0  0  0  0  0  0  0  0  0  # atno 10764 bound_to 10752
  153.7340  135.7009  153.5038 H   0  0  0  0  0  0  0  0  0  0  0  0  # atno 10765 bound_to 10752
  140.9062  134.1627  157.4424 H   0  0  0  0  0  0  0  0  0  0  0  0  # atno 11005 bound_to 11000
  145.7198  139.1707  143.2491 LP  0  0  0  0  0  0  0  0  0  0  0  0  # atno 17320 bound_to 7965
  146.1285  140.7216  142.9423 LP  0  0  0  0  0  0  0  0  0  0  0  0  # atno 17321 bound_to 7965
  140.2778  143.3411  152.1179 LP  0  0  0  0  0  0  0  0  0  0  0  0  # atno 17342 bound_to 10162
  139.5073  144.6830  151.5961 LP  0  0  0  0  0  0  0  0  0  0  0  0  # atno 17343 bound_to 10162
  157.7106  130.9436  150.1076 LP  0  0  0  0  0  0  0  0  0  0  0  0  # atno 17370 bound_to 10713
  156.2003  130.3660  149.8797 LP  0  0  0  0  0  0  0  0  0  0  0  0  # atno 17371 bound_to 10713
  139.8750  134.9918  156.5564 LP  0  0  0  0  0  0  0  0  0  0  0  0  # atno 17394 bound_to 11000
  140.8168  133.8385  155.8859 LP  0  0  0  0  0  0  0  0  0  0  0  0  # atno 17395 bound_to 11000

$$$$
