AV-unprocessed.smi:1800|AV-procd|sdf|7263|dock3
  -GOLD-   22720 8513D 1   1.00000     0.00000
 Structure written by MMmdl.
 36 37  0  0  0  0  0  0  0  0  1 V2000
  149.6766  142.0037  158.2984 C   0  0  0  0  0  0  0  0  0  0  0  0
  150.8264  142.2962  157.3261 C   0  0  2  0  0  0  0  0  0  0  0  0
  151.6028  143.5720  157.7047 C   0  0  0  0  0  0  0  0  0  0  0  0
  151.9836  143.5928  159.1066 N   0  0  0  0  0  0  0  0  0  0  0  0
  151.6344  144.5110  160.0744 C   0  0  0  0  0  0  0  0  0  0  0  0
  152.2178  144.1123  161.2427 C   0  0  0  0  0  0  0  0  0  0  0  0
  152.9172  142.9267  160.8832 C   0  0  0  0  0  0  0  0  0  0  0  0
  152.7778  142.6197  159.6036 N   0  0  0  0  0  0  0  0  0  0  0  0
  150.2896  142.4165  155.9671 N   0  0  0  0  0  0  0  0  0  0  0  0
  149.6921  141.0046  155.1773 S   0  0  0  0  0  0  0  0  0  0  0  0
  148.7406  140.3571  156.0942 O   0  0  0  0  0  0  0  0  0  0  0  0
  149.2527  141.4148  153.8349 O   0  0  0  0  0  0  0  0  0  0  0  0
  151.2220  139.9618  155.0401 C   0  0  0  0  0  0  0  0  0  0  0  0
  150.9102  138.6065  154.3996 C   0  0  0  0  0  0  0  0  0  0  0  0
  150.3520  137.7585  155.5450 C   0  0  0  0  0  0  0  0  0  0  0  0
  151.0334  138.2814  156.8190 C   0  0  0  0  0  0  0  0  0  0  0  0
  151.7644  139.5728  156.4206 C   0  0  0  0  0  0  0  0  0  0  0  0
  150.0474  141.8772  159.3157 H   0  0  0  0  0  0  0  0  0  0  0  0
  149.1531  141.0874  158.0231 H   0  0  0  0  0  0  0  0  0  0  0  0
  148.9483  142.8153  158.3086 H   0  0  0  0  0  0  0  0  0  0  0  0
  151.5128  141.4491  157.3626 H   0  0  0  0  0  0  0  0  0  0  0  0
  152.4958  143.6774  157.0861 H   0  0  0  0  0  0  0  0  0  0  0  0
  150.9879  144.4526  157.5147 H   0  0  0  0  0  0  0  0  0  0  0  0
  151.0011  145.3577  159.8547 H   0  0  0  0  0  0  0  0  0  0  0  0
  152.1533  144.5934  162.2072 H   0  0  0  0  0  0  0  0  0  0  0  0
  153.5170  142.2833  161.5099 H   0  0  0  0  0  0  0  0  0  0  0  0
  149.6297  143.1904  155.8950 H   0  0  0  0  0  0  0  0  0  0  0  0
  151.9524  140.5154  154.4492 H   0  0  0  0  0  0  0  0  0  0  0  0
  150.2293  138.6701  153.5509 H   0  0  0  0  0  0  0  0  0  0  0  0
  151.8365  138.1584  154.0373 H   0  0  0  0  0  0  0  0  0  0  0  0
  149.2740  137.9075  155.6198 H   0  0  0  0  0  0  0  0  0  0  0  0
  150.5249  136.6934  155.3885 H   0  0  0  0  0  0  0  0  0  0  0  0
  150.2913  138.4749  157.5946 H   0  0  0  0  0  0  0  0  0  0  0  0
  151.7383  137.5518  157.2190 H   0  0  0  0  0  0  0  0  0  0  0  0
  152.8328  139.3691  156.3398 H   0  0  0  0  0  0  0  0  0  0  0  0
  151.6475  140.3656  157.1590 H   0  0  0  0  0  0  0  0  0  0  0  0
  1  2  1  0  0  0  0
  1 18  1  0  0  0  0
  1 19  1  0  0  0  0
  1 20  1  0  0  0  0
  2  3  1  0  0  0  0
  2  9  1  0  0  0  0
  2 21  1  0  0  0  0
  3  4  1  0  0  0  0
  3 22  1  0  0  0  0
  3 23  1  0  0  0  0
  4  8  1  0  0  0  0
  4  5  1  0  0  0  0
  5  6  2  0  0  0  0
  5 24  1  0  0  0  0
  6  7  1  0  0  0  0
  6 25  1  0  0  0  0
  7  8  2  0  0  0  0
  7 26  1  0  0  0  0
  9 10  1  0  0  0  0
  9 27  1  0  0  0  0
 10 11  2  0  0  0  0
 10 12  2  0  0  0  0
 10 13  1  0  0  0  0
 13 17  1  0  0  0  0
 13 14  1  0  0  0  0
 13 28  1  0  0  0  0
 14 15  1  0  0  0  0
 14 29  1  0  0  0  0
 14 30  1  0  0  0  0
 15 16  1  0  0  0  0
 15 31  1  0  0  0  0
 15 32  1  0  0  0  0
 16 17  1  0  0  0  0
 16 33  1  0  0  0  0
 16 34  1  0  0  0  0
 17 35  1  0  0  0  0
 17 36  1  0  0  0  0
M  END
> <s_m_source_file>
AV-unprocessed.smi

> <i_m_source_file_index>
1800

> <i_lp_mmshare_version>
43012

> <i_f3d_flags>
0

> <s_epik_input>
bjFbY0hdW2NIXVtjSF1uMVtDSDJdW0NAQEhdKFtDSDNdKVtOSF1TKD1PKSg9TylbQ0hdMltDSDJdW0NIMl1bQ0gyXVtDSDJdMg==

> <s_epik_cmdline>
J2VwaWtfcHl0aG9uJywgJy1waCcsICc3LjAnLCAnLXRuJywgJzgnLCAnLW1hJywgJzIwMCcsICctbWV0YWxfYmluZGluZycsICctaW1hZScsICc8aW5maWxlLm1hZT4nLCAnLW9tYWUnLCAnPG91dGZpbGUubWFlPic=

> <r_lp_tautomer_probability>
1

> <r_epik_Ionization_Penalty>
1.44925e-05

> <r_epik_Ionization_Penalty_Charging>
0

> <r_epik_Ionization_Penalty_Neutral>
1.44925e-05

> <r_epik_State_Penalty>
-0

> <r_epik_Charging_Adjusted_Penalty>
0

> <i_epik_Tot_Q>
0

> <i_epik_Tot_abs_Q>
0

> <r_epik_Metal_State_Penalty>
0.00862991

> <b_epik_Metal_Only>
0

> <s_lp_Force_Field>
OPLS_2005

> <r_lp_Energy>
14.2601

> <b_lp_Chiralities_Consistent>
1

> <s_lp_Variant>
AV-unprocessed.smi:1800-1

> <Gold.Version>
5.8.1

> <Gold.Id.Protein>
6NUR|6NUR_protein|mol2

> <Gold.PLP.Fitness>
41.8053

> <Gold.PLP.PLP>
-36.6979

> <Gold.PLP.part.hbond>
-3.0000

> <Gold.PLP.part.metal>
0.0000

> <Gold.PLP.part.buried>
-3.3763

> <Gold.PLP.part.nonpolar>
-31.1862

> <Gold.PLP.part.repulsive>
0.9399

> <Gold.PLP.ligand.clash>
0.0000

> <Gold.PLP.ligand.torsion>
0.2717

> <Gold.PLP.Chemscore.Hbond>
1.7840

> <Gold.PLP.Chemscore.CHOScore>
0.0000

> <Gold.PLP.Chemscore.Metal>
0.0000

> <Gold.Chemscore.Hbonds>
donor molecule, donor type, donor heavy atom, donor atom, acceptor molecule, acceptor atom, score
      L1  H     9    27       P1  8028  1.00
      P1  H  8011  8017       L1    12  0.78

> <Gold.PLP.Chemscore.Internal.Correction>
0.2988

> <Gold.Rescore>
     Score         DG    S(hbond)    S(metal)    S(lipo)     H(rot)  DE(clash)    DE(int)     intcor
     14.53     -17.49       1.72        0.00      91.93       1.76       1.36       1.60       ----

> <Gold.Chemscore.Fitness>
14.5316

> <Gold.Chemscore.DG>
-17.4905

> <Gold.Chemscore.ZeroCoef>
-5.4800

> <Gold.Chemscore.Hbond>
1.7234

> <Gold.Chemscore.Metal>
0.0000

> <Gold.Chemscore.Lipo>
91.9348

> <Gold.Chemscore.Internal_Hbond>
0.0000

> <Gold.Chemscore.DEClash>
1.3590

> <Gold.Chemscore.DEInternal>
1.5999

> <Gold.Chemscore.Rot>
1.7585

> <Gold.Chemscore.Internal.Correction>
   9.000000E+99

> <Gold.Chemscore.Hbonds>
donor molecule, donor type, donor heavy atom, donor atom, acceptor molecule, acceptor atom, score
      L1  H     9    27       P1  8028  1.00
      P1  H  8011  8017       L1    12  0.78

> <Gold.Chemscore.Hbond.Weighted>
-5.7560

> <Gold.Chemscore.Metal.Weighted>
-0.0000

> <Gold.Chemscore.Lipo.Weighted>
-10.7564

> <Gold.Chemscore.Internal_Hbond.Weighted>
0.0000

> <Gold.Chemscore.DEClash.Weighted>
1.3590

> <Gold.Chemscore.DEInternal.Weighted>
1.5999

> <Gold.Chemscore.Rot.Weighted>
4.5019

> <Gold.Chemscore.Internal.Correction.Weighted>
   9.000000E+99

> <Gold.Protein.RotatedTorsions>
[ 6907 6896 6895 6894 ] final -175.80 input  -60.11 | X-H torsion
[ 7974 7965 7964 7962 ] final -176.90 input  175.53 | X-H torsion
[ 8008 7997 7996 7995 ] final  -63.78 input   59.86 | X-H torsion
[ 10167 10162 10161 10158 ] final  127.45 input  -65.29 | X-H torsion
[ 10718 10713 10712 10709 ] final  -42.25 input   66.30 | X-H torsion
[ 10763 10752 10751 10750 ] final  111.53 input  -60.55 | X-H torsion
[ 11005 11000 10999 10996 ] final   22.23 input  -57.11 | X-H torsion

> <Gold.Protein.ActiveResidues>
 VAL166  LYS551  ARG553  GLY616  TRP617  ASP618  TYR619  PRO620  LYS621  CYS622 
 ASP623  PHE694  ASN695  SER759  ASP760  ASP761  ALA762  ILE779  LEU786  VAL792 
 PHE793  MET794  SER795  GLU796  ALA797  LYS798  CYS799  TRP800  GLU811  SER814 

> <Gold.Protein.RotatedAtoms>
  151.5944  133.3363  159.3034 H   0  0  0  0  0  0  0  0  0  0  0  0  # atno 6907 bound_to 6896
  150.8242  134.7468  159.6810 H   0  0  0  0  0  0  0  0  0  0  0  0  # atno 6908 bound_to 6896
  152.4333  134.5741  159.9981 H   0  0  0  0  0  0  0  0  0  0  0  0  # atno 6909 bound_to 6896
  144.7127  140.1100  143.6411 H   0  0  0  0  0  0  0  0  0  0  0  0  # atno 7974 bound_to 7965
  154.4574  140.0967  156.6795 H   0  0  0  0  0  0  0  0  0  0  0  0  # atno 8008 bound_to 7997
  155.5098  140.3476  155.4368 H   0  0  0  0  0  0  0  0  0  0  0  0  # atno 8009 bound_to 7997
  156.0803  140.1371  156.9709 H   0  0  0  0  0  0  0  0  0  0  0  0  # atno 8010 bound_to 7997
  139.5577  144.6860  151.4133 H   0  0  0  0  0  0  0  0  0  0  0  0  # atno 10167 bound_to 10162
  156.2616  130.4197  149.8536 H   0  0  0  0  0  0  0  0  0  0  0  0  # atno 10718 bound_to 10713
  153.4647  135.3714  155.2358 H   0  0  0  0  0  0  0  0  0  0  0  0  # atno 10763 bound_to 10752
  154.8757  135.3917  154.3883 H   0  0  0  0  0  0  0  0  0  0  0  0  # atno 10764 bound_to 10752
  153.4462  135.7085  153.6202 H   0  0  0  0  0  0  0  0  0  0  0  0  # atno 10765 bound_to 10752
  140.3828  134.1902  155.7663 H   0  0  0  0  0  0  0  0  0  0  0  0  # atno 11005 bound_to 11000
  145.9463  139.2703  143.1239 LP  0  0  0  0  0  0  0  0  0  0  0  0  # atno 17320 bound_to 7965
  145.9371  140.9007  143.0327 LP  0  0  0  0  0  0  0  0  0  0  0  0  # atno 17321 bound_to 7965
  140.6853  143.7988  150.7177 LP  0  0  0  0  0  0  0  0  0  0  0  0  # atno 17342 bound_to 10162
  140.1454  143.4404  152.2166 LP  0  0  0  0  0  0  0  0  0  0  0  0  # atno 17343 bound_to 10162
  156.6049  130.8562  151.3440 LP  0  0  0  0  0  0  0  0  0  0  0  0  # atno 17370 bound_to 10713
  157.7252  130.9613  150.1607 LP  0  0  0  0  0  0  0  0  0  0  0  0  # atno 17371 bound_to 10713
  141.1917  133.8188  157.0867 LP  0  0  0  0  0  0  0  0  0  0  0  0  # atno 17394 bound_to 11000
  140.0465  134.9827  157.1058 LP  0  0  0  0  0  0  0  0  0  0  0  0  # atno 17395 bound_to 11000

$$$$
