AV-unprocessed.smi:794|AV-procd|sdf|3759|dock6
  -GOLD-   22720 1193D 1   1.00000     0.00000
 Structure written by MMmdl.
 41 43  0  0  0  0  0  0  0  0  1 V2000
  146.4711  130.0999  152.5399 C   0  0  0  0  0  0  0  0  0  0  0  0
  147.5722  130.8713  153.2007 C   0  0  0  0  0  0  0  0  0  0  0  0
  147.5967  132.2654  153.0990 N   0  0  0  0  0  0  0  0  0  0  0  0
  148.6390  132.8017  153.7418 C   0  0  0  0  0  0  0  0  0  0  0  0
  148.9143  134.1927  153.8027 N   0  0  0  0  0  0  0  0  0  0  0  0
  149.4440  134.8917  154.8217 C   0  0  0  0  0  0  0  0  0  0  0  0
  149.8010  134.4184  155.9008 O   0  0  0  0  0  0  0  0  0  0  0  0
  149.5292  136.1955  154.5204 N   0  0  0  0  0  0  0  0  0  0  0  0
  150.0564  137.2372  155.4030 C   0  0  1  0  0  0  0  0  0  0  0  0
  151.5926  137.3208  155.2708 C   0  0  2  0  0  0  0  0  0  0  0  0
  152.1570  138.1206  156.4590 C   0  0  0  0  0  0  0  0  0  0  0  0
  151.7125  139.5596  156.1341 C   0  0  0  0  0  0  0  0  0  0  0  0
  150.9562  139.3928  154.8009 C   0  0  1  0  0  0  0  0  0  0  0  0
  151.7771  138.3042  154.1214 C   0  0  0  0  0  0  0  0  0  0  0  0
  149.6011  138.6894  155.0621 C   0  0  1  0  0  0  0  0  0  0  0  0
  148.6005  138.8345  153.8926 C   0  0  0  0  0  0  0  0  0  0  0  0
  148.5777  140.1662  153.4236 O   0  0  0  0  0  0  0  0  0  0  0  0
  149.6698  131.6162  154.5241 S   0  0  0  0  0  0  0  0  0  0  0  0
  148.6172  130.3550  153.9318 C   0  0  0  0  0  0  0  0  0  0  0  0
  148.8960  128.9203  154.2340 C   0  0  0  0  0  0  0  0  0  0  0  0
  145.9116  129.5129  153.2684 H   0  0  0  0  0  0  0  0  0  0  0  0
  146.8682  129.4106  151.7946 H   0  0  0  0  0  0  0  0  0  0  0  0
  145.7632  130.7578  152.0348 H   0  0  0  0  0  0  0  0  0  0  0  0
  148.6686  134.7190  152.9774 H   0  0  0  0  0  0  0  0  0  0  0  0
  149.2097  136.4943  153.6106 H   0  0  0  0  0  0  0  0  0  0  0  0
  149.7937  136.9904  156.4337 H   0  0  0  0  0  0  0  0  0  0  0  0
  152.0805  136.3547  155.1346 H   0  0  0  0  0  0  0  0  0  0  0  0
  151.7744  137.7709  157.4186 H   0  0  0  0  0  0  0  0  0  0  0  0
  153.2452  138.0544  156.4898 H   0  0  0  0  0  0  0  0  0  0  0  0
  151.0871  139.9906  156.9166 H   0  0  0  0  0  0  0  0  0  0  0  0
  152.5806  140.2077  156.0079 H   0  0  0  0  0  0  0  0  0  0  0  0
  150.8761  140.3235  154.2385 H   0  0  0  0  0  0  0  0  0  0  0  0
  152.8185  138.5864  153.9571 H   0  0  0  0  0  0  0  0  0  0  0  0
  151.3507  137.9581  153.1788 H   0  0  0  0  0  0  0  0  0  0  0  0
  149.1297  139.1251  155.9447 H   0  0  0  0  0  0  0  0  0  0  0  0
  148.8489  138.1689  153.0657 H   0  0  0  0  0  0  0  0  0  0  0  0
  147.5914  138.5847  154.2205 H   0  0  0  0  0  0  0  0  0  0  0  0
  149.1983  140.2461  152.7152 H   0  0  0  0  0  0  0  0  0  0  0  0
  148.8880  128.3237  153.3216 H   0  0  0  0  0  0  0  0  0  0  0  0
  148.1423  128.5151  154.9093 H   0  0  0  0  0  0  0  0  0  0  0  0
  149.8715  128.7974  154.7053 H   0  0  0  0  0  0  0  0  0  0  0  0
  1  2  1  0  0  0  0
  1 21  1  0  0  0  0
  1 22  1  0  0  0  0
  1 23  1  0  0  0  0
  2 19  2  0  0  0  0
  2  3  1  0  0  0  0
  3  4  2  0  0  0  0
  4  5  1  0  0  0  0
  4 18  1  0  0  0  0
  5  6  1  0  0  0  0
  5 24  1  0  0  0  0
  6  7  2  0  0  0  0
  6  8  1  0  0  0  0
  8  9  1  0  0  0  0
  8 25  1  0  0  0  0
  9 15  1  0  0  0  0
  9 10  1  0  0  0  0
  9 26  1  0  0  0  0
 10 14  1  0  0  0  0
 10 11  1  0  0  0  0
 10 27  1  0  0  0  0
 11 12  1  0  0  0  0
 11 28  1  0  0  0  0
 11 29  1  0  0  0  0
 12 13  1  0  0  0  0
 12 30  1  0  0  0  0
 12 31  1  0  0  0  0
 13 14  1  0  0  0  0
 13 15  1  0  0  0  0
 13 32  1  0  0  0  0
 14 33  1  0  0  0  0
 14 34  1  0  0  0  0
 15 16  1  0  0  0  0
 15 35  1  0  0  0  0
 16 17  1  0  0  0  0
 16 36  1  0  0  0  0
 16 37  1  0  0  0  0
 17 38  1  0  0  0  0
 18 19  1  0  0  0  0
 19 20  1  0  0  0  0
 20 39  1  0  0  0  0
 20 40  1  0  0  0  0
 20 41  1  0  0  0  0
M  END
> <s_m_source_file>
AV-unprocessed.smi

> <i_m_source_file_index>
794

> <i_lp_mmshare_version>
43012

> <i_f3d_flags>
0

> <s_epik_input>
W0NIM11jMW5jKHNjMVtDSDNdKVtOSF1DKD1PKVtOSF1bQ0BIXShbQ0BASF0yMylbQ0BIXShbQ0gyXVtPSF0pW0NAQEhdKFtDSDJdMylbQ0gyXVtDSDJdMg==

> <s_epik_cmdline>
J2VwaWtfcHl0aG9uJywgJy1waCcsICc3LjAnLCAnLXRuJywgJzgnLCAnLW1hJywgJzIwMCcsICctbWV0YWxfYmluZGluZycsICctaW1hZScsICc8aW5maWxlLm1hZT4nLCAnLW9tYWUnLCAnPG91dGZpbGUubWFlPic=

> <r_lp_tautomer_probability>
0.999

> <r_epik_Ionization_Penalty>
0.000713029

> <r_epik_Ionization_Penalty_Charging>
0

> <r_epik_Ionization_Penalty_Neutral>
0.000713029

> <r_epik_State_Penalty>
0.000177984

> <r_epik_Charging_Adjusted_Penalty>
0.000177984

> <i_epik_Tot_Q>
0

> <i_epik_Tot_abs_Q>
0

> <r_epik_Metal_State_Penalty>
-0

> <b_epik_Metal_Only>
0

> <s_lp_Force_Field>
OPLS_2005

> <r_lp_Energy>
48.0104

> <b_lp_Chiralities_Consistent>
1

> <s_lp_Variant>
AV-unprocessed.smi:794-4

> <Gold.Version>
5.8.1

> <Gold.Id.Protein>
6NUR|6NUR_protein|mol2

> <Gold.PLP.Fitness>
39.5582

> <Gold.PLP.PLP>
-32.0895

> <Gold.PLP.part.hbond>
-3.0000

> <Gold.PLP.part.metal>
0.0000

> <Gold.PLP.part.buried>
-2.5457

> <Gold.PLP.part.nonpolar>
-26.0007

> <Gold.PLP.part.repulsive>
0.1773

> <Gold.PLP.ligand.clash>
0.0000

> <Gold.PLP.ligand.torsion>
0.7001

> <Gold.PLP.Chemscore.Hbond>
2.9520

> <Gold.PLP.Chemscore.CHOScore>
0.0000

> <Gold.PLP.Chemscore.Metal>
0.0000

> <Gold.Chemscore.Hbonds>
donor molecule, donor type, donor heavy atom, donor atom, acceptor molecule, acceptor atom, score
      L1  H     5    24       P1  7948  0.94
      L1  H     8    25       P1  7948  1.00
      L1  H    17    38       P1  7957  1.00

> <Gold.PLP.Chemscore.Internal.Correction>
0.0131

> <Gold.Rescore>
     Score         DG    S(hbond)    S(metal)    S(lipo)     H(rot)  DE(clash)    DE(int)     intcor
     16.60     -17.59       2.45        0.00      72.59       1.78       0.23       0.76       ----

> <Gold.Chemscore.Fitness>
16.6033

> <Gold.Chemscore.DG>
-17.5936

> <Gold.Chemscore.ZeroCoef>
-5.4800

> <Gold.Chemscore.Hbond>
2.4483

> <Gold.Chemscore.Metal>
0.0000

> <Gold.Chemscore.Lipo>
72.5868

> <Gold.Chemscore.Internal_Hbond>
0.0000

> <Gold.Chemscore.DEClash>
0.2281

> <Gold.Chemscore.DEInternal>
0.7622

> <Gold.Chemscore.Rot>
1.7798

> <Gold.Chemscore.Internal.Correction>
   9.000000E+99

> <Gold.Chemscore.Hbonds>
donor molecule, donor type, donor heavy atom, donor atom, acceptor molecule, acceptor atom, score
      L1  H     5    24       P1  7948  0.20
      L1  H     8    25       P1  7948  0.91
      L1  H    17    38       P1  7957  0.95

> <Gold.Chemscore.Hbond.Weighted>
-8.1772

> <Gold.Chemscore.Metal.Weighted>
-0.0000

> <Gold.Chemscore.Lipo.Weighted>
-8.4927

> <Gold.Chemscore.Internal_Hbond.Weighted>
0.0000

> <Gold.Chemscore.DEClash.Weighted>
0.2281

> <Gold.Chemscore.DEInternal.Weighted>
0.7622

> <Gold.Chemscore.Rot.Weighted>
4.5562

> <Gold.Chemscore.Internal.Correction.Weighted>
   9.000000E+99

> <Gold.Protein.RotatedTorsions>
[ 6907 6896 6895 6894 ] final -133.08 input  -60.11 | X-H torsion
[ 7974 7965 7964 7962 ] final   -2.27 input  175.53 | X-H torsion
[ 8008 7997 7996 7995 ] final   40.49 input   59.86 | X-H torsion
[ 10167 10162 10161 10158 ] final   -0.34 input  -65.29 | X-H torsion
[ 10718 10713 10712 10709 ] final   88.22 input   66.30 | X-H torsion
[ 10763 10752 10751 10750 ] final  -69.92 input  -60.55 | X-H torsion
[ 11005 11000 10999 10996 ] final   78.09 input  -57.11 | X-H torsion

> <Gold.Protein.ActiveResidues>
 VAL166  LYS551  ARG553  GLY616  TRP617  ASP618  TYR619  PRO620  LYS621  CYS622 
 ASP623  PHE694  ASN695  SER759  ASP760  ASP761  ALA762  ILE779  LEU786  VAL792 
 PHE793  MET794  SER795  GLU796  ALA797  LYS798  CYS799  TRP800  GLU811  SER814 

> <Gold.Protein.RotatedAtoms>
  150.9699  133.6355  159.2739 H   0  0  0  0  0  0  0  0  0  0  0  0  # atno 6907 bound_to 6896
  151.3648  135.0910  159.9456 H   0  0  0  0  0  0  0  0  0  0  0  0  # atno 6908 bound_to 6896
  152.5179  133.9265  159.7614 H   0  0  0  0  0  0  0  0  0  0  0  0  # atno 6909 bound_to 6896
  146.2406  140.1546  142.8333 H   0  0  0  0  0  0  0  0  0  0  0  0  # atno 7974 bound_to 7965
  155.2540  140.3354  155.4279 H   0  0  0  0  0  0  0  0  0  0  0  0  # atno 8008 bound_to 7997
  156.2203  140.1806  156.7535 H   0  0  0  0  0  0  0  0  0  0  0  0  # atno 8009 bound_to 7997
  154.5815  140.0653  156.9096 H   0  0  0  0  0  0  0  0  0  0  0  0  # atno 8010 bound_to 7997
  140.6763  143.6906  150.8031 H   0  0  0  0  0  0  0  0  0  0  0  0  # atno 10167 bound_to 10162
  157.6947  131.0286  150.3242 H   0  0  0  0  0  0  0  0  0  0  0  0  # atno 10718 bound_to 10713
  154.4103  135.6010  153.5949 H   0  0  0  0  0  0  0  0  0  0  0  0  # atno 10763 bound_to 10752
  152.9790  135.5928  154.4078 H   0  0  0  0  0  0  0  0  0  0  0  0  # atno 10764 bound_to 10752
  154.3889  135.2842  155.2145 H   0  0  0  0  0  0  0  0  0  0  0  0  # atno 10765 bound_to 10752
  139.9227  134.7735  156.1605 H   0  0  0  0  0  0  0  0  0  0  0  0  # atno 11005 bound_to 11000
  145.0139  140.8737  143.5207 LP  0  0  0  0  0  0  0  0  0  0  0  0  # atno 17320 bound_to 7965
  145.1584  139.2473  143.5404 LP  0  0  0  0  0  0  0  0  0  0  0  0  # atno 17321 bound_to 7965
  140.0600  143.5165  152.2632 LP  0  0  0  0  0  0  0  0  0  0  0  0  # atno 17342 bound_to 10162
  139.6057  144.7595  151.3067 LP  0  0  0  0  0  0  0  0  0  0  0  0  # atno 17343 bound_to 10162
  156.3725  130.3866  149.7164 LP  0  0  0  0  0  0  0  0  0  0  0  0  # atno 17370 bound_to 10713
  156.4574  130.7935  151.2956 LP  0  0  0  0  0  0  0  0  0  0  0  0  # atno 17371 bound_to 10713
  141.0761  133.6775  156.2239 LP  0  0  0  0  0  0  0  0  0  0  0  0  # atno 17394 bound_to 11000
  140.6427  134.5149  157.5571 LP  0  0  0  0  0  0  0  0  0  0  0  0  # atno 17395 bound_to 11000

$$$$
