AV-unprocessed.smi:227|AV-procd|sdf|1741|dock6
  -GOLD-   2262020243D 1   1.00000     0.00000
 Structure written by MMmdl.
 54 58  0  0  0  0  0  0  0  0  1 V2000
  147.8174  139.9890  153.0633 O   0  0  0  0  0  0  0  0  0  0  0  0
  148.5157  140.6353  154.1069 C   0  0  0  0  0  0  0  0  0  0  0  0
  148.5771  139.7444  155.3706 C   0  0  2  0  0  0  0  0  0  0  0  0
  147.1642  139.3596  155.8899 C   0  0  0  0  0  0  0  0  0  0  0  0
  146.5109  138.3063  155.1258 N   0  0  0  0  0  0  0  0  0  0  0  0
  145.3239  138.3983  154.4360 C   0  0  0  0  0  0  0  0  0  0  0  0
  144.9499  137.3084  153.8260 N   0  0  0  0  0  0  0  0  0  0  0  0
  145.9446  136.3834  154.1221 C   0  0  0  0  0  0  0  0  0  0  0  0
  146.1766  135.0156  153.7864 C   0  0  0  0  0  0  0  0  0  0  0  0
  145.3626  134.2573  152.9995 N   0  0  0  0  0  0  0  0  0  0  0  0
  144.1639  134.8121  152.3866 C   0  0  1  0  0  0  0  0  0  0  0  0
  144.7060  135.7120  151.2586 C   0  0  0  0  0  0  0  0  0  0  0  0
  145.9451  134.9189  150.8160 C   0  0  0  0  0  0  0  0  0  0  0  0
  145.8756  133.6935  151.7570 C   0  0  2  0  0  0  0  0  0  0  0  0
  144.7301  132.7335  151.3635 C   0  0  2  0  0  0  0  0  0  0  0  0
  144.7112  132.2032  149.9171 C   0  0  0  0  0  0  0  0  0  0  0  0
  143.4107  131.7826  149.5642 O   0  0  0  0  0  0  0  0  0  0  0  0
  143.5021  133.5727  151.7571 C   0  0  0  0  0  0  0  0  0  0  0  0
  147.2830  134.4281  154.3148 N   0  0  0  0  0  0  0  0  0  0  0  0
  148.1171  135.1210  155.0934 C   0  0  0  0  0  0  0  0  0  0  0  0
  148.0363  136.3967  155.4712 N   0  0  0  0  0  0  0  0  0  0  0  0
  146.9245  136.9954  154.9575 C   0  0  0  0  0  0  0  0  0  0  0  0
  149.4558  140.3961  156.4709 C   0  0  1  0  0  0  0  0  0  0  0  0
  150.7225  141.0620  155.9596 C   0  0  0  0  0  0  0  0  0  0  0  0
  151.1053  141.9654  157.1257 C   0  0  0  0  0  0  0  0  0  0  0  0
  149.8747  142.3705  157.7129 O   0  0  0  0  0  0  0  0  0  0  0  0
  148.8072  141.5791  157.2001 C   0  0  0  0  0  0  0  0  0  0  0  0
  148.3164  140.0831  152.2656 H   0  0  0  0  0  0  0  0  0  0  0  0
  149.5161  140.8482  153.7317 H   0  0  0  0  0  0  0  0  0  0  0  0
  148.0491  141.5978  154.3181 H   0  0  0  0  0  0  0  0  0  0  0  0
  149.0688  138.8142  155.0814 H   0  0  0  0  0  0  0  0  0  0  0  0
  147.2254  139.0363  156.9294 H   0  0  0  0  0  0  0  0  0  0  0  0
  146.5083  140.2300  155.9005 H   0  0  0  0  0  0  0  0  0  0  0  0
  144.7394  139.3050  154.3923 H   0  0  0  0  0  0  0  0  0  0  0  0
  143.4800  135.3251  153.0598 H   0  0  0  0  0  0  0  0  0  0  0  0
  143.9853  135.8591  150.4535 H   0  0  0  0  0  0  0  0  0  0  0  0
  144.9924  136.6929  151.6404 H   0  0  0  0  0  0  0  0  0  0  0  0
  145.9411  134.6660  149.7571 H   0  0  0  0  0  0  0  0  0  0  0  0
  146.8498  135.4979  151.0052 H   0  0  0  0  0  0  0  0  0  0  0  0
  146.8292  133.1731  151.8528 H   0  0  0  0  0  0  0  0  0  0  0  0
  144.7763  131.8721  152.0327 H   0  0  0  0  0  0  0  0  0  0  0  0
  145.0135  132.9945  149.2306 H   0  0  0  0  0  0  0  0  0  0  0  0
  145.4141  131.3840  149.7711 H   0  0  0  0  0  0  0  0  0  0  0  0
  142.8189  132.0165  150.2630 H   0  0  0  0  0  0  0  0  0  0  0  0
  142.8930  133.0388  152.4875 H   0  0  0  0  0  0  0  0  0  0  0  0
  142.8629  133.8294  150.9114 H   0  0  0  0  0  0  0  0  0  0  0  0
  148.9712  134.5749  155.4658 H   0  0  0  0  0  0  0  0  0  0  0  0
  149.7278  139.6497  157.2184 H   0  0  0  0  0  0  0  0  0  0  0  0
  151.5152  140.3600  155.7031 H   0  0  0  0  0  0  0  0  0  0  0  0
  150.5056  141.6653  155.0768 H   0  0  0  0  0  0  0  0  0  0  0  0
  151.6774  141.4067  157.8676 H   0  0  0  0  0  0  0  0  0  0  0  0
  151.7013  142.8228  156.8124 H   0  0  0  0  0  0  0  0  0  0  0  0
  148.2301  142.1929  156.5070 H   0  0  0  0  0  0  0  0  0  0  0  0
  148.1421  141.2612  158.0033 H   0  0  0  0  0  0  0  0  0  0  0  0
  1  2  1  0  0  0  0
  1 28  1  0  0  0  0
  2  3  1  0  0  0  0
  2 29  1  0  0  0  0
  2 30  1  0  0  0  0
  3  4  1  0  0  0  0
  3 23  1  0  0  0  0
  3 31  1  0  0  0  0
  4  5  1  0  0  0  0
  4 32  1  0  0  0  0
  4 33  1  0  0  0  0
  5 22  1  0  0  0  0
  5  6  1  0  0  0  0
  6  7  2  0  0  0  0
  6 34  1  0  0  0  0
  7  8  1  0  0  0  0
  8 22  2  0  0  0  0
  8  9  1  0  0  0  0
  9 10  1  0  0  0  0
  9 19  2  0  0  0  0
 10 14  1  0  0  0  0
 10 11  1  0  0  0  0
 11 18  1  0  0  0  0
 11 12  1  0  0  0  0
 11 35  1  0  0  0  0
 12 13  1  0  0  0  0
 12 36  1  0  0  0  0
 12 37  1  0  0  0  0
 13 14  1  0  0  0  0
 13 38  1  0  0  0  0
 13 39  1  0  0  0  0
 14 15  1  0  0  0  0
 14 40  1  0  0  0  0
 15 16  1  0  0  0  0
 15 18  1  0  0  0  0
 15 41  1  0  0  0  0
 16 17  1  0  0  0  0
 16 42  1  0  0  0  0
 16 43  1  0  0  0  0
 17 44  1  0  0  0  0
 18 45  1  0  0  0  0
 18 46  1  0  0  0  0
 19 20  1  0  0  0  0
 20 21  2  0  0  0  0
 20 47  1  0  0  0  0
 21 22  1  0  0  0  0
 23 27  1  0  0  0  0
 23 24  1  0  0  0  0
 23 48  1  0  0  0  0
 24 25  1  0  0  0  0
 24 49  1  0  0  0  0
 24 50  1  0  0  0  0
 25 26  1  0  0  0  0
 25 51  1  0  0  0  0
 25 52  1  0  0  0  0
 26 27  1  0  0  0  0
 27 53  1  0  0  0  0
 27 54  1  0  0  0  0
M  END
> <s_m_source_file>
AV-unprocessed.smi

> <i_m_source_file_index>
227

> <i_lp_mmshare_version>
43012

> <i_f3d_flags>
0

> <s_epik_input>
W0NIMl0xT1tDSDJdW0NIMl1bQ0BIXTFbQ0BIXShbQ0gyXVtPSF0pW0NIMl1uKFtjSF1uMiljKGMyMyluW2NIXW5jM04oW0NASF00NSlbQ0BASF0oW0NIMl1bQ0gyXTQpW0NASF0oW0NIMl01KVtDSDJdW09IXQ==

> <s_epik_cmdline>
J2VwaWtfcHl0aG9uJywgJy1waCcsICc3LjAnLCAnLXRuJywgJzgnLCAnLW1hJywgJzIwMCcsICctbWV0YWxfYmluZGluZycsICctaW1hZScsICc8aW5maWxlLm1hZT4nLCAnLW9tYWUnLCAnPG91dGZpbGUubWFlPic=

> <r_lp_tautomer_probability>
1

> <r_epik_Ionization_Penalty>
0.0055791

> <r_epik_Ionization_Penalty_Charging>
0

> <r_epik_Ionization_Penalty_Neutral>
0.0055791

> <r_epik_State_Penalty>
0.00401299

> <r_epik_Charging_Adjusted_Penalty>
0.00401299

> <i_epik_Tot_Q>
0

> <i_epik_Tot_abs_Q>
0

> <r_epik_Metal_State_Penalty>
-0

> <b_epik_Metal_Only>
0

> <s_lp_Force_Field>
OPLS_2005

> <r_lp_Energy>
87.7083

> <b_lp_Chiralities_Consistent>
1

> <s_lp_Variant>
AV-unprocessed.smi:227-15

> <Gold.Version>
5.8.1

> <Gold.Id.Protein>
6NUR|6NUR_protein|mol2

> <Gold.PLP.Fitness>
41.9032

> <Gold.PLP.PLP>
-34.0352

> <Gold.PLP.part.hbond>
-3.0000

> <Gold.PLP.part.metal>
0.0000

> <Gold.PLP.part.buried>
-7.0847

> <Gold.PLP.part.nonpolar>
-24.0126

> <Gold.PLP.part.repulsive>
0.5054

> <Gold.PLP.ligand.clash>
0.0000

> <Gold.PLP.ligand.torsion>
0.6141

> <Gold.PLP.Chemscore.Hbond>
2.0000

> <Gold.PLP.Chemscore.CHOScore>
0.9933

> <Gold.PLP.Chemscore.Metal>
0.0000

> <Gold.Chemscore.Hbonds>
donor molecule, donor type, donor heavy atom, donor atom, acceptor molecule, acceptor atom, score
      L1  H     1    28       P1  7957  1.00
      P1  H 10785 10796       L1    17  1.00
      L1  C     6    34       P1 10175  1.00

> <Gold.PLP.Chemscore.Internal.Correction>
0.1163

> <Gold.Rescore>
     Score         DG    S(hbond)    S(metal)    S(lipo)     H(rot)  DE(clash)    DE(int)     intcor
      9.40     -12.10       1.95        0.00      79.98       3.61       0.07       2.64       ----

> <Gold.Chemscore.Fitness>
9.3978

> <Gold.Chemscore.DG>
-12.1030

> <Gold.Chemscore.ZeroCoef>
-5.4800

> <Gold.Chemscore.Hbond>
1.9459

> <Gold.Chemscore.Metal>
0.0000

> <Gold.Chemscore.Lipo>
79.9809

> <Gold.Chemscore.Internal_Hbond>
0.0000

> <Gold.Chemscore.DEClash>
0.0687

> <Gold.Chemscore.DEInternal>
2.6365

> <Gold.Chemscore.Rot>
3.6071

> <Gold.Chemscore.Internal.Correction>
   9.000000E+99

> <Gold.Chemscore.Hbonds>
donor molecule, donor type, donor heavy atom, donor atom, acceptor molecule, acceptor atom, score
      L1  H     1    28       P1  7957  1.00
      P1  H 10785 10796       L1    17  0.91

> <Gold.Chemscore.Hbond.Weighted>
-6.4994

> <Gold.Chemscore.Metal.Weighted>
-0.0000

> <Gold.Chemscore.Lipo.Weighted>
-9.3578

> <Gold.Chemscore.Internal_Hbond.Weighted>
0.0000

> <Gold.Chemscore.DEClash.Weighted>
0.0687

> <Gold.Chemscore.DEInternal.Weighted>
2.6365

> <Gold.Chemscore.Rot.Weighted>
9.2342

> <Gold.Chemscore.Internal.Correction.Weighted>
   9.000000E+99

> <Gold.Protein.RotatedTorsions>
[ 6907 6896 6895 6894 ] final  105.41 input  -60.11 | X-H torsion
[ 7974 7965 7964 7962 ] final   66.03 input  175.53 | X-H torsion
[ 8008 7997 7996 7995 ] final   49.60 input   59.86 | X-H torsion
[ 10167 10162 10161 10158 ] final -141.98 input  -65.29 | X-H torsion
[ 10718 10713 10712 10709 ] final  -18.65 input   66.30 | X-H torsion
[ 10763 10752 10751 10750 ] final  -51.86 input  -60.55 | X-H torsion
[ 11005 11000 10999 10996 ] final   58.39 input  -57.11 | X-H torsion

> <Gold.Protein.ActiveResidues>
 VAL166  LYS551  ARG553  GLY616  TRP617  ASP618  TYR619  PRO620  LYS621  CYS622 
 ASP623  PHE694  ASN695  SER759  ASP760  ASP761  ALA762  ILE779  LEU786  VAL792 
 PHE793  MET794  SER795  GLU796  ALA797  LYS798  CYS799  TRP800  GLU811  SER814 

> <Gold.Protein.RotatedAtoms>
  152.5231  133.9533  159.7681 H   0  0  0  0  0  0  0  0  0  0  0  0  # atno 6907 bound_to 6896
  150.9838  133.6210  159.2725 H   0  0  0  0  0  0  0  0  0  0  0  0  # atno 6908 bound_to 6896
  151.3378  135.0862  159.9413 H   0  0  0  0  0  0  0  0  0  0  0  0  # atno 6909 bound_to 6896
  145.8315  139.3141  143.0985 H   0  0  0  0  0  0  0  0  0  0  0  0  # atno 7974 bound_to 7965
  155.4049  140.3439  155.4259 H   0  0  0  0  0  0  0  0  0  0  0  0  # atno 8008 bound_to 7997
  156.1482  140.1563  156.8844 H   0  0  0  0  0  0  0  0  0  0  0  0  # atno 8009 bound_to 7997
  154.5029  140.0810  156.7817 H   0  0  0  0  0  0  0  0  0  0  0  0  # atno 8010 bound_to 7997
  139.8133  143.7673  152.2664 H   0  0  0  0  0  0  0  0  0  0  0  0  # atno 10167 bound_to 10162
  156.5565  130.4715  149.6427 H   0  0  0  0  0  0  0  0  0  0  0  0  # atno 10718 bound_to 10713
  154.1334  135.6516  153.4927 H   0  0  0  0  0  0  0  0  0  0  0  0  # atno 10763 bound_to 10752
  153.0188  135.5298  154.6978 H   0  0  0  0  0  0  0  0  0  0  0  0  # atno 10764 bound_to 10752
  154.6219  135.2965  155.0287 H   0  0  0  0  0  0  0  0  0  0  0  0  # atno 10765 bound_to 10752
  140.0381  134.5914  155.9418 H   0  0  0  0  0  0  0  0  0  0  0  0  # atno 11005 bound_to 11000
  145.9566  140.8868  143.0232 LP  0  0  0  0  0  0  0  0  0  0  0  0  # atno 17320 bound_to 7965
  144.6739  140.1754  143.7410 LP  0  0  0  0  0  0  0  0  0  0  0  0  # atno 17321 bound_to 7965
  139.7829  144.7438  151.0063 LP  0  0  0  0  0  0  0  0  0  0  0  0  # atno 17342 bound_to 10162
  140.7817  143.4523  151.0395 LP  0  0  0  0  0  0  0  0  0  0  0  0  # atno 17343 bound_to 10162
  156.2837  130.7085  151.1916 LP  0  0  0  0  0  0  0  0  0  0  0  0  # atno 17370 bound_to 10713
  157.7377  131.0549  150.5339 LP  0  0  0  0  0  0  0  0  0  0  0  0  # atno 17371 bound_to 10713
  141.1868  133.6558  156.5255 LP  0  0  0  0  0  0  0  0  0  0  0  0  # atno 17394 bound_to 11000
  140.4115  134.7268  157.4838 LP  0  0  0  0  0  0  0  0  0  0  0  0  # atno 17395 bound_to 11000

$$$$
