AV-unprocessed.smi:1971|AV-procd|sdf|7963|dock4
  -GOLD-   2272010133D 1   1.00000     0.00000
 Structure written by MMmdl.
 44 45  0  0  0  0  0  0  0  0  2 V2000
  151.1043  142.1604  156.2963 C   0  0  0  0  0  0  0  0  0  0  0  0
  149.7591  141.7314  156.8993 C   0  0  0  0  0  0  0  0  0  0  0  0
  148.6278  141.8950  155.9527 N   0  3  0  0  0  0  0  0  0  0  0  0
  147.4110  141.1739  156.4003 C   0  0  0  0  0  0  0  0  0  0  0  0
  146.2480  141.4030  155.4117 C   0  0  0  0  0  0  0  0  0  0  0  0
  146.5843  140.9449  154.0557 N   0  0  0  0  0  0  0  0  0  0  0  0
  146.7251  139.4797  153.8905 C   0  0  1  0  0  0  0  0  0  0  0  0
  145.6821  138.7326  154.7565 C   0  0  0  0  0  0  0  0  0  0  0  0
  146.5922  139.0801  152.3955 C   0  0  0  0  0  0  0  0  0  0  0  0
  146.8249  137.6567  152.1625 N   0  0  0  0  0  0  0  0  0  0  0  0
  145.8735  136.7133  152.0946 C   0  0  0  0  0  0  0  0  0  0  0  0
  144.6751  136.9429  152.2549 O   0  0  0  0  0  0  0  0  0  0  0  0
  146.4035  135.5073  151.8337 N   0  0  0  0  0  0  0  0  0  0  0  0
  145.7202  134.2768  151.6691 C   0  0  0  0  0  0  0  0  0  0  0  0
  144.4035  134.2942  151.4533 N   0  0  0  0  0  0  0  0  0  0  0  0
  143.8770  133.0067  151.3144 C   0  0  0  0  0  0  0  0  0  0  0  0
  144.8161  132.0115  151.4269 C   0  0  0  0  0  0  0  0  0  0  0  0
  146.4114  132.6527  151.7136 S   0  0  0  0  0  0  0  0  0  0  0  0
  147.7413  141.7478  153.6330 C   0  0  0  0  0  0  0  0  0  0  0  0
  148.9611  141.5284  154.5528 C   0  0  0  0  0  0  0  0  0  0  0  0
  151.8897  142.1250  157.0516 H   0  0  0  0  0  0  0  0  0  0  0  0
  151.0594  143.1812  155.9156 H   0  0  0  0  0  0  0  0  0  0  0  0
  151.4141  141.5080  155.4802 H   0  0  0  0  0  0  0  0  0  0  0  0
  149.8070  140.6996  157.2507 H   0  0  0  0  0  0  0  0  0  0  0  0
  149.5749  142.3497  157.7791 H   0  0  0  0  0  0  0  0  0  0  0  0
  147.6235  140.1110  156.5199 H   0  0  0  0  0  0  0  0  0  0  0  0
  147.1177  141.5436  157.3835 H   0  0  0  0  0  0  0  0  0  0  0  0
  145.3344  140.9375  155.7765 H   0  0  0  0  0  0  0  0  0  0  0  0
  146.0179  142.4688  155.3706 H   0  0  0  0  0  0  0  0  0  0  0  0
  147.7129  139.1689  154.2282 H   0  0  0  0  0  0  0  0  0  0  0  0
  145.7241  137.6549  154.6045 H   0  0  0  0  0  0  0  0  0  0  0  0
  144.6669  139.0563  154.5241 H   0  0  0  0  0  0  0  0  0  0  0  0
  145.8498  138.8732  155.8232 H   0  0  0  0  0  0  0  0  0  0  0  0
  145.6218  139.3933  152.0059 H   0  0  0  0  0  0  0  0  0  0  0  0
  147.3439  139.5833  151.7901 H   0  0  0  0  0  0  0  0  0  0  0  0
  147.7833  137.3710  152.0248 H   0  0  0  0  0  0  0  0  0  0  0  0
  147.4060  135.4651  151.7265 H   0  0  0  0  0  0  0  0  0  0  0  0
  142.8180  132.8896  151.1367 H   0  0  0  0  0  0  0  0  0  0  0  0
  144.6665  130.9443  151.3585 H   0  0  0  0  0  0  0  0  0  0  0  0
  148.0019  141.5601  152.5935 H   0  0  0  0  0  0  0  0  0  0  0  0
  147.4596  142.8015  153.6595 H   0  0  0  0  0  0  0  0  0  0  0  0
  149.7790  142.1517  154.1934 H   0  0  0  0  0  0  0  0  0  0  0  0
  149.3127  140.4971  154.5035 H   0  0  0  0  0  0  0  0  0  0  0  0
  148.3883  142.8762  155.9487 H   0  0  0  0  0  0  0  0  0  0  0  0
  1  2  1  0  0  0  0
  1 21  1  0  0  0  0
  1 22  1  0  0  0  0
  1 23  1  0  0  0  0
  2  3  1  0  0  0  0
  2 24  1  0  0  0  0
  2 25  1  0  0  0  0
  3 20  1  0  0  0  0
  3  4  1  0  0  0  0
  3 44  1  0  0  0  0
  4  5  1  0  0  0  0
  4 26  1  0  0  0  0
  4 27  1  0  0  0  0
  5  6  1  0  0  0  0
  5 28  1  0  0  0  0
  5 29  1  0  0  0  0
  6  7  1  0  0  0  0
  6 19  1  0  0  0  0
  7  8  1  0  0  0  0
  7  9  1  0  0  0  0
  7 30  1  0  0  0  0
  8 31  1  0  0  0  0
  8 32  1  0  0  0  0
  8 33  1  0  0  0  0
  9 10  1  0  0  0  0
  9 34  1  0  0  0  0
  9 35  1  0  0  0  0
 10 11  1  0  0  0  0
 10 36  1  0  0  0  0
 11 12  2  0  0  0  0
 11 13  1  0  0  0  0
 13 14  1  0  0  0  0
 13 37  1  0  0  0  0
 14 18  1  0  0  0  0
 14 15  2  0  0  0  0
 15 16  1  0  0  0  0
 16 17  2  0  0  0  0
 16 38  1  0  0  0  0
 17 18  1  0  0  0  0
 17 39  1  0  0  0  0
 19 20  1  0  0  0  0
 19 40  1  0  0  0  0
 19 41  1  0  0  0  0
 20 42  1  0  0  0  0
 20 43  1  0  0  0  0
M  CHG  1   3   1
M  END
> <s_m_source_file>
AV-unprocessed.smi

> <i_m_source_file_index>
1971

> <i_lp_mmshare_version>
43012

> <i_f3d_flags>
0

> <s_epik_input>
W0NIM11bQ0gyXU4xW0NIMl1bQ0gyXU4oW0NIMl1bQ0gyXTEpW0NASF0oW0NIM10pW0NIMl1bTkhdQyg9TylbTkhdYzJuW2NIXVtjSF1zMg==

> <s_epik_cmdline>
J2VwaWtfcHl0aG9uJywgJy1waCcsICc3LjAnLCAnLXRuJywgJzgnLCAnLW1hJywgJzIwMCcsICctbWV0YWxfYmluZGluZycsICctaW1hZScsICc8aW5maWxlLm1hZT4nLCAnLW9tYWUnLCAnPG91dGZpbGUubWFlPic=

> <r_lp_tautomer_probability>
0.999

> <r_epik_Ionization_Penalty>
0.0459519

> <r_epik_Ionization_Penalty_Charging>
0.0451959

> <r_epik_Ionization_Penalty_Neutral>
0.000756076

> <r_epik_State_Penalty>
0.165541

> <r_epik_Charging_Adjusted_Penalty>
0.210737

> <i_epik_Tot_Q>
1

> <i_epik_Tot_abs_Q>
1

> <r_epik_Metal_State_Penalty>
0.198809

> <b_epik_Metal_Only>
0

> <s_lp_Force_Field>
OPLS_2005

> <r_lp_Energy>
20.1316

> <b_lp_Chiralities_Consistent>
1

> <s_lp_Variant>
AV-unprocessed.smi:1971-2

> <Gold.Version>
5.8.1

> <Gold.Id.Protein>
6NUR|6NUR_protein|mol2

> <Gold.PLP.Fitness>
44.1761

> <Gold.PLP.PLP>
-30.5628

> <Gold.PLP.part.hbond>
-3.0000

> <Gold.PLP.part.metal>
0.0000

> <Gold.PLP.part.buried>
-5.9312

> <Gold.PLP.part.nonpolar>
-24.1926

> <Gold.PLP.part.repulsive>
2.1924

> <Gold.PLP.ligand.clash>
0.0000

> <Gold.PLP.ligand.torsion>
0.7233

> <Gold.PLP.Chemscore.Hbond>
4.0000

> <Gold.PLP.Chemscore.CHOScore>
0.9940

> <Gold.PLP.Chemscore.Metal>
0.0000

> <Gold.Chemscore.Hbonds>
donor molecule, donor type, donor heavy atom, donor atom, acceptor molecule, acceptor atom, score
      L1  H     3    44       P1  8028  2.00
      L1  H    10    36       P1  7948  1.00
      L1  H    13    37       P1  7948  1.00
      L1  C    16    38       P1 10186  0.21

> <Gold.PLP.Chemscore.Internal.Correction>
0.0778

> <Gold.Rescore>
     Score         DG    S(hbond)    S(metal)    S(lipo)     H(rot)  DE(clash)    DE(int)     intcor
     15.88     -18.73       2.95        0.00      68.28       1.79       0.54       2.31       ----

> <Gold.Chemscore.Fitness>
15.8809

> <Gold.Chemscore.DG>
-18.7329

> <Gold.Chemscore.ZeroCoef>
-5.4800

> <Gold.Chemscore.Hbond>
2.9509

> <Gold.Chemscore.Metal>
0.0000

> <Gold.Chemscore.Lipo>
68.2797

> <Gold.Chemscore.Internal_Hbond>
0.0000

> <Gold.Chemscore.DEClash>
0.5403

> <Gold.Chemscore.DEInternal>
2.3117

> <Gold.Chemscore.Rot>
1.7937

> <Gold.Chemscore.Internal.Correction>
   9.000000E+99

> <Gold.Chemscore.Hbonds>
donor molecule, donor type, donor heavy atom, donor atom, acceptor molecule, acceptor atom, score
      L1  H     3    44       P1  8028  0.91
      L1  H    10    36       P1  7948  0.96
      L1  H    13    37       P1  7948  0.94

> <Gold.Chemscore.Hbond.Weighted>
-9.8561

> <Gold.Chemscore.Metal.Weighted>
-0.0000

> <Gold.Chemscore.Lipo.Weighted>
-7.9887

> <Gold.Chemscore.Internal_Hbond.Weighted>
0.0000

> <Gold.Chemscore.DEClash.Weighted>
0.5403

> <Gold.Chemscore.DEInternal.Weighted>
2.3117

> <Gold.Chemscore.Rot.Weighted>
4.5919

> <Gold.Chemscore.Internal.Correction.Weighted>
   9.000000E+99

> <Gold.Protein.RotatedTorsions>
[ 6907 6896 6895 6894 ] final  -35.03 input  -60.11 | X-H torsion
[ 7974 7965 7964 7962 ] final -150.41 input  175.53 | X-H torsion
[ 8008 7997 7996 7995 ] final -121.44 input   59.86 | X-H torsion
[ 10167 10162 10161 10158 ] final  -81.73 input  -65.29 | X-H torsion
[ 10718 10713 10712 10709 ] final  152.17 input   66.30 | X-H torsion
[ 10763 10752 10751 10750 ] final  -70.37 input  -60.55 | X-H torsion
[ 11005 11000 10999 10996 ] final  179.33 input  -57.11 | X-H torsion

> <Gold.Protein.ActiveResidues>
 VAL166  LYS551  ARG553  GLY616  TRP617  ASP618  TYR619  PRO620  LYS621  CYS622 
 ASP623  PHE694  ASN695  SER759  ASP760  ASP761  ALA762  ILE779  LEU786  VAL792 
 PHE793  MET794  SER795  GLU796  ALA797  LYS798  CYS799  TRP800  GLU811  SER814 

> <Gold.Protein.RotatedAtoms>
  151.0450  134.9634  159.8181 H   0  0  0  0  0  0  0  0  0  0  0  0  # atno 6907 bound_to 6896
  152.5371  134.2609  159.8945 H   0  0  0  0  0  0  0  0  0  0  0  0  # atno 6908 bound_to 6896
  151.2623  133.4253  159.2650 H   0  0  0  0  0  0  0  0  0  0  0  0  # atno 6909 bound_to 6896
  144.7909  140.4935  143.5773 H   0  0  0  0  0  0  0  0  0  0  0  0  # atno 7974 bound_to 7965
  155.1481  140.0403  157.2814 H   0  0  0  0  0  0  0  0  0  0  0  0  # atno 8008 bound_to 7997
  154.6424  140.2550  155.7280 H   0  0  0  0  0  0  0  0  0  0  0  0  # atno 8009 bound_to 7997
  156.2539  140.2853  156.0823 H   0  0  0  0  0  0  0  0  0  0  0  0  # atno 8010 bound_to 7997
  140.4385  143.2523  151.8659 H   0  0  0  0  0  0  0  0  0  0  0  0  # atno 10167 bound_to 10162
  157.2612  131.0798  151.1664 H   0  0  0  0  0  0  0  0  0  0  0  0  # atno 10718 bound_to 10713
  154.4167  135.5996  153.5985 H   0  0  0  0  0  0  0  0  0  0  0  0  # atno 10763 bound_to 10752
  152.9792  135.5942  154.4004 H   0  0  0  0  0  0  0  0  0  0  0  0  # atno 10764 bound_to 10752
  154.3824  135.2841  155.2182 H   0  0  0  0  0  0  0  0  0  0  0  0  # atno 10765 bound_to 10752
  140.4049  134.6744  157.4582 H   0  0  0  0  0  0  0  0  0  0  0  0  # atno 11005 bound_to 11000
  145.5797  139.1488  143.3242 LP  0  0  0  0  0  0  0  0  0  0  0  0  # atno 17320 bound_to 7965
  146.2160  140.5928  142.9038 LP  0  0  0  0  0  0  0  0  0  0  0  0  # atno 17321 bound_to 7965
  139.4788  144.5255  151.8741 LP  0  0  0  0  0  0  0  0  0  0  0  0  # atno 17342 bound_to 10162
  140.4345  144.2070  150.5889 LP  0  0  0  0  0  0  0  0  0  0  0  0  # atno 17343 bound_to 10162
  157.3173  130.6919  149.6249 LP  0  0  0  0  0  0  0  0  0  0  0  0  # atno 17370 bound_to 10713
  155.9664  130.4346  150.5055 LP  0  0  0  0  0  0  0  0  0  0  0  0  # atno 17371 bound_to 10713
  140.0309  134.6408  155.9108 LP  0  0  0  0  0  0  0  0  0  0  0  0  # atno 17394 bound_to 11000
  141.1843  133.6552  156.5150 LP  0  0  0  0  0  0  0  0  0  0  0  0  # atno 17395 bound_to 11000

$$$$
