AV-unprocessed.smi:3136|AV-procd|sdf|11950|dock3
  -GOLD-   2272017343D 1   1.00000     0.00000
 Structure written by MMmdl.
 40 40  0  0  0  0  0  0  0  0  2 V2000
  151.8183  140.8512  158.0259 C   0  0  0  0  0  0  0  0  0  0  0  0
  151.4402  141.4778  156.6772 C   0  0  0  0  0  0  0  0  0  0  0  0
  150.8882  140.4861  155.7614 N   0  0  0  0  0  0  0  0  0  0  0  0
  151.5858  139.8345  154.8183 C   0  0  0  0  0  0  0  0  0  0  0  0
  152.7872  140.0167  154.6202 O   0  0  0  0  0  0  0  0  0  0  0  0
  150.8038  138.8245  153.9731 C   0  0  0  0  0  0  0  0  0  0  0  0
  149.2809  138.9842  154.1140 C   0  0  0  0  0  0  0  0  0  0  0  0
  148.5895  138.5951  152.8673 N   0  3  0  0  0  0  0  0  0  0  0  0
  147.1131  138.5102  152.9664 C   0  0  2  0  0  0  0  0  0  0  0  0
  146.5577  139.9342  153.1346 C   0  0  0  0  0  0  0  0  0  0  0  0
  146.6925  137.5637  154.1248 C   0  0  1  0  0  0  0  0  0  0  0  0
  146.5089  138.2885  155.4722 C   0  0  0  0  0  0  0  0  0  0  0  0
  145.4802  136.8234  153.7912 N   0  0  0  0  0  0  0  0  0  0  0  0
  144.5416  137.0886  152.8125 C   0  0  0  0  0  0  0  0  0  0  0  0
  143.6148  136.0868  152.8520 C   0  0  0  0  0  0  0  0  0  0  0  0
  144.0794  135.2375  153.8938 C   0  0  0  0  0  0  0  0  0  0  0  0
  145.1986  135.6755  154.4470 N   0  0  0  0  0  0  0  0  0  0  0  0
  152.1995  141.6090  158.7106 H   0  0  0  0  0  0  0  0  0  0  0  0
  152.5926  140.0924  157.9096 H   0  0  0  0  0  0  0  0  0  0  0  0
  150.9552  140.3812  158.4985 H   0  0  0  0  0  0  0  0  0  0  0  0
  150.6902  142.2540  156.8304 H   0  0  0  0  0  0  0  0  0  0  0  0
  152.3064  141.9676  156.2295 H   0  0  0  0  0  0  0  0  0  0  0  0
  149.9043  140.2790  155.8552 H   0  0  0  0  0  0  0  0  0  0  0  0
  151.0864  138.9515  152.9265 H   0  0  0  0  0  0  0  0  0  0  0  0
  151.1055  137.8169  154.2613 H   0  0  0  0  0  0  0  0  0  0  0  0
  148.9070  138.3677  154.9328 H   0  0  0  0  0  0  0  0  0  0  0  0
  149.0392  140.0193  154.3558 H   0  0  0  0  0  0  0  0  0  0  0  0
  148.8188  139.2622  152.1439 H   0  0  0  0  0  0  0  0  0  0  0  0
  146.7167  138.1182  152.0277 H   0  0  0  0  0  0  0  0  0  0  0  0
  145.4694  139.9527  153.0802 H   0  0  0  0  0  0  0  0  0  0  0  0
  146.9237  140.5918  152.3452 H   0  0  0  0  0  0  0  0  0  0  0  0
  146.8540  140.3673  154.0908 H   0  0  0  0  0  0  0  0  0  0  0  0
  147.4896  136.8314  154.2682 H   0  0  0  0  0  0  0  0  0  0  0  0
  147.4517  138.6871  155.8456 H   0  0  0  0  0  0  0  0  0  0  0  0
  146.1318  137.6061  156.2348 H   0  0  0  0  0  0  0  0  0  0  0  0
  145.8060  139.1177  155.3906 H   0  0  0  0  0  0  0  0  0  0  0  0
  144.6104  137.9558  152.1724 H   0  0  0  0  0  0  0  0  0  0  0  0
  142.7399  135.9753  152.2286 H   0  0  0  0  0  0  0  0  0  0  0  0
  143.6427  134.3192  154.2581 H   0  0  0  0  0  0  0  0  0  0  0  0
  148.9404  137.6894  152.5908 H   0  0  0  0  0  0  0  0  0  0  0  0
  1  2  1  0  0  0  0
  1 18  1  0  0  0  0
  1 19  1  0  0  0  0
  1 20  1  0  0  0  0
  2  3  1  0  0  0  0
  2 21  1  0  0  0  0
  2 22  1  0  0  0  0
  3  4  1  0  0  0  0
  3 23  1  0  0  0  0
  4  5  2  0  0  0  0
  4  6  1  0  0  0  0
  6  7  1  0  0  0  0
  6 24  1  0  0  0  0
  6 25  1  0  0  0  0
  7  8  1  0  0  0  0
  7 26  1  0  0  0  0
  7 27  1  0  0  0  0
  8  9  1  0  0  0  0
  8 28  1  0  0  0  0
  8 40  1  0  0  0  0
  9 10  1  0  0  0  0
  9 11  1  0  0  0  0
  9 29  1  0  0  0  0
 10 30  1  0  0  0  0
 10 31  1  0  0  0  0
 10 32  1  0  0  0  0
 11 12  1  0  0  0  0
 11 13  1  0  0  0  0
 11 33  1  0  0  0  0
 12 34  1  0  0  0  0
 12 35  1  0  0  0  0
 12 36  1  0  0  0  0
 13 17  1  0  0  0  0
 13 14  1  0  0  0  0
 14 15  2  0  0  0  0
 14 37  1  0  0  0  0
 15 16  1  0  0  0  0
 15 38  1  0  0  0  0
 16 17  2  0  0  0  0
 16 39  1  0  0  0  0
M  CHG  1   8   1
M  END
> <s_m_source_file>
AV-unprocessed.smi

> <i_m_source_file_index>
3136

> <i_lp_mmshare_version>
43012

> <i_f3d_flags>
0

> <s_epik_input>
W0NIM11bQ0gyXVtOSF1DKD1PKVtDSDJdW0NIMl1bTkhdW0NASF0oW0NIM10pW0NASF0oW0NIM10pbjFbY0hdW2NIXVtjSF1uMQ==

> <s_epik_cmdline>
J2VwaWtfcHl0aG9uJywgJy1waCcsICc3LjAnLCAnLXRuJywgJzgnLCAnLW1hJywgJzIwMCcsICctbWV0YWxfYmluZGluZycsICctaW1hZScsICc8aW5maWxlLm1hZT4nLCAnLW9tYWUnLCAnPG91dGZpbGUubWFlPic=

> <r_lp_tautomer_probability>
1

> <r_epik_Ionization_Penalty>
0.00463447

> <r_epik_Ionization_Penalty_Charging>
0.00462393

> <r_epik_Ionization_Penalty_Neutral>
1.05394e-05

> <r_epik_State_Penalty>
-0

> <r_epik_Charging_Adjusted_Penalty>
0.00462393

> <i_epik_Tot_Q>
1

> <i_epik_Tot_abs_Q>
1

> <r_epik_Metal_State_Penalty>
-0

> <b_epik_Metal_Only>
0

> <s_lp_Force_Field>
OPLS_2005

> <r_lp_Energy>
10.6492

> <b_lp_Chiralities_Consistent>
1

> <s_lp_Variant>
AV-unprocessed.smi:3136-3

> <Gold.Version>
5.8.1

> <Gold.Id.Protein>
6NUR|6NUR_protein|mol2

> <Gold.PLP.Fitness>
39.0275

> <Gold.PLP.PLP>
-24.0025

> <Gold.PLP.part.hbond>
-4.0000

> <Gold.PLP.part.metal>
0.0000

> <Gold.PLP.part.buried>
-2.5410

> <Gold.PLP.part.nonpolar>
-18.7164

> <Gold.PLP.part.repulsive>
0.2176

> <Gold.PLP.ligand.clash>
0.0628

> <Gold.PLP.ligand.torsion>
1.8450

> <Gold.PLP.Chemscore.Hbond>
4.0000

> <Gold.PLP.Chemscore.CHOScore>
2.1905

> <Gold.PLP.Chemscore.Metal>
0.0000

> <Gold.Chemscore.Hbonds>
donor molecule, donor type, donor heavy atom, donor atom, acceptor molecule, acceptor atom, score
      L1  H     8    28       P1  7957  0.84
      L1  H     8    40       P1  7948  2.00
      P1  H  7997  8010       L1     5  0.78
      L1  C    14    37       P1 10171  0.95
      L1  C    14    37       P1 10175  0.64
      L1  C    16    39       P1 10957  0.36

> <Gold.PLP.Chemscore.Internal.Correction>
0.2064

> <Gold.Rescore>
     Score         DG    S(hbond)    S(metal)    S(lipo)     H(rot)  DE(clash)    DE(int)     intcor
     14.31     -15.80       2.94        0.00      54.87       2.32       0.06       1.43       ----

> <Gold.Chemscore.Fitness>
14.3110

> <Gold.Chemscore.DG>
-15.7999

> <Gold.Chemscore.ZeroCoef>
-5.4800

> <Gold.Chemscore.Hbond>
2.9426

> <Gold.Chemscore.Metal>
0.0000

> <Gold.Chemscore.Lipo>
54.8746

> <Gold.Chemscore.Internal_Hbond>
0.0000

> <Gold.Chemscore.DEClash>
0.0603

> <Gold.Chemscore.DEInternal>
1.4286

> <Gold.Chemscore.Rot>
2.3159

> <Gold.Chemscore.Internal.Correction>
   9.000000E+99

> <Gold.Chemscore.Hbonds>
donor molecule, donor type, donor heavy atom, donor atom, acceptor molecule, acceptor atom, score
      L1  H     8    28       P1  7957  0.82
      L1  H     8    40       P1  7948  0.98
      P1  H  7997  8010       L1     5  0.76

> <Gold.Chemscore.Hbond.Weighted>
-9.8281

> <Gold.Chemscore.Metal.Weighted>
-0.0000

> <Gold.Chemscore.Lipo.Weighted>
-6.4203

> <Gold.Chemscore.Internal_Hbond.Weighted>
0.0000

> <Gold.Chemscore.DEClash.Weighted>
0.0603

> <Gold.Chemscore.DEInternal.Weighted>
1.4286

> <Gold.Chemscore.Rot.Weighted>
5.9286

> <Gold.Chemscore.Internal.Correction.Weighted>
   9.000000E+99

> <Gold.Protein.RotatedTorsions>
[ 6907 6896 6895 6894 ] final  -40.65 input  -60.11 | X-H torsion
[ 7974 7965 7964 7962 ] final -135.25 input  175.53 | X-H torsion
[ 8008 7997 7996 7995 ] final   98.36 input   59.86 | X-H torsion
[ 10167 10162 10161 10158 ] final  149.67 input  -65.29 | X-H torsion
[ 10718 10713 10712 10709 ] final -172.84 input   66.30 | X-H torsion
[ 10763 10752 10751 10750 ] final -179.17 input  -60.55 | X-H torsion
[ 11005 11000 10999 10996 ] final  -18.44 input  -57.11 | X-H torsion

> <Gold.Protein.ActiveResidues>
 VAL166  LYS551  ARG553  GLY616  TRP617  ASP618  TYR619  PRO620  LYS621  CYS622 
 ASP623  PHE694  ASN695  SER759  ASP760  ASP761  ALA762  ILE779  LEU786  VAL792 
 PHE793  MET794  SER795  GLU796  ALA797  LYS798  CYS799  TRP800  GLU811  SER814 

> <Gold.Protein.RotatedAtoms>
  150.9760  134.9124  159.7815 H   0  0  0  0  0  0  0  0  0  0  0  0  # atno 6907 bound_to 6896
  152.5206  134.3476  159.9249 H   0  0  0  0  0  0  0  0  0  0  0  0  # atno 6908 bound_to 6896
  151.3484  133.3894  159.2712 H   0  0  0  0  0  0  0  0  0  0  0  0  # atno 6909 bound_to 6896
  144.9031  140.6797  143.5072 H   0  0  0  0  0  0  0  0  0  0  0  0  # atno 7974 bound_to 7965
  156.0997  140.3245  155.7925 H   0  0  0  0  0  0  0  0  0  0  0  0  # atno 8008 bound_to 7997
  155.4858  140.0557  157.2978 H   0  0  0  0  0  0  0  0  0  0  0  0  # atno 8009 bound_to 7997
  154.4689  140.2002  156.0062 H   0  0  0  0  0  0  0  0  0  0  0  0  # atno 8010 bound_to 7997
  139.4859  144.5583  151.7277 H   0  0  0  0  0  0  0  0  0  0  0  0  # atno 10167 bound_to 10162
  156.7616  130.9415  151.3118 H   0  0  0  0  0  0  0  0  0  0  0  0  # atno 10718 bound_to 10713
  154.5385  135.2804  155.1117 H   0  0  0  0  0  0  0  0  0  0  0  0  # atno 10763 bound_to 10752
  154.2609  135.6322  153.5278 H   0  0  0  0  0  0  0  0  0  0  0  0  # atno 10764 bound_to 10752
  152.9973  135.5605  154.5918 H   0  0  0  0  0  0  0  0  0  0  0  0  # atno 10765 bound_to 10752
  140.8268  133.8026  155.9717 H   0  0  0  0  0  0  0  0  0  0  0  0  # atno 11005 bound_to 11000
  145.3582  139.1688  143.4397 LP  0  0  0  0  0  0  0  0  0  0  0  0  # atno 17320 bound_to 7965
  146.3119  140.3642  142.8668 LP  0  0  0  0  0  0  0  0  0  0  0  0  # atno 17321 bound_to 7965
  140.5149  144.0969  150.6005 LP  0  0  0  0  0  0  0  0  0  0  0  0  # atno 17342 bound_to 10162
  140.3907  143.2754  152.0064 LP  0  0  0  0  0  0  0  0  0  0  0  0  # atno 17343 bound_to 10162
  157.6732  130.9070  150.0089 LP  0  0  0  0  0  0  0  0  0  0  0  0  # atno 17370 bound_to 10713
  156.1336  130.3643  149.9693 LP  0  0  0  0  0  0  0  0  0  0  0  0  # atno 17371 bound_to 10713
  140.9040  134.2343  157.5025 LP  0  0  0  0  0  0  0  0  0  0  0  0  # atno 17394 bound_to 11000
  139.8706  134.9720  156.4756 LP  0  0  0  0  0  0  0  0  0  0  0  0  # atno 17395 bound_to 11000

$$$$
