AV-unprocessed.smi:2416|AV-procd|sdf|9547|dock2
  -GOLD-   2272013183D 1   1.00000     0.00000
 Structure written by MMmdl.
 40 41  0  0  0  0  0  0  0  0  1 V2000
  155.1971  133.2485  160.5690 C   0  0  0  0  0  0  0  0  0  0  0  0
  154.6975  134.4975  160.1085 O   0  0  0  0  0  0  0  0  0  0  0  0
  155.6588  135.5412  159.9433 C   0  0  2  0  0  0  0  0  0  0  0  0
  156.9207  134.9900  159.2611 C   0  0  0  0  0  0  0  0  0  0  0  0
  155.8368  136.3722  161.2270 C   0  0  0  0  0  0  0  0  0  0  0  0
  155.8111  137.6063  160.3279 C   0  0  2  0  0  0  0  0  0  0  0  0
  155.1295  138.7377  160.9475 N   0  0  0  0  0  0  0  0  0  0  0  0
  154.5249  139.7216  160.2675 C   0  0  0  0  0  0  0  0  0  0  0  0
  154.4875  139.7709  159.0378 O   0  0  0  0  0  0  0  0  0  0  0  0
  153.9768  140.6239  161.1006 N   0  0  0  0  0  0  0  0  0  0  0  0
  153.2373  141.7905  160.7688 C   0  0  0  0  0  0  0  0  0  0  0  0
  152.7289  142.5107  161.8736 C   0  0  0  0  0  0  0  0  0  0  0  0
  151.9779  143.6818  161.6520 C   0  0  0  0  0  0  0  0  0  0  0  0
  151.7545  144.1006  160.3285 C   0  0  0  0  0  0  0  0  0  0  0  0
  151.0371  145.2187  160.0658 F   0  0  0  0  0  0  0  0  0  0  0  0
  152.2958  143.3279  159.2846 C   0  0  0  0  0  0  0  0  0  0  0  0
  153.0161  142.2056  159.4959 N   0  0  0  0  0  0  0  0  0  0  0  0
  154.9511  136.7922  159.3270 C   0  0  0  0  0  0  0  0  0  0  0  0
  155.2117  137.0710  157.8432 C   0  0  0  0  0  0  0  0  0  0  0  0
  153.4210  136.8638  159.5063 C   0  0  0  0  0  0  0  0  0  0  0  0
  154.3588  132.5790  160.7608 H   0  0  0  0  0  0  0  0  0  0  0  0
  155.7575  133.3491  161.4986 H   0  0  0  0  0  0  0  0  0  0  0  0
  155.8325  132.7668  159.8264 H   0  0  0  0  0  0  0  0  0  0  0  0
  157.6172  135.7840  158.9927 H   0  0  0  0  0  0  0  0  0  0  0  0
  156.6727  134.4503  158.3469 H   0  0  0  0  0  0  0  0  0  0  0  0
  157.4695  134.3086  159.9103 H   0  0  0  0  0  0  0  0  0  0  0  0
  154.9881  136.3094  161.9110 H   0  0  0  0  0  0  0  0  0  0  0  0
  156.7811  136.2122  161.7480 H   0  0  0  0  0  0  0  0  0  0  0  0
  156.8046  137.8463  159.9422 H   0  0  0  0  0  0  0  0  0  0  0  0
  155.1154  138.7680  161.9565 H   0  0  0  0  0  0  0  0  0  0  0  0
  154.0973  140.4524  162.0879 H   0  0  0  0  0  0  0  0  0  0  0  0
  152.9103  142.1729  162.8836 H   0  0  0  0  0  0  0  0  0  0  0  0
  151.5807  144.2465  162.4826 H   0  0  0  0  0  0  0  0  0  0  0  0
  152.1471  143.6162  158.2544 H   0  0  0  0  0  0  0  0  0  0  0  0
  154.7373  137.9977  157.5192 H   0  0  0  0  0  0  0  0  0  0  0  0
  154.8286  136.2670  157.2139 H   0  0  0  0  0  0  0  0  0  0  0  0
  156.2749  137.1747  157.6268 H   0  0  0  0  0  0  0  0  0  0  0  0
  153.0272  137.8408  159.2243 H   0  0  0  0  0  0  0  0  0  0  0  0
  153.1156  136.6828  160.5369 H   0  0  0  0  0  0  0  0  0  0  0  0
  152.9130  136.1224  158.8889 H   0  0  0  0  0  0  0  0  0  0  0  0
  1  2  1  0  0  0  0
  1 21  1  0  0  0  0
  1 22  1  0  0  0  0
  1 23  1  0  0  0  0
  2  3  1  0  0  0  0
  3 18  1  0  0  0  0
  3  4  1  0  0  0  0
  3  5  1  0  0  0  0
  4 24  1  0  0  0  0
  4 25  1  0  0  0  0
  4 26  1  0  0  0  0
  5  6  1  0  0  0  0
  5 27  1  0  0  0  0
  5 28  1  0  0  0  0
  6  7  1  0  0  0  0
  6 18  1  0  0  0  0
  6 29  1  0  0  0  0
  7  8  1  0  0  0  0
  7 30  1  0  0  0  0
  8  9  2  0  0  0  0
  8 10  1  0  0  0  0
 10 11  1  0  0  0  0
 10 31  1  0  0  0  0
 11 17  1  0  0  0  0
 11 12  2  0  0  0  0
 12 13  1  0  0  0  0
 12 32  1  0  0  0  0
 13 14  2  0  0  0  0
 13 33  1  0  0  0  0
 14 15  1  0  0  0  0
 14 16  1  0  0  0  0
 16 17  2  0  0  0  0
 16 34  1  0  0  0  0
 18 19  1  0  0  0  0
 18 20  1  0  0  0  0
 19 35  1  0  0  0  0
 19 36  1  0  0  0  0
 19 37  1  0  0  0  0
 20 38  1  0  0  0  0
 20 39  1  0  0  0  0
 20 40  1  0  0  0  0
M  END
> <s_m_source_file>
AV-unprocessed.smi

> <i_m_source_file_index>
2416

> <i_lp_mmshare_version>
43012

> <i_f3d_flags>
0

> <s_epik_input>
W0NIM11PW0NAQF0xKFtDSDNdKVtDSDJdW0NASF0oQzEoW0NIM10pW0NIM10pW05IXUMoPU8pW05IXWMyW2NIXVtjSF1jKEYpW2NIXW4y

> <s_epik_cmdline>
J2VwaWtfcHl0aG9uJywgJy1waCcsICc3LjAnLCAnLXRuJywgJzgnLCAnLW1hJywgJzIwMCcsICctbWV0YWxfYmluZGluZycsICctaW1hZScsICc8aW5maWxlLm1hZT4nLCAnLW9tYWUnLCAnPG91dGZpbGUubWFlPic=

> <r_lp_tautomer_probability>
1

> <r_epik_Ionization_Penalty>
3.67756e-05

> <r_epik_Ionization_Penalty_Charging>
0

> <r_epik_Ionization_Penalty_Neutral>
3.67756e-05

> <r_epik_State_Penalty>
-0

> <r_epik_Charging_Adjusted_Penalty>
0

> <i_epik_Tot_Q>
0

> <i_epik_Tot_abs_Q>
0

> <r_epik_Metal_State_Penalty>
-0

> <b_epik_Metal_Only>
0

> <s_lp_Force_Field>
OPLS_2005

> <r_lp_Energy>
27.0586

> <b_lp_Chiralities_Consistent>
1

> <s_lp_Variant>
AV-unprocessed.smi:2416-4

> <Gold.Version>
5.8.1

> <Gold.Id.Protein>
6NUR|6NUR_protein|mol2

> <Gold.PLP.Fitness>
40.9983

> <Gold.PLP.PLP>
-35.5581

> <Gold.PLP.part.hbond>
-2.0000

> <Gold.PLP.part.metal>
0.0000

> <Gold.PLP.part.buried>
-5.3176

> <Gold.PLP.part.nonpolar>
-27.6983

> <Gold.PLP.part.repulsive>
0.0054

> <Gold.PLP.ligand.clash>
0.0000

> <Gold.PLP.ligand.torsion>
0.4517

> <Gold.PLP.Chemscore.Hbond>
1.9913

> <Gold.PLP.Chemscore.CHOScore>
0.0000

> <Gold.PLP.Chemscore.Metal>
0.0000

> <Gold.Chemscore.Hbonds>
donor molecule, donor type, donor heavy atom, donor atom, acceptor molecule, acceptor atom, score
      P1  H  6896  6909       L1     2  0.59
      P1  H  7997  8008       L1     9  1.00

> <Gold.PLP.Chemscore.Internal.Correction>
0.3698

> <Gold.Rescore>
     Score         DG    S(hbond)    S(metal)    S(lipo)     H(rot)  DE(clash)    DE(int)     intcor
     14.87     -16.50       1.60        0.00      76.20       1.27       0.03       1.60       ----

> <Gold.Chemscore.Fitness>
14.8706

> <Gold.Chemscore.DG>
-16.5011

> <Gold.Chemscore.ZeroCoef>
-5.4800

> <Gold.Chemscore.Hbond>
1.6004

> <Gold.Chemscore.Metal>
0.0000

> <Gold.Chemscore.Lipo>
76.1970

> <Gold.Chemscore.Internal_Hbond>
0.0000

> <Gold.Chemscore.DEClash>
0.0266

> <Gold.Chemscore.DEInternal>
1.6040

> <Gold.Chemscore.Rot>
1.2653

> <Gold.Chemscore.Internal.Correction>
   9.000000E+99

> <Gold.Chemscore.Hbonds>
donor molecule, donor type, donor heavy atom, donor atom, acceptor molecule, acceptor atom, score
      P1  H  6896  6909       L1     2  0.47
      P1  H  7997  8008       L1     9  0.94

> <Gold.Chemscore.Hbond.Weighted>
-5.3453

> <Gold.Chemscore.Metal.Weighted>
-0.0000

> <Gold.Chemscore.Lipo.Weighted>
-8.9151

> <Gold.Chemscore.Internal_Hbond.Weighted>
0.0000

> <Gold.Chemscore.DEClash.Weighted>
0.0266

> <Gold.Chemscore.DEInternal.Weighted>
1.6040

> <Gold.Chemscore.Rot.Weighted>
3.2392

> <Gold.Chemscore.Internal.Correction.Weighted>
   9.000000E+99

> <Gold.Protein.RotatedTorsions>
[ 6907 6896 6895 6894 ] final -175.64 input  -60.11 | X-H torsion
[ 7974 7965 7964 7962 ] final  -55.10 input  175.53 | X-H torsion
[ 8008 7997 7996 7995 ] final -130.71 input   59.86 | X-H torsion
[ 10167 10162 10161 10158 ] final  -54.95 input  -65.29 | X-H torsion
[ 10718 10713 10712 10709 ] final   98.82 input   66.30 | X-H torsion
[ 10763 10752 10751 10750 ] final   91.26 input  -60.55 | X-H torsion
[ 11005 11000 10999 10996 ] final  110.40 input  -57.11 | X-H torsion

> <Gold.Protein.ActiveResidues>
 VAL166  LYS551  ARG553  GLY616  TRP617  ASP618  TYR619  PRO620  LYS621  CYS622 
 ASP623  PHE694  ASN695  SER759  ASP760  ASP761  ALA762  ILE779  LEU786  VAL792 
 PHE793  MET794  SER795  GLU796  ALA797  LYS798  CYS799  TRP800  GLU811  SER814 

> <Gold.Protein.RotatedAtoms>
  151.5919  133.3365  159.3029 H   0  0  0  0  0  0  0  0  0  0  0  0  # atno 6907 bound_to 6896
  150.8255  134.7488  159.6821 H   0  0  0  0  0  0  0  0  0  0  0  0  # atno 6908 bound_to 6896
  152.4345  134.5719  159.9975 H   0  0  0  0  0  0  0  0  0  0  0  0  # atno 6909 bound_to 6896
  145.8780  140.8166  142.9854 H   0  0  0  0  0  0  0  0  0  0  0  0  # atno 7974 bound_to 7965
  155.3002  140.0452  157.3029 H   0  0  0  0  0  0  0  0  0  0  0  0  # atno 8008 bound_to 7997
  154.5491  140.2312  155.8482 H   0  0  0  0  0  0  0  0  0  0  0  0  # atno 8009 bound_to 7997
  156.1950  140.3040  155.9417 H   0  0  0  0  0  0  0  0  0  0  0  0  # atno 8010 bound_to 7997
  140.6402  143.2503  151.5010 H   0  0  0  0  0  0  0  0  0  0  0  0  # atno 10167 bound_to 10162
  157.6888  131.0651  150.4855 H   0  0  0  0  0  0  0  0  0  0  0  0  # atno 10718 bound_to 10713
  153.2063  135.4404  155.0327 H   0  0  0  0  0  0  0  0  0  0  0  0  # atno 10763 bound_to 10752
  154.8175  135.3322  154.7136 H   0  0  0  0  0  0  0  0  0  0  0  0  # atno 10764 bound_to 10752
  153.7577  135.6994  153.4988 H   0  0  0  0  0  0  0  0  0  0  0  0  # atno 10765 bound_to 10752
  139.8881  134.9483  156.6273 H   0  0  0  0  0  0  0  0  0  0  0  0  # atno 11005 bound_to 11000
  144.6726  140.1341  143.7441 LP  0  0  0  0  0  0  0  0  0  0  0  0  # atno 17320 bound_to 7965
  145.9057  139.2457  143.1467 LP  0  0  0  0  0  0  0  0  0  0  0  0  # atno 17321 bound_to 7965
  139.5611  144.2154  152.1693 LP  0  0  0  0  0  0  0  0  0  0  0  0  # atno 17342 bound_to 10162
  140.1422  144.5191  150.6737 LP  0  0  0  0  0  0  0  0  0  0  0  0  # atno 17343 bound_to 10162
  156.5184  130.4156  149.6263 LP  0  0  0  0  0  0  0  0  0  0  0  0  # atno 17370 bound_to 10713
  156.3176  130.7263  151.2169 LP  0  0  0  0  0  0  0  0  0  0  0  0  # atno 17371 bound_to 10713
  140.7693  133.8751  155.8479 LP  0  0  0  0  0  0  0  0  0  0  0  0  # atno 17394 bound_to 11000
  140.9855  134.1348  157.4456 LP  0  0  0  0  0  0  0  0  0  0  0  0  # atno 17395 bound_to 11000

$$$$
