AV-unprocessed.smi:3314|AV-procd|sdf|12740|dock8
  -GOLD-   2272019 83D 1   1.00000     0.00000
 Structure written by MMmdl.
 38 39  0  0  0  0  0  0  0  0  2 V2000
  151.1661  145.1029  159.2145 C   0  0  0  0  0  0  0  0  0  0  0  0
  151.6348  143.7049  158.8662 C   0  0  0  0  0  0  0  0  0  0  0  0
  152.5501  142.9961  159.7444 C   0  0  0  0  0  0  0  0  0  0  0  0
  152.9533  141.7565  159.4177 C   0  0  0  0  0  0  0  0  0  0  0  0
  153.9037  140.9317  160.2599 C   0  0  0  0  0  0  0  0  0  0  0  0
  152.5059  141.1446  158.2535 N   0  0  0  0  0  0  0  0  0  0  0  0
  151.6217  141.7633  157.3522 C   0  0  0  0  0  0  0  0  0  0  0  0
  151.1745  141.2352  156.2499 N   0  0  0  0  0  0  0  0  0  0  0  0
  151.5270  139.9544  155.8330 C   0  0  0  0  0  0  0  0  0  0  0  0
  152.5118  139.2753  156.1376 O   0  0  0  0  0  0  0  0  0  0  0  0
  150.5034  139.3703  154.8521 C   0  0  1  0  0  0  0  0  0  0  0  0
  149.9048  138.0547  155.3941 C   0  0  0  0  0  0  0  0  0  0  0  0
  148.8479  137.5537  154.4857 N   0  3  1  0  0  0  0  0  0  0  0  0
  148.2671  136.2717  154.9383 C   0  0  0  0  0  0  0  0  0  0  0  0
  147.8217  138.5931  154.2439 C   0  0  0  0  0  0  0  0  0  0  0  0
  148.4821  139.8835  153.7324 C   0  0  0  0  0  0  0  0  0  0  0  0
  149.4572  140.3216  154.6703 O   0  0  0  0  0  0  0  0  0  0  0  0
  151.2037  143.1044  157.7318 C   0  0  0  0  0  0  0  0  0  0  0  0
  151.6042  145.4440  160.1530 H   0  0  0  0  0  0  0  0  0  0  0  0
  150.0809  145.1242  159.3179 H   0  0  0  0  0  0  0  0  0  0  0  0
  151.4519  145.8049  158.4307 H   0  0  0  0  0  0  0  0  0  0  0  0
  152.9034  143.4627  160.6524 H   0  0  0  0  0  0  0  0  0  0  0  0
  154.2003  141.4689  161.1614 H   0  0  0  0  0  0  0  0  0  0  0  0
  154.8046  140.6951  159.6932 H   0  0  0  0  0  0  0  0  0  0  0  0
  153.4309  139.9965  160.5613 H   0  0  0  0  0  0  0  0  0  0  0  0
  150.9865  139.1919  153.8887 H   0  0  0  0  0  0  0  0  0  0  0  0
  150.6861  137.2988  155.4899 H   0  0  0  0  0  0  0  0  0  0  0  0
  149.4836  138.2080  156.3899 H   0  0  0  0  0  0  0  0  0  0  0  0
  147.7688  136.3851  155.9020 H   0  0  0  0  0  0  0  0  0  0  0  0
  149.0443  135.5138  155.0419 H   0  0  0  0  0  0  0  0  0  0  0  0
  147.5369  135.9039  154.2165 H   0  0  0  0  0  0  0  0  0  0  0  0
  147.0956  138.2328  153.5143 H   0  0  0  0  0  0  0  0  0  0  0  0
  147.2769  138.7942  155.1678 H   0  0  0  0  0  0  0  0  0  0  0  0
  148.9425  139.7271  152.7556 H   0  0  0  0  0  0  0  0  0  0  0  0
  147.7331  140.6661  153.6097 H   0  0  0  0  0  0  0  0  0  0  0  0
  150.5239  143.6626  157.1037 H   0  0  0  0  0  0  0  0  0  0  0  0
  152.8541  140.2122  158.0817 H   0  0  0  0  0  0  0  0  0  0  0  0
  149.2921  137.3730  153.5967 H   0  0  0  0  0  0  0  0  0  0  0  0
  1  2  1  0  0  0  0
  1 19  1  0  0  0  0
  1 20  1  0  0  0  0
  1 21  1  0  0  0  0
  2 18  2  0  0  0  0
  2  3  1  0  0  0  0
  3  4  2  0  0  0  0
  3 22  1  0  0  0  0
  4  5  1  0  0  0  0
  4  6  1  0  0  0  0
  5 23  1  0  0  0  0
  5 24  1  0  0  0  0
  5 25  1  0  0  0  0
  6  7  1  0  0  0  0
  6 37  1  0  0  0  0
  7  8  2  0  0  0  0
  7 18  1  0  0  0  0
  8  9  1  0  0  0  0
  9 10  2  0  0  0  0
  9 11  1  0  0  0  0
 11 17  1  0  0  0  0
 11 12  1  0  0  0  0
 11 26  1  0  0  0  0
 12 13  1  0  0  0  0
 12 27  1  0  0  0  0
 12 28  1  0  0  0  0
 13 14  1  0  0  0  0
 13 15  1  0  0  0  0
 13 38  1  0  0  0  0
 14 29  1  0  0  0  0
 14 30  1  0  0  0  0
 14 31  1  0  0  0  0
 15 16  1  0  0  0  0
 15 32  1  0  0  0  0
 15 33  1  0  0  0  0
 16 17  1  0  0  0  0
 16 34  1  0  0  0  0
 16 35  1  0  0  0  0
 18 36  1  0  0  0  0
M  CHG  1  13   1
M  END
> <s_m_source_file>
AV-unprocessed.smi

> <i_m_source_file_index>
3314

> <i_lp_mmshare_version>
43012

> <i_f3d_flags>
0

> <s_epik_input>
W0NIM11jMVtjSF1jKFtDSDNdKW5jKFtjSF0xKVtOSF1DKD1PKVtDQEBIXTJbQ0gyXU4oW0NIM10pW0NIMl1bQ0gyXU8y

> <s_epik_cmdline>
J2VwaWtfcHl0aG9uJywgJy1waCcsICc3LjAnLCAnLXRuJywgJzgnLCAnLW1hJywgJzIwMCcsICctbWV0YWxfYmluZGluZycsICctaW1hZScsICc8aW5maWxlLm1hZT4nLCAnLW9tYWUnLCAnPG91dGZpbGUubWFlPic=

> <r_epik_Ionization_Penalty>
0.519783

> <r_epik_Ionization_Penalty_Charging>
0.519783

> <r_epik_Ionization_Penalty_Neutral>
1.74183e-13

> <r_epik_State_Penalty>
2.39351

> <r_epik_Charging_Adjusted_Penalty>
2.91329

> <i_epik_Tot_Q>
1

> <i_epik_Tot_abs_Q>
1

> <r_epik_Metal_State_Penalty>
2.41924

> <b_epik_Metal_Only>
0

> <s_lp_Force_Field>
OPLS_2005

> <r_lp_Energy>
34.3137

> <b_lp_Chiralities_Consistent>
1

> <s_lp_Variant>
AV-unprocessed.smi:3314-10

> <Gold.Version>
5.8.1

> <Gold.Id.Protein>
6NUR|6NUR_protein|mol2

> <Gold.PLP.Fitness>
39.2571

> <Gold.PLP.PLP>
-32.2564

> <Gold.PLP.part.hbond>
-1.9804

> <Gold.PLP.part.metal>
0.0000

> <Gold.PLP.part.buried>
-1.4638

> <Gold.PLP.part.nonpolar>
-29.1086

> <Gold.PLP.part.repulsive>
0.2320

> <Gold.PLP.ligand.clash>
0.0000

> <Gold.PLP.ligand.torsion>
0.1081

> <Gold.PLP.Chemscore.Hbond>
2.4056

> <Gold.PLP.Chemscore.CHOScore>
0.0000

> <Gold.PLP.Chemscore.Metal>
0.0000

> <Gold.Chemscore.Hbonds>
donor molecule, donor type, donor heavy atom, donor atom, acceptor molecule, acceptor atom, score
      L1  H    13    38       P1  7948  1.40
      P1  H  7997  8010       L1    10  1.00

> <Gold.PLP.Chemscore.Internal.Correction>
0.0002

> <Gold.Rescore>
     Score         DG    S(hbond)    S(metal)    S(lipo)     H(rot)  DE(clash)    DE(int)     intcor
     15.93     -18.76       1.62        0.00      89.08       1.00       1.36       1.46       ----

> <Gold.Chemscore.Fitness>
15.9306

> <Gold.Chemscore.DG>
-18.7581

> <Gold.Chemscore.ZeroCoef>
-5.4800

> <Gold.Chemscore.Hbond>
1.6213

> <Gold.Chemscore.Metal>
0.0000

> <Gold.Chemscore.Lipo>
89.0847

> <Gold.Chemscore.Internal_Hbond>
0.0000

> <Gold.Chemscore.DEClash>
1.3645

> <Gold.Chemscore.DEInternal>
1.4630

> <Gold.Chemscore.Rot>
1.0000

> <Gold.Chemscore.Internal.Correction>
   9.000000E+99

> <Gold.Chemscore.Hbonds>
donor molecule, donor type, donor heavy atom, donor atom, acceptor molecule, acceptor atom, score
      L1  H    13    38       P1  7948  0.67
      P1  H  7997  8010       L1    10  0.93

> <Gold.Chemscore.Hbond.Weighted>
-5.4152

> <Gold.Chemscore.Metal.Weighted>
-0.0000

> <Gold.Chemscore.Lipo.Weighted>
-10.4229

> <Gold.Chemscore.Internal_Hbond.Weighted>
0.0000

> <Gold.Chemscore.DEClash.Weighted>
1.3645

> <Gold.Chemscore.DEInternal.Weighted>
1.4630

> <Gold.Chemscore.Rot.Weighted>
2.5600

> <Gold.Chemscore.Internal.Correction.Weighted>
   9.000000E+99

> <Gold.Protein.RotatedTorsions>
[ 6907 6896 6895 6894 ] final  -52.75 input  -60.11 | X-H torsion
[ 7974 7965 7964 7962 ] final  161.42 input  175.53 | X-H torsion
[ 8008 7997 7996 7995 ] final   75.95 input   59.86 | X-H torsion
[ 10167 10162 10161 10158 ] final   71.77 input  -65.29 | X-H torsion
[ 10718 10713 10712 10709 ] final -154.18 input   66.30 | X-H torsion
[ 10763 10752 10751 10750 ] final   51.16 input  -60.55 | X-H torsion
[ 11005 11000 10999 10996 ] final  -14.13 input  -57.11 | X-H torsion

> <Gold.Protein.ActiveResidues>
 VAL166  LYS551  ARG553  GLY616  TRP617  ASP618  TYR619  PRO620  LYS621  CYS622 
 ASP623  PHE694  ASN695  SER759  ASP760  ASP761  ALA762  ILE779  LEU786  VAL792 
 PHE793  MET794  SER795  GLU796  ALA797  LYS798  CYS799  TRP800  GLU811  SER814 

> <Gold.Protein.RotatedAtoms>
  150.8490  134.7808  159.6992 H   0  0  0  0  0  0  0  0  0  0  0  0  # atno 6907 bound_to 6896
  152.4559  134.5289  159.9815 H   0  0  0  0  0  0  0  0  0  0  0  0  # atno 6908 bound_to 6896
  151.5413  133.3394  159.2971 H   0  0  0  0  0  0  0  0  0  0  0  0  # atno 6909 bound_to 6896
  144.7687  139.7895  143.6305 H   0  0  0  0  0  0  0  0  0  0  0  0  # atno 7974 bound_to 7965
  155.8203  140.3470  155.5510 H   0  0  0  0  0  0  0  0  0  0  0  0  # atno 8008 bound_to 7997
  155.8349  140.0933  157.1790 H   0  0  0  0  0  0  0  0  0  0  0  0  # atno 8009 bound_to 7997
  154.4004  140.1405  156.3646 H   0  0  0  0  0  0  0  0  0  0  0  0  # atno 8010 bound_to 7997
  140.0425  144.5378  150.7423 H   0  0  0  0  0  0  0  0  0  0  0  0  # atno 10167 bound_to 10162
  156.4958  130.8368  151.2589 H   0  0  0  0  0  0  0  0  0  0  0  0  # atno 10718 bound_to 10713
  152.9785  135.5855  154.4371 H   0  0  0  0  0  0  0  0  0  0  0  0  # atno 10763 bound_to 10752
  154.3977  135.2768  155.2118 H   0  0  0  0  0  0  0  0  0  0  0  0  # atno 10764 bound_to 10752
  154.3963  135.6114  153.5925 H   0  0  0  0  0  0  0  0  0  0  0  0  # atno 10765 bound_to 10752
  140.7832  133.8346  155.9311 H   0  0  0  0  0  0  0  0  0  0  0  0  # atno 11005 bound_to 11000
  146.1816  139.5010  142.9863 LP  0  0  0  0  0  0  0  0  0  0  0  0  # atno 17320 bound_to 7965
  145.6391  141.0288  143.1821 LP  0  0  0  0  0  0  0  0  0  0  0  0  # atno 17321 bound_to 7965
  140.7254  143.2630  151.4139 LP  0  0  0  0  0  0  0  0  0  0  0  0  # atno 17342 bound_to 10162
  139.6005  144.1307  152.2192 LP  0  0  0  0  0  0  0  0  0  0  0  0  # atno 17343 bound_to 10162
  157.7468  130.9998  150.2903 LP  0  0  0  0  0  0  0  0  0  0  0  0  # atno 17370 bound_to 10713
  156.3381  130.3811  149.7432 LP  0  0  0  0  0  0  0  0  0  0  0  0  # atno 17371 bound_to 10713
  140.9462  134.1838  157.4762 LP  0  0  0  0  0  0  0  0  0  0  0  0  # atno 17394 bound_to 11000
  139.8740  134.9891  156.5443 LP  0  0  0  0  0  0  0  0  0  0  0  0  # atno 17395 bound_to 11000

$$$$
