AV-unprocessed.smi:240|AV-procd|sdf|1833|dock5
  -GOLD-   2262020443D 1   1.00000     0.00000
 Structure written by MMmdl.
 55 59  0  0  0  0  0  0  0  0  1 V2000
  155.4679  138.8013  158.1248 O   0  0  0  0  0  0  0  0  0  0  0  0
  154.2375  138.2764  158.5809 C   0  0  1  0  0  0  0  0  0  0  0  0
  154.5555  137.0594  159.4577 C   0  0  0  0  0  0  0  0  0  0  0  0
  154.7974  137.6134  160.8730 C   0  0  0  0  0  0  0  0  0  0  0  0
  154.2596  139.0542  160.8801 C   0  0  0  0  0  0  0  0  0  0  0  0
  153.4927  139.2043  159.5579 C   0  0  1  0  0  0  0  0  0  0  0  0
  153.1226  140.6566  159.1047 C   0  0  2  0  0  0  0  0  0  0  0  0
  153.0622  141.6893  160.2629 C   0  0  0  0  0  0  0  0  0  0  0  0
  152.6745  142.9722  159.7862 O   0  0  0  0  0  0  0  0  0  0  0  0
  151.3782  142.9533  159.2098 C   0  0  0  0  0  0  0  0  0  0  0  0
  151.4083  142.0323  157.9869 C   0  0  0  0  0  0  0  0  0  0  0  0
  151.8476  140.6942  158.3672 N   0  0  0  0  0  0  0  0  0  0  0  0
  151.7077  139.8551  157.3147 C   0  0  0  0  0  0  0  0  0  0  0  0
  152.5124  139.9801  156.2260 N   0  0  0  0  0  0  0  0  0  0  0  0
  152.3624  139.1514  155.1882 C   0  0  0  0  0  0  0  0  0  0  0  0
  151.4853  138.1564  155.0340 N   0  0  0  0  0  0  0  0  0  0  0  0
  150.6700  138.0390  156.1217 C   0  0  0  0  0  0  0  0  0  0  0  0
  150.7146  138.8418  157.2949 C   0  0  0  0  0  0  0  0  0  0  0  0
  149.7399  138.4312  158.1942 N   0  0  0  0  0  0  0  0  0  0  0  0
  149.1500  137.4384  157.5860 C   0  0  0  0  0  0  0  0  0  0  0  0
  149.6378  137.1410  156.3323 N   0  0  0  0  0  0  0  0  0  0  0  0
  149.1682  136.0909  155.4405 C   0  0  0  0  0  0  0  0  0  0  0  0
  150.2699  135.0836  155.0305 C   0  0  2  0  0  0  0  0  0  0  0  0
  151.2450  135.7610  154.2579 O   0  0  0  0  0  0  0  0  0  0  0  0
  149.7154  133.9127  154.2158 C   0  0  0  0  0  0  0  0  0  0  0  0
  149.7958  132.7358  155.1804 C   0  0  0  0  0  0  0  0  0  0  0  0
  150.9795  133.0125  155.9069 O   0  0  0  0  0  0  0  0  0  0  0  0
  150.9575  134.3960  156.2277 C   0  0  0  0  0  0  0  0  0  0  0  0
  156.1253  138.6372  158.7838 H   0  0  0  0  0  0  0  0  0  0  0  0
  153.6234  138.0097  157.7201 H   0  0  0  0  0  0  0  0  0  0  0  0
  153.6864  136.4004  159.4792 H   0  0  0  0  0  0  0  0  0  0  0  0
  155.3935  136.4678  159.0864 H   0  0  0  0  0  0  0  0  0  0  0  0
  154.2912  136.9971  161.6168 H   0  0  0  0  0  0  0  0  0  0  0  0
  155.8605  137.6079  161.1158 H   0  0  0  0  0  0  0  0  0  0  0  0
  153.6246  139.2498  161.7447 H   0  0  0  0  0  0  0  0  0  0  0  0
  155.0973  139.7489  160.9277 H   0  0  0  0  0  0  0  0  0  0  0  0
  152.5498  138.6796  159.7135 H   0  0  0  0  0  0  0  0  0  0  0  0
  153.9000  140.9944  158.4176 H   0  0  0  0  0  0  0  0  0  0  0  0
  152.3746  141.3763  161.0488 H   0  0  0  0  0  0  0  0  0  0  0  0
  154.0377  141.8234  160.7233 H   0  0  0  0  0  0  0  0  0  0  0  0
  150.6380  142.6189  159.9386 H   0  0  0  0  0  0  0  0  0  0  0  0
  151.1044  143.9656  158.9129 H   0  0  0  0  0  0  0  0  0  0  0  0
  150.4151  141.9896  157.5370 H   0  0  0  0  0  0  0  0  0  0  0  0
  152.0858  142.4391  157.2345 H   0  0  0  0  0  0  0  0  0  0  0  0
  153.0404  139.3092  154.3625 H   0  0  0  0  0  0  0  0  0  0  0  0
  148.3328  136.8940  158.0368 H   0  0  0  0  0  0  0  0  0  0  0  0
  148.3489  135.5649  155.9323 H   0  0  0  0  0  0  0  0  0  0  0  0
  148.7380  136.5626  154.5560 H   0  0  0  0  0  0  0  0  0  0  0  0
  151.1436  135.5007  153.3550 H   0  0  0  0  0  0  0  0  0  0  0  0
  148.7021  134.0782  153.8480 H   0  0  0  0  0  0  0  0  0  0  0  0
  150.3462  133.7032  153.3502 H   0  0  0  0  0  0  0  0  0  0  0  0
  148.9398  132.7231  155.8574 H   0  0  0  0  0  0  0  0  0  0  0  0
  149.8494  131.7740  154.6699 H   0  0  0  0  0  0  0  0  0  0  0  0
  151.9597  134.7738  156.4344 H   0  0  0  0  0  0  0  0  0  0  0  0
  150.3698  134.5101  157.1388 H   0  0  0  0  0  0  0  0  0  0  0  0
  1  2  1  0  0  0  0
  1 29  1  0  0  0  0
  2  6  1  0  0  0  0
  2  3  1  0  0  0  0
  2 30  1  0  0  0  0
  3  4  1  0  0  0  0
  3 31  1  0  0  0  0
  3 32  1  0  0  0  0
  4  5  1  0  0  0  0
  4 33  1  0  0  0  0
  4 34  1  0  0  0  0
  5  6  1  0  0  0  0
  5 35  1  0  0  0  0
  5 36  1  0  0  0  0
  6  7  1  0  0  0  0
  6 37  1  0  0  0  0
  7 12  1  0  0  0  0
  7  8  1  0  0  0  0
  7 38  1  0  0  0  0
  8  9  1  0  0  0  0
  8 39  1  0  0  0  0
  8 40  1  0  0  0  0
  9 10  1  0  0  0  0
 10 11  1  0  0  0  0
 10 41  1  0  0  0  0
 10 42  1  0  0  0  0
 11 12  1  0  0  0  0
 11 43  1  0  0  0  0
 11 44  1  0  0  0  0
 12 13  1  0  0  0  0
 13 18  1  0  0  0  0
 13 14  2  0  0  0  0
 14 15  1  0  0  0  0
 15 16  2  0  0  0  0
 15 45  1  0  0  0  0
 16 17  1  0  0  0  0
 17 21  1  0  0  0  0
 17 18  2  0  0  0  0
 18 19  1  0  0  0  0
 19 20  2  0  0  0  0
 20 21  1  0  0  0  0
 20 46  1  0  0  0  0
 21 22  1  0  0  0  0
 22 23  1  0  0  0  0
 22 47  1  0  0  0  0
 22 48  1  0  0  0  0
 23 28  1  0  0  0  0
 23 24  1  0  0  0  0
 23 25  1  0  0  0  0
 24 49  1  0  0  0  0
 25 26  1  0  0  0  0
 25 50  1  0  0  0  0
 25 51  1  0  0  0  0
 26 27  1  0  0  0  0
 26 52  1  0  0  0  0
 26 53  1  0  0  0  0
 27 28  1  0  0  0  0
 28 54  1  0  0  0  0
 28 55  1  0  0  0  0
M  END
> <s_m_source_file>
AV-unprocessed.smi

> <i_m_source_file_index>
240

> <i_lp_mmshare_version>
43012

> <i_f3d_flags>
0

> <s_epik_input>
W09IXVtDQEBIXTFbQ0gyXVtDSDJdW0NIMl1bQ0BIXTFbQ0BASF0yW0NIMl1PW0NIMl1bQ0gyXU4yYyhuW2NIXW4zKWMoYzM0KW5bY0hdbjRbQ0gyXVtDQEBdNShbT0hdKVtDSDJdW0NIMl1PW0NIMl01

> <s_epik_cmdline>
J2VwaWtfcHl0aG9uJywgJy1waCcsICc3LjAnLCAnLXRuJywgJzgnLCAnLW1hJywgJzIwMCcsICctbWV0YWxfYmluZGluZycsICctaW1hZScsICc8aW5maWxlLm1hZT4nLCAnLW9tYWUnLCAnPG91dGZpbGUubWFlPic=

> <r_lp_tautomer_probability>
1

> <r_epik_Ionization_Penalty>
0.000130618

> <r_epik_Ionization_Penalty_Charging>
0

> <r_epik_Ionization_Penalty_Neutral>
0.000130618

> <r_epik_State_Penalty>
-0

> <r_epik_Charging_Adjusted_Penalty>
0

> <i_epik_Tot_Q>
0

> <i_epik_Tot_abs_Q>
0

> <r_epik_Metal_State_Penalty>
-0

> <b_epik_Metal_Only>
0

> <s_lp_Force_Field>
OPLS_2005

> <r_lp_Energy>
64.6726

> <b_lp_Chiralities_Consistent>
1

> <s_lp_Variant>
AV-unprocessed.smi:240-10

> <Gold.Version>
5.8.1

> <Gold.Id.Protein>
6NUR|6NUR_protein|mol2

> <Gold.PLP.Fitness>
45.0669

> <Gold.PLP.PLP>
-36.1254

> <Gold.PLP.part.hbond>
-4.3952

> <Gold.PLP.part.metal>
0.0000

> <Gold.PLP.part.buried>
-4.7147

> <Gold.PLP.part.nonpolar>
-26.8251

> <Gold.PLP.part.repulsive>
0.0819

> <Gold.PLP.ligand.clash>
0.0347

> <Gold.PLP.ligand.torsion>
0.9279

> <Gold.PLP.Chemscore.Hbond>
3.5320

> <Gold.PLP.Chemscore.CHOScore>
0.0000

> <Gold.PLP.Chemscore.Metal>
0.0000

> <Gold.Chemscore.Hbonds>
donor molecule, donor type, donor heavy atom, donor atom, acceptor molecule, acceptor atom, score
      L1  H    24    49       P1  7949  0.94
      P1  H  7997  8008       L1    14  0.95
      P1  H  7997  8010       L1     1  0.76
      P1  H 10752 10765       L1    24  1.00

> <Gold.PLP.Chemscore.Internal.Correction>
0.2360

> <Gold.Rescore>
     Score         DG    S(hbond)    S(metal)    S(lipo)     H(rot)  DE(clash)    DE(int)     intcor
     14.33     -15.65       2.26        0.00      88.12       3.00       0.02       1.30       ----

> <Gold.Chemscore.Fitness>
14.3307

> <Gold.Chemscore.DG>
-15.6466

> <Gold.Chemscore.ZeroCoef>
-5.4800

> <Gold.Chemscore.Hbond>
2.2595

> <Gold.Chemscore.Metal>
0.0000

> <Gold.Chemscore.Lipo>
88.1178

> <Gold.Chemscore.Internal_Hbond>
0.0000

> <Gold.Chemscore.DEClash>
0.0163

> <Gold.Chemscore.DEInternal>
1.2996

> <Gold.Chemscore.Rot>
3.0039

> <Gold.Chemscore.Internal.Correction>
   9.000000E+99

> <Gold.Chemscore.Hbonds>
donor molecule, donor type, donor heavy atom, donor atom, acceptor molecule, acceptor atom, score
      L1  H    24    49       P1  7949  0.20
      P1  H  7997  8008       L1    14  0.21
      P1  H  7997  8010       L1     1  0.66
      P1  H 10752 10765       L1    24  0.38

> <Gold.Chemscore.Hbond.Weighted>
-7.5468

> <Gold.Chemscore.Metal.Weighted>
-0.0000

> <Gold.Chemscore.Lipo.Weighted>
-10.3098

> <Gold.Chemscore.Internal_Hbond.Weighted>
0.0000

> <Gold.Chemscore.DEClash.Weighted>
0.0163

> <Gold.Chemscore.DEInternal.Weighted>
1.2996

> <Gold.Chemscore.Rot.Weighted>
7.6899

> <Gold.Chemscore.Internal.Correction.Weighted>
   9.000000E+99

> <Gold.Protein.RotatedTorsions>
[ 6907 6896 6895 6894 ] final -123.14 input  -60.11 | X-H torsion
[ 7974 7965 7964 7962 ] final   57.63 input  175.53 | X-H torsion
[ 8008 7997 7996 7995 ] final  -33.24 input   59.86 | X-H torsion
[ 10167 10162 10161 10158 ] final -144.95 input  -65.29 | X-H torsion
[ 10718 10713 10712 10709 ] final  143.55 input   66.30 | X-H torsion
[ 10763 10752 10751 10750 ] final  177.23 input  -60.55 | X-H torsion
[ 11005 11000 10999 10996 ] final  159.41 input  -57.11 | X-H torsion

> <Gold.Protein.ActiveResidues>
 VAL166  LYS551  ARG553  GLY616  TRP617  ASP618  TYR619  PRO620  LYS621  CYS622 
 ASP623  PHE694  ASN695  SER759  ASP760  ASP761  ALA762  ILE779  LEU786  VAL792 
 PHE793  MET794  SER795  GLU796  ALA797  LYS798  CYS799  TRP800  GLU811  SER814 

> <Gold.Protein.RotatedAtoms>
  150.8642  133.7598  159.2981 H   0  0  0  0  0  0  0  0  0  0  0  0  # atno 6907 bound_to 6896
  151.5231  135.1066  159.9893 H   0  0  0  0  0  0  0  0  0  0  0  0  # atno 6908 bound_to 6896
  152.4649  133.7857  159.6930 H   0  0  0  0  0  0  0  0  0  0  0  0  # atno 6909 bound_to 6896
  145.9269  139.3775  143.0444 H   0  0  0  0  0  0  0  0  0  0  0  0  # atno 7974 bound_to 7965
  154.4155  140.1716  156.1856 H   0  0  0  0  0  0  0  0  0  0  0  0  # atno 8008 bound_to 7997
  155.9646  140.3391  155.6497 H   0  0  0  0  0  0  0  0  0  0  0  0  # atno 8009 bound_to 7997
  155.6705  140.0711  157.2512 H   0  0  0  0  0  0  0  0  0  0  0  0  # atno 8010 bound_to 7997
  139.7851  143.8045  152.2643 H   0  0  0  0  0  0  0  0  0  0  0  0  # atno 10167 bound_to 10162
  157.3676  131.0974  151.0858 H   0  0  0  0  0  0  0  0  0  0  0  0  # atno 10718 bound_to 10713
  154.4917  135.2779  155.1491 H   0  0  0  0  0  0  0  0  0  0  0  0  # atno 10763 bound_to 10752
  154.3161  135.6219  153.5490 H   0  0  0  0  0  0  0  0  0  0  0  0  # atno 10764 bound_to 10752
  152.9889  135.5731  154.5339 H   0  0  0  0  0  0  0  0  0  0  0  0  # atno 10765 bound_to 10752
  140.1959  134.8373  157.2964 H   0  0  0  0  0  0  0  0  0  0  0  0  # atno 11005 bound_to 11000
  145.8477  140.9546  143.0766 LP  0  0  0  0  0  0  0  0  0  0  0  0  # atno 17320 bound_to 7965
  144.6760  140.0366  143.7481 LP  0  0  0  0  0  0  0  0  0  0  0  0  # atno 17321 bound_to 7965
  139.8120  144.7332  150.9685 LP  0  0  0  0  0  0  0  0  0  0  0  0  # atno 17342 bound_to 10162
  140.7819  143.4242  151.0794 LP  0  0  0  0  0  0  0  0  0  0  0  0  # atno 17343 bound_to 10162
  157.1974  130.6379  149.5726 LP  0  0  0  0  0  0  0  0  0  0  0  0  # atno 17370 bound_to 10713
  155.9749  130.4702  150.6421 LP  0  0  0  0  0  0  0  0  0  0  0  0  # atno 17371 bound_to 10713
  140.2108  134.4141  155.7614 LP  0  0  0  0  0  0  0  0  0  0  0  0  # atno 17394 bound_to 11000
  141.2227  133.7117  156.8334 LP  0  0  0  0  0  0  0  0  0  0  0  0  # atno 17395 bound_to 11000

$$$$
