AV-unprocessed.smi:142|AV-procd|sdf|1190|dock9
  -GOLD-   2262018343D 1   1.00000     0.00000
 Structure written by MMmdl.
 52 55  0  0  0  0  0  0  0  0  1 V2000
  155.4264  138.3965  161.1863 C   0  0  0  0  0  0  0  0  0  0  0  0
  154.6899  139.5545  161.8730 C   0  0  1  0  0  0  0  0  0  0  0  0
  155.6622  140.4143  162.5441 N   0  0  0  0  0  0  0  0  0  0  0  0
  156.0643  140.2772  163.8166 C   0  0  0  0  0  0  0  0  0  0  0  0
  155.6924  139.3579  164.5472 O   0  0  0  0  0  0  0  0  0  0  0  0
  157.0344  141.3473  164.3366 C   0  0  0  0  0  0  0  0  0  0  0  0
  156.5957  141.9334  165.6215 N   0  0  0  0  0  0  0  0  0  0  0  0
  156.2575  143.3088  165.6714 C   0  0  0  0  0  0  0  0  0  0  0  0
  156.3145  144.0188  164.6663 O   0  0  0  0  0  0  0  0  0  0  0  0
  155.8485  143.8092  166.9789 C   0  0  0  0  0  0  0  0  0  0  0  0
  155.4903  145.0971  167.1162 F   0  0  0  0  0  0  0  0  0  0  0  0
  155.8200  142.9977  168.0560 C   0  0  0  0  0  0  0  0  0  0  0  0
  156.1727  141.6617  167.9968 N   0  0  0  0  0  0  0  0  0  0  0  0
  156.1350  140.7791  169.2253 C   0  0  2  0  0  0  0  0  0  0  0  0
  155.6901  141.5907  170.4470 C   0  0  0  0  0  0  0  0  0  0  0  0
  157.0172  142.0308  171.0257 C   0  0  0  0  0  0  0  0  0  0  0  0
  157.8976  140.8224  170.7272 C   0  0  0  0  0  0  0  0  0  0  0  0
  157.4235  140.3012  169.4877 O   0  0  0  0  0  0  0  0  0  0  0  0
  156.5634  141.0972  166.7634 C   0  0  0  0  0  0  0  0  0  0  0  0
  156.8677  139.9044  166.6847 O   0  0  0  0  0  0  0  0  0  0  0  0
  153.8123  140.3103  160.8790 C   0  0  0  0  0  0  0  0  0  0  0  0
  152.9612  139.6238  159.9826 C   0  0  0  0  0  0  0  0  0  0  0  0
  152.1607  140.3375  159.0709 C   0  0  0  0  0  0  0  0  0  0  0  0
  152.1982  141.7461  159.0490 C   0  0  0  0  0  0  0  0  0  0  0  0
  151.3993  142.4664  158.1372 C   0  0  0  0  0  0  0  0  0  0  0  0
  151.4411  143.8743  158.1219 C   0  0  0  0  0  0  0  0  0  0  0  0
  152.2804  144.5657  159.0169 C   0  0  0  0  0  0  0  0  0  0  0  0
  153.0805  143.8513  159.9299 C   0  0  0  0  0  0  0  0  0  0  0  0
  153.0429  142.4415  159.9496 C   0  0  0  0  0  0  0  0  0  0  0  0
  153.8425  141.7212  160.8604 C   0  0  0  0  0  0  0  0  0  0  0  0
  154.7216  137.7004  160.7309 H   0  0  0  0  0  0  0  0  0  0  0  0
  156.0287  137.8337  161.9003 H   0  0  0  0  0  0  0  0  0  0  0  0
  156.0908  138.7581  160.4006 H   0  0  0  0  0  0  0  0  0  0  0  0
  154.0412  139.1250  162.6391 H   0  0  0  0  0  0  0  0  0  0  0  0
  156.0233  141.1940  162.0140 H   0  0  0  0  0  0  0  0  0  0  0  0
  158.0263  140.8992  164.4081 H   0  0  0  0  0  0  0  0  0  0  0  0
  157.1509  142.1319  163.5866 H   0  0  0  0  0  0  0  0  0  0  0  0
  155.5031  143.4233  168.9964 H   0  0  0  0  0  0  0  0  0  0  0  0
  155.4758  139.9447  168.9800 H   0  0  0  0  0  0  0  0  0  0  0  0
  155.0234  142.4124  170.1832 H   0  0  0  0  0  0  0  0  0  0  0  0
  155.1738  140.9237  171.1386 H   0  0  0  0  0  0  0  0  0  0  0  0
  157.3872  142.9102  170.4969 H   0  0  0  0  0  0  0  0  0  0  0  0
  156.9647  142.2678  172.0885 H   0  0  0  0  0  0  0  0  0  0  0  0
  158.9566  141.0764  170.6757 H   0  0  0  0  0  0  0  0  0  0  0  0
  157.7679  140.0610  171.4972 H   0  0  0  0  0  0  0  0  0  0  0  0
  152.9166  138.5446  159.9869 H   0  0  0  0  0  0  0  0  0  0  0  0
  151.5188  139.7980  158.3898 H   0  0  0  0  0  0  0  0  0  0  0  0
  150.7527  141.9442  157.4470 H   0  0  0  0  0  0  0  0  0  0  0  0
  150.8288  144.4241  157.4225 H   0  0  0  0  0  0  0  0  0  0  0  0
  152.3111  145.6454  159.0034 H   0  0  0  0  0  0  0  0  0  0  0  0
  153.7223  144.3897  160.6122 H   0  0  0  0  0  0  0  0  0  0  0  0
  154.4865  142.2523  161.5467 H   0  0  0  0  0  0  0  0  0  0  0  0
  1  2  1  0  0  0  0
  1 31  1  0  0  0  0
  1 32  1  0  0  0  0
  1 33  1  0  0  0  0
  2  3  1  0  0  0  0
  2 21  1  0  0  0  0
  2 34  1  0  0  0  0
  3  4  1  0  0  0  0
  3 35  1  0  0  0  0
  4  5  2  0  0  0  0
  4  6  1  0  0  0  0
  6  7  1  0  0  0  0
  6 36  1  0  0  0  0
  6 37  1  0  0  0  0
  7 19  1  0  0  0  0
  7  8  1  0  0  0  0
  8  9  2  0  0  0  0
  8 10  1  0  0  0  0
 10 11  1  0  0  0  0
 10 12  2  0  0  0  0
 12 13  1  0  0  0  0
 12 38  1  0  0  0  0
 13 14  1  0  0  0  0
 13 19  1  0  0  0  0
 14 18  1  0  0  0  0
 14 15  1  0  0  0  0
 14 39  1  0  0  0  0
 15 16  1  0  0  0  0
 15 40  1  0  0  0  0
 15 41  1  0  0  0  0
 16 17  1  0  0  0  0
 16 42  1  0  0  0  0
 16 43  1  0  0  0  0
 17 18  1  0  0  0  0
 17 44  1  0  0  0  0
 17 45  1  0  0  0  0
 19 20  2  0  0  0  0
 21 30  1  0  0  0  0
 21 22  2  0  0  0  0
 22 23  1  0  0  0  0
 22 46  1  0  0  0  0
 23 24  2  0  0  0  0
 23 47  1  0  0  0  0
 24 29  1  0  0  0  0
 24 25  1  0  0  0  0
 25 26  2  0  0  0  0
 25 48  1  0  0  0  0
 26 27  1  0  0  0  0
 26 49  1  0  0  0  0
 27 28  2  0  0  0  0
 27 50  1  0  0  0  0
 28 29  1  0  0  0  0
 28 51  1  0  0  0  0
 29 30  2  0  0  0  0
 30 52  1  0  0  0  0
M  END
> <s_m_source_file>
AV-unprocessed.smi

> <i_m_source_file_index>
142

> <i_lp_mmshare_version>
43012

> <i_f3d_flags>
0

> <s_epik_input>
W2NIXTFbY0hdW2NIXVtjSF1jKGMxMilbY0hdYyhbY0hdW2NIXTIpW0NASF0oW0NIM10pW05IXUMoPU8pW0NIMl1uM2MoPU8pYyhGKVtjSF1uKGMzPU8pW0NAQEhdNFtDSDJdW0NIMl1bQ0gyXU80

> <s_epik_cmdline>
J2VwaWtfcHl0aG9uJywgJy1waCcsICc3LjAnLCAnLXRuJywgJzgnLCAnLW1hJywgJzIwMCcsICctbWV0YWxfYmluZGluZycsICctaW1hZScsICc8aW5maWxlLm1hZT4nLCAnLW9tYWUnLCAnPG91dGZpbGUubWFlPic=

> <r_lp_tautomer_probability>
1

> <r_epik_Ionization_Penalty>
3.35688e-08

> <r_epik_Ionization_Penalty_Charging>
3.59856e-09

> <r_epik_Ionization_Penalty_Neutral>
2.99702e-08

> <r_epik_State_Penalty>
-0

> <r_epik_Charging_Adjusted_Penalty>
3.59856e-09

> <i_epik_Tot_Q>
0

> <i_epik_Tot_abs_Q>
0

> <r_epik_Metal_State_Penalty>
-0

> <b_epik_Metal_Only>
0

> <s_epik_Chemistry_Notes>
This compound contains an acetal/aminal-like group ( X-CH(R)-Y where X, Y are N, S, or O) that may be acid/base labile, releasing an aldehyde.

> <s_lp_Force_Field>
OPLS_2005

> <r_lp_Energy>
30.4955

> <b_lp_Chiralities_Consistent>
1

> <s_lp_Variant>
AV-unprocessed.smi:142-2

> <Gold.Version>
5.8.1

> <Gold.Id.Protein>
6NUR|6NUR_protein|mol2

> <Gold.PLP.Fitness>
54.0623

> <Gold.PLP.PLP>
-55.4682

> <Gold.PLP.part.hbond>
-2.7193

> <Gold.PLP.part.metal>
0.0000

> <Gold.PLP.part.buried>
-5.7099

> <Gold.PLP.part.nonpolar>
-46.9673

> <Gold.PLP.part.repulsive>
0.1144

> <Gold.PLP.ligand.clash>
0.0087

> <Gold.PLP.ligand.torsion>
0.7326

> <Gold.PLP.Chemscore.Hbond>
0.0000

> <Gold.PLP.Chemscore.CHOScore>
0.0000

> <Gold.PLP.Chemscore.Metal>
0.0000

> <Gold.PLP.Chemscore.Internal.Correction>
0.0679

> <Gold.Rescore>
     Score         DG    S(hbond)    S(metal)    S(lipo)     H(rot)  DE(clash)    DE(int)     intcor
     10.49     -16.68       0.00        0.00     139.86       2.02       2.95       3.25       ----

> <Gold.Chemscore.Fitness>
10.4871

> <Gold.Chemscore.DG>
-16.6784

> <Gold.Chemscore.ZeroCoef>
-5.4800

> <Gold.Chemscore.Hbond>
0.0000

> <Gold.Chemscore.Metal>
0.0000

> <Gold.Chemscore.Lipo>
139.8570

> <Gold.Chemscore.Internal_Hbond>
0.0000

> <Gold.Chemscore.DEClash>
2.9452

> <Gold.Chemscore.DEInternal>
3.2462

> <Gold.Chemscore.Rot>
2.0175

> <Gold.Chemscore.Internal.Correction>
   9.000000E+99

> <Gold.Chemscore.Hbond.Weighted>
-0.0000

> <Gold.Chemscore.Metal.Weighted>
-0.0000

> <Gold.Chemscore.Lipo.Weighted>
-16.3633

> <Gold.Chemscore.Internal_Hbond.Weighted>
0.0000

> <Gold.Chemscore.DEClash.Weighted>
2.9452

> <Gold.Chemscore.DEInternal.Weighted>
3.2462

> <Gold.Chemscore.Rot.Weighted>
5.1648

> <Gold.Chemscore.Internal.Correction.Weighted>
   9.000000E+99

> <Gold.Protein.RotatedTorsions>
[ 6907 6896 6895 6894 ] final -158.67 input  -60.11 | X-H torsion
[ 7974 7965 7964 7962 ] final -175.76 input  175.53 | X-H torsion
[ 8008 7997 7996 7995 ] final -178.19 input   59.86 | X-H torsion
[ 10167 10162 10161 10158 ] final -125.87 input  -65.29 | X-H torsion
[ 10718 10713 10712 10709 ] final   64.47 input   66.30 | X-H torsion
[ 10763 10752 10751 10750 ] final   82.97 input  -60.55 | X-H torsion
[ 11005 11000 10999 10996 ] final  167.55 input  -57.11 | X-H torsion

> <Gold.Protein.ActiveResidues>
 VAL166  LYS551  ARG553  GLY616  TRP617  ASP618  TYR619  PRO620  LYS621  CYS622 
 ASP623  PHE694  ASN695  SER759  ASP760  ASP761  ALA762  ILE779  LEU786  VAL792 
 PHE793  MET794  SER795  GLU796  ALA797  LYS798  CYS799  TRP800  GLU811  SER814 

> <Gold.Protein.RotatedAtoms>
  151.3217  133.4037  159.2654 H   0  0  0  0  0  0  0  0  0  0  0  0  # atno 6907 bound_to 6896
  151.0029  134.9337  159.7974 H   0  0  0  0  0  0  0  0  0  0  0  0  # atno 6908 bound_to 6896
  152.5280  134.3182  159.9191 H   0  0  0  0  0  0  0  0  0  0  0  0  # atno 6909 bound_to 6896
  144.7127  140.1272  143.6401 H   0  0  0  0  0  0  0  0  0  0  0  0  # atno 7974 bound_to 7965
  156.0159  140.1250  157.0407 H   0  0  0  0  0  0  0  0  0  0  0  0  # atno 8008 bound_to 7997
  154.4293  140.1078  156.5964 H   0  0  0  0  0  0  0  0  0  0  0  0  # atno 8009 bound_to 7997
  155.6014  140.3470  155.4597 H   0  0  0  0  0  0  0  0  0  0  0  0  # atno 8010 bound_to 7997
  139.9775  143.5778  152.2390 H   0  0  0  0  0  0  0  0  0  0  0  0  # atno 10167 bound_to 10162
  157.6041  130.9161  149.9849 H   0  0  0  0  0  0  0  0  0  0  0  0  # atno 10718 bound_to 10713
  153.1249  135.4709  154.9256 H   0  0  0  0  0  0  0  0  0  0  0  0  # atno 10763 bound_to 10752
  154.7611  135.3131  154.8379 H   0  0  0  0  0  0  0  0  0  0  0  0  # atno 10764 bound_to 10752
  153.8935  135.6882  153.4813 H   0  0  0  0  0  0  0  0  0  0  0  0  # atno 10765 bound_to 10752
  140.2779  134.7774  157.3733 H   0  0  0  0  0  0  0  0  0  0  0  0  # atno 11005 bound_to 11000
  145.9318  139.2611  143.1320 LP  0  0  0  0  0  0  0  0  0  0  0  0  # atno 17320 bound_to 7965
  145.9514  140.8905  143.0257 LP  0  0  0  0  0  0  0  0  0  0  0  0  # atno 17321 bound_to 7965
  139.6434  144.7656  151.2292 LP  0  0  0  0  0  0  0  0  0  0  0  0  # atno 17342 bound_to 10162
  140.7500  143.6279  150.8451 LP  0  0  0  0  0  0  0  0  0  0  0  0  # atno 17343 bound_to 10162
  156.1123  130.3649  150.0028 LP  0  0  0  0  0  0  0  0  0  0  0  0  # atno 17370 bound_to 10713
  156.8124  130.9329  151.3644 LP  0  0  0  0  0  0  0  0  0  0  0  0  # atno 17371 bound_to 10713
  140.1311  134.5094  155.8105 LP  0  0  0  0  0  0  0  0  0  0  0  0  # atno 17394 bound_to 11000
  141.2167  133.6790  156.7040 LP  0  0  0  0  0  0  0  0  0  0  0  0  # atno 17395 bound_to 11000

$$$$
