AV-unprocessed.smi:2530|AV-procd|sdf|9962|dock2
  -GOLD-   2272014 03D 1   1.00000     0.00000
 Structure written by MMmdl.
 44 46  0  0  0  0  0  0  0  0  1 V2000
  152.0008  138.7794  155.2362 C   0  0  0  0  0  0  0  0  0  0  0  0
  150.7177  139.5460  154.9911 C   0  0  0  0  0  0  0  0  0  0  0  0
  150.5051  140.7912  155.6095 C   0  0  0  0  0  0  0  0  0  0  0  0
  149.3033  141.4873  155.3895 C   0  0  0  0  0  0  0  0  0  0  0  0
  148.2965  140.9500  154.5580 C   0  0  0  0  0  0  0  0  0  0  0  0
  147.0169  141.7523  154.3849 C   0  0  0  0  0  0  0  0  0  0  0  0
  148.5076  139.6921  153.9252 C   0  0  0  0  0  0  0  0  0  0  0  0
  147.4662  139.0037  153.0350 C   0  0  2  0  0  0  0  0  0  0  0  0
  146.9242  139.8452  152.0387 O   0  0  0  0  0  0  0  0  0  0  0  0
  146.3156  138.3204  153.8168 C   0  0  0  0  0  0  0  0  0  0  0  0
  145.9639  136.9942  153.2777 N   0  0  0  0  0  0  0  0  0  0  0  0
  145.5061  136.9474  151.9458 C   0  0  0  0  0  0  0  0  0  0  0  0
  145.1105  135.8419  151.4004 N   0  0  0  0  0  0  0  0  0  0  0  0
  145.1321  134.6523  152.1389 C   0  0  0  0  0  0  0  0  0  0  0  0
  144.6672  133.3634  151.4721 C   0  0  0  0  0  0  0  0  0  0  0  0
  145.7362  132.3204  151.0944 C   0  0  0  0  0  0  0  0  0  0  0  0
  144.9506  132.0880  149.7980 C   0  0  0  0  0  0  0  0  0  0  0  0
  144.3627  133.4933  149.9738 C   0  0  0  0  0  0  0  0  0  0  0  0
  145.6004  134.6421  153.4088 C   0  0  0  0  0  0  0  0  0  0  0  0
  146.0520  135.8750  154.0532 C   0  0  0  0  0  0  0  0  0  0  0  0
  146.4637  135.9046  155.2129 O   0  0  0  0  0  0  0  0  0  0  0  0
  149.7240  139.0080  154.1519 C   0  0  0  0  0  0  0  0  0  0  0  0
  152.8107  139.4518  155.5207 H   0  0  0  0  0  0  0  0  0  0  0  0
  152.3074  138.2422  154.3384 H   0  0  0  0  0  0  0  0  0  0  0  0
  151.8568  138.0553  156.0382 H   0  0  0  0  0  0  0  0  0  0  0  0
  151.2593  141.2145  156.2569 H   0  0  0  0  0  0  0  0  0  0  0  0
  149.1550  142.4416  155.8738 H   0  0  0  0  0  0  0  0  0  0  0  0
  146.9584  142.1681  153.3792 H   0  0  0  0  0  0  0  0  0  0  0  0
  146.9766  142.5859  155.0866 H   0  0  0  0  0  0  0  0  0  0  0  0
  146.1355  141.1400  154.5640 H   0  0  0  0  0  0  0  0  0  0  0  0
  147.9872  138.2243  152.4778 H   0  0  0  0  0  0  0  0  0  0  0  0
  147.6296  140.1457  151.4860 H   0  0  0  0  0  0  0  0  0  0  0  0
  146.5764  138.2427  154.8725 H   0  0  0  0  0  0  0  0  0  0  0  0
  145.4358  138.9662  153.8078 H   0  0  0  0  0  0  0  0  0  0  0  0
  145.4970  137.9017  151.4166 H   0  0  0  0  0  0  0  0  0  0  0  0
  143.8374  132.9002  152.0102 H   0  0  0  0  0  0  0  0  0  0  0  0
  146.7302  132.7239  150.8974 H   0  0  0  0  0  0  0  0  0  0  0  0
  145.7810  131.4559  151.7573 H   0  0  0  0  0  0  0  0  0  0  0  0
  145.5655  131.9586  148.9070 H   0  0  0  0  0  0  0  0  0  0  0  0
  144.2008  131.3007  149.8918 H   0  0  0  0  0  0  0  0  0  0  0  0
  143.3037  133.5799  149.7295 H   0  0  0  0  0  0  0  0  0  0  0  0
  144.9559  134.2628  149.4765 H   0  0  0  0  0  0  0  0  0  0  0  0
  145.6309  133.7166  153.9655 H   0  0  0  0  0  0  0  0  0  0  0  0
  149.8924  138.0455  153.6908 H   0  0  0  0  0  0  0  0  0  0  0  0
  1  2  1  0  0  0  0
  1 23  1  0  0  0  0
  1 24  1  0  0  0  0
  1 25  1  0  0  0  0
  2 22  1  0  0  0  0
  2  3  2  0  0  0  0
  3  4  1  0  0  0  0
  3 26  1  0  0  0  0
  4  5  2  0  0  0  0
  4 27  1  0  0  0  0
  5  6  1  0  0  0  0
  5  7  1  0  0  0  0
  6 28  1  0  0  0  0
  6 29  1  0  0  0  0
  6 30  1  0  0  0  0
  7  8  1  0  0  0  0
  7 22  2  0  0  0  0
  8  9  1  0  0  0  0
  8 10  1  0  0  0  0
  8 31  1  0  0  0  0
  9 32  1  0  0  0  0
 10 11  1  0  0  0  0
 10 33  1  0  0  0  0
 10 34  1  0  0  0  0
 11 20  1  0  0  0  0
 11 12  1  0  0  0  0
 12 13  2  0  0  0  0
 12 35  1  0  0  0  0
 13 14  1  0  0  0  0
 14 15  1  0  0  0  0
 14 19  2  0  0  0  0
 15 18  1  0  0  0  0
 15 16  1  0  0  0  0
 15 36  1  0  0  0  0
 16 17  1  0  0  0  0
 16 37  1  0  0  0  0
 16 38  1  0  0  0  0
 17 18  1  0  0  0  0
 17 39  1  0  0  0  0
 17 40  1  0  0  0  0
 18 41  1  0  0  0  0
 18 42  1  0  0  0  0
 19 20  1  0  0  0  0
 19 43  1  0  0  0  0
 20 21  2  0  0  0  0
 22 44  1  0  0  0  0
M  END
> <s_m_source_file>
AV-unprocessed.smi

> <i_m_source_file_index>
2530

> <i_lp_mmshare_version>
43012

> <i_f3d_flags>
0

> <s_epik_input>
W0NIM11jMVtjSF1bY0hdYyhbQ0gzXSljKFtjSF0xKVtDQEhdKFtPSF0pW0NIMl1uMltjSF1uYyhbY0hdYzI9TylbQ0hdM1tDSDJdW0NIMl1bQ0gyXTM=

> <s_epik_cmdline>
J2VwaWtfcHl0aG9uJywgJy1waCcsICc3LjAnLCAnLXRuJywgJzgnLCAnLW1hJywgJzIwMCcsICctbWV0YWxfYmluZGluZycsICctaW1hZScsICc8aW5maWxlLm1hZT4nLCAnLW9tYWUnLCAnPG91dGZpbGUubWFlPic=

> <r_lp_tautomer_probability>
1

> <r_epik_Ionization_Penalty>
2.57341e-05

> <r_epik_Ionization_Penalty_Charging>
5.39435e-08

> <r_epik_Ionization_Penalty_Neutral>
2.56801e-05

> <r_epik_State_Penalty>
-0

> <r_epik_Charging_Adjusted_Penalty>
5.39435e-08

> <i_epik_Tot_Q>
0

> <i_epik_Tot_abs_Q>
0

> <r_epik_Metal_State_Penalty>
-0

> <b_epik_Metal_Only>
0

> <s_lp_Force_Field>
OPLS_2005

> <r_lp_Energy>
27.4041

> <b_lp_Chiralities_Consistent>
1

> <s_lp_Variant>
AV-unprocessed.smi:2530-1

> <Gold.Version>
5.8.1

> <Gold.Id.Protein>
6NUR|6NUR_protein|mol2

> <Gold.PLP.Fitness>
42.7058

> <Gold.PLP.PLP>
-38.8664

> <Gold.PLP.part.hbond>
-1.1256

> <Gold.PLP.part.metal>
0.0000

> <Gold.PLP.part.buried>
-0.7665

> <Gold.PLP.part.nonpolar>
-36.5455

> <Gold.PLP.part.repulsive>
0.2493

> <Gold.PLP.ligand.clash>
0.0000

> <Gold.PLP.ligand.torsion>
1.0658

> <Gold.PLP.Chemscore.Hbond>
0.9120

> <Gold.PLP.Chemscore.CHOScore>
0.9279

> <Gold.PLP.Chemscore.Metal>
0.0000

> <Gold.Chemscore.Hbonds>
donor molecule, donor type, donor heavy atom, donor atom, acceptor molecule, acceptor atom, score
      L1  H     9    32       P1  7957  0.91
      L1  C    12    35       P1 10171  0.92

> <Gold.PLP.Chemscore.Internal.Correction>
0.4514

> <Gold.Rescore>
     Score         DG    S(hbond)    S(metal)    S(lipo)     H(rot)  DE(clash)    DE(int)     intcor
     14.48     -15.54       0.98        0.00     101.10       1.97       0.17       0.89       ----

> <Gold.Chemscore.Fitness>
14.4803

> <Gold.Chemscore.DG>
-15.5449

> <Gold.Chemscore.ZeroCoef>
-5.4800

> <Gold.Chemscore.Hbond>
0.9807

> <Gold.Chemscore.Metal>
0.0000

> <Gold.Chemscore.Lipo>
101.0989

> <Gold.Chemscore.Internal_Hbond>
0.0000

> <Gold.Chemscore.DEClash>
0.1716

> <Gold.Chemscore.DEInternal>
0.8930

> <Gold.Chemscore.Rot>
1.9684

> <Gold.Chemscore.Internal.Correction>
   9.000000E+99

> <Gold.Chemscore.Hbonds>
donor molecule, donor type, donor heavy atom, donor atom, acceptor molecule, acceptor atom, score
      L1  H     9    32       P1  7957  0.88

> <Gold.Chemscore.Hbond.Weighted>
-3.2755

> <Gold.Chemscore.Metal.Weighted>
-0.0000

> <Gold.Chemscore.Lipo.Weighted>
-11.8286

> <Gold.Chemscore.Internal_Hbond.Weighted>
0.0000

> <Gold.Chemscore.DEClash.Weighted>
0.1716

> <Gold.Chemscore.DEInternal.Weighted>
0.8930

> <Gold.Chemscore.Rot.Weighted>
5.0391

> <Gold.Chemscore.Internal.Correction.Weighted>
   9.000000E+99

> <Gold.Protein.RotatedTorsions>
[ 6907 6896 6895 6894 ] final  -73.54 input  -60.11 | X-H torsion
[ 7974 7965 7964 7962 ] final -109.91 input  175.53 | X-H torsion
[ 8008 7997 7996 7995 ] final  134.95 input   59.86 | X-H torsion
[ 10167 10162 10161 10158 ] final  -43.86 input  -65.29 | X-H torsion
[ 10718 10713 10712 10709 ] final  119.39 input   66.30 | X-H torsion
[ 10763 10752 10751 10750 ] final  137.00 input  -60.55 | X-H torsion
[ 11005 11000 10999 10996 ] final    5.46 input  -57.11 | X-H torsion

> <Gold.Protein.ActiveResidues>
 VAL166  LYS551  ARG553  GLY616  TRP617  ASP618  TYR619  PRO620  LYS621  CYS622 
 ASP623  PHE694  ASN695  SER759  ASP760  ASP761  ALA762  ILE779  LEU786  VAL792 
 PHE793  MET794  SER795  GLU796  ALA797  LYS798  CYS799  TRP800  GLU811  SER814 

> <Gold.Protein.RotatedAtoms>
  150.7126  134.5001  159.5556 H   0  0  0  0  0  0  0  0  0  0  0  0  # atno 6907 bound_to 6896
  152.2600  134.8041  160.0441 H   0  0  0  0  0  0  0  0  0  0  0  0  # atno 6908 bound_to 6896
  151.8758  133.3450  159.3787 H   0  0  0  0  0  0  0  0  0  0  0  0  # atno 6909 bound_to 6896
  145.1747  140.8943  143.3514 H   0  0  0  0  0  0  0  0  0  0  0  0  # atno 7974 bound_to 7965
  156.3001  140.2483  156.3501 H   0  0  0  0  0  0  0  0  0  0  0  0  # atno 8008 bound_to 7997
  154.8974  140.0407  157.1893 H   0  0  0  0  0  0  0  0  0  0  0  0  # atno 8009 bound_to 7997
  154.8536  140.2909  155.5587 H   0  0  0  0  0  0  0  0  0  0  0  0  # atno 8010 bound_to 7997
  140.6918  143.2960  151.3413 H   0  0  0  0  0  0  0  0  0  0  0  0  # atno 10167 bound_to 10162
  157.5965  131.1057  150.7889 H   0  0  0  0  0  0  0  0  0  0  0  0  # atno 10718 bound_to 10713
  153.8659  135.3062  155.3440 H   0  0  0  0  0  0  0  0  0  0  0  0  # atno 10763 bound_to 10752
  154.7828  135.4826  153.9884 H   0  0  0  0  0  0  0  0  0  0  0  0  # atno 10764 bound_to 10752
  153.1435  135.6829  153.9086 H   0  0  0  0  0  0  0  0  0  0  0  0  # atno 10765 bound_to 10752
  140.5704  134.0108  155.8006 H   0  0  0  0  0  0  0  0  0  0  0  0  # atno 11005 bound_to 11000
  145.0197  139.3435  143.6079 LP  0  0  0  0  0  0  0  0  0  0  0  0  # atno 17320 bound_to 7965
  146.3463  139.9492  142.8731 LP  0  0  0  0  0  0  0  0  0  0  0  0  # atno 17321 bound_to 7965
  139.6329  144.0685  152.2492 LP  0  0  0  0  0  0  0  0  0  0  0  0  # atno 17342 bound_to 10162
  140.0166  144.6184  150.7602 LP  0  0  0  0  0  0  0  0  0  0  0  0  # atno 17343 bound_to 10162
  156.8299  130.5012  149.5333 LP  0  0  0  0  0  0  0  0  0  0  0  0  # atno 17370 bound_to 10713
  156.1029  130.5982  150.9923 LP  0  0  0  0  0  0  0  0  0  0  0  0  # atno 17371 bound_to 10713
  141.1059  133.9693  157.2997 LP  0  0  0  0  0  0  0  0  0  0  0  0  # atno 17394 bound_to 11000
  139.9364  135.0196  156.8571 LP  0  0  0  0  0  0  0  0  0  0  0  0  # atno 17395 bound_to 11000

$$$$
