AV-unprocessed.smi:53|AV-procd|sdf|519|dock5
  -GOLD-   2262016393D 1   1.00000     0.00000
 Structure written by MMmdl.
 30 31  0  0  0  0  0  0  0  0  1 V2000
  154.1874  138.2787  155.1045 N   0  0  0  0  0  0  0  0  0  0  0  0
  152.8691  138.5205  155.1039 C   0  0  0  0  0  0  0  0  0  0  0  0
  151.9602  137.6082  154.4475 C   0  0  0  0  0  0  0  0  0  0  0  0
  150.6459  137.9189  154.4896 C   0  0  0  0  0  0  0  0  0  0  0  0
  150.1757  139.0578  155.1311 N   0  0  0  0  0  0  0  0  0  0  0  0
  148.6997  139.4105  155.1761 C   0  0  2  0  0  0  0  0  0  0  0  0
  147.9438  138.3374  154.6920 O   0  0  0  0  0  0  0  0  0  0  0  0
  147.3991  138.6552  153.4139 C   0  0  1  0  0  0  0  0  0  0  0  0
  146.1457  137.8049  153.1578 C   0  0  0  0  0  0  0  0  0  0  0  0
  146.5158  136.5367  152.6599 O   0  0  0  0  0  0  0  0  0  0  0  0
  147.1113  140.1480  153.5656 C   0  0  2  0  0  0  0  0  0  0  0  0
  146.8980  140.8029  152.3289 O   0  0  0  0  0  0  0  0  0  0  0  0
  148.3422  140.6471  154.3159 C   0  0  2  0  0  0  0  0  0  0  0  0
  149.3793  141.0446  153.4304 O   0  0  0  0  0  0  0  0  0  0  0  0
  151.0922  139.9333  155.7613 C   0  0  0  0  0  0  0  0  0  0  0  0
  150.7188  140.9608  156.3263 O   0  0  0  0  0  0  0  0  0  0  0  0
  152.4192  139.6020  155.7099 N   0  0  0  0  0  0  0  0  0  0  0  0
  148.4522  139.5297  156.2327 H   0  0  0  0  0  0  0  0  0  0  0  0
  148.1479  138.5035  152.6341 H   0  0  0  0  0  0  0  0  0  0  0  0
  146.2307  140.2869  154.1949 H   0  0  0  0  0  0  0  0  0  0  0  0
  148.1019  141.4887  154.9663 H   0  0  0  0  0  0  0  0  0  0  0  0
  154.8193  138.9188  155.5635 H   0  0  0  0  0  0  0  0  0  0  0  0
  154.5464  137.4549  154.6440 H   0  0  0  0  0  0  0  0  0  0  0  0
  152.2827  136.7114  153.9379 H   0  0  0  0  0  0  0  0  0  0  0  0
  149.9634  137.2415  153.9996 H   0  0  0  0  0  0  0  0  0  0  0  0
  145.5457  137.6989  154.0622 H   0  0  0  0  0  0  0  0  0  0  0  0
  145.5162  138.2800  152.4048 H   0  0  0  0  0  0  0  0  0  0  0  0
  147.4579  136.4666  152.6864 H   0  0  0  0  0  0  0  0  0  0  0  0
  147.6373  140.6290  151.7666 H   0  0  0  0  0  0  0  0  0  0  0  0
  149.5185  140.3492  152.8051 H   0  0  0  0  0  0  0  0  0  0  0  0
  1  2  1  0  0  0  0
  1 22  1  0  0  0  0
  1 23  1  0  0  0  0
  2 17  2  0  0  0  0
  2  3  1  0  0  0  0
  3  4  2  0  0  0  0
  3 24  1  0  0  0  0
  4  5  1  0  0  0  0
  4 25  1  0  0  0  0
  5  6  1  0  0  0  0
  5 15  1  0  0  0  0
  6 18  1  0  0  0  0
  6 13  1  0  0  0  0
  6  7  1  0  0  0  0
  7  8  1  0  0  0  0
  8 19  1  0  0  0  0
  8  9  1  0  0  0  0
  8 11  1  0  0  0  0
  9 10  1  0  0  0  0
  9 26  1  0  0  0  0
  9 27  1  0  0  0  0
 10 28  1  0  0  0  0
 11 20  1  0  0  0  0
 11 12  1  0  0  0  0
 11 13  1  0  0  0  0
 12 29  1  0  0  0  0
 13 21  1  0  0  0  0
 13 14  1  0  0  0  0
 14 30  1  0  0  0  0
 15 16  2  0  0  0  0
 15 17  1  0  0  0  0
M  END
> <s_m_source_file>
AV-unprocessed.smi

> <i_m_source_file_index>
53

> <i_lp_mmshare_version>
43012

> <i_f3d_flags>
0

> <s_epik_input>
W05IMl1jMVtjSF1bY0hdbihjKD1PKW4xKVtDQEBIXTJPW0NASF0oW0NIMl1bT0hdKVtDQEBIXShbT0hdKVtDQEBIXTJbT0hd

> <s_epik_cmdline>
J2VwaWtfcHl0aG9uJywgJy1waCcsICc3LjAnLCAnLXRuJywgJzgnLCAnLW1hJywgJzIwMCcsICctbWV0YWxfYmluZGluZycsICctaW1hZScsICc8aW5maWxlLm1hZT4nLCAnLW9tYWUnLCAnPG91dGZpbGUubWFlPic=

> <r_lp_tautomer_probability>
0.99996

> <r_epik_Ionization_Penalty>
0.00069087

> <r_epik_Ionization_Penalty_Charging>
2.61959e-08

> <r_epik_Ionization_Penalty_Neutral>
0.000690844

> <r_epik_State_Penalty>
1.15523e-05

> <r_epik_Charging_Adjusted_Penalty>
1.15785e-05

> <i_epik_Tot_Q>
0

> <i_epik_Tot_abs_Q>
0

> <r_epik_Metal_State_Penalty>
-0

> <b_epik_Metal_Only>
0

> <s_epik_Chemistry_Notes>
This compound contains an acetal/aminal-like group ( X-CH(R)-Y where X, Y are N, S, or O) that may be acid/base labile, releasing an aldehyde.

> <s_lp_Force_Field>
OPLS_2005

> <r_lp_Energy>
37.6577

> <b_lp_Chiralities_Consistent>
1

> <s_lp_Variant>
AV-unprocessed.smi:53-7

> <Gold.Version>
5.8.1

> <Gold.Id.Protein>
6NUR|6NUR_protein|mol2

> <Gold.PLP.Fitness>
41.6809

> <Gold.PLP.PLP>
-26.0916

> <Gold.PLP.part.hbond>
-6.4563

> <Gold.PLP.part.metal>
0.0000

> <Gold.PLP.part.buried>
-0.5940

> <Gold.PLP.part.nonpolar>
-21.5414

> <Gold.PLP.part.repulsive>
1.8902

> <Gold.PLP.ligand.clash>
0.0000

> <Gold.PLP.ligand.torsion>
0.3662

> <Gold.PLP.Chemscore.Hbond>
4.3855

> <Gold.PLP.Chemscore.CHOScore>
1.0259

> <Gold.PLP.Chemscore.Metal>
0.0000

> <Gold.Chemscore.Hbonds>
donor molecule, donor type, donor heavy atom, donor atom, acceptor molecule, acceptor atom, score
      L1  H    10    28       P1  7948  0.98
      L1  H    12    29       P1  7957  0.81
      L1  H    14    30       P1  7957  0.85
      P1  H  7997  8009       L1    17  0.41
      P1  H  8011  8017       L1    14  0.85
      L1  C     4    25       P1  7948  0.99

> <Gold.PLP.Chemscore.Internal.Correction>
0.0875

> <Gold.Rescore>
     Score         DG    S(hbond)    S(metal)    S(lipo)     H(rot)  DE(clash)    DE(int)     intcor
      9.63     -12.25       3.45        0.00      40.64       3.71       2.15       0.47       ----

> <Gold.Chemscore.Fitness>
9.6275

> <Gold.Chemscore.DG>
-12.2518

> <Gold.Chemscore.ZeroCoef>
-5.4800

> <Gold.Chemscore.Hbond>
3.4469

> <Gold.Chemscore.Metal>
0.0000

> <Gold.Chemscore.Lipo>
40.6443

> <Gold.Chemscore.Internal_Hbond>
0.0000

> <Gold.Chemscore.DEClash>
2.1550

> <Gold.Chemscore.DEInternal>
0.4693

> <Gold.Chemscore.Rot>
3.7095

> <Gold.Chemscore.Internal.Correction>
   9.000000E+99

> <Gold.Chemscore.Hbonds>
donor molecule, donor type, donor heavy atom, donor atom, acceptor molecule, acceptor atom, score
      L1  H    10    28       P1  7948  0.93
      L1  H    12    29       P1  7957  0.78
      L1  H    14    30       P1  7957  0.83
      P1  H  7997  8009       L1    17  0.01
      P1  H  8011  8017       L1    14  0.14

> <Gold.Chemscore.Hbond.Weighted>
-11.5128

> <Gold.Chemscore.Metal.Weighted>
-0.0000

> <Gold.Chemscore.Lipo.Weighted>
-4.7554

> <Gold.Chemscore.Internal_Hbond.Weighted>
0.0000

> <Gold.Chemscore.DEClash.Weighted>
2.1550

> <Gold.Chemscore.DEInternal.Weighted>
0.4693

> <Gold.Chemscore.Rot.Weighted>
9.4964

> <Gold.Chemscore.Internal.Correction.Weighted>
   9.000000E+99

> <Gold.Protein.RotatedTorsions>
[ 6907 6896 6895 6894 ] final  -14.39 input  -60.11 | X-H torsion
[ 7974 7965 7964 7962 ] final   65.24 input  175.53 | X-H torsion
[ 8008 7997 7996 7995 ] final -145.91 input   59.86 | X-H torsion
[ 10167 10162 10161 10158 ] final  147.38 input  -65.29 | X-H torsion
[ 10718 10713 10712 10709 ] final  -81.83 input   66.30 | X-H torsion
[ 10763 10752 10751 10750 ] final  -37.44 input  -60.55 | X-H torsion
[ 11005 11000 10999 10996 ] final   15.02 input  -57.11 | X-H torsion

> <Gold.Protein.ActiveResidues>
 VAL166  LYS551  ARG553  GLY616  TRP617  ASP618  TYR619  PRO620  LYS621  CYS622 
 ASP623  PHE694  ASN695  SER759  ASP760  ASP761  ALA762  ILE779  LEU786  VAL792 
 PHE793  MET794  SER795  GLU796  ALA797  LYS798  CYS799  TRP800  GLU811  SER814 

> <Gold.Protein.RotatedAtoms>
  151.3401  135.0861  159.9367 H   0  0  0  0  0  0  0  0  0  0  0  0  # atno 6907 bound_to 6896
  152.5213  133.9456  159.7658 H   0  0  0  0  0  0  0  0  0  0  0  0  # atno 6908 bound_to 6896
  150.9811  133.6191  159.2752 H   0  0  0  0  0  0  0  0  0  0  0  0  # atno 6909 bound_to 6896
  145.8408  139.3194  143.0933 H   0  0  0  0  0  0  0  0  0  0  0  0  # atno 7974 bound_to 7965
  155.5508  140.0616  157.2850 H   0  0  0  0  0  0  0  0  0  0  0  0  # atno 8008 bound_to 7997
  154.4421  140.1903  156.0729 H   0  0  0  0  0  0  0  0  0  0  0  0  # atno 8009 bound_to 7997
  156.0517  140.3283  155.7363 H   0  0  0  0  0  0  0  0  0  0  0  0  # atno 8010 bound_to 7997
  139.4891  144.5759  151.6965 H   0  0  0  0  0  0  0  0  0  0  0  0  # atno 10167 bound_to 10162
  156.0043  130.4616  150.4013 H   0  0  0  0  0  0  0  0  0  0  0  0  # atno 10718 bound_to 10713
  153.8964  135.6807  153.4757 H   0  0  0  0  0  0  0  0  0  0  0  0  # atno 10763 bound_to 10752
  153.1153  135.4764  154.9102 H   0  0  0  0  0  0  0  0  0  0  0  0  # atno 10764 bound_to 10752
  154.7597  135.3207  154.8355 H   0  0  0  0  0  0  0  0  0  0  0  0  # atno 10765 bound_to 10752
  140.4630  134.1108  155.7719 H   0  0  0  0  0  0  0  0  0  0  0  0  # atno 11005 bound_to 11000
  145.9467  140.8939  143.0280 LP  0  0  0  0  0  0  0  0  0  0  0  0  # atno 17320 bound_to 7965
  144.6734  140.1624  143.7421 LP  0  0  0  0  0  0  0  0  0  0  0  0  # atno 17321 bound_to 7965
  140.5356  144.0662  150.6069 LP  0  0  0  0  0  0  0  0  0  0  0  0  # atno 17342 bound_to 10162
  140.3666  143.2878  152.0324 LP  0  0  0  0  0  0  0  0  0  0  0  0  # atno 17343 bound_to 10162
  157.2081  131.0454  151.2614 LP  0  0  0  0  0  0  0  0  0  0  0  0  # atno 17370 bound_to 10713
  157.3913  130.7284  149.6700 LP  0  0  0  0  0  0  0  0  0  0  0  0  # atno 17371 bound_to 10713
  141.1613  133.8788  157.1841 LP  0  0  0  0  0  0  0  0  0  0  0  0  # atno 17394 bound_to 11000
  139.9933  135.0056  157.0026 LP  0  0  0  0  0  0  0  0  0  0  0  0  # atno 17395 bound_to 11000

$$$$
