AV-unprocessed.smi:2032|AV-procd|sdf|8251|dock9
  -GOLD-   2272010523D 1   1.00000     0.00000
 Structure written by MMmdl.
 42 43  0  0  0  0  0  0  0  0  3 V2000
  152.2737  139.3195  154.1102 C   0  0  0  0  0  0  0  0  0  0  0  0
  151.0412  138.4107  154.0428 C   0  0  2  0  0  0  0  0  0  0  0  0
  149.7695  139.1904  153.6688 C   0  0  0  0  0  0  0  0  0  0  0  0
  148.5783  138.3012  153.6759 N   0  3  2  0  0  0  0  0  0  0  0  0
  147.3522  138.9895  153.1572 C   0  0  2  0  0  0  0  0  0  0  0  0
  147.0040  140.2977  153.9083 C   0  0  0  0  0  0  0  0  0  0  0  0
  146.1462  138.0148  153.1925 C   0  0  0  0  0  0  0  0  0  0  0  0
  146.4754  136.6859  152.6867 N   0  0  0  0  0  0  0  0  0  0  0  0
  145.6047  135.6826  152.5077 C   0  0  0  0  0  0  0  0  0  0  0  0
  144.4097  135.8546  152.7598 O   0  0  0  0  0  0  0  0  0  0  0  0
  146.1744  134.5433  152.0558 N   0  5  0  0  0  0  0  0  0  0  0  0
  145.4087  133.5696  151.5370 C   0  0  0  0  0  0  0  0  0  0  0  0
  145.8096  132.7848  150.5304 N   0  0  0  0  0  0  0  0  0  0  0  0
  144.8576  131.8358  150.1531 C   0  0  0  0  0  0  0  0  0  0  0  0
  143.7082  131.8939  150.8957 C   0  0  0  0  0  0  0  0  0  0  0  0
  143.7877  133.1497  152.0983 S   0  0  0  0  0  0  0  0  0  0  0  0
  148.4509  137.6597  155.0130 C   0  0  0  0  0  0  0  0  0  0  0  0
  149.7503  136.9372  155.4238 C   0  0  1  0  0  0  0  0  0  0  0  0
  149.9835  135.6160  154.6690 C   0  0  0  0  0  0  0  0  0  0  0  0
  150.8674  137.8176  155.3250 O   0  0  0  0  0  0  0  0  0  0  0  0
  152.4590  139.8017  153.1500 H   0  0  0  0  0  0  0  0  0  0  0  0
  153.1651  138.7489  154.3724 H   0  0  0  0  0  0  0  0  0  0  0  0
  152.1473  140.1023  154.8589 H   0  0  0  0  0  0  0  0  0  0  0  0
  151.2322  137.6384  153.2975 H   0  0  0  0  0  0  0  0  0  0  0  0
  149.6125  140.0103  154.3719 H   0  0  0  0  0  0  0  0  0  0  0  0
  149.9119  139.6442  152.6895 H   0  0  0  0  0  0  0  0  0  0  0  0
  147.5503  139.2716  152.1218 H   0  0  0  0  0  0  0  0  0  0  0  0
  146.0973  140.7574  153.5148 H   0  0  0  0  0  0  0  0  0  0  0  0
  147.7848  141.0507  153.8016 H   0  0  0  0  0  0  0  0  0  0  0  0
  146.8419  140.1176  154.9714 H   0  0  0  0  0  0  0  0  0  0  0  0
  145.7361  137.9049  154.1958 H   0  0  0  0  0  0  0  0  0  0  0  0
  145.3359  138.4119  152.5807 H   0  0  0  0  0  0  0  0  0  0  0  0
  147.4433  136.5050  152.4632 H   0  0  0  0  0  0  0  0  0  0  0  0
  145.0836  131.1568  149.3444 H   0  0  0  0  0  0  0  0  0  0  0  0
  142.8255  131.2784  150.8108 H   0  0  0  0  0  0  0  0  0  0  0  0
  148.2049  138.4244  155.7515 H   0  0  0  0  0  0  0  0  0  0  0  0
  147.6443  136.9272  155.0259 H   0  0  0  0  0  0  0  0  0  0  0  0
  149.6650  136.6815  156.4804 H   0  0  0  0  0  0  0  0  0  0  0  0
  149.1838  134.9052  154.8790 H   0  0  0  0  0  0  0  0  0  0  0  0
  150.9222  135.1539  154.9753 H   0  0  0  0  0  0  0  0  0  0  0  0
  150.0153  135.7555  153.5887 H   0  0  0  0  0  0  0  0  0  0  0  0
  148.7676  137.5495  153.0284 H   0  0  0  0  0  0  0  0  0  0  0  0
  1  2  1  0  0  0  0
  1 21  1  0  0  0  0
  1 22  1  0  0  0  0
  1 23  1  0  0  0  0
  2 20  1  0  0  0  0
  2  3  1  0  0  0  0
  2 24  1  0  0  0  0
  3  4  1  0  0  0  0
  3 25  1  0  0  0  0
  3 26  1  0  0  0  0
  4  5  1  0  0  0  0
  4 17  1  0  0  0  0
  4 42  1  0  0  0  0
  5  6  1  0  0  0  0
  5  7  1  0  0  0  0
  5 27  1  0  0  0  0
  6 28  1  0  0  0  0
  6 29  1  0  0  0  0
  6 30  1  0  0  0  0
  7  8  1  0  0  0  0
  7 31  1  0  0  0  0
  7 32  1  0  0  0  0
  8  9  1  0  0  0  0
  8 33  1  0  0  0  0
  9 10  2  0  0  0  0
  9 11  1  0  0  0  0
 11 12  1  0  0  0  0
 12 16  1  0  0  0  0
 12 13  2  0  0  0  0
 13 14  1  0  0  0  0
 14 15  2  0  0  0  0
 14 34  1  0  0  0  0
 15 16  1  0  0  0  0
 15 35  1  0  0  0  0
 17 18  1  0  0  0  0
 17 36  1  0  0  0  0
 17 37  1  0  0  0  0
 18 19  1  0  0  0  0
 18 20  1  0  0  0  0
 18 38  1  0  0  0  0
 19 39  1  0  0  0  0
 19 40  1  0  0  0  0
 19 41  1  0  0  0  0
M  CHG  1   4   1
M  CHG  1  11  -1
M  END
> <s_m_source_file>
AV-unprocessed.smi

> <i_m_source_file_index>
2032

> <i_lp_mmshare_version>
43012

> <i_f3d_flags>
0

> <s_epik_input>
W0NIM11bQ0BASF0xW0NIMl1OKFtDSDJdW0NASF0oTzEpW0NIM10pW0NASF0oW0NIM10pW0NIMl1bTkhdQyg9TylbTkhdYzJuW2NIXVtjSF1zMg==

> <s_epik_cmdline>
J2VwaWtfcHl0aG9uJywgJy1waCcsICc3LjAnLCAnLXRuJywgJzgnLCAnLW1hJywgJzIwMCcsICctbWV0YWxfYmluZGluZycsICctaW1hZScsICc8aW5maWxlLm1hZT4nLCAnLW9tYWUnLCAnPG91dGZpbGUubWFlPic=

> <r_lp_tautomer_probability>
0.999

> <r_epik_Ionization_Penalty>
6.71699

> <r_epik_Ionization_Penalty_Charging>
5.88592

> <r_epik_Ionization_Penalty_Neutral>
0.831074

> <r_epik_State_Penalty>
6.08365

> <r_epik_Charging_Adjusted_Penalty>
11.9696

> <i_epik_Tot_Q>
0

> <i_epik_Tot_abs_Q>
2

> <r_epik_Metal_State_Penalty>
2.0947

> <b_epik_Metal_Only>
1

> <s_lp_Force_Field>
OPLS_2005

> <r_lp_Energy>
13.7972

> <b_lp_Chiralities_Consistent>
1

> <s_lp_Variant>
AV-unprocessed.smi:2032-21

> <Gold.Version>
5.8.1

> <Gold.Id.Protein>
6NUR|6NUR_protein|mol2

> <Gold.PLP.Fitness>
43.9084

> <Gold.PLP.PLP>
-32.7124

> <Gold.PLP.part.hbond>
-2.0000

> <Gold.PLP.part.metal>
0.0000

> <Gold.PLP.part.buried>
-4.8790

> <Gold.PLP.part.nonpolar>
-26.8151

> <Gold.PLP.part.repulsive>
0.8435

> <Gold.PLP.ligand.clash>
0.0000

> <Gold.PLP.ligand.torsion>
0.4370

> <Gold.PLP.Chemscore.Hbond>
3.0000

> <Gold.PLP.Chemscore.CHOScore>
1.0000

> <Gold.PLP.Chemscore.Metal>
0.0000

> <Gold.Chemscore.Hbonds>
donor molecule, donor type, donor heavy atom, donor atom, acceptor molecule, acceptor atom, score
      L1  H     4    42       P1  7948  2.00
      L1  H     8    33       P1  7948  1.00
      L1  C    15    35       P1 10952  0.94

> <Gold.PLP.Chemscore.Internal.Correction>
0.0698

> <Gold.Rescore>
     Score         DG    S(hbond)    S(metal)    S(lipo)     H(rot)  DE(clash)    DE(int)     intcor
     15.07     -16.91       1.99        0.00      75.49       1.58       0.05       1.79       ----

> <Gold.Chemscore.Fitness>
15.0679

> <Gold.Chemscore.DG>
-16.9074

> <Gold.Chemscore.ZeroCoef>
-5.4800

> <Gold.Chemscore.Hbond>
1.9872

> <Gold.Chemscore.Metal>
0.0000

> <Gold.Chemscore.Lipo>
75.4917

> <Gold.Chemscore.Internal_Hbond>
0.0000

> <Gold.Chemscore.DEClash>
0.0490

> <Gold.Chemscore.DEInternal>
1.7906

> <Gold.Chemscore.Rot>
1.5791

> <Gold.Chemscore.Internal.Correction>
   9.000000E+99

> <Gold.Chemscore.Hbonds>
donor molecule, donor type, donor heavy atom, donor atom, acceptor molecule, acceptor atom, score
      L1  H     4    42       P1  7948  1.00
      L1  H     8    33       P1  7948  1.00

> <Gold.Chemscore.Hbond.Weighted>
-6.6374

> <Gold.Chemscore.Metal.Weighted>
-0.0000

> <Gold.Chemscore.Lipo.Weighted>
-8.8325

> <Gold.Chemscore.Internal_Hbond.Weighted>
0.0000

> <Gold.Chemscore.DEClash.Weighted>
0.0490

> <Gold.Chemscore.DEInternal.Weighted>
1.7906

> <Gold.Chemscore.Rot.Weighted>
4.0425

> <Gold.Chemscore.Internal.Correction.Weighted>
   9.000000E+99

> <Gold.Protein.RotatedTorsions>
[ 6907 6896 6895 6894 ] final  -55.61 input  -60.11 | X-H torsion
[ 7974 7965 7964 7962 ] final   82.17 input  175.53 | X-H torsion
[ 8008 7997 7996 7995 ] final   48.35 input   59.86 | X-H torsion
[ 10167 10162 10161 10158 ] final   77.59 input  -65.29 | X-H torsion
[ 10718 10713 10712 10709 ] final  -13.97 input   66.30 | X-H torsion
[ 10763 10752 10751 10750 ] final  -39.47 input  -60.55 | X-H torsion
[ 11005 11000 10999 10996 ] final  -14.49 input  -57.11 | X-H torsion

> <Gold.Protein.ActiveResidues>
 VAL166  LYS551  ARG553  GLY616  TRP617  ASP618  TYR619  PRO620  LYS621  CYS622 
 ASP623  PHE694  ASN695  SER759  ASP760  ASP761  ALA762  ILE779  LEU786  VAL792 
 PHE793  MET794  SER795  GLU796  ALA797  LYS798  CYS799  TRP800  GLU811  SER814 

> <Gold.Protein.RotatedAtoms>
  150.8237  134.7457  159.6793 H   0  0  0  0  0  0  0  0  0  0  0  0  # atno 6907 bound_to 6896
  152.4350  134.5701  159.9928 H   0  0  0  0  0  0  0  0  0  0  0  0  # atno 6908 bound_to 6896
  151.5878  133.3332  159.3057 H   0  0  0  0  0  0  0  0  0  0  0  0  # atno 6909 bound_to 6896
  145.6285  139.2400  143.2098 H   0  0  0  0  0  0  0  0  0  0  0  0  # atno 7974 bound_to 7965
  155.3842  140.3430  155.4248 H   0  0  0  0  0  0  0  0  0  0  0  0  # atno 8008 bound_to 7997
  156.1593  140.1595  156.8672 H   0  0  0  0  0  0  0  0  0  0  0  0  # atno 8009 bound_to 7997
  154.5124  140.0786  156.7998 H   0  0  0  0  0  0  0  0  0  0  0  0  # atno 8010 bound_to 7997
  139.9799  144.5834  150.7910 H   0  0  0  0  0  0  0  0  0  0  0  0  # atno 10167 bound_to 10162
  156.6226  130.4879  149.6159 H   0  0  0  0  0  0  0  0  0  0  0  0  # atno 10718 bound_to 10713
  153.9299  135.6773  153.4746 H   0  0  0  0  0  0  0  0  0  0  0  0  # atno 10763 bound_to 10752
  153.0985  135.4839  154.8820 H   0  0  0  0  0  0  0  0  0  0  0  0  # atno 10764 bound_to 10752
  154.7433  135.3166  154.8646 H   0  0  0  0  0  0  0  0  0  0  0  0  # atno 10765 bound_to 10752
  140.7869  133.8318  155.9343 H   0  0  0  0  0  0  0  0  0  0  0  0  # atno 11005 bound_to 11000
  146.1375  140.7103  142.9383 LP  0  0  0  0  0  0  0  0  0  0  0  0  # atno 17320 bound_to 7965
  144.7203  140.4349  143.7013 LP  0  0  0  0  0  0  0  0  0  0  0  0  # atno 17321 bound_to 7965
  140.7492  143.2936  151.3265 LP  0  0  0  0  0  0  0  0  0  0  0  0  # atno 17342 bound_to 10162
  139.6417  144.0526  152.2560 LP  0  0  0  0  0  0  0  0  0  0  0  0  # atno 17343 bound_to 10162
  156.2299  130.6788  151.1453 LP  0  0  0  0  0  0  0  0  0  0  0  0  # atno 17370 bound_to 10713
  157.7223  131.0673  150.6083 LP  0  0  0  0  0  0  0  0  0  0  0  0  # atno 17371 bound_to 10713
  140.9428  134.1879  157.4785 LP  0  0  0  0  0  0  0  0  0  0  0  0  # atno 17394 bound_to 11000
  139.8735  134.9878  156.5386 LP  0  0  0  0  0  0  0  0  0  0  0  0  # atno 17395 bound_to 11000

$$$$
