AV-unprocessed.smi:3018|AV-procd|sdf|11481|dock4
  -GOLD-   2272016423D 1   1.00000     0.00000
 Structure written by MMmdl.
 44 45  0  0  0  0  0  0  0  0  2 V2000
  148.5290  140.4953  154.3618 C   0  0  0  0  0  0  0  0  0  0  0  0
  149.7710  140.2679  155.2330 C   0  0  0  0  0  0  0  0  0  0  0  0
  149.9046  141.3127  156.3568 C   0  0  2  0  0  0  0  0  0  0  0  0
  151.0141  140.9411  157.1720 O   0  0  0  0  0  0  0  0  0  0  0  0
  151.3045  141.8015  158.2704 C   0  0  0  0  0  0  0  0  0  0  0  0
  151.5464  143.2362  157.7603 C   0  0  0  0  0  0  0  0  0  0  0  0
  151.9930  144.1668  158.8991 C   0  0  0  0  0  0  0  0  0  0  0  0
  153.2345  143.6166  159.6196 C   0  0  0  0  0  0  0  0  0  0  0  0
  153.0016  142.1817  160.1188 C   0  0  0  0  0  0  0  0  0  0  0  0
  152.5602  141.2582  158.9725 C   0  0  0  0  0  0  0  0  0  0  0  0
  148.6394  141.3847  157.2263 C   0  0  0  0  0  0  0  0  0  0  0  0
  148.2473  140.3940  157.8438 O   0  0  0  0  0  0  0  0  0  0  0  0
  148.0249  142.5745  157.2799 N   0  0  0  0  0  0  0  0  0  0  0  0
  146.8845  142.8872  158.1327 C   0  0  0  0  0  0  0  0  0  0  0  0
  147.2755  143.8657  159.2540 C   0  0  0  0  0  0  0  0  0  0  0  0
  146.4123  143.7306  160.4971 C   0  0  0  0  0  0  0  0  0  0  0  0
  146.6740  143.1297  161.5990 N   0  0  0  0  0  0  0  0  0  0  0  0
  145.5099  143.3315  162.4097 N   0  5  0  0  0  0  0  0  0  0  0  0
  144.6357  144.0625  161.6757 C   0  0  0  0  0  0  0  0  0  0  0  0
  143.5135  144.4559  161.9861 O   0  0  0  0  0  0  0  0  0  0  0  0
  145.1812  144.3205  160.4917 N   0  0  0  0  0  0  0  0  0  0  0  0
  144.7725  144.8408  159.7299 H   0  0  0  0  0  0  0  0  0  0  0  0
  148.4598  139.7397  153.5791 H   0  0  0  0  0  0  0  0  0  0  0  0
  148.5588  141.4724  153.8792 H   0  0  0  0  0  0  0  0  0  0  0  0
  147.6165  140.4439  154.9564 H   0  0  0  0  0  0  0  0  0  0  0  0
  149.7154  139.2672  155.6639 H   0  0  0  0  0  0  0  0  0  0  0  0
  150.6606  140.2816  154.6017 H   0  0  0  0  0  0  0  0  0  0  0  0
  150.0760  142.2871  155.8968 H   0  0  0  0  0  0  0  0  0  0  0  0
  150.4905  141.8056  158.9962 H   0  0  0  0  0  0  0  0  0  0  0  0
  152.3092  143.2226  156.9809 H   0  0  0  0  0  0  0  0  0  0  0  0
  150.6435  143.6365  157.2999 H   0  0  0  0  0  0  0  0  0  0  0  0
  152.2022  145.1621  158.5060 H   0  0  0  0  0  0  0  0  0  0  0  0
  151.1770  144.2830  159.6125 H   0  0  0  0  0  0  0  0  0  0  0  0
  154.0873  143.6318  158.9400 H   0  0  0  0  0  0  0  0  0  0  0  0
  153.4944  144.2637  160.4579 H   0  0  0  0  0  0  0  0  0  0  0  0
  153.9105  141.7953  160.5803 H   0  0  0  0  0  0  0  0  0  0  0  0
  152.2395  142.1847  160.8982 H   0  0  0  0  0  0  0  0  0  0  0  0
  152.3641  140.2576  159.3592 H   0  0  0  0  0  0  0  0  0  0  0  0
  153.3726  141.1589  158.2513 H   0  0  0  0  0  0  0  0  0  0  0  0
  148.4177  143.3352  156.7446 H   0  0  0  0  0  0  0  0  0  0  0  0
  146.0999  143.3271  157.5162 H   0  0  0  0  0  0  0  0  0  0  0  0
  146.4720  141.9733  158.5649 H   0  0  0  0  0  0  0  0  0  0  0  0
  148.3241  143.7218  159.5187 H   0  0  0  0  0  0  0  0  0  0  0  0
  147.1927  144.8897  158.8890 H   0  0  0  0  0  0  0  0  0  0  0  0
  1  2  1  0  0  0  0
  1 23  1  0  0  0  0
  1 24  1  0  0  0  0
  1 25  1  0  0  0  0
  2  3  1  0  0  0  0
  2 26  1  0  0  0  0
  2 27  1  0  0  0  0
  3  4  1  0  0  0  0
  3 11  1  0  0  0  0
  3 28  1  0  0  0  0
  4  5  1  0  0  0  0
  5 10  1  0  0  0  0
  5  6  1  0  0  0  0
  5 29  1  0  0  0  0
  6  7  1  0  0  0  0
  6 30  1  0  0  0  0
  6 31  1  0  0  0  0
  7  8  1  0  0  0  0
  7 32  1  0  0  0  0
  7 33  1  0  0  0  0
  8  9  1  0  0  0  0
  8 34  1  0  0  0  0
  8 35  1  0  0  0  0
  9 10  1  0  0  0  0
  9 36  1  0  0  0  0
  9 37  1  0  0  0  0
 10 38  1  0  0  0  0
 10 39  1  0  0  0  0
 11 12  2  0  0  0  0
 11 13  1  0  0  0  0
 13 14  1  0  0  0  0
 13 40  1  0  0  0  0
 14 15  1  0  0  0  0
 14 41  1  0  0  0  0
 14 42  1  0  0  0  0
 15 16  1  0  0  0  0
 15 43  1  0  0  0  0
 15 44  1  0  0  0  0
 16 21  1  0  0  0  0
 16 17  2  0  0  0  0
 17 18  1  0  0  0  0
 18 19  1  0  0  0  0
 19 20  2  0  0  0  0
 19 21  1  0  0  0  0
 21 22  1  0  0  0  0
M  CHG  1  18  -1
M  END
> <s_m_source_file>
AV-unprocessed.smi

> <i_m_source_file_index>
3018

> <i_lp_mmshare_version>
43012

> <i_f3d_flags>
0

> <s_epik_input>
W0NIMl0xW0NIMl1bQ0gyXVtDSDJdW0NIMl1bQ0hdMU9bQ0BASF0oW0NIMl1bQ0gzXSlDKD1PKVtOSF1bQ0gyXVtDSDJdYzJuW25IXWMoPU8pW25IXTI=

> <s_epik_cmdline>
J2VwaWtfcHl0aG9uJywgJy1waCcsICc3LjAnLCAnLXRuJywgJzgnLCAnLW1hJywgJzIwMCcsICctbWV0YWxfYmluZGluZycsICctaW1hZScsICc8aW5maWxlLm1hZT4nLCAnLW9tYWUnLCAnPG91dGZpbGUubWFlPic=

> <r_lp_tautomer_probability>
1

> <r_epik_Ionization_Penalty>
14.1812

> <r_epik_Ionization_Penalty_Charging>
13.7758

> <r_epik_Ionization_Penalty_Neutral>
0.405355

> <r_epik_State_Penalty>
4.92413

> <r_epik_Charging_Adjusted_Penalty>
18.7

> <i_epik_Tot_Q>
-1

> <i_epik_Tot_abs_Q>
1

> <r_epik_Metal_State_Penalty>
1.32654

> <b_epik_Metal_Only>
1

> <s_lp_Force_Field>
OPLS_2005

> <r_lp_Energy>
19.863

> <b_lp_Chiralities_Consistent>
1

> <s_lp_Variant>
AV-unprocessed.smi:3018-3

> <Gold.Version>
5.8.1

> <Gold.Id.Protein>
6NUR|6NUR_protein|mol2

> <Gold.PLP.Fitness>
44.3240

> <Gold.PLP.PLP>
-37.9870

> <Gold.PLP.part.hbond>
-3.8788

> <Gold.PLP.part.metal>
0.0000

> <Gold.PLP.part.buried>
-2.6546

> <Gold.PLP.part.nonpolar>
-30.3834

> <Gold.PLP.part.repulsive>
0.2105

> <Gold.PLP.ligand.clash>
0.0000

> <Gold.PLP.ligand.torsion>
0.4968

> <Gold.PLP.Chemscore.Hbond>
2.3887

> <Gold.PLP.Chemscore.CHOScore>
0.0000

> <Gold.PLP.Chemscore.Metal>
0.0000

> <Gold.Chemscore.Hbonds>
donor molecule, donor type, donor heavy atom, donor atom, acceptor molecule, acceptor atom, score
      L1  H    13    40       P1  8028  1.00
      P1  H  6933  6944       L1    17  0.86
      P1  H  6934  6946       L1    17  0.01

> <Gold.PLP.Chemscore.Internal.Correction>
0.1646

> <Gold.Rescore>
     Score         DG    S(hbond)    S(metal)    S(lipo)     H(rot)  DE(clash)    DE(int)     intcor
     13.06     -13.79       1.64        0.00      89.39       2.98       0.19       0.54       ----

> <Gold.Chemscore.Fitness>
13.0645

> <Gold.Chemscore.DG>
-13.7895

> <Gold.Chemscore.ZeroCoef>
-5.4800

> <Gold.Chemscore.Hbond>
1.6384

> <Gold.Chemscore.Metal>
0.0000

> <Gold.Chemscore.Lipo>
89.3933

> <Gold.Chemscore.Internal_Hbond>
0.0000

> <Gold.Chemscore.DEClash>
0.1883

> <Gold.Chemscore.DEInternal>
0.5367

> <Gold.Chemscore.Rot>
2.9772

> <Gold.Chemscore.Internal.Correction>
   9.000000E+99

> <Gold.Chemscore.Hbonds>
donor molecule, donor type, donor heavy atom, donor atom, acceptor molecule, acceptor atom, score
      L1  H    13    40       P1  8028  0.35
      P1  H  6933  6944       L1    17  0.58
      P1  H  6934  6946       L1    17  0.01

> <Gold.Chemscore.Hbond.Weighted>
-5.4721

> <Gold.Chemscore.Metal.Weighted>
-0.0000

> <Gold.Chemscore.Lipo.Weighted>
-10.4590

> <Gold.Chemscore.Internal_Hbond.Weighted>
0.0000

> <Gold.Chemscore.DEClash.Weighted>
0.1883

> <Gold.Chemscore.DEInternal.Weighted>
0.5367

> <Gold.Chemscore.Rot.Weighted>
7.6216

> <Gold.Chemscore.Internal.Correction.Weighted>
   9.000000E+99

> <Gold.Protein.RotatedTorsions>
[ 6907 6896 6895 6894 ] final -146.78 input  -60.11 | X-H torsion
[ 7974 7965 7964 7962 ] final -150.79 input  175.53 | X-H torsion
[ 8008 7997 7996 7995 ] final   31.05 input   59.86 | X-H torsion
[ 10167 10162 10161 10158 ] final   56.39 input  -65.29 | X-H torsion
[ 10718 10713 10712 10709 ] final -169.87 input   66.30 | X-H torsion
[ 10763 10752 10751 10750 ] final   91.44 input  -60.55 | X-H torsion
[ 11005 11000 10999 10996 ] final   78.65 input  -57.11 | X-H torsion

> <Gold.Protein.ActiveResidues>
 VAL166  LYS551  ARG553  GLY616  TRP617  ASP618  TYR619  PRO620  LYS621  CYS622 
 ASP623  PHE694  ASN695  SER759  ASP760  ASP761  ALA762  ILE779  LEU786  VAL792 
 PHE793  MET794  SER795  GLU796  ALA797  LYS798  CYS799  TRP800  GLU811  SER814 

> <Gold.Protein.RotatedAtoms>
  151.1465  133.4936  159.2595 H   0  0  0  0  0  0  0  0  0  0  0  0  # atno 6907 bound_to 6896
  151.1600  135.0268  159.8716 H   0  0  0  0  0  0  0  0  0  0  0  0  # atno 6908 bound_to 6896
  152.5463  134.1339  159.8504 H   0  0  0  0  0  0  0  0  0  0  0  0  # atno 6909 bound_to 6896
  144.7887  140.4884  143.5788 H   0  0  0  0  0  0  0  0  0  0  0  0  # atno 7974 bound_to 7965
  155.1002  140.3229  155.4549 H   0  0  0  0  0  0  0  0  0  0  0  0  # atno 8008 bound_to 7997
  156.2719  140.2062  156.6075 H   0  0  0  0  0  0  0  0  0  0  0  0  # atno 8009 bound_to 7997
  154.6835  140.0524  157.0278 H   0  0  0  0  0  0  0  0  0  0  0  0  # atno 8010 bound_to 7997
  140.2092  144.3907  150.6496 H   0  0  0  0  0  0  0  0  0  0  0  0  # atno 10167 bound_to 10162
  156.7178  130.9258  151.3095 H   0  0  0  0  0  0  0  0  0  0  0  0  # atno 10718 bound_to 10713
  153.2082  135.4397  155.0348 H   0  0  0  0  0  0  0  0  0  0  0  0  # atno 10763 bound_to 10752
  154.8185  135.3326  154.7108 H   0  0  0  0  0  0  0  0  0  0  0  0  # atno 10764 bound_to 10752
  153.7548  135.6995  153.4993 H   0  0  0  0  0  0  0  0  0  0  0  0  # atno 10765 bound_to 10752
  139.9204  134.7781  156.1677 H   0  0  0  0  0  0  0  0  0  0  0  0  # atno 11005 bound_to 11000
  145.5852  139.1491  143.3213 LP  0  0  0  0  0  0  0  0  0  0  0  0  # atno 17320 bound_to 7965
  146.2130  140.5980  142.9051 LP  0  0  0  0  0  0  0  0  0  0  0  0  # atno 17321 bound_to 7965
  140.6335  143.2191  151.6444 LP  0  0  0  0  0  0  0  0  0  0  0  0  # atno 17342 bound_to 10162
  139.5186  144.3278  152.0854 LP  0  0  0  0  0  0  0  0  0  0  0  0  # atno 17343 bound_to 10162
  157.6910  130.9233  150.0514 LP  0  0  0  0  0  0  0  0  0  0  0  0  # atno 17370 bound_to 10713
  156.1615  130.3644  149.9292 LP  0  0  0  0  0  0  0  0  0  0  0  0  # atno 17371 bound_to 10713
  141.0719  133.6793  156.2158 LP  0  0  0  0  0  0  0  0  0  0  0  0  # atno 17394 bound_to 11000
  140.6493  134.5084  157.5576 LP  0  0  0  0  0  0  0  0  0  0  0  0  # atno 17395 bound_to 11000

$$$$
