AV-unprocessed.smi:1387|AV-procd|sdf|5640|dock4
  -GOLD-   22720 5253D 1   1.00000     0.00000
 Structure written by MMmdl.
 34 35  0  0  0  0  0  0  0  0  1 V2000
  146.3036  142.3996  153.8568 C   0  0  0  0  0  0  0  0  0  0  0  0
  147.5614  142.3200  154.5175 O   0  0  0  0  0  0  0  0  0  0  0  0
  148.2620  141.1301  154.4610 C   0  0  0  0  0  0  0  0  0  0  0  0
  147.7105  140.0856  153.7935 N   0  0  0  0  0  0  0  0  0  0  0  0
  148.3963  138.9252  153.7371 C   0  0  0  0  0  0  0  0  0  0  0  0
  149.6597  138.7466  154.3307 C   0  0  0  0  0  0  0  0  0  0  0  0
  150.2336  139.8286  155.0236 C   0  0  0  0  0  0  0  0  0  0  0  0
  149.5183  141.0470  155.1045 C   0  0  0  0  0  0  0  0  0  0  0  0
  150.0145  142.2044  155.7616 N   0  0  0  0  0  0  0  0  0  0  0  0
  150.9737  142.2868  156.7031 C   0  0  0  0  0  0  0  0  0  0  0  0
  151.6087  141.3291  157.1400 O   0  0  0  0  0  0  0  0  0  0  0  0
  151.1692  143.5304  157.1781 N   0  0  0  0  0  0  0  0  0  0  0  0
  152.1260  143.9666  158.1989 C   0  0  0  0  0  0  0  0  0  0  0  0
  151.9727  143.1279  159.4817 C   0  0  0  0  0  0  0  0  0  0  0  0
  152.0026  144.1235  160.6418 C   0  0  0  0  0  0  0  0  0  0  0  0
  151.3883  145.3927  160.0611 C   0  0  0  0  0  0  0  0  0  0  0  0
  151.8993  145.4347  158.6204 C   0  0  0  0  0  0  0  0  0  0  0  0
  145.8827  143.3942  154.0026 H   0  0  0  0  0  0  0  0  0  0  0  0
  145.5937  141.6772  154.2623 H   0  0  0  0  0  0  0  0  0  0  0  0
  146.4062  142.2381  152.7828 H   0  0  0  0  0  0  0  0  0  0  0  0
  147.9266  138.1165  153.1972 H   0  0  0  0  0  0  0  0  0  0  0  0
  150.1783  137.8027  154.2521 H   0  0  0  0  0  0  0  0  0  0  0  0
  151.2113  139.7105  155.4649 H   0  0  0  0  0  0  0  0  0  0  0  0
  149.5125  143.0589  155.5687 H   0  0  0  0  0  0  0  0  0  0  0  0
  150.5476  144.2455  156.8288 H   0  0  0  0  0  0  0  0  0  0  0  0
  153.1435  143.8500  157.8214 H   0  0  0  0  0  0  0  0  0  0  0  0
  151.0122  142.6098  159.4893 H   0  0  0  0  0  0  0  0  0  0  0  0
  152.7491  142.3678  159.5740 H   0  0  0  0  0  0  0  0  0  0  0  0
  151.4684  143.7614  161.5207 H   0  0  0  0  0  0  0  0  0  0  0  0
  153.0352  144.3166  160.9351 H   0  0  0  0  0  0  0  0  0  0  0  0
  150.3008  145.3077  160.0626 H   0  0  0  0  0  0  0  0  0  0  0  0
  151.6540  146.2861  160.6269 H   0  0  0  0  0  0  0  0  0  0  0  0
  152.8515  145.9662  158.5897 H   0  0  0  0  0  0  0  0  0  0  0  0
  151.2129  145.9754  157.9673 H   0  0  0  0  0  0  0  0  0  0  0  0
  1  2  1  0  0  0  0
  1 18  1  0  0  0  0
  1 19  1  0  0  0  0
  1 20  1  0  0  0  0
  2  3  1  0  0  0  0
  3  8  1  0  0  0  0
  3  4  2  0  0  0  0
  4  5  1  0  0  0  0
  5  6  2  0  0  0  0
  5 21  1  0  0  0  0
  6  7  1  0  0  0  0
  6 22  1  0  0  0  0
  7  8  2  0  0  0  0
  7 23  1  0  0  0  0
  8  9  1  0  0  0  0
  9 10  1  0  0  0  0
  9 24  1  0  0  0  0
 10 11  2  0  0  0  0
 10 12  1  0  0  0  0
 12 13  1  0  0  0  0
 12 25  1  0  0  0  0
 13 17  1  0  0  0  0
 13 14  1  0  0  0  0
 13 26  1  0  0  0  0
 14 15  1  0  0  0  0
 14 27  1  0  0  0  0
 14 28  1  0  0  0  0
 15 16  1  0  0  0  0
 15 29  1  0  0  0  0
 15 30  1  0  0  0  0
 16 17  1  0  0  0  0
 16 31  1  0  0  0  0
 16 32  1  0  0  0  0
 17 33  1  0  0  0  0
 17 34  1  0  0  0  0
M  END
> <s_m_source_file>
AV-unprocessed.smi

> <i_m_source_file_index>
1387

> <i_lp_mmshare_version>
43012

> <i_f3d_flags>
0

> <s_epik_input>
W0NIM11PYzFuW2NIXVtjSF1bY0hdYzFbTkhdQyg9TylbTkhdW0NIXTJbQ0gyXVtDSDJdW0NIMl1bQ0gyXTI=

> <s_epik_cmdline>
J2VwaWtfcHl0aG9uJywgJy1waCcsICc3LjAnLCAnLXRuJywgJzgnLCAnLW1hJywgJzIwMCcsICctbWV0YWxfYmluZGluZycsICctaW1hZScsICc8aW5maWxlLm1hZT4nLCAnLW9tYWUnLCAnPG91dGZpbGUubWFlPic=

> <r_lp_tautomer_probability>
1

> <r_epik_Ionization_Penalty>
0.000100079

> <r_epik_Ionization_Penalty_Charging>
0

> <r_epik_Ionization_Penalty_Neutral>
0.000100079

> <r_epik_State_Penalty>
-0

> <r_epik_Charging_Adjusted_Penalty>
0

> <i_epik_Tot_Q>
0

> <i_epik_Tot_abs_Q>
0

> <r_epik_Metal_State_Penalty>
-0

> <b_epik_Metal_Only>
0

> <s_lp_Force_Field>
OPLS_2005

> <r_lp_Energy>
31.3495

> <b_lp_Chiralities_Consistent>
1

> <s_lp_Variant>
AV-unprocessed.smi:1387-1

> <Gold.Version>
5.8.1

> <Gold.Id.Protein>
6NUR|6NUR_protein|mol2

> <Gold.PLP.Fitness>
47.5859

> <Gold.PLP.PLP>
-39.2900

> <Gold.PLP.part.hbond>
-2.0000

> <Gold.PLP.part.metal>
0.0000

> <Gold.PLP.part.buried>
-4.0813

> <Gold.PLP.part.nonpolar>
-34.7788

> <Gold.PLP.part.repulsive>
1.6690

> <Gold.PLP.ligand.clash>
0.0000

> <Gold.PLP.ligand.torsion>
0.1438

> <Gold.PLP.Chemscore.Hbond>
1.8705

> <Gold.PLP.Chemscore.CHOScore>
0.9899

> <Gold.PLP.Chemscore.Metal>
0.0000

> <Gold.Chemscore.Hbonds>
donor molecule, donor type, donor heavy atom, donor atom, acceptor molecule, acceptor atom, score
      L1  H     9    24       P1  8028  1.00
      L1  H    12    25       P1  8028  0.90
      L1  C     5    21       P1  7948  0.99

> <Gold.PLP.Chemscore.Internal.Correction>
0.0024

> <Gold.Rescore>
     Score         DG    S(hbond)    S(metal)    S(lipo)     H(rot)  DE(clash)    DE(int)     intcor
     17.18     -19.03       1.77        0.00      92.33       1.23       0.54       1.31       ----

> <Gold.Chemscore.Fitness>
17.1783

> <Gold.Chemscore.DG>
-19.0275

> <Gold.Chemscore.ZeroCoef>
-5.4800

> <Gold.Chemscore.Hbond>
1.7655

> <Gold.Chemscore.Metal>
0.0000

> <Gold.Chemscore.Lipo>
92.3350

> <Gold.Chemscore.Internal_Hbond>
0.0000

> <Gold.Chemscore.DEClash>
0.5414

> <Gold.Chemscore.DEInternal>
1.3078

> <Gold.Chemscore.Rot>
1.2315

> <Gold.Chemscore.Internal.Correction>
   9.000000E+99

> <Gold.Chemscore.Hbonds>
donor molecule, donor type, donor heavy atom, donor atom, acceptor molecule, acceptor atom, score
      L1  H     9    24       P1  8028  1.00
      L1  H    12    25       P1  8028  0.81

> <Gold.Chemscore.Hbond.Weighted>
-5.8968

> <Gold.Chemscore.Metal.Weighted>
-0.0000

> <Gold.Chemscore.Lipo.Weighted>
-10.8032

> <Gold.Chemscore.Internal_Hbond.Weighted>
0.0000

> <Gold.Chemscore.DEClash.Weighted>
0.5414

> <Gold.Chemscore.DEInternal.Weighted>
1.3078

> <Gold.Chemscore.Rot.Weighted>
3.1526

> <Gold.Chemscore.Internal.Correction.Weighted>
   9.000000E+99

> <Gold.Protein.RotatedTorsions>
[ 6907 6896 6895 6894 ] final  118.83 input  -60.11 | X-H torsion
[ 7974 7965 7964 7962 ] final   39.93 input  175.53 | X-H torsion
[ 8008 7997 7996 7995 ] final -112.08 input   59.86 | X-H torsion
[ 10167 10162 10161 10158 ] final  -97.40 input  -65.29 | X-H torsion
[ 10718 10713 10712 10709 ] final  102.96 input   66.30 | X-H torsion
[ 10763 10752 10751 10750 ] final  -39.02 input  -60.55 | X-H torsion
[ 11005 11000 10999 10996 ] final  -55.37 input  -57.11 | X-H torsion

> <Gold.Protein.ActiveResidues>
 VAL166  LYS551  ARG553  GLY616  TRP617  ASP618  TYR619  PRO620  LYS621  CYS622 
 ASP623  PHE694  ASN695  SER759  ASP760  ASP761  ALA762  ILE779  LEU786  VAL792 
 PHE793  MET794  SER795  GLU796  ALA797  LYS798  CYS799  TRP800  GLU811  SER814 

> <Gold.Protein.RotatedAtoms>
  152.4515  133.7638  159.6761 H   0  0  0  0  0  0  0  0  0  0  0  0  # atno 6907 bound_to 6896
  150.8428  133.7898  159.3060 H   0  0  0  0  0  0  0  0  0  0  0  0  # atno 6908 bound_to 6896
  151.5518  135.1070  160.0003 H   0  0  0  0  0  0  0  0  0  0  0  0  # atno 6909 bound_to 6896
  146.0945  139.5593  142.9454 H   0  0  0  0  0  0  0  0  0  0  0  0  # atno 7974 bound_to 7965
  154.9997  140.0394  157.2354 H   0  0  0  0  0  0  0  0  0  0  0  0  # atno 8008 bound_to 7997
  154.7555  140.2775  155.6234 H   0  0  0  0  0  0  0  0  0  0  0  0  # atno 8009 bound_to 7997
  156.2894  140.2638  156.2320 H   0  0  0  0  0  0  0  0  0  0  0  0  # atno 8010 bound_to 7997
  140.2837  143.3265  152.0415 H   0  0  0  0  0  0  0  0  0  0  0  0  # atno 10167 bound_to 10162
  157.6787  131.0766  150.5482 H   0  0  0  0  0  0  0  0  0  0  0  0  # atno 10718 bound_to 10713
  153.9224  135.6781  153.4747 H   0  0  0  0  0  0  0  0  0  0  0  0  # atno 10763 bound_to 10752
  153.1021  135.4823  154.8884 H   0  0  0  0  0  0  0  0  0  0  0  0  # atno 10764 bound_to 10752
  154.7471  135.3175  154.8582 H   0  0  0  0  0  0  0  0  0  0  0  0  # atno 10765 bound_to 10752
  141.1070  133.6612  156.4460 H   0  0  0  0  0  0  0  0  0  0  0  0  # atno 11005 bound_to 11000
  145.5974  141.0360  143.2037 LP  0  0  0  0  0  0  0  0  0  0  0  0  # atno 17320 bound_to 7965
  144.7385  139.7516  143.7320 LP  0  0  0  0  0  0  0  0  0  0  0  0  # atno 17321 bound_to 7965
  139.4956  144.6573  151.6543 LP  0  0  0  0  0  0  0  0  0  0  0  0  # atno 17342 bound_to 10162
  140.5790  143.9979  150.6257 LP  0  0  0  0  0  0  0  0  0  0  0  0  # atno 17343 bound_to 10162
  156.5788  130.4299  149.5986 LP  0  0  0  0  0  0  0  0  0  0  0  0  # atno 17370 bound_to 10713
  156.2679  130.7000  151.1788 LP  0  0  0  0  0  0  0  0  0  0  0  0  # atno 17371 bound_to 10713
  140.4875  134.6607  157.5197 LP  0  0  0  0  0  0  0  0  0  0  0  0  # atno 17394 bound_to 11000
  139.9946  134.6932  155.9632 LP  0  0  0  0  0  0  0  0  0  0  0  0  # atno 17395 bound_to 11000

$$$$
