AV-unprocessed.smi:246|AV-procd|sdf|1884|dock5
  -GOLD-   2262020533D 1   1.00000     0.00000
 Structure written by MMmdl.
 57 60  0  0  0  0  0  0  0  0  1 V2000
  144.2148  131.7481  151.1322 C   0  0  0  0  0  0  0  0  0  0  0  0
  144.8104  133.0309  150.5356 C   0  0  0  0  0  0  0  0  0  0  0  0
  145.4846  133.8056  151.5171 O   0  0  0  0  0  0  0  0  0  0  0  0
  146.7214  133.2558  151.9470 C   0  0  0  0  0  0  0  0  0  0  0  0
  147.0460  133.7969  153.3421 C   0  0  0  0  0  0  0  0  0  0  0  0
  148.2316  133.1715  153.8085 O   0  0  0  0  0  0  0  0  0  0  0  0
  148.8385  133.8355  154.9071 C   0  0  1  0  0  0  0  0  0  0  0  0
  150.2878  133.4071  155.1532 C   0  0  0  0  0  0  0  0  0  0  0  0
  150.9203  134.6282  155.8262 C   0  0  0  0  0  0  0  0  0  0  0  0
  150.1156  135.7694  155.4034 N   0  0  0  0  0  0  0  0  0  0  0  0
  150.6350  137.0222  155.3087 C   0  0  0  0  0  0  0  0  0  0  0  0
  151.3918  137.3231  154.2199 N   0  0  0  0  0  0  0  0  0  0  0  0
  151.9223  138.5400  154.0726 C   0  0  0  0  0  0  0  0  0  0  0  0
  151.8273  139.5939  154.8833 N   0  0  0  0  0  0  0  0  0  0  0  0
  151.0791  139.3015  155.9844 C   0  0  0  0  0  0  0  0  0  0  0  0
  150.4547  138.0542  156.2791 C   0  0  0  0  0  0  0  0  0  0  0  0
  149.7881  138.1482  157.4972 N   0  0  0  0  0  0  0  0  0  0  0  0
  149.9968  139.3741  157.8908 C   0  0  0  0  0  0  0  0  0  0  0  0
  150.7553  140.1392  157.0361 N   0  0  0  0  0  0  0  0  0  0  0  0
  151.1264  141.5314  157.2105 C   0  0  0  0  0  0  0  0  0  0  0  0
  150.8989  142.0413  158.6497 C   0  0  2  0  0  0  0  0  0  0  0  0
  149.5490  142.4509  158.7412 O   0  0  0  0  0  0  0  0  0  0  0  0
  151.8127  143.2172  159.0630 C   0  0  1  0  0  0  0  0  0  0  0  0
  151.6822  144.4634  158.1831 C   0  0  0  0  0  0  0  0  0  0  0  0
  152.1129  145.6037  159.0933 C   0  0  0  0  0  0  0  0  0  0  0  0
  152.1045  144.9845  160.4921 C   0  0  0  0  0  0  0  0  0  0  0  0
  151.4437  143.7391  160.3311 O   0  0  0  0  0  0  0  0  0  0  0  0
  148.9764  135.3295  154.6134 C   0  0  0  0  0  0  0  0  0  0  0  0
  148.2496  133.7049  155.8171 H   0  0  0  0  0  0  0  0  0  0  0  0
  143.6243  131.2152  150.3869 H   0  0  0  0  0  0  0  0  0  0  0  0
  143.5598  131.9762  151.9733 H   0  0  0  0  0  0  0  0  0  0  0  0
  144.9876  131.0655  151.4833 H   0  0  0  0  0  0  0  0  0  0  0  0
  145.4682  132.8058  149.6951 H   0  0  0  0  0  0  0  0  0  0  0  0
  143.9993  133.6413  150.1380 H   0  0  0  0  0  0  0  0  0  0  0  0
  146.6958  132.1664  151.9659 H   0  0  0  0  0  0  0  0  0  0  0  0
  147.5068  133.5533  151.2508 H   0  0  0  0  0  0  0  0  0  0  0  0
  147.2066  134.8746  153.2855 H   0  0  0  0  0  0  0  0  0  0  0  0
  146.2091  133.6243  154.0198 H   0  0  0  0  0  0  0  0  0  0  0  0
  150.3729  132.5022  155.7553 H   0  0  0  0  0  0  0  0  0  0  0  0
  150.7827  133.2237  154.1983 H   0  0  0  0  0  0  0  0  0  0  0  0
  150.8642  134.5433  156.9119 H   0  0  0  0  0  0  0  0  0  0  0  0
  151.9699  134.7229  155.5445 H   0  0  0  0  0  0  0  0  0  0  0  0
  152.5059  138.6907  153.1764 H   0  0  0  0  0  0  0  0  0  0  0  0
  149.5902  139.7587  158.8146 H   0  0  0  0  0  0  0  0  0  0  0  0
  152.1747  141.6453  156.9307 H   0  0  0  0  0  0  0  0  0  0  0  0
  150.5484  142.1266  156.5023 H   0  0  0  0  0  0  0  0  0  0  0  0
  151.0378  141.2181  159.3517 H   0  0  0  0  0  0  0  0  0  0  0  0
  149.4236  143.1991  158.1779 H   0  0  0  0  0  0  0  0  0  0  0  0
  152.8558  142.8960  159.0983 H   0  0  0  0  0  0  0  0  0  0  0  0
  152.2812  144.4001  157.2742 H   0  0  0  0  0  0  0  0  0  0  0  0
  150.6416  144.6083  157.8887 H   0  0  0  0  0  0  0  0  0  0  0  0
  153.1085  145.9687  158.8387 H   0  0  0  0  0  0  0  0  0  0  0  0
  151.4181  146.4409  159.0196 H   0  0  0  0  0  0  0  0  0  0  0  0
  153.1229  144.8075  160.8409 H   0  0  0  0  0  0  0  0  0  0  0  0
  151.5957  145.6089  161.2270 H   0  0  0  0  0  0  0  0  0  0  0  0
  149.1899  135.4947  153.5563 H   0  0  0  0  0  0  0  0  0  0  0  0
  148.0654  135.8691  154.8739 H   0  0  0  0  0  0  0  0  0  0  0  0
  1  2  1  0  0  0  0
  1 30  1  0  0  0  0
  1 31  1  0  0  0  0
  1 32  1  0  0  0  0
  2  3  1  0  0  0  0
  2 33  1  0  0  0  0
  2 34  1  0  0  0  0
  3  4  1  0  0  0  0
  4  5  1  0  0  0  0
  4 35  1  0  0  0  0
  4 36  1  0  0  0  0
  5  6  1  0  0  0  0
  5 37  1  0  0  0  0
  5 38  1  0  0  0  0
  6  7  1  0  0  0  0
  7 29  1  0  0  0  0
  7 28  1  0  0  0  0
  7  8  1  0  0  0  0
  8  9  1  0  0  0  0
  8 39  1  0  0  0  0
  8 40  1  0  0  0  0
  9 10  1  0  0  0  0
  9 41  1  0  0  0  0
  9 42  1  0  0  0  0
 10 11  1  0  0  0  0
 10 28  1  0  0  0  0
 11 16  1  0  0  0  0
 11 12  2  0  0  0  0
 12 13  1  0  0  0  0
 13 14  2  0  0  0  0
 13 43  1  0  0  0  0
 14 15  1  0  0  0  0
 15 19  1  0  0  0  0
 15 16  2  0  0  0  0
 16 17  1  0  0  0  0
 17 18  2  0  0  0  0
 18 19  1  0  0  0  0
 18 44  1  0  0  0  0
 19 20  1  0  0  0  0
 20 21  1  0  0  0  0
 20 45  1  0  0  0  0
 20 46  1  0  0  0  0
 21 22  1  0  0  0  0
 21 23  1  0  0  0  0
 21 47  1  0  0  0  0
 22 48  1  0  0  0  0
 23 27  1  0  0  0  0
 23 24  1  0  0  0  0
 23 49  1  0  0  0  0
 24 25  1  0  0  0  0
 24 50  1  0  0  0  0
 24 51  1  0  0  0  0
 25 26  1  0  0  0  0
 25 52  1  0  0  0  0
 25 53  1  0  0  0  0
 26 27  1  0  0  0  0
 26 54  1  0  0  0  0
 26 55  1  0  0  0  0
 28 56  1  0  0  0  0
 28 57  1  0  0  0  0
M  END
> <s_m_source_file>
AV-unprocessed.smi

> <i_m_source_file_index>
246

> <i_lp_mmshare_version>
43012

> <i_f3d_flags>
0

> <s_epik_input>
W0NIM11bQ0gyXU9bQ0gyXVtDSDJdT1tDQEhdMVtDSDJdW0NIMl1OKFtDSDJdMSljKG5bY0hdbjIpYyhjMjMpbltjSF1uM1tDSDJdW0NASF0oW09IXSlbQ0BASF00W0NIMl1bQ0gyXVtDSDJdTzQ=

> <s_epik_cmdline>
J2VwaWtfcHl0aG9uJywgJy1waCcsICc3LjAnLCAnLXRuJywgJzgnLCAnLW1hJywgJzIwMCcsICctbWV0YWxfYmluZGluZycsICctaW1hZScsICc8aW5maWxlLm1hZT4nLCAnLW9tYWUnLCAnPG91dGZpbGUubWFlPic=

> <r_lp_tautomer_probability>
1

> <r_epik_Ionization_Penalty>
0.0024631

> <r_epik_Ionization_Penalty_Charging>
0

> <r_epik_Ionization_Penalty_Neutral>
0.0024631

> <r_epik_State_Penalty>
0.00162428

> <r_epik_Charging_Adjusted_Penalty>
0.00162428

> <i_epik_Tot_Q>
0

> <i_epik_Tot_abs_Q>
0

> <r_epik_Metal_State_Penalty>
-0

> <b_epik_Metal_Only>
0

> <s_lp_Force_Field>
OPLS_2005

> <r_lp_Energy>
49.6926

> <b_lp_Chiralities_Consistent>
1

> <s_lp_Variant>
AV-unprocessed.smi:246-5

> <Gold.Version>
5.8.1

> <Gold.Id.Protein>
6NUR|6NUR_protein|mol2

> <Gold.PLP.Fitness>
50.5974

> <Gold.PLP.PLP>
-49.1408

> <Gold.PLP.part.hbond>
-2.1013

> <Gold.PLP.part.metal>
0.0000

> <Gold.PLP.part.buried>
-7.4232

> <Gold.PLP.part.nonpolar>
-39.4674

> <Gold.PLP.part.repulsive>
0.5436

> <Gold.PLP.ligand.clash>
0.0000

> <Gold.PLP.ligand.torsion>
2.2478

> <Gold.PLP.Chemscore.Hbond>
1.7238

> <Gold.PLP.Chemscore.CHOScore>
0.0000

> <Gold.PLP.Chemscore.Metal>
0.0000

> <Gold.Chemscore.Hbonds>
donor molecule, donor type, donor heavy atom, donor atom, acceptor molecule, acceptor atom, score
      P1  H  7989  7998       L1    14  0.75
      P1  H 10752 10765       L1    12  0.28

> <Gold.PLP.Chemscore.Internal.Correction>
0.7807

> <Gold.Rescore>
     Score         DG    S(hbond)    S(metal)    S(lipo)     H(rot)  DE(clash)    DE(int)     intcor
     11.33     -13.71       0.82        0.00     114.93       3.10       0.07       2.31       ----

> <Gold.Chemscore.Fitness>
11.3347

> <Gold.Chemscore.DG>
-13.7091

> <Gold.Chemscore.ZeroCoef>
-5.4800

> <Gold.Chemscore.Hbond>
0.8157

> <Gold.Chemscore.Metal>
0.0000

> <Gold.Chemscore.Lipo>
114.9349

> <Gold.Chemscore.Internal_Hbond>
0.0000

> <Gold.Chemscore.DEClash>
0.0663

> <Gold.Chemscore.DEInternal>
2.3080

> <Gold.Chemscore.Rot>
3.1026

> <Gold.Chemscore.Internal.Correction>
   9.000000E+99

> <Gold.Chemscore.Hbonds>
donor molecule, donor type, donor heavy atom, donor atom, acceptor molecule, acceptor atom, score
      P1  H  7989  7998       L1    14  0.09
      P1  H 10752 10765       L1    12  0.04

> <Gold.Chemscore.Hbond.Weighted>
-2.7243

> <Gold.Chemscore.Metal.Weighted>
-0.0000

> <Gold.Chemscore.Lipo.Weighted>
-13.4474

> <Gold.Chemscore.Internal_Hbond.Weighted>
0.0000

> <Gold.Chemscore.DEClash.Weighted>
0.0663

> <Gold.Chemscore.DEInternal.Weighted>
2.3080

> <Gold.Chemscore.Rot.Weighted>
7.9426

> <Gold.Chemscore.Internal.Correction.Weighted>
   9.000000E+99

> <Gold.Protein.RotatedTorsions>
[ 6907 6896 6895 6894 ] final    1.95 input  -60.11 | X-H torsion
[ 7974 7965 7964 7962 ] final  -25.39 input  175.53 | X-H torsion
[ 8008 7997 7996 7995 ] final   66.40 input   59.86 | X-H torsion
[ 10167 10162 10161 10158 ] final   -0.67 input  -65.29 | X-H torsion
[ 10718 10713 10712 10709 ] final  114.29 input   66.30 | X-H torsion
[ 10763 10752 10751 10750 ] final  173.55 input  -60.55 | X-H torsion
[ 11005 11000 10999 10996 ] final   76.63 input  -57.11 | X-H torsion

> <Gold.Protein.ActiveResidues>
 VAL166  LYS551  ARG553  GLY616  TRP617  ASP618  TYR619  PRO620  LYS621  CYS622 
 ASP623  PHE694  ASN695  SER759  ASP760  ASP761  ALA762  ILE779  LEU786  VAL792 
 PHE793  MET794  SER795  GLU796  ALA797  LYS798  CYS799  TRP800  GLU811  SER814 

> <Gold.Protein.RotatedAtoms>
  151.6010  135.1047  160.0059 H   0  0  0  0  0  0  0  0  0  0  0  0  # atno 6907 bound_to 6896
  152.4258  133.7188  159.6532 H   0  0  0  0  0  0  0  0  0  0  0  0  # atno 6908 bound_to 6896
  150.8147  133.8287  159.3188 H   0  0  0  0  0  0  0  0  0  0  0  0  # atno 6909 bound_to 6896
  146.1494  140.4879  142.8618 H   0  0  0  0  0  0  0  0  0  0  0  0  # atno 7974 bound_to 7965
  155.6768  140.3497  155.4839 H   0  0  0  0  0  0  0  0  0  0  0  0  # atno 8008 bound_to 7997
  155.9641  140.1143  157.0893 H   0  0  0  0  0  0  0  0  0  0  0  0  # atno 8009 bound_to 7997
  154.4150  140.1170  156.5204 H   0  0  0  0  0  0  0  0  0  0  0  0  # atno 8010 bound_to 7997
  140.6777  143.6866  150.8062 H   0  0  0  0  0  0  0  0  0  0  0  0  # atno 10167 bound_to 10162
  157.6290  131.0996  150.7164 H   0  0  0  0  0  0  0  0  0  0  0  0  # atno 10718 bound_to 10713
  154.4416  135.2762  155.1843 H   0  0  0  0  0  0  0  0  0  0  0  0  # atno 10763 bound_to 10752
  154.3707  135.6109  153.5742 H   0  0  0  0  0  0  0  0  0  0  0  0  # atno 10764 bound_to 10752
  152.9841  135.5856  154.4745 H   0  0  0  0  0  0  0  0  0  0  0  0  # atno 10765 bound_to 10752
  139.9290  134.7616  156.1419 H   0  0  0  0  0  0  0  0  0  0  0  0  # atno 11005 bound_to 11000
  144.7886  140.5986  143.6557 LP  0  0  0  0  0  0  0  0  0  0  0  0  # atno 17320 bound_to 7965
  145.4859  139.1492  143.3736 LP  0  0  0  0  0  0  0  0  0  0  0  0  # atno 17321 bound_to 7965
  140.0562  143.5200  152.2650 LP  0  0  0  0  0  0  0  0  0  0  0  0  # atno 17342 bound_to 10162
  139.6080  144.7601  151.3017 LP  0  0  0  0  0  0  0  0  0  0  0  0  # atno 17343 bound_to 10162
  156.7507  130.4768  149.5457 LP  0  0  0  0  0  0  0  0  0  0  0  0  # atno 17370 bound_to 10713
  156.1480  130.6290  151.0557 LP  0  0  0  0  0  0  0  0  0  0  0  0  # atno 17371 bound_to 10713
  141.0866  133.6731  156.2450 LP  0  0  0  0  0  0  0  0  0  0  0  0  # atno 17394 bound_to 11000
  140.6255  134.5317  157.5553 LP  0  0  0  0  0  0  0  0  0  0  0  0  # atno 17395 bound_to 11000

$$$$
