AV-unprocessed.smi:2118|AV-procd|sdf|8628|dock5
  -GOLD-   2272011373D 1   1.00000     0.00000
 Structure written by MMmdl.
 40 41  0  0  0  0  0  0  0  0  1 V2000
  143.3774  134.9526  162.9647 C   0  0  0  0  0  0  0  0  0  0  0  0
  144.8537  135.3670  162.8908 C   0  0  0  0  0  0  0  0  0  0  0  0
  145.0150  136.8044  162.3687 C   0  0  0  0  0  0  0  0  0  0  0  0
  146.4979  137.2056  162.2702 C   0  0  0  0  0  0  0  0  0  0  0  0
  147.2663  136.2428  161.4564 N   0  0  0  0  0  0  0  0  0  0  0  0
  147.5056  136.5658  159.7639 S   0  0  0  0  0  0  0  0  0  0  0  0
  148.3274  135.4927  159.1834 O   0  0  0  0  0  0  0  0  0  0  0  0
  146.2178  136.9396  159.1592 O   0  0  0  0  0  0  0  0  0  0  0  0
  148.4763  137.9838  159.8685 N   0  0  0  0  0  0  0  0  0  0  0  0
  149.0300  138.5440  158.6397 C   0  0  0  0  0  0  0  0  0  0  0  0
  150.4592  138.0312  158.4234 C   0  0  0  0  0  0  0  0  0  0  0  0
  151.0213  138.4540  157.0805 C   0  0  0  0  0  0  0  0  0  0  0  0
  150.4132  138.0385  155.8779 C   0  0  0  0  0  0  0  0  0  0  0  0
  150.9714  138.4585  154.6551 C   0  0  0  0  0  0  0  0  0  0  0  0
  152.1167  139.2790  154.6875 C   0  0  0  0  0  0  0  0  0  0  0  0
  152.7066  139.6841  155.8330 N   0  0  0  0  0  0  0  0  0  0  0  0
  152.1649  139.2768  157.0013 C   0  0  0  0  0  0  0  0  0  0  0  0
  147.1432  134.8441  161.9126 C   0  0  0  0  0  0  0  0  0  0  0  0
  145.6695  134.4083  162.0075 C   0  0  0  0  0  0  0  0  0  0  0  0
  142.9104  134.9698  161.9793 H   0  0  0  0  0  0  0  0  0  0  0  0
  142.8135  135.6245  163.6123 H   0  0  0  0  0  0  0  0  0  0  0  0
  143.2723  133.9440  163.3656 H   0  0  0  0  0  0  0  0  0  0  0  0
  145.2618  135.3262  163.9019 H   0  0  0  0  0  0  0  0  0  0  0  0
  144.5367  136.9044  161.3943 H   0  0  0  0  0  0  0  0  0  0  0  0
  144.4970  137.4987  163.0312 H   0  0  0  0  0  0  0  0  0  0  0  0
  146.5955  138.2104  161.8595 H   0  0  0  0  0  0  0  0  0  0  0  0
  146.9336  137.2390  163.2695 H   0  0  0  0  0  0  0  0  0  0  0  0
  148.0539  138.6906  160.4696 H   0  0  0  0  0  0  0  0  0  0  0  0
  148.3922  138.2633  157.8007 H   0  0  0  0  0  0  0  0  0  0  0  0
  149.0198  139.6325  158.7081 H   0  0  0  0  0  0  0  0  0  0  0  0
  151.1140  138.4013  159.2136 H   0  0  0  0  0  0  0  0  0  0  0  0
  150.4803  136.9425  158.4909 H   0  0  0  0  0  0  0  0  0  0  0  0
  149.5347  137.4101  155.8903 H   0  0  0  0  0  0  0  0  0  0  0  0
  150.5321  138.1594  153.7148 H   0  0  0  0  0  0  0  0  0  0  0  0
  152.5706  139.6199  153.7688 H   0  0  0  0  0  0  0  0  0  0  0  0
  152.6584  139.6190  157.8990 H   0  0  0  0  0  0  0  0  0  0  0  0
  147.6969  134.1801  161.2494 H   0  0  0  0  0  0  0  0  0  0  0  0
  147.6124  134.7591  162.8935 H   0  0  0  0  0  0  0  0  0  0  0  0
  145.6182  133.3978  162.4142 H   0  0  0  0  0  0  0  0  0  0  0  0
  145.2316  134.3546  161.0108 H   0  0  0  0  0  0  0  0  0  0  0  0
  1  2  1  0  0  0  0
  1 20  1  0  0  0  0
  1 21  1  0  0  0  0
  1 22  1  0  0  0  0
  2 19  1  0  0  0  0
  2  3  1  0  0  0  0
  2 23  1  0  0  0  0
  3  4  1  0  0  0  0
  3 24  1  0  0  0  0
  3 25  1  0  0  0  0
  4  5  1  0  0  0  0
  4 26  1  0  0  0  0
  4 27  1  0  0  0  0
  5  6  1  0  0  0  0
  5 18  1  0  0  0  0
  6  7  2  0  0  0  0
  6  8  2  0  0  0  0
  6  9  1  0  0  0  0
  9 10  1  0  0  0  0
  9 28  1  0  0  0  0
 10 11  1  0  0  0  0
 10 29  1  0  0  0  0
 10 30  1  0  0  0  0
 11 12  1  0  0  0  0
 11 31  1  0  0  0  0
 11 32  1  0  0  0  0
 12 17  1  0  0  0  0
 12 13  2  0  0  0  0
 13 14  1  0  0  0  0
 13 33  1  0  0  0  0
 14 15  2  0  0  0  0
 14 34  1  0  0  0  0
 15 16  1  0  0  0  0
 15 35  1  0  0  0  0
 16 17  2  0  0  0  0
 17 36  1  0  0  0  0
 18 19  1  0  0  0  0
 18 37  1  0  0  0  0
 18 38  1  0  0  0  0
 19 39  1  0  0  0  0
 19 40  1  0  0  0  0
M  END
> <s_m_source_file>
AV-unprocessed.smi

> <i_m_source_file_index>
2118

> <i_lp_mmshare_version>
43012

> <i_f3d_flags>
0

> <s_epik_input>
W0NIM11bQ0hdMVtDSDJdW0NIMl1OKFtDSDJdW0NIMl0xKVMoPU8pKD1PKVtOSF1bQ0gyXVtDSDJdYzJbY0hdW2NIXVtjSF1uW2NIXTI=

> <s_epik_cmdline>
J2VwaWtfcHl0aG9uJywgJy1waCcsICc3LjAnLCAnLXRuJywgJzgnLCAnLW1hJywgJzIwMCcsICctbWV0YWxfYmluZGluZycsICctaW1hZScsICc8aW5maWxlLm1hZT4nLCAnLW9tYWUnLCAnPG91dGZpbGUubWFlPic=

> <r_epik_Ionization_Penalty>
0.0259724

> <r_epik_Ionization_Penalty_Charging>
0

> <r_epik_Ionization_Penalty_Neutral>
0.0259724

> <r_epik_State_Penalty>
0.0167858

> <r_epik_Charging_Adjusted_Penalty>
0.0167858

> <i_epik_Tot_Q>
0

> <i_epik_Tot_abs_Q>
0

> <r_epik_Metal_State_Penalty>
0.268382

> <b_epik_Metal_Only>
0

> <s_lp_Force_Field>
OPLS_2005

> <r_lp_Energy>
6.97296

> <b_lp_Chiralities_Consistent>
1

> <s_lp_Variant>
AV-unprocessed.smi:2118-1

> <Gold.Version>
5.8.1

> <Gold.Id.Protein>
6NUR|6NUR_protein|mol2

> <Gold.PLP.Fitness>
42.0298

> <Gold.PLP.PLP>
-36.7920

> <Gold.PLP.part.hbond>
-4.0000

> <Gold.PLP.part.metal>
0.0000

> <Gold.PLP.part.buried>
-6.0248

> <Gold.PLP.part.nonpolar>
-27.3634

> <Gold.PLP.part.repulsive>
0.0000

> <Gold.PLP.ligand.clash>
0.0000

> <Gold.PLP.ligand.torsion>
1.4437

> <Gold.PLP.Chemscore.Hbond>
2.0000

> <Gold.PLP.Chemscore.CHOScore>
0.0000

> <Gold.PLP.Chemscore.Metal>
0.0000

> <Gold.Chemscore.Hbonds>
donor molecule, donor type, donor heavy atom, donor atom, acceptor molecule, acceptor atom, score
      P1  H  7997  8008       L1    16  1.00

> <Gold.PLP.Chemscore.Internal.Correction>
2.1252

> <Gold.Rescore>
     Score         DG    S(hbond)    S(metal)    S(lipo)     H(rot)  DE(clash)    DE(int)     intcor
     15.97     -17.39       1.95        0.00      78.38       1.47       0.01       1.42       ----

> <Gold.Chemscore.Fitness>
15.9701

> <Gold.Chemscore.DG>
-17.3915

> <Gold.Chemscore.ZeroCoef>
-5.4800

> <Gold.Chemscore.Hbond>
1.9495

> <Gold.Chemscore.Metal>
0.0000

> <Gold.Chemscore.Lipo>
78.3760

> <Gold.Chemscore.Internal_Hbond>
0.0000

> <Gold.Chemscore.DEClash>
0.0060

> <Gold.Chemscore.DEInternal>
1.4154

> <Gold.Chemscore.Rot>
1.4725

> <Gold.Chemscore.Internal.Correction>
   9.000000E+99

> <Gold.Chemscore.Hbonds>
donor molecule, donor type, donor heavy atom, donor atom, acceptor molecule, acceptor atom, score
      P1  H  7997  8008       L1    16  0.65

> <Gold.Chemscore.Hbond.Weighted>
-6.5113

> <Gold.Chemscore.Metal.Weighted>
-0.0000

> <Gold.Chemscore.Lipo.Weighted>
-9.1700

> <Gold.Chemscore.Internal_Hbond.Weighted>
0.0000

> <Gold.Chemscore.DEClash.Weighted>
0.0060

> <Gold.Chemscore.DEInternal.Weighted>
1.4154

> <Gold.Chemscore.Rot.Weighted>
3.7697

> <Gold.Chemscore.Internal.Correction.Weighted>
   9.000000E+99

> <Gold.Protein.RotatedTorsions>
[ 6907 6896 6895 6894 ] final  168.53 input  -60.11 | X-H torsion
[ 7974 7965 7964 7962 ] final  110.65 input  175.53 | X-H torsion
[ 8008 7997 7996 7995 ] final  -30.24 input   59.86 | X-H torsion
[ 10167 10162 10161 10158 ] final  -49.89 input  -65.29 | X-H torsion
[ 10718 10713 10712 10709 ] final -136.46 input   66.30 | X-H torsion
[ 10763 10752 10751 10750 ] final -130.35 input  -60.55 | X-H torsion
[ 11005 11000 10999 10996 ] final -165.95 input  -57.11 | X-H torsion

> <Gold.Protein.ActiveResidues>
 VAL166  LYS551  ARG553  GLY616  TRP617  ASP618  TYR619  PRO620  LYS621  CYS622 
 ASP623  PHE694  ASN695  SER759  ASP760  ASP761  ALA762  ILE779  LEU786  VAL792 
 PHE793  MET794  SER795  GLU796  ALA797  LYS798  CYS799  TRP800  GLU811  SER814 

> <Gold.Protein.RotatedAtoms>
  151.8462  133.3432  159.3658 H   0  0  0  0  0  0  0  0  0  0  0  0  # atno 6907 bound_to 6896
  150.7220  134.5344  159.5725 H   0  0  0  0  0  0  0  0  0  0  0  0  # atno 6908 bound_to 6896
  152.2828  134.7810  160.0444 H   0  0  0  0  0  0  0  0  0  0  0  0  # atno 6909 bound_to 6896
  145.2523  139.2735  143.4061 H   0  0  0  0  0  0  0  0  0  0  0  0  # atno 7974 bound_to 7965
  154.4258  140.1796  156.1376 H   0  0  0  0  0  0  0  0  0  0  0  0  # atno 8008 bound_to 7997
  156.0017  140.3359  155.6828 H   0  0  0  0  0  0  0  0  0  0  0  0  # atno 8009 bound_to 7997
  155.6233  140.0662  157.2662 H   0  0  0  0  0  0  0  0  0  0  0  0  # atno 8010 bound_to 7997
  140.6664  143.2679  151.4280 H   0  0  0  0  0  0  0  0  0  0  0  0  # atno 10167 bound_to 10162
  156.2773  130.7300  151.1287 H   0  0  0  0  0  0  0  0  0  0  0  0  # atno 10718 bound_to 10713
  154.8755  135.3865  154.4070 H   0  0  0  0  0  0  0  0  0  0  0  0  # atno 10763 bound_to 10752
  153.4788  135.7030  153.5955 H   0  0  0  0  0  0  0  0  0  0  0  0  # atno 10764 bound_to 10752
  153.4380  135.3863  155.2178 H   0  0  0  0  0  0  0  0  0  0  0  0  # atno 10765 bound_to 10752
  140.5699  134.5248  157.5160 H   0  0  0  0  0  0  0  0  0  0  0  0  # atno 11005 bound_to 11000
  146.3299  140.2917  142.8615 LP  0  0  0  0  0  0  0  0  0  0  0  0  # atno 17320 bound_to 7965
  144.9492  140.8160  143.5582 LP  0  0  0  0  0  0  0  0  0  0  0  0  # atno 17321 bound_to 7965
  139.5914  144.1490  152.2093 LP  0  0  0  0  0  0  0  0  0  0  0  0  # atno 17342 bound_to 10162
  140.0846  144.5672  150.7098 LP  0  0  0  0  0  0  0  0  0  0  0  0  # atno 17343 bound_to 10162
  157.7303  131.0617  150.5731 LP  0  0  0  0  0  0  0  0  0  0  0  0  # atno 17370 bound_to 10713
  156.5833  130.4310  149.5968 LP  0  0  0  0  0  0  0  0  0  0  0  0  # atno 17371 bound_to 10713
  139.9367  134.7863  156.0785 LP  0  0  0  0  0  0  0  0  0  0  0  0  # atno 17394 bound_to 11000
  141.1062  133.6659  156.2870 LP  0  0  0  0  0  0  0  0  0  0  0  0  # atno 17395 bound_to 11000

$$$$
