AV-unprocessed.smi:3044|AV-procd|sdf|11605|dock8
  -GOLD-   2272016583D 1   1.00000     0.00000
 Structure written by MMmdl.
 41 42  0  0  0  0  0  0  0  0  1 V2000
  150.7007  138.1875  154.2612 C   0  0  0  0  0  0  0  0  0  0  0  0
  149.6013  139.2362  154.2789 C   0  0  0  0  0  0  0  0  0  0  0  0
  150.0152  140.5081  154.4746 N   0  0  0  0  0  0  0  0  0  0  0  0
  149.0852  141.4855  154.4974 C   0  0  0  0  0  0  0  0  0  0  0  0
  147.7096  141.2457  154.3200 C   0  0  0  0  0  0  0  0  0  0  0  0
  147.2799  139.9208  154.1171 C   0  0  0  0  0  0  0  0  0  0  0  0
  148.2407  138.8809  154.1070 C   0  0  0  0  0  0  0  0  0  0  0  0
  147.9114  137.5147  153.8912 N   0  0  0  0  0  0  0  0  0  0  0  0
  146.7713  136.8612  154.1839 C   0  0  0  0  0  0  0  0  0  0  0  0
  145.7727  137.3832  154.6775 O   0  0  0  0  0  0  0  0  0  0  0  0
  146.7536  135.3633  153.8713 C   0  0  0  0  0  0  0  0  0  0  0  0
  145.6734  135.0786  152.9910 O   0  0  0  0  0  0  0  0  0  0  0  0
  146.0480  134.7770  151.6536 C   0  0  2  0  0  0  0  0  0  0  0  0
  144.8317  134.8421  150.7071 C   0  0  0  0  0  0  0  0  0  0  0  0
  143.7888  133.7659  151.0494 C   0  0  0  0  0  0  0  0  0  0  0  0
  144.4136  132.3618  151.0477 C   0  0  0  0  0  0  0  0  0  0  0  0
  145.6201  132.2778  152.0018 C   0  0  1  0  0  0  0  0  0  0  0  0
  146.2482  130.8770  151.9921 C   0  0  0  0  0  0  0  0  0  0  0  0
  146.6597  133.3639  151.6550 C   0  0  0  0  0  0  0  0  0  0  0  0
  150.5316  137.4459  155.0426 H   0  0  0  0  0  0  0  0  0  0  0  0
  151.6827  138.6323  154.4271 H   0  0  0  0  0  0  0  0  0  0  0  0
  150.7212  137.6748  153.2991 H   0  0  0  0  0  0  0  0  0  0  0  0
  149.4489  142.4899  154.6549 H   0  0  0  0  0  0  0  0  0  0  0  0
  147.0011  142.0604  154.3339 H   0  0  0  0  0  0  0  0  0  0  0  0
  146.2298  139.7305  153.9591 H   0  0  0  0  0  0  0  0  0  0  0  0
  148.6690  136.9343  153.5606 H   0  0  0  0  0  0  0  0  0  0  0  0
  147.7075  135.0812  153.4253 H   0  0  0  0  0  0  0  0  0  0  0  0
  146.6409  134.8081  154.8035 H   0  0  0  0  0  0  0  0  0  0  0  0
  146.8132  135.4811  151.3219 H   0  0  0  0  0  0  0  0  0  0  0  0
  144.3705  135.8290  150.7291 H   0  0  0  0  0  0  0  0  0  0  0  0
  145.1715  134.6949  149.6812 H   0  0  0  0  0  0  0  0  0  0  0  0
  143.3555  133.9730  152.0289 H   0  0  0  0  0  0  0  0  0  0  0  0
  142.9668  133.8064  150.3342 H   0  0  0  0  0  0  0  0  0  0  0  0
  143.6602  131.6269  151.3329 H   0  0  0  0  0  0  0  0  0  0  0  0
  144.7263  132.1054  150.0344 H   0  0  0  0  0  0  0  0  0  0  0  0
  145.2598  132.4638  153.0149 H   0  0  0  0  0  0  0  0  0  0  0  0
  146.6348  130.6227  151.0049 H   0  0  0  0  0  0  0  0  0  0  0  0
  145.5173  130.1172  152.2700 H   0  0  0  0  0  0  0  0  0  0  0  0
  147.0748  130.8131  152.7002 H   0  0  0  0  0  0  0  0  0  0  0  0
  147.0856  133.1580  150.6721 H   0  0  0  0  0  0  0  0  0  0  0  0
  147.4901  133.3260  152.3610 H   0  0  0  0  0  0  0  0  0  0  0  0
  1  2  1  0  0  0  0
  1 20  1  0  0  0  0
  1 21  1  0  0  0  0
  1 22  1  0  0  0  0
  2  7  1  0  0  0  0
  2  3  2  0  0  0  0
  3  4  1  0  0  0  0
  4  5  2  0  0  0  0
  4 23  1  0  0  0  0
  5  6  1  0  0  0  0
  5 24  1  0  0  0  0
  6  7  2  0  0  0  0
  6 25  1  0  0  0  0
  7  8  1  0  0  0  0
  8  9  1  0  0  0  0
  8 26  1  0  0  0  0
  9 10  2  0  0  0  0
  9 11  1  0  0  0  0
 11 12  1  0  0  0  0
 11 27  1  0  0  0  0
 11 28  1  0  0  0  0
 12 13  1  0  0  0  0
 13 19  1  0  0  0  0
 13 14  1  0  0  0  0
 13 29  1  0  0  0  0
 14 15  1  0  0  0  0
 14 30  1  0  0  0  0
 14 31  1  0  0  0  0
 15 16  1  0  0  0  0
 15 32  1  0  0  0  0
 15 33  1  0  0  0  0
 16 17  1  0  0  0  0
 16 34  1  0  0  0  0
 16 35  1  0  0  0  0
 17 18  1  0  0  0  0
 17 19  1  0  0  0  0
 17 36  1  0  0  0  0
 18 37  1  0  0  0  0
 18 38  1  0  0  0  0
 18 39  1  0  0  0  0
 19 40  1  0  0  0  0
 19 41  1  0  0  0  0
M  END
> <s_m_source_file>
AV-unprocessed.smi

> <i_m_source_file_index>
3044

> <i_lp_mmshare_version>
43012

> <i_f3d_flags>
0

> <s_epik_input>
W0NIM11jMW5bY0hdW2NIXVtjSF1jMVtOSF1DKD1PKVtDSDJdT1tDQEBIXTJbQ0gyXVtDSDJdW0NIMl1bQ0BASF0oW0NIM10pW0NIMl0y

> <s_epik_cmdline>
J2VwaWtfcHl0aG9uJywgJy1waCcsICc3LjAnLCAnLXRuJywgJzgnLCAnLW1hJywgJzIwMCcsICctbWV0YWxfYmluZGluZycsICctaW1hZScsICc8aW5maWxlLm1hZT4nLCAnLW9tYWUnLCAnPG91dGZpbGUubWFlPic=

> <r_epik_Ionization_Penalty>
0.0077122

> <r_epik_Ionization_Penalty_Charging>
0

> <r_epik_Ionization_Penalty_Neutral>
0.0077122

> <r_epik_State_Penalty>
0.00577497

> <r_epik_Charging_Adjusted_Penalty>
0.00577497

> <i_epik_Tot_Q>
0

> <i_epik_Tot_abs_Q>
0

> <r_epik_Metal_State_Penalty>
-0

> <b_epik_Metal_Only>
0

> <s_lp_Force_Field>
OPLS_2005

> <r_lp_Energy>
17.2241

> <b_lp_Chiralities_Consistent>
1

> <s_lp_Variant>
AV-unprocessed.smi:3044-1

> <Gold.Version>
5.8.1

> <Gold.Id.Protein>
6NUR|6NUR_protein|mol2

> <Gold.PLP.Fitness>
38.3622

> <Gold.PLP.PLP>
-32.4379

> <Gold.PLP.part.hbond>
-2.0000

> <Gold.PLP.part.metal>
0.0000

> <Gold.PLP.part.buried>
-3.6384

> <Gold.PLP.part.nonpolar>
-27.5297

> <Gold.PLP.part.repulsive>
0.2547

> <Gold.PLP.ligand.clash>
0.0000

> <Gold.PLP.ligand.torsion>
0.6080

> <Gold.PLP.Chemscore.Hbond>
1.3760

> <Gold.PLP.Chemscore.CHOScore>
0.9998

> <Gold.PLP.Chemscore.Metal>
0.0000

> <Gold.Chemscore.Hbonds>
donor molecule, donor type, donor heavy atom, donor atom, acceptor molecule, acceptor atom, score
      L1  H     8    26       P1  7948  0.59
      P1  H  7989  7998       L1     3  0.86
      L1  C     4    23       P1  8028  1.00

> <Gold.PLP.Chemscore.Internal.Correction>
0.0129

> <Gold.Rescore>
     Score         DG    S(hbond)    S(metal)    S(lipo)     H(rot)  DE(clash)    DE(int)     intcor
     15.12     -17.09       1.35        0.00      89.20       1.31       0.25       1.72       ----

> <Gold.Chemscore.Fitness>
15.1154

> <Gold.Chemscore.DG>
-17.0904

> <Gold.Chemscore.ZeroCoef>
-5.4800

> <Gold.Chemscore.Hbond>
1.3527

> <Gold.Chemscore.Metal>
0.0000

> <Gold.Chemscore.Lipo>
89.2023

> <Gold.Chemscore.Internal_Hbond>
0.0000

> <Gold.Chemscore.DEClash>
0.2511

> <Gold.Chemscore.DEInternal>
1.7239

> <Gold.Chemscore.Rot>
1.3064

> <Gold.Chemscore.Internal.Correction>
   9.000000E+99

> <Gold.Chemscore.Hbonds>
donor molecule, donor type, donor heavy atom, donor atom, acceptor molecule, acceptor atom, score
      L1  H     8    26       P1  7948  0.60
      P1  H  7989  7998       L1     3  0.64

> <Gold.Chemscore.Hbond.Weighted>
-4.5180

> <Gold.Chemscore.Metal.Weighted>
-0.0000

> <Gold.Chemscore.Lipo.Weighted>
-10.4367

> <Gold.Chemscore.Internal_Hbond.Weighted>
0.0000

> <Gold.Chemscore.DEClash.Weighted>
0.2511

> <Gold.Chemscore.DEInternal.Weighted>
1.7239

> <Gold.Chemscore.Rot.Weighted>
3.3443

> <Gold.Chemscore.Internal.Correction.Weighted>
   9.000000E+99

> <Gold.Protein.RotatedTorsions>
[ 6907 6896 6895 6894 ] final  178.23 input  -60.11 | X-H torsion
[ 7974 7965 7964 7962 ] final -120.09 input  175.53 | X-H torsion
[ 8008 7997 7996 7995 ] final   48.59 input   59.86 | X-H torsion
[ 10167 10162 10161 10158 ] final   17.39 input  -65.29 | X-H torsion
[ 10718 10713 10712 10709 ] final   10.52 input   66.30 | X-H torsion
[ 10763 10752 10751 10750 ] final   95.68 input  -60.55 | X-H torsion
[ 11005 11000 10999 10996 ] final  -46.39 input  -57.11 | X-H torsion

> <Gold.Protein.ActiveResidues>
 VAL166  LYS551  ARG553  GLY616  TRP617  ASP618  TYR619  PRO620  LYS621  CYS622 
 ASP623  PHE694  ASN695  SER759  ASP760  ASP761  ALA762  ILE779  LEU786  VAL792 
 PHE793  MET794  SER795  GLU796  ALA797  LYS798  CYS799  TRP800  GLU811  SER814 

> <Gold.Protein.RotatedAtoms>
  151.6912  133.3311  159.3243 H   0  0  0  0  0  0  0  0  0  0  0  0  # atno 6907 bound_to 6896
  150.7778  134.6697  159.6394 H   0  0  0  0  0  0  0  0  0  0  0  0  # atno 6908 bound_to 6896
  152.3826  134.6570  160.0189 H   0  0  0  0  0  0  0  0  0  0  0  0  # atno 6909 bound_to 6896
  145.0552  140.8249  143.4185 H   0  0  0  0  0  0  0  0  0  0  0  0  # atno 7974 bound_to 7965
  155.3882  140.3432  155.4250 H   0  0  0  0  0  0  0  0  0  0  0  0  # atno 8008 bound_to 7997
  156.1572  140.1589  156.8705 H   0  0  0  0  0  0  0  0  0  0  0  0  # atno 8009 bound_to 7997
  154.5106  140.0791  156.7964 H   0  0  0  0  0  0  0  0  0  0  0  0  # atno 8010 bound_to 7997
  140.5729  143.9127  150.6727 H   0  0  0  0  0  0  0  0  0  0  0  0  # atno 10167 bound_to 10162
  156.9821  130.6010  149.5678 H   0  0  0  0  0  0  0  0  0  0  0  0  # atno 10718 bound_to 10713
  153.2561  135.4245  155.0847 H   0  0  0  0  0  0  0  0  0  0  0  0  # atno 10763 bound_to 10752
  154.8401  135.3437  154.6444 H   0  0  0  0  0  0  0  0  0  0  0  0  # atno 10764 bound_to 10752
  153.6865  135.7036  153.5159 H   0  0  0  0  0  0  0  0  0  0  0  0  # atno 10765 bound_to 10752
  141.0576  133.6720  156.3148 H   0  0  0  0  0  0  0  0  0  0  0  0  # atno 11005 bound_to 11000
  145.1477  139.2533  143.5457 LP  0  0  0  0  0  0  0  0  0  0  0  0  # atno 17320 bound_to 7965
  146.3521  140.1171  142.8601 LP  0  0  0  0  0  0  0  0  0  0  0  0  # atno 17321 bound_to 7965
  140.2607  143.3526  152.1325 LP  0  0  0  0  0  0  0  0  0  0  0  0  # atno 17342 bound_to 10162
  139.5127  144.6921  151.5731 LP  0  0  0  0  0  0  0  0  0  0  0  0  # atno 17343 bound_to 10162
  156.0240  130.5334  150.8356 LP  0  0  0  0  0  0  0  0  0  0  0  0  # atno 17370 bound_to 10713
  157.5519  131.0944  150.9684 LP  0  0  0  0  0  0  0  0  0  0  0  0  # atno 17371 bound_to 10713
  140.5933  134.5628  157.5504 LP  0  0  0  0  0  0  0  0  0  0  0  0  # atno 17394 bound_to 11000
  139.9404  134.7798  156.0694 LP  0  0  0  0  0  0  0  0  0  0  0  0  # atno 17395 bound_to 11000

$$$$
