AV-unprocessed.smi:1574|AV-procd|sdf|6338|dock7
  -GOLD-   22720 6553D 1   1.00000     0.00000
 Structure written by MMmdl.
 40 41  0  0  0  0  0  0  0  0  1 V2000
  153.0913  141.8766  161.6624 C   0  0  0  0  0  0  0  0  0  0  0  0
  152.3202  142.8118  160.7170 C   0  0  1  0  0  0  0  0  0  0  0  0
  152.2049  144.2258  161.3225 C   0  0  0  0  0  0  0  0  0  0  0  0
  151.4461  145.1855  160.3929 C   0  0  0  0  0  0  0  0  0  0  0  0
  152.1021  145.2446  159.0065 C   0  0  0  0  0  0  0  0  0  0  0  0
  152.2095  143.8425  158.3928 C   0  0  0  0  0  0  0  0  0  0  0  0
  152.9706  142.8695  159.3167 C   0  0  2  0  0  0  0  0  0  0  0  0
  152.9099  141.5710  158.7426 O   0  0  0  0  0  0  0  0  0  0  0  0
  151.5973  141.0368  158.6494 C   0  0  0  0  0  0  0  0  0  0  0  0
  151.1841  141.0051  157.1715 C   0  0  0  0  0  0  0  0  0  0  0  0
  151.4366  139.6936  156.5840 N   0  0  0  0  0  0  0  0  0  0  0  0
  151.1324  139.3429  155.3245 C   0  0  0  0  0  0  0  0  0  0  0  0
  150.6589  140.1232  154.4990 O   0  0  0  0  0  0  0  0  0  0  0  0
  151.3857  137.8858  154.9382 C   0  0  0  0  0  0  0  0  0  0  0  0
  151.3788  137.0273  156.1083 N   0  0  0  0  0  0  0  0  0  0  0  0
  150.4353  136.8020  157.0247 C   0  0  0  0  0  0  0  0  0  0  0  0
  150.8402  135.9365  157.9418 N   0  0  0  0  0  0  0  0  0  0  0  0
  152.1248  135.6215  157.5316 N   0  0  0  0  0  0  0  0  0  0  0  0
  152.4507  136.2670  156.4455 N   0  0  0  0  0  0  0  0  0  0  0  0
  154.1185  142.2143  161.8033 H   0  0  0  0  0  0  0  0  0  0  0  0
  153.1268  140.8594  161.2717 H   0  0  0  0  0  0  0  0  0  0  0  0
  152.6179  141.8331  162.6436 H   0  0  0  0  0  0  0  0  0  0  0  0
  151.3104  142.4133  160.6064 H   0  0  0  0  0  0  0  0  0  0  0  0
  151.6976  144.1785  162.2868 H   0  0  0  0  0  0  0  0  0  0  0  0
  153.2011  144.6250  161.5188 H   0  0  0  0  0  0  0  0  0  0  0  0
  150.4106  144.8576  160.2939 H   0  0  0  0  0  0  0  0  0  0  0  0
  151.4149  146.1830  160.8323 H   0  0  0  0  0  0  0  0  0  0  0  0
  151.5239  145.8937  158.3482 H   0  0  0  0  0  0  0  0  0  0  0  0
  153.0957  145.6872  159.0866 H   0  0  0  0  0  0  0  0  0  0  0  0
  151.2077  143.4530  158.2146 H   0  0  0  0  0  0  0  0  0  0  0  0
  152.6897  143.9080  157.4166 H   0  0  0  0  0  0  0  0  0  0  0  0
  154.0083  143.1921  159.4260 H   0  0  0  0  0  0  0  0  0  0  0  0
  151.5381  140.0338  159.0736 H   0  0  0  0  0  0  0  0  0  0  0  0
  150.9153  141.6650  159.2234 H   0  0  0  0  0  0  0  0  0  0  0  0
  150.1288  141.2627  157.0682 H   0  0  0  0  0  0  0  0  0  0  0  0
  151.7443  141.7534  156.6102 H   0  0  0  0  0  0  0  0  0  0  0  0
  151.8239  138.9896  157.1953 H   0  0  0  0  0  0  0  0  0  0  0  0
  150.6201  137.5437  154.2402 H   0  0  0  0  0  0  0  0  0  0  0  0
  152.3482  137.7915  154.4334 H   0  0  0  0  0  0  0  0  0  0  0  0
  149.4608  137.2670  157.0198 H   0  0  0  0  0  0  0  0  0  0  0  0
  1  2  1  0  0  0  0
  1 20  1  0  0  0  0
  1 21  1  0  0  0  0
  1 22  1  0  0  0  0
  2  7  1  0  0  0  0
  2  3  1  0  0  0  0
  2 23  1  0  0  0  0
  3  4  1  0  0  0  0
  3 24  1  0  0  0  0
  3 25  1  0  0  0  0
  4  5  1  0  0  0  0
  4 26  1  0  0  0  0
  4 27  1  0  0  0  0
  5  6  1  0  0  0  0
  5 28  1  0  0  0  0
  5 29  1  0  0  0  0
  6  7  1  0  0  0  0
  6 30  1  0  0  0  0
  6 31  1  0  0  0  0
  7  8  1  0  0  0  0
  7 32  1  0  0  0  0
  8  9  1  0  0  0  0
  9 10  1  0  0  0  0
  9 33  1  0  0  0  0
  9 34  1  0  0  0  0
 10 11  1  0  0  0  0
 10 35  1  0  0  0  0
 10 36  1  0  0  0  0
 11 12  1  0  0  0  0
 11 37  1  0  0  0  0
 12 13  2  0  0  0  0
 12 14  1  0  0  0  0
 14 15  1  0  0  0  0
 14 38  1  0  0  0  0
 14 39  1  0  0  0  0
 15 19  1  0  0  0  0
 15 16  1  0  0  0  0
 16 17  2  0  0  0  0
 16 40  1  0  0  0  0
 17 18  1  0  0  0  0
 18 19  2  0  0  0  0
M  END
> <s_m_source_file>
AV-unprocessed.smi

> <i_m_source_file_index>
1574

> <i_lp_mmshare_version>
43012

> <i_f3d_flags>
0

> <s_epik_input>
W0NIM11bQ0BASF0xW0NIMl1bQ0gyXVtDSDJdW0NIMl1bQ0BIXTFPW0NIMl1bQ0gyXVtOSF1DKD1PKVtDSDJdbjJbY0hdbm5uMg==

> <s_epik_cmdline>
J2VwaWtfcHl0aG9uJywgJy1waCcsICc3LjAnLCAnLXRuJywgJzgnLCAnLW1hJywgJzIwMCcsICctbWV0YWxfYmluZGluZycsICctaW1hZScsICc8aW5maWxlLm1hZT4nLCAnLW9tYWUnLCAnPG91dGZpbGUubWFlPic=

> <r_lp_tautomer_probability>
1

> <r_epik_Ionization_Penalty>
1.44269e-06

> <r_epik_Ionization_Penalty_Charging>
0

> <r_epik_Ionization_Penalty_Neutral>
1.44269e-06

> <r_epik_State_Penalty>
-0

> <r_epik_Charging_Adjusted_Penalty>
0

> <i_epik_Tot_Q>
0

> <i_epik_Tot_abs_Q>
0

> <r_epik_Metal_State_Penalty>
-0

> <b_epik_Metal_Only>
0

> <s_lp_Force_Field>
OPLS_2005

> <r_lp_Energy>
11.2802

> <b_lp_Chiralities_Consistent>
1

> <s_lp_Variant>
AV-unprocessed.smi:1574-4

> <Gold.Version>
5.8.1

> <Gold.Id.Protein>
6NUR|6NUR_protein|mol2

> <Gold.PLP.Fitness>
49.4811

> <Gold.PLP.PLP>
-43.8375

> <Gold.PLP.part.hbond>
-3.9955

> <Gold.PLP.part.metal>
0.0000

> <Gold.PLP.part.buried>
-5.2572

> <Gold.PLP.part.nonpolar>
-35.1743

> <Gold.PLP.part.repulsive>
0.2025

> <Gold.PLP.ligand.clash>
0.0000

> <Gold.PLP.ligand.torsion>
0.9439

> <Gold.PLP.Chemscore.Hbond>
2.4800

> <Gold.PLP.Chemscore.CHOScore>
0.0000

> <Gold.PLP.Chemscore.Metal>
0.0000

> <Gold.Chemscore.Hbonds>
donor molecule, donor type, donor heavy atom, donor atom, acceptor molecule, acceptor atom, score
      P1  H  6896  6909       L1    17  0.41
      P1  H  7989  7998       L1    13  1.00
      P1  H 10752 10763       L1    19  1.00

> <Gold.PLP.Chemscore.Internal.Correction>
0.0913

> <Gold.Rescore>
     Score         DG    S(hbond)    S(metal)    S(lipo)     H(rot)  DE(clash)    DE(int)     intcor
     15.83     -17.51       2.19        0.00     103.78       2.90       0.02       1.66       ----

> <Gold.Chemscore.Fitness>
15.8298

> <Gold.Chemscore.DG>
-17.5101

> <Gold.Chemscore.ZeroCoef>
-5.4800

> <Gold.Chemscore.Hbond>
2.1931

> <Gold.Chemscore.Metal>
0.0000

> <Gold.Chemscore.Lipo>
103.7778

> <Gold.Chemscore.Internal_Hbond>
0.0000

> <Gold.Chemscore.DEClash>
0.0163

> <Gold.Chemscore.DEInternal>
1.6640

> <Gold.Chemscore.Rot>
2.9050

> <Gold.Chemscore.Internal.Correction>
   9.000000E+99

> <Gold.Chemscore.Hbonds>
donor molecule, donor type, donor heavy atom, donor atom, acceptor molecule, acceptor atom, score
      P1  H  6896  6909       L1    17  0.06
      P1  H  7989  7998       L1    13  0.96
      P1  H 10752 10763       L1    19  0.93

> <Gold.Chemscore.Hbond.Weighted>
-7.3248

> <Gold.Chemscore.Metal.Weighted>
-0.0000

> <Gold.Chemscore.Lipo.Weighted>
-12.1420

> <Gold.Chemscore.Internal_Hbond.Weighted>
0.0000

> <Gold.Chemscore.DEClash.Weighted>
0.0163

> <Gold.Chemscore.DEInternal.Weighted>
1.6640

> <Gold.Chemscore.Rot.Weighted>
7.4367

> <Gold.Chemscore.Internal.Correction.Weighted>
   9.000000E+99

> <Gold.Protein.RotatedTorsions>
[ 6907 6896 6895 6894 ] final   73.71 input  -60.11 | X-H torsion
[ 7974 7965 7964 7962 ] final -115.39 input  175.53 | X-H torsion
[ 8008 7997 7996 7995 ] final -117.47 input   59.86 | X-H torsion
[ 10167 10162 10161 10158 ] final  138.19 input  -65.29 | X-H torsion
[ 10718 10713 10712 10709 ] final  178.95 input   66.30 | X-H torsion
[ 10763 10752 10751 10750 ] final  112.42 input  -60.55 | X-H torsion
[ 11005 11000 10999 10996 ] final  124.74 input  -57.11 | X-H torsion

> <Gold.Protein.ActiveResidues>
 VAL166  LYS551  ARG553  GLY616  TRP617  ASP618  TYR619  PRO620  LYS621  CYS622 
 ASP623  PHE694  ASN695  SER759  ASP760  ASP761  ALA762  ILE779  LEU786  VAL792 
 PHE793  MET794  SER795  GLU796  ALA797  LYS798  CYS799  TRP800  GLU811  SER814 

> <Gold.Protein.RotatedAtoms>
  152.4937  134.4381  159.9534 H   0  0  0  0  0  0  0  0  0  0  0  0  # atno 6907 bound_to 6896
  151.4364  133.3649  159.2783 H   0  0  0  0  0  0  0  0  0  0  0  0  # atno 6908 bound_to 6896
  150.9118  134.8559  159.7490 H   0  0  0  0  0  0  0  0  0  0  0  0  # atno 6909 bound_to 6896
  145.1089  140.8599  143.3882 H   0  0  0  0  0  0  0  0  0  0  0  0  # atno 7974 bound_to 7965
  155.0842  140.0394  157.2648 H   0  0  0  0  0  0  0  0  0  0  0  0  # atno 8008 bound_to 7997
  154.6883  140.2648  155.6814 H   0  0  0  0  0  0  0  0  0  0  0  0  # atno 8009 bound_to 7997
  156.2719  140.2765  156.1451 H   0  0  0  0  0  0  0  0  0  0  0  0  # atno 8010 bound_to 7997
  139.5119  144.6367  151.5677 H   0  0  0  0  0  0  0  0  0  0  0  0  # atno 10167 bound_to 10162
  156.8830  130.9822  151.3059 H   0  0  0  0  0  0  0  0  0  0  0  0  # atno 10718 bound_to 10713
  153.4776  135.3686  155.2425 H   0  0  0  0  0  0  0  0  0  0  0  0  # atno 10763 bound_to 10752
  154.8756  135.3946  154.3738 H   0  0  0  0  0  0  0  0  0  0  0  0  # atno 10764 bound_to 10752
  153.4336  135.7083  153.6279 H   0  0  0  0  0  0  0  0  0  0  0  0  # atno 10765 bound_to 10752
  139.9373  134.9638  156.8455 H   0  0  0  0  0  0  0  0  0  0  0  0  # atno 11005 bound_to 11000
  145.0870  139.2918  143.5754 LP  0  0  0  0  0  0  0  0  0  0  0  0  # atno 17320 bound_to 7965
  146.3527  140.0394  142.8644 LP  0  0  0  0  0  0  0  0  0  0  0  0  # atno 17321 bound_to 7965
  140.6119  143.9421  150.6459 LP  0  0  0  0  0  0  0  0  0  0  0  0  # atno 17342 bound_to 10162
  140.2666  143.3486  152.1275 LP  0  0  0  0  0  0  0  0  0  0  0  0  # atno 17343 bound_to 10162
  157.6129  130.8596  149.8981 LP  0  0  0  0  0  0  0  0  0  0  0  0  # atno 17370 bound_to 10713
  156.0668  130.3691  150.0862 LP  0  0  0  0  0  0  0  0  0  0  0  0  # atno 17371 bound_to 10713
  140.6042  134.0143  155.7550 LP  0  0  0  0  0  0  0  0  0  0  0  0  # atno 17394 bound_to 11000
  141.0993  133.9794  157.3107 LP  0  0  0  0  0  0  0  0  0  0  0  0  # atno 17395 bound_to 11000

$$$$
