AV-unprocessed.smi:2574|AV-procd|sdf|10115|dock5
  -GOLD-   2272014133D 1   1.00000     0.00000
 Structure written by MMmdl.
 38 40  0  0  0  0  0  0  0  0  1 V2000
  153.3353  138.6164  158.9179 O   0  0  0  0  0  0  0  0  0  0  0  0
  153.0947  139.8034  159.1427 C   0  0  0  0  0  0  0  0  0  0  0  0
  153.7912  140.5930  160.1697 C   0  0  0  0  0  0  0  0  0  0  0  0
  154.8570  139.8939  161.0094 C   0  0  0  0  0  0  0  0  0  0  0  0
  156.0295  139.8424  160.3754 F   0  0  0  0  0  0  0  0  0  0  0  0
  155.0451  140.5379  162.1621 F   0  0  0  0  0  0  0  0  0  0  0  0
  154.4872  138.6431  161.2861 F   0  0  0  0  0  0  0  0  0  0  0  0
  153.4744  141.8978  160.3538 C   0  0  0  0  0  0  0  0  0  0  0  0
  152.4543  142.5255  159.5379 C   0  0  0  0  0  0  0  0  0  0  0  0
  152.0663  143.9699  159.6777 C   0  0  0  0  0  0  0  0  0  0  0  0
  150.9107  144.5598  158.9038 C   0  0  0  0  0  0  0  0  0  0  0  0
  152.3261  144.9836  158.5864 C   0  0  0  0  0  0  0  0  0  0  0  0
  151.8397  141.8286  158.6423 N   0  0  0  0  0  0  0  0  0  0  0  0
  152.1434  140.4956  158.4488 N   0  0  0  0  0  0  0  0  0  0  0  0
  151.3468  139.8523  157.3959 C   0  0  0  0  0  0  0  0  0  0  0  0
  151.4550  140.5877  156.0420 C   0  0  1  0  0  0  0  0  0  0  0  0
  152.5290  140.0340  155.3066 O   0  0  0  0  0  0  0  0  0  0  0  0
  150.1466  140.4997  155.2704 C   0  0  0  0  0  0  0  0  0  0  0  0
  149.6690  139.2584  154.7932 C   0  0  0  0  0  0  0  0  0  0  0  0
  148.4528  139.1896  154.0864 C   0  0  0  0  0  0  0  0  0  0  0  0
  147.7047  140.3600  153.8555 C   0  0  0  0  0  0  0  0  0  0  0  0
  148.1723  141.5989  154.3340 C   0  0  0  0  0  0  0  0  0  0  0  0
  149.3888  141.6683  155.0406 C   0  0  0  0  0  0  0  0  0  0  0  0
  153.9708  142.4925  161.1058 H   0  0  0  0  0  0  0  0  0  0  0  0
  152.1984  144.3065  160.7044 H   0  0  0  0  0  0  0  0  0  0  0  0
  150.4044  143.9255  158.1785 H   0  0  0  0  0  0  0  0  0  0  0  0
  150.2750  145.2755  159.4210 H   0  0  0  0  0  0  0  0  0  0  0  0
  152.6311  145.9825  158.8913 H   0  0  0  0  0  0  0  0  0  0  0  0
  152.7489  144.6351  157.6460 H   0  0  0  0  0  0  0  0  0  0  0  0
  151.6175  138.8006  157.2809 H   0  0  0  0  0  0  0  0  0  0  0  0
  150.3044  139.8393  157.7203 H   0  0  0  0  0  0  0  0  0  0  0  0
  151.6810  141.6426  156.2020 H   0  0  0  0  0  0  0  0  0  0  0  0
  152.3715  139.1082  155.2005 H   0  0  0  0  0  0  0  0  0  0  0  0
  150.2331  138.3538  154.9688 H   0  0  0  0  0  0  0  0  0  0  0  0
  148.0937  138.2386  153.7215 H   0  0  0  0  0  0  0  0  0  0  0  0
  146.7721  140.3075  153.3131 H   0  0  0  0  0  0  0  0  0  0  0  0
  147.5979  142.4968  154.1603 H   0  0  0  0  0  0  0  0  0  0  0  0
  149.7372  142.6229  155.4073 H   0  0  0  0  0  0  0  0  0  0  0  0
  1  2  2  0  0  0  0
  2 14  1  0  0  0  0
  2  3  1  0  0  0  0
  3  4  1  0  0  0  0
  3  8  2  0  0  0  0
  4  5  1  0  0  0  0
  4  6  1  0  0  0  0
  4  7  1  0  0  0  0
  8  9  1  0  0  0  0
  8 24  1  0  0  0  0
  9 10  1  0  0  0  0
  9 13  2  0  0  0  0
 10 12  1  0  0  0  0
 10 11  1  0  0  0  0
 10 25  1  0  0  0  0
 11 12  1  0  0  0  0
 11 26  1  0  0  0  0
 11 27  1  0  0  0  0
 12 28  1  0  0  0  0
 12 29  1  0  0  0  0
 13 14  1  0  0  0  0
 14 15  1  0  0  0  0
 15 16  1  0  0  0  0
 15 30  1  0  0  0  0
 15 31  1  0  0  0  0
 16 17  1  0  0  0  0
 16 18  1  0  0  0  0
 16 32  1  0  0  0  0
 17 33  1  0  0  0  0
 18 23  1  0  0  0  0
 18 19  2  0  0  0  0
 19 20  1  0  0  0  0
 19 34  1  0  0  0  0
 20 21  2  0  0  0  0
 20 35  1  0  0  0  0
 21 22  1  0  0  0  0
 21 36  1  0  0  0  0
 22 23  2  0  0  0  0
 22 37  1  0  0  0  0
 23 38  1  0  0  0  0
M  END
> <s_m_source_file>
AV-unprocessed.smi

> <i_m_source_file_index>
2574

> <i_lp_mmshare_version>
43012

> <i_f3d_flags>
0

> <s_epik_input>
Tz1jMWMoQyhGKShGKUYpW2NIXWMoW0NIXTJbQ0gyXVtDSDJdMilubjFbQ0gyXVtDQEhdKFtPSF0pYzNbY0hdW2NIXVtjSF1bY0hdW2NIXTM=

> <s_epik_cmdline>
J2VwaWtfcHl0aG9uJywgJy1waCcsICc3LjAnLCAnLXRuJywgJzgnLCAnLW1hJywgJzIwMCcsICctbWV0YWxfYmluZGluZycsICctaW1hZScsICc8aW5maWxlLm1hZT4nLCAnLW9tYWUnLCAnPG91dGZpbGUubWFlPic=

> <r_lp_tautomer_probability>
1

> <r_epik_Ionization_Penalty>
7.26807e-08

> <r_epik_Ionization_Penalty_Charging>
9.677e-10

> <r_epik_Ionization_Penalty_Neutral>
7.1713e-08

> <r_epik_State_Penalty>
-0

> <r_epik_Charging_Adjusted_Penalty>
9.677e-10

> <i_epik_Tot_Q>
0

> <i_epik_Tot_abs_Q>
0

> <r_epik_Metal_State_Penalty>
-0

> <b_epik_Metal_Only>
0

> <s_lp_Force_Field>
OPLS_2005

> <r_lp_Energy>
33.5512

> <b_lp_Chiralities_Consistent>
1

> <s_lp_Variant>
AV-unprocessed.smi:2574-2

> <Gold.Version>
5.8.1

> <Gold.Id.Protein>
6NUR|6NUR_protein|mol2

> <Gold.PLP.Fitness>
54.6449

> <Gold.PLP.PLP>
-53.8331

> <Gold.PLP.part.hbond>
-2.0000

> <Gold.PLP.part.metal>
0.0000

> <Gold.PLP.part.buried>
-1.6578

> <Gold.PLP.part.nonpolar>
-49.1114

> <Gold.PLP.part.repulsive>
0.0000

> <Gold.PLP.ligand.clash>
0.0000

> <Gold.PLP.ligand.torsion>
1.5111

> <Gold.PLP.Chemscore.Hbond>
1.0711

> <Gold.PLP.Chemscore.CHOScore>
0.0000

> <Gold.PLP.Chemscore.Metal>
0.0000

> <Gold.Chemscore.Hbonds>
donor molecule, donor type, donor heavy atom, donor atom, acceptor molecule, acceptor atom, score
      P1  H  7989  7998       L1    17  0.18
      P1  H  7997  8009       L1    17  0.99

> <Gold.PLP.Chemscore.Internal.Correction>
0.6207

> <Gold.Rescore>
     Score         DG    S(hbond)    S(metal)    S(lipo)     H(rot)  DE(clash)    DE(int)     intcor
     15.71     -18.03       0.86        0.00     128.44       2.09       0.05       2.27       ----

> <Gold.Chemscore.Fitness>
15.7104

> <Gold.Chemscore.DG>
-18.0318

> <Gold.Chemscore.ZeroCoef>
-5.4800

> <Gold.Chemscore.Hbond>
0.8610

> <Gold.Chemscore.Metal>
0.0000

> <Gold.Chemscore.Lipo>
128.4444

> <Gold.Chemscore.Internal_Hbond>
0.0000

> <Gold.Chemscore.DEClash>
0.0466

> <Gold.Chemscore.DEInternal>
2.2747

> <Gold.Chemscore.Rot>
2.0906

> <Gold.Chemscore.Internal.Correction>
   9.000000E+99

> <Gold.Chemscore.Hbonds>
donor molecule, donor type, donor heavy atom, donor atom, acceptor molecule, acceptor atom, score
      P1  H  7997  8009       L1    17  0.41

> <Gold.Chemscore.Hbond.Weighted>
-2.8758

> <Gold.Chemscore.Metal.Weighted>
-0.0000

> <Gold.Chemscore.Lipo.Weighted>
-15.0280

> <Gold.Chemscore.Internal_Hbond.Weighted>
0.0000

> <Gold.Chemscore.DEClash.Weighted>
0.0466

> <Gold.Chemscore.DEInternal.Weighted>
2.2747

> <Gold.Chemscore.Rot.Weighted>
5.3520

> <Gold.Chemscore.Internal.Correction.Weighted>
   9.000000E+99

> <Gold.Protein.RotatedTorsions>
[ 6907 6896 6895 6894 ] final  155.34 input  -60.11 | X-H torsion
[ 7974 7965 7964 7962 ] final  107.54 input  175.53 | X-H torsion
[ 8008 7997 7996 7995 ] final -157.45 input   59.86 | X-H torsion
[ 10167 10162 10161 10158 ] final  -89.40 input  -65.29 | X-H torsion
[ 10718 10713 10712 10709 ] final  -76.17 input   66.30 | X-H torsion
[ 10763 10752 10751 10750 ] final  114.48 input  -60.55 | X-H torsion
[ 11005 11000 10999 10996 ] final -101.53 input  -57.11 | X-H torsion

> <Gold.Protein.ActiveResidues>
 VAL166  LYS551  ARG553  GLY616  TRP617  ASP618  TYR619  PRO620  LYS621  CYS622 
 ASP623  PHE694  ASN695  SER759  ASP760  ASP761  ALA762  ILE779  LEU786  VAL792 
 PHE793  MET794  SER795  GLU796  ALA797  LYS798  CYS799  TRP800  GLU811  SER814 

> <Gold.Protein.RotatedAtoms>
  152.0456  133.3996  159.4354 H   0  0  0  0  0  0  0  0  0  0  0  0  # atno 6907 bound_to 6896
  150.6873  134.3366  159.4859 H   0  0  0  0  0  0  0  0  0  0  0  0  # atno 6908 bound_to 6896
  152.1170  134.9233  160.0615 H   0  0  0  0  0  0  0  0  0  0  0  0  # atno 6909 bound_to 6896
  145.2923  139.2596  143.3858 H   0  0  0  0  0  0  0  0  0  0  0  0  # atno 7974 bound_to 7965
  155.7326  140.0804  157.2282 H   0  0  0  0  0  0  0  0  0  0  0  0  # atno 8008 bound_to 7997
  154.4031  140.1592  156.2580 H   0  0  0  0  0  0  0  0  0  0  0  0  # atno 8009 bound_to 7997
  155.9095  140.3405  155.6090 H   0  0  0  0  0  0  0  0  0  0  0  0  # atno 8010 bound_to 7997
  140.3652  143.2822  151.9566 H   0  0  0  0  0  0  0  0  0  0  0  0  # atno 10167 bound_to 10162
  156.0183  130.4459  150.3154 H   0  0  0  0  0  0  0  0  0  0  0  0  # atno 10718 bound_to 10713
  153.5079  135.3624  155.2572 H   0  0  0  0  0  0  0  0  0  0  0  0  # atno 10763 bound_to 10752
  154.8744  135.4015  154.3403 H   0  0  0  0  0  0  0  0  0  0  0  0  # atno 10764 bound_to 10752
  153.4051  135.7076  153.6465 H   0  0  0  0  0  0  0  0  0  0  0  0  # atno 10765 bound_to 10752
  141.1227  133.8485  157.1243 H   0  0  0  0  0  0  0  0  0  0  0  0  # atno 11005 bound_to 11000
  146.3180  140.3417  142.8648 LP  0  0  0  0  0  0  0  0  0  0  0  0  # atno 17320 bound_to 7965
  144.9162  140.7815  143.5776 LP  0  0  0  0  0  0  0  0  0  0  0  0  # atno 17321 bound_to 7965
  139.4809  144.5957  151.7695 LP  0  0  0  0  0  0  0  0  0  0  0  0  # atno 17342 bound_to 10162
  140.5088  144.1057  150.5989 LP  0  0  0  0  0  0  0  0  0  0  0  0  # atno 17343 bound_to 10162
  157.1255  131.0258  151.2991 LP  0  0  0  0  0  0  0  0  0  0  0  0  # atno 17370 bound_to 10713
  157.4593  130.7644  149.7222 LP  0  0  0  0  0  0  0  0  0  0  0  0  # atno 17371 bound_to 10713
  140.0198  134.9951  157.0568 LP  0  0  0  0  0  0  0  0  0  0  0  0  # atno 17394 bound_to 11000
  140.4459  134.1632  155.7177 LP  0  0  0  0  0  0  0  0  0  0  0  0  # atno 17395 bound_to 11000

$$$$
