AV-unprocessed.smi:203|AV-procd|sdf|1596|dock2
  -GOLD-   2262019503D 1   1.00000     0.00000
 Structure written by MMmdl.
 57 61  0  0  0  0  0  0  0  0  1 V2000
  141.6922  138.6601  160.8871 O   0  0  0  0  0  0  0  0  0  0  0  0
  142.5733  137.9332  160.4347 C   0  0  0  0  0  0  0  0  0  0  0  0
  143.8715  138.4568  159.8444 C   0  0  0  0  0  0  0  0  0  0  0  0
  144.7238  137.1861  159.6552 C   0  0  1  0  0  0  0  0  0  0  0  0
  145.9538  137.0994  160.6140 C   0  0  1  0  0  0  0  0  0  0  0  0
  145.5456  137.0501  162.1106 C   0  0  0  0  0  0  0  0  0  0  0  0
  146.7689  136.9632  163.0326 C   0  0  0  0  0  0  0  0  0  0  0  0
  147.6302  135.7573  162.6441 C   0  0  0  0  0  0  0  0  0  0  0  0
  148.0256  135.8394  161.1642 C   0  0  0  0  0  0  0  0  0  0  0  0
  146.8490  135.9695  160.3050 N   0  0  0  0  0  0  0  0  0  0  0  0
  147.1964  135.8049  159.0090 C   0  0  0  0  0  0  0  0  0  0  0  0
  146.2731  135.2466  158.1885 N   0  0  0  0  0  0  0  0  0  0  0  0
  146.5567  135.0577  156.8962 C   0  0  0  0  0  0  0  0  0  0  0  0
  147.6807  135.3468  156.2365 N   0  0  0  0  0  0  0  0  0  0  0  0
  148.6126  135.9026  157.0629 C   0  0  0  0  0  0  0  0  0  0  0  0
  148.4567  136.1639  158.4529 C   0  0  0  0  0  0  0  0  0  0  0  0
  149.6187  136.7305  158.9626 N   0  0  0  0  0  0  0  0  0  0  0  0
  150.4156  136.8034  157.9314 C   0  0  0  0  0  0  0  0  0  0  0  0
  149.8928  136.3249  156.7515 N   0  0  0  0  0  0  0  0  0  0  0  0
  150.5602  136.2834  155.4615 C   0  0  0  0  0  0  0  0  0  0  0  0
  151.0758  137.6694  155.0178 C   0  0  1  0  0  0  0  0  0  0  0  0
  152.0214  137.4782  153.9829 O   0  0  0  0  0  0  0  0  0  0  0  0
  149.9619  138.5855  154.4711 C   0  0  1  0  0  0  0  0  0  0  0  0
  148.6223  138.4782  155.2011 C   0  0  0  0  0  0  0  0  0  0  0  0
  147.9472  139.7998  154.8815 C   0  0  0  0  0  0  0  0  0  0  0  0
  149.1141  140.7299  154.5398 C   0  0  0  0  0  0  0  0  0  0  0  0
  150.2880  139.9462  154.7153 O   0  0  0  0  0  0  0  0  0  0  0  0
  143.7277  136.0143  159.8056 C   0  0  0  0  0  0  0  0  0  0  0  0
  142.5357  136.6034  160.3842 N   0  0  0  0  0  0  0  0  0  0  0  0
  143.6572  138.9311  158.8860 H   0  0  0  0  0  0  0  0  0  0  0  0
  144.3384  139.2013  160.4895 H   0  0  0  0  0  0  0  0  0  0  0  0
  145.0793  137.2031  158.6247 H   0  0  0  0  0  0  0  0  0  0  0  0
  146.5357  138.0112  160.4764 H   0  0  0  0  0  0  0  0  0  0  0  0
  144.9640  137.9296  162.3848 H   0  0  0  0  0  0  0  0  0  0  0  0
  144.9033  136.1898  162.3003 H   0  0  0  0  0  0  0  0  0  0  0  0
  147.3563  137.8790  162.9551 H   0  0  0  0  0  0  0  0  0  0  0  0
  146.4516  136.8803  164.0725 H   0  0  0  0  0  0  0  0  0  0  0  0
  148.5232  135.7156  163.2681 H   0  0  0  0  0  0  0  0  0  0  0  0
  147.0776  134.8347  162.8265 H   0  0  0  0  0  0  0  0  0  0  0  0
  148.6844  136.6947  161.0066 H   0  0  0  0  0  0  0  0  0  0  0  0
  148.5920  134.9477  160.8903 H   0  0  0  0  0  0  0  0  0  0  0  0
  145.7706  134.6099  156.3060 H   0  0  0  0  0  0  0  0  0  0  0  0
  151.4150  137.2074  158.0033 H   0  0  0  0  0  0  0  0  0  0  0  0
  151.3830  135.5690  155.5122 H   0  0  0  0  0  0  0  0  0  0  0  0
  149.8496  135.8871  154.7359 H   0  0  0  0  0  0  0  0  0  0  0  0
  151.5700  138.1552  155.8601 H   0  0  0  0  0  0  0  0  0  0  0  0
  151.5594  137.2352  153.1951 H   0  0  0  0  0  0  0  0  0  0  0  0
  149.8107  138.4262  153.4013 H   0  0  0  0  0  0  0  0  0  0  0  0
  148.0326  137.6172  154.8853 H   0  0  0  0  0  0  0  0  0  0  0  0
  148.7856  138.4021  156.2771 H   0  0  0  0  0  0  0  0  0  0  0  0
  147.2838  139.6976  154.0218 H   0  0  0  0  0  0  0  0  0  0  0  0
  147.3568  140.1649  155.7224 H   0  0  0  0  0  0  0  0  0  0  0  0
  149.0495  141.0655  153.5037 H   0  0  0  0  0  0  0  0  0  0  0  0
  149.1449  141.6109  155.1817 H   0  0  0  0  0  0  0  0  0  0  0  0
  143.4769  135.5919  158.8317 H   0  0  0  0  0  0  0  0  0  0  0  0
  144.1053  135.2031  160.4287 H   0  0  0  0  0  0  0  0  0  0  0  0
  141.7639  136.0466  160.7222 H   0  0  0  0  0  0  0  0  0  0  0  0
  1  2  2  0  0  0  0
  2 29  1  0  0  0  0
  2  3  1  0  0  0  0
  3  4  1  0  0  0  0
  3 30  1  0  0  0  0
  3 31  1  0  0  0  0
  4  5  1  0  0  0  0
  4 28  1  0  0  0  0
  4 32  1  0  0  0  0
  5 10  1  0  0  0  0
  5  6  1  0  0  0  0
  5 33  1  0  0  0  0
  6  7  1  0  0  0  0
  6 34  1  0  0  0  0
  6 35  1  0  0  0  0
  7  8  1  0  0  0  0
  7 36  1  0  0  0  0
  7 37  1  0  0  0  0
  8  9  1  0  0  0  0
  8 38  1  0  0  0  0
  8 39  1  0  0  0  0
  9 10  1  0  0  0  0
  9 40  1  0  0  0  0
  9 41  1  0  0  0  0
 10 11  1  0  0  0  0
 11 16  1  0  0  0  0
 11 12  2  0  0  0  0
 12 13  1  0  0  0  0
 13 14  2  0  0  0  0
 13 42  1  0  0  0  0
 14 15  1  0  0  0  0
 15 19  1  0  0  0  0
 15 16  2  0  0  0  0
 16 17  1  0  0  0  0
 17 18  2  0  0  0  0
 18 19  1  0  0  0  0
 18 43  1  0  0  0  0
 19 20  1  0  0  0  0
 20 21  1  0  0  0  0
 20 44  1  0  0  0  0
 20 45  1  0  0  0  0
 21 22  1  0  0  0  0
 21 23  1  0  0  0  0
 21 46  1  0  0  0  0
 22 47  1  0  0  0  0
 23 27  1  0  0  0  0
 23 24  1  0  0  0  0
 23 48  1  0  0  0  0
 24 25  1  0  0  0  0
 24 49  1  0  0  0  0
 24 50  1  0  0  0  0
 25 26  1  0  0  0  0
 25 51  1  0  0  0  0
 25 52  1  0  0  0  0
 26 27  1  0  0  0  0
 26 53  1  0  0  0  0
 26 54  1  0  0  0  0
 28 29  1  0  0  0  0
 28 55  1  0  0  0  0
 28 56  1  0  0  0  0
 29 57  1  0  0  0  0
M  END
> <s_m_source_file>
AV-unprocessed.smi

> <i_m_source_file_index>
203

> <i_lp_mmshare_version>
43012

> <i_f3d_flags>
0

> <s_epik_input>
Tz1DMVtDSDJdW0NASF0oW0NIMl1bTkhdMSlbQ0BASF0yW0NIMl1bQ0gyXVtDSDJdW0NIMl1OMmMobltjSF1uMyljKGMzNCluW2NIXW40W0NIMl1bQ0BIXShbT0hdKVtDQEBIXTVbQ0gyXVtDSDJdW0NIMl1PNQ==

> <s_epik_cmdline>
J2VwaWtfcHl0aG9uJywgJy1waCcsICc3LjAnLCAnLXRuJywgJzgnLCAnLW1hJywgJzIwMCcsICctbWV0YWxfYmluZGluZycsICctaW1hZScsICc8aW5maWxlLm1hZT4nLCAnLW9tYWUnLCAnPG91dGZpbGUubWFlPic=

> <r_lp_tautomer_probability>
1

> <r_epik_Ionization_Penalty>
0.00175146

> <r_epik_Ionization_Penalty_Charging>
0

> <r_epik_Ionization_Penalty_Neutral>
0.00175146

> <r_epik_State_Penalty>
0.00109045

> <r_epik_Charging_Adjusted_Penalty>
0.00109045

> <i_epik_Tot_Q>
0

> <i_epik_Tot_abs_Q>
0

> <r_epik_Metal_State_Penalty>
-0

> <b_epik_Metal_Only>
0

> <s_lp_Force_Field>
OPLS_2005

> <r_lp_Energy>
57.4119

> <b_lp_Chiralities_Consistent>
1

> <s_lp_Variant>
AV-unprocessed.smi:203-15

> <Gold.Version>
5.8.1

> <Gold.Id.Protein>
6NUR|6NUR_protein|mol2

> <Gold.PLP.Fitness>
39.4287

> <Gold.PLP.PLP>
-32.8003

> <Gold.PLP.part.hbond>
-4.0000

> <Gold.PLP.part.metal>
0.0000

> <Gold.PLP.part.buried>
-5.5570

> <Gold.PLP.part.nonpolar>
-23.6931

> <Gold.PLP.part.repulsive>
0.1461

> <Gold.PLP.ligand.clash>
0.0000

> <Gold.PLP.ligand.torsion>
1.3867

> <Gold.PLP.Chemscore.Hbond>
3.0000

> <Gold.PLP.Chemscore.CHOScore>
0.0000

> <Gold.PLP.Chemscore.Metal>
0.0000

> <Gold.Chemscore.Hbonds>
donor molecule, donor type, donor heavy atom, donor atom, acceptor molecule, acceptor atom, score
      L1  H    22    47       P1  7949  0.71
      P1  H  7989  7998       L1    27  0.99
      P1  H 10752 10764       L1    22  0.61

> <Gold.PLP.Chemscore.Internal.Correction>
0.4017

> <Gold.Rescore>
     Score         DG    S(hbond)    S(metal)    S(lipo)     H(rot)  DE(clash)    DE(int)     intcor
      7.24     -12.44       1.75        0.00      69.13       2.72       0.02       5.18       ----

> <Gold.Chemscore.Fitness>
7.2412

> <Gold.Chemscore.DG>
-12.4418

> <Gold.Chemscore.ZeroCoef>
-5.4800

> <Gold.Chemscore.Hbond>
1.7453

> <Gold.Chemscore.Metal>
0.0000

> <Gold.Chemscore.Lipo>
69.1290

> <Gold.Chemscore.Internal_Hbond>
0.0000

> <Gold.Chemscore.DEClash>
0.0177

> <Gold.Chemscore.DEInternal>
5.1828

> <Gold.Chemscore.Rot>
2.7171

> <Gold.Chemscore.Internal.Correction>
   9.000000E+99

> <Gold.Chemscore.Hbonds>
donor molecule, donor type, donor heavy atom, donor atom, acceptor molecule, acceptor atom, score
      L1  H    22    47       P1  7949  0.64
      P1  H  7989  7998       L1    27  0.31
      P1  H 10752 10764       L1    22  0.04

> <Gold.Chemscore.Hbond.Weighted>
-5.8294

> <Gold.Chemscore.Metal.Weighted>
-0.0000

> <Gold.Chemscore.Lipo.Weighted>
-8.0881

> <Gold.Chemscore.Internal_Hbond.Weighted>
0.0000

> <Gold.Chemscore.DEClash.Weighted>
0.0177

> <Gold.Chemscore.DEInternal.Weighted>
5.1828

> <Gold.Chemscore.Rot.Weighted>
6.9557

> <Gold.Chemscore.Internal.Correction.Weighted>
   9.000000E+99

> <Gold.Protein.RotatedTorsions>
[ 6907 6896 6895 6894 ] final -124.10 input  -60.11 | X-H torsion
[ 7974 7965 7964 7962 ] final  -16.85 input  175.53 | X-H torsion
[ 8008 7997 7996 7995 ] final -102.85 input   59.86 | X-H torsion
[ 10167 10162 10161 10158 ] final  132.80 input  -65.29 | X-H torsion
[ 10718 10713 10712 10709 ] final    6.31 input   66.30 | X-H torsion
[ 10763 10752 10751 10750 ] final  -90.33 input  -60.55 | X-H torsion
[ 11005 11000 10999 10996 ] final -136.37 input  -57.11 | X-H torsion

> <Gold.Protein.ActiveResidues>
 VAL166  LYS551  ARG553  GLY616  TRP617  ASP618  TYR619  PRO620  LYS621  CYS622 
 ASP623  PHE694  ASN695  SER759  ASP760  ASP761  ALA762  ILE779  LEU786  VAL792 
 PHE793  MET794  SER795  GLU796  ALA797  LYS798  CYS799  TRP800  GLU811  SER814 

> <Gold.Protein.RotatedAtoms>
  150.8735  133.7472  159.2953 H   0  0  0  0  0  0  0  0  0  0  0  0  # atno 6907 bound_to 6896
  151.5076  135.1062  159.9855 H   0  0  0  0  0  0  0  0  0  0  0  0  # atno 6908 bound_to 6896
  152.4711  133.7987  159.6997 H   0  0  0  0  0  0  0  0  0  0  0  0  # atno 6909 bound_to 6896
  146.1968  140.3696  142.8437 H   0  0  0  0  0  0  0  0  0  0  0  0  # atno 7974 bound_to 7965
  154.8626  140.0426  157.1674 H   0  0  0  0  0  0  0  0  0  0  0  0  # atno 8008 bound_to 7997
  154.8824  140.2974  155.5397 H   0  0  0  0  0  0  0  0  0  0  0  0  # atno 8009 bound_to 7997
  156.2998  140.2409  156.3829 H   0  0  0  0  0  0  0  0  0  0  0  0  # atno 8010 bound_to 7997
  139.5324  144.6645  151.4904 H   0  0  0  0  0  0  0  0  0  0  0  0  # atno 10167 bound_to 10162
  156.9202  130.5788  149.5648 H   0  0  0  0  0  0  0  0  0  0  0  0  # atno 10718 bound_to 10713
  154.6647  135.5308  153.8062 H   0  0  0  0  0  0  0  0  0  0  0  0  # atno 10763 bound_to 10752
  153.0463  135.6514  154.0818 H   0  0  0  0  0  0  0  0  0  0  0  0  # atno 10764 bound_to 10752
  154.0723  135.2953  155.3285 H   0  0  0  0  0  0  0  0  0  0  0  0  # atno 10765 bound_to 10752
  140.8811  134.1930  157.4590 H   0  0  0  0  0  0  0  0  0  0  0  0  # atno 11005 bound_to 11000
  144.8598  140.7123  143.6115 LP  0  0  0  0  0  0  0  0  0  0  0  0  # atno 17320 bound_to 7965
  145.3616  139.1680  143.4380 LP  0  0  0  0  0  0  0  0  0  0  0  0  # atno 17321 bound_to 7965
  140.6510  143.8696  150.6786 LP  0  0  0  0  0  0  0  0  0  0  0  0  # atno 17342 bound_to 10162
  140.2061  143.3920  152.1754 LP  0  0  0  0  0  0  0  0  0  0  0  0  # atno 17343 bound_to 10162
  156.0494  130.5566  150.8955 LP  0  0  0  0  0  0  0  0  0  0  0  0  # atno 17370 bound_to 10713
  157.5912  131.0944  150.9115 LP  0  0  0  0  0  0  0  0  0  0  0  0  # atno 17371 bound_to 10713
  139.8720  134.9817  156.5129 LP  0  0  0  0  0  0  0  0  0  0  0  0  # atno 17394 bound_to 11000
  140.8460  133.8168  155.9121 LP  0  0  0  0  0  0  0  0  0  0  0  0  # atno 17395 bound_to 11000

$$$$
