AV-unprocessed.smi:3207|AV-procd|sdf|12258|dock3
  -GOLD-   2272018 93D 1   1.00000     0.00000
 Structure written by MMmdl.
 32 33  0  0  0  0  0  0  0  0  1 V2000
  151.5462  138.6804  154.7377 C   0  0  0  0  0  0  0  0  0  0  0  0
  150.7285  139.7087  155.5330 C   0  0  2  0  0  0  0  0  0  0  0  0
  150.2907  140.7092  154.6175 O   0  0  0  0  0  0  0  0  0  0  0  0
  149.0719  141.3576  154.9597 C   0  0  0  0  0  0  0  0  0  0  0  0
  148.1306  141.2781  153.7777 C   0  0  0  0  0  0  0  0  0  0  0  0
  146.7785  141.9530  153.8241 C   0  0  0  0  0  0  0  0  0  0  0  0
  146.8693  140.4486  153.8604 C   0  0  0  0  0  0  0  0  0  0  0  0
  151.5663  140.3413  156.6563 C   0  0  0  0  0  0  0  0  0  0  0  0
  152.6585  139.8545  156.9476 O   0  0  0  0  0  0  0  0  0  0  0  0
  151.0348  141.4377  157.2286 N   0  0  0  0  0  0  0  0  0  0  0  0
  151.5553  142.2515  158.2713 C   0  0  0  0  0  0  0  0  0  0  0  0
  151.1170  143.5906  158.3309 C   0  0  0  0  0  0  0  0  0  0  0  0
  151.6026  144.4200  159.3611 C   0  0  0  0  0  0  0  0  0  0  0  0
  152.4666  143.9979  160.3077 N   0  0  0  0  0  0  0  0  0  0  0  0
  152.8763  142.7129  160.2570 C   0  0  0  0  0  0  0  0  0  0  0  0
  152.4523  141.8005  159.2700 C   0  0  0  0  0  0  0  0  0  0  0  0
  151.9211  137.8869  155.3851 H   0  0  0  0  0  0  0  0  0  0  0  0
  152.4012  139.1424  154.2425 H   0  0  0  0  0  0  0  0  0  0  0  0
  150.9332  138.2134  153.9666 H   0  0  0  0  0  0  0  0  0  0  0  0
  149.8591  139.2011  155.9560 H   0  0  0  0  0  0  0  0  0  0  0  0
  148.6075  140.8631  155.8138 H   0  0  0  0  0  0  0  0  0  0  0  0
  149.2327  142.4033  155.2245 H   0  0  0  0  0  0  0  0  0  0  0  0
  148.6343  141.2767  152.8130 H   0  0  0  0  0  0  0  0  0  0  0  0
  146.4982  142.4628  154.7439 H   0  0  0  0  0  0  0  0  0  0  0  0
  146.4170  142.4143  152.9072 H   0  0  0  0  0  0  0  0  0  0  0  0
  146.5667  139.9049  152.9678 H   0  0  0  0  0  0  0  0  0  0  0  0
  146.6468  139.9556  154.8049 H   0  0  0  0  0  0  0  0  0  0  0  0
  150.1638  141.7570  156.8303 H   0  0  0  0  0  0  0  0  0  0  0  0
  150.4240  143.9815  157.6000 H   0  0  0  0  0  0  0  0  0  0  0  0
  151.2858  145.4504  159.4268 H   0  0  0  0  0  0  0  0  0  0  0  0
  153.5596  142.3987  161.0320 H   0  0  0  0  0  0  0  0  0  0  0  0
  152.8122  140.7846  159.3104 H   0  0  0  0  0  0  0  0  0  0  0  0
  1  2  1  0  0  0  0
  1 17  1  0  0  0  0
  1 18  1  0  0  0  0
  1 19  1  0  0  0  0
  2  3  1  0  0  0  0
  2  8  1  0  0  0  0
  2 20  1  0  0  0  0
  3  4  1  0  0  0  0
  4  5  1  0  0  0  0
  4 21  1  0  0  0  0
  4 22  1  0  0  0  0
  5  7  1  0  0  0  0
  5  6  1  0  0  0  0
  5 23  1  0  0  0  0
  6  7  1  0  0  0  0
  6 24  1  0  0  0  0
  6 25  1  0  0  0  0
  7 26  1  0  0  0  0
  7 27  1  0  0  0  0
  8  9  2  0  0  0  0
  8 10  1  0  0  0  0
 10 11  1  0  0  0  0
 10 28  1  0  0  0  0
 11 16  1  0  0  0  0
 11 12  2  0  0  0  0
 12 13  1  0  0  0  0
 12 29  1  0  0  0  0
 13 14  2  0  0  0  0
 13 30  1  0  0  0  0
 14 15  1  0  0  0  0
 15 16  2  0  0  0  0
 15 31  1  0  0  0  0
 16 32  1  0  0  0  0
M  END
> <s_m_source_file>
AV-unprocessed.smi

> <i_m_source_file_index>
3207

> <i_lp_mmshare_version>
43012

> <i_f3d_flags>
0

> <s_epik_input>
W0NIMl0xW0NIMl1bQ0hdMVtDSDJdT1tDQEBIXShbQ0gzXSlDKD1PKVtOSF1jMltjSF1bY0hdbltjSF1bY0hdMg==

> <s_epik_cmdline>
J2VwaWtfcHl0aG9uJywgJy1waCcsICc3LjAnLCAnLXRuJywgJzgnLCAnLW1hJywgJzIwMCcsICctbWV0YWxfYmluZGluZycsICctaW1hZScsICc8aW5maWxlLm1hZT4nLCAnLW9tYWUnLCAnPG91dGZpbGUubWFlPic=

> <r_epik_Ionization_Penalty>
0.00446435

> <r_epik_Ionization_Penalty_Charging>
0

> <r_epik_Ionization_Penalty_Neutral>
0.00446435

> <r_epik_State_Penalty>
0.00321941

> <r_epik_Charging_Adjusted_Penalty>
0.00321941

> <i_epik_Tot_Q>
0

> <i_epik_Tot_abs_Q>
0

> <r_epik_Metal_State_Penalty>
-0

> <b_epik_Metal_Only>
0

> <s_lp_Force_Field>
OPLS_2005

> <r_lp_Energy>
19.7696

> <b_lp_Chiralities_Consistent>
1

> <s_lp_Variant>
AV-unprocessed.smi:3207-1

> <Gold.Version>
5.8.1

> <Gold.Id.Protein>
6NUR|6NUR_protein|mol2

> <Gold.PLP.Fitness>
40.3231

> <Gold.PLP.PLP>
-37.1382

> <Gold.PLP.part.hbond>
-2.0000

> <Gold.PLP.part.metal>
0.0000

> <Gold.PLP.part.buried>
-3.7645

> <Gold.PLP.part.nonpolar>
-31.1399

> <Gold.PLP.part.repulsive>
0.2136

> <Gold.PLP.ligand.clash>
0.0000

> <Gold.PLP.ligand.torsion>
1.4534

> <Gold.PLP.Chemscore.Hbond>
1.8320

> <Gold.PLP.Chemscore.CHOScore>
0.0000

> <Gold.PLP.Chemscore.Metal>
0.0000

> <Gold.Chemscore.Hbonds>
donor molecule, donor type, donor heavy atom, donor atom, acceptor molecule, acceptor atom, score
      P1  H  7989  7998       L1     3  0.83
      P1  H  7997  8009       L1     9  1.00

> <Gold.PLP.Chemscore.Internal.Correction>
0.5957

> <Gold.Rescore>
     Score         DG    S(hbond)    S(metal)    S(lipo)     H(rot)  DE(clash)    DE(int)     intcor
     17.24     -18.83       1.90        0.00      92.09       1.48       0.00       1.59       ----

> <Gold.Chemscore.Fitness>
17.2363

> <Gold.Chemscore.DG>
-18.8260

> <Gold.Chemscore.ZeroCoef>
-5.4800

> <Gold.Chemscore.Hbond>
1.9047

> <Gold.Chemscore.Metal>
0.0000

> <Gold.Chemscore.Lipo>
92.0923

> <Gold.Chemscore.Internal_Hbond>
0.0000

> <Gold.Chemscore.DEClash>
0.0000

> <Gold.Chemscore.DEInternal>
1.5897

> <Gold.Chemscore.Rot>
1.4807

> <Gold.Chemscore.Internal.Correction>
   9.000000E+99

> <Gold.Chemscore.Hbonds>
donor molecule, donor type, donor heavy atom, donor atom, acceptor molecule, acceptor atom, score
      P1  H  7989  7998       L1     3  0.42
      P1  H  7997  8009       L1     9  1.00

> <Gold.Chemscore.Hbond.Weighted>
-6.3617

> <Gold.Chemscore.Metal.Weighted>
-0.0000

> <Gold.Chemscore.Lipo.Weighted>
-10.7748

> <Gold.Chemscore.Internal_Hbond.Weighted>
0.0000

> <Gold.Chemscore.DEClash.Weighted>
0.0000

> <Gold.Chemscore.DEInternal.Weighted>
1.5897

> <Gold.Chemscore.Rot.Weighted>
3.7905

> <Gold.Chemscore.Internal.Correction.Weighted>
   9.000000E+99

> <Gold.Protein.RotatedTorsions>
[ 6907 6896 6895 6894 ] final  130.73 input  -60.11 | X-H torsion
[ 7974 7965 7964 7962 ] final   98.96 input  175.53 | X-H torsion
[ 8008 7997 7996 7995 ] final -177.12 input   59.86 | X-H torsion
[ 10167 10162 10161 10158 ] final  156.53 input  -65.29 | X-H torsion
[ 10718 10713 10712 10709 ] final -112.01 input   66.30 | X-H torsion
[ 10763 10752 10751 10750 ] final  -84.18 input  -60.55 | X-H torsion
[ 11005 11000 10999 10996 ] final -132.94 input  -57.11 | X-H torsion

> <Gold.Protein.ActiveResidues>
 VAL166  LYS551  ARG553  GLY616  TRP617  ASP618  TYR619  PRO620  LYS621  CYS622 
 ASP623  PHE694  ASN695  SER759  ASP760  ASP761  ALA762  ILE779  LEU786  VAL792 
 PHE793  MET794  SER795  GLU796  ALA797  LYS798  CYS799  TRP800  GLU811  SER814 

> <Gold.Protein.RotatedAtoms>
  152.3497  133.6164  159.5935 H   0  0  0  0  0  0  0  0  0  0  0  0  # atno 6907 bound_to 6896
  150.7530  133.9594  159.3519 H   0  0  0  0  0  0  0  0  0  0  0  0  # atno 6908 bound_to 6896
  151.7447  135.0847  160.0372 H   0  0  0  0  0  0  0  0  0  0  0  0  # atno 6909 bound_to 6896
  145.4052  139.2341  143.3278 H   0  0  0  0  0  0  0  0  0  0  0  0  # atno 7974 bound_to 7965
  156.0031  140.1225  157.0528 H   0  0  0  0  0  0  0  0  0  0  0  0  # atno 8008 bound_to 7997
  154.4249  140.1103  156.5793 H   0  0  0  0  0  0  0  0  0  0  0  0  # atno 8009 bound_to 7997
  155.6185  140.3472  155.4646 H   0  0  0  0  0  0  0  0  0  0  0  0  # atno 8010 bound_to 7997
  139.4821  144.5001  151.8182 H   0  0  0  0  0  0  0  0  0  0  0  0  # atno 10167 bound_to 10162
  156.0680  130.5897  150.8451 H   0  0  0  0  0  0  0  0  0  0  0  0  # atno 10718 bound_to 10713
  154.5964  135.5530  153.7330 H   0  0  0  0  0  0  0  0  0  0  0  0  # atno 10763 bound_to 10752
  153.0137  135.6356  154.1776 H   0  0  0  0  0  0  0  0  0  0  0  0  # atno 10764 bound_to 10752
  154.1716  135.2892  155.3059 H   0  0  0  0  0  0  0  0  0  0  0  0  # atno 10765 bound_to 10752
  140.9125  134.1549  157.4378 H   0  0  0  0  0  0  0  0  0  0  0  0  # atno 11005 bound_to 11000
  146.2732  140.4756  142.8806 LP  0  0  0  0  0  0  0  0  0  0  0  0  # atno 17320 bound_to 7965
  144.8346  140.6762  143.6268 LP  0  0  0  0  0  0  0  0  0  0  0  0  # atno 17321 bound_to 7965
  140.4493  144.1878  150.5896 LP  0  0  0  0  0  0  0  0  0  0  0  0  # atno 17342 bound_to 10162
  140.4602  143.2452  151.9230 LP  0  0  0  0  0  0  0  0  0  0  0  0  # atno 17343 bound_to 10162
  157.5735  131.0946  150.9382 LP  0  0  0  0  0  0  0  0  0  0  0  0  # atno 17370 bound_to 10713
  156.9593  130.5449  149.5285 LP  0  0  0  0  0  0  0  0  0  0  0  0  # atno 17371 bound_to 10713
  139.8760  134.9941  156.5677 LP  0  0  0  0  0  0  0  0  0  0  0  0  # atno 17394 bound_to 11000
  140.8092  133.8443  155.8795 LP  0  0  0  0  0  0  0  0  0  0  0  0  # atno 17395 bound_to 11000

$$$$
