AV-unprocessed.smi:1222|AV-procd|sdf|5123|dock3
  -GOLD-   22720 4183D 1   1.00000     0.00000
 Structure written by MMmdl.
 36 38  0  0  0  0  0  0  0  0  3 V2000
  152.6377  137.1106  156.4022 O   0  0  0  0  0  0  0  0  0  0  0  0
  152.0000  138.1116  156.0675 C   0  0  0  0  0  0  0  0  0  0  0  0
  152.4699  139.3774  156.0002 N   0  5  0  0  0  0  0  0  0  0  0  0
  151.7808  140.3807  156.5679 C   0  0  0  0  0  0  0  0  0  0  0  0
  150.7210  140.9564  155.9887 N   0  0  0  0  0  0  0  0  0  0  0  0
  150.1536  141.9745  156.7570 C   0  0  0  0  0  0  0  0  0  0  0  0
  150.7915  142.1735  157.9526 C   0  0  0  0  0  0  0  0  0  0  0  0
  152.1311  141.0800  158.1513 S   0  0  0  0  0  0  0  0  0  0  0  0
  150.7095  137.9981  155.7227 N   0  0  0  0  0  0  0  0  0  0  0  0
  149.9343  136.7615  155.6968 C   0  0  2  0  0  0  0  0  0  0  0  0
  150.5630  135.7401  154.7297 C   0  0  0  0  0  0  0  0  0  0  0  0
  149.6912  134.4800  154.6103 C   0  0  0  0  0  0  0  0  0  0  0  0
  148.3119  134.8261  154.1865 N   0  3  1  0  0  0  0  0  0  0  0  0
  147.4830  133.6244  153.9488 C   0  0  0  0  0  0  0  0  0  0  0  0
  148.2326  132.4880  153.2933 C   0  0  0  0  0  0  0  0  0  0  0  0
  147.2609  133.3195  152.4856 C   0  0  0  0  0  0  0  0  0  0  0  0
  147.6684  135.7716  155.1317 C   0  0  0  0  0  0  0  0  0  0  0  0
  148.4907  137.0639  155.2629 C   0  0  0  0  0  0  0  0  0  0  0  0
  149.2956  142.5068  156.3740 H   0  0  0  0  0  0  0  0  0  0  0  0
  150.5569  142.8906  158.7245 H   0  0  0  0  0  0  0  0  0  0  0  0
  150.2291  138.8458  155.4586 H   0  0  0  0  0  0  0  0  0  0  0  0
  149.9076  136.3349  156.7014 H   0  0  0  0  0  0  0  0  0  0  0  0
  150.6866  136.1903  153.7433 H   0  0  0  0  0  0  0  0  0  0  0  0
  151.5614  135.4621  155.0688 H   0  0  0  0  0  0  0  0  0  0  0  0
  150.1369  133.7976  153.8858 H   0  0  0  0  0  0  0  0  0  0  0  0
  149.6595  133.9530  155.5651 H   0  0  0  0  0  0  0  0  0  0  0  0
  146.7027  133.4225  154.6806 H   0  0  0  0  0  0  0  0  0  0  0  0
  149.2943  132.6187  153.0908 H   0  0  0  0  0  0  0  0  0  0  0  0
  147.9296  131.4742  153.5475 H   0  0  0  0  0  0  0  0  0  0  0  0
  146.3181  132.8529  152.2066 H   0  0  0  0  0  0  0  0  0  0  0  0
  147.6777  134.0024  151.7473 H   0  0  0  0  0  0  0  0  0  0  0  0
  146.6648  136.0140  154.7809 H   0  0  0  0  0  0  0  0  0  0  0  0
  147.5571  135.2955  156.1074 H   0  0  0  0  0  0  0  0  0  0  0  0
  148.0159  137.7323  155.9824 H   0  0  0  0  0  0  0  0  0  0  0  0
  148.4924  137.5900  154.3067 H   0  0  0  0  0  0  0  0  0  0  0  0
  148.3911  135.3060  153.3012 H   0  0  0  0  0  0  0  0  0  0  0  0
  1  2  2  0  0  0  0
  2  3  1  0  0  0  0
  2  9  1  0  0  0  0
  3  4  1  0  0  0  0
  4  8  1  0  0  0  0
  4  5  2  0  0  0  0
  5  6  1  0  0  0  0
  6  7  2  0  0  0  0
  6 19  1  0  0  0  0
  7  8  1  0  0  0  0
  7 20  1  0  0  0  0
  9 10  1  0  0  0  0
  9 21  1  0  0  0  0
 10 18  1  0  0  0  0
 10 11  1  0  0  0  0
 10 22  1  0  0  0  0
 11 12  1  0  0  0  0
 11 23  1  0  0  0  0
 11 24  1  0  0  0  0
 12 13  1  0  0  0  0
 12 25  1  0  0  0  0
 12 26  1  0  0  0  0
 13 14  1  0  0  0  0
 13 17  1  0  0  0  0
 13 36  1  0  0  0  0
 14 16  1  0  0  0  0
 14 15  1  0  0  0  0
 14 27  1  0  0  0  0
 15 16  1  0  0  0  0
 15 28  1  0  0  0  0
 15 29  1  0  0  0  0
 16 30  1  0  0  0  0
 16 31  1  0  0  0  0
 17 18  1  0  0  0  0
 17 32  1  0  0  0  0
 17 33  1  0  0  0  0
 18 34  1  0  0  0  0
 18 35  1  0  0  0  0
M  CHG  1   3  -1
M  CHG  1  13   1
M  END
> <s_m_source_file>
AV-unprocessed.smi

> <i_m_source_file_index>
1222

> <i_lp_mmshare_version>
43012

> <i_f3d_flags>
0

> <s_epik_input>
czFbY0hdW2NIXW5jMVtOSF1DKD1PKVtOSF1bQ0hdMltDSDJdW0NIMl1OKFtDSDJdW0NIMl0yKVtDSF0zW0NIMl1bQ0gyXTM=

> <s_epik_cmdline>
J2VwaWtfcHl0aG9uJywgJy1waCcsICc3LjAnLCAnLXRuJywgJzgnLCAnLW1hJywgJzIwMCcsICctbWV0YWxfYmluZGluZycsICctaW1hZScsICc8aW5maWxlLm1hZT4nLCAnLW9tYWUnLCAnPG91dGZpbGUubWFlPic=

> <r_lp_tautomer_probability>
0.999

> <r_epik_Ionization_Penalty>
6.4609

> <r_epik_Ionization_Penalty_Charging>
5.58663

> <r_epik_Ionization_Penalty_Neutral>
0.874262

> <r_epik_State_Penalty>
5.57752

> <r_epik_Charging_Adjusted_Penalty>
11.1642

> <i_epik_Tot_Q>
0

> <i_epik_Tot_abs_Q>
2

> <r_epik_Metal_State_Penalty>
1.58738

> <b_epik_Metal_Only>
1

> <s_lp_Force_Field>
OPLS_2005

> <r_lp_Energy>
15.8934

> <b_lp_Chiralities_Consistent>
1

> <s_lp_Variant>
AV-unprocessed.smi:1222-4

> <Gold.Version>
5.8.1

> <Gold.Id.Protein>
6NUR|6NUR_protein|mol2

> <Gold.PLP.Fitness>
39.2724

> <Gold.PLP.PLP>
-25.2319

> <Gold.PLP.part.hbond>
-3.0000

> <Gold.PLP.part.metal>
0.0000

> <Gold.PLP.part.buried>
-3.2849

> <Gold.PLP.part.nonpolar>
-19.5761

> <Gold.PLP.part.repulsive>
0.0833

> <Gold.PLP.ligand.clash>
0.1560

> <Gold.PLP.ligand.torsion>
1.9897

> <Gold.PLP.Chemscore.Hbond>
4.6365

> <Gold.PLP.Chemscore.CHOScore>
1.0000

> <Gold.PLP.Chemscore.Metal>
0.0000

> <Gold.Chemscore.Hbonds>
donor molecule, donor type, donor heavy atom, donor atom, acceptor molecule, acceptor atom, score
      L1  H    13    36       P1  7948  2.00
      P1  H  7997  8009       L1     3  1.78
      P1  H 10752 10764       L1     1  0.59
      L1  C     6    19       P1  8028  1.00

> <Gold.PLP.Chemscore.Internal.Correction>
1.2666

> <Gold.Rescore>
     Score         DG    S(hbond)    S(metal)    S(lipo)     H(rot)  DE(clash)    DE(int)     intcor
     13.02     -15.10       1.87        0.00      56.17       1.25       0.03       2.06       ----

> <Gold.Chemscore.Fitness>
13.0174

> <Gold.Chemscore.DG>
-15.1041

> <Gold.Chemscore.ZeroCoef>
-5.4800

> <Gold.Chemscore.Hbond>
1.8695

> <Gold.Chemscore.Metal>
0.0000

> <Gold.Chemscore.Lipo>
56.1742

> <Gold.Chemscore.Internal_Hbond>
0.0000

> <Gold.Chemscore.DEClash>
0.0314

> <Gold.Chemscore.DEInternal>
2.0553

> <Gold.Chemscore.Rot>
1.2470

> <Gold.Chemscore.Internal.Correction>
   9.000000E+99

> <Gold.Chemscore.Hbonds>
donor molecule, donor type, donor heavy atom, donor atom, acceptor molecule, acceptor atom, score
      L1  H    13    36       P1  7948  0.97
      P1  H  7997  8009       L1     3  0.17
      P1  H 10752 10764       L1     1  0.57

> <Gold.Chemscore.Hbond.Weighted>
-6.2441

> <Gold.Chemscore.Metal.Weighted>
-0.0000

> <Gold.Chemscore.Lipo.Weighted>
-6.5724

> <Gold.Chemscore.Internal_Hbond.Weighted>
0.0000

> <Gold.Chemscore.DEClash.Weighted>
0.0314

> <Gold.Chemscore.DEInternal.Weighted>
2.0553

> <Gold.Chemscore.Rot.Weighted>
3.1924

> <Gold.Chemscore.Internal.Correction.Weighted>
   9.000000E+99

> <Gold.Protein.RotatedTorsions>
[ 6907 6896 6895 6894 ] final -167.93 input  -60.11 | X-H torsion
[ 7974 7965 7964 7962 ] final   59.33 input  175.53 | X-H torsion
[ 8008 7997 7996 7995 ] final -155.70 input   59.86 | X-H torsion
[ 10167 10162 10161 10158 ] final  142.27 input  -65.29 | X-H torsion
[ 10718 10713 10712 10709 ] final   77.67 input   66.30 | X-H torsion
[ 10763 10752 10751 10750 ] final  -16.50 input  -60.55 | X-H torsion
[ 11005 11000 10999 10996 ] final  -52.45 input  -57.11 | X-H torsion

> <Gold.Protein.ActiveResidues>
 VAL166  LYS551  ARG553  GLY616  TRP617  ASP618  TYR619  PRO620  LYS621  CYS622 
 ASP623  PHE694  ASN695  SER759  ASP760  ASP761  ALA762  ILE779  LEU786  VAL792 
 PHE793  MET794  SER795  GLU796  ALA797  LYS798  CYS799  TRP800  GLU811  SER814 

> <Gold.Protein.RotatedAtoms>
  151.4674  133.3577  159.2818 H   0  0  0  0  0  0  0  0  0  0  0  0  # atno 6907 bound_to 6896
  150.8984  134.8396  159.7353 H   0  0  0  0  0  0  0  0  0  0  0  0  # atno 6908 bound_to 6896
  152.4865  134.4592  159.9651 H   0  0  0  0  0  0  0  0  0  0  0  0  # atno 6909 bound_to 6896
  145.9084  139.3634  143.0550 H   0  0  0  0  0  0  0  0  0  0  0  0  # atno 7974 bound_to 7965
  155.7058  140.0772  157.2391 H   0  0  0  0  0  0  0  0  0  0  0  0  # atno 8008 bound_to 7997
  154.4066  140.1639  156.2295 H   0  0  0  0  0  0  0  0  0  0  0  0  # atno 8009 bound_to 7997
  155.9327  140.3390  155.6265 H   0  0  0  0  0  0  0  0  0  0  0  0  # atno 8010 bound_to 7997
  139.4998  144.6118  151.6254 H   0  0  0  0  0  0  0  0  0  0  0  0  # atno 10167 bound_to 10162
  157.6718  130.9832  150.1675 H   0  0  0  0  0  0  0  0  0  0  0  0  # atno 10718 bound_to 10713
  153.5596  135.7010  153.5553 H   0  0  0  0  0  0  0  0  0  0  0  0  # atno 10763 bound_to 10752
  153.3442  135.4013  155.1595 H   0  0  0  0  0  0  0  0  0  0  0  0  # atno 10764 bound_to 10752
  154.8650  135.3749  154.5112 H   0  0  0  0  0  0  0  0  0  0  0  0  # atno 10765 bound_to 10752
  141.0925  133.6630  156.4026 H   0  0  0  0  0  0  0  0  0  0  0  0  # atno 11005 bound_to 11000
  145.8703  140.9424  143.0654 LP  0  0  0  0  0  0  0  0  0  0  0  0  # atno 17320 bound_to 7965
  144.6741  140.0646  143.7475 LP  0  0  0  0  0  0  0  0  0  0  0  0  # atno 17321 bound_to 7965
  140.5795  143.9971  150.6260 LP  0  0  0  0  0  0  0  0  0  0  0  0  # atno 17342 bound_to 10162
  140.3115  143.3195  152.0874 LP  0  0  0  0  0  0  0  0  0  0  0  0  # atno 17343 bound_to 10162
  156.2437  130.3693  149.8309 LP  0  0  0  0  0  0  0  0  0  0  0  0  # atno 17370 bound_to 10713
  156.6102  130.8583  151.3452 LP  0  0  0  0  0  0  0  0  0  0  0  0  # atno 17371 bound_to 10713
  140.5219  134.6296  157.5321 LP  0  0  0  0  0  0  0  0  0  0  0  0  # atno 17394 bound_to 11000
  139.9754  134.7225  155.9961 LP  0  0  0  0  0  0  0  0  0  0  0  0  # atno 17395 bound_to 11000

$$$$
