AV-unprocessed.smi:1745|AV-procd|sdf|7030|dock3
  -GOLD-   22720 8243D 1   1.00000     0.00000
 Structure written by MMmdl.
 47 49  0  0  0  0  0  0  0  0  1 V2000
  144.6302  137.0879  153.2695 C   0  0  0  0  0  0  0  0  0  0  0  0
  145.5219  137.2540  152.0307 C   0  0  1  0  0  0  0  0  0  0  0  0
  146.8693  137.6238  152.4616 N   0  0  0  0  0  0  0  0  0  0  0  0
  147.1793  138.5848  153.3441 C   0  0  0  0  0  0  0  0  0  0  0  0
  146.3428  139.2891  153.9082 O   0  0  0  0  0  0  0  0  0  0  0  0
  148.5087  138.6558  153.5288 N   0  0  0  0  0  0  0  0  0  0  0  0
  149.2414  139.5094  154.3976 C   0  0  0  0  0  0  0  0  0  0  0  0
  150.5111  139.0755  154.8282 C   0  0  0  0  0  0  0  0  0  0  0  0
  151.2674  139.9001  155.6817 C   0  0  0  0  0  0  0  0  0  0  0  0
  150.7279  141.1465  156.0731 C   0  0  0  0  0  0  0  0  0  0  0  0
  151.4243  142.0125  156.9268 N   0  0  0  0  0  0  0  0  0  0  0  0
  150.8428  143.3468  156.9965 C   0  0  0  0  0  0  0  0  0  0  0  0
  151.7322  144.2646  157.8533 C   0  0  0  0  0  0  0  0  0  0  0  0
  151.9184  143.6831  159.1409 O   0  0  0  0  0  0  0  0  0  0  0  0
  152.5590  142.4124  159.0658 C   0  0  0  0  0  0  0  0  0  0  0  0
  151.6905  141.4455  158.2428 C   0  0  0  0  0  0  0  0  0  0  0  0
  149.5193  141.5781  155.6527 N   0  0  0  0  0  0  0  0  0  0  0  0
  148.7982  140.7819  154.8343 C   0  0  0  0  0  0  0  0  0  0  0  0
  145.5709  135.9687  151.1815 C   0  0  2  0  0  0  0  0  0  0  0  0
  144.2055  135.3752  150.8311 C   0  0  0  0  0  0  0  0  0  0  0  0
  144.5088  133.9054  150.5872 C   0  0  0  0  0  0  0  0  0  0  0  0
  145.8915  133.6998  151.2131 C   0  0  0  0  0  0  0  0  0  0  0  0
  146.1730  134.9078  151.9062 O   0  0  0  0  0  0  0  0  0  0  0  0
  143.6069  136.8398  152.9866 H   0  0  0  0  0  0  0  0  0  0  0  0
  144.5936  138.0083  153.8530 H   0  0  0  0  0  0  0  0  0  0  0  0
  144.9966  136.2937  153.9207 H   0  0  0  0  0  0  0  0  0  0  0  0
  145.0913  138.0497  151.4202 H   0  0  0  0  0  0  0  0  0  0  0  0
  147.6289  137.1009  152.0512 H   0  0  0  0  0  0  0  0  0  0  0  0
  149.0588  137.9666  153.0376 H   0  0  0  0  0  0  0  0  0  0  0  0
  150.9017  138.1184  154.5147 H   0  0  0  0  0  0  0  0  0  0  0  0
  152.2388  139.5774  156.0271 H   0  0  0  0  0  0  0  0  0  0  0  0
  150.7392  143.7579  155.9914 H   0  0  0  0  0  0  0  0  0  0  0  0
  149.8430  143.2936  157.4293 H   0  0  0  0  0  0  0  0  0  0  0  0
  152.6986  144.4287  157.3737 H   0  0  0  0  0  0  0  0  0  0  0  0
  151.2638  145.2420  157.9688 H   0  0  0  0  0  0  0  0  0  0  0  0
  153.5506  142.5188  158.6227 H   0  0  0  0  0  0  0  0  0  0  0  0
  152.7004  142.0249  160.0748 H   0  0  0  0  0  0  0  0  0  0  0  0
  150.7509  141.2597  158.7646 H   0  0  0  0  0  0  0  0  0  0  0  0
  152.1967  140.4855  158.1353 H   0  0  0  0  0  0  0  0  0  0  0  0
  147.8552  141.2006  154.5198 H   0  0  0  0  0  0  0  0  0  0  0  0
  146.1433  136.1392  150.2673 H   0  0  0  0  0  0  0  0  0  0  0  0
  143.5253  135.4718  151.6787 H   0  0  0  0  0  0  0  0  0  0  0  0
  143.7423  135.8607  149.9716 H   0  0  0  0  0  0  0  0  0  0  0  0
  143.7545  133.2683  151.0500 H   0  0  0  0  0  0  0  0  0  0  0  0
  144.5340  133.6761  149.5213 H   0  0  0  0  0  0  0  0  0  0  0  0
  145.9223  132.8458  151.8900 H   0  0  0  0  0  0  0  0  0  0  0  0
  146.6439  133.5471  150.4380 H   0  0  0  0  0  0  0  0  0  0  0  0
  1  2  1  0  0  0  0
  1 24  1  0  0  0  0
  1 25  1  0  0  0  0
  1 26  1  0  0  0  0
  2  3  1  0  0  0  0
  2 19  1  0  0  0  0
  2 27  1  0  0  0  0
  3  4  1  0  0  0  0
  3 28  1  0  0  0  0
  4  5  2  0  0  0  0
  4  6  1  0  0  0  0
  6  7  1  0  0  0  0
  6 29  1  0  0  0  0
  7 18  1  0  0  0  0
  7  8  2  0  0  0  0
  8  9  1  0  0  0  0
  8 30  1  0  0  0  0
  9 10  2  0  0  0  0
  9 31  1  0  0  0  0
 10 11  1  0  0  0  0
 10 17  1  0  0  0  0
 11 16  1  0  0  0  0
 11 12  1  0  0  0  0
 12 13  1  0  0  0  0
 12 32  1  0  0  0  0
 12 33  1  0  0  0  0
 13 14  1  0  0  0  0
 13 34  1  0  0  0  0
 13 35  1  0  0  0  0
 14 15  1  0  0  0  0
 15 16  1  0  0  0  0
 15 36  1  0  0  0  0
 15 37  1  0  0  0  0
 16 38  1  0  0  0  0
 16 39  1  0  0  0  0
 17 18  2  0  0  0  0
 18 40  1  0  0  0  0
 19 23  1  0  0  0  0
 19 20  1  0  0  0  0
 19 41  1  0  0  0  0
 20 21  1  0  0  0  0
 20 42  1  0  0  0  0
 20 43  1  0  0  0  0
 21 22  1  0  0  0  0
 21 44  1  0  0  0  0
 21 45  1  0  0  0  0
 22 23  1  0  0  0  0
 22 46  1  0  0  0  0
 22 47  1  0  0  0  0
M  END
> <s_m_source_file>
AV-unprocessed.smi

> <i_m_source_file_index>
1745

> <i_lp_mmshare_version>
43012

> <i_f3d_flags>
0

> <s_epik_input>
TzFbQ0gyXVtDSDJdW0NIMl1bQ0BIXTFbQ0BIXShbQ0gzXSlbTkhdQyg9TylbTkhdYzJbY0hdW2NIXWMobltjSF0yKU4zW0NIMl1bQ0gyXU9bQ0gyXVtDSDJdMw==

> <s_epik_cmdline>
J2VwaWtfcHl0aG9uJywgJy1waCcsICc3LjAnLCAnLXRuJywgJzgnLCAnLW1hJywgJzIwMCcsICctbWV0YWxfYmluZGluZycsICctaW1hZScsICc8aW5maWxlLm1hZT4nLCAnLW9tYWUnLCAnPG91dGZpbGUubWFlPic=

> <r_lp_tautomer_probability>
1

> <r_epik_Ionization_Penalty>
0.00206005

> <r_epik_Ionization_Penalty_Charging>
0

> <r_epik_Ionization_Penalty_Neutral>
0.00206005

> <r_epik_State_Penalty>
0.00138459

> <r_epik_Charging_Adjusted_Penalty>
0.00138459

> <i_epik_Tot_Q>
0

> <i_epik_Tot_abs_Q>
0

> <r_epik_Metal_State_Penalty>
-0

> <b_epik_Metal_Only>
0

> <s_lp_Force_Field>
OPLS_2005

> <r_lp_Energy>
36.4473

> <b_lp_Chiralities_Consistent>
1

> <s_lp_Variant>
AV-unprocessed.smi:1745-2

> <Gold.Version>
5.8.1

> <Gold.Id.Protein>
6NUR|6NUR_protein|mol2

> <Gold.PLP.Fitness>
45.9661

> <Gold.PLP.PLP>
-40.9808

> <Gold.PLP.part.hbond>
-2.9661

> <Gold.PLP.part.metal>
0.0000

> <Gold.PLP.part.buried>
-1.6138

> <Gold.PLP.part.nonpolar>
-38.8588

> <Gold.PLP.part.repulsive>
1.2853

> <Gold.PLP.ligand.clash>
0.0000

> <Gold.PLP.ligand.torsion>
0.4188

> <Gold.PLP.Chemscore.Hbond>
1.8960

> <Gold.PLP.Chemscore.CHOScore>
0.0000

> <Gold.PLP.Chemscore.Metal>
0.0000

> <Gold.Chemscore.Hbonds>
donor molecule, donor type, donor heavy atom, donor atom, acceptor molecule, acceptor atom, score
      L1  H     3    28       P1  7948  1.00
      L1  H     6    29       P1  7948  0.82

> <Gold.PLP.Chemscore.Internal.Correction>
0.1348

> <Gold.Rescore>
     Score         DG    S(hbond)    S(metal)    S(lipo)     H(rot)  DE(clash)    DE(int)     intcor
     14.92     -20.20       1.82        0.00     104.29       1.40       2.32       2.96       ----

> <Gold.Chemscore.Fitness>
14.9189

> <Gold.Chemscore.DG>
-20.1968

> <Gold.Chemscore.ZeroCoef>
-5.4800

> <Gold.Chemscore.Hbond>
1.8223

> <Gold.Chemscore.Metal>
0.0000

> <Gold.Chemscore.Lipo>
104.2859

> <Gold.Chemscore.Internal_Hbond>
0.0000

> <Gold.Chemscore.DEClash>
2.3173

> <Gold.Chemscore.DEInternal>
2.9607

> <Gold.Chemscore.Rot>
1.3950

> <Gold.Chemscore.Internal.Correction>
   9.000000E+99

> <Gold.Chemscore.Hbonds>
donor molecule, donor type, donor heavy atom, donor atom, acceptor molecule, acceptor atom, score
      L1  H     3    28       P1  7948  0.97
      L1  H     6    29       P1  7948  0.77

> <Gold.Chemscore.Hbond.Weighted>
-6.0866

> <Gold.Chemscore.Metal.Weighted>
-0.0000

> <Gold.Chemscore.Lipo.Weighted>
-12.2015

> <Gold.Chemscore.Internal_Hbond.Weighted>
0.0000

> <Gold.Chemscore.DEClash.Weighted>
2.3173

> <Gold.Chemscore.DEInternal.Weighted>
2.9607

> <Gold.Chemscore.Rot.Weighted>
3.5712

> <Gold.Chemscore.Internal.Correction.Weighted>
   9.000000E+99

> <Gold.Protein.RotatedTorsions>
[ 6907 6896 6895 6894 ] final -121.65 input  -60.11 | X-H torsion
[ 7974 7965 7964 7962 ] final -146.01 input  175.53 | X-H torsion
[ 8008 7997 7996 7995 ] final  102.95 input   59.86 | X-H torsion
[ 10167 10162 10161 10158 ] final -145.53 input  -65.29 | X-H torsion
[ 10718 10713 10712 10709 ] final -127.17 input   66.30 | X-H torsion
[ 10763 10752 10751 10750 ] final   68.42 input  -60.55 | X-H torsion
[ 11005 11000 10999 10996 ] final  -71.67 input  -57.11 | X-H torsion

> <Gold.Protein.ActiveResidues>
 VAL166  LYS551  ARG553  GLY616  TRP617  ASP618  TYR619  PRO620  LYS621  CYS622 
 ASP623  PHE694  ASN695  SER759  ASP760  ASP761  ALA762  ILE779  LEU786  VAL792 
 PHE793  MET794  SER795  GLU796  ALA797  LYS798  CYS799  TRP800  GLU811  SER814 

> <Gold.Protein.RotatedAtoms>
  150.8503  133.7797  159.3027 H   0  0  0  0  0  0  0  0  0  0  0  0  # atno 6907 bound_to 6896
  151.5471  135.1066  159.9950 H   0  0  0  0  0  0  0  0  0  0  0  0  # atno 6908 bound_to 6896
  152.4547  133.7656  159.6827 H   0  0  0  0  0  0  0  0  0  0  0  0  # atno 6909 bound_to 6896
  144.8188  140.5511  143.5592 H   0  0  0  0  0  0  0  0  0  0  0  0  # atno 7974 bound_to 7965
  156.1439  140.3173  155.8539 H   0  0  0  0  0  0  0  0  0  0  0  0  # atno 8008 bound_to 7997
  155.4101  140.0505  157.3049 H   0  0  0  0  0  0  0  0  0  0  0  0  # atno 8009 bound_to 7997
  154.5000  140.2125  155.9379 H   0  0  0  0  0  0  0  0  0  0  0  0  # atno 8010 bound_to 7997
  139.7797  143.8118  152.2637 H   0  0  0  0  0  0  0  0  0  0  0  0  # atno 10167 bound_to 10162
  156.1832  130.6746  151.0331 H   0  0  0  0  0  0  0  0  0  0  0  0  # atno 10718 bound_to 10713
  153.0234  135.5248  154.7132 H   0  0  0  0  0  0  0  0  0  0  0  0  # atno 10763 bound_to 10752
  154.6208  135.2889  155.0330 H   0  0  0  0  0  0  0  0  0  0  0  0  # atno 10764 bound_to 10752
  154.1317  135.6592  153.4976 H   0  0  0  0  0  0  0  0  0  0  0  0  # atno 10765 bound_to 10752
  141.1596  133.6824  156.6942 H   0  0  0  0  0  0  0  0  0  0  0  0  # atno 11005 bound_to 11000
  145.5152  139.1478  143.3583 LP  0  0  0  0  0  0  0  0  0  0  0  0  # atno 17320 bound_to 7965
  146.2493  140.5293  142.8900 LP  0  0  0  0  0  0  0  0  0  0  0  0  # atno 17321 bound_to 7965
  139.8177  144.7309  150.9613 LP  0  0  0  0  0  0  0  0  0  0  0  0  # atno 17342 bound_to 10162
  140.7818  143.4189  151.0873 LP  0  0  0  0  0  0  0  0  0  0  0  0  # atno 17343 bound_to 10162
  157.6882  131.0818  150.7184 LP  0  0  0  0  0  0  0  0  0  0  0  0  # atno 17370 bound_to 10713
  156.7241  130.4689  149.5515 LP  0  0  0  0  0  0  0  0  0  0  0  0  # atno 17371 bound_to 10713
  140.3008  134.8165  157.4096 LP  0  0  0  0  0  0  0  0  0  0  0  0  # atno 17394 bound_to 11000
  140.1264  134.5152  155.8141 LP  0  0  0  0  0  0  0  0  0  0  0  0  # atno 17395 bound_to 11000

$$$$
