AV-unprocessed.smi:999|AV-procd|sdf|4354|dock8
  -GOLD-   22720 2253D 1   1.00000     0.00000
 Structure written by MMmdl.
 37 38  0  0  0  0  0  0  0  0  2 V2000
  145.0416  135.8962  151.7681 C   0  0  0  0  0  0  0  0  0  0  0  0
  145.9708  134.6974  151.4865 C   0  0  1  0  0  0  0  0  0  0  0  0
  146.3524  133.9264  152.7603 C   0  0  0  0  0  0  0  0  0  0  0  0
  145.5386  133.1896  153.3189 O   0  0  0  0  0  0  0  0  0  0  0  0
  147.6031  134.1139  153.2104 N   0  0  0  0  0  0  0  0  0  0  0  0
  148.1818  133.4896  154.3953 C   0  0  2  0  0  0  0  0  0  0  0  0
  147.7506  134.2467  155.6686 C   0  0  0  0  0  0  0  0  0  0  0  0
  148.4345  133.6742  156.9245 C   0  0  0  0  0  0  0  0  0  0  0  0
  149.9782  133.6623  156.8028 C   0  0  2  0  0  0  0  0  0  0  0  0
  150.5956  135.0793  156.8703 C   0  0  0  0  0  0  0  0  0  0  0  0
  151.2532  135.4764  155.8829 O   0  0  0  0  0  0  0  0  0  0  0  0
  150.4313  135.7403  157.9197 O   0  5  0  0  0  0  0  0  0  0  0  0
  150.3886  132.8943  155.5225 C   0  0  0  0  0  0  0  0  0  0  0  0
  149.7161  133.4601  154.2574 C   0  0  0  0  0  0  0  0  0  0  0  0
  145.4170  133.7866  150.4906 N   0  0  0  0  0  0  0  0  0  0  0  0
  146.0055  132.6587  149.9546 C   0  0  0  0  0  0  0  0  0  0  0  0
  145.1073  132.0952  149.0945 C   0  0  0  0  0  0  0  0  0  0  0  0
  143.9743  132.9506  149.1814 C   0  0  0  0  0  0  0  0  0  0  0  0
  144.1579  133.9546  150.0227 N   0  0  0  0  0  0  0  0  0  0  0  0
  145.5070  136.5977  152.4615 H   0  0  0  0  0  0  0  0  0  0  0  0
  144.0899  135.5866  152.2021 H   0  0  0  0  0  0  0  0  0  0  0  0
  144.8233  136.4421  150.8497 H   0  0  0  0  0  0  0  0  0  0  0  0
  146.8936  135.1028  151.0679 H   0  0  0  0  0  0  0  0  0  0  0  0
  148.2026  134.7402  152.6931 H   0  0  0  0  0  0  0  0  0  0  0  0
  147.8309  132.4580  154.4645 H   0  0  0  0  0  0  0  0  0  0  0  0
  147.9899  135.3062  155.5685 H   0  0  0  0  0  0  0  0  0  0  0  0
  146.6684  134.1905  155.7895 H   0  0  0  0  0  0  0  0  0  0  0  0
  148.1137  134.2261  157.8087 H   0  0  0  0  0  0  0  0  0  0  0  0
  148.0862  132.6527  157.0804 H   0  0  0  0  0  0  0  0  0  0  0  0
  150.3805  133.1258  157.6629 H   0  0  0  0  0  0  0  0  0  0  0  0
  151.4720  132.8880  155.3972 H   0  0  0  0  0  0  0  0  0  0  0  0
  150.1054  131.8473  155.6347 H   0  0  0  0  0  0  0  0  0  0  0  0
  149.9988  132.8556  153.3948 H   0  0  0  0  0  0  0  0  0  0  0  0
  150.0909  134.4656  154.0603 H   0  0  0  0  0  0  0  0  0  0  0  0
  147.0053  132.3541  150.2279 H   0  0  0  0  0  0  0  0  0  0  0  0
  145.2370  131.2041  148.4986 H   0  0  0  0  0  0  0  0  0  0  0  0
  143.0289  132.8697  148.6658 H   0  0  0  0  0  0  0  0  0  0  0  0
  1  2  1  0  0  0  0
  1 20  1  0  0  0  0
  1 21  1  0  0  0  0
  1 22  1  0  0  0  0
  2  3  1  0  0  0  0
  2 15  1  0  0  0  0
  2 23  1  0  0  0  0
  3  4  2  0  0  0  0
  3  5  1  0  0  0  0
  5  6  1  0  0  0  0
  5 24  1  0  0  0  0
  6 14  1  0  0  0  0
  6  7  1  0  0  0  0
  6 25  1  0  0  0  0
  7  8  1  0  0  0  0
  7 26  1  0  0  0  0
  7 27  1  0  0  0  0
  8  9  1  0  0  0  0
  8 28  1  0  0  0  0
  8 29  1  0  0  0  0
  9 10  1  0  0  0  0
  9 13  1  0  0  0  0
  9 30  1  0  0  0  0
 10 11  2  0  0  0  0
 10 12  1  0  0  0  0
 13 14  1  0  0  0  0
 13 31  1  0  0  0  0
 13 32  1  0  0  0  0
 14 33  1  0  0  0  0
 14 34  1  0  0  0  0
 15 19  1  0  0  0  0
 15 16  1  0  0  0  0
 16 17  2  0  0  0  0
 16 35  1  0  0  0  0
 17 18  1  0  0  0  0
 17 36  1  0  0  0  0
 18 19  2  0  0  0  0
 18 37  1  0  0  0  0
M  CHG  1  12  -1
M  END
> <s_m_source_file>
AV-unprocessed.smi

> <i_m_source_file_index>
999

> <i_lp_mmshare_version>
43012

> <i_f3d_flags>
0

> <s_epik_input>
bjFbY0hdW2NIXVtjSF1uMVtDQEhdKFtDSDNdKUMoPU8pW05IXVtDQEBIXTJbQ0gyXVtDSDJdW0NAQEhdKEMoPU8pW09IXSlbQ0gyXVtDSDJdMg==

> <s_epik_cmdline>
J2VwaWtfcHl0aG9uJywgJy1waCcsICc3LjAnLCAnLXRuJywgJzgnLCAnLW1hJywgJzIwMCcsICctbWV0YWxfYmluZGluZycsICctaW1hZScsICc8aW5maWxlLm1hZT4nLCAnLW9tYWUnLCAnPG91dGZpbGUubWFlPic=

> <r_lp_tautomer_probability>
1

> <r_epik_Ionization_Penalty>
0.00221712

> <r_epik_Ionization_Penalty_Charging>
0.00217268

> <r_epik_Ionization_Penalty_Neutral>
4.44343e-05

> <r_epik_State_Penalty>
0.0014925

> <r_epik_Charging_Adjusted_Penalty>
0.00366518

> <i_epik_Tot_Q>
-1

> <i_epik_Tot_abs_Q>
1

> <r_epik_Metal_State_Penalty>
-0

> <b_epik_Metal_Only>
0

> <s_lp_Force_Field>
OPLS_2005

> <r_lp_Energy>
8.81329

> <b_lp_Chiralities_Consistent>
1

> <s_lp_Variant>
AV-unprocessed.smi:999-4

> <Gold.Version>
5.8.1

> <Gold.Id.Protein>
6NUR|6NUR_protein|mol2

> <Gold.PLP.Fitness>
44.6365

> <Gold.PLP.PLP>
-27.8108

> <Gold.PLP.part.hbond>
-3.0000

> <Gold.PLP.part.metal>
0.0000

> <Gold.PLP.part.buried>
-2.8550

> <Gold.PLP.part.nonpolar>
-23.6144

> <Gold.PLP.part.repulsive>
0.3719

> <Gold.PLP.ligand.clash>
0.0000

> <Gold.PLP.ligand.torsion>
0.6219

> <Gold.PLP.Chemscore.Hbond>
4.2160

> <Gold.PLP.Chemscore.CHOScore>
1.7595

> <Gold.PLP.Chemscore.Metal>
0.0000

> <Gold.Chemscore.Hbonds>
donor molecule, donor type, donor heavy atom, donor atom, acceptor molecule, acceptor atom, score
      L1  H     5    24       P1  7948  1.00
      P1  H  6896  6909       L1    12  1.34
      P1  H 10752 10765       L1    11  1.95
      L1  C    16    35       P1 10747  1.00
      L1  C    18    37       P1 10186  0.46

> <Gold.PLP.Chemscore.Internal.Correction>
0.1429

> <Gold.Rescore>
     Score         DG    S(hbond)    S(metal)    S(lipo)     H(rot)  DE(clash)    DE(int)     intcor
     14.79     -16.32       2.33        0.00      69.45       1.98       0.01       1.53       ----

> <Gold.Chemscore.Fitness>
14.7890

> <Gold.Chemscore.DG>
-16.3212

> <Gold.Chemscore.ZeroCoef>
-5.4800

> <Gold.Chemscore.Hbond>
2.3286

> <Gold.Chemscore.Metal>
0.0000

> <Gold.Chemscore.Lipo>
69.4490

> <Gold.Chemscore.Internal_Hbond>
0.0000

> <Gold.Chemscore.DEClash>
0.0053

> <Gold.Chemscore.DEInternal>
1.5268

> <Gold.Chemscore.Rot>
1.9774

> <Gold.Chemscore.Internal.Correction>
   9.000000E+99

> <Gold.Chemscore.Hbonds>
donor molecule, donor type, donor heavy atom, donor atom, acceptor molecule, acceptor atom, score
      L1  H     5    24       P1  7948  0.55
      P1  H  6896  6909       L1    12  0.56
      P1  H 10752 10765       L1    11  0.92

> <Gold.Chemscore.Hbond.Weighted>
-7.7777

> <Gold.Chemscore.Metal.Weighted>
-0.0000

> <Gold.Chemscore.Lipo.Weighted>
-8.1255

> <Gold.Chemscore.Internal_Hbond.Weighted>
0.0000

> <Gold.Chemscore.DEClash.Weighted>
0.0053

> <Gold.Chemscore.DEInternal.Weighted>
1.5268

> <Gold.Chemscore.Rot.Weighted>
5.0620

> <Gold.Chemscore.Internal.Correction.Weighted>
   9.000000E+99

> <Gold.Protein.RotatedTorsions>
[ 6907 6896 6895 6894 ] final   55.84 input  -60.11 | X-H torsion
[ 7974 7965 7964 7962 ] final -159.43 input  175.53 | X-H torsion
[ 8008 7997 7996 7995 ] final  163.43 input   59.86 | X-H torsion
[ 10167 10162 10161 10158 ] final   40.84 input  -65.29 | X-H torsion
[ 10718 10713 10712 10709 ] final -137.43 input   66.30 | X-H torsion
[ 10763 10752 10751 10750 ] final -156.13 input  -60.55 | X-H torsion
[ 11005 11000 10999 10996 ] final  154.77 input  -57.11 | X-H torsion

> <Gold.Protein.ActiveResidues>
 VAL166  LYS551  ARG553  GLY616  TRP617  ASP618  TYR619  PRO620  LYS621  CYS622 
 ASP623  PHE694  ASN695  SER759  ASP760  ASP761  ALA762  ILE779  LEU786  VAL792 
 PHE793  MET794  SER795  GLU796  ALA797  LYS798  CYS799  TRP800  GLU811  SER814 

> <Gold.Protein.RotatedAtoms>
  152.3578  134.6915  160.0216 H   0  0  0  0  0  0  0  0  0  0  0  0  # atno 6907 bound_to 6896
  151.7248  133.3310  159.3333 H   0  0  0  0  0  0  0  0  0  0  0  0  # atno 6908 bound_to 6896
  150.7584  134.6350  159.6251 H   0  0  0  0  0  0  0  0  0  0  0  0  # atno 6909 bound_to 6896
  144.7465  140.3686  143.6081 H   0  0  0  0  0  0  0  0  0  0  0  0  # atno 7974 bound_to 7965
  156.1957  140.1723  156.8002 H   0  0  0  0  0  0  0  0  0  0  0  0  # atno 8008 bound_to 7997
  154.5527  140.0714  156.8725 H   0  0  0  0  0  0  0  0  0  0  0  0  # atno 8009 bound_to 7997
  155.2998  140.3361  155.4250 H   0  0  0  0  0  0  0  0  0  0  0  0  # atno 8010 bound_to 7997
  140.3702  144.2115  150.6133 H   0  0  0  0  0  0  0  0  0  0  0  0  # atno 10167 bound_to 10162
  156.2881  130.7359  151.1376 H   0  0  0  0  0  0  0  0  0  0  0  0  # atno 10718 bound_to 10713
  154.7736  135.3152  154.8139 H   0  0  0  0  0  0  0  0  0  0  0  0  # atno 10763 bound_to 10752
  153.8868  135.6829  153.4767 H   0  0  0  0  0  0  0  0  0  0  0  0  # atno 10764 bound_to 10752
  153.1354  135.4762  154.9350 H   0  0  0  0  0  0  0  0  0  0  0  0  # atno 10765 bound_to 10752
  140.1520  134.8668  157.2466 H   0  0  0  0  0  0  0  0  0  0  0  0  # atno 11005 bound_to 11000
  145.7101  139.1682  143.2543 LP  0  0  0  0  0  0  0  0  0  0  0  0  # atno 17320 bound_to 7965
  146.1353  140.7131  142.9393 LP  0  0  0  0  0  0  0  0  0  0  0  0  # atno 17321 bound_to 7965
  140.5041  143.2309  151.8635 LP  0  0  0  0  0  0  0  0  0  0  0  0  # atno 17342 bound_to 10162
  139.4804  144.5026  151.9040 LP  0  0  0  0  0  0  0  0  0  0  0  0  # atno 17343 bound_to 10162
  157.7334  131.0591  150.5577 LP  0  0  0  0  0  0  0  0  0  0  0  0  # atno 17370 bound_to 10713
  156.5690  130.4275  149.6028 LP  0  0  0  0  0  0  0  0  0  0  0  0  # atno 17371 bound_to 10713
  140.2593  134.3590  155.7412 LP  0  0  0  0  0  0  0  0  0  0  0  0  # atno 17394 bound_to 11000
  141.2200  133.7360  156.9056 LP  0  0  0  0  0  0  0  0  0  0  0  0  # atno 17395 bound_to 11000

$$$$
