AV-unprocessed.smi:278|AV-procd|sdf|2093|dock6
  -GOLD-   2262021373D 1   1.00000     0.00000
 Structure written by MMmdl.
 50 54  0  0  0  0  0  0  0  0  1 V2000
  144.5966  136.4140  162.0099 O   0  0  0  0  0  0  0  0  0  0  0  0
  146.0533  136.4386  161.8102 S   0  0  0  0  0  0  0  0  0  0  0  0
  146.8291  137.6577  162.0866 O   0  0  0  0  0  0  0  0  0  0  0  0
  146.8030  135.0335  162.7213 C   0  0  0  0  0  0  0  0  0  0  0  0
  147.1092  133.9557  161.6731 C   0  0  0  0  0  0  0  0  0  0  0  0
  147.3873  134.6331  160.3187 C   0  0  2  0  0  0  0  0  0  0  0  0
  148.7663  135.2946  160.2248 C   0  0  0  0  0  0  0  0  0  0  0  0
  148.5925  136.4055  159.2998 N   0  0  0  0  0  0  0  0  0  0  0  0
  149.5943  137.2930  159.0652 C   0  0  0  0  0  0  0  0  0  0  0  0
  150.8444  136.9971  159.5113 N   0  0  0  0  0  0  0  0  0  0  0  0
  151.8597  137.8386  159.2982 C   0  0  0  0  0  0  0  0  0  0  0  0
  151.8513  139.0116  158.6643 N   0  0  0  0  0  0  0  0  0  0  0  0
  150.6047  139.3134  158.2024 C   0  0  0  0  0  0  0  0  0  0  0  0
  149.4304  138.5205  158.3559 C   0  0  0  0  0  0  0  0  0  0  0  0
  148.3568  139.1559  157.7396 N   0  0  0  0  0  0  0  0  0  0  0  0
  148.8636  140.2580  157.2594 C   0  0  0  0  0  0  0  0  0  0  0  0
  150.2085  140.4301  157.4878 N   0  0  0  0  0  0  0  0  0  0  0  0
  151.0238  141.5525  157.0565 C   0  0  0  0  0  0  0  0  0  0  0  0
  150.5776  142.8831  157.6946 C   0  0  2  0  0  0  0  0  0  0  0  0
  151.1943  143.9610  157.0159 O   0  0  0  0  0  0  0  0  0  0  0  0
  150.9031  142.9401  159.2014 C   0  0  1  0  0  0  0  0  0  0  0  0
  152.3826  142.9554  159.6003 C   0  0  0  0  0  0  0  0  0  0  0  0
  152.3097  143.5955  160.9683 C   0  0  0  0  0  0  0  0  0  0  0  0
  151.2155  144.6411  160.7658 C   0  0  0  0  0  0  0  0  0  0  0  0
  150.3156  144.0874  159.8089 O   0  0  0  0  0  0  0  0  0  0  0  0
  147.1957  136.8158  159.2524 C   0  0  0  0  0  0  0  0  0  0  0  0
  146.4272  135.8075  160.1189 C   0  0  2  0  0  0  0  0  0  0  0  0
  147.2803  133.9216  159.4985 H   0  0  0  0  0  0  0  0  0  0  0  0
  145.4883  135.4964  159.6599 H   0  0  0  0  0  0  0  0  0  0  0  0
  147.7204  135.3892  163.1906 H   0  0  0  0  0  0  0  0  0  0  0  0
  146.1262  134.6873  163.5026 H   0  0  0  0  0  0  0  0  0  0  0  0
  147.9323  133.3117  161.9846 H   0  0  0  0  0  0  0  0  0  0  0  0
  146.2322  133.3164  161.5656 H   0  0  0  0  0  0  0  0  0  0  0  0
  149.0871  135.6800  161.1936 H   0  0  0  0  0  0  0  0  0  0  0  0
  149.5213  134.5920  159.8702 H   0  0  0  0  0  0  0  0  0  0  0  0
  152.8164  137.5262  159.6904 H   0  0  0  0  0  0  0  0  0  0  0  0
  148.2682  140.9768  156.7156 H   0  0  0  0  0  0  0  0  0  0  0  0
  152.0605  141.3375  157.3183 H   0  0  0  0  0  0  0  0  0  0  0  0
  150.9854  141.6176  155.9684 H   0  0  0  0  0  0  0  0  0  0  0  0
  149.4987  142.9820  157.5683 H   0  0  0  0  0  0  0  0  0  0  0  0
  150.6312  144.2264  156.3046 H   0  0  0  0  0  0  0  0  0  0  0  0
  150.4315  142.0858  159.6901 H   0  0  0  0  0  0  0  0  0  0  0  0
  152.8288  141.9606  159.6166 H   0  0  0  0  0  0  0  0  0  0  0  0
  152.9765  143.5840  158.9363 H   0  0  0  0  0  0  0  0  0  0  0  0
  151.9953  142.8601  161.7101 H   0  0  0  0  0  0  0  0  0  0  0  0
  153.2573  144.0264  161.2926 H   0  0  0  0  0  0  0  0  0  0  0  0
  150.7038  144.8954  161.6943 H   0  0  0  0  0  0  0  0  0  0  0  0
  151.6390  145.5567  160.3513 H   0  0  0  0  0  0  0  0  0  0  0  0
  147.0517  137.8412  159.5927 H   0  0  0  0  0  0  0  0  0  0  0  0
  146.8544  136.7573  158.2185 H   0  0  0  0  0  0  0  0  0  0  0  0
  1  2  2  0  0  0  0
  2 27  1  0  0  0  0
  2  3  2  0  0  0  0
  2  4  1  0  0  0  0
  4  5  1  0  0  0  0
  4 30  1  0  0  0  0
  4 31  1  0  0  0  0
  5  6  1  0  0  0  0
  5 32  1  0  0  0  0
  5 33  1  0  0  0  0
  6 28  1  0  0  0  0
  6 27  1  0  0  0  0
  6  7  1  0  0  0  0
  7  8  1  0  0  0  0
  7 34  1  0  0  0  0
  7 35  1  0  0  0  0
  8  9  1  0  0  0  0
  8 26  1  0  0  0  0
  9 14  1  0  0  0  0
  9 10  2  0  0  0  0
 10 11  1  0  0  0  0
 11 12  2  0  0  0  0
 11 36  1  0  0  0  0
 12 13  1  0  0  0  0
 13 17  1  0  0  0  0
 13 14  2  0  0  0  0
 14 15  1  0  0  0  0
 15 16  2  0  0  0  0
 16 17  1  0  0  0  0
 16 37  1  0  0  0  0
 17 18  1  0  0  0  0
 18 19  1  0  0  0  0
 18 38  1  0  0  0  0
 18 39  1  0  0  0  0
 19 20  1  0  0  0  0
 19 21  1  0  0  0  0
 19 40  1  0  0  0  0
 20 41  1  0  0  0  0
 21 25  1  0  0  0  0
 21 22  1  0  0  0  0
 21 42  1  0  0  0  0
 22 23  1  0  0  0  0
 22 43  1  0  0  0  0
 22 44  1  0  0  0  0
 23 24  1  0  0  0  0
 23 45  1  0  0  0  0
 23 46  1  0  0  0  0
 24 25  1  0  0  0  0
 24 47  1  0  0  0  0
 24 48  1  0  0  0  0
 26 27  1  0  0  0  0
 26 49  1  0  0  0  0
 26 50  1  0  0  0  0
 27 29  1  0  0  0  0
M  END
> <s_m_source_file>
AV-unprocessed.smi

> <i_m_source_file_index>
278

> <i_lp_mmshare_version>
43012

> <i_f3d_flags>
0

> <s_epik_input>
W0NIMl0xW0NIMl1TKD1PKSg9TylbQ0BASF0oW0NAQEhdMTIpW0NIMl1OKFtDSDJdMiljKG5bY0hdbjMpYyhjMzQpbltjSF1uNFtDSDJdW0NASF0oW09IXSlbQ0BASF01W0NIMl1bQ0gyXVtDSDJdTzU=

> <s_epik_cmdline>
J2VwaWtfcHl0aG9uJywgJy1waCcsICc3LjAnLCAnLXRuJywgJzgnLCAnLW1hJywgJzIwMCcsICctbWV0YWxfYmluZGluZycsICctaW1hZScsICc8aW5maWxlLm1hZT4nLCAnLW9tYWUnLCAnPG91dGZpbGUubWFlPic=

> <r_lp_tautomer_probability>
1

> <r_epik_Ionization_Penalty>
0.000636766

> <r_epik_Ionization_Penalty_Charging>
0

> <r_epik_Ionization_Penalty_Neutral>
0.000636766

> <r_epik_State_Penalty>
0.000329976

> <r_epik_Charging_Adjusted_Penalty>
0.000329976

> <i_epik_Tot_Q>
0

> <i_epik_Tot_abs_Q>
0

> <r_epik_Metal_State_Penalty>
-0

> <b_epik_Metal_Only>
0

> <s_lp_Force_Field>
OPLS_2005

> <r_lp_Energy>
51.4583

> <b_lp_Chiralities_Consistent>
1

> <s_lp_Variant>
AV-unprocessed.smi:278-7

> <Gold.Version>
5.8.1

> <Gold.Id.Protein>
6NUR|6NUR_protein|mol2

> <Gold.PLP.Fitness>
53.4854

> <Gold.PLP.PLP>
-44.5554

> <Gold.PLP.part.hbond>
-4.3402

> <Gold.PLP.part.metal>
0.0000

> <Gold.PLP.part.buried>
-6.5097

> <Gold.PLP.part.nonpolar>
-33.2599

> <Gold.PLP.part.repulsive>
0.1222

> <Gold.PLP.ligand.clash>
0.0000

> <Gold.PLP.ligand.torsion>
0.2417

> <Gold.PLP.Chemscore.Hbond>
3.0560

> <Gold.PLP.Chemscore.CHOScore>
0.0000

> <Gold.PLP.Chemscore.Metal>
0.0000

> <Gold.Chemscore.Hbonds>
donor molecule, donor type, donor heavy atom, donor atom, acceptor molecule, acceptor atom, score
      L1  H    20    41       P1  8028  1.00
      P1  H  6896  6908       L1    10  1.00
      P1  H  6931  6943       L1     3  0.21
      P1  H  6934  6947       L1     3  0.67

> <Gold.PLP.Chemscore.Internal.Correction>
0.2455

> <Gold.Rescore>
     Score         DG    S(hbond)    S(metal)    S(lipo)     H(rot)  DE(clash)    DE(int)     intcor
     19.40     -20.90       2.98        0.00      93.54       2.13       0.26       1.24       ----

> <Gold.Chemscore.Fitness>
19.3952

> <Gold.Chemscore.DG>
-20.8972

> <Gold.Chemscore.ZeroCoef>
-5.4800

> <Gold.Chemscore.Hbond>
2.9754

> <Gold.Chemscore.Metal>
0.0000

> <Gold.Chemscore.Lipo>
93.5394

> <Gold.Chemscore.Internal_Hbond>
0.0000

> <Gold.Chemscore.DEClash>
0.2570

> <Gold.Chemscore.DEInternal>
1.2450

> <Gold.Chemscore.Rot>
2.1346

> <Gold.Chemscore.Internal.Correction>
   9.000000E+99

> <Gold.Chemscore.Hbonds>
donor molecule, donor type, donor heavy atom, donor atom, acceptor molecule, acceptor atom, score
      L1  H    20    41       P1  8028  0.94
      P1  H  6896  6908       L1    10  0.64
      P1  H  6931  6943       L1     3  0.21
      P1  H  6934  6947       L1     3  0.68

> <Gold.Chemscore.Hbond.Weighted>
-9.9377

> <Gold.Chemscore.Metal.Weighted>
-0.0000

> <Gold.Chemscore.Lipo.Weighted>
-10.9441

> <Gold.Chemscore.Internal_Hbond.Weighted>
0.0000

> <Gold.Chemscore.DEClash.Weighted>
0.2570

> <Gold.Chemscore.DEInternal.Weighted>
1.2450

> <Gold.Chemscore.Rot.Weighted>
5.4646

> <Gold.Chemscore.Internal.Correction.Weighted>
   9.000000E+99

> <Gold.Protein.RotatedTorsions>
[ 6907 6896 6895 6894 ] final -158.42 input  -60.11 | X-H torsion
[ 7974 7965 7964 7962 ] final -156.59 input  175.53 | X-H torsion
[ 8008 7997 7996 7995 ] final  -28.80 input   59.86 | X-H torsion
[ 10167 10162 10161 10158 ] final  -88.16 input  -65.29 | X-H torsion
[ 10718 10713 10712 10709 ] final  162.28 input   66.30 | X-H torsion
[ 10763 10752 10751 10750 ] final -170.41 input  -60.55 | X-H torsion
[ 11005 11000 10999 10996 ] final  122.29 input  -57.11 | X-H torsion

> <Gold.Protein.ActiveResidues>
 VAL166  LYS551  ARG553  GLY616  TRP617  ASP618  TYR619  PRO620  LYS621  CYS622 
 ASP623  PHE694  ASN695  SER759  ASP760  ASP761  ALA762  ILE779  LEU786  VAL792 
 PHE793  MET794  SER795  GLU796  ALA797  LYS798  CYS799  TRP800  GLU811  SER814 

> <Gold.Protein.RotatedAtoms>
  151.3179  133.4052  159.2651 H   0  0  0  0  0  0  0  0  0  0  0  0  # atno 6907 bound_to 6896
  151.0059  134.9359  159.7990 H   0  0  0  0  0  0  0  0  0  0  0  0  # atno 6908 bound_to 6896
  152.5288  134.3144  159.9178 H   0  0  0  0  0  0  0  0  0  0  0  0  # atno 6909 bound_to 6896
  144.7586  140.4088  143.5993 H   0  0  0  0  0  0  0  0  0  0  0  0  # atno 7974 bound_to 7965
  154.4317  140.1835  156.1147 H   0  0  0  0  0  0  0  0  0  0  0  0  # atno 8008 bound_to 7997
  156.0190  140.3342  155.6994 H   0  0  0  0  0  0  0  0  0  0  0  0  # atno 8009 bound_to 7997
  155.6003  140.0639  157.2725 H   0  0  0  0  0  0  0  0  0  0  0  0  # atno 8010 bound_to 7997
  140.3774  143.2765  151.9426 H   0  0  0  0  0  0  0  0  0  0  0  0  # atno 10167 bound_to 10162
  157.1247  131.0501  151.2399 H   0  0  0  0  0  0  0  0  0  0  0  0  # atno 10718 bound_to 10713
  154.6418  135.2899  155.0094 H   0  0  0  0  0  0  0  0  0  0  0  0  # atno 10763 bound_to 10752
  154.1218  135.6547  153.4908 H   0  0  0  0  0  0  0  0  0  0  0  0  # atno 10764 bound_to 10752
  153.0330  135.5289  154.7288 H   0  0  0  0  0  0  0  0  0  0  0  0  # atno 10765 bound_to 10752
  139.9262  134.9641  156.8087 H   0  0  0  0  0  0  0  0  0  0  0  0  # atno 11005 bound_to 11000
  145.6695  139.1596  143.2762 LP  0  0  0  0  0  0  0  0  0  0  0  0  # atno 17320 bound_to 7965
  146.1624  140.6768  142.9271 LP  0  0  0  0  0  0  0  0  0  0  0  0  # atno 17321 bound_to 7965
  139.4798  144.5850  151.7868 LP  0  0  0  0  0  0  0  0  0  0  0  0  # atno 17342 bound_to 10162
  140.4972  144.1223  150.5963 LP  0  0  0  0  0  0  0  0  0  0  0  0  # atno 17343 bound_to 10162
  157.4445  130.7563  149.7098 LP  0  0  0  0  0  0  0  0  0  0  0  0  # atno 17370 bound_to 10713
  155.9821  130.4013  150.3436 LP  0  0  0  0  0  0  0  0  0  0  0  0  # atno 17371 bound_to 10713
  140.6330  133.9888  155.7671 LP  0  0  0  0  0  0  0  0  0  0  0  0  # atno 17394 bound_to 11000
  141.0821  134.0047  157.3370 LP  0  0  0  0  0  0  0  0  0  0  0  0  # atno 17395 bound_to 11000

$$$$
