AV-unprocessed.smi:3289|AV-procd|sdf|12608|dock10
  -GOLD-   2272018533D 1   1.00000     0.00000
 Structure written by MMmdl.
 40 41  0  0  0  0  0  0  0  0  2 V2000
  146.9965  138.8321  152.9132 C   0  0  0  0  0  0  0  0  0  0  0  0
  147.5657  139.7605  153.9982 C   0  0  0  0  0  0  0  0  0  0  0  0
  147.3648  141.2382  153.6344 C   0  0  0  0  0  0  0  0  0  0  0  0
  149.0103  139.4668  154.2983 C   0  0  0  0  0  0  0  0  0  0  0  0
  149.7462  138.5185  153.7039 N   0  3  0  0  0  0  0  0  0  0  0  0
  151.0284  138.5347  154.1788 C   0  0  0  0  0  0  0  0  0  0  0  0
  151.0876  139.5523  155.0932 C   0  0  0  0  0  0  0  0  0  0  0  0
  149.8377  140.1169  155.1396 N   0  0  0  0  0  0  0  0  0  0  0  0
  149.4398  141.2528  155.9844 C   0  0  0  0  0  0  0  0  0  0  0  0
  150.6245  141.7888  156.7906 C   0  0  0  0  0  0  0  0  0  0  0  0
  151.3470  141.0118  157.4147 O   0  0  0  0  0  0  0  0  0  0  0  0
  150.7883  143.1204  156.7953 N   0  0  0  0  0  0  0  0  0  0  0  0
  151.7660  143.8505  157.5943 C   0  0  0  0  0  0  0  0  0  0  0  0
  151.7021  143.4338  159.0740 C   0  0  1  0  0  0  0  0  0  0  0  0
  152.8494  142.5457  159.5497 C   0  0  0  0  0  0  0  0  0  0  0  0
  152.7786  142.7264  161.0508 C   0  0  0  0  0  0  0  0  0  0  0  0
  152.2657  144.1609  161.2063 C   0  0  0  0  0  0  0  0  0  0  0  0
  151.8133  144.5704  159.9174 O   0  0  0  0  0  0  0  0  0  0  0  0
  147.1110  137.7840  153.1909 H   0  0  0  0  0  0  0  0  0  0  0  0
  147.4958  138.9801  151.9552 H   0  0  0  0  0  0  0  0  0  0  0  0
  145.9325  139.0154  152.7615 H   0  0  0  0  0  0  0  0  0  0  0  0
  147.0138  139.5556  154.9141 H   0  0  0  0  0  0  0  0  0  0  0  0
  147.7064  141.8934  154.4362 H   0  0  0  0  0  0  0  0  0  0  0  0
  146.3117  141.4592  153.4567 H   0  0  0  0  0  0  0  0  0  0  0  0
  147.9168  141.5023  152.7318 H   0  0  0  0  0  0  0  0  0  0  0  0
  151.7834  137.8418  153.8368 H   0  0  0  0  0  0  0  0  0  0  0  0
  151.9076  139.9100  155.6990 H   0  0  0  0  0  0  0  0  0  0  0  0
  149.0568  142.0426  155.3371 H   0  0  0  0  0  0  0  0  0  0  0  0
  148.6184  140.9421  156.6315 H   0  0  0  0  0  0  0  0  0  0  0  0
  150.1549  143.6776  156.2404 H   0  0  0  0  0  0  0  0  0  0  0  0
  152.7749  143.7210  157.1993 H   0  0  0  0  0  0  0  0  0  0  0  0
  151.5379  144.9128  157.5063 H   0  0  0  0  0  0  0  0  0  0  0  0
  150.7481  142.9474  159.2857 H   0  0  0  0  0  0  0  0  0  0  0  0
  152.7456  141.5059  159.2403 H   0  0  0  0  0  0  0  0  0  0  0  0
  153.8022  142.9213  159.1734 H   0  0  0  0  0  0  0  0  0  0  0  0
  152.0585  142.0255  161.4753 H   0  0  0  0  0  0  0  0  0  0  0  0
  153.7388  142.5631  161.5411 H   0  0  0  0  0  0  0  0  0  0  0  0
  151.4512  144.2111  161.9294 H   0  0  0  0  0  0  0  0  0  0  0  0
  153.0554  144.8349  161.5390 H   0  0  0  0  0  0  0  0  0  0  0  0
  149.3966  137.8772  153.0032 H   0  0  0  0  0  0  0  0  0  0  0  0
  1  2  1  0  0  0  0
  1 19  1  0  0  0  0
  1 20  1  0  0  0  0
  1 21  1  0  0  0  0
  2  3  1  0  0  0  0
  2  4  1  0  0  0  0
  2 22  1  0  0  0  0
  3 23  1  0  0  0  0
  3 24  1  0  0  0  0
  3 25  1  0  0  0  0
  4  8  1  0  0  0  0
  4  5  2  0  0  0  0
  5  6  1  0  0  0  0
  5 40  1  0  0  0  0
  6  7  2  0  0  0  0
  6 26  1  0  0  0  0
  7  8  1  0  0  0  0
  7 27  1  0  0  0  0
  8  9  1  0  0  0  0
  9 10  1  0  0  0  0
  9 28  1  0  0  0  0
  9 29  1  0  0  0  0
 10 11  2  0  0  0  0
 10 12  1  0  0  0  0
 12 13  1  0  0  0  0
 12 30  1  0  0  0  0
 13 14  1  0  0  0  0
 13 31  1  0  0  0  0
 13 32  1  0  0  0  0
 14 18  1  0  0  0  0
 14 15  1  0  0  0  0
 14 33  1  0  0  0  0
 15 16  1  0  0  0  0
 15 34  1  0  0  0  0
 15 35  1  0  0  0  0
 16 17  1  0  0  0  0
 16 36  1  0  0  0  0
 16 37  1  0  0  0  0
 17 18  1  0  0  0  0
 17 38  1  0  0  0  0
 17 39  1  0  0  0  0
M  CHG  1   5   1
M  END
> <s_m_source_file>
AV-unprocessed.smi

> <i_m_source_file_index>
3289

> <i_lp_mmshare_version>
43012

> <i_f3d_flags>
0

> <s_epik_input>
W0NIM11bQ0hdKFtDSDNdKWMxbltjSF1bY0hdbjFbQ0gyXUMoPU8pW05IXVtDSDJdW0NAQEhdMltDSDJdW0NIMl1bQ0gyXU8y

> <s_epik_cmdline>
J2VwaWtfcHl0aG9uJywgJy1waCcsICc3LjAnLCAnLXRuJywgJzgnLCAnLW1hJywgJzIwMCcsICctbWV0YWxfYmluZGluZycsICctaW1hZScsICc8aW5maWxlLm1hZT4nLCAnLW9tYWUnLCAnPG91dGZpbGUubWFlPic=

> <r_lp_tautomer_probability>
1

> <r_epik_Ionization_Penalty>
0.274547

> <r_epik_Ionization_Penalty_Charging>
0

> <r_epik_Ionization_Penalty_Neutral>
0.274547

> <r_epik_State_Penalty>
0.266843

> <r_epik_Charging_Adjusted_Penalty>
0.266843

> <i_epik_Tot_Q>
1

> <i_epik_Tot_abs_Q>
1

> <r_epik_Metal_State_Penalty>
0.55046

> <b_epik_Metal_Only>
0

> <s_lp_Force_Field>
OPLS_2005

> <r_lp_Energy>
22.2551

> <b_lp_Chiralities_Consistent>
1

> <s_lp_Variant>
AV-unprocessed.smi:3289-2

> <Gold.Version>
5.8.1

> <Gold.Id.Protein>
6NUR|6NUR_protein|mol2

> <Gold.PLP.Fitness>
51.0823

> <Gold.PLP.PLP>
-43.7466

> <Gold.PLP.part.hbond>
-3.0000

> <Gold.PLP.part.metal>
0.0000

> <Gold.PLP.part.buried>
-5.2065

> <Gold.PLP.part.nonpolar>
-35.3946

> <Gold.PLP.part.repulsive>
0.1790

> <Gold.PLP.ligand.clash>
0.0000

> <Gold.PLP.ligand.torsion>
0.8655

> <Gold.PLP.Chemscore.Hbond>
3.0000

> <Gold.PLP.Chemscore.CHOScore>
0.0000

> <Gold.PLP.Chemscore.Metal>
0.0000

> <Gold.Chemscore.Hbonds>
donor molecule, donor type, donor heavy atom, donor atom, acceptor molecule, acceptor atom, score
      L1  H     5    40       P1  7948  2.00
      L1  H    12    30       P1  8028  1.00

> <Gold.PLP.Chemscore.Internal.Correction>
0.0668

> <Gold.Rescore>
     Score         DG    S(hbond)    S(metal)    S(lipo)     H(rot)  DE(clash)    DE(int)     intcor
     16.96     -19.22       1.96        0.00     100.48       1.78       0.03       2.23       ----

> <Gold.Chemscore.Fitness>
16.9641

> <Gold.Chemscore.DG>
-19.2212

> <Gold.Chemscore.ZeroCoef>
-5.4800

> <Gold.Chemscore.Hbond>
1.9614

> <Gold.Chemscore.Metal>
0.0000

> <Gold.Chemscore.Lipo>
100.4798

> <Gold.Chemscore.Internal_Hbond>
0.0000

> <Gold.Chemscore.DEClash>
0.0262

> <Gold.Chemscore.DEInternal>
2.2309

> <Gold.Chemscore.Rot>
1.7835

> <Gold.Chemscore.Internal.Correction>
   9.000000E+99

> <Gold.Chemscore.Hbonds>
donor molecule, donor type, donor heavy atom, donor atom, acceptor molecule, acceptor atom, score
      L1  H     5    40       P1  7948  0.87
      L1  H    12    30       P1  8028  1.00

> <Gold.Chemscore.Hbond.Weighted>
-6.5510

> <Gold.Chemscore.Metal.Weighted>
-0.0000

> <Gold.Chemscore.Lipo.Weighted>
-11.7561

> <Gold.Chemscore.Internal_Hbond.Weighted>
0.0000

> <Gold.Chemscore.DEClash.Weighted>
0.0262

> <Gold.Chemscore.DEInternal.Weighted>
2.2309

> <Gold.Chemscore.Rot.Weighted>
4.5659

> <Gold.Chemscore.Internal.Correction.Weighted>
   9.000000E+99

> <Gold.Protein.RotatedTorsions>
[ 6907 6896 6895 6894 ] final  156.97 input  -60.11 | X-H torsion
[ 7974 7965 7964 7962 ] final -134.47 input  175.53 | X-H torsion
[ 8008 7997 7996 7995 ] final   93.74 input   59.86 | X-H torsion
[ 10167 10162 10161 10158 ] final   98.60 input  -65.29 | X-H torsion
[ 10718 10713 10712 10709 ] final -143.93 input   66.30 | X-H torsion
[ 10763 10752 10751 10750 ] final  -10.79 input  -60.55 | X-H torsion
[ 11005 11000 10999 10996 ] final   37.43 input  -57.11 | X-H torsion

> <Gold.Protein.ActiveResidues>
 VAL166  LYS551  ARG553  GLY616  TRP617  ASP618  TYR619  PRO620  LYS621  CYS622 
 ASP623  PHE694  ASN695  SER759  ASP760  ASP761  ALA762  ILE779  LEU786  VAL792 
 PHE793  MET794  SER795  GLU796  ALA797  LYS798  CYS799  TRP800  GLU811  SER814 

> <Gold.Protein.RotatedAtoms>
  152.0220  133.3902  159.4261 H   0  0  0  0  0  0  0  0  0  0  0  0  # atno 6907 bound_to 6896
  150.6889  134.3616  159.4962 H   0  0  0  0  0  0  0  0  0  0  0  0  # atno 6908 bound_to 6896
  152.1391  134.9076  160.0605 H   0  0  0  0  0  0  0  0  0  0  0  0  # atno 6909 bound_to 6896
  144.9100  140.6883  143.5031 H   0  0  0  0  0  0  0  0  0  0  0  0  # atno 7974 bound_to 7965
  156.0501  140.3309  155.7341 H   0  0  0  0  0  0  0  0  0  0  0  0  # atno 8008 bound_to 7997
  155.5614  140.0619  157.2845 H   0  0  0  0  0  0  0  0  0  0  0  0  # atno 8009 bound_to 7997
  154.4432  140.1877  156.0774 H   0  0  0  0  0  0  0  0  0  0  0  0  # atno 8010 bound_to 7997
  139.7694  144.6927  151.0177 H   0  0  0  0  0  0  0  0  0  0  0  0  # atno 10167 bound_to 10162
  156.3640  130.7753  151.1924 H   0  0  0  0  0  0  0  0  0  0  0  0  # atno 10718 bound_to 10713
  153.4743  135.7017  153.5975 H   0  0  0  0  0  0  0  0  0  0  0  0  # atno 10763 bound_to 10752
  153.4216  135.3824  155.2115 H   0  0  0  0  0  0  0  0  0  0  0  0  # atno 10764 bound_to 10752
  154.8724  135.3929  154.4184 H   0  0  0  0  0  0  0  0  0  0  0  0  # atno 10765 bound_to 10752
  140.2226  134.3623  155.7998 H   0  0  0  0  0  0  0  0  0  0  0  0  # atno 11005 bound_to 11000
  145.3470  139.1716  143.4455 LP  0  0  0  0  0  0  0  0  0  0  0  0  # atno 17320 bound_to 7965
  146.3153  140.3518  142.8657 LP  0  0  0  0  0  0  0  0  0  0  0  0  # atno 17321 bound_to 7965
  140.7813  143.4606  151.0284 LP  0  0  0  0  0  0  0  0  0  0  0  0  # atno 17342 bound_to 10162
  139.8290  143.7717  152.3179 LP  0  0  0  0  0  0  0  0  0  0  0  0  # atno 17343 bound_to 10162
  157.7477  131.0392  150.4538 LP  0  0  0  0  0  0  0  0  0  0  0  0  # atno 17370 bound_to 10713
  156.4753  130.4062  149.6493 LP  0  0  0  0  0  0  0  0  0  0  0  0  # atno 17371 bound_to 10713
  141.2222  133.7202  156.8600 LP  0  0  0  0  0  0  0  0  0  0  0  0  # atno 17394 bound_to 11000
  140.1834  134.9017  157.2975 LP  0  0  0  0  0  0  0  0  0  0  0  0  # atno 17395 bound_to 11000

$$$$
