AV-unprocessed.smi:1510|AV-procd|sdf|6096|dock2
  -GOLD-   22720 6223D 1   1.00000     0.00000
 Structure written by MMmdl.
 33 34  0  0  0  0  0  0  0  0  1 V2000
  146.4992  131.7206  154.1210 O   0  0  0  0  0  0  0  0  0  0  0  0
  147.2603  131.7501  153.1531 C   0  0  0  0  0  0  0  0  0  0  0  0
  147.5692  133.0763  152.4454 C   0  0  0  0  0  0  0  0  0  0  0  0
  146.3865  133.6652  151.8021 N   0  0  0  0  0  0  0  0  0  0  0  0
  146.1585  134.9917  152.1361 N   0  0  0  0  0  0  0  0  0  0  0  0
  145.1562  135.6217  151.6233 C   0  0  0  0  0  0  0  0  0  0  0  0
  144.9701  136.9356  151.9765 O   0  0  0  0  0  0  0  0  0  0  0  0
  144.2519  134.9680  150.7030 C   0  0  0  0  0  0  0  0  0  0  0  0
  144.4802  133.6746  150.3865 C   0  0  0  0  0  0  0  0  0  0  0  0
  145.6097  132.9309  150.9471 C   0  0  0  0  0  0  0  0  0  0  0  0
  145.8431  131.7530  150.6756 O   0  0  0  0  0  0  0  0  0  0  0  0
  147.8501  130.6572  152.6466 N   0  0  0  0  0  0  0  0  0  0  0  0
  147.7220  129.3078  153.1852 C   0  0  0  0  0  0  0  0  0  0  0  0
  148.4771  128.2693  152.3360 C   0  0  2  0  0  0  0  0  0  0  0  0
  147.8160  127.9238  151.0031 C   0  0  0  0  0  0  0  0  0  0  0  0
  148.3830  126.5504  150.6858 C   0  0  0  0  0  0  0  0  0  0  0  0
  148.8839  126.0311  152.0381 C   0  0  0  0  0  0  0  0  0  0  0  0
  148.5035  127.0134  152.9935 O   0  0  0  0  0  0  0  0  0  0  0  0
  144.6153  137.3538  151.2071 H   0  0  0  0  0  0  0  0  0  0  0  0
  147.9989  133.7884  153.1529 H   0  0  0  0  0  0  0  0  0  0  0  0
  148.3508  132.8898  151.7068 H   0  0  0  0  0  0  0  0  0  0  0  0
  143.4165  135.5099  150.2845 H   0  0  0  0  0  0  0  0  0  0  0  0
  143.8129  133.1738  149.7007 H   0  0  0  0  0  0  0  0  0  0  0  0
  148.4535  130.7720  151.8452 H   0  0  0  0  0  0  0  0  0  0  0  0
  148.0759  129.2828  154.2171 H   0  0  0  0  0  0  0  0  0  0  0  0
  146.6608  129.0593  153.2163 H   0  0  0  0  0  0  0  0  0  0  0  0
  149.5061  128.5912  152.1653 H   0  0  0  0  0  0  0  0  0  0  0  0
  146.7344  127.8551  151.1256 H   0  0  0  0  0  0  0  0  0  0  0  0
  148.0226  128.6594  150.2249 H   0  0  0  0  0  0  0  0  0  0  0  0
  147.6258  125.8986  150.2492 H   0  0  0  0  0  0  0  0  0  0  0  0
  149.2105  126.6237  149.9794 H   0  0  0  0  0  0  0  0  0  0  0  0
  148.4586  125.0608  152.2952 H   0  0  0  0  0  0  0  0  0  0  0  0
  149.9703  125.9347  152.0335 H   0  0  0  0  0  0  0  0  0  0  0  0
  1  2  2  0  0  0  0
  2  3  1  0  0  0  0
  2 12  1  0  0  0  0
  3 20  1  0  0  0  0
  3 21  1  0  0  0  0
  3  4  1  0  0  0  0
  4  5  1  0  0  0  0
  4 10  1  0  0  0  0
  5  6  2  0  0  0  0
  6  7  1  0  0  0  0
  6  8  1  0  0  0  0
  7 19  1  0  0  0  0
  8 22  1  0  0  0  0
  8  9  2  0  0  0  0
  9 23  1  0  0  0  0
  9 10  1  0  0  0  0
 10 11  2  0  0  0  0
 12 13  1  0  0  0  0
 12 24  1  0  0  0  0
 13 14  1  0  0  0  0
 13 25  1  0  0  0  0
 13 26  1  0  0  0  0
 14 18  1  0  0  0  0
 14 15  1  0  0  0  0
 14 27  1  0  0  0  0
 15 16  1  0  0  0  0
 15 28  1  0  0  0  0
 15 29  1  0  0  0  0
 16 17  1  0  0  0  0
 16 30  1  0  0  0  0
 16 31  1  0  0  0  0
 17 18  1  0  0  0  0
 17 32  1  0  0  0  0
 17 33  1  0  0  0  0
M  END
> <s_m_source_file>
AV-unprocessed.smi

> <i_m_source_file_index>
1510

> <i_lp_mmshare_version>
43012

> <i_f3d_flags>
0

> <s_epik_input>
TzFbQ0gyXVtDSDJdW0NIMl1bQ0BIXTFbQ0gyXVtOSF1DKD1PKVtDSDJdbjJbbkhdYyg9TylbY0hdW2NIXWMyPU8=

> <s_epik_cmdline>
J2VwaWtfcHl0aG9uJywgJy1waCcsICc3LjAnLCAnLXRuJywgJzgnLCAnLW1hJywgJzIwMCcsICctbWV0YWxfYmluZGluZycsICctaW1hZScsICc8aW5maWxlLm1hZT4nLCAnLW9tYWUnLCAnPG91dGZpbGUubWFlPic=

> <r_lp_tautomer_probability>
0.9996

> <r_epik_Ionization_Penalty>
2.13037

> <r_epik_Ionization_Penalty_Charging>
3.76e-08

> <r_epik_Ionization_Penalty_Neutral>
2.13037

> <r_epik_State_Penalty>
1.70753

> <r_epik_Charging_Adjusted_Penalty>
1.70753

> <i_epik_Tot_Q>
0

> <i_epik_Tot_abs_Q>
0

> <r_epik_Metal_State_Penalty>
1.70753

> <b_epik_Metal_Only>
0

> <s_lp_Force_Field>
OPLS_2005

> <r_lp_Energy>
28.2415

> <b_lp_Chiralities_Consistent>
1

> <s_lp_Variant>
AV-unprocessed.smi:1510-3

> <Gold.Version>
5.8.1

> <Gold.Id.Protein>
6NUR|6NUR_protein|mol2

> <Gold.PLP.Fitness>
39.8074

> <Gold.PLP.PLP>
-34.1264

> <Gold.PLP.part.hbond>
-2.0000

> <Gold.PLP.part.metal>
0.0000

> <Gold.PLP.part.buried>
-5.9619

> <Gold.PLP.part.nonpolar>
-27.6739

> <Gold.PLP.part.repulsive>
1.4610

> <Gold.PLP.ligand.clash>
0.0000

> <Gold.PLP.ligand.torsion>
0.1642

> <Gold.PLP.Chemscore.Hbond>
2.0000

> <Gold.PLP.Chemscore.CHOScore>
0.0000

> <Gold.PLP.Chemscore.Metal>
0.0000

> <Gold.Chemscore.Hbonds>
donor molecule, donor type, donor heavy atom, donor atom, acceptor molecule, acceptor atom, score
      L1  H     7    19       P1 10171  1.00
      L1  H    12    24       P1 10747  1.00

> <Gold.PLP.Chemscore.Internal.Correction>
0.0095

> <Gold.Rescore>
     Score         DG    S(hbond)    S(metal)    S(lipo)     H(rot)  DE(clash)    DE(int)     intcor
     11.04     -12.34       1.99        0.00      60.73       2.69       0.07       1.23       ----

> <Gold.Chemscore.Fitness>
11.0368

> <Gold.Chemscore.DG>
-12.3362

> <Gold.Chemscore.ZeroCoef>
-5.4800

> <Gold.Chemscore.Hbond>
1.9900

> <Gold.Chemscore.Metal>
0.0000

> <Gold.Chemscore.Lipo>
60.7325

> <Gold.Chemscore.Internal_Hbond>
0.0000

> <Gold.Chemscore.DEClash>
0.0678

> <Gold.Chemscore.DEInternal>
1.2316

> <Gold.Chemscore.Rot>
2.6937

> <Gold.Chemscore.Internal.Correction>
   9.000000E+99

> <Gold.Chemscore.Hbonds>
donor molecule, donor type, donor heavy atom, donor atom, acceptor molecule, acceptor atom, score
      L1  H     7    19       P1 10171  0.96
      L1  H    12    24       P1 10747  0.96

> <Gold.Chemscore.Hbond.Weighted>
-6.6465

> <Gold.Chemscore.Metal.Weighted>
-0.0000

> <Gold.Chemscore.Lipo.Weighted>
-7.1057

> <Gold.Chemscore.Internal_Hbond.Weighted>
0.0000

> <Gold.Chemscore.DEClash.Weighted>
0.0678

> <Gold.Chemscore.DEInternal.Weighted>
1.2316

> <Gold.Chemscore.Rot.Weighted>
6.8959

> <Gold.Chemscore.Internal.Correction.Weighted>
   9.000000E+99

> <Gold.Protein.RotatedTorsions>
[ 6907 6896 6895 6894 ] final  -17.00 input  -60.11 | X-H torsion
[ 7974 7965 7964 7962 ] final -135.22 input  175.53 | X-H torsion
[ 8008 7997 7996 7995 ] final  143.09 input   59.86 | X-H torsion
[ 10167 10162 10161 10158 ] final -134.39 input  -65.29 | X-H torsion
[ 10718 10713 10712 10709 ] final -150.21 input   66.30 | X-H torsion
[ 10763 10752 10751 10750 ] final  -55.83 input  -60.55 | X-H torsion
[ 11005 11000 10999 10996 ] final -108.41 input  -57.11 | X-H torsion

> <Gold.Protein.ActiveResidues>
 VAL166  LYS551  ARG553  GLY616  TRP617  ASP618  TYR619  PRO620  LYS621  CYS622 
 ASP623  PHE694  ASN695  SER759  ASP760  ASP761  ALA762  ILE779  LEU786  VAL792 
 PHE793  MET794  SER795  GLU796  ALA797  LYS798  CYS799  TRP800  GLU811  SER814 

> <Gold.Protein.RotatedAtoms>
  151.3000  135.0766  159.9234 H   0  0  0  0  0  0  0  0  0  0  0  0  # atno 6907 bound_to 6896
  152.5299  133.9843  159.7831 H   0  0  0  0  0  0  0  0  0  0  0  0  # atno 6908 bound_to 6896
  151.0128  133.5897  159.2711 H   0  0  0  0  0  0  0  0  0  0  0  0  # atno 6909 bound_to 6896
  144.9033  140.6800  143.5071 H   0  0  0  0  0  0  0  0  0  0  0  0  # atno 7974 bound_to 7965
  156.2937  140.2271  156.4834 H   0  0  0  0  0  0  0  0  0  0  0  0  # atno 8008 bound_to 7997
  154.7833  140.0459  157.1165 H   0  0  0  0  0  0  0  0  0  0  0  0  # atno 8009 bound_to 7997
  154.9733  140.3069  155.4982 H   0  0  0  0  0  0  0  0  0  0  0  0  # atno 8010 bound_to 7997
  139.8885  143.6751  152.2616 H   0  0  0  0  0  0  0  0  0  0  0  0  # atno 10167 bound_to 10162
  156.4431  130.8131  151.2361 H   0  0  0  0  0  0  0  0  0  0  0  0  # atno 10718 bound_to 10713
  154.1970  135.6417  153.5076 H   0  0  0  0  0  0  0  0  0  0  0  0  # atno 10763 bound_to 10752
  153.0021  135.5442  154.6355 H   0  0  0  0  0  0  0  0  0  0  0  0  # atno 10764 bound_to 10752
  154.5758  135.2921  155.0755 H   0  0  0  0  0  0  0  0  0  0  0  0  # atno 10765 bound_to 10752
  141.0903  133.9067  157.2091 H   0  0  0  0  0  0  0  0  0  0  0  0  # atno 11005 bound_to 11000
  145.3578  139.1689  143.4400 LP  0  0  0  0  0  0  0  0  0  0  0  0  # atno 17320 bound_to 7965
  146.3120  140.3637  142.8667 LP  0  0  0  0  0  0  0  0  0  0  0  0  # atno 17321 bound_to 7965
  139.7131  144.7617  151.1079 LP  0  0  0  0  0  0  0  0  0  0  0  0  # atno 17342 bound_to 10162
  140.7731  143.5305  150.9429 LP  0  0  0  0  0  0  0  0  0  0  0  0  # atno 17343 bound_to 10162
  157.7505  131.0162  150.3534 LP  0  0  0  0  0  0  0  0  0  0  0  0  # atno 17370 bound_to 10713
  156.3896  130.3895  149.7040 LP  0  0  0  0  0  0  0  0  0  0  0  0  # atno 17371 bound_to 10713
  139.9727  135.0123  156.9554 LP  0  0  0  0  0  0  0  0  0  0  0  0  # atno 17394 bound_to 11000
  140.5268  134.0853  155.7305 LP  0  0  0  0  0  0  0  0  0  0  0  0  # atno 17395 bound_to 11000

$$$$
