AV-unprocessed.smi:232|AV-procd|sdf|1772|dock9
  -GOLD-   2262020313D 1   1.00000     0.00000
 Structure written by MMmdl.
 52 55  0  0  0  0  0  0  0  0  1 V2000
  152.4438  144.5763  158.9852 C   0  0  0  0  0  0  0  0  0  0  0  0
  151.8964  143.1699  158.7113 C   0  0  0  0  0  0  0  0  0  0  0  0
  152.9496  142.0590  158.9097 C   0  0  1  0  0  0  0  0  0  0  0  0
  153.5968  142.0598  160.3037 C   0  0  0  0  0  0  0  0  0  0  0  0
  153.8670  140.5833  160.6171 C   0  0  0  0  0  0  0  0  0  0  0  0
  153.3994  139.8332  159.3659 C   0  0  1  0  0  0  0  0  0  0  0  0
  152.8569  138.4255  159.6609 C   0  0  0  0  0  0  0  0  0  0  0  0
  152.4068  140.7132  158.7597 N   0  0  0  0  0  0  0  0  0  0  0  0
  152.0067  140.3974  157.5051 C   0  0  0  0  0  0  0  0  0  0  0  0
  152.7458  139.5559  156.7340 N   0  0  0  0  0  0  0  0  0  0  0  0
  152.3464  139.2650  155.4919 C   0  0  0  0  0  0  0  0  0  0  0  0
  151.2666  139.6998  154.8376 N   0  0  0  0  0  0  0  0  0  0  0  0
  150.5268  140.5460  155.6109 C   0  0  0  0  0  0  0  0  0  0  0  0
  150.8227  140.9429  156.9445 C   0  0  0  0  0  0  0  0  0  0  0  0
  149.8474  141.8138  157.4127 N   0  0  0  0  0  0  0  0  0  0  0  0
  149.0210  141.9301  156.4089 C   0  0  0  0  0  0  0  0  0  0  0  0
  149.3541  141.2052  155.2870 N   0  0  0  0  0  0  0  0  0  0  0  0
  148.6197  141.1628  154.0350 C   0  0  0  0  0  0  0  0  0  0  0  0
  147.1823  140.6362  154.2184 C   0  0  1  0  0  0  0  0  0  0  0  0
  146.2884  141.4576  153.4911 O   0  0  0  0  0  0  0  0  0  0  0  0
  147.0249  139.1800  153.7422 C   0  0  2  0  0  0  0  0  0  0  0  0
  146.8648  139.0262  152.2273 C   0  0  0  0  0  0  0  0  0  0  0  0
  146.1114  137.7206  152.1263 C   0  0  0  0  0  0  0  0  0  0  0  0
  145.1549  137.8310  153.3081 C   0  0  0  0  0  0  0  0  0  0  0  0
  145.8402  138.6026  154.2909 O   0  0  0  0  0  0  0  0  0  0  0  0
  151.6792  145.3311  158.8017 H   0  0  0  0  0  0  0  0  0  0  0  0
  153.2931  144.8003  158.3391 H   0  0  0  0  0  0  0  0  0  0  0  0
  152.7706  144.6842  160.0196 H   0  0  0  0  0  0  0  0  0  0  0  0
  151.0344  142.9811  159.3524 H   0  0  0  0  0  0  0  0  0  0  0  0
  151.5231  143.1481  157.6870 H   0  0  0  0  0  0  0  0  0  0  0  0
  153.7381  142.1868  158.1652 H   0  0  0  0  0  0  0  0  0  0  0  0
  154.5079  142.6586  160.3184 H   0  0  0  0  0  0  0  0  0  0  0  0
  152.9185  142.4714  161.0524 H   0  0  0  0  0  0  0  0  0  0  0  0
  154.9173  140.3884  160.8354 H   0  0  0  0  0  0  0  0  0  0  0  0
  153.2855  140.2842  161.4904 H   0  0  0  0  0  0  0  0  0  0  0  0
  154.2536  139.7455  158.6925 H   0  0  0  0  0  0  0  0  0  0  0  0
  153.6104  137.8153  160.1594 H   0  0  0  0  0  0  0  0  0  0  0  0
  152.5715  137.9096  158.7435 H   0  0  0  0  0  0  0  0  0  0  0  0
  151.9792  138.4664  160.3069 H   0  0  0  0  0  0  0  0  0  0  0  0
  152.9840  138.5874  154.9436 H   0  0  0  0  0  0  0  0  0  0  0  0
  148.1416  142.5560  156.4569 H   0  0  0  0  0  0  0  0  0  0  0  0
  148.6114  142.1618  153.5972 H   0  0  0  0  0  0  0  0  0  0  0  0
  149.1708  140.5253  153.3428 H   0  0  0  0  0  0  0  0  0  0  0  0
  146.9095  140.6980  155.2729 H   0  0  0  0  0  0  0  0  0  0  0  0
  145.6189  140.9095  153.1109 H   0  0  0  0  0  0  0  0  0  0  0  0
  147.8715  138.5771  154.0758 H   0  0  0  0  0  0  0  0  0  0  0  0
  146.2590  139.8363  151.8182 H   0  0  0  0  0  0  0  0  0  0  0  0
  147.8178  139.0119  151.6975 H   0  0  0  0  0  0  0  0  0  0  0  0
  145.5998  137.5903  151.1723 H   0  0  0  0  0  0  0  0  0  0  0  0
  146.7940  136.8814  152.2691 H   0  0  0  0  0  0  0  0  0  0  0  0
  144.2511  138.3675  153.0166 H   0  0  0  0  0  0  0  0  0  0  0  0
  144.8597  136.8567  153.6981 H   0  0  0  0  0  0  0  0  0  0  0  0
  1  2  1  0  0  0  0
  1 26  1  0  0  0  0
  1 27  1  0  0  0  0
  1 28  1  0  0  0  0
  2  3  1  0  0  0  0
  2 29  1  0  0  0  0
  2 30  1  0  0  0  0
  3  8  1  0  0  0  0
  3  4  1  0  0  0  0
  3 31  1  0  0  0  0
  4  5  1  0  0  0  0
  4 32  1  0  0  0  0
  4 33  1  0  0  0  0
  5  6  1  0  0  0  0
  5 34  1  0  0  0  0
  5 35  1  0  0  0  0
  6  7  1  0  0  0  0
  6  8  1  0  0  0  0
  6 36  1  0  0  0  0
  7 37  1  0  0  0  0
  7 38  1  0  0  0  0
  7 39  1  0  0  0  0
  8  9  1  0  0  0  0
  9 14  1  0  0  0  0
  9 10  2  0  0  0  0
 10 11  1  0  0  0  0
 11 12  2  0  0  0  0
 11 40  1  0  0  0  0
 12 13  1  0  0  0  0
 13 17  1  0  0  0  0
 13 14  2  0  0  0  0
 14 15  1  0  0  0  0
 15 16  2  0  0  0  0
 16 17  1  0  0  0  0
 16 41  1  0  0  0  0
 17 18  1  0  0  0  0
 18 19  1  0  0  0  0
 18 42  1  0  0  0  0
 18 43  1  0  0  0  0
 19 20  1  0  0  0  0
 19 21  1  0  0  0  0
 19 44  1  0  0  0  0
 20 45  1  0  0  0  0
 21 25  1  0  0  0  0
 21 22  1  0  0  0  0
 21 46  1  0  0  0  0
 22 23  1  0  0  0  0
 22 47  1  0  0  0  0
 22 48  1  0  0  0  0
 23 24  1  0  0  0  0
 23 49  1  0  0  0  0
 23 50  1  0  0  0  0
 24 25  1  0  0  0  0
 24 51  1  0  0  0  0
 24 52  1  0  0  0  0
M  END
> <s_m_source_file>
AV-unprocessed.smi

> <i_m_source_file_index>
232

> <i_lp_mmshare_version>
43012

> <i_f3d_flags>
0

> <s_epik_input>
W0NIM11bQ0gyXVtDQEBIXTFbQ0gyXVtDSDJdW0NAQEhdKFtDSDNdKU4xYyhuW2NIXW4yKWMoYzIzKW5bY0hdbjNbQ0gyXVtDQEhdKFtPSF0pW0NAQEhdNFtDSDJdW0NIMl1bQ0gyXU80

> <s_epik_cmdline>
J2VwaWtfcHl0aG9uJywgJy1waCcsICc3LjAnLCAnLXRuJywgJzgnLCAnLW1hJywgJzIwMCcsICctbWV0YWxfYmluZGluZycsICctaW1hZScsICc8aW5maWxlLm1hZT4nLCAnLW9tYWUnLCAnPG91dGZpbGUubWFlPic=

> <r_lp_tautomer_probability>
1

> <r_epik_Ionization_Penalty>
0.00258048

> <r_epik_Ionization_Penalty_Charging>
0

> <r_epik_Ionization_Penalty_Neutral>
0.00258048

> <r_epik_State_Penalty>
0.00168551

> <r_epik_Charging_Adjusted_Penalty>
0.00168551

> <i_epik_Tot_Q>
0

> <i_epik_Tot_abs_Q>
0

> <r_epik_Metal_State_Penalty>
-0

> <b_epik_Metal_Only>
0

> <s_lp_Force_Field>
OPLS_2005

> <r_lp_Energy>
51.197

> <b_lp_Chiralities_Consistent>
1

> <s_lp_Variant>
AV-unprocessed.smi:232-6

> <Gold.Version>
5.8.1

> <Gold.Id.Protein>
6NUR|6NUR_protein|mol2

> <Gold.PLP.Fitness>
55.0557

> <Gold.PLP.PLP>
-47.3442

> <Gold.PLP.part.hbond>
-3.0000

> <Gold.PLP.part.metal>
0.0000

> <Gold.PLP.part.buried>
-3.2021

> <Gold.PLP.part.nonpolar>
-41.6086

> <Gold.PLP.part.repulsive>
0.2517

> <Gold.PLP.ligand.clash>
0.0000

> <Gold.PLP.ligand.torsion>
1.3534

> <Gold.PLP.Chemscore.Hbond>
3.0000

> <Gold.PLP.Chemscore.CHOScore>
0.4581

> <Gold.PLP.Chemscore.Metal>
0.0000

> <Gold.Chemscore.Hbonds>
donor molecule, donor type, donor heavy atom, donor atom, acceptor molecule, acceptor atom, score
      L1  H    20    45       P1 10175  0.89
      P1  H  7989  7998       L1    12  0.90
      P1  H  7997  8008       L1    10  1.00
      L1  C    16    41       P1  8028  0.51

> <Gold.PLP.Chemscore.Internal.Correction>
0.0441

> <Gold.Rescore>
     Score         DG    S(hbond)    S(metal)    S(lipo)     H(rot)  DE(clash)    DE(int)     intcor
     14.19     -17.84       1.85        0.00     105.87       2.43       0.54       3.12       ----

> <Gold.Chemscore.Fitness>
14.1895

> <Gold.Chemscore.DG>
-17.8433

> <Gold.Chemscore.ZeroCoef>
-5.4800

> <Gold.Chemscore.Hbond>
1.8525

> <Gold.Chemscore.Metal>
0.0000

> <Gold.Chemscore.Lipo>
105.8697

> <Gold.Chemscore.Internal_Hbond>
0.0000

> <Gold.Chemscore.DEClash>
0.5358

> <Gold.Chemscore.DEInternal>
3.1179

> <Gold.Chemscore.Rot>
2.4260

> <Gold.Chemscore.Internal.Correction>
   9.000000E+99

> <Gold.Chemscore.Hbonds>
donor molecule, donor type, donor heavy atom, donor atom, acceptor molecule, acceptor atom, score
      L1  H    20    45       P1 10175  0.42
      P1  H  7989  7998       L1    12  0.16
      P1  H  7997  8008       L1    10  0.30

> <Gold.Chemscore.Hbond.Weighted>
-6.1872

> <Gold.Chemscore.Metal.Weighted>
-0.0000

> <Gold.Chemscore.Lipo.Weighted>
-12.3868

> <Gold.Chemscore.Internal_Hbond.Weighted>
0.0000

> <Gold.Chemscore.DEClash.Weighted>
0.5358

> <Gold.Chemscore.DEInternal.Weighted>
3.1179

> <Gold.Chemscore.Rot.Weighted>
6.2107

> <Gold.Chemscore.Internal.Correction.Weighted>
   9.000000E+99

> <Gold.Protein.RotatedTorsions>
[ 6907 6896 6895 6894 ] final -129.88 input  -60.11 | X-H torsion
[ 7974 7965 7964 7962 ] final -168.08 input  175.53 | X-H torsion
[ 8008 7997 7996 7995 ] final  -50.01 input   59.86 | X-H torsion
[ 10167 10162 10161 10158 ] final  161.68 input  -65.29 | X-H torsion
[ 10718 10713 10712 10709 ] final -132.31 input   66.30 | X-H torsion
[ 10763 10752 10751 10750 ] final -136.64 input  -60.55 | X-H torsion
[ 11005 11000 10999 10996 ] final   91.20 input  -57.11 | X-H torsion

> <Gold.Protein.ActiveResidues>
 VAL166  LYS551  ARG553  GLY616  TRP617  ASP618  TYR619  PRO620  LYS621  CYS622 
 ASP623  PHE694  ASN695  SER759  ASP760  ASP761  ALA762  ILE779  LEU786  VAL792 
 PHE793  MET794  SER795  GLU796  ALA797  LYS798  CYS799  TRP800  GLU811  SER814 

> <Gold.Protein.RotatedAtoms>
  150.9336  133.6738  159.2805 H   0  0  0  0  0  0  0  0  0  0  0  0  # atno 6907 bound_to 6896
  151.4151  135.0989  159.9606 H   0  0  0  0  0  0  0  0  0  0  0  0  # atno 6908 bound_to 6896
  152.5037  133.8800  159.7396 H   0  0  0  0  0  0  0  0  0  0  0  0  # atno 6909 bound_to 6896
  144.7210  140.2423  143.6290 H   0  0  0  0  0  0  0  0  0  0  0  0  # atno 7974 bound_to 7965
  154.4054  140.1283  156.4595 H   0  0  0  0  0  0  0  0  0  0  0  0  # atno 8008 bound_to 7997
  155.7286  140.3491  155.5029 H   0  0  0  0  0  0  0  0  0  0  0  0  # atno 8009 bound_to 7997
  155.9148  140.1042  157.1242 H   0  0  0  0  0  0  0  0  0  0  0  0  # atno 8010 bound_to 7997
  139.4852  144.4513  151.8826 H   0  0  0  0  0  0  0  0  0  0  0  0  # atno 10167 bound_to 10162
  156.2332  130.7050  151.0880 H   0  0  0  0  0  0  0  0  0  0  0  0  # atno 10718 bound_to 10713
  154.8679  135.3666  154.5093 H   0  0  0  0  0  0  0  0  0  0  0  0  # atno 10763 bound_to 10752
  153.5729  135.7020  153.5501 H   0  0  0  0  0  0  0  0  0  0  0  0  # atno 10764 bound_to 10752
  153.3525  135.4068  155.1620 H   0  0  0  0  0  0  0  0  0  0  0  0  # atno 10765 bound_to 10752
  139.8843  134.8660  156.3394 H   0  0  0  0  0  0  0  0  0  0  0  0  # atno 11005 bound_to 11000
  145.8308  139.2085  143.1884 LP  0  0  0  0  0  0  0  0  0  0  0  0  # atno 17320 bound_to 7965
  146.0432  140.8144  142.9818 LP  0  0  0  0  0  0  0  0  0  0  0  0  # atno 17321 bound_to 7965
  140.3970  144.2543  150.5895 LP  0  0  0  0  0  0  0  0  0  0  0  0  # atno 17342 bound_to 10162
  140.5093  143.2295  151.8560 LP  0  0  0  0  0  0  0  0  0  0  0  0  # atno 17343 bound_to 10162
  157.7143  131.0718  150.6387 LP  0  0  0  0  0  0  0  0  0  0  0  0  # atno 17370 bound_to 10713
  156.6456  130.4470  149.5737 LP  0  0  0  0  0  0  0  0  0  0  0  0  # atno 17371 bound_to 10713
  140.9669  133.7352  156.0479 LP  0  0  0  0  0  0  0  0  0  0  0  0  # atno 17394 bound_to 11000
  140.7920  134.3607  157.5462 LP  0  0  0  0  0  0  0  0  0  0  0  0  # atno 17395 bound_to 11000

$$$$
