AV-unprocessed.smi:1815|AV-procd|sdf|7358|dock8
  -GOLD-   22720 9 23D 1   1.00000     0.00000
 Structure written by MMmdl.
 38 39  0  0  0  0  0  0  0  0  2 V2000
  152.8085  143.1247  159.2092 C   0  0  0  0  0  0  0  0  0  0  0  0
  152.6891  141.7708  159.9163 C   0  0  1  0  0  0  0  0  0  0  0  0
  152.5269  140.6066  158.9212 C   0  0  0  0  0  0  0  0  0  0  0  0
  152.4882  139.3132  159.5939 N   0  0  0  0  0  0  0  0  0  0  0  0
  152.3235  138.2276  158.6284 C   0  0  0  0  0  0  0  0  0  0  0  0
  150.9159  138.1016  158.0242 C   0  0  0  0  0  0  0  0  0  0  0  0
  149.9101  138.1514  159.0763 N   0  0  0  0  0  0  0  0  0  0  0  0
  149.1539  137.1184  159.4716 C   0  0  0  0  0  0  0  0  0  0  0  0
  149.2868  136.0183  158.9304 O   0  0  0  0  0  0  0  0  0  0  0  0
  148.2913  137.4242  160.4677 N   0  5  0  0  0  0  0  0  0  0  0  0
  147.6700  136.4442  161.1440 C   0  0  0  0  0  0  0  0  0  0  0  0
  147.3505  135.2679  160.5924 N   0  0  0  0  0  0  0  0  0  0  0  0
  146.7166  134.3933  161.4766 C   0  0  0  0  0  0  0  0  0  0  0  0
  146.5576  134.9122  162.7339 C   0  0  0  0  0  0  0  0  0  0  0  0
  147.2039  136.5245  162.8457 S   0  0  0  0  0  0  0  0  0  0  0  0
  153.6948  139.1663  160.4043 C   0  0  0  0  0  0  0  0  0  0  0  0
  153.8656  140.3293  161.4007 C   0  0  1  0  0  0  0  0  0  0  0  0
  155.1739  140.2279  162.1922 C   0  0  0  0  0  0  0  0  0  0  0  0
  153.8697  141.5623  160.6862 O   0  0  0  0  0  0  0  0  0  0  0  0
  151.9220  143.3330  158.6098 H   0  0  0  0  0  0  0  0  0  0  0  0
  153.6746  143.1492  158.5471 H   0  0  0  0  0  0  0  0  0  0  0  0
  152.9188  143.9331  159.9322 H   0  0  0  0  0  0  0  0  0  0  0  0
  151.8290  141.8003  160.5876 H   0  0  0  0  0  0  0  0  0  0  0  0
  151.6111  140.7491  158.3464 H   0  0  0  0  0  0  0  0  0  0  0  0
  153.3497  140.6244  158.2044 H   0  0  0  0  0  0  0  0  0  0  0  0
  153.0210  138.3848  157.8043 H   0  0  0  0  0  0  0  0  0  0  0  0
  152.6113  137.2800  159.0869 H   0  0  0  0  0  0  0  0  0  0  0  0
  150.7167  138.9088  157.3191 H   0  0  0  0  0  0  0  0  0  0  0  0
  150.8274  137.1607  157.4786 H   0  0  0  0  0  0  0  0  0  0  0  0
  149.7749  139.0358  159.5433 H   0  0  0  0  0  0  0  0  0  0  0  0
  146.4124  133.4186  161.1251 H   0  0  0  0  0  0  0  0  0  0  0  0
  146.1039  134.4480  163.5961 H   0  0  0  0  0  0  0  0  0  0  0  0
  153.6618  138.2322  160.9637 H   0  0  0  0  0  0  0  0  0  0  0  0
  154.5699  139.1115  159.7547 H   0  0  0  0  0  0  0  0  0  0  0  0
  153.0307  140.3321  162.1034 H   0  0  0  0  0  0  0  0  0  0  0  0
  155.2135  139.3032  162.7682 H   0  0  0  0  0  0  0  0  0  0  0  0
  155.2719  141.0591  162.8908 H   0  0  0  0  0  0  0  0  0  0  0  0
  156.0390  140.2472  161.5289 H   0  0  0  0  0  0  0  0  0  0  0  0
  1  2  1  0  0  0  0
  1 20  1  0  0  0  0
  1 21  1  0  0  0  0
  1 22  1  0  0  0  0
  2 19  1  0  0  0  0
  2  3  1  0  0  0  0
  2 23  1  0  0  0  0
  3  4  1  0  0  0  0
  3 24  1  0  0  0  0
  3 25  1  0  0  0  0
  4  5  1  0  0  0  0
  4 16  1  0  0  0  0
  5  6  1  0  0  0  0
  5 26  1  0  0  0  0
  5 27  1  0  0  0  0
  6  7  1  0  0  0  0
  6 28  1  0  0  0  0
  6 29  1  0  0  0  0
  7  8  1  0  0  0  0
  7 30  1  0  0  0  0
  8  9  2  0  0  0  0
  8 10  1  0  0  0  0
 10 11  1  0  0  0  0
 11 15  1  0  0  0  0
 11 12  2  0  0  0  0
 12 13  1  0  0  0  0
 13 14  2  0  0  0  0
 13 31  1  0  0  0  0
 14 15  1  0  0  0  0
 14 32  1  0  0  0  0
 16 17  1  0  0  0  0
 16 33  1  0  0  0  0
 16 34  1  0  0  0  0
 17 18  1  0  0  0  0
 17 19  1  0  0  0  0
 17 35  1  0  0  0  0
 18 36  1  0  0  0  0
 18 37  1  0  0  0  0
 18 38  1  0  0  0  0
M  CHG  1  10  -1
M  END
> <s_m_source_file>
AV-unprocessed.smi

> <i_m_source_file_index>
1815

> <i_lp_mmshare_version>
43012

> <i_f3d_flags>
0

> <s_epik_input>
W0NIM11bQ0BASF0xW0NIMl1OKFtDSDJdW0NASF0oTzEpW0NIM10pW0NIMl1bQ0gyXVtOSF1DKD1PKVtOSF1jMm5bY0hdW2NIXXMy

> <s_epik_cmdline>
J2VwaWtfcHl0aG9uJywgJy1waCcsICc3LjAnLCAnLXRuJywgJzgnLCAnLW1hJywgJzIwMCcsICctbWV0YWxfYmluZGluZycsICctaW1hZScsICc8aW5maWxlLm1hZT4nLCAnLW9tYWUnLCAnPG91dGZpbGUubWFlPic=

> <r_lp_tautomer_probability>
0.999

> <r_epik_Ionization_Penalty>
7.22374

> <r_epik_Ionization_Penalty_Charging>
5.82415

> <r_epik_Ionization_Penalty_Neutral>
1.39959

> <r_epik_State_Penalty>
6.03347

> <r_epik_Charging_Adjusted_Penalty>
11.8576

> <i_epik_Tot_Q>
-1

> <i_epik_Tot_abs_Q>
1

> <r_epik_Metal_State_Penalty>
2.01024

> <b_epik_Metal_Only>
1

> <s_lp_Force_Field>
OPLS_2005

> <r_lp_Energy>
15.5459

> <b_lp_Chiralities_Consistent>
1

> <s_lp_Variant>
AV-unprocessed.smi:1815-9

> <Gold.Version>
5.8.1

> <Gold.Id.Protein>
6NUR|6NUR_protein|mol2

> <Gold.PLP.Fitness>
44.8030

> <Gold.PLP.PLP>
-36.4990

> <Gold.PLP.part.hbond>
-3.0000

> <Gold.PLP.part.metal>
0.0000

> <Gold.PLP.part.buried>
-4.7828

> <Gold.PLP.part.nonpolar>
-29.9234

> <Gold.PLP.part.repulsive>
0.2257

> <Gold.PLP.ligand.clash>
0.0000

> <Gold.PLP.ligand.torsion>
0.4387

> <Gold.PLP.Chemscore.Hbond>
3.0523

> <Gold.PLP.Chemscore.CHOScore>
0.0000

> <Gold.PLP.Chemscore.Metal>
0.0000

> <Gold.Chemscore.Hbonds>
donor molecule, donor type, donor heavy atom, donor atom, acceptor molecule, acceptor atom, score
      P1  H  6896  6907       L1     9  0.75
      P1  H  6931  6943       L1    10  1.12
      P1  H  6934  6947       L1    10  1.12

> <Gold.PLP.Chemscore.Internal.Correction>
0.0244

> <Gold.Rescore>
     Score         DG    S(hbond)    S(metal)    S(lipo)     H(rot)  DE(clash)    DE(int)     intcor
     15.32     -17.37       1.75        0.00      85.87       1.57       0.06       1.99       ----

> <Gold.Chemscore.Fitness>
15.3202

> <Gold.Chemscore.DG>
-17.3659

> <Gold.Chemscore.ZeroCoef>
-5.4800

> <Gold.Chemscore.Hbond>
1.7522

> <Gold.Chemscore.Metal>
0.0000

> <Gold.Chemscore.Lipo>
85.8692

> <Gold.Chemscore.Internal_Hbond>
0.0000

> <Gold.Chemscore.DEClash>
0.0575

> <Gold.Chemscore.DEInternal>
1.9882

> <Gold.Chemscore.Rot>
1.5676

> <Gold.Chemscore.Internal.Correction>
   9.000000E+99

> <Gold.Chemscore.Hbonds>
donor molecule, donor type, donor heavy atom, donor atom, acceptor molecule, acceptor atom, score
      P1  H  6896  6907       L1     9  0.70
      P1  H  6931  6943       L1    10  0.10
      P1  H  6934  6947       L1    10  0.22

> <Gold.Chemscore.Hbond.Weighted>
-5.8522

> <Gold.Chemscore.Metal.Weighted>
-0.0000

> <Gold.Chemscore.Lipo.Weighted>
-10.0467

> <Gold.Chemscore.Internal_Hbond.Weighted>
0.0000

> <Gold.Chemscore.DEClash.Weighted>
0.0575

> <Gold.Chemscore.DEInternal.Weighted>
1.9882

> <Gold.Chemscore.Rot.Weighted>
4.0130

> <Gold.Chemscore.Internal.Correction.Weighted>
   9.000000E+99

> <Gold.Protein.RotatedTorsions>
[ 6907 6896 6895 6894 ] final  -77.97 input  -60.11 | X-H torsion
[ 7974 7965 7964 7962 ] final   85.86 input  175.53 | X-H torsion
[ 8008 7997 7996 7995 ] final  114.60 input   59.86 | X-H torsion
[ 10167 10162 10161 10158 ] final   -7.26 input  -65.29 | X-H torsion
[ 10718 10713 10712 10709 ] final -174.03 input   66.30 | X-H torsion
[ 10763 10752 10751 10750 ] final   49.95 input  -60.55 | X-H torsion
[ 11005 11000 10999 10996 ] final   56.57 input  -57.11 | X-H torsion

> <Gold.Protein.ActiveResidues>
 VAL166  LYS551  ARG553  GLY616  TRP617  ASP618  TYR619  PRO620  LYS621  CYS622 
 ASP623  PHE694  ASN695  SER759  ASP760  ASP761  ALA762  ILE779  LEU786  VAL792 
 PHE793  MET794  SER795  GLU796  ALA797  LYS798  CYS799  TRP800  GLU811  SER814 

> <Gold.Protein.RotatedAtoms>
  150.6985  134.4342  159.5262 H   0  0  0  0  0  0  0  0  0  0  0  0  # atno 6907 bound_to 6896
  152.2063  134.8539  160.0511 H   0  0  0  0  0  0  0  0  0  0  0  0  # atno 6908 bound_to 6896
  151.9441  133.3611  159.4012 H   0  0  0  0  0  0  0  0  0  0  0  0  # atno 6909 bound_to 6896
  145.5799  139.2324  143.2358 H   0  0  0  0  0  0  0  0  0  0  0  0  # atno 7974 bound_to 7965
  156.2331  140.2956  156.0240 H   0  0  0  0  0  0  0  0  0  0  0  0  # atno 8008 bound_to 7997
  155.2169  140.0414  157.2959 H   0  0  0  0  0  0  0  0  0  0  0  0  # atno 8009 bound_to 7997
  154.6030  140.2432  155.7774 H   0  0  0  0  0  0  0  0  0  0  0  0  # atno 8010 bound_to 7997
  140.7023  143.6101  150.8712 H   0  0  0  0  0  0  0  0  0  0  0  0  # atno 10167 bound_to 10162
  156.7791  130.9477  151.3120 H   0  0  0  0  0  0  0  0  0  0  0  0  # atno 10718 bound_to 10713
  152.9785  135.5895  154.4172 H   0  0  0  0  0  0  0  0  0  0  0  0  # atno 10763 bound_to 10752
  154.3801  135.2767  155.2218 H   0  0  0  0  0  0  0  0  0  0  0  0  # atno 10764 bound_to 10752
  154.4136  135.6076  153.6022 H   0  0  0  0  0  0  0  0  0  0  0  0  # atno 10765 bound_to 10752
  140.0519  134.5725  155.9254 H   0  0  0  0  0  0  0  0  0  0  0  0  # atno 11005 bound_to 11000
  146.1723  140.6626  142.9227 LP  0  0  0  0  0  0  0  0  0  0  0  0  # atno 17320 bound_to 7965
  144.7398  140.4912  143.6877 LP  0  0  0  0  0  0  0  0  0  0  0  0  # atno 17321 bound_to 7965
  139.9824  143.5936  152.2938 LP  0  0  0  0  0  0  0  0  0  0  0  0  # atno 17342 bound_to 10162
  139.6562  144.7662  151.2051 LP  0  0  0  0  0  0  0  0  0  0  0  0  # atno 17343 bound_to 10162
  157.6655  130.9003  149.9922 LP  0  0  0  0  0  0  0  0  0  0  0  0  # atno 17370 bound_to 10713
  156.1229  130.3645  149.9857 LP  0  0  0  0  0  0  0  0  0  0  0  0  # atno 17371 bound_to 10713
  141.1934  133.6579  156.5546 LP  0  0  0  0  0  0  0  0  0  0  0  0  # atno 17394 bound_to 11000
  140.3904  134.7445  157.4718 LP  0  0  0  0  0  0  0  0  0  0  0  0  # atno 17395 bound_to 11000

$$$$
