AV-unprocessed.smi:1412|AV-procd|sdf|5742|dock7
  -GOLD-   22720 5373D 1   1.00000     0.00000
 Structure written by MMmdl.
 42 43  0  0  0  0  0  0  0  0  2 V2000
  147.0998  142.3558  154.0873 C   0  0  0  0  0  0  0  0  0  0  0  0
  146.9373  140.8718  153.7124 C   0  0  0  0  0  0  0  0  0  0  0  0
  147.1776  139.8531  154.8688 C   0  0  1  0  0  0  0  0  0  0  0  0
  146.4656  140.4122  156.1294 C   0  0  0  0  0  0  0  0  0  0  0  0
  146.5432  138.4737  154.5059 C   0  0  0  0  0  0  0  0  0  0  0  0
  145.1535  138.5642  154.0570 N   0  0  0  0  0  0  0  0  0  0  0  0
  144.1601  137.7429  154.4286 C   0  0  0  0  0  0  0  0  0  0  0  0
  144.3154  136.7988  155.2030 O   0  0  0  0  0  0  0  0  0  0  0  0
  142.9997  138.0844  153.8412 N   0  0  0  0  0  0  0  0  0  0  0  0
  141.7361  137.4458  153.9534 C   0  0  0  0  0  0  0  0  0  0  0  0
  141.5430  136.2858  154.6008 N   0  0  0  0  0  0  0  0  0  0  0  0
  140.2154  135.8803  154.5562 N   0  0  0  0  0  0  0  0  0  0  0  0
  139.4604  136.7487  153.8774 C   0  0  0  0  0  0  0  0  0  0  0  0
  140.2977  138.1474  153.2266 S   0  0  0  0  0  0  0  0  0  0  0  0
  148.6580  139.7072  155.1212 N   0  3  0  0  0  0  0  0  0  0  0  0
  149.4282  138.9453  154.0975 C   0  0  0  0  0  0  0  0  0  0  0  0
  150.8709  138.7063  154.5758 C   0  0  0  0  0  0  0  0  0  0  0  0
  151.4972  139.9479  154.8657 O   0  0  0  0  0  0  0  0  0  0  0  0
  150.8242  140.6458  155.9040 C   0  0  0  0  0  0  0  0  0  0  0  0
  149.3879  140.9629  155.4589 C   0  0  0  0  0  0  0  0  0  0  0  0
  146.8960  142.9890  153.2235 H   0  0  0  0  0  0  0  0  0  0  0  0
  148.1120  142.5826  154.4218 H   0  0  0  0  0  0  0  0  0  0  0  0
  146.4087  142.6536  154.8752 H   0  0  0  0  0  0  0  0  0  0  0  0
  145.9280  140.7473  153.3192 H   0  0  0  0  0  0  0  0  0  0  0  0
  147.5865  140.6483  152.8661 H   0  0  0  0  0  0  0  0  0  0  0  0
  145.4494  140.7398  155.9075 H   0  0  0  0  0  0  0  0  0  0  0  0
  146.9937  141.2693  156.5475 H   0  0  0  0  0  0  0  0  0  0  0  0
  146.3785  139.6635  156.9172 H   0  0  0  0  0  0  0  0  0  0  0  0
  147.1325  137.9569  153.7484 H   0  0  0  0  0  0  0  0  0  0  0  0
  146.5424  137.8175  155.3758 H   0  0  0  0  0  0  0  0  0  0  0  0
  144.9330  139.3135  153.4171 H   0  0  0  0  0  0  0  0  0  0  0  0
  143.0239  138.8893  153.2329 H   0  0  0  0  0  0  0  0  0  0  0  0
  138.4030  136.5635  153.7587 H   0  0  0  0  0  0  0  0  0  0  0  0
  148.9836  137.9713  153.9021 H   0  0  0  0  0  0  0  0  0  0  0  0
  149.4420  139.4899  153.1532 H   0  0  0  0  0  0  0  0  0  0  0  0
  150.8868  138.0631  155.4574 H   0  0  0  0  0  0  0  0  0  0  0  0
  151.4433  138.1962  153.8008 H   0  0  0  0  0  0  0  0  0  0  0  0
  150.8285  140.0571  156.8228 H   0  0  0  0  0  0  0  0  0  0  0  0
  151.3647  141.5689  156.1143 H   0  0  0  0  0  0  0  0  0  0  0  0
  149.4254  141.6262  154.5948 H   0  0  0  0  0  0  0  0  0  0  0  0
  148.8974  141.5093  156.2618 H   0  0  0  0  0  0  0  0  0  0  0  0
  148.7109  139.1418  155.9566 H   0  0  0  0  0  0  0  0  0  0  0  0
  1  2  1  0  0  0  0
  1 21  1  0  0  0  0
  1 22  1  0  0  0  0
  1 23  1  0  0  0  0
  2  3  1  0  0  0  0
  2 24  1  0  0  0  0
  2 25  1  0  0  0  0
  3  4  1  0  0  0  0
  3  5  1  0  0  0  0
  3 15  1  0  0  0  0
  4 26  1  0  0  0  0
  4 27  1  0  0  0  0
  4 28  1  0  0  0  0
  5  6  1  0  0  0  0
  5 29  1  0  0  0  0
  5 30  1  0  0  0  0
  6  7  1  0  0  0  0
  6 31  1  0  0  0  0
  7  8  2  0  0  0  0
  7  9  1  0  0  0  0
  9 10  1  0  0  0  0
  9 32  1  0  0  0  0
 10 14  1  0  0  0  0
 10 11  2  0  0  0  0
 11 12  1  0  0  0  0
 12 13  2  0  0  0  0
 13 14  1  0  0  0  0
 13 33  1  0  0  0  0
 15 20  1  0  0  0  0
 15 16  1  0  0  0  0
 15 42  1  0  0  0  0
 16 17  1  0  0  0  0
 16 34  1  0  0  0  0
 16 35  1  0  0  0  0
 17 18  1  0  0  0  0
 17 36  1  0  0  0  0
 17 37  1  0  0  0  0
 18 19  1  0  0  0  0
 19 20  1  0  0  0  0
 19 38  1  0  0  0  0
 19 39  1  0  0  0  0
 20 40  1  0  0  0  0
 20 41  1  0  0  0  0
M  CHG  1  15   1
M  END
> <s_m_source_file>
AV-unprocessed.smi

> <i_m_source_file_index>
1412

> <i_lp_mmshare_version>
43012

> <i_f3d_flags>
0

> <s_epik_input>
W0NIMl0xW0NIMl1PW0NIMl1bQ0gyXU4xW0NAQF0oW0NIM10pKFtDSDJdW0NIM10pW0NIMl1bTkhdQyg9TylbTkhdYzJubltjSF1zMg==

> <s_epik_cmdline>
J2VwaWtfcHl0aG9uJywgJy1waCcsICc3LjAnLCAnLXRuJywgJzgnLCAnLW1hJywgJzIwMCcsICctbWV0YWxfYmluZGluZycsICctaW1hZScsICc8aW5maWxlLm1hZT4nLCAnLW9tYWUnLCAnPG91dGZpbGUubWFlPic=

> <r_lp_tautomer_probability>
1

> <r_epik_Ionization_Penalty>
0.554649

> <r_epik_Ionization_Penalty_Charging>
0.553838

> <r_epik_Ionization_Penalty_Neutral>
0.000811527

> <r_epik_State_Penalty>
0.564424

> <r_epik_Charging_Adjusted_Penalty>
1.11826

> <i_epik_Tot_Q>
1

> <i_epik_Tot_abs_Q>
1

> <r_epik_Metal_State_Penalty>
0.786249

> <b_epik_Metal_Only>
0

> <s_lp_Force_Field>
OPLS_2005

> <r_lp_Energy>
27.1522

> <b_lp_Chiralities_Consistent>
1

> <s_lp_Variant>
AV-unprocessed.smi:1412-3

> <Gold.Version>
5.8.1

> <Gold.Id.Protein>
6NUR|6NUR_protein|mol2

> <Gold.PLP.Fitness>
42.5500

> <Gold.PLP.PLP>
-31.4116

> <Gold.PLP.part.hbond>
-4.3666

> <Gold.PLP.part.metal>
0.0000

> <Gold.PLP.part.buried>
-6.1671

> <Gold.PLP.part.nonpolar>
-21.8026

> <Gold.PLP.part.repulsive>
0.2345

> <Gold.PLP.ligand.clash>
0.0000

> <Gold.PLP.ligand.torsion>
0.4977

> <Gold.PLP.Chemscore.Hbond>
4.0000

> <Gold.PLP.Chemscore.CHOScore>
0.0000

> <Gold.PLP.Chemscore.Metal>
0.0000

> <Gold.Chemscore.Hbonds>
donor molecule, donor type, donor heavy atom, donor atom, acceptor molecule, acceptor atom, score
      L1  H     6    31       P1 10175  1.00
      L1  H     9    32       P1 10175  1.00
      P1  H  7989  7998       L1    18  1.00
      P1  H 11000 11005       L1    12  1.00

> <Gold.PLP.Chemscore.Internal.Correction>
0.1337

> <Gold.Rescore>
     Score         DG    S(hbond)    S(metal)    S(lipo)     H(rot)  DE(clash)    DE(int)     intcor
     16.30     -18.71       3.28        0.00      61.38       1.91       0.16       2.25       ----

> <Gold.Chemscore.Fitness>
16.2988

> <Gold.Chemscore.DG>
-18.7077

> <Gold.Chemscore.ZeroCoef>
-5.4800

> <Gold.Chemscore.Hbond>
3.2772

> <Gold.Chemscore.Metal>
0.0000

> <Gold.Chemscore.Lipo>
61.3819

> <Gold.Chemscore.Internal_Hbond>
0.0000

> <Gold.Chemscore.DEClash>
0.1596

> <Gold.Chemscore.DEInternal>
2.2494

> <Gold.Chemscore.Rot>
1.9140

> <Gold.Chemscore.Internal.Correction>
   9.000000E+99

> <Gold.Chemscore.Hbonds>
donor molecule, donor type, donor heavy atom, donor atom, acceptor molecule, acceptor atom, score
      L1  H     6    31       P1 10175  0.95
      L1  H     9    32       P1 10175  1.00
      P1  H  7989  7998       L1    18  0.64
      P1  H 11000 11005       L1    12  0.53

> <Gold.Chemscore.Hbond.Weighted>
-10.9459

> <Gold.Chemscore.Metal.Weighted>
-0.0000

> <Gold.Chemscore.Lipo.Weighted>
-7.1817

> <Gold.Chemscore.Internal_Hbond.Weighted>
0.0000

> <Gold.Chemscore.DEClash.Weighted>
0.1596

> <Gold.Chemscore.DEInternal.Weighted>
2.2494

> <Gold.Chemscore.Rot.Weighted>
4.8998

> <Gold.Chemscore.Internal.Correction.Weighted>
   9.000000E+99

> <Gold.Protein.RotatedTorsions>
[ 6907 6896 6895 6894 ] final -127.61 input  -60.11 | X-H torsion
[ 7974 7965 7964 7962 ] final  -77.65 input  175.53 | X-H torsion
[ 8008 7997 7996 7995 ] final   55.69 input   59.86 | X-H torsion
[ 10167 10162 10161 10158 ] final   30.73 input  -65.29 | X-H torsion
[ 10718 10713 10712 10709 ] final -164.17 input   66.30 | X-H torsion
[ 10763 10752 10751 10750 ] final   20.66 input  -60.55 | X-H torsion
[ 11005 11000 10999 10996 ] final   69.73 input  -57.11 | X-H torsion

> <Gold.Protein.ActiveResidues>
 VAL166  LYS551  ARG553  GLY616  TRP617  ASP618  TYR619  PRO620  LYS621  CYS622 
 ASP623  PHE694  ASN695  SER759  ASP760  ASP761  ALA762  ILE779  LEU786  VAL792 
 PHE793  MET794  SER795  GLU796  ALA797  LYS798  CYS799  TRP800  GLU811  SER814 

> <Gold.Protein.RotatedAtoms>
  150.9091  133.7020  159.2859 H   0  0  0  0  0  0  0  0  0  0  0  0  # atno 6907 bound_to 6896
  151.4513  135.1029  159.9708 H   0  0  0  0  0  0  0  0  0  0  0  0  # atno 6908 bound_to 6896
  152.4920  133.8476  159.7240 H   0  0  0  0  0  0  0  0  0  0  0  0  # atno 6909 bound_to 6896
  145.5969  140.9417  143.1262 H   0  0  0  0  0  0  0  0  0  0  0  0  # atno 7974 bound_to 7965
  155.5052  140.3475  155.4378 H   0  0  0  0  0  0  0  0  0  0  0  0  # atno 8008 bound_to 7997
  156.0887  140.1405  156.9648 H   0  0  0  0  0  0  0  0  0  0  0  0  # atno 8009 bound_to 7997
  154.4622  140.0931  156.6900 H   0  0  0  0  0  0  0  0  0  0  0  0  # atno 8010 bound_to 7997
  140.4652  144.0846  150.6223 H   0  0  0  0  0  0  0  0  0  0  0  0  # atno 10167 bound_to 10162
  156.6352  130.8946  151.2985 H   0  0  0  0  0  0  0  0  0  0  0  0  # atno 10718 bound_to 10713
  153.1059  135.6684  153.9588 H   0  0  0  0  0  0  0  0  0  0  0  0  # atno 10763 bound_to 10752
  153.9145  135.3021  155.3449 H   0  0  0  0  0  0  0  0  0  0  0  0  # atno 10764 bound_to 10752
  154.7480  135.5048  153.9314 H   0  0  0  0  0  0  0  0  0  0  0  0  # atno 10765 bound_to 10752
  139.9637  134.7017  156.0590 H   0  0  0  0  0  0  0  0  0  0  0  0  # atno 11005 bound_to 11000
  144.7327  139.7678  143.7341 LP  0  0  0  0  0  0  0  0  0  0  0  0  # atno 17320 bound_to 7965
  146.1605  139.4718  142.9991 LP  0  0  0  0  0  0  0  0  0  0  0  0  # atno 17321 bound_to 7965
  140.4045  143.2687  151.9908 LP  0  0  0  0  0  0  0  0  0  0  0  0  # atno 17342 bound_to 10162
  139.4811  144.5969  151.7674 LP  0  0  0  0  0  0  0  0  0  0  0  0  # atno 17343 bound_to 10162
  157.7188  130.9531  150.1356 LP  0  0  0  0  0  0  0  0  0  0  0  0  # atno 17370 bound_to 10713
  156.2203  130.3673  149.8564 LP  0  0  0  0  0  0  0  0  0  0  0  0  # atno 17371 bound_to 10713
  141.1316  133.6585  156.3480 LP  0  0  0  0  0  0  0  0  0  0  0  0  # atno 17394 bound_to 11000
  140.5443  134.6090  157.5389 LP  0  0  0  0  0  0  0  0  0  0  0  0  # atno 17395 bound_to 11000

$$$$
