AV-unprocessed.smi:111|AV-procd|sdf|1082|dock4
  -GOLD-   2262018173D 1   1.00000     0.00000
 Structure written by MMmdl.
 46 48  0  0  0  0  0  0  0  0  1 V2000
  154.6786  139.0412  162.6478 O   0  0  0  0  0  0  0  0  0  0  0  0
  155.1230  137.8921  162.6602 C   0  0  0  0  0  0  0  0  0  0  0  0
  155.3253  137.1236  163.8821 C   0  0  0  0  0  0  0  0  0  0  0  0
  154.9659  137.6501  165.0652 F   0  0  0  0  0  0  0  0  0  0  0  0
  155.8538  135.8816  163.8457 C   0  0  0  0  0  0  0  0  0  0  0  0
  156.2610  135.2621  162.6746 N   0  0  0  0  0  0  0  0  0  0  0  0
  156.7695  133.8346  162.6649 C   0  0  1  0  0  0  0  0  0  0  0  0
  157.2220  133.3161  164.0415 C   0  0  0  0  0  0  0  0  0  0  0  0
  156.0829  132.3942  164.4314 C   0  0  0  0  0  0  0  0  0  0  0  0
  155.6191  131.8870  163.0713 C   0  0  0  0  0  0  0  0  0  0  0  0
  155.7250  133.0210  162.2203 O   0  0  0  0  0  0  0  0  0  0  0  0
  156.0259  135.9035  161.4364 C   0  0  0  0  0  0  0  0  0  0  0  0
  156.3060  135.3457  160.3726 O   0  0  0  0  0  0  0  0  0  0  0  0
  155.4780  137.2101  161.4715 N   0  0  0  0  0  0  0  0  0  0  0  0
  155.2745  137.9179  160.2137 C   0  0  0  0  0  0  0  0  0  0  0  0
  156.0769  139.2358  160.0426 C   0  0  1  0  0  0  0  0  0  0  0  0
  156.5656  139.3018  158.7178 O   0  0  0  0  0  0  0  0  0  0  0  0
  155.3367  140.5408  160.4058 C   0  0  0  0  0  0  0  0  0  0  0  0
  154.0133  140.7270  159.6461 C   0  0  0  0  0  0  0  0  0  0  0  0
  153.3157  142.0183  160.0287 C   0  0  0  0  0  0  0  0  0  0  0  0
  152.6182  142.7616  159.0532 C   0  0  0  0  0  0  0  0  0  0  0  0
  151.9649  143.9579  159.4083 C   0  0  0  0  0  0  0  0  0  0  0  0
  152.0057  144.4146  160.7399 C   0  0  0  0  0  0  0  0  0  0  0  0
  152.6999  143.6744  161.7167 C   0  0  0  0  0  0  0  0  0  0  0  0
  153.3534  142.4778  161.3622 C   0  0  0  0  0  0  0  0  0  0  0  0
  155.9492  135.3632  164.7862 H   0  0  0  0  0  0  0  0  0  0  0  0
  157.6047  133.8129  161.9632 H   0  0  0  0  0  0  0  0  0  0  0  0
  158.1338  132.7345  163.9003 H   0  0  0  0  0  0  0  0  0  0  0  0
  157.4399  134.1097  164.7560 H   0  0  0  0  0  0  0  0  0  0  0  0
  156.3934  131.5917  165.1012 H   0  0  0  0  0  0  0  0  0  0  0  0
  155.2814  132.9515  164.9163 H   0  0  0  0  0  0  0  0  0  0  0  0
  156.2844  131.1029  162.7068 H   0  0  0  0  0  0  0  0  0  0  0  0
  154.6029  131.4931  163.0908 H   0  0  0  0  0  0  0  0  0  0  0  0
  155.5234  137.2282  159.4066 H   0  0  0  0  0  0  0  0  0  0  0  0
  154.1991  138.0676  160.0936 H   0  0  0  0  0  0  0  0  0  0  0  0
  156.9607  139.1589  160.6770 H   0  0  0  0  0  0  0  0  0  0  0  0
  157.5104  139.3242  158.7472 H   0  0  0  0  0  0  0  0  0  0  0  0
  155.1475  140.5807  161.4794 H   0  0  0  0  0  0  0  0  0  0  0  0
  155.9811  141.3886  160.1724 H   0  0  0  0  0  0  0  0  0  0  0  0
  154.1955  140.7238  158.5705 H   0  0  0  0  0  0  0  0  0  0  0  0
  153.3401  139.8923  159.8459 H   0  0  0  0  0  0  0  0  0  0  0  0
  152.5808  142.4142  158.0308 H   0  0  0  0  0  0  0  0  0  0  0  0
  151.4316  144.5246  158.6593 H   0  0  0  0  0  0  0  0  0  0  0  0
  151.5044  145.3318  161.0121 H   0  0  0  0  0  0  0  0  0  0  0  0
  152.7304  144.0238  162.7383 H   0  0  0  0  0  0  0  0  0  0  0  0
  153.8814  141.9137  162.1171 H   0  0  0  0  0  0  0  0  0  0  0  0
  1  2  2  0  0  0  0
  2 14  1  0  0  0  0
  2  3  1  0  0  0  0
  3  4  1  0  0  0  0
  3  5  2  0  0  0  0
  5  6  1  0  0  0  0
  5 26  1  0  0  0  0
  6  7  1  0  0  0  0
  6 12  1  0  0  0  0
  7 11  1  0  0  0  0
  7  8  1  0  0  0  0
  7 27  1  0  0  0  0
  8  9  1  0  0  0  0
  8 28  1  0  0  0  0
  8 29  1  0  0  0  0
  9 10  1  0  0  0  0
  9 30  1  0  0  0  0
  9 31  1  0  0  0  0
 10 11  1  0  0  0  0
 10 32  1  0  0  0  0
 10 33  1  0  0  0  0
 12 13  2  0  0  0  0
 12 14  1  0  0  0  0
 14 15  1  0  0  0  0
 15 16  1  0  0  0  0
 15 34  1  0  0  0  0
 15 35  1  0  0  0  0
 16 17  1  0  0  0  0
 16 18  1  0  0  0  0
 16 36  1  0  0  0  0
 17 37  1  0  0  0  0
 18 19  1  0  0  0  0
 18 38  1  0  0  0  0
 18 39  1  0  0  0  0
 19 20  1  0  0  0  0
 19 40  1  0  0  0  0
 19 41  1  0  0  0  0
 20 25  1  0  0  0  0
 20 21  2  0  0  0  0
 21 22  1  0  0  0  0
 21 42  1  0  0  0  0
 22 23  2  0  0  0  0
 22 43  1  0  0  0  0
 23 24  1  0  0  0  0
 23 44  1  0  0  0  0
 24 25  2  0  0  0  0
 24 45  1  0  0  0  0
 25 46  1  0  0  0  0
M  END
> <s_m_source_file>
AV-unprocessed.smi

> <i_m_source_file_index>
111

> <i_lp_mmshare_version>
43012

> <i_f3d_flags>
0

> <s_epik_input>
TzFbQ0gyXVtDSDJdW0NIMl1bQ0BIXTFuKFtjSF1jKEYpYzI9TyljKD1PKW4yW0NIMl1bQ0BIXShbT0hdKVtDSDJdW0NIMl1jM1tjSF1bY0hdW2NIXVtjSF1bY0hdMw==

> <s_epik_cmdline>
J2VwaWtfcHl0aG9uJywgJy1waCcsICc3LjAnLCAnLXRuJywgJzgnLCAnLW1hJywgJzIwMCcsICctbWV0YWxfYmluZGluZycsICctaW1hZScsICc8aW5maWxlLm1hZT4nLCAnLW9tYWUnLCAnPG91dGZpbGUubWFlPic=

> <r_lp_tautomer_probability>
1

> <r_epik_Ionization_Penalty>
1.88248e-07

> <r_epik_Ionization_Penalty_Charging>
4.03974e-08

> <r_epik_Ionization_Penalty_Neutral>
1.47851e-07

> <r_epik_State_Penalty>
-0

> <r_epik_Charging_Adjusted_Penalty>
4.03974e-08

> <i_epik_Tot_Q>
0

> <i_epik_Tot_abs_Q>
0

> <r_epik_Metal_State_Penalty>
-0

> <b_epik_Metal_Only>
0

> <s_epik_Chemistry_Notes>
This compound contains an acetal/aminal-like group ( X-CH(R)-Y where X, Y are N, S, or O) that may be acid/base labile, releasing an aldehyde.

> <s_lp_Force_Field>
OPLS_2005

> <r_lp_Energy>
37.7752

> <b_lp_Chiralities_Consistent>
1

> <s_lp_Variant>
AV-unprocessed.smi:111-4

> <Gold.Version>
5.8.1

> <Gold.Id.Protein>
6NUR|6NUR_protein|mol2

> <Gold.PLP.Fitness>
48.7001

> <Gold.PLP.PLP>
-48.0261

> <Gold.PLP.part.hbond>
-1.0000

> <Gold.PLP.part.metal>
0.0000

> <Gold.PLP.part.buried>
-4.5437

> <Gold.PLP.part.nonpolar>
-42.8178

> <Gold.PLP.part.repulsive>
0.0000

> <Gold.PLP.ligand.clash>
0.0000

> <Gold.PLP.ligand.torsion>
1.2521

> <Gold.PLP.Chemscore.Hbond>
1.0000

> <Gold.PLP.Chemscore.CHOScore>
0.0000

> <Gold.PLP.Chemscore.Metal>
0.0000

> <Gold.Chemscore.Hbonds>
donor molecule, donor type, donor heavy atom, donor atom, acceptor molecule, acceptor atom, score
      P1  H  7997  8010       L1    17  1.00

> <Gold.PLP.Chemscore.Internal.Correction>
0.1783

> <Gold.Rescore>
     Score         DG    S(hbond)    S(metal)    S(lipo)     H(rot)  DE(clash)    DE(int)     intcor
     11.31     -15.94       1.00        0.00     119.48       2.67       0.00       4.63       ----

> <Gold.Chemscore.Fitness>
11.3119

> <Gold.Chemscore.DG>
-15.9377

> <Gold.Chemscore.ZeroCoef>
-5.4800

> <Gold.Chemscore.Hbond>
0.9954

> <Gold.Chemscore.Metal>
0.0000

> <Gold.Chemscore.Lipo>
119.4816

> <Gold.Chemscore.Internal_Hbond>
0.0000

> <Gold.Chemscore.DEClash>
0.0004

> <Gold.Chemscore.DEInternal>
4.6254

> <Gold.Chemscore.Rot>
2.6743

> <Gold.Chemscore.Internal.Correction>
   9.000000E+99

> <Gold.Chemscore.Hbonds>
donor molecule, donor type, donor heavy atom, donor atom, acceptor molecule, acceptor atom, score
      P1  H  7997  8010       L1    17  0.91

> <Gold.Chemscore.Hbond.Weighted>
-3.3246

> <Gold.Chemscore.Metal.Weighted>
-0.0000

> <Gold.Chemscore.Lipo.Weighted>
-13.9793

> <Gold.Chemscore.Internal_Hbond.Weighted>
0.0000

> <Gold.Chemscore.DEClash.Weighted>
0.0004

> <Gold.Chemscore.DEInternal.Weighted>
4.6254

> <Gold.Chemscore.Rot.Weighted>
6.8463

> <Gold.Chemscore.Internal.Correction.Weighted>
   9.000000E+99

> <Gold.Protein.RotatedTorsions>
[ 6907 6896 6895 6894 ] final  -55.40 input  -60.11 | X-H torsion
[ 7974 7965 7964 7962 ] final  -46.88 input  175.53 | X-H torsion
[ 8008 7997 7996 7995 ] final  -42.26 input   59.86 | X-H torsion
[ 10167 10162 10161 10158 ] final -109.47 input  -65.29 | X-H torsion
[ 10718 10713 10712 10709 ] final  165.38 input   66.30 | X-H torsion
[ 10763 10752 10751 10750 ] final  127.58 input  -60.55 | X-H torsion
[ 11005 11000 10999 10996 ] final -169.58 input  -57.11 | X-H torsion

> <Gold.Protein.ActiveResidues>
 VAL166  LYS551  ARG553  GLY616  TRP617  ASP618  TYR619  PRO620  LYS621  CYS622 
 ASP623  PHE694  ASN695  SER759  ASP760  ASP761  ALA762  ILE779  LEU786  VAL792 
 PHE793  MET794  SER795  GLU796  ALA797  LYS798  CYS799  TRP800  GLU811  SER814 

> <Gold.Protein.RotatedAtoms>
  150.8255  134.7483  159.6808 H   0  0  0  0  0  0  0  0  0  0  0  0  # atno 6907 bound_to 6896
  152.4366  134.5671  159.9920 H   0  0  0  0  0  0  0  0  0  0  0  0  # atno 6908 bound_to 6896
  151.5844  133.3336  159.3051 H   0  0  0  0  0  0  0  0  0  0  0  0  # atno 6909 bound_to 6896
  145.9673  140.7418  142.9427 H   0  0  0  0  0  0  0  0  0  0  0  0  # atno 7974 bound_to 7965
  154.4000  140.1478  156.3325 H   0  0  0  0  0  0  0  0  0  0  0  0  # atno 8008 bound_to 7997
  155.8430  140.3461  155.5623 H   0  0  0  0  0  0  0  0  0  0  0  0  # atno 8009 bound_to 7997
  155.8067  140.0878  157.1917 H   0  0  0  0  0  0  0  0  0  0  0  0  # atno 8010 bound_to 7997
  140.1549  143.4168  152.1467 H   0  0  0  0  0  0  0  0  0  0  0  0  # atno 10167 bound_to 10162
  157.0809  131.0392  151.2575 H   0  0  0  0  0  0  0  0  0  0  0  0  # atno 10718 bound_to 10713
  153.7117  135.3267  155.3247 H   0  0  0  0  0  0  0  0  0  0  0  0  # atno 10763 bound_to 10752
  154.8383  135.4478  154.1307 H   0  0  0  0  0  0  0  0  0  0  0  0  # atno 10764 bound_to 10752
  153.2403  135.6970  153.7870 H   0  0  0  0  0  0  0  0  0  0  0  0  # atno 10765 bound_to 10752
  140.5291  134.5633  157.5070 H   0  0  0  0  0  0  0  0  0  0  0  0  # atno 11005 bound_to 11000
  144.6828  140.2691  143.7308 LP  0  0  0  0  0  0  0  0  0  0  0  0  # atno 17320 bound_to 7965
  145.7955  139.1944  143.2078 LP  0  0  0  0  0  0  0  0  0  0  0  0  # atno 17321 bound_to 7965
  139.5408  144.7254  151.4740 LP  0  0  0  0  0  0  0  0  0  0  0  0  # atno 17342 bound_to 10162
  140.6679  143.8358  150.6964 LP  0  0  0  0  0  0  0  0  0  0  0  0  # atno 17343 bound_to 10162
  157.4801  130.7760  149.7405 LP  0  0  0  0  0  0  0  0  0  0  0  0  # atno 17370 bound_to 10713
  155.9924  130.3931  150.2944 LP  0  0  0  0  0  0  0  0  0  0  0  0  # atno 17371 bound_to 10713
  139.9564  134.7528  156.0333 LP  0  0  0  0  0  0  0  0  0  0  0  0  # atno 17394 bound_to 11000
  141.1291  133.6591  156.3416 LP  0  0  0  0  0  0  0  0  0  0  0  0  # atno 17395 bound_to 11000

$$$$
