AV-unprocessed.smi:283|AV-procd|sdf|2140|dock10
  -GOLD-   2262021463D 1   1.00000     0.00000
 Structure written by MMmdl.
 48 51  0  0  0  0  0  0  0  0  1 V2000
  152.8815  138.2603  158.4672 C   0  0  0  0  0  0  0  0  0  0  0  0
  151.9884  139.3834  157.9231 C   0  0  1  0  0  0  0  0  0  0  0  0
  150.5961  138.9391  157.9001 N   0  0  0  0  0  0  0  0  0  0  0  0
  149.9478  138.7374  156.7314 C   0  0  0  0  0  0  0  0  0  0  0  0
  150.3337  139.5314  155.7044 N   0  0  0  0  0  0  0  0  0  0  0  0
  149.7762  139.3876  154.4995 C   0  0  0  0  0  0  0  0  0  0  0  0
  148.8318  138.5277  154.1157 N   0  0  0  0  0  0  0  0  0  0  0  0
  148.4221  137.7355  155.1489 C   0  0  0  0  0  0  0  0  0  0  0  0
  148.9211  137.7790  156.4824 C   0  0  0  0  0  0  0  0  0  0  0  0
  148.2532  136.8329  157.2518 N   0  0  0  0  0  0  0  0  0  0  0  0
  147.4327  136.2547  156.4186 C   0  0  0  0  0  0  0  0  0  0  0  0
  147.4738  136.7313  155.1292 N   0  0  0  0  0  0  0  0  0  0  0  0
  146.6694  136.2568  153.9598 C   0  0  1  0  0  0  0  0  0  0  0  0
  145.8277  135.2272  154.3650 O   0  0  0  0  0  0  0  0  0  0  0  0
  144.6638  135.2168  153.5448 C   0  0  1  0  0  0  0  0  0  0  0  0
  143.4316  134.9546  154.4303 C   0  0  0  0  0  0  0  0  0  0  0  0
  143.4378  133.6504  154.9729 O   0  0  0  0  0  0  0  0  0  0  0  0
  144.6497  136.5371  152.7448 C   0  0  2  0  0  0  0  0  0  0  0  0
  144.9366  136.2653  151.3859 O   0  0  0  0  0  0  0  0  0  0  0  0
  145.7819  137.3539  153.3550 C   0  0  1  0  0  0  0  0  0  0  0  0
  145.2892  138.2744  154.3115 O   0  0  0  0  0  0  0  0  0  0  0  0
  152.2367  140.6820  158.6969 C   0  0  0  0  0  0  0  0  0  0  0  0
  153.1288  140.6910  159.7950 C   0  0  0  0  0  0  0  0  0  0  0  0
  153.3621  141.8733  160.5217 C   0  0  0  0  0  0  0  0  0  0  0  0
  152.7136  143.0650  160.1518 C   0  0  0  0  0  0  0  0  0  0  0  0
  151.8375  143.0726  159.0511 C   0  0  0  0  0  0  0  0  0  0  0  0
  151.5987  141.8912  158.3208 C   0  0  0  0  0  0  0  0  0  0  0  0
  150.5217  141.9641  156.9700 Cl  0  0  0  0  0  0  0  0  0  0  0  0
  147.3988  135.8677  153.2478 H   0  0  0  0  0  0  0  0  0  0  0  0
  144.7705  134.3686  152.8662 H   0  0  0  0  0  0  0  0  0  0  0  0
  143.6910  137.0558  152.7872 H   0  0  0  0  0  0  0  0  0  0  0  0
  146.3501  137.9155  152.6122 H   0  0  0  0  0  0  0  0  0  0  0  0
  153.9351  138.5362  158.4131 H   0  0  0  0  0  0  0  0  0  0  0  0
  152.7538  137.3421  157.8931 H   0  0  0  0  0  0  0  0  0  0  0  0
  152.6497  138.0381  159.5095 H   0  0  0  0  0  0  0  0  0  0  0  0
  152.2710  139.5312  156.8823 H   0  0  0  0  0  0  0  0  0  0  0  0
  150.0959  139.0815  158.7655 H   0  0  0  0  0  0  0  0  0  0  0  0
  150.1415  140.0532  153.7314 H   0  0  0  0  0  0  0  0  0  0  0  0
  146.7751  135.4535  156.7233 H   0  0  0  0  0  0  0  0  0  0  0  0
  143.4192  135.6599  155.2616 H   0  0  0  0  0  0  0  0  0  0  0  0
  142.5124  135.1102  153.8651 H   0  0  0  0  0  0  0  0  0  0  0  0
  143.7936  133.0592  154.3259 H   0  0  0  0  0  0  0  0  0  0  0  0
  144.5528  136.9477  150.8565 H   0  0  0  0  0  0  0  0  0  0  0  0
  144.8597  138.9804  153.8528 H   0  0  0  0  0  0  0  0  0  0  0  0
  153.6386  139.7861  160.0914 H   0  0  0  0  0  0  0  0  0  0  0  0
  154.0397  141.8650  161.3627 H   0  0  0  0  0  0  0  0  0  0  0  0
  152.8918  143.9734  160.7080 H   0  0  0  0  0  0  0  0  0  0  0  0
  151.3473  143.9915  158.7648 H   0  0  0  0  0  0  0  0  0  0  0  0
  1  2  1  0  0  0  0
  1 33  1  0  0  0  0
  1 34  1  0  0  0  0
  1 35  1  0  0  0  0
  2  3  1  0  0  0  0
  2 22  1  0  0  0  0
  2 36  1  0  0  0  0
  3  4  1  0  0  0  0
  3 37  1  0  0  0  0
  4  9  1  0  0  0  0
  4  5  2  0  0  0  0
  5  6  1  0  0  0  0
  6  7  2  0  0  0  0
  6 38  1  0  0  0  0
  7  8  1  0  0  0  0
  8 12  1  0  0  0  0
  8  9  2  0  0  0  0
  9 10  1  0  0  0  0
 10 11  2  0  0  0  0
 11 12  1  0  0  0  0
 11 39  1  0  0  0  0
 12 13  1  0  0  0  0
 13 29  1  0  0  0  0
 13 20  1  0  0  0  0
 13 14  1  0  0  0  0
 14 15  1  0  0  0  0
 15 30  1  0  0  0  0
 15 16  1  0  0  0  0
 15 18  1  0  0  0  0
 16 17  1  0  0  0  0
 16 40  1  0  0  0  0
 16 41  1  0  0  0  0
 17 42  1  0  0  0  0
 18 31  1  0  0  0  0
 18 19  1  0  0  0  0
 18 20  1  0  0  0  0
 19 43  1  0  0  0  0
 20 32  1  0  0  0  0
 20 21  1  0  0  0  0
 21 44  1  0  0  0  0
 22 27  1  0  0  0  0
 22 23  2  0  0  0  0
 23 24  1  0  0  0  0
 23 45  1  0  0  0  0
 24 25  2  0  0  0  0
 24 46  1  0  0  0  0
 25 26  1  0  0  0  0
 25 47  1  0  0  0  0
 26 27  2  0  0  0  0
 26 48  1  0  0  0  0
 27 28  1  0  0  0  0
M  END
> <s_m_source_file>
AV-unprocessed.smi

> <i_m_source_file_index>
283

> <i_lp_mmshare_version>
43012

> <i_f3d_flags>
0

> <s_epik_input>
Q2xjMVtjSF1bY0hdW2NIXVtjSF1jMVtDQEhdKFtDSDNdKVtOSF1jKG5bY0hdbjIpYyhjMjMpbltjSF1uM1tDQEBIXTRPW0NASF0oW0NIMl1bT0hdKVtDQEBIXShbT0hdKVtDQEhdNFtPSF0=

> <s_epik_cmdline>
J2VwaWtfcHl0aG9uJywgJy1waCcsICc3LjAnLCAnLXRuJywgJzgnLCAnLW1hJywgJzIwMCcsICctbWV0YWxfYmluZGluZycsICctaW1hZScsICc8aW5maWxlLm1hZT4nLCAnLW9tYWUnLCAnPG91dGZpbGUubWFlPic=

> <r_lp_tautomer_probability>
1

> <r_epik_Ionization_Penalty>
0.000266407

> <r_epik_Ionization_Penalty_Charging>
0

> <r_epik_Ionization_Penalty_Neutral>
0.000266407

> <r_epik_State_Penalty>
-0

> <r_epik_Charging_Adjusted_Penalty>
0

> <i_epik_Tot_Q>
0

> <i_epik_Tot_abs_Q>
0

> <r_epik_Metal_State_Penalty>
-0

> <b_epik_Metal_Only>
0

> <s_epik_Chemistry_Notes>
This compound contains an acetal/aminal-like group ( X-CH(R)-Y where X, Y are N, S, or O) that may be acid/base labile, releasing an aldehyde.

> <s_lp_Force_Field>
OPLS_2005

> <r_lp_Energy>
47.3301

> <b_lp_Chiralities_Consistent>
1

> <s_lp_Variant>
AV-unprocessed.smi:283-16

> <Gold.Version>
5.8.1

> <Gold.Id.Protein>
6NUR|6NUR_protein|mol2

> <Gold.PLP.Fitness>
48.2882

> <Gold.PLP.PLP>
-35.9722

> <Gold.PLP.part.hbond>
-4.0000

> <Gold.PLP.part.metal>
0.0000

> <Gold.PLP.part.buried>
-6.7206

> <Gold.PLP.part.nonpolar>
-26.8890

> <Gold.PLP.part.repulsive>
0.3570

> <Gold.PLP.ligand.clash>
0.0000

> <Gold.PLP.ligand.torsion>
0.2907

> <Gold.PLP.Chemscore.Hbond>
3.2800

> <Gold.PLP.Chemscore.CHOScore>
1.0000

> <Gold.PLP.Chemscore.Metal>
0.0000

> <Gold.Chemscore.Hbonds>
donor molecule, donor type, donor heavy atom, donor atom, acceptor molecule, acceptor atom, score
      L1  H    19    43       P1 10171  0.94
      L1  H    21    44       P1 10175  0.21
      L1  C     6    38       P1  7957  0.76

> <Gold.PLP.Chemscore.Internal.Correction>
0.0574

> <Gold.Rescore>
     Score         DG    S(hbond)    S(metal)    S(lipo)     H(rot)  DE(clash)    DE(int)     intcor
     14.75     -15.11       3.04        0.00      85.32       4.10       0.01       0.36       ----

> <Gold.Chemscore.Fitness>
14.7473

> <Gold.Chemscore.DG>
-15.1142

> <Gold.Chemscore.ZeroCoef>
-5.4800

> <Gold.Chemscore.Hbond>
3.0360

> <Gold.Chemscore.Metal>
0.0000

> <Gold.Chemscore.Lipo>
85.3153

> <Gold.Chemscore.Internal_Hbond>
0.0000

> <Gold.Chemscore.DEClash>
0.0073

> <Gold.Chemscore.DEInternal>
0.3597

> <Gold.Chemscore.Rot>
4.0968

> <Gold.Chemscore.Internal.Correction>
   9.000000E+99

> <Gold.Chemscore.Hbonds>
donor molecule, donor type, donor heavy atom, donor atom, acceptor molecule, acceptor atom, score
      L1  H    17    42       P1 10957  0.01
      L1  H    19    43       P1 10171  0.90
      L1  H    21    44       P1 10175  0.23

> <Gold.Chemscore.Hbond.Weighted>
-10.1403

> <Gold.Chemscore.Metal.Weighted>
-0.0000

> <Gold.Chemscore.Lipo.Weighted>
-9.9819

> <Gold.Chemscore.Internal_Hbond.Weighted>
0.0000

> <Gold.Chemscore.DEClash.Weighted>
0.0073

> <Gold.Chemscore.DEInternal.Weighted>
0.3597

> <Gold.Chemscore.Rot.Weighted>
10.4879

> <Gold.Chemscore.Internal.Correction.Weighted>
   9.000000E+99

> <Gold.Protein.RotatedTorsions>
[ 6907 6896 6895 6894 ] final  -95.79 input  -60.11 | X-H torsion
[ 7974 7965 7964 7962 ] final -137.50 input  175.53 | X-H torsion
[ 8008 7997 7996 7995 ] final   34.72 input   59.86 | X-H torsion
[ 10167 10162 10161 10158 ] final  132.75 input  -65.29 | X-H torsion
[ 10718 10713 10712 10709 ] final   97.73 input   66.30 | X-H torsion
[ 10763 10752 10751 10750 ] final  -95.34 input  -60.55 | X-H torsion
[ 11005 11000 10999 10996 ] final  -35.13 input  -57.11 | X-H torsion

> <Gold.Protein.ActiveResidues>
 VAL166  LYS551  ARG553  GLY616  TRP617  ASP618  TYR619  PRO620  LYS621  CYS622 
 ASP623  PHE694  ASN695  SER759  ASP760  ASP761  ALA762  ILE779  LEU786  VAL792 
 PHE793  MET794  SER795  GLU796  ALA797  LYS798  CYS799  TRP800  GLU811  SER814 

> <Gold.Protein.RotatedAtoms>
  150.6972  134.1604  159.4173 H   0  0  0  0  0  0  0  0  0  0  0  0  # atno 6907 bound_to 6896
  151.9584  135.0133  160.0555 H   0  0  0  0  0  0  0  0  0  0  0  0  # atno 6908 bound_to 6896
  152.1948  133.4764  159.5064 H   0  0  0  0  0  0  0  0  0  0  0  0  # atno 6909 bound_to 6896
  144.8836  140.6543  143.5190 H   0  0  0  0  0  0  0  0  0  0  0  0  # atno 7974 bound_to 7965
  155.1593  140.3282  155.4414 H   0  0  0  0  0  0  0  0  0  0  0  0  # atno 8008 bound_to 7997
  156.2548  140.1963  156.6652 H   0  0  0  0  0  0  0  0  0  0  0  0  # atno 8009 bound_to 7997
  154.6416  140.0569  156.9838 H   0  0  0  0  0  0  0  0  0  0  0  0  # atno 8010 bound_to 7997
  139.5326  144.6647  151.4897 H   0  0  0  0  0  0  0  0  0  0  0  0  # atno 10167 bound_to 10162
  157.6908  131.0618  150.4688 H   0  0  0  0  0  0  0  0  0  0  0  0  # atno 10718 bound_to 10713
  154.7139  135.5124  153.8708 H   0  0  0  0  0  0  0  0  0  0  0  0  # atno 10763 bound_to 10752
  153.0803  135.6629  154.0067 H   0  0  0  0  0  0  0  0  0  0  0  0  # atno 10764 bound_to 10752
  153.9903  135.3020  155.3392 H   0  0  0  0  0  0  0  0  0  0  0  0  # atno 10765 bound_to 10752
  140.9772  133.7076  156.1622 H   0  0  0  0  0  0  0  0  0  0  0  0  # atno 11005 bound_to 11000
  145.3909  139.1617  143.4229 LP  0  0  0  0  0  0  0  0  0  0  0  0  # atno 17320 bound_to 7965
  146.3010  140.3998  142.8704 LP  0  0  0  0  0  0  0  0  0  0  0  0  # atno 17321 bound_to 7965
  140.6513  143.8690  150.6789 LP  0  0  0  0  0  0  0  0  0  0  0  0  # atno 17342 bound_to 10162
  140.2055  143.3925  152.1758 LP  0  0  0  0  0  0  0  0  0  0  0  0  # atno 17343 bound_to 10162
  156.5028  130.4121  149.6344 LP  0  0  0  0  0  0  0  0  0  0  0  0  # atno 17370 bound_to 10713
  156.3313  130.7333  151.2262 LP  0  0  0  0  0  0  0  0  0  0  0  0  # atno 17371 bound_to 10713
  140.7242  134.4326  157.5572 LP  0  0  0  0  0  0  0  0  0  0  0  0  # atno 17394 bound_to 11000
  139.8935  134.8729  156.2220 LP  0  0  0  0  0  0  0  0  0  0  0  0  # atno 17395 bound_to 11000

$$$$
