AV-unprocessed.smi:3032|AV-procd|sdf|11571|dock2
  -GOLD-   2272016533D 1   1.00000     0.00000
 Structure written by MMmdl.
 36 37  0  0  0  0  0  0  0  0  2 V2000
  151.8906  144.5919  159.0692 C   0  0  0  0  0  0  0  0  0  0  0  0
  151.9433  143.0947  159.4063 C   0  0  2  0  0  0  0  0  0  0  0  0
  153.0989  142.7756  160.3743 C   0  0  0  0  0  0  0  0  0  0  0  0
  153.1582  141.2763  160.7067 C   0  0  0  0  0  0  0  0  0  0  0  0
  153.2668  140.4274  159.4305 C   0  0  0  0  0  0  0  0  0  0  0  0
  152.1058  140.7269  158.4599 C   0  0  2  0  0  0  0  0  0  0  0  0
  152.2350  139.8889  157.1809 C   0  0  0  0  0  0  0  0  0  0  0  0
  153.1519  139.0749  157.0610 O   0  0  0  0  0  0  0  0  0  0  0  0
  151.3070  140.0951  156.2348 N   0  0  0  0  0  0  0  0  0  0  0  0
  151.2153  139.3611  154.9769 C   0  0  0  0  0  0  0  0  0  0  0  0
  149.7630  139.0033  154.6105 C   0  0  0  0  0  0  0  0  0  0  0  0
  148.9087  140.2160  154.2981 C   0  0  0  0  0  0  0  0  0  0  0  0
  147.6399  140.1835  153.8412 N   0  5  0  0  0  0  0  0  0  0  0  0
  147.1986  141.4096  153.6384 N   0  0  0  0  0  0  0  0  0  0  0  0
  148.2327  142.1893  153.9751 C   0  0  0  0  0  0  0  0  0  0  0  0
  149.2969  141.4869  154.3776 N   0  0  0  0  0  0  0  0  0  0  0  0
  152.0555  142.2349  158.1315 C   0  0  0  0  0  0  0  0  0  0  0  0
  152.7976  144.9151  158.5573 H   0  0  0  0  0  0  0  0  0  0  0  0
  151.7841  145.1945  159.9717 H   0  0  0  0  0  0  0  0  0  0  0  0
  151.0436  144.8184  158.4206 H   0  0  0  0  0  0  0  0  0  0  0  0
  151.0073  142.8371  159.9041 H   0  0  0  0  0  0  0  0  0  0  0  0
  154.0469  143.0868  159.9329 H   0  0  0  0  0  0  0  0  0  0  0  0
  152.9847  143.3486  161.2950 H   0  0  0  0  0  0  0  0  0  0  0  0
  154.0072  141.0737  161.3601 H   0  0  0  0  0  0  0  0  0  0  0  0
  152.2648  140.9885  161.2623 H   0  0  0  0  0  0  0  0  0  0  0  0
  154.2243  140.6279  158.9465 H   0  0  0  0  0  0  0  0  0  0  0  0
  153.2709  139.3691  159.6958 H   0  0  0  0  0  0  0  0  0  0  0  0
  151.1711  140.4556  158.9548 H   0  0  0  0  0  0  0  0  0  0  0  0
  150.5801  140.7709  156.4206 H   0  0  0  0  0  0  0  0  0  0  0  0
  151.6425  139.9890  154.1946 H   0  0  0  0  0  0  0  0  0  0  0  0
  151.8289  138.4600  155.0179 H   0  0  0  0  0  0  0  0  0  0  0  0
  149.7540  138.3391  153.7460 H   0  0  0  0  0  0  0  0  0  0  0  0
  149.2966  138.4510  155.4271 H   0  0  0  0  0  0  0  0  0  0  0  0
  148.2104  143.2707  153.9239 H   0  0  0  0  0  0  0  0  0  0  0  0
  151.2072  142.4404  157.4768 H   0  0  0  0  0  0  0  0  0  0  0  0
  152.9489  142.5271  157.5767 H   0  0  0  0  0  0  0  0  0  0  0  0
  1  2  1  0  0  0  0
  1 18  1  0  0  0  0
  1 19  1  0  0  0  0
  1 20  1  0  0  0  0
  2 17  1  0  0  0  0
  2  3  1  0  0  0  0
  2 21  1  0  0  0  0
  3  4  1  0  0  0  0
  3 22  1  0  0  0  0
  3 23  1  0  0  0  0
  4  5  1  0  0  0  0
  4 24  1  0  0  0  0
  4 25  1  0  0  0  0
  5  6  1  0  0  0  0
  5 26  1  0  0  0  0
  5 27  1  0  0  0  0
  6  7  1  0  0  0  0
  6 17  1  0  0  0  0
  6 28  1  0  0  0  0
  7  8  2  0  0  0  0
  7  9  1  0  0  0  0
  9 10  1  0  0  0  0
  9 29  1  0  0  0  0
 10 11  1  0  0  0  0
 10 30  1  0  0  0  0
 10 31  1  0  0  0  0
 11 32  1  0  0  0  0
 11 33  1  0  0  0  0
 11 12  1  0  0  0  0
 12 16  2  0  0  0  0
 12 13  1  0  0  0  0
 13 14  1  0  0  0  0
 14 15  2  0  0  0  0
 15 16  1  0  0  0  0
 15 34  1  0  0  0  0
 17 35  1  0  0  0  0
 17 36  1  0  0  0  0
M  CHG  1  13  -1
M  END
> <s_m_source_file>
AV-unprocessed.smi

> <i_m_source_file_index>
3032

> <i_lp_mmshare_version>
43012

> <i_f3d_flags>
0

> <s_epik_input>
W0NIM11bQ0BASF0xW0NIMl1bQ0gyXVtDSDJdW0NASF0oW0NIMl0xKUMoPU8pW05IXVtDSDJdW0NIMl1jMm5uW2NIXVtuSF0y

> <s_epik_cmdline>
J2VwaWtfcHl0aG9uJywgJy1waCcsICc3LjAnLCAnLXRuJywgJzgnLCAnLW1hJywgJzIwMCcsICctbWV0YWxfYmluZGluZycsICctaW1hZScsICc8aW5maWxlLm1hZT4nLCAnLW9tYWUnLCAnPG91dGZpbGUubWFlPic=

> <r_lp_tautomer_probability>
0.948284

> <r_epik_Ionization_Penalty>
12.042

> <r_epik_Ionization_Penalty_Charging>
12.042

> <r_epik_Ionization_Penalty_Neutral>
4.36781e-08

> <r_epik_State_Penalty>
4.67286

> <r_epik_Charging_Adjusted_Penalty>
16.7149

> <i_epik_Tot_Q>
-1

> <i_epik_Tot_abs_Q>
1

> <r_epik_Metal_State_Penalty>
0.981637

> <b_epik_Metal_Only>
1

> <s_lp_Force_Field>
OPLS_2005

> <r_lp_Energy>
10.3443

> <b_lp_Chiralities_Consistent>
1

> <s_lp_Variant>
AV-unprocessed.smi:3032-15

> <Gold.Version>
5.8.1

> <Gold.Id.Protein>
6NUR|6NUR_protein|mol2

> <Gold.PLP.Fitness>
40.0575

> <Gold.PLP.PLP>
-34.5082

> <Gold.PLP.part.hbond>
-1.2501

> <Gold.PLP.part.metal>
0.0000

> <Gold.PLP.part.buried>
-3.5395

> <Gold.PLP.part.nonpolar>
-29.8923

> <Gold.PLP.part.repulsive>
0.5760

> <Gold.PLP.ligand.clash>
0.0000

> <Gold.PLP.ligand.torsion>
0.1957

> <Gold.PLP.Chemscore.Hbond>
1.0000

> <Gold.PLP.Chemscore.CHOScore>
0.9730

> <Gold.PLP.Chemscore.Metal>
0.0000

> <Gold.Chemscore.Hbonds>
donor molecule, donor type, donor heavy atom, donor atom, acceptor molecule, acceptor atom, score
      P1  H  7997  8010       L1     8  1.00
      L1  C    15    34       P1  8028  0.93

> <Gold.PLP.Chemscore.Internal.Correction>
0.0217

> <Gold.Rescore>
     Score         DG    S(hbond)    S(metal)    S(lipo)     H(rot)  DE(clash)    DE(int)     intcor
     12.81     -12.95       0.95        0.00      85.10       2.21       0.01       0.13       ----

> <Gold.Chemscore.Fitness>
12.8069

> <Gold.Chemscore.DG>
-12.9454

> <Gold.Chemscore.ZeroCoef>
-5.4800

> <Gold.Chemscore.Hbond>
0.9517

> <Gold.Chemscore.Metal>
0.0000

> <Gold.Chemscore.Lipo>
85.1020

> <Gold.Chemscore.Internal_Hbond>
0.0000

> <Gold.Chemscore.DEClash>
0.0060

> <Gold.Chemscore.DEInternal>
0.1325

> <Gold.Chemscore.Rot>
2.2149

> <Gold.Chemscore.Internal.Correction>
   9.000000E+99

> <Gold.Chemscore.Hbonds>
donor molecule, donor type, donor heavy atom, donor atom, acceptor molecule, acceptor atom, score
      P1  H  7997  8010       L1     8  0.44

> <Gold.Chemscore.Hbond.Weighted>
-3.1787

> <Gold.Chemscore.Metal.Weighted>
-0.0000

> <Gold.Chemscore.Lipo.Weighted>
-9.9569

> <Gold.Chemscore.Internal_Hbond.Weighted>
0.0000

> <Gold.Chemscore.DEClash.Weighted>
0.0060

> <Gold.Chemscore.DEInternal.Weighted>
0.1325

> <Gold.Chemscore.Rot.Weighted>
5.6702

> <Gold.Chemscore.Internal.Correction.Weighted>
   9.000000E+99

> <Gold.Protein.RotatedTorsions>
[ 6907 6896 6895 6894 ] final -135.78 input  -60.11 | X-H torsion
[ 7974 7965 7964 7962 ] final  -14.59 input  175.53 | X-H torsion
[ 8008 7997 7996 7995 ] final   39.06 input   59.86 | X-H torsion
[ 10167 10162 10161 10158 ] final  -92.97 input  -65.29 | X-H torsion
[ 10718 10713 10712 10709 ] final  -52.33 input   66.30 | X-H torsion
[ 10763 10752 10751 10750 ] final  138.35 input  -60.55 | X-H torsion
[ 11005 11000 10999 10996 ] final  145.33 input  -57.11 | X-H torsion

> <Gold.Protein.ActiveResidues>
 VAL166  LYS551  ARG553  GLY616  TRP617  ASP618  TYR619  PRO620  LYS621  CYS622 
 ASP623  PHE694  ASN695  SER759  ASP760  ASP761  ALA762  ILE779  LEU786  VAL792 
 PHE793  MET794  SER795  GLU796  ALA797  LYS798  CYS799  TRP800  GLU811  SER814 

> <Gold.Protein.RotatedAtoms>
  151.0020  133.6047  159.2693 H   0  0  0  0  0  0  0  0  0  0  0  0  # atno 6907 bound_to 6896
  151.3229  135.0822  159.9322 H   0  0  0  0  0  0  0  0  0  0  0  0  # atno 6908 bound_to 6896
  152.5276  133.9664  159.7795 H   0  0  0  0  0  0  0  0  0  0  0  0  # atno 6909 bound_to 6896
  146.2068  140.3370  142.8404 H   0  0  0  0  0  0  0  0  0  0  0  0  # atno 7974 bound_to 7965
  155.2304  140.3338  155.4304 H   0  0  0  0  0  0  0  0  0  0  0  0  # atno 8008 bound_to 7997
  156.2297  140.1845  156.7319 H   0  0  0  0  0  0  0  0  0  0  0  0  # atno 8009 bound_to 7997
  154.5957  140.0631  156.9286 H   0  0  0  0  0  0  0  0  0  0  0  0  # atno 8010 bound_to 7997
  140.3294  143.3003  151.9959 H   0  0  0  0  0  0  0  0  0  0  0  0  # atno 10167 bound_to 10162
  156.1631  130.4149  149.9762 H   0  0  0  0  0  0  0  0  0  0  0  0  # atno 10718 bound_to 10713
  153.8881  135.3036  155.3447 H   0  0  0  0  0  0  0  0  0  0  0  0  # atno 10763 bound_to 10752
  154.7730  135.4876  153.9689 H   0  0  0  0  0  0  0  0  0  0  0  0  # atno 10764 bound_to 10752
  153.1313  135.6804  153.9271 H   0  0  0  0  0  0  0  0  0  0  0  0  # atno 10765 bound_to 10752
  140.0703  134.9155  157.1334 H   0  0  0  0  0  0  0  0  0  0  0  0  # atno 11005 bound_to 11000
  144.8812  140.7403  143.5985 LP  0  0  0  0  0  0  0  0  0  0  0  0  # atno 17320 bound_to 7965
  145.3290  139.1765  143.4547 LP  0  0  0  0  0  0  0  0  0  0  0  0  # atno 17321 bound_to 7965
  139.4859  144.6247  151.7187 LP  0  0  0  0  0  0  0  0  0  0  0  0  # atno 17342 bound_to 10162
  140.5411  144.0577  150.6089 LP  0  0  0  0  0  0  0  0  0  0  0  0  # atno 17343 bound_to 10162
  156.7585  130.9142  151.3640 LP  0  0  0  0  0  0  0  0  0  0  0  0  # atno 17370 bound_to 10713
  157.6747  130.9084  150.0123 LP  0  0  0  0  0  0  0  0  0  0  0  0  # atno 17371 bound_to 10713
  140.3637  134.2466  155.7184 LP  0  0  0  0  0  0  0  0  0  0  0  0  # atno 17394 bound_to 11000
  141.2009  133.7975  157.0466 LP  0  0  0  0  0  0  0  0  0  0  0  0  # atno 17395 bound_to 11000

$$$$
