AV-unprocessed.smi:1703|AV-procd|sdf|6857|dock1
  -GOLD-   22720 8 43D 1   1.00000     0.00000
 Structure written by MMmdl.
 48 50  0  0  0  0  0  0  0  0  1 V2000
  146.4836  139.1883  156.4255 C   0  0  0  0  0  0  0  0  0  0  0  0
  147.1415  140.4393  155.8339 C   0  0  1  0  0  0  0  0  0  0  0  0
  148.5921  140.6154  156.3175 C   0  0  0  0  0  0  0  0  0  0  0  0
  149.2385  141.7612  155.6910 N   0  0  0  0  0  0  0  0  0  0  0  0
  150.5984  141.9435  156.1975 C   0  0  0  0  0  0  0  0  0  0  0  0
  150.6900  142.4562  157.6507 C   0  0  2  0  0  0  0  0  0  0  0  0
  149.6114  143.3379  157.8985 O   0  0  0  0  0  0  0  0  0  0  0  0
  152.0153  143.1995  157.9164 C   0  0  0  0  0  0  0  0  0  0  0  0
  152.2784  143.3990  159.3360 N   0  0  0  0  0  0  0  0  0  0  0  0
  152.0330  144.5055  160.0825 C   0  0  0  0  0  0  0  0  0  0  0  0
  151.4102  145.7334  159.4797 C   0  0  0  0  0  0  0  0  0  0  0  0
  150.0128  145.6363  159.2902 O   0  0  0  0  0  0  0  0  0  0  0  0
  152.3704  144.4174  161.3713 N   0  0  0  0  0  0  0  0  0  0  0  0
  152.8797  143.1376  161.4687 C   0  0  0  0  0  0  0  0  0  0  0  0
  153.4053  142.4408  162.5802 C   0  0  0  0  0  0  0  0  0  0  0  0
  153.8730  141.1180  162.4372 C   0  0  0  0  0  0  0  0  0  0  0  0
  153.8207  140.4742  161.1841 C   0  0  0  0  0  0  0  0  0  0  0  0
  153.3001  141.1505  160.0639 C   0  0  0  0  0  0  0  0  0  0  0  0
  152.8354  142.4713  160.2116 C   0  0  0  0  0  0  0  0  0  0  0  0
  149.1982  141.5960  154.2397 C   0  0  0  0  0  0  0  0  0  0  0  0
  147.7685  141.3804  153.7044 C   0  0  2  0  0  0  0  0  0  0  0  0
  146.9185  142.6626  153.7080 C   0  0  0  0  0  0  0  0  0  0  0  0
  147.1282  140.3177  154.4128 O   0  0  0  0  0  0  0  0  0  0  0  0
  146.4513  139.2400  157.5141 H   0  0  0  0  0  0  0  0  0  0  0  0
  147.0294  138.2856  156.1489 H   0  0  0  0  0  0  0  0  0  0  0  0
  145.4594  139.0814  156.0680 H   0  0  0  0  0  0  0  0  0  0  0  0
  146.5517  141.3077  156.1287 H   0  0  0  0  0  0  0  0  0  0  0  0
  148.5944  140.7384  157.4012 H   0  0  0  0  0  0  0  0  0  0  0  0
  149.1613  139.7086  156.1055 H   0  0  0  0  0  0  0  0  0  0  0  0
  151.0917  140.9711  156.1624 H   0  0  0  0  0  0  0  0  0  0  0  0
  151.1760  142.5815  155.5262 H   0  0  0  0  0  0  0  0  0  0  0  0
  150.6118  141.6162  158.3415 H   0  0  0  0  0  0  0  0  0  0  0  0
  149.1513  143.0419  158.6687 H   0  0  0  0  0  0  0  0  0  0  0  0
  152.8506  142.6493  157.4827 H   0  0  0  0  0  0  0  0  0  0  0  0
  152.0095  144.1722  157.4228 H   0  0  0  0  0  0  0  0  0  0  0  0
  151.6066  146.5925  160.1203 H   0  0  0  0  0  0  0  0  0  0  0  0
  151.8778  145.9311  158.5147 H   0  0  0  0  0  0  0  0  0  0  0  0
  149.7755  146.1510  158.5343 H   0  0  0  0  0  0  0  0  0  0  0  0
  153.4492  142.9255  163.5443 H   0  0  0  0  0  0  0  0  0  0  0  0
  154.2735  140.5950  163.2934 H   0  0  0  0  0  0  0  0  0  0  0  0
  154.1811  139.4609  161.0827 H   0  0  0  0  0  0  0  0  0  0  0  0
  153.2608  140.6599  159.1031 H   0  0  0  0  0  0  0  0  0  0  0  0
  149.6330  142.4644  153.7451 H   0  0  0  0  0  0  0  0  0  0  0  0
  149.8139  140.7409  153.9565 H   0  0  0  0  0  0  0  0  0  0  0  0
  147.8458  141.0540  152.6670 H   0  0  0  0  0  0  0  0  0  0  0  0
  147.3659  143.4251  153.0701 H   0  0  0  0  0  0  0  0  0  0  0  0
  146.8235  143.0896  154.7061 H   0  0  0  0  0  0  0  0  0  0  0  0
  145.9146  142.4651  153.3317 H   0  0  0  0  0  0  0  0  0  0  0  0
  1  2  1  0  0  0  0
  1 24  1  0  0  0  0
  1 25  1  0  0  0  0
  1 26  1  0  0  0  0
  2 23  1  0  0  0  0
  2  3  1  0  0  0  0
  2 27  1  0  0  0  0
  3  4  1  0  0  0  0
  3 28  1  0  0  0  0
  3 29  1  0  0  0  0
  4  5  1  0  0  0  0
  4 20  1  0  0  0  0
  5  6  1  0  0  0  0
  5 30  1  0  0  0  0
  5 31  1  0  0  0  0
  6  7  1  0  0  0  0
  6  8  1  0  0  0  0
  6 32  1  0  0  0  0
  7 33  1  0  0  0  0
  8  9  1  0  0  0  0
  8 34  1  0  0  0  0
  8 35  1  0  0  0  0
  9 19  1  0  0  0  0
  9 10  1  0  0  0  0
 10 11  1  0  0  0  0
 10 13  2  0  0  0  0
 11 12  1  0  0  0  0
 11 36  1  0  0  0  0
 11 37  1  0  0  0  0
 12 38  1  0  0  0  0
 13 14  1  0  0  0  0
 14 19  2  0  0  0  0
 14 15  1  0  0  0  0
 15 16  2  0  0  0  0
 15 39  1  0  0  0  0
 16 17  1  0  0  0  0
 16 40  1  0  0  0  0
 17 18  2  0  0  0  0
 17 41  1  0  0  0  0
 18 19  1  0  0  0  0
 18 42  1  0  0  0  0
 20 21  1  0  0  0  0
 20 43  1  0  0  0  0
 20 44  1  0  0  0  0
 21 22  1  0  0  0  0
 21 23  1  0  0  0  0
 21 45  1  0  0  0  0
 22 46  1  0  0  0  0
 22 47  1  0  0  0  0
 22 48  1  0  0  0  0
M  END
> <s_m_source_file>
AV-unprocessed.smi

> <i_m_source_file_index>
1703

> <i_lp_mmshare_version>
43012

> <i_f3d_flags>
0

> <s_epik_input>
W0NIM11bQ0BASF0xW0NIMl1OKFtDSDJdW0NASF0oTzEpW0NIM10pW0NIMl1bQ0BIXShbT0hdKVtDSDJdbihjKG4yKVtDSDJdW09IXSljKGMyMylbY0hdW2NIXVtjSF1bY0hdMw==

> <s_epik_cmdline>
J2VwaWtfcHl0aG9uJywgJy1waCcsICc3LjAnLCAnLXRuJywgJzgnLCAnLW1hJywgJzIwMCcsICctbWV0YWxfYmluZGluZycsICctaW1hZScsICc8aW5maWxlLm1hZT4nLCAnLW9tYWUnLCAnPG91dGZpbGUubWFlPic=

> <r_epik_Ionization_Penalty>
0.307685

> <r_epik_Ionization_Penalty_Charging>
0

> <r_epik_Ionization_Penalty_Neutral>
0.307685

> <r_epik_State_Penalty>
0.277856

> <r_epik_Charging_Adjusted_Penalty>
0.277856

> <i_epik_Tot_Q>
0

> <i_epik_Tot_abs_Q>
0

> <r_epik_Metal_State_Penalty>
0.238959

> <b_epik_Metal_Only>
0

> <s_lp_Force_Field>
OPLS_2005

> <r_lp_Energy>
32.6891

> <b_lp_Chiralities_Consistent>
1

> <s_lp_Variant>
AV-unprocessed.smi:1703-5

> <Gold.Version>
5.8.1

> <Gold.Id.Protein>
6NUR|6NUR_protein|mol2

> <Gold.PLP.Fitness>
52.0863

> <Gold.PLP.PLP>
-50.9545

> <Gold.PLP.part.hbond>
-2.7308

> <Gold.PLP.part.metal>
0.0000

> <Gold.PLP.part.buried>
-3.7009

> <Gold.PLP.part.nonpolar>
-44.1318

> <Gold.PLP.part.repulsive>
0.3890

> <Gold.PLP.ligand.clash>
0.0000

> <Gold.PLP.ligand.torsion>
1.0318

> <Gold.PLP.Chemscore.Hbond>
0.9920

> <Gold.PLP.Chemscore.CHOScore>
0.0000

> <Gold.PLP.Chemscore.Metal>
0.0000

> <Gold.Chemscore.Hbonds>
donor molecule, donor type, donor heavy atom, donor atom, acceptor molecule, acceptor atom, score
      L1  H    12    38       P1  8029  0.25

> <Gold.PLP.Chemscore.Internal.Correction>
0.2194

> <Gold.Rescore>
     Score         DG    S(hbond)    S(metal)    S(lipo)     H(rot)  DE(clash)    DE(int)     intcor
     14.03     -14.93       0.87        0.00     118.97       2.88       0.07       0.83       ----

> <Gold.Chemscore.Fitness>
14.0291

> <Gold.Chemscore.DG>
-14.9275

> <Gold.Chemscore.ZeroCoef>
-5.4800

> <Gold.Chemscore.Hbond>
0.8667

> <Gold.Chemscore.Metal>
0.0000

> <Gold.Chemscore.Lipo>
118.9732

> <Gold.Chemscore.Internal_Hbond>
0.0000

> <Gold.Chemscore.DEClash>
0.0688

> <Gold.Chemscore.DEInternal>
0.8297

> <Gold.Chemscore.Rot>
2.8778

> <Gold.Chemscore.Internal.Correction>
   9.000000E+99

> <Gold.Chemscore.Hbonds>
donor molecule, donor type, donor heavy atom, donor atom, acceptor molecule, acceptor atom, score
      L1  H    12    38       P1  8029  0.24

> <Gold.Chemscore.Hbond.Weighted>
-2.8947

> <Gold.Chemscore.Metal.Weighted>
-0.0000

> <Gold.Chemscore.Lipo.Weighted>
-13.9199

> <Gold.Chemscore.Internal_Hbond.Weighted>
0.0000

> <Gold.Chemscore.DEClash.Weighted>
0.0688

> <Gold.Chemscore.DEInternal.Weighted>
0.8297

> <Gold.Chemscore.Rot.Weighted>
7.3671

> <Gold.Chemscore.Internal.Correction.Weighted>
   9.000000E+99

> <Gold.Protein.RotatedTorsions>
[ 6907 6896 6895 6894 ] final    0.34 input  -60.11 | X-H torsion
[ 7974 7965 7964 7962 ] final  -81.29 input  175.53 | X-H torsion
[ 8008 7997 7996 7995 ] final    2.30 input   59.86 | X-H torsion
[ 10167 10162 10161 10158 ] final   53.03 input  -65.29 | X-H torsion
[ 10718 10713 10712 10709 ] final   31.39 input   66.30 | X-H torsion
[ 10763 10752 10751 10750 ] final   18.53 input  -60.55 | X-H torsion
[ 11005 11000 10999 10996 ] final  -93.95 input  -57.11 | X-H torsion

> <Gold.Protein.ActiveResidues>
 VAL166  LYS551  ARG553  GLY616  TRP617  ASP618  TYR619  PRO620  LYS621  CYS622 
 ASP623  PHE694  ASN695  SER759  ASP760  ASP761  ALA762  ILE779  LEU786  VAL792 
 PHE793  MET794  SER795  GLU796  ALA797  LYS798  CYS799  TRP800  GLU811  SER814 

> <Gold.Protein.RotatedAtoms>
  151.5748  135.1061  160.0003 H   0  0  0  0  0  0  0  0  0  0  0  0  # atno 6907 bound_to 6896
  152.4383  133.7397  159.6644 H   0  0  0  0  0  0  0  0  0  0  0  0  # atno 6908 bound_to 6896
  150.8284  133.8063  159.3132 H   0  0  0  0  0  0  0  0  0  0  0  0  # atno 6909 bound_to 6896
  145.5486  140.9500  143.1511 H   0  0  0  0  0  0  0  0  0  0  0  0  # atno 7974 bound_to 7965
  154.6900  140.2651  155.6822 H   0  0  0  0  0  0  0  0  0  0  0  0  # atno 8008 bound_to 7997
  156.2728  140.2793  156.1397 H   0  0  0  0  0  0  0  0  0  0  0  0  # atno 8009 bound_to 7997
  155.0910  140.0373  157.2659 H   0  0  0  0  0  0  0  0  0  0  0  0  # atno 8010 bound_to 7997
  140.2451  144.3540  150.6367 H   0  0  0  0  0  0  0  0  0  0  0  0  # atno 10167 bound_to 10162
  157.2719  130.7212  149.6509 H   0  0  0  0  0  0  0  0  0  0  0  0  # atno 10718 bound_to 10713
  153.1241  135.6725  153.9287 H   0  0  0  0  0  0  0  0  0  0  0  0  # atno 10763 bound_to 10752
  153.8793  135.3060  155.3446 H   0  0  0  0  0  0  0  0  0  0  0  0  # atno 10764 bound_to 10752
  154.7648  135.4969  153.9614 H   0  0  0  0  0  0  0  0  0  0  0  0  # atno 10765 bound_to 10752
  141.1484  133.7922  157.0230 H   0  0  0  0  0  0  0  0  0  0  0  0  # atno 11005 bound_to 11000
  144.7541  139.7120  143.7261 LP  0  0  0  0  0  0  0  0  0  0  0  0  # atno 17320 bound_to 7965
  146.1932  139.5184  142.9791 LP  0  0  0  0  0  0  0  0  0  0  0  0  # atno 17321 bound_to 7965
  140.6083  143.2168  151.6936 LP  0  0  0  0  0  0  0  0  0  0  0  0  # atno 17342 bound_to 10162
  139.5064  144.3682  152.0496 LP  0  0  0  0  0  0  0  0  0  0  0  0  # atno 17343 bound_to 10162
  155.9663  130.4365  150.5136 LP  0  0  0  0  0  0  0  0  0  0  0  0  # atno 17370 bound_to 10713
  157.3062  131.0655  151.2033 LP  0  0  0  0  0  0  0  0  0  0  0  0  # atno 17371 bound_to 10713
  140.0803  134.9652  157.1613 LP  0  0  0  0  0  0  0  0  0  0  0  0  # atno 17394 bound_to 11000
  140.3586  134.2519  155.7190 LP  0  0  0  0  0  0  0  0  0  0  0  0  # atno 17395 bound_to 11000

$$$$
