AV-unprocessed.smi:54|AV-procd|sdf|531|dock9
  -GOLD-   2262016413D 1   1.00000     0.00000
 Structure written by MMmdl.
 44 46  0  0  0  0  0  0  0  0  1 V2000
  147.1168  135.4830  161.9680 C   0  0  0  0  0  0  0  0  0  0  0  0
  147.0769  136.5593  160.8711 C   0  0  0  0  0  0  0  0  0  0  0  0
  145.6648  136.7018  160.2805 C   0  0  0  0  0  0  0  0  0  0  0  0
  148.0926  136.2439  159.7675 C   0  0  0  0  0  0  0  0  0  0  0  0
  148.7108  135.1790  159.7348 O   0  0  0  0  0  0  0  0  0  0  0  0
  148.2794  137.2881  158.7754 N   0  0  0  0  0  0  0  0  0  0  0  0
  149.0894  137.2493  157.6923 C   0  0  0  0  0  0  0  0  0  0  0  0
  149.7380  138.3124  157.2415 N   0  0  0  0  0  0  0  0  0  0  0  0
  150.5267  138.0883  156.1485 C   0  0  0  0  0  0  0  0  0  0  0  0
  150.6964  136.8805  155.5024 C   0  0  0  0  0  0  0  0  0  0  0  0
  151.5720  137.0268  154.4336 N   0  0  0  0  0  0  0  0  0  0  0  0
  151.9019  138.2871  154.4670 C   0  0  0  0  0  0  0  0  0  0  0  0
  151.3041  139.0104  155.4714 N   0  0  0  0  0  0  0  0  0  0  0  0
  151.5021  140.4654  155.7745 C   0  0  2  0  0  0  0  0  0  0  0  0
  152.2541  140.5718  156.9481 O   0  0  0  0  0  0  0  0  0  0  0  0
  151.4885  141.1784  157.9880 C   0  0  1  0  0  0  0  0  0  0  0  0
  152.3940  141.9155  158.9909 C   0  0  0  0  0  0  0  0  0  0  0  0
  153.2805  141.0045  159.6057 O   0  0  0  0  0  0  0  0  0  0  0  0
  150.4859  142.0549  157.2266 C   0  0  1  0  0  0  0  0  0  0  0  0
  151.0750  143.3009  156.8862 O   0  0  0  0  0  0  0  0  0  0  0  0
  150.1703  141.1988  156.0021 C   0  0  1  0  0  0  0  0  0  0  0  0
  149.7675  141.9837  154.8957 O   0  0  0  0  0  0  0  0  0  0  0  0
  150.0056  135.7165  155.9790 C   0  0  0  0  0  0  0  0  0  0  0  0
  150.0402  134.5732  155.5293 O   0  0  0  0  0  0  0  0  0  0  0  0
  149.2121  135.9936  157.0996 N   0  0  0  0  0  0  0  0  0  0  0  0
  152.0802  140.8566  154.9361 H   0  0  0  0  0  0  0  0  0  0  0  0
  150.9272  140.4088  158.5151 H   0  0  0  0  0  0  0  0  0  0  0  0
  149.5926  142.2523  157.8202 H   0  0  0  0  0  0  0  0  0  0  0  0
  149.3822  140.4871  156.2472 H   0  0  0  0  0  0  0  0  0  0  0  0
  148.1187  135.3793  162.3857 H   0  0  0  0  0  0  0  0  0  0  0  0
  146.8117  134.5081  161.5854 H   0  0  0  0  0  0  0  0  0  0  0  0
  146.4463  135.7391  162.7890 H   0  0  0  0  0  0  0  0  0  0  0  0
  147.3506  137.5136  161.3237 H   0  0  0  0  0  0  0  0  0  0  0  0
  145.6369  137.4617  159.4983 H   0  0  0  0  0  0  0  0  0  0  0  0
  144.9500  136.9976  161.0485 H   0  0  0  0  0  0  0  0  0  0  0  0
  145.3139  135.7643  159.8470 H   0  0  0  0  0  0  0  0  0  0  0  0
  147.7643  138.1425  158.9281 H   0  0  0  0  0  0  0  0  0  0  0  0
  152.5905  138.7225  153.7575 H   0  0  0  0  0  0  0  0  0  0  0  0
  152.9519  142.7197  158.5103 H   0  0  0  0  0  0  0  0  0  0  0  0
  151.7906  142.3632  159.7813 H   0  0  0  0  0  0  0  0  0  0  0  0
  152.7828  140.2618  159.9121 H   0  0  0  0  0  0  0  0  0  0  0  0
  150.3834  143.9276  156.7377 H   0  0  0  0  0  0  0  0  0  0  0  0
  149.6435  142.8733  155.1898 H   0  0  0  0  0  0  0  0  0  0  0  0
  148.6979  135.2186  157.4914 H   0  0  0  0  0  0  0  0  0  0  0  0
  1  2  1  0  0  0  0
  1 30  1  0  0  0  0
  1 31  1  0  0  0  0
  1 32  1  0  0  0  0
  2  3  1  0  0  0  0
  2  4  1  0  0  0  0
  2 33  1  0  0  0  0
  3 34  1  0  0  0  0
  3 35  1  0  0  0  0
  3 36  1  0  0  0  0
  4  5  2  0  0  0  0
  4  6  1  0  0  0  0
  6 37  1  0  0  0  0
  6  7  1  0  0  0  0
  7 25  1  0  0  0  0
  7  8  2  0  0  0  0
  8  9  1  0  0  0  0
  9 13  1  0  0  0  0
  9 10  2  0  0  0  0
 10 11  1  0  0  0  0
 10 23  1  0  0  0  0
 11 12  2  0  0  0  0
 12 13  1  0  0  0  0
 12 38  1  0  0  0  0
 13 14  1  0  0  0  0
 14 26  1  0  0  0  0
 14 21  1  0  0  0  0
 14 15  1  0  0  0  0
 15 16  1  0  0  0  0
 16 27  1  0  0  0  0
 16 17  1  0  0  0  0
 16 19  1  0  0  0  0
 17 18  1  0  0  0  0
 17 39  1  0  0  0  0
 17 40  1  0  0  0  0
 18 41  1  0  0  0  0
 19 28  1  0  0  0  0
 19 20  1  0  0  0  0
 19 21  1  0  0  0  0
 20 42  1  0  0  0  0
 21 29  1  0  0  0  0
 21 22  1  0  0  0  0
 22 43  1  0  0  0  0
 23 24  2  0  0  0  0
 23 25  1  0  0  0  0
 25 44  1  0  0  0  0
M  END
> <s_m_source_file>
AV-unprocessed.smi

> <i_m_source_file_index>
54

> <i_lp_mmshare_version>
43012

> <i_f3d_flags>
0

> <s_epik_input>
W0NIM11bQ0hdKFtDSDNdKUMoPU8pW05IXWMobjEpW25IXWMoPU8pYyhjMTIpbltjSF1uMltDQEBIXTNPW0NASF0oW0NIMl1bT0hdKVtDQEBIXShbT0hdKVtDQEhdM1tPSF0=

> <s_epik_cmdline>
J2VwaWtfcHl0aG9uJywgJy1waCcsICc3LjAnLCAnLXRuJywgJzgnLCAnLW1hJywgJzIwMCcsICctbWV0YWxfYmluZGluZycsICctaW1hZScsICc8aW5maWxlLm1hZT4nLCAnLW9tYWUnLCAnPG91dGZpbGUubWFlPic=

> <r_lp_tautomer_probability>
0.85571

> <r_epik_Ionization_Penalty>
0.0316551

> <r_epik_Ionization_Penalty_Charging>
0.0316043

> <r_epik_Ionization_Penalty_Neutral>
5.07097e-05

> <r_epik_State_Penalty>
3.15494e-07

> <r_epik_Charging_Adjusted_Penalty>
0.0316047

> <i_epik_Tot_Q>
0

> <i_epik_Tot_abs_Q>
0

> <r_epik_Metal_State_Penalty>
0.421206

> <b_epik_Metal_Only>
0

> <s_epik_Chemistry_Notes>
This compound contains an acetal/aminal-like group ( X-CH(R)-Y where X, Y are N, S, or O) that may be acid/base labile, releasing an aldehyde.

> <s_lp_Force_Field>
OPLS_2005

> <r_lp_Energy>
45.4171

> <b_lp_Chiralities_Consistent>
1

> <s_lp_Variant>
AV-unprocessed.smi:54-3

> <Gold.Version>
5.8.1

> <Gold.Id.Protein>
6NUR|6NUR_protein|mol2

> <Gold.PLP.Fitness>
45.7168

> <Gold.PLP.PLP>
-33.0430

> <Gold.PLP.part.hbond>
-6.4519

> <Gold.PLP.part.metal>
0.0000

> <Gold.PLP.part.buried>
-2.5746

> <Gold.PLP.part.nonpolar>
-24.6251

> <Gold.PLP.part.repulsive>
0.5422

> <Gold.PLP.ligand.clash>
0.0000

> <Gold.PLP.ligand.torsion>
0.5785

> <Gold.PLP.Chemscore.Hbond>
4.6006

> <Gold.PLP.Chemscore.CHOScore>
0.0000

> <Gold.PLP.Chemscore.Metal>
0.0000

> <Gold.Chemscore.Hbonds>
donor molecule, donor type, donor heavy atom, donor atom, acceptor molecule, acceptor atom, score
      L1  H    20    42       P1  8028  1.00
      L1  H    22    43       P1  8028  0.98
      P1  H  6896  6908       L1     5  0.94
      P1  H  7997  8010       L1    15  0.54
      P1  H 10752 10765       L1    11  0.99

> <Gold.PLP.Chemscore.Internal.Correction>
0.0290

> <Gold.Rescore>
     Score         DG    S(hbond)    S(metal)    S(lipo)     H(rot)  DE(clash)    DE(int)     intcor
     13.75     -15.06       4.28        0.00      48.30       4.05       0.53       0.78       ----

> <Gold.Chemscore.Fitness>
13.7501

> <Gold.Chemscore.DG>
-15.0579

> <Gold.Chemscore.ZeroCoef>
-5.4800

> <Gold.Chemscore.Hbond>
4.2793

> <Gold.Chemscore.Metal>
0.0000

> <Gold.Chemscore.Lipo>
48.3025

> <Gold.Chemscore.Internal_Hbond>
0.0000

> <Gold.Chemscore.DEClash>
0.5308

> <Gold.Chemscore.DEInternal>
0.7770

> <Gold.Chemscore.Rot>
4.0493

> <Gold.Chemscore.Internal.Correction>
   9.000000E+99

> <Gold.Chemscore.Hbonds>
donor molecule, donor type, donor heavy atom, donor atom, acceptor molecule, acceptor atom, score
      L1  H    20    42       P1  8028  0.94
      L1  H    22    43       P1  8028  0.91
      P1  H  6896  6908       L1     5  0.85
      P1  H  7997  8010       L1    15  0.35
      P1  H 10752 10765       L1    11  0.84

> <Gold.Chemscore.Hbond.Weighted>
-14.2927

> <Gold.Chemscore.Metal.Weighted>
-0.0000

> <Gold.Chemscore.Lipo.Weighted>
-5.6514

> <Gold.Chemscore.Internal_Hbond.Weighted>
0.0000

> <Gold.Chemscore.DEClash.Weighted>
0.5308

> <Gold.Chemscore.DEInternal.Weighted>
0.7770

> <Gold.Chemscore.Rot.Weighted>
10.3662

> <Gold.Chemscore.Internal.Correction.Weighted>
   9.000000E+99

> <Gold.Protein.RotatedTorsions>
[ 6907 6896 6895 6894 ] final  166.31 input  -60.11 | X-H torsion
[ 7974 7965 7964 7962 ] final -159.99 input  175.53 | X-H torsion
[ 8008 7997 7996 7995 ] final   70.27 input   59.86 | X-H torsion
[ 10167 10162 10161 10158 ] final  147.73 input  -65.29 | X-H torsion
[ 10718 10713 10712 10709 ] final  126.22 input   66.30 | X-H torsion
[ 10763 10752 10751 10750 ] final  145.96 input  -60.55 | X-H torsion
[ 11005 11000 10999 10996 ] final  -82.75 input  -57.11 | X-H torsion

> <Gold.Protein.ActiveResidues>
 VAL166  LYS551  ARG553  GLY616  TRP617  ASP618  TYR619  PRO620  LYS621  CYS622 
 ASP623  PHE694  ASN695  SER759  ASP760  ASP761  ALA762  ILE779  LEU786  VAL792 
 PHE793  MET794  SER795  GLU796  ALA797  LYS798  CYS799  TRP800  GLU811  SER814 

> <Gold.Protein.RotatedAtoms>
  151.8809  133.3495  159.3765 H   0  0  0  0  0  0  0  0  0  0  0  0  # atno 6907 bound_to 6896
  150.7128  134.5019  159.5575 H   0  0  0  0  0  0  0  0  0  0  0  0  # atno 6908 bound_to 6896
  152.2571  134.8073  160.0487 H   0  0  0  0  0  0  0  0  0  0  0  0  # atno 6909 bound_to 6896
  144.7444  140.3605  143.6097 H   0  0  0  0  0  0  0  0  0  0  0  0  # atno 7974 bound_to 7965
  155.7362  140.3491  155.5082 H   0  0  0  0  0  0  0  0  0  0  0  0  # atno 8008 bound_to 7997
  155.9137  140.1055  157.1282 H   0  0  0  0  0  0  0  0  0  0  0  0  # atno 8009 bound_to 7997
  154.4059  140.1263  156.4576 H   0  0  0  0  0  0  0  0  0  0  0  0  # atno 8010 bound_to 7997
  139.4885  144.5733  151.7012 H   0  0  0  0  0  0  0  0  0  0  0  0  # atno 10167 bound_to 10162
  157.5437  131.1096  150.8817 H   0  0  0  0  0  0  0  0  0  0  0  0  # atno 10718 bound_to 10713
  154.0140  135.2912  155.3389 H   0  0  0  0  0  0  0  0  0  0  0  0  # atno 10763 bound_to 10752
  154.7086  135.5159  153.8635 H   0  0  0  0  0  0  0  0  0  0  0  0  # atno 10764 bound_to 10752
  153.0710  135.6648  154.0369 H   0  0  0  0  0  0  0  0  0  0  0  0  # atno 10765 bound_to 10752
  141.1661  133.7260  156.8619 H   0  0  0  0  0  0  0  0  0  0  0  0  # atno 11005 bound_to 11000
  145.7182  139.1702  143.2500 LP  0  0  0  0  0  0  0  0  0  0  0  0  # atno 17320 bound_to 7965
  146.1297  140.7202  142.9418 LP  0  0  0  0  0  0  0  0  0  0  0  0  # atno 17321 bound_to 7965
  140.5325  144.0708  150.6058 LP  0  0  0  0  0  0  0  0  0  0  0  0  # atno 17342 bound_to 10162
  140.3703  143.2858  152.0286 LP  0  0  0  0  0  0  0  0  0  0  0  0  # atno 17343 bound_to 10162
  156.9362  130.5367  149.5279 LP  0  0  0  0  0  0  0  0  0  0  0  0  # atno 17370 bound_to 10713
  156.0518  130.5586  150.9005 LP  0  0  0  0  0  0  0  0  0  0  0  0  # atno 17371 bound_to 10713
  140.1843  134.9011  157.2985 LP  0  0  0  0  0  0  0  0  0  0  0  0  # atno 17394 bound_to 11000
  140.2361  134.3852  155.7501 LP  0  0  0  0  0  0  0  0  0  0  0  0  # atno 17395 bound_to 11000

$$$$
