AV-unprocessed.smi:2274|AV-procd|sdf|9169|dock10
  -GOLD-   2272012383D 1   1.00000     0.00000
 Structure written by MMmdl.
 47 48  0  0  0  0  0  0  0  0  1 V2000
  151.0728  142.3840  156.4592 C   0  0  0  0  0  0  0  0  0  0  0  0
  149.8911  142.2978  155.4796 C   0  0  0  0  0  0  0  0  0  0  0  0
  149.6926  140.9666  154.9184 N   0  0  0  0  0  0  0  0  0  0  0  0
  150.7322  140.0944  154.8939 N   0  0  0  0  0  0  0  0  0  0  0  0
  150.2736  139.0096  154.2938 C   0  0  0  0  0  0  0  0  0  0  0  0
  151.1772  137.8261  154.1004 C   0  0  0  0  0  0  0  0  0  0  0  0
  148.9122  139.1749  153.9281 C   0  0  0  0  0  0  0  0  0  0  0  0
  148.1449  138.2039  153.2371 N   0  0  0  0  0  0  0  0  0  0  0  0
  146.8113  138.0591  153.2733 C   0  0  0  0  0  0  0  0  0  0  0  0
  146.0467  138.7469  153.9500 O   0  0  0  0  0  0  0  0  0  0  0  0
  146.4076  137.0520  152.4867 N   0  0  0  0  0  0  0  0  0  0  0  0
  145.0214  136.6422  152.2949 C   0  0  0  0  0  0  0  0  0  0  0  0
  144.8721  135.6969  151.0901 C   0  0  0  0  0  0  0  0  0  0  0  0
  144.6896  134.2273  151.5004 C   0  0  1  0  0  0  0  0  0  0  0  0
  144.0141  133.3998  150.3889 C   0  0  0  0  0  0  0  0  0  0  0  0
  143.9221  131.9244  150.7946 C   0  0  0  0  0  0  0  0  0  0  0  0
  145.3086  131.4145  151.2006 C   0  0  0  0  0  0  0  0  0  0  0  0
  145.9233  132.3356  152.2659 C   0  0  0  0  0  0  0  0  0  0  0  0
  145.9745  133.6732  151.7787 O   0  0  0  0  0  0  0  0  0  0  0  0
  148.5692  140.4526  154.2856 C   0  0  0  0  0  0  0  0  0  0  0  0
  147.3207  141.2550  154.0836 C   0  0  0  0  0  0  0  0  0  0  0  0
  151.1361  143.3797  156.8981 H   0  0  0  0  0  0  0  0  0  0  0  0
  152.0235  142.1861  155.9631 H   0  0  0  0  0  0  0  0  0  0  0  0
  150.9614  141.6686  157.2745 H   0  0  0  0  0  0  0  0  0  0  0  0
  148.9831  142.5985  156.0018 H   0  0  0  0  0  0  0  0  0  0  0  0
  150.0318  142.9982  154.6558 H   0  0  0  0  0  0  0  0  0  0  0  0
  150.7710  137.1309  153.3656 H   0  0  0  0  0  0  0  0  0  0  0  0
  151.3090  137.2809  155.0350 H   0  0  0  0  0  0  0  0  0  0  0  0
  152.1632  138.1342  153.7518 H   0  0  0  0  0  0  0  0  0  0  0  0
  148.6673  137.4939  152.7452 H   0  0  0  0  0  0  0  0  0  0  0  0
  147.1086  136.5377  151.9737 H   0  0  0  0  0  0  0  0  0  0  0  0
  144.6928  136.1424  153.2064 H   0  0  0  0  0  0  0  0  0  0  0  0
  144.3842  137.5198  152.1753 H   0  0  0  0  0  0  0  0  0  0  0  0
  144.0113  136.0084  150.4969 H   0  0  0  0  0  0  0  0  0  0  0  0
  145.7417  135.7884  150.4380 H   0  0  0  0  0  0  0  0  0  0  0  0
  144.0769  134.1868  152.4030 H   0  0  0  0  0  0  0  0  0  0  0  0
  143.0179  133.7900  150.1780 H   0  0  0  0  0  0  0  0  0  0  0  0
  144.5864  133.4876  149.4645 H   0  0  0  0  0  0  0  0  0  0  0  0
  143.2307  131.8150  151.6312 H   0  0  0  0  0  0  0  0  0  0  0  0
  143.5211  131.3275  149.9751 H   0  0  0  0  0  0  0  0  0  0  0  0
  145.2412  130.3928  151.5752 H   0  0  0  0  0  0  0  0  0  0  0  0
  145.9593  131.3859  150.3259 H   0  0  0  0  0  0  0  0  0  0  0  0
  145.3498  132.2971  153.1933 H   0  0  0  0  0  0  0  0  0  0  0  0
  146.9355  132.0089  152.5048 H   0  0  0  0  0  0  0  0  0  0  0  0
  146.7417  140.8765  153.2417 H   0  0  0  0  0  0  0  0  0  0  0  0
  147.5500  142.2981  153.8667 H   0  0  0  0  0  0  0  0  0  0  0  0
  146.6906  141.2210  154.9725 H   0  0  0  0  0  0  0  0  0  0  0  0
  1  2  1  0  0  0  0
  1 22  1  0  0  0  0
  1 23  1  0  0  0  0
  1 24  1  0  0  0  0
  2  3  1  0  0  0  0
  2 25  1  0  0  0  0
  2 26  1  0  0  0  0
  3 20  1  0  0  0  0
  3  4  1  0  0  0  0
  4  5  2  0  0  0  0
  5  6  1  0  0  0  0
  5  7  1  0  0  0  0
  6 27  1  0  0  0  0
  6 28  1  0  0  0  0
  6 29  1  0  0  0  0
  7  8  1  0  0  0  0
  7 20  2  0  0  0  0
  8  9  1  0  0  0  0
  8 30  1  0  0  0  0
  9 10  2  0  0  0  0
  9 11  1  0  0  0  0
 11 12  1  0  0  0  0
 11 31  1  0  0  0  0
 12 13  1  0  0  0  0
 12 32  1  0  0  0  0
 12 33  1  0  0  0  0
 13 14  1  0  0  0  0
 13 34  1  0  0  0  0
 13 35  1  0  0  0  0
 14 19  1  0  0  0  0
 14 15  1  0  0  0  0
 14 36  1  0  0  0  0
 15 16  1  0  0  0  0
 15 37  1  0  0  0  0
 15 38  1  0  0  0  0
 16 17  1  0  0  0  0
 16 39  1  0  0  0  0
 16 40  1  0  0  0  0
 17 18  1  0  0  0  0
 17 41  1  0  0  0  0
 17 42  1  0  0  0  0
 18 19  1  0  0  0  0
 18 43  1  0  0  0  0
 18 44  1  0  0  0  0
 20 21  1  0  0  0  0
 21 45  1  0  0  0  0
 21 46  1  0  0  0  0
 21 47  1  0  0  0  0
M  END
> <s_m_source_file>
AV-unprocessed.smi

> <i_m_source_file_index>
2274

> <i_lp_mmshare_version>
43012

> <i_f3d_flags>
0

> <s_epik_input>
W0NIM11bQ0gyXW4xbmMoW0NIM10pYyhjMVtDSDNdKVtOSF1DKD1PKVtOSF1bQ0gyXVtDSDJdW0NAQEhdMltDSDJdW0NIMl1bQ0gyXVtDSDJdTzI=

> <s_epik_cmdline>
J2VwaWtfcHl0aG9uJywgJy1waCcsICc3LjAnLCAnLXRuJywgJzgnLCAnLW1hJywgJzIwMCcsICctbWV0YWxfYmluZGluZycsICctaW1hZScsICc8aW5maWxlLm1hZT4nLCAnLW9tYWUnLCAnPG91dGZpbGUubWFlPic=

> <r_lp_tautomer_probability>
1

> <r_epik_Ionization_Penalty>
0.00368263

> <r_epik_Ionization_Penalty_Charging>
0

> <r_epik_Ionization_Penalty_Neutral>
0.00368263

> <r_epik_State_Penalty>
0.00259417

> <r_epik_Charging_Adjusted_Penalty>
0.00259417

> <i_epik_Tot_Q>
0

> <i_epik_Tot_abs_Q>
0

> <r_epik_Metal_State_Penalty>
-0

> <b_epik_Metal_Only>
0

> <s_lp_Force_Field>
OPLS_2005

> <r_lp_Energy>
13.1283

> <b_lp_Chiralities_Consistent>
1

> <s_lp_Variant>
AV-unprocessed.smi:2274-2

> <Gold.Version>
5.8.1

> <Gold.Id.Protein>
6NUR|6NUR_protein|mol2

> <Gold.PLP.Fitness>
45.4560

> <Gold.PLP.PLP>
-39.1633

> <Gold.PLP.part.hbond>
-3.7692

> <Gold.PLP.part.metal>
0.0000

> <Gold.PLP.part.buried>
-0.5470

> <Gold.PLP.part.nonpolar>
-36.1066

> <Gold.PLP.part.repulsive>
0.4419

> <Gold.PLP.ligand.clash>
0.0000

> <Gold.PLP.ligand.torsion>
1.0616

> <Gold.PLP.Chemscore.Hbond>
2.7035

> <Gold.PLP.Chemscore.CHOScore>
0.0000

> <Gold.PLP.Chemscore.Metal>
0.0000

> <Gold.Chemscore.Hbonds>
donor molecule, donor type, donor heavy atom, donor atom, acceptor molecule, acceptor atom, score
      L1  H     8    30       P1  7948  1.00
      L1  H    11    31       P1  7948  0.88
      P1  H  7989  7998       L1     4  0.85

> <Gold.PLP.Chemscore.Internal.Correction>
0.3055

> <Gold.Rescore>
     Score         DG    S(hbond)    S(metal)    S(lipo)     H(rot)  DE(clash)    DE(int)     intcor
     16.36     -20.00       1.90        0.00     101.84       1.46       1.39       2.25       ----

> <Gold.Chemscore.Fitness>
16.3618

> <Gold.Chemscore.DG>
-20.0035

> <Gold.Chemscore.ZeroCoef>
-5.4800

> <Gold.Chemscore.Hbond>
1.9005

> <Gold.Chemscore.Metal>
0.0000

> <Gold.Chemscore.Lipo>
101.8381

> <Gold.Chemscore.Internal_Hbond>
0.0000

> <Gold.Chemscore.DEClash>
1.3948

> <Gold.Chemscore.DEInternal>
2.2469

> <Gold.Chemscore.Rot>
1.4606

> <Gold.Chemscore.Internal.Correction>
   9.000000E+99

> <Gold.Chemscore.Hbonds>
donor molecule, donor type, donor heavy atom, donor atom, acceptor molecule, acceptor atom, score
      L1  H     8    30       P1  7948  0.95
      L1  H    11    31       P1  7948  0.86
      P1  H  7989  7998       L1     4  0.04

> <Gold.Chemscore.Hbond.Weighted>
-6.3477

> <Gold.Chemscore.Metal.Weighted>
-0.0000

> <Gold.Chemscore.Lipo.Weighted>
-11.9151

> <Gold.Chemscore.Internal_Hbond.Weighted>
0.0000

> <Gold.Chemscore.DEClash.Weighted>
1.3948

> <Gold.Chemscore.DEInternal.Weighted>
2.2469

> <Gold.Chemscore.Rot.Weighted>
3.7393

> <Gold.Chemscore.Internal.Correction.Weighted>
   9.000000E+99

> <Gold.Protein.RotatedTorsions>
[ 6907 6896 6895 6894 ] final   21.08 input  -60.11 | X-H torsion
[ 7974 7965 7964 7962 ] final   30.29 input  175.53 | X-H torsion
[ 8008 7997 7996 7995 ] final -145.18 input   59.86 | X-H torsion
[ 10167 10162 10161 10158 ] final  -71.88 input  -65.29 | X-H torsion
[ 10718 10713 10712 10709 ] final  117.56 input   66.30 | X-H torsion
[ 10763 10752 10751 10750 ] final  119.43 input  -60.55 | X-H torsion
[ 11005 11000 10999 10996 ] final   46.98 input  -57.11 | X-H torsion

> <Gold.Protein.ActiveResidues>
 VAL166  LYS551  ARG553  GLY616  TRP617  ASP618  TYR619  PRO620  LYS621  CYS622 
 ASP623  PHE694  ASN695  SER759  ASP760  ASP761  ALA762  ILE779  LEU786  VAL792 
 PHE793  MET794  SER795  GLU796  ALA797  LYS798  CYS799  TRP800  GLU811  SER814 

> <Gold.Protein.RotatedAtoms>
  151.9064  135.0357  160.0510 H   0  0  0  0  0  0  0  0  0  0  0  0  # atno 6907 bound_to 6896
  152.2316  133.5058  159.5227 H   0  0  0  0  0  0  0  0  0  0  0  0  # atno 6908 bound_to 6896
  150.7027  134.1125  159.4048 H   0  0  0  0  0  0  0  0  0  0  0  0  # atno 6909 bound_to 6896
  146.1621  139.6808  142.9026 H   0  0  0  0  0  0  0  0  0  0  0  0  # atno 7974 bound_to 7965
  155.5390  140.0606  157.2874 H   0  0  0  0  0  0  0  0  0  0  0  0  # atno 8008 bound_to 7997
  154.4458  140.1922  156.0615 H   0  0  0  0  0  0  0  0  0  0  0  0  # atno 8009 bound_to 7997
  156.0598  140.3274  155.7452 H   0  0  0  0  0  0  0  0  0  0  0  0  # atno 8010 bound_to 7997
  140.5237  143.2328  151.7384 H   0  0  0  0  0  0  0  0  0  0  0  0  # atno 10167 bound_to 10162
  157.6089  131.1038  150.7632 H   0  0  0  0  0  0  0  0  0  0  0  0  # atno 10718 bound_to 10713
  153.5830  135.3480  155.2882 H   0  0  0  0  0  0  0  0  0  0  0  0  # atno 10763 bound_to 10752
  154.8665  135.4186  154.2600 H   0  0  0  0  0  0  0  0  0  0  0  0  # atno 10764 bound_to 10752
  153.3390  135.7049  153.6953 H   0  0  0  0  0  0  0  0  0  0  0  0  # atno 10765 bound_to 10752
  140.1320  134.4694  155.8514 H   0  0  0  0  0  0  0  0  0  0  0  0  # atno 11005 bound_to 11000
  145.4562  141.0431  143.2777 LP  0  0  0  0  0  0  0  0  0  0  0  0  # atno 17320 bound_to 7965
  144.8041  139.6085  143.7059 LP  0  0  0  0  0  0  0  0  0  0  0  0  # atno 17321 bound_to 7965
  139.4931  144.4217  151.9971 LP  0  0  0  0  0  0  0  0  0  0  0  0  # atno 17342 bound_to 10162
  140.3315  144.3311  150.5986 LP  0  0  0  0  0  0  0  0  0  0  0  0  # atno 17343 bound_to 10162
  156.8013  130.4922  149.5369 LP  0  0  0  0  0  0  0  0  0  0  0  0  # atno 17370 bound_to 10713
  156.1184  130.6092  151.0156 LP  0  0  0  0  0  0  0  0  0  0  0  0  # atno 17371 bound_to 10713
  141.2172  133.6799  156.7086 LP  0  0  0  0  0  0  0  0  0  0  0  0  # atno 17394 bound_to 11000
  140.2830  134.8301  157.3950 LP  0  0  0  0  0  0  0  0  0  0  0  0  # atno 17395 bound_to 11000

$$$$
